
  -OEChem-04052303043D

 91 99  0     1  0  0  0  0  0999 V2000
  -19.3933  -24.3092   21.5284 C   0  0  0  0  0  0  0  0  0  0  0  0
  -20.5140  -24.7554   20.8355 C   0  0  0  0  0  0  0  0  0  0  0  0
  -22.0224  -14.7579   23.6648 C   0  0  0  0  0  0  0  0  0  0  0  0
  -21.5283  -15.3247   21.3688 C   0  0  0  0  0  0  0  0  0  0  0  0
  -18.5743  -25.2235   22.1897 C   0  0  0  0  0  0  0  0  0  0  0  0
  -20.8159  -26.1164   20.8025 C   0  0  0  0  0  0  0  0  0  0  0  0
  -25.7291  -27.0369   21.6133 C   0  0  0  0  0  0  0  0  0  0  0  0
  -20.7756  -15.2472   24.0540 C   0  0  0  0  0  0  0  0  0  0  0  0
  -20.2813  -15.8140   21.7580 C   0  0  0  0  0  0  0  0  0  0  0  0
  -26.6012  -26.8250   20.5463 C   0  0  0  0  0  0  0  0  0  0  0  0
  -19.0397  -18.6151   23.1873 C   0  0  0  0  0  0  0  0  0  0  0  0
  -18.6308  -19.8400   22.6599 C   0  0  0  0  0  0  0  0  0  0  0  0
  -26.6119  -29.1942   20.0924 C   0  0  0  0  0  0  0  0  0  0  0  0
  -28.1742  -20.1172   15.2591 C   0  0  0  0  0  0  0  0  0  0  0  0
  -27.2649  -18.1618   16.3483 C   0  0  0  0  0  0  0  0  0  0  0  0
  -29.1054  -19.3595   17.3558 C   0  0  0  0  0  0  0  0  0  0  0  0
  -16.7049  -18.7701   21.6684 C   0  0  0  0  0  0  0  0  0  0  0  0
  -22.3988  -14.7967   22.3222 C   0  0  0  0  0  0  0  0  0  0  0  0
  -23.9998  -12.9766   21.5274 C   0  0  0  0  0  0  0  0  0  0  0  0
  -18.8716  -26.5954   22.1728 C   0  0  0  0  0  0  0  0  0  0  0  0
  -25.2826  -28.3300   21.9216 C   0  0  0  0  0  0  0  0  0  0  0  0
  -19.9993  -27.0500   21.4630 C   0  0  0  0  0  0  0  0  0  0  0  0
  -25.7363  -29.4202   21.1654 C   0  0  0  0  0  0  0  0  0  0  0  0
  -27.2576  -19.0662   15.2863 C   0  0  0  0  0  0  0  0  0  0  0  0
  -29.0982  -20.2639   16.2938 C   0  0  0  0  0  0  0  0  0  0  0  0
  -28.1888  -18.3085   17.3830 C   0  0  0  0  0  0  0  0  0  0  0  0
  -19.9050  -15.7752   23.1006 C   0  0  0  0  0  0  0  0  0  0  0  0
  -27.0404  -27.9034   19.7839 C   0  0  0  0  0  0  0  0  0  0  0  0
  -18.2813  -17.4677   22.9551 C   0  0  0  0  0  0  0  0  0  0  0  0
  -17.4634  -19.9175   21.9005 C   0  0  0  0  0  0  0  0  0  0  0  0
  -17.1138  -17.5452   22.1957 C   0  0  0  0  0  0  0  0  0  0  0  0
  -23.6869  -14.2919   21.9196 C   0  0  0  0  0  0  0  0  0  0  0  0
  -25.3437  -13.0127   21.2461 C   0  0  0  0  0  0  0  0  0  0  0  0
  -23.1515  -11.8252   21.4262 C   0  0  0  0  0  0  0  0  0  0  0  0
  -22.4475  -29.7653   21.9980 C   0  0  0  0  0  0  0  0  0  0  0  0
  -24.1622  -32.2264   23.2331 C   0  0  0  0  0  0  0  0  0  0  0  0
  -30.1485  -22.3219   15.3006 C   0  0  0  0  0  0  0  0  0  0  0  0
  -27.1836  -33.7812   23.5494 C   0  0  0  0  0  0  0  0  0  0  0  0
  -29.0468  -17.3913   19.5668 C   0  0  0  0  0  0  0  0  0  0  0  0
  -17.9303  -27.5507   22.8628 C   0  0  0  0  0  0  0  0  0  0  0  0
  -24.3631  -28.5449   23.0923 C   0  0  0  0  0  0  0  0  0  0  0  0
  -25.3025  -30.8304   21.4678 C   0  0  0  0  0  0  0  0  0  0  0  0
  -18.5288  -28.9361   23.0924 C   0  0  0  0  0  0  0  0  0  0  0  0
  -29.3607  -15.3255   22.4497 C   0  0  0  0  0  0  0  0  0  0  0  0
  -19.2157  -29.4375   21.8260 C   0  0  0  0  0  0  0  0  0  0  0  0
  -27.9716  -14.7016   22.6017 C   0  0  0  0  0  0  0  0  0  0  0  0
  -29.2829  -16.7710   21.9615 C   0  0  0  0  0  0  0  0  0  0  0  0
  -27.1045  -16.3480   20.8915 C   0  0  0  0  0  0  0  0  0  0  0  0
  -20.3737  -28.5158   21.4247 C   0  0  1  0  0  0  0  0  0  0  0  0
  -23.5675  -29.8431   22.9967 C   0  0  1  0  0  0  0  0  0  0  0  0
  -27.1341  -14.8715   21.3189 C   0  0  2  0  0  0  0  0  0  0  0  0
  -24.9711  -19.6629   14.4484 C   0  0  0  0  0  0  0  0  0  0  0  0
  -28.2642  -35.7939   24.5883 C   0  0  0  0  0  0  0  0  0  0  0  0
  -22.9580  -33.9934   21.0565 C   0  0  0  0  0  0  0  0  0  0  0  0
  -24.7448  -35.6806   21.5350 C   0  0  0  0  0  0  0  0  0  0  0  0
  -23.1033  -35.0674   23.3104 C   0  0  0  0  0  0  0  0  0  0  0  0
  -28.4373  -26.8156   15.9782 C   0  0  0  0  0  0  0  0  0  0  0  0
  -30.4130  -27.2850   17.4143 C   0  0  0  0  0  0  0  0  0  0  0  0
  -28.9866  -25.8503   19.7795 C   0  0  0  0  0  0  0  0  0  0  0  0
  -26.9839  -25.5325   18.3255 C   0  0  0  0  0  0  0  0  0  0  0  0
  -28.9797  -32.1078   25.2026 C   0  0  0  0  0  0  0  0  0  0  0  0
  -26.2707  -18.9090   14.1790 C   0  0  0  0  0  0  0  0  0  0  0  0
  -31.2710  -23.2949   15.6208 C   0  0  0  0  0  0  0  0  0  0  0  0
  -30.7534  -24.7273   15.7735 C   0  0  0  0  0  0  0  0  0  0  0  0
  -29.7637  -24.8728   16.9425 C   0  0  0  0  0  0  0  0  0  0  0  0
  -24.8987  -33.4116   22.6570 C   0  0  1  0  0  0  0  0  0  0  0  0
  -27.9148  -34.3242   24.7640 C   0  0  2  0  0  0  0  0  0  0  0  0
  -23.9330  -34.5116   22.1326 C   0  0  0  0  0  0  0  0  0  0  0  0
  -29.2223  -26.3128   17.2160 C   0  0  0  0  0  0  0  0  0  0  0  0
  -28.2849  -26.3360   18.4991 C   0  0  0  0  0  0  0  0  0  1  0  0
  -24.7468  -15.1043   21.8915 N   0  0  0  0  0  0  0  0  0  0  0  0
  -25.7388  -14.2973   21.4783 N   0  0  0  0  0  0  0  0  0  0  0  0
  -24.3979  -30.9884   22.6186 N   0  0  0  0  0  0  0  0  0  0  0  0
  -28.4779  -16.8540   20.7409 N   0  0  0  0  0  0  0  0  0  0  0  0
  -26.2142  -12.0705   20.8254 N   0  0  0  0  0  0  0  0  0  0  0  0
  -21.7956  -11.9635   21.7529 N   0  0  0  0  0  0  0  0  0  0  0  0
  -30.0279  -21.3302   16.2656 N   0  0  0  0  0  0  0  0  0  0  0  0
  -28.1970  -17.3890   18.4611 N   0  0  0  0  0  0  0  0  0  0  0  0
  -21.5302  -28.7652   22.2582 N   0  0  0  0  0  0  0  0  0  0  0  0
  -25.8153  -33.8672   23.6964 N   0  0  0  0  0  0  0  0  0  0  0  0
  -29.1769  -33.5650   24.9910 N   0  3  0  0  0  0  0  0  0  0  0  0
  -23.5864  -10.7029   21.0727 O   0  0  0  0  0  0  0  0  0  0  0  0
  -22.4170  -30.5552   21.0617 O   0  0  0  0  0  0  0  0  0  0  0  0
  -23.4111  -32.3917   24.1976 O   0  0  0  0  0  0  0  0  0  0  0  0
  -29.4592  -22.4800   14.2968 O   0  0  0  0  0  0  0  0  0  0  0  0
  -27.7679  -33.3297   22.5670 O   0  0  0  0  0  0  0  0  0  0  0  0
  -30.2116  -17.7966   19.5368 O   0  0  0  0  0  0  0  0  0  0  0  0
  -18.6881  -16.2526   23.4800 O   0  0  0  0  0  0  0  0  0  0  0  0
  -27.8924  -27.6989   18.7399 O   0  0  0  0  0  0  0  0  0  1  0  0
  -17.0700  -21.0941   21.3955 F   0  0  0  0  0  0  0  0  0  0  0  0
  -16.3804  -16.4466   21.9703 F   0  0  0  0  0  0  0  0  0  0  0  0
  1  2  1  0  0  0  0
  1  5  2  0  0  0  0
  2  6  2  0  0  0  0
  3  8  2  0  0  0  0
  3 18  1  0  0  0  0
  4  9  1  0  0  0  0
  4 18  2  0  0  0  0
  5 20  1  0  0  0  0
  6 22  1  0  0  0  0
  7 10  2  0  0  0  0
  7 21  1  0  0  0  0
  8 27  1  0  0  0  0
  9 27  2  0  0  0  0
 10 28  1  0  0  0  0
 11 12  2  0  0  0  0
 11 29  1  0  0  0  0
 12 30  1  0  0  0  0
 13 23  1  0  0  0  0
 13 28  2  0  0  0  0
 14 24  1  0  0  0  0
 14 25  2  0  0  0  0
 15 24  2  0  0  0  0
 15 26  1  0  0  0  0
 16 25  1  0  0  0  0
 16 26  2  0  0  0  0
 17 30  2  0  0  0  0
 17 31  1  0  0  0  0
 18 32  1  0  0  0  0
 19 32  1  0  0  0  0
 19 33  2  0  0  0  0
 19 34  1  0  0  0  0
 20 22  2  0  0  0  0
 20 40  1  0  0  0  0
 21 23  2  0  0  0  0
 21 41  1  0  0  0  0
 22 49  1  0  0  0  0
 23 42  1  0  0  0  0
 24 62  1  0  0  0  0
 25 77  1  0  0  0  0
 26 78  1  0  0  0  0
 27 88  1  0  0  0  0
 28 89  1  0  0  0  0
 29 31  2  0  0  0  0
 29 88  1  0  0  0  0
 30 90  1  0  0  0  0
 31 91  1  0  0  0  0
 32 71  2  0  0  0  0
 33 72  1  0  0  0  0
 33 75  1  0  0  0  0
 34 76  1  0  0  0  0
 34 82  2  0  0  0  0
 35 50  1  0  0  0  0
 35 79  1  0  0  0  0
 35 83  2  0  0  0  0
 36 66  1  0  0  0  0
 36 73  1  0  0  0  0
 36 84  2  0  0  0  0
 37 63  1  0  0  0  0
 37 77  1  0  0  0  0
 37 85  2  0  0  0  0
 38 67  1  0  0  0  0
 38 80  1  0  0  0  0
 38 86  2  0  0  0  0
 39 74  1  0  0  0  0
 39 78  1  0  0  0  0
 39 87  2  0  0  0  0
 40 43  1  0  0  0  0
 41 50  1  0  0  0  0
 42 73  1  0  0  0  0
 43 45  1  0  0  0  0
 44 46  1  0  0  0  0
 44 47  1  0  0  0  0
 45 49  1  0  0  0  0
 46 51  1  0  0  0  0
 47 74  1  0  0  0  0
 48 51  1  0  0  0  0
 48 74  1  0  0  0  0
 49 79  1  0  0  0  0
 50 73  1  0  0  0  0
 51 72  1  0  0  0  0
 52 62  1  0  0  0  0
 53 67  1  0  0  0  0
 54 68  1  0  0  0  0
 55 68  1  0  0  0  0
 56 68  1  0  0  0  0
 57 69  1  0  0  0  0
 58 69  1  0  0  0  0
 59 70  1  0  0  0  0
 60 70  1  0  0  0  0
 61 81  1  0  0  0  0
 63 64  1  0  0  0  0
 64 65  1  0  0  0  0
 65 69  1  0  0  0  0
 66 68  1  0  0  0  0
 66 80  1  0  0  0  0
 67 81  1  0  0  0  0
 69 70  1  0  0  0  0
 70 89  1  0  0  0  0
 71 72  1  0  0  0  0
M  CHG  1  81   1
M  ISO  4  39 100  70 101  78 100  89 101
M  END
> <Batch ID>
0144

> <Smiles>
CCc1cc(NC(=O)CCCC(C)(C)[101C:1](C)(C)[101O:1]c2ccc3c(c2)CN(C(=O)C(NC(=O)C(C)NC)C(C)(C)C)C(C(=O)NC2CCCc4ccccc42)C3)cc([100NH:0][100C:0](=O)N2CCCC(n3nc(-c4ccc(Oc5ccc(F)cc5F)cc4)c(C(N)=O)c3N)C2)c1

> <Shape>
0.249

> <Color>
0.108

> <Negative vol penalty>
0.000

$$$$

  -OEChem-04052303043D

 88 97  0     1  0  0  0  0  0999 V2000
  -21.0388  -33.4848   25.1764 C   0  0  0  0  0  0  0  0  0  0  0  0
  -22.2764  -33.0043   24.7606 C   0  0  0  0  0  0  0  0  0  0  0  0
  -26.4859  -21.1642   22.2946 C   0  0  0  0  0  0  0  0  0  0  0  0
  -24.6040   -9.3800   21.3778 C   0  0  0  0  0  0  0  0  0  0  0  0
  -24.7845  -10.4638   23.5295 C   0  0  0  0  0  0  0  0  0  0  0  0
  -27.6558  -21.8996   22.4844 C   0  0  0  0  0  0  0  0  0  0  0  0
  -19.9297  -32.6400   25.1801 C   0  0  0  0  0  0  0  0  0  0  0  0
  -22.4058  -31.6782   24.3493 C   0  0  0  0  0  0  0  0  0  0  0  0
  -26.0892  -29.5300   19.9534 C   0  0  0  0  0  0  0  0  0  0  0  0
  -26.5502  -19.8761   21.7630 C   0  0  0  0  0  0  0  0  0  0  0  0
  -24.4073   -8.1534   22.0120 C   0  0  0  0  0  0  0  0  0  0  0  0
  -24.5877   -9.2371   24.1638 C   0  0  0  0  0  0  0  0  0  0  0  0
  -27.3407  -28.9168   19.9949 C   0  0  0  0  0  0  0  0  0  0  0  0
  -21.8761   -6.5216   23.5492 C   0  0  0  0  0  0  0  0  0  0  0  0
  -20.8559   -5.7001   23.0697 C   0  0  0  0  0  0  0  0  0  0  0  0
  -28.9545  -20.0591   21.6109 C   0  0  0  0  0  0  0  0  0  0  0  0
  -26.2768  -26.7535   19.9084 C   0  0  0  0  0  0  0  0  0  0  0  0
  -22.4743   -3.9727   22.5860 C   0  0  0  0  0  0  0  0  0  0  0  0
  -24.7927  -10.5352   22.1365 C   0  0  0  0  0  0  0  0  0  0  0  0
  -28.8901  -21.3471   22.1425 C   0  0  0  0  0  0  0  0  0  0  0  0
  -24.0090  -12.7296   21.0980 C   0  0  0  0  0  0  0  0  0  0  0  0
  -20.0435  -31.3056   24.7594 C   0  0  0  0  0  0  0  0  0  0  0  0
  -24.9198  -28.7580   19.9000 C   0  0  0  0  0  0  0  0  0  0  0  0
  -21.2974  -30.8144   24.3486 C   0  0  0  0  0  0  0  0  0  0  0  0
  -25.0119  -27.3593   19.8637 C   0  0  0  0  0  0  0  0  0  0  0  0
  -27.7845  -19.3237   21.4211 C   0  0  0  0  0  0  0  0  0  0  0  0
  -24.3991   -8.0820   23.4050 C   0  0  0  0  0  0  0  0  0  0  0  0
  -27.4345  -27.5283   19.9753 C   0  0  0  0  0  0  0  0  0  0  0  0
  -23.1954   -6.0687   23.5471 C   0  0  0  0  0  0  0  0  0  0  0  0
  -21.1550   -4.4257   22.5881 C   0  0  0  0  0  0  0  0  0  0  0  0
  -23.4945   -4.7943   23.0656 C   0  0  0  0  0  0  0  0  0  0  0  0
  -24.9965  -11.8025   21.4819 C   0  0  0  0  0  0  0  0  0  0  0  0
  -24.7109  -13.7597   20.5213 C   0  0  0  0  0  0  0  0  0  0  0  0
  -30.1116  -22.1167   22.3414 C   0  0  0  0  0  0  0  0  0  0  0  0
  -22.5847  -12.6653   21.2494 C   0  0  0  0  0  0  0  0  0  0  0  0
  -22.3903  -28.3845   21.7885 C   0  0  0  0  0  0  0  0  0  0  0  0
  -21.3082  -26.5705   19.3266 C   0  0  0  0  0  0  0  0  0  0  0  0
  -22.0396  -24.6688   16.5889 C   0  0  0  0  0  0  0  0  0  0  0  0
  -28.9927  -17.3190   20.4895 C   0  0  0  0  0  0  0  0  0  0  0  0
  -18.8265  -30.4172   24.8257 C   0  0  0  0  0  0  0  0  0  0  0  0
  -23.5786  -29.4351   19.8288 C   0  0  0  0  0  0  0  0  0  0  0  0
  -23.7875  -26.4857   19.7862 C   0  0  0  0  0  0  0  0  0  0  0  0
  -18.9682  -29.1288   24.0194 C   0  0  0  0  0  0  0  0  0  0  0  0
  -29.5737  -14.0712   19.1510 C   0  0  0  0  0  0  0  0  0  0  0  0
  -20.3177  -28.4728   24.2941 C   0  0  0  0  0  0  0  0  0  0  0  0
  -28.3535  -13.2677   19.6065 C   0  0  0  0  0  0  0  0  0  0  0  0
  -30.8106  -25.5479   21.3230 C   0  0  0  0  0  0  0  0  0  0  0  0
  -30.0213  -15.0738   20.2131 C   0  0  0  0  0  0  0  0  0  0  0  0
  -30.3776  -24.5525   22.3876 C   0  0  0  0  0  0  0  0  0  0  0  0
  -27.7476  -15.1695   21.1567 C   0  0  0  0  0  0  0  0  0  0  0  0
  -21.4726  -29.3889   23.8717 C   0  0  1  0  0  0  0  0  0  0  0  0
  -22.4329  -28.5421   20.2948 C   0  0  1  0  0  0  0  0  0  0  0  0
  -27.2202  -14.1917   20.0940 C   0  0  2  0  0  0  0  0  0  0  0  0
  -30.1467  -25.0190   20.0307 C   0  0  2  0  0  0  0  0  0  0  0  0
  -30.2814  -23.4562   20.2097 C   0  0  0  0  0  0  0  0  0  0  0  0
  -30.8532  -25.5863   18.7916 C   0  0  0  0  0  0  0  0  0  0  0  0
  -29.1684  -22.6716   19.4937 C   0  0  0  0  0  0  0  0  0  0  0  0
  -31.6406  -22.9081   19.7236 C   0  0  0  0  0  0  0  0  0  0  0  0
  -20.9476  -23.2857   14.8022 C   0  0  0  0  0  0  0  0  0  0  0  0
  -20.8586  -24.3251   21.3431 C   0  0  0  0  0  0  0  0  0  0  0  0
  -20.6911  -22.7280   19.4223 C   0  0  0  0  0  0  0  0  0  0  0  0
  -19.0392  -24.5836   19.6468 C   0  0  0  0  0  0  0  0  0  0  0  0
  -23.0892  -26.4093   14.4376 C   0  0  0  0  0  0  0  0  0  0  0  0
  -28.6771  -25.5006   19.9931 C   0  0  0  0  0  0  0  0  0  1  0  0
  -21.4103  -25.1129   18.9471 C   0  0  1  0  0  0  0  0  0  0  0  0
  -21.4658  -24.6638   15.1834 C   0  0  2  0  0  0  0  0  0  0  0  0
  -20.5230  -24.2035   19.8432 C   0  0  0  0  0  0  0  0  0  0  0  0
  -26.2315  -12.2078   21.1747 N   0  0  0  0  0  0  0  0  0  0  0  0
  -26.0248  -13.4009   20.5917 N   0  0  0  0  0  0  0  0  0  0  0  0
  -30.2142  -23.2933   21.6816 N   0  0  0  0  0  0  0  0  0  0  0  0
  -22.4987  -27.1948   19.7250 N   0  0  0  0  0  0  0  0  0  0  0  0
  -28.8969  -15.9177   20.6235 N   0  0  0  0  0  0  0  0  0  0  0  0
  -24.3261  -14.9284   19.9658 N   0  0  0  0  0  0  0  0  0  0  0  0
  -22.0285  -11.5353   21.8643 N   0  0  0  0  0  0  0  0  0  0  0  0
  -27.8497  -18.0152   20.8814 N   0  0  0  0  0  0  0  0  0  0  0  0
  -21.6468  -29.3530   22.4354 N   0  0  0  0  0  0  0  0  0  0  0  0
  -21.0965  -25.0387   17.5243 N   0  0  0  0  0  0  0  0  0  0  0  0
  -22.5087  -25.0632   14.1967 N   0  3  0  0  0  0  0  0  0  0  0  0
  -21.8265  -13.5753   20.8363 O   0  0  0  0  0  0  0  0  0  0  0  0
  -22.9867  -27.4523   22.3149 O   0  0  0  0  0  0  0  0  0  0  0  0
  -20.2137  -27.1362   19.2649 O   0  0  0  0  0  0  0  0  0  0  0  0
  -23.2067  -24.3706   16.8329 O   0  0  0  0  0  0  0  0  0  0  0  0
  -30.0034  -17.8596   20.0333 O   0  0  0  0  0  0  0  0  0  0  0  0
  -24.2070   -6.8852   24.0243 O   0  0  0  0  0  0  0  0  0  0  0  0
  -28.6547  -26.9272   20.0164 O   0  0  0  0  0  0  0  0  0  1  0  0
  -20.1751   -3.6363   22.1290 F   0  0  0  0  0  0  0  0  0  0  0  0
  -24.7599   -4.3532   23.0621 F   0  0  0  0  0  0  0  0  0  0  0  0
  -31.3240  -21.5815   23.3633 S   0  0  0  0  0  0  0  0  0  0  0  0
  1  2  1  0  0  0  0
  1  7  2  0  0  0  0
  2  8  2  0  0  0  0
  3  6  2  0  0  0  0
  3 10  1  0  0  0  0
  4 11  2  0  0  0  0
  4 19  1  0  0  0  0
  5 12  1  0  0  0  0
  5 19  2  0  0  0  0
  6 20  1  0  0  0  0
  7 22  1  0  0  0  0
  8 24  1  0  0  0  0
  9 13  2  0  0  0  0
  9 23  1  0  0  0  0
 10 26  2  0  0  0  0
 11 27  1  0  0  0  0
 12 27  2  0  0  0  0
 13 28  1  0  0  0  0
 14 15  2  0  0  0  0
 14 29  1  0  0  0  0
 15 30  1  0  0  0  0
 16 20  2  0  0  0  0
 16 26  1  0  0  0  0
 17 25  1  0  0  0  0
 17 28  2  0  0  0  0
 18 30  2  0  0  0  0
 18 31  1  0  0  0  0
 19 32  1  0  0  0  0
 20 34  1  0  0  0  0
 21 32  1  0  0  0  0
 21 33  2  0  0  0  0
 21 35  1  0  0  0  0
 22 24  2  0  0  0  0
 22 40  1  0  0  0  0
 23 25  2  0  0  0  0
 23 41  1  0  0  0  0
 24 51  1  0  0  0  0
 25 42  1  0  0  0  0
 26 75  1  0  0  0  0
 27 84  1  0  0  0  0
 28 85  1  0  0  0  0
 29 31  2  0  0  0  0
 29 84  1  0  0  0  0
 30 86  1  0  0  0  0
 31 87  1  0  0  0  0
 32 68  2  0  0  0  0
 33 69  1  0  0  0  0
 33 73  1  0  0  0  0
 34 70  1  0  0  0  0
 34 88  2  0  0  0  0
 35 74  1  0  0  0  0
 35 79  2  0  0  0  0
 36 52  1  0  0  0  0
 36 76  1  0  0  0  0
 36 80  2  0  0  0  0
 37 65  1  0  0  0  0
 37 71  1  0  0  0  0
 37 81  2  0  0  0  0
 38 66  1  0  0  0  0
 38 77  1  0  0  0  0
 38 82  2  0  0  0  0
 39 72  1  0  0  0  0
 39 75  1  0  0  0  0
 39 83  2  0  0  0  0
 40 43  1  0  0  0  0
 41 52  1  0  0  0  0
 42 71  1  0  0  0  0
 43 45  1  0  0  0  0
 44 46  1  0  0  0  0
 44 48  1  0  0  0  0
 45 51  1  0  0  0  0
 46 53  1  0  0  0  0
 47 49  1  0  0  0  0
 47 54  1  0  0  0  0
 48 72  1  0  0  0  0
 49 70  1  0  0  0  0
 50 53  1  0  0  0  0
 50 72  1  0  0  0  0
 51 76  1  0  0  0  0
 52 71  1  0  0  0  0
 53 69  1  0  0  0  0
 54 55  1  0  0  0  0
 54 56  1  0  0  0  0
 54 64  1  0  0  0  0
 55 57  1  0  0  0  0
 55 58  1  0  0  0  0
 55 70  1  0  0  0  0
 59 66  1  0  0  0  0
 60 67  1  0  0  0  0
 61 67  1  0  0  0  0
 62 67  1  0  0  0  0
 63 78  1  0  0  0  0
 64 85  1  0  0  0  0
 65 67  1  0  0  0  0
 65 77  1  0  0  0  0
 66 78  1  0  0  0  0
 68 69  1  0  0  0  0
M  CHG  1  78   1
M  ISO  4  39 100  64 101  75 100  85 101
M  END
> <Batch ID>
0144

> <Smiles>
CNC(C)C(=O)NC(C(=O)N1Cc2cc([101O:1][101CH2:1]C3(C)CCN(C(=S)c4cccc([100NH:0][100C:0](=O)N5CCCC(n6nc(-c7ccc(Oc8ccc(F)cc8F)cc7)c(C(N)=O)c6N)C5)c4)C3(C)C)ccc2CC1C(=O)NC1CCCc2ccccc21)C(C)(C)C

> <Shape>
0.278

> <Color>
0.131

> <Negative vol penalty>
0.000

$$$$

  -OEChem-04052303043D

 89 98  0     1  0  0  0  0  0999 V2000
  -16.8404  -30.6277   23.9310 C   0  0  0  0  0  0  0  0  0  0  0  0
  -18.0528  -30.9773   24.5168 C   0  0  0  0  0  0  0  0  0  0  0  0
  -24.1717  -12.8020   19.2664 C   0  0  0  0  0  0  0  0  0  0  0  0
  -25.5999  -12.3168   21.1537 C   0  0  0  0  0  0  0  0  0  0  0  0
  -16.7753  -29.5382   23.0633 C   0  0  0  0  0  0  0  0  0  0  0  0
  -19.2007  -30.2371   24.2361 C   0  0  0  0  0  0  0  0  0  0  0  0
  -26.2856  -30.9893   23.4911 C   0  0  0  0  0  0  0  0  0  0  0  0
  -26.2476  -20.5360   26.3358 C   0  0  0  0  0  0  0  0  0  0  0  0
  -24.3499  -11.5006   18.7970 C   0  0  0  0  0  0  0  0  0  0  0  0
  -25.7780  -11.0154   20.6844 C   0  0  0  0  0  0  0  0  0  0  0  0
  -27.4814  -30.4456   23.9582 C   0  0  0  0  0  0  0  0  0  0  0  0
  -23.1472   -8.4169   19.4880 C   0  0  0  0  0  0  0  0  0  0  0  0
  -26.5372  -21.0689   27.5919 C   0  0  0  0  0  0  0  0  0  0  0  0
  -22.0179   -7.7259   19.0489 C   0  0  0  0  0  0  0  0  0  0  0  0
  -28.1158  -21.7433   25.3928 C   0  0  0  0  0  0  0  0  0  0  0  0
  -27.2654  -28.6320   22.3823 C   0  0  0  0  0  0  0  0  0  0  0  0
  -23.0063   -7.5044   16.8554 C   0  0  0  0  0  0  0  0  0  0  0  0
  -24.7968  -13.2101   20.4447 C   0  0  0  0  0  0  0  0  0  0  0  0
  -28.4054  -22.2763   26.6489 C   0  0  0  0  0  0  0  0  0  0  0  0
  -23.6118  -15.0129   21.8060 C   0  0  0  0  0  0  0  0  0  0  0  0
  -17.9249  -28.7901   22.7643 C   0  0  0  0  0  0  0  0  0  0  0  0
  -25.5638  -30.3515   22.4719 C   0  0  0  0  0  0  0  0  0  0  0  0
  -19.1506  -29.1358   23.3647 C   0  0  0  0  0  0  0  0  0  0  0  0
  -26.0619  -29.1710   21.9023 C   0  0  0  0  0  0  0  0  0  0  0  0
  -27.0369  -20.8731   25.2363 C   0  0  0  0  0  0  0  0  0  0  0  0
  -25.1530  -10.6073   19.5060 C   0  0  0  0  0  0  0  0  0  0  0  0
  -27.9700  -29.2652   23.4058 C   0  0  0  0  0  0  0  0  0  0  0  0
  -24.2060   -8.6518   18.6108 C   0  0  0  0  0  0  0  0  0  0  0  0
  -21.9475   -7.2696   17.7326 C   0  0  0  0  0  0  0  0  0  0  0  0
  -27.6160  -21.9391   27.7484 C   0  0  0  0  0  0  0  0  0  0  0  0
  -24.1356   -8.1955   17.2945 C   0  0  0  0  0  0  0  0  0  0  0  0
  -24.6137  -14.5545   20.9297 C   0  0  0  0  0  0  0  0  0  0  0  0
  -23.8724  -16.3533   21.9543 C   0  0  0  0  0  0  0  0  0  0  0  0
  -29.7155  -26.7557   26.3160 C   0  0  0  0  0  0  0  0  0  0  0  0
  -29.5453  -23.1962   26.8114 C   0  0  0  0  0  0  0  0  0  0  0  0
  -22.5413  -14.2917   22.4301 C   0  0  0  0  0  0  0  0  0  0  0  0
  -30.2884  -27.8246   25.7524 C   0  0  0  0  0  0  0  0  0  0  0  0
  -22.6714  -29.0527   22.2466 C   0  0  0  0  0  0  0  0  0  0  0  0
  -23.4731  -28.7605   19.1171 C   0  0  0  0  0  0  0  0  0  0  0  0
  -25.9367  -28.5401   16.7658 C   0  0  0  0  0  0  0  0  0  0  0  0
  -27.4239  -20.5641   22.7662 C   0  0  0  0  0  0  0  0  0  0  0  0
  -17.7957  -27.5920   21.8574 C   0  0  0  0  0  0  0  0  0  0  0  0
  -24.2892  -30.9651   21.9608 C   0  0  0  0  0  0  0  0  0  0  0  0
  -25.3355  -28.4583   20.7920 C   0  0  0  0  0  0  0  0  0  0  0  0
  -28.2392  -26.5750   26.5147 C   0  0  0  0  0  0  0  0  0  0  0  0
  -19.1327  -27.0880   21.3199 C   0  0  0  0  0  0  0  0  0  0  0  0
  -27.0323  -19.3940   19.4264 C   0  0  0  0  0  0  0  0  0  0  0  0
  -20.1593  -26.9954   22.4443 C   0  0  0  0  0  0  0  0  0  0  0  0
  -26.2858  -18.0683   19.5918 C   0  0  0  0  0  0  0  0  0  0  0  0
  -28.0408  -25.0752   26.3370 C   0  0  0  0  0  0  0  0  0  0  0  0
  -28.0406  -19.6213   20.5513 C   0  0  0  0  0  0  0  0  0  0  0  0
  -26.7458  -18.1814   22.0743 C   0  0  0  0  0  0  0  0  0  0  0  0
  -20.4226  -28.3724   23.0657 C   0  0  1  0  0  0  0  0  0  0  0  0
  -30.4392  -25.5028   26.7301 C   0  0  1  0  0  0  0  0  0  0  0  0
  -23.3742  -29.9563   21.2734 C   0  0  1  0  0  0  0  0  0  0  0  0
  -25.6730  -17.9386   21.0001 C   0  0  2  0  0  0  0  0  0  0  0  0
  -31.7779  -27.9250   25.5919 C   0  0  0  0  0  0  0  0  0  0  0  0
  -30.9766  -25.5887   28.1512 C   0  0  0  0  0  0  0  0  0  0  0  0
  -26.2833  -28.2701   14.2951 C   0  0  0  0  0  0  0  0  0  0  0  0
  -22.7864  -25.7965   19.3471 C   0  0  0  0  0  0  0  0  0  0  0  0
  -24.0261  -25.4145   17.2058 C   0  0  0  0  0  0  0  0  0  0  0  0
  -22.0118  -26.8857   17.2334 C   0  0  0  0  0  0  0  0  0  0  0  0
  -27.3315  -31.1422   16.5596 C   0  0  0  0  0  0  0  0  0  0  0  0
  -29.4709  -28.9705   25.2269 C   0  0  0  0  0  0  0  0  0  1  0  0
  -24.1604  -27.7061   18.2835 C   0  0  1  0  0  0  0  0  0  0  0  0
  -26.1330  -29.2571   15.4422 C   0  0  2  0  0  0  0  0  0  0  0  0
  -23.2591  -26.4628   18.0397 C   0  0  0  0  0  0  0  0  0  0  0  0
  -25.4484  -15.5248   20.5481 N   0  0  0  0  0  0  0  0  0  0  0  0
  -24.9716  -16.6064   21.1875 N   0  0  0  0  0  0  0  0  0  0  0  0
  -29.3571  -24.4969   26.6625 N   0  0  0  0  0  0  0  0  0  0  0  0
  -24.0903  -29.0943   20.3309 N   0  0  0  0  0  0  0  0  0  0  0  0
  -27.3880  -19.4870   21.8555 N   0  0  0  0  0  0  0  0  0  0  0  0
  -23.2663  -17.3283   22.6645 N   0  0  0  0  0  0  0  0  0  0  0  0
  -22.4185  -12.9201   22.1694 N   0  0  0  0  0  0  0  0  0  0  0  0
  -26.7417  -20.3325   23.9602 N   0  0  0  0  0  0  0  0  0  0  0  0
  -21.2936  -29.1532   22.2136 N   0  0  0  0  0  0  0  0  0  0  0  0
  -24.6007  -28.3735   17.0631 N   0  0  0  0  0  0  0  0  0  0  0  0
  -30.7449  -22.7042   27.1070 N   0  3  0  0  0  0  0  0  0  0  0  0
  -27.3540  -30.1102   15.4913 N   0  3  0  0  0  0  0  0  0  0  0  0
  -21.7081  -14.8504   23.1833 O   0  0  0  0  0  0  0  0  0  0  0  0
  -23.3303  -28.3176   22.9727 O   0  0  0  0  0  0  0  0  0  0  0  0
  -22.4309  -29.2743   18.7030 O   0  0  0  0  0  0  0  0  0  0  0  0
  -26.8748  -28.1621   17.4641 O   0  0  0  0  0  0  0  0  0  0  0  0
  -27.9931  -21.6245   22.4951 O   0  0  0  0  0  0  0  0  0  0  0  0
  -25.3268   -9.3373   19.0484 O   0  0  0  0  0  0  0  0  0  0  0  0
  -29.1367  -28.7321   23.8602 O   0  0  0  0  0  0  0  0  0  1  0  0
  -20.8636   -6.6047   17.3115 F   0  0  0  0  0  0  0  0  0  0  0  0
  -27.8865  -22.4465   28.9592 F   0  0  0  0  0  0  0  0  0  0  0  0
  -25.1502   -8.4170   16.4476 F   0  0  0  0  0  0  0  0  0  0  0  0
  1  2  1  0  0  0  0
  1  5  2  0  0  0  0
  2  6  2  0  0  0  0
  3  9  2  0  0  0  0
  3 18  1  0  0  0  0
  4 10  1  0  0  0  0
  4 18  2  0  0  0  0
  5 21  1  0  0  0  0
  6 23  1  0  0  0  0
  7 11  2  0  0  0  0
  7 22  1  0  0  0  0
  8 13  2  0  0  0  0
  8 25  1  0  0  0  0
  9 26  1  0  0  0  0
 10 26  2  0  0  0  0
 11 27  1  0  0  0  0
 12 14  2  0  0  0  0
 12 28  1  0  0  0  0
 13 30  1  0  0  0  0
 14 29  1  0  0  0  0
 15 19  1  0  0  0  0
 15 25  2  0  0  0  0
 16 24  1  0  0  0  0
 16 27  2  0  0  0  0
 17 29  2  0  0  0  0
 17 31  1  0  0  0  0
 18 32  1  0  0  0  0
 19 30  2  0  0  0  0
 19 35  1  0  0  0  0
 20 32  1  0  0  0  0
 20 33  2  0  0  0  0
 20 36  1  0  0  0  0
 21 23  2  0  0  0  0
 21 42  1  0  0  0  0
 22 24  2  0  0  0  0
 22 43  1  0  0  0  0
 23 53  1  0  0  0  0
 24 44  1  0  0  0  0
 25 75  1  0  0  0  0
 26 85  1  0  0  0  0
 27 86  1  0  0  0  0
 28 31  2  0  0  0  0
 28 85  1  0  0  0  0
 29 87  1  0  0  0  0
 30 88  1  0  0  0  0
 31 89  1  0  0  0  0
 32 68  2  0  0  0  0
 33 69  1  0  0  0  0
 33 73  1  0  0  0  0
 34 37  2  0  0  0  0
 34 45  1  0  0  0  0
 34 54  1  0  0  0  0
 35 70  1  0  0  0  0
 35 78  2  0  0  0  0
 36 74  1  0  0  0  0
 36 80  2  0  0  0  0
 37 57  1  0  0  0  0
 37 64  1  0  0  0  0
 38 55  1  0  0  0  0
 38 76  1  0  0  0  0
 38 81  2  0  0  0  0
 39 65  1  0  0  0  0
 39 71  1  0  0  0  0
 39 82  2  0  0  0  0
 40 66  1  0  0  0  0
 40 77  1  0  0  0  0
 40 83  2  0  0  0  0
 41 72  1  0  0  0  0
 41 75  1  0  0  0  0
 41 84  2  0  0  0  0
 42 46  1  0  0  0  0
 43 55  1  0  0  0  0
 44 71  1  0  0  0  0
 45 50  1  0  0  0  0
 46 48  1  0  0  0  0
 47 49  1  0  0  0  0
 47 51  1  0  0  0  0
 48 53  1  0  0  0  0
 49 56  1  0  0  0  0
 50 70  1  0  0  0  0
 51 72  1  0  0  0  0
 52 56  1  0  0  0  0
 52 72  1  0  0  0  0
 53 76  1  0  0  0  0
 54 58  1  0  0  0  0
 54 70  1  0  0  0  0
 55 71  1  0  0  0  0
 56 69  1  0  0  0  0
 59 66  1  0  0  0  0
 60 67  1  0  0  0  0
 61 67  1  0  0  0  0
 62 67  1  0  0  0  0
 63 79  1  0  0  0  0
 64 86  1  0  0  0  0
 65 67  1  0  0  0  0
 65 77  1  0  0  0  0
 66 79  1  0  0  0  0
 68 69  1  0  0  0  0
M  CHG  2  78   1  79   1
M  ISO  4  41 100  64 101  75 100  86 101
M  END
> <Batch ID>
0144

> <Smiles>
CNC(C)C(=O)NC(C(=O)N1Cc2cc([101O:1][101CH2:1]C(C)=C3CCN(C(=N)c4cc([100NH:0][100C:0](=O)N5CCCC(n6nc(-c7ccc(Oc8ccc(F)cc8F)cc7)c(C(N)=O)c6N)C5)ccc4F)C3C)ccc2CC1C(=O)NC1CCCc2ccccc21)C(C)(C)C

> <Shape>
0.193

> <Color>
0.113

> <Negative vol penalty>
0.000

$$$$

  -OEChem-04052303043D

 86 95  0     1  0  0  0  0  0999 V2000
  -24.5312  -22.6558   20.0945 C   0  0  0  0  0  0  0  0  0  0  0  0
  -25.5638  -21.8931   19.5583 C   0  0  0  0  0  0  0  0  0  0  0  0
  -26.8505  -28.1250   18.9550 C   0  0  0  0  0  0  0  0  0  0  0  0
  -26.2864  -27.6918   21.2640 C   0  0  0  0  0  0  0  0  0  0  0  0
  -23.8569  -22.2128   21.2316 C   0  0  0  0  0  0  0  0  0  0  0  0
  -25.9234  -20.6874   20.1595 C   0  0  0  0  0  0  0  0  0  0  0  0
  -28.4230  -14.1711   18.5453 C   0  0  0  0  0  0  0  0  0  0  0  0
  -25.6029  -28.7180   18.7615 C   0  0  0  0  0  0  0  0  0  0  0  0
  -25.0388  -28.2849   21.0704 C   0  0  0  0  0  0  0  0  0  0  0  0
  -29.4424  -13.2896   18.9024 C   0  0  0  0  0  0  0  0  0  0  0  0
  -22.0599  -27.4357   19.7155 C   0  0  0  0  0  0  0  0  0  0  0  0
  -20.9430  -26.7790   20.2320 C   0  0  0  0  0  0  0  0  0  0  0  0
  -29.6774  -16.8129   23.9974 C   0  0  0  0  0  0  0  0  0  0  0  0
  -29.5088  -18.1327   23.4875 C   0  0  0  0  0  0  0  0  0  0  0  0
  -28.1545  -12.5855   20.8168 C   0  0  0  0  0  0  0  0  0  0  0  0
  -20.4481  -28.7025   21.6076 C   0  0  0  0  0  0  0  0  0  0  0  0
  -27.1922  -27.6118   20.2063 C   0  0  0  0  0  0  0  0  0  0  0  0
  -29.6692  -27.6321   20.8161 C   0  0  0  0  0  0  0  0  0  0  0  0
  -24.2019  -20.9964   21.8414 C   0  0  0  0  0  0  0  0  0  0  0  0
  -27.2644  -14.2745   19.3285 C   0  0  0  0  0  0  0  0  0  0  0  0
  -25.2539  -20.2284   21.3066 C   0  0  0  0  0  0  0  0  0  0  0  0
  -27.1207  -13.4672   20.4660 C   0  0  0  0  0  0  0  0  0  0  0  0
  -24.6971  -28.7980   19.8192 C   0  0  0  0  0  0  0  0  0  0  0  0
  -29.3095  -12.4987   20.0399 C   0  0  0  0  0  0  0  0  0  0  0  0
  -22.3710  -28.7258   20.1451 C   0  0  0  0  0  0  0  0  0  0  0  0
  -20.1371  -27.4123   21.1780 C   0  0  0  0  0  0  0  0  0  0  0  0
  -21.5651  -29.3592   21.0911 C   0  0  0  0  0  0  0  0  0  0  0  0
  -28.4806  -26.9985   20.4067 C   0  0  0  0  0  0  0  0  0  0  0  0
  -30.6002  -26.6231   20.8551 C   0  0  0  0  0  0  0  0  0  0  0  0
  -30.5254  -16.0603   23.2151 C   0  0  0  0  0  0  0  0  0  0  0  0
  -30.2348  -18.3386   22.3348 C   0  0  0  0  0  0  0  0  0  0  0  0
  -31.7597  -12.6196   23.1148 C   0  0  0  0  0  0  0  0  0  0  0  0
  -32.0800  -11.5116   22.4381 C   0  0  0  0  0  0  0  0  0  0  0  0
  -29.9101  -29.0095   21.1329 C   0  0  0  0  0  0  0  0  0  0  0  0
  -25.8869  -16.6010   20.9999 C   0  0  0  0  0  0  0  0  0  0  0  0
  -23.5248  -14.4083   21.3668 C   0  0  0  0  0  0  0  0  0  0  0  0
  -22.6015  -11.1231   21.4035 C   0  0  0  0  0  0  0  0  0  0  0  0
  -29.7443  -20.7282   21.6765 C   0  0  0  0  0  0  0  0  0  0  0  0
  -23.4757  -20.5819   23.0966 C   0  0  0  0  0  0  0  0  0  0  0  0
  -26.1624  -15.2108   18.9148 C   0  0  0  0  0  0  0  0  0  0  0  0
  -25.8880  -13.5256   21.3293 C   0  0  0  0  0  0  0  0  0  0  0  0
  -31.1950  -12.6490   24.4997 C   0  0  0  0  0  0  0  0  0  0  0  0
  -31.8028  -14.0106   22.5573 C   0  0  0  0  0  0  0  0  0  0  0  0
  -23.6689  -19.1105   23.4544 C   0  0  0  0  0  0  0  0  0  0  0  0
  -30.8902  -22.4405   18.4393 C   0  0  0  0  0  0  0  0  0  0  0  0
  -25.1408  -18.7243   23.3488 C   0  0  0  0  0  0  0  0  0  0  0  0
  -31.1407  -23.8491   18.9726 C   0  0  0  0  0  0  0  0  0  0  0  0
  -30.3333  -13.9086   24.4888 C   0  0  0  0  0  0  0  0  0  0  0  0
  -30.9641  -21.3860   19.5364 C   0  0  0  0  0  0  0  0  0  0  0  0
  -29.4805  -23.0112   20.7253 C   0  0  0  0  0  0  0  0  0  0  0  0
  -25.6566  -18.9030   21.9158 C   0  0  1  0  0  0  0  0  0  0  0  0
  -25.2493  -15.6068   20.0711 C   0  0  1  0  0  0  0  0  0  0  0  0
  -30.5114  -24.0904   20.3589 C   0  0  2  0  0  0  0  0  0  0  0  0
  -20.6100   -9.6405   21.7690 C   0  0  0  0  0  0  0  0  0  0  0  0
  -32.8485   -9.9178   20.7083 C   0  0  0  0  0  0  0  0  0  0  0  0
  -34.0145  -12.1223   20.8635 C   0  0  0  0  0  0  0  0  0  0  0  0
  -23.7428  -14.8614   24.3763 C   0  0  0  0  0  0  0  0  0  0  0  0
  -22.4629  -12.7371   24.7186 C   0  0  0  0  0  0  0  0  0  0  0  0
  -21.4026  -14.6507   23.5200 C   0  0  0  0  0  0  0  0  0  0  0  0
  -22.7686  -10.0265   18.6597 C   0  0  0  0  0  0  0  0  0  0  0  0
  -31.6355  -12.0031   20.0331 C   0  0  0  0  0  0  0  0  0  1  0  0
  -23.2207  -13.3222   22.3703 C   0  0  1  0  0  0  0  0  0  0  0  0
  -21.4438  -10.3947   20.7449 C   0  0  2  0  0  0  0  0  0  0  0  0
  -32.6563  -11.4120   21.0316 C   0  0  0  0  0  0  0  0  0  0  0  0
  -22.7314  -13.8929   23.7313 C   0  0  0  0  0  0  0  0  0  0  0  0
  -28.6393  -25.6885   20.2002 N   0  0  0  0  0  0  0  0  0  0  0  0
  -29.9386  -25.4907   20.4809 N   0  0  0  0  0  0  0  0  0  0  0  0
  -30.8954  -14.7477   23.4331 N   0  0  3  0  0  0  0  0  0  0  0  0
  -24.8410  -14.4613   20.8867 N   0  0  0  0  0  0  0  0  0  0  0  0
  -30.0738  -21.6701   20.6712 N   0  0  0  0  0  0  0  0  0  0  0  0
  -31.9122  -26.6029   21.1726 N   0  0  0  0  0  0  0  0  0  0  0  0
  -28.8425  -29.9129   21.0408 N   0  0  0  0  0  0  0  0  0  0  0  0
  -30.3575  -19.4838   21.5088 N   0  0  0  0  0  0  0  0  0  0  0  0
  -25.2165  -17.8067   21.0798 N   0  0  0  0  0  0  0  0  0  0  0  0
  -22.2713  -12.4230   21.7234 N   0  0  0  0  0  0  0  0  0  0  0  0
  -21.9508   -9.4177   19.7403 N   0  3  0  0  0  0  0  0  0  0  0  0
  -31.0425  -29.4298   21.4713 O   0  0  0  0  0  0  0  0  0  0  0  0
  -26.9105  -16.2963   21.6008 O   0  0  0  0  0  0  0  0  0  0  0  0
  -22.6257  -15.1768   21.0163 O   0  0  0  0  0  0  0  0  0  0  0  0
  -23.6886  -10.5908   21.6165 O   0  0  0  0  0  0  0  0  0  0  0  0
  -28.9918  -21.0138   22.6102 O   0  0  0  0  0  0  0  0  0  0  0  0
  -23.4797  -29.3768   19.6307 O   0  0  0  0  0  0  0  0  0  0  0  0
  -30.3033  -11.6380   20.3912 O   0  0  0  0  0  0  0  0  0  1  0  0
  -19.0637  -26.7821   21.6728 F   0  0  0  0  0  0  0  0  0  0  0  0
  -21.8581  -30.5991   21.5067 F   0  0  0  0  0  0  0  0  0  0  0  0
  -31.1145  -16.9443   21.8719 S   0  0  0  0  0  0  0  0  0  0  0  0
  1  2  1  0  0  0  0
  1  5  2  0  0  0  0
  2  6  2  0  0  0  0
  3  8  2  0  0  0  0
  3 17  1  0  0  0  0
  4  9  1  0  0  0  0
  4 17  2  0  0  0  0
  5 19  1  0  0  0  0
  6 21  1  0  0  0  0
  7 10  2  0  0  0  0
  7 20  1  0  0  0  0
  8 23  1  0  0  0  0
  9 23  2  0  0  0  0
 10 24  1  0  0  0  0
 11 12  2  0  0  0  0
 11 25  1  0  0  0  0
 12 26  1  0  0  0  0
 13 14  1  0  0  0  0
 13 30  2  0  0  0  0
 14 31  2  0  0  0  0
 15 22  1  0  0  0  0
 15 24  2  0  0  0  0
 16 26  2  0  0  0  0
 16 27  1  0  0  0  0
 17 28  1  0  0  0  0
 18 28  1  0  0  0  0
 18 29  2  0  0  0  0
 18 34  1  0  0  0  0
 19 21  2  0  0  0  0
 19 39  1  0  0  0  0
 20 22  2  0  0  0  0
 20 40  1  0  0  0  0
 21 51  1  0  0  0  0
 22 41  1  0  0  0  0
 23 82  1  0  0  0  0
 24 83  1  0  0  0  0
 25 27  2  0  0  0  0
 25 82  1  0  0  0  0
 26 84  1  0  0  0  0
 27 85  1  0  0  0  0
 28 66  2  0  0  0  0
 29 67  1  0  0  0  0
 29 71  1  0  0  0  0
 30 68  1  0  0  0  0
 30 86  1  0  0  0  0
 31 73  1  0  0  0  0
 31 86  1  0  0  0  0
 32 33  2  0  0  0  0
 32 42  1  0  0  0  0
 32 43  1  0  0  0  0
 33 64  1  0  0  0  0
 34 72  1  0  0  0  0
 34 77  2  0  0  0  0
 35 52  1  0  0  0  0
 35 74  1  0  0  0  0
 35 78  2  0  0  0  0
 36 62  1  0  0  0  0
 36 69  1  0  0  0  0
 36 79  2  0  0  0  0
 37 63  1  0  0  0  0
 37 75  1  0  0  0  0
 37 80  2  0  0  0  0
 38 70  1  0  0  0  0
 38 73  1  0  0  0  0
 38 81  2  0  0  0  0
 39 44  1  0  0  0  0
 40 52  1  0  0  0  0
 41 69  1  0  0  0  0
 42 48  1  0  0  0  0
 43 68  1  0  0  0  0
 44 46  1  0  0  0  0
 45 47  1  0  0  0  0
 45 49  1  0  0  0  0
 46 51  1  0  0  0  0
 47 53  1  0  0  0  0
 48 68  1  0  0  0  0
 49 70  1  0  0  0  0
 50 53  1  0  0  0  0
 50 70  1  0  0  0  0
 51 74  1  0  0  0  0
 52 69  1  0  0  0  0
 53 67  1  0  0  0  0
 54 63  1  0  0  0  0
 55 64  1  0  0  0  0
 56 64  1  0  0  0  0
 57 65  1  0  0  0  0
 58 65  1  0  0  0  0
 59 65  1  0  0  0  0
 60 76  1  0  0  0  0
 61 64  1  0  0  0  0
 61 83  1  0  0  0  0
 62 65  1  0  0  0  0
 62 75  1  0  0  0  0
 63 76  1  0  0  0  0
 66 67  1  0  0  0  0
M  CHG  1  76   1
M  ISO  4  38 100  61 101  73 100  83 101
M  END
> <Batch ID>
0144

> <Smiles>
CNC(C)C(=O)NC(C(=O)N1Cc2cc([101O:1][101CH2:1]C(C)(C)C=C3CCN(c4ccc([100NH:0][100C:0](=O)N5CCCC(n6nc(-c7ccc(Oc8ccc(F)cc8F)cc7)c(C(N)=O)c6N)C5)s4)C3)ccc2CC1C(=O)NC1CCCc2ccccc21)C(C)(C)C

> <Shape>
0.262

> <Color>
0.057

> <Negative vol penalty>
0.000

$$$$

  -OEChem-04052303043D

 85 94  0     1  0  0  0  0  0999 V2000
  -26.3443   -7.0151   21.6366 C   0  0  0  0  0  0  0  0  0  0  0  0
  -26.6433   -8.1851   20.9457 C   0  0  0  0  0  0  0  0  0  0  0  0
  -22.6921  -28.5450   23.0145 C   0  0  0  0  0  0  0  0  0  0  0  0
  -23.0485  -29.9987   21.1179 C   0  0  0  0  0  0  0  0  0  0  0  0
  -25.0233   -6.7251   21.9752 C   0  0  0  0  0  0  0  0  0  0  0  0
  -25.6211   -9.0652   20.5921 C   0  0  0  0  0  0  0  0  0  0  0  0
  -30.2017  -21.5926   19.4453 C   0  0  0  0  0  0  0  0  0  0  0  0
  -26.8053  -13.8976   21.5359 C   0  0  0  0  0  0  0  0  0  0  0  0
  -30.1679  -22.9803   19.5820 C   0  0  0  0  0  0  0  0  0  0  0  0
  -21.3267  -28.5106   22.7315 C   0  0  0  0  0  0  0  0  0  0  0  0
  -21.6831  -29.9642   20.8349 C   0  0  0  0  0  0  0  0  0  0  0  0
  -27.6554  -14.5331   20.6319 C   0  0  0  0  0  0  0  0  0  0  0  0
  -18.6378  -30.5071   23.1876 C   0  0  0  0  0  0  0  0  0  0  0  0
  -17.7517  -30.6639   24.2533 C   0  0  0  0  0  0  0  0  0  0  0  0
  -25.7515  -15.5887   19.5929 C   0  0  0  0  0  0  0  0  0  0  0  0
  -28.7989  -22.7521   21.5596 C   0  0  0  0  0  0  0  0  0  0  0  0
  -16.8081  -28.4888   23.7888 C   0  0  0  0  0  0  0  0  0  0  0  0
  -23.5530  -29.2891   22.2077 C   0  0  0  0  0  0  0  0  0  0  0  0
  -25.5754  -29.7855   23.6813 C   0  0  0  0  0  0  0  0  0  0  0  0
  -23.9856   -7.6069   21.6341 C   0  0  0  0  0  0  0  0  0  0  0  0
  -25.4186  -14.0947   21.4682 C   0  0  0  0  0  0  0  0  0  0  0  0
  -24.2848   -8.7861   20.9254 C   0  0  0  0  0  0  0  0  0  0  0  0
  -29.5341  -20.7846   20.3658 C   0  0  0  0  0  0  0  0  0  0  0  0
  -24.8861  -14.9566   20.4988 C   0  0  0  0  0  0  0  0  0  0  0  0
  -29.4665  -23.5601   20.6391 C   0  0  0  0  0  0  0  0  0  0  0  0
  -20.8222  -29.2202   21.6417 C   0  0  0  0  0  0  0  0  0  0  0  0
  -27.1283  -15.3765   19.6584 C   0  0  0  0  0  0  0  0  0  0  0  0
  -18.6090  -29.3411   22.4224 C   0  0  0  0  0  0  0  0  0  0  0  0
  -16.8368  -29.6548   24.5540 C   0  0  0  0  0  0  0  0  0  0  0  0
  -28.8327  -21.3644   21.4229 C   0  0  0  0  0  0  0  0  0  0  0  0
  -17.6942  -28.3320   22.7231 C   0  0  0  0  0  0  0  0  0  0  0  0
  -24.9635  -29.3255   22.4998 C   0  0  0  0  0  0  0  0  0  0  0  0
  -26.9199  -29.6105   23.4623 C   0  0  0  0  0  0  0  0  0  0  0  0
  -24.9814  -30.3227   24.8706 C   0  0  0  0  0  0  0  0  0  0  0  0
  -22.9086  -12.2151   20.9481 C   0  0  0  0  0  0  0  0  0  0  0  0
  -21.2394  -14.9063   21.6509 C   0  0  0  0  0  0  0  0  0  0  0  0
  -21.4810  -18.4267   20.8986 C   0  0  0  0  0  0  0  0  0  0  0  0
  -30.0369  -25.9151   19.9503 C   0  0  0  0  0  0  0  0  0  0  0  0
  -22.5675   -7.2275   21.9802 C   0  0  0  0  0  0  0  0  0  0  0  0
  -24.5175  -13.4228   22.4676 C   0  0  0  0  0  0  0  0  0  0  0  0
  -23.4063  -15.2175   20.3966 C   0  0  0  0  0  0  0  0  0  0  0  0
  -21.5872   -8.3948   21.8974 C   0  0  0  0  0  0  0  0  0  0  0  0
  -30.1521  -29.4737   19.9311 C   0  0  0  0  0  0  0  0  0  0  0  0
  -30.9916  -18.6733   20.2692 C   0  0  0  0  0  0  0  0  0  0  0  0
  -21.7968   -9.1773   20.6049 C   0  0  0  0  0  0  0  0  0  0  0  0
  -28.8934  -29.8813   20.7004 C   0  0  0  0  0  0  0  0  0  0  0  0
  -31.1886  -17.9489   18.9390 C   0  0  0  0  0  0  0  0  0  0  0  0
  -28.9635  -18.8020   18.8829 C   0  0  0  0  0  0  0  0  0  0  0  0
  -29.9136  -28.2353   19.0690 C   0  0  0  0  0  0  0  0  0  0  0  0
  -28.0932  -27.4888   20.5516 C   0  0  0  0  0  0  0  0  0  0  0  0
  -29.5750  -19.2802   20.2150 C   0  0  2  0  0  0  0  0  0  0  0  0
  -23.2066   -9.7778   20.5460 C   0  0  1  0  0  0  0  0  0  0  0  0
  -23.0774  -13.2931   21.9811 C   0  0  1  0  0  0  0  0  0  0  0  0
  -28.3024  -28.6930   21.4841 C   0  0  2  0  0  0  0  0  0  0  0  0
  -29.7751  -17.5586   18.4869 C   0  0  1  0  0  0  0  0  0  0  0  0
  -29.7201  -17.3072   16.9781 C   0  0  0  0  0  0  0  0  0  0  0  0
  -20.6692  -20.4277   22.1770 C   0  0  0  0  0  0  0  0  0  0  0  0
  -18.7650  -14.6709   19.8813 C   0  0  0  0  0  0  0  0  0  0  0  0
  -18.6926  -17.1710   19.7697 C   0  0  0  0  0  0  0  0  0  0  0  0
  -18.4337  -16.0143   21.9646 C   0  0  0  0  0  0  0  0  0  0  0  0
  -24.1793  -19.6419   20.9368 C   0  0  0  0  0  0  0  0  0  0  0  0
  -29.2738  -16.3068   19.2254 C   0  0  0  0  0  0  0  0  0  1  0  0
  -20.7041  -16.0711   20.8536 C   0  0  1  0  0  0  0  0  0  0  0  0
  -21.8610  -19.5376   21.8608 C   0  0  2  0  0  0  0  0  0  0  0  0
  -19.1721  -15.9677   20.6091 C   0  0  0  0  0  0  0  0  0  0  0  0
  -25.8469  -28.8912   21.5971 N   0  0  0  0  0  0  0  0  0  0  0  0
  -27.0275  -29.0776   22.2114 N   0  0  0  0  0  0  0  0  0  0  0  0
  -22.5658  -14.5325   21.3925 N   0  0  0  0  0  0  0  0  0  0  0  0
  -29.3573  -27.1496   19.8793 N   0  0  0  0  0  0  0  0  0  0  0  0
  -28.0089  -29.8622   24.2194 N   0  0  0  0  0  0  0  0  0  0  0  0
  -24.7742  -31.7067   24.9474 N   0  0  0  0  0  0  0  0  0  0  0  0
  -29.4305  -24.9698   20.7769 N   0  0  0  0  0  0  0  0  0  0  0  0
  -23.2883  -10.9583   21.3792 N   0  0  0  0  0  0  0  0  0  0  0  0
  -21.1156  -17.2763   21.5653 N   0  0  0  0  0  0  0  0  0  0  0  0
  -22.9379  -20.3848   21.2746 N   0  3  0  0  0  0  0  0  0  0  0  0
  -24.6594  -29.5988   25.8431 O   0  0  0  0  0  0  0  0  0  0  0  0
  -22.4652  -12.5021   19.8423 O   0  0  0  0  0  0  0  0  0  0  0  0
  -20.5100  -14.3532   22.4777 O   0  0  0  0  0  0  0  0  0  0  0  0
  -21.5023  -18.5666   19.6777 O   0  0  0  0  0  0  0  0  0  0  0  0
  -31.0944  -25.7208   19.3454 O   0  0  0  0  0  0  0  0  0  0  0  0
  -19.4899  -29.1866   21.3652 O   0  0  0  0  0  0  0  0  0  0  0  0
  -27.9558  -15.9975   18.7743 O   0  0  0  0  0  0  0  0  0  1  0  0
  -15.9870  -29.8049   25.5784 F   0  0  0  0  0  0  0  0  0  0  0  0
  -28.1882  -20.5963   22.3124 F   0  0  0  0  0  0  0  0  0  0  0  0
  -17.6626  -27.2092   21.9923 F   0  0  0  0  0  0  0  0  0  0  0  0
  1  2  1  0  0  0  0
  1  5  2  0  0  0  0
  2  6  2  0  0  0  0
  3 10  2  0  0  0  0
  3 18  1  0  0  0  0
  4 11  1  0  0  0  0
  4 18  2  0  0  0  0
  5 20  1  0  0  0  0
  6 22  1  0  0  0  0
  7  9  2  0  0  0  0
  7 23  1  0  0  0  0
  8 12  2  0  0  0  0
  8 21  1  0  0  0  0
  9 25  1  0  0  0  0
 10 26  1  0  0  0  0
 11 26  2  0  0  0  0
 12 27  1  0  0  0  0
 13 14  2  0  0  0  0
 13 28  1  0  0  0  0
 14 29  1  0  0  0  0
 15 24  1  0  0  0  0
 15 27  2  0  0  0  0
 16 25  2  0  0  0  0
 16 30  1  0  0  0  0
 17 29  2  0  0  0  0
 17 31  1  0  0  0  0
 18 32  1  0  0  0  0
 19 32  1  0  0  0  0
 19 33  2  0  0  0  0
 19 34  1  0  0  0  0
 20 22  2  0  0  0  0
 20 39  1  0  0  0  0
 21 24  2  0  0  0  0
 21 40  1  0  0  0  0
 22 52  1  0  0  0  0
 23 30  2  0  0  0  0
 23 51  1  0  0  0  0
 24 41  1  0  0  0  0
 25 72  1  0  0  0  0
 26 81  1  0  0  0  0
 27 82  1  0  0  0  0
 28 31  2  0  0  0  0
 28 81  1  0  0  0  0
 29 83  1  0  0  0  0
 30 84  1  0  0  0  0
 31 85  1  0  0  0  0
 32 66  2  0  0  0  0
 33 67  1  0  0  0  0
 33 70  1  0  0  0  0
 34 71  1  0  0  0  0
 34 76  2  0  0  0  0
 35 53  1  0  0  0  0
 35 73  1  0  0  0  0
 35 77  2  0  0  0  0
 36 63  1  0  0  0  0
 36 68  1  0  0  0  0
 36 78  2  0  0  0  0
 37 64  1  0  0  0  0
 37 74  1  0  0  0  0
 37 79  2  0  0  0  0
 38 69  1  0  0  0  0
 38 72  1  0  0  0  0
 38 80  2  0  0  0  0
 39 42  1  0  0  0  0
 40 53  1  0  0  0  0
 41 68  1  0  0  0  0
 42 45  1  0  0  0  0
 43 46  1  0  0  0  0
 43 49  1  0  0  0  0
 44 47  1  0  0  0  0
 44 51  1  0  0  0  0
 45 52  1  0  0  0  0
 46 54  1  0  0  0  0
 47 55  1  0  0  0  0
 48 51  1  0  0  0  0
 48 55  1  0  0  0  0
 49 69  1  0  0  0  0
 50 54  1  0  0  0  0
 50 69  1  0  0  0  0
 52 73  1  0  0  0  0
 53 68  1  0  0  0  0
 54 67  1  0  0  0  0
 55 56  1  0  0  0  0
 55 62  1  0  0  0  0
 57 64  1  0  0  0  0
 58 65  1  0  0  0  0
 59 65  1  0  0  0  0
 60 65  1  0  0  0  0
 61 75  1  0  0  0  0
 62 82  1  0  0  0  0
 63 65  1  0  0  0  0
 63 74  1  0  0  0  0
 64 75  1  0  0  0  0
 66 67  1  0  0  0  0
M  CHG  1  75   1
M  ISO  4  38 100  62 101  72 100  82 101
M  END
> <Batch ID>
0144

> <Smiles>
CNC(C)C(=O)NC(C(=O)N1Cc2cc([101O:1][101CH2:1]C3(C)CCC(c4ccc([100NH:0][100C:0](=O)N5CCCC(n6nc(-c7ccc(Oc8ccc(F)cc8F)cc7)c(C(N)=O)c6N)C5)cc4F)C3)ccc2CC1C(=O)NC1CCCc2ccccc21)C(C)(C)C

> <Shape>
0.308

> <Color>
0.044

> <Negative vol penalty>
0.000

$$$$

  -OEChem-04052303043D

 92100  0     1  0  0  0  0  0999 V2000
  -32.1139  -21.3323   17.5944 C   0  0  0  0  0  0  0  0  0  0  0  0
  -31.8739  -21.8226   18.8740 C   0  0  0  0  0  0  0  0  0  0  0  0
  -27.7956  -13.8023   19.1233 C   0  0  0  0  0  0  0  0  0  0  0  0
  -27.9692  -14.0072   21.5244 C   0  0  0  0  0  0  0  0  0  0  0  0
  -31.7067  -22.0655   16.4806 C   0  0  0  0  0  0  0  0  0  0  0  0
  -31.2276  -23.0469   19.0405 C   0  0  0  0  0  0  0  0  0  0  0  0
  -27.6464  -22.8826   22.6172 C   0  0  0  0  0  0  0  0  0  0  0  0
  -29.1343  -13.4161   19.0595 C   0  0  0  0  0  0  0  0  0  0  0  0
  -29.3080  -13.6209   21.4605 C   0  0  0  0  0  0  0  0  0  0  0  0
  -28.0695  -22.9337   23.9447 C   0  0  0  0  0  0  0  0  0  0  0  0
  -32.6061  -12.7235   18.2285 C   0  0  0  0  0  0  0  0  0  0  0  0
  -33.4038  -13.3039   17.2424 C   0  0  0  0  0  0  0  0  0  0  0  0
  -27.5194  -25.2811   24.0235 C   0  0  0  0  0  0  0  0  0  0  0  0
  -23.7963  -20.7640   26.8234 C   0  0  0  0  0  0  0  0  0  0  0  0
  -24.5610  -22.5763   25.4207 C   0  0  0  0  0  0  0  0  0  0  0  0
  -32.9652  -15.4895   18.1741 C   0  0  0  0  0  0  0  0  0  0  0  0
  -27.2130  -14.0979   20.3558 C   0  0  0  0  0  0  0  0  0  0  0  0
  -24.7096  -13.6594   20.5751 C   0  0  0  0  0  0  0  0  0  0  0  0
  -31.0464  -23.2948   16.6336 C   0  0  0  0  0  0  0  0  0  0  0  0
  -27.1660  -24.0349   21.9785 C   0  0  0  0  0  0  0  0  0  0  0  0
  -30.8124  -23.7978   17.9277 C   0  0  0  0  0  0  0  0  0  0  0  0
  -27.0885  -25.2415   22.6886 C   0  0  0  0  0  0  0  0  0  0  0  0
  -23.4917  -20.0135   25.6878 C   0  0  0  0  0  0  0  0  0  0  0  0
  -24.3309  -22.0455   26.6899 C   0  0  0  0  0  0  0  0  0  0  0  0
  -23.7219  -20.5444   24.4186 C   0  0  0  0  0  0  0  0  0  0  0  0
  -29.8905  -13.3253   20.2280 C   0  0  0  0  0  0  0  0  0  0  0  0
  -28.0088  -24.1336   24.6472 C   0  0  0  0  0  0  0  0  0  0  0  0
  -31.9879  -13.5261   19.1873 C   0  0  0  0  0  0  0  0  0  0  0  0
  -33.5834  -14.6869   17.2152 C   0  0  0  0  0  0  0  0  0  0  0  0
  -24.2565  -21.8258   24.2850 C   0  0  0  0  0  0  0  0  0  0  0  0
  -32.1675  -14.9091   19.1601 C   0  0  0  0  0  0  0  0  0  0  0  0
  -25.8302  -14.4975   20.4224 C   0  0  0  0  0  0  0  0  0  0  0  0
  -23.6371  -14.5175   20.5803 C   0  0  0  0  0  0  0  0  0  0  0  0
  -25.8739  -23.1560   27.9656 C   0  0  0  0  0  0  0  0  0  0  0  0
  -24.6438  -12.2327   20.7011 C   0  0  0  0  0  0  0  0  0  0  0  0
  -28.0824  -25.7547   19.4673 C   0  0  0  0  0  0  0  0  0  0  0  0
  -29.3665  -24.0703   28.7408 C   0  0  0  0  0  0  0  0  0  0  0  0
  -25.3084  -27.3388   20.0314 C   0  0  0  0  0  0  0  0  0  0  0  0
  -22.8736  -28.2156   22.2561 C   0  0  0  0  0  0  0  0  0  0  0  0
  -23.0334  -20.2881   22.0089 C   0  0  0  0  0  0  0  0  0  0  0  0
  -30.6673  -24.0738   15.3991 C   0  0  0  0  0  0  0  0  0  0  0  0
  -26.6885  -23.9572   20.5543 C   0  0  0  0  0  0  0  0  0  0  0  0
  -26.5618  -26.5022   22.0549 C   0  0  0  0  0  0  0  0  0  0  0  0
  -29.6545  -25.1841   15.6667 C   0  0  0  0  0  0  0  0  0  0  0  0
  -22.2380  -18.7729   18.8866 C   0  0  0  0  0  0  0  0  0  0  0  0
  -30.0601  -25.9919   16.8954 C   0  0  0  0  0  0  0  0  0  0  0  0
  -22.9620  -17.4257   18.9426 C   0  0  0  0  0  0  0  0  0  0  0  0
  -23.0484  -19.8805   19.5577 C   0  0  0  0  0  0  0  0  0  0  0  0
  -24.2066  -18.2407   20.9855 C   0  0  0  0  0  0  0  0  0  0  0  0
  -30.0920  -25.1101   18.1495 C   0  0  1  0  0  0  0  0  0  0  0  0
  -26.6986  -25.3084   19.8461 C   0  0  1  0  0  0  0  0  0  0  0  0
  -23.4001  -17.0806   20.3794 C   0  0  2  0  0  0  0  0  0  0  0  0
  -21.4175  -18.6075   25.6033 C   0  0  0  0  0  0  0  0  0  0  0  0
  -20.7548  -29.5485   22.4337 C   0  0  0  0  0  0  0  0  0  0  0  0
  -26.6932  -22.0199   30.7087 C   0  0  0  0  0  0  0  0  0  0  0  0
  -31.3648  -22.7914   27.9091 C   0  0  0  0  0  0  0  0  0  0  0  0
  -30.9431  -25.1347   27.0888 C   0  0  0  0  0  0  0  0  0  0  0  0
  -26.9384  -29.9175   20.0891 C   0  0  0  0  0  0  0  0  0  0  0  0
  -24.9897  -31.0426   21.1868 C   0  0  0  0  0  0  0  0  0  0  0  0
  -24.7495  -30.0935   18.8924 C   0  0  0  0  0  0  0  0  0  0  0  0
  -21.2896  -25.8201   22.9713 C   0  0  0  0  0  0  0  0  0  0  0  0
  -22.9205  -18.6435   25.8608 C   0  0  0  0  0  0  0  0  0  0  0  0
  -26.3105  -23.9843   29.1460 C   0  0  0  0  0  0  0  0  0  0  0  0
  -28.6239  -22.8785   29.3427 C   0  0  0  0  0  0  0  0  0  0  0  0
  -29.4559  -23.2824   26.3315 C   0  0  0  0  0  0  0  0  0  1  0  0
  -24.9079  -28.5277   20.8710 C   0  0  1  0  0  0  0  0  0  0  0  0
  -21.3591  -28.1805   22.1576 C   0  0  2  0  0  0  0  0  0  0  0  0
  -27.3157  -23.2608   30.0600 C   0  0  2  0  0  0  0  0  0  0  0  0
  -30.2873  -23.8146   27.5235 C   0  0  0  0  0  0  0  0  0  0  0  0
  -25.4082  -29.8722   20.2714 C   0  0  0  0  0  0  0  0  0  0  0  0
  -25.5004  -15.7890   20.3365 N   0  0  0  0  0  0  0  0  0  0  0  0
  -24.6376  -22.8015   27.8338 N   0  0  0  0  0  0  0  0  0  0  0  0
  -24.1603  -15.7688   20.4356 N   0  0  0  0  0  0  0  0  0  0  0  0
  -26.1128  -26.3766   20.6584 N   0  0  0  0  0  0  0  0  0  0  0  0
  -23.4245  -19.4850   20.9167 N   0  0  0  0  0  0  0  0  0  0  0  0
  -22.3071  -14.3163   20.6943 N   0  0  0  0  0  0  0  0  0  0  0  0
  -25.8407  -11.5039   20.6760 N   0  0  0  0  0  0  0  0  0  0  0  0
  -23.4197  -19.7949   23.2547 N   0  0  0  0  0  0  0  0  0  0  0  0
  -28.7496  -24.8750   18.6364 N   0  0  0  0  0  0  0  0  0  0  0  0
  -23.4599  -28.4462   21.0296 N   0  0  0  0  0  0  0  0  0  0  0  0
  -20.7983  -27.2117   23.1414 N   0  3  0  0  0  0  0  0  0  0  0  0
  -23.5547  -11.6208   20.8157 O   0  0  0  0  0  0  0  0  0  0  0  0
  -28.5124  -26.8192   19.8959 O   0  0  0  0  0  0  0  0  0  0  0  0
  -29.2506  -25.1963   29.2303 O   0  0  0  0  0  0  0  0  0  0  0  0
  -24.9160  -27.2629   18.8644 O   0  0  0  0  0  0  0  0  0  0  0  0
  -23.4760  -28.0581   23.3157 O   0  0  0  0  0  0  0  0  0  0  0  0
  -22.3789  -21.3221   21.8526 O   0  0  0  0  0  0  0  0  0  0  0  0
  -31.1969  -12.9482   20.1661 O   0  0  0  0  0  0  0  0  0  0  0  0
  -28.4244  -24.1867   25.9511 O   0  0  0  0  0  0  0  0  0  1  0  0
  -34.3507  -15.2441   16.2691 F   0  0  0  0  0  0  0  0  0  0  0  0
  -24.4833  -22.3468   23.0706 F   0  0  0  0  0  0  0  0  0  0  0  0
  -31.5771  -15.6851   20.0794 F   0  0  0  0  0  0  0  0  0  0  0  0
  1  2  1  0  0  0  0
  1  5  2  0  0  0  0
  2  6  2  0  0  0  0
  3  8  2  0  0  0  0
  3 17  1  0  0  0  0
  4  9  1  0  0  0  0
  4 17  2  0  0  0  0
  5 19  1  0  0  0  0
  6 21  1  0  0  0  0
  7 10  2  0  0  0  0
  7 20  1  0  0  0  0
  8 26  1  0  0  0  0
  9 26  2  0  0  0  0
 10 27  1  0  0  0  0
 11 12  2  0  0  0  0
 11 28  1  0  0  0  0
 12 29  1  0  0  0  0
 13 22  1  0  0  0  0
 13 27  2  0  0  0  0
 14 23  1  0  0  0  0
 14 24  2  0  0  0  0
 15 24  1  0  0  0  0
 15 30  2  0  0  0  0
 16 29  2  0  0  0  0
 16 31  1  0  0  0  0
 17 32  1  0  0  0  0
 18 32  1  0  0  0  0
 18 33  2  0  0  0  0
 18 35  1  0  0  0  0
 19 21  2  0  0  0  0
 19 41  1  0  0  0  0
 20 22  2  0  0  0  0
 20 42  1  0  0  0  0
 21 50  1  0  0  0  0
 22 43  1  0  0  0  0
 23 25  2  0  0  0  0
 23 62  1  0  0  0  0
 24 72  1  0  0  0  0
 25 30  1  0  0  0  0
 25 78  1  0  0  0  0
 26 88  1  0  0  0  0
 27 89  1  0  0  0  0
 28 31  2  0  0  0  0
 28 88  1  0  0  0  0
 29 90  1  0  0  0  0
 30 91  1  0  0  0  0
 31 92  1  0  0  0  0
 32 71  2  0  0  0  0
 33 73  1  0  0  0  0
 33 76  1  0  0  0  0
 34 63  1  0  0  0  0
 34 72  2  0  0  0  0
 35 77  1  0  0  0  0
 35 82  2  0  0  0  0
 36 51  1  0  0  0  0
 36 79  1  0  0  0  0
 36 83  2  0  0  0  0
 37 64  1  0  0  0  0
 37 69  1  0  0  0  0
 37 84  2  0  0  0  0
 38 66  1  0  0  0  0
 38 74  1  0  0  0  0
 38 85  2  0  0  0  0
 39 67  1  0  0  0  0
 39 80  1  0  0  0  0
 39 86  2  0  0  0  0
 40 75  1  0  0  0  0
 40 78  1  0  0  0  0
 40 87  2  0  0  0  0
 41 44  1  0  0  0  0
 42 51  1  0  0  0  0
 43 74  1  0  0  0  0
 44 46  1  0  0  0  0
 45 47  1  0  0  0  0
 45 48  1  0  0  0  0
 46 50  1  0  0  0  0
 47 52  1  0  0  0  0
 48 75  1  0  0  0  0
 49 52  1  0  0  0  0
 49 75  1  0  0  0  0
 50 79  1  0  0  0  0
 51 74  1  0  0  0  0
 52 73  1  0  0  0  0
 53 62  1  0  0  0  0
 54 67  1  0  0  0  0
 55 68  1  0  0  0  0
 56 69  1  0  0  0  0
 57 69  1  0  0  0  0
 58 70  1  0  0  0  0
 59 70  1  0  0  0  0
 60 70  1  0  0  0  0
 61 81  1  0  0  0  0
 63 68  1  0  0  0  0
 64 68  1  0  0  0  0
 65 69  1  0  0  0  0
 65 89  1  0  0  0  0
 66 70  1  0  0  0  0
 66 80  1  0  0  0  0
 67 81  1  0  0  0  0
 71 73  1  0  0  0  0
M  CHG  1  81   1
M  ISO  4  40 100  65 101  78 100  89 101
M  END
> <Batch ID>
0144

> <Smiles>
CCc1cc(NC=CC(C)CC(=O)C(C)(C)[101CH2:1][101O:1]c2ccc3c(c2)CN(C(=O)C(NC(=O)C(C)NC)C(C)(C)C)C(C(=O)NC2CCCc4ccccc42)C3)cc(F)c1[100NH:0][100C:0](=O)N1CCCC(n2nc(-c3ccc(Oc4ccc(F)cc4F)cc3)c(C(N)=O)c2N)C1

> <Shape>
0.194

> <Color>
0.061

> <Negative vol penalty>
0.000

$$$$

  -OEChem-04052303043D

 89 97  0     1  0  0  0  0  0999 V2000
  -25.0222  -20.0770   22.3909 C   0  0  0  0  0  0  0  0  0  0  0  0
  -25.9017  -20.8451   21.6347 C   0  0  0  0  0  0  0  0  0  0  0  0
  -22.6433  -10.1565   22.4701 C   0  0  0  0  0  0  0  0  0  0  0  0
  -23.3605   -9.9182   20.1754 C   0  0  0  0  0  0  0  0  0  0  0  0
  -23.7264  -20.5338   22.6281 C   0  0  0  0  0  0  0  0  0  0  0  0
  -25.4856  -22.0700   21.1143 C   0  0  0  0  0  0  0  0  0  0  0  0
  -28.8918  -27.1066   20.3817 C   0  0  0  0  0  0  0  0  0  0  0  0
  -22.1020   -8.8715   22.4344 C   0  0  0  0  0  0  0  0  0  0  0  0
  -22.8193   -8.6331   20.1397 C   0  0  0  0  0  0  0  0  0  0  0  0
  -29.5491  -27.6416   19.2746 C   0  0  0  0  0  0  0  0  0  0  0  0
  -20.8496   -5.5168   23.0611 C   0  0  0  0  0  0  0  0  0  0  0  0
  -21.0993   -4.6775   24.1469 C   0  0  0  0  0  0  0  0  0  0  0  0
  -27.7196  -18.8373   18.0401 C   0  0  0  0  0  0  0  0  0  0  0  0
  -28.2240  -20.0938   17.6278 C   0  0  0  0  0  0  0  0  0  0  0  0
  -27.6583  -29.0795   18.8545 C   0  0  0  0  0  0  0  0  0  0  0  0
  -23.4735   -4.8486   23.7330 C   0  0  0  0  0  0  0  0  0  0  0  0
  -23.2725  -10.6799   21.3406 C   0  0  0  0  0  0  0  0  0  0  0  0
  -25.1401  -12.3692   21.7480 C   0  0  0  0  0  0  0  0  0  0  0  0
  -23.2973  -21.7694   22.1185 C   0  0  0  0  0  0  0  0  0  0  0  0
  -27.6062  -27.5470   20.7276 C   0  0  0  0  0  0  0  0  0  0  0  0
  -24.1825  -22.5432   21.3438 C   0  0  0  0  0  0  0  0  0  0  0  0
  -26.9879  -28.5503   19.9679 C   0  0  0  0  0  0  0  0  0  0  0  0
  -22.1901   -8.1097   21.2692 C   0  0  0  0  0  0  0  0  0  0  0  0
  -28.9311  -28.6261   18.5091 C   0  0  0  0  0  0  0  0  0  0  0  0
  -21.9118   -6.0219   22.3112 C   0  0  0  0  0  0  0  0  0  0  0  0
  -22.4112   -4.3434   24.4828 C   0  0  0  0  0  0  0  0  0  0  0  0
  -23.2237   -5.6878   22.6472 C   0  0  0  0  0  0  0  0  0  0  0  0
  -23.8313  -12.0075   21.3766 C   0  0  0  0  0  0  0  0  0  0  0  0
  -25.1697  -13.7358   21.6145 C   0  0  0  0  0  0  0  0  0  0  0  0
  -26.3666  -19.0088   18.2188 C   0  0  0  0  0  0  0  0  0  0  0  0
  -27.1432  -20.9435   17.5836 C   0  0  0  0  0  0  0  0  0  0  0  0
  -26.2316  -11.5435   22.1754 C   0  0  0  0  0  0  0  0  0  0  0  0
  -24.7484  -26.1731   20.9487 C   0  0  0  0  0  0  0  0  0  0  0  0
  -28.9280  -23.5579   18.0699 C   0  0  0  0  0  0  0  0  0  0  0  0
  -23.8835  -29.0626   22.1424 C   0  0  0  0  0  0  0  0  0  0  0  0
  -24.4965  -32.4136   22.3482 C   0  0  0  0  0  0  0  0  0  0  0  0
  -23.9919  -18.3791   18.7762 C   0  0  0  0  0  0  0  0  0  0  0  0
  -21.8723  -22.1995   22.3615 C   0  0  0  0  0  0  0  0  0  0  0  0
  -26.9216  -26.9789   21.9405 C   0  0  0  0  0  0  0  0  0  0  0  0
  -25.6168  -29.0720   20.3092 C   0  0  0  0  0  0  0  0  0  0  0  0
  -21.6286  -23.6817   22.0895 C   0  0  0  0  0  0  0  0  0  0  0  0
  -21.4228  -17.0531   20.8543 C   0  0  0  0  0  0  0  0  0  0  0  0
  -22.2562  -24.0908   20.7608 C   0  0  0  0  0  0  0  0  0  0  0  0
  -21.9280  -15.6520   21.2060 C   0  0  0  0  0  0  0  0  0  0  0  0
  -21.7825  -17.4426   19.4216 C   0  0  0  0  0  0  0  0  0  0  0  0
  -23.7098  -15.9081   19.4321 C   0  0  0  0  0  0  0  0  0  0  0  0
  -23.7761  -23.8888   20.7832 C   0  0  1  0  0  0  0  0  0  0  0  0
  -25.4047  -27.1350   21.8983 C   0  0  1  0  0  0  0  0  0  0  0  0
  -23.4279  -15.4970   20.8864 C   0  0  2  0  0  0  0  0  0  0  0  0
  -23.5950  -34.5221   23.3673 C   0  0  0  0  0  0  0  0  0  0  0  0
  -21.6673  -29.1255   20.0461 C   0  0  0  0  0  0  0  0  0  0  0  0
  -21.4317  -31.5817   20.4698 C   0  0  0  0  0  0  0  0  0  0  0  0
  -20.9888  -29.9528   22.3065 C   0  0  0  0  0  0  0  0  0  0  0  0
  -31.8513  -27.8713   16.0991 C   0  0  0  0  0  0  0  0  0  0  0  0
  -30.2744  -26.6793   14.5923 C   0  0  0  0  0  0  0  0  0  0  0  0
  -29.4735  -29.5851   15.1058 C   0  0  0  0  0  0  0  0  0  0  0  0
  -27.8855  -27.9996   16.1808 C   0  0  0  0  0  0  0  0  0  0  0  0
  -26.9779  -32.8635   23.8971 C   0  0  0  0  0  0  0  0  0  0  0  0
  -30.4163  -23.7885   17.8473 C   0  0  0  0  0  0  0  0  0  0  0  0
  -28.1504  -23.1054   16.8507 C   0  0  0  0  0  0  0  0  0  0  0  0
  -30.7281  -24.8040   16.7451 C   0  0  0  0  0  0  0  0  0  0  0  0
  -30.2026  -26.2095   17.0892 C   0  0  0  0  0  0  0  0  0  0  0  0
  -23.3683  -30.3528   21.5515 C   0  0  1  0  0  0  0  0  0  0  0  0
  -24.5557  -33.3556   23.5372 C   0  0  2  0  0  0  0  0  0  0  0  0
  -21.8891  -30.2422   21.0856 C   0  0  0  0  0  0  0  0  0  0  0  0
  -30.4097  -27.3126   16.0004 C   0  0  0  0  0  0  0  0  0  0  0  0
  -29.3465  -28.4834   16.1718 C   0  0  0  0  0  0  0  0  0  1  0  0
  -23.0835  -13.0596   21.0331 N   0  0  0  0  0  0  0  0  0  0  0  0
  -23.9252  -14.0957   21.1882 N   0  0  0  0  0  0  0  0  0  0  0  0
  -24.9858  -28.4805   21.5006 N   0  0  0  0  0  0  0  0  0  0  0  0
  -23.2193  -17.2746   19.1932 N   0  0  0  0  0  0  0  0  0  0  0  0
  -26.1386  -14.6528   21.8213 N   0  0  0  0  0  0  0  0  0  0  0  0
  -26.0300  -10.1589   22.2569 N   0  0  0  0  0  0  0  0  0  0  0  0
  -25.3510  -18.1071   18.6228 N   0  0  0  0  0  0  0  0  0  0  0  0
  -27.0345  -22.2855   17.2499 N   0  0  0  0  0  0  0  0  0  0  0  0
  -24.4174  -24.9582   21.5178 N   0  0  0  0  0  0  0  0  0  0  0  0
  -23.6029  -31.3843   22.5562 N   0  0  0  0  0  0  0  0  0  0  0  0
  -25.9333  -33.9009   23.6978 N   0  3  0  0  0  0  0  0  0  0  0  0
  -27.3476  -12.0211   22.4918 O   0  0  0  0  0  0  0  0  0  0  0  0
  -24.5552  -26.5090   19.7861 O   0  0  0  0  0  0  0  0  0  0  0  0
  -28.3896  -23.7549   19.1585 O   0  0  0  0  0  0  0  0  0  0  0  0
  -23.3328  -28.5926   23.1411 O   0  0  0  0  0  0  0  0  0  0  0  0
  -25.1724  -32.5767   21.3348 O   0  0  0  0  0  0  0  0  0  0  0  0
  -23.4897  -19.4916   18.5966 O   0  0  0  0  0  0  0  0  0  0  0  0
  -26.0072  -20.2898   17.9425 O   0  0  0  0  0  0  0  0  0  0  0  0
  -21.6623   -6.8556   21.2341 O   0  0  0  0  0  0  0  0  0  0  0  0
  -29.5713  -29.1505   17.4258 O   0  0  0  0  0  0  0  0  0  1  0  0
  -22.6510   -3.5387   25.5265 F   0  0  0  0  0  0  0  0  0  0  0  0
  -24.2483   -6.1710   21.9313 F   0  0  0  0  0  0  0  0  0  0  0  0
  1  2  1  0  0  0  0
  1  5  2  0  0  0  0
  2  6  2  0  0  0  0
  3  8  2  0  0  0  0
  3 17  1  0  0  0  0
  4  9  1  0  0  0  0
  4 17  2  0  0  0  0
  5 19  1  0  0  0  0
  6 21  1  0  0  0  0
  7 10  2  0  0  0  0
  7 20  1  0  0  0  0
  8 23  1  0  0  0  0
  9 23  2  0  0  0  0
 10 24  1  0  0  0  0
 11 12  2  0  0  0  0
 11 25  1  0  0  0  0
 12 26  1  0  0  0  0
 13 14  1  0  0  0  0
 13 30  2  0  0  0  0
 14 31  2  0  0  0  0
 15 22  1  0  0  0  0
 15 24  2  0  0  0  0
 16 26  2  0  0  0  0
 16 27  1  0  0  0  0
 17 28  1  0  0  0  0
 18 28  1  0  0  0  0
 18 29  2  0  0  0  0
 18 32  1  0  0  0  0
 19 21  2  0  0  0  0
 19 38  1  0  0  0  0
 20 22  2  0  0  0  0
 20 39  1  0  0  0  0
 21 47  1  0  0  0  0
 22 40  1  0  0  0  0
 23 86  1  0  0  0  0
 24 87  1  0  0  0  0
 25 27  2  0  0  0  0
 25 86  1  0  0  0  0
 26 88  1  0  0  0  0
 27 89  1  0  0  0  0
 28 68  2  0  0  0  0
 29 69  1  0  0  0  0
 29 72  1  0  0  0  0
 30 74  1  0  0  0  0
 30 85  1  0  0  0  0
 31 75  1  0  0  0  0
 31 85  1  0  0  0  0
 32 73  1  0  0  0  0
 32 79  2  0  0  0  0
 33 48  1  0  0  0  0
 33 76  1  0  0  0  0
 33 80  2  0  0  0  0
 34 59  1  0  0  0  0
 34 60  1  0  0  0  0
 34 81  2  0  0  0  0
 35 63  1  0  0  0  0
 35 70  1  0  0  0  0
 35 82  2  0  0  0  0
 36 64  1  0  0  0  0
 36 77  1  0  0  0  0
 36 83  2  0  0  0  0
 37 71  1  0  0  0  0
 37 74  1  0  0  0  0
 37 84  2  0  0  0  0
 38 41  1  0  0  0  0
 39 48  1  0  0  0  0
 40 70  1  0  0  0  0
 41 43  1  0  0  0  0
 42 44  1  0  0  0  0
 42 45  1  0  0  0  0
 43 47  1  0  0  0  0
 44 49  1  0  0  0  0
 45 71  1  0  0  0  0
 46 49  1  0  0  0  0
 46 71  1  0  0  0  0
 47 76  1  0  0  0  0
 48 70  1  0  0  0  0
 49 69  1  0  0  0  0
 50 64  1  0  0  0  0
 51 65  1  0  0  0  0
 52 65  1  0  0  0  0
 53 65  1  0  0  0  0
 54 66  1  0  0  0  0
 55 66  1  0  0  0  0
 56 67  1  0  0  0  0
 57 67  1  0  0  0  0
 58 78  1  0  0  0  0
 59 61  1  0  0  0  0
 60 75  1  0  0  0  0
 61 62  1  0  0  0  0
 62 66  1  0  0  0  0
 63 65  1  0  0  0  0
 63 77  1  0  0  0  0
 64 78  1  0  0  0  0
 66 67  1  0  0  0  0
 67 87  1  0  0  0  0
 68 69  1  0  0  0  0
M  CHG  1  78   1
M  ISO  4  37 100  67 101  74 100  87 101
M  END
> <Batch ID>
0144

> <Smiles>
CNC(C)C(=O)NC(C(=O)N1Cc2cc([101O:1][101C:1](C)(C)C(C)(C)CCCC(=O)CNc3ccc([100NH:0][100C:0](=O)N4CCCC(n5nc(-c6ccc(Oc7ccc(F)cc7F)cc6)c(C(N)=O)c5N)C4)o3)ccc2CC1C(=O)NC1CCCc2ccccc21)C(C)(C)C

> <Shape>
0.224

> <Color>
0.094

> <Negative vol penalty>
0.000

$$$$

  -OEChem-04052303043D

 87 95  0     1  0  0  0  0  0999 V2000
  -28.4222  -22.8300   17.6798 C   0  0  0  0  0  0  0  0  0  0  0  0
  -27.3176  -23.0389   18.4992 C   0  0  0  0  0  0  0  0  0  0  0  0
  -27.4853  -16.5987   19.2779 C   0  0  0  0  0  0  0  0  0  0  0  0
  -26.7441  -18.0837   21.0337 C   0  0  0  0  0  0  0  0  0  0  0  0
  -29.5938  -23.5554   17.8926 C   0  0  0  0  0  0  0  0  0  0  0  0
  -27.3842  -23.9725   19.5328 C   0  0  0  0  0  0  0  0  0  0  0  0
  -23.2649  -26.9088   19.7671 C   0  0  0  0  0  0  0  0  0  0  0  0
  -28.7772  -17.1128   19.3885 C   0  0  0  0  0  0  0  0  0  0  0  0
  -28.0361  -18.5977   21.1444 C   0  0  0  0  0  0  0  0  0  0  0  0
  -22.1229  -26.3585   20.3474 C   0  0  0  0  0  0  0  0  0  0  0  0
  -30.4558  -19.8681   18.3813 C   0  0  0  0  0  0  0  0  0  0  0  0
  -31.1316  -20.1800   17.2016 C   0  0  0  0  0  0  0  0  0  0  0  0
  -22.6152  -27.5205   22.4033 C   0  0  0  0  0  0  0  0  0  0  0  0
  -32.8672  -18.6014   17.7785 C   0  0  0  0  0  0  0  0  0  0  0  0
  -17.5427  -21.2982   19.3867 C   0  0  0  0  0  0  0  0  0  0  0  0
  -26.4687  -17.0842   20.1005 C   0  0  0  0  0  0  0  0  0  0  0  0
  -24.5917  -15.4583   20.6845 C   0  0  0  0  0  0  0  0  0  0  0  0
  -29.6716  -24.5053   18.9233 C   0  0  0  0  0  0  0  0  0  0  0  0
  -24.0979  -27.7618   20.5052 C   0  0  0  0  0  0  0  0  0  0  0  0
  -28.5583  -24.7103   19.7606 C   0  0  0  0  0  0  0  0  0  0  0  0
  -23.7658  -28.0823   21.8292 C   0  0  0  0  0  0  0  0  0  0  0  0
  -29.0527  -18.1122   20.3217 C   0  0  0  0  0  0  0  0  0  0  0  0
  -21.7994  -26.6620   21.6666 C   0  0  0  0  0  0  0  0  0  0  0  0
  -30.9858  -18.9230   19.2597 C   0  0  0  0  0  0  0  0  0  0  0  0
  -32.3373  -19.5466   16.9002 C   0  0  0  0  0  0  0  0  0  0  0  0
  -32.1914  -18.2896   18.9583 C   0  0  0  0  0  0  0  0  0  0  0  0
  -25.1338  -16.5540   19.9864 C   0  0  0  0  0  0  0  0  0  0  0  0
  -23.3017  -15.3614   20.2231 C   0  0  0  0  0  0  0  0  0  0  0  0
  -18.7611  -20.7708   19.7604 C   0  0  0  0  0  0  0  0  0  0  0  0
  -17.7150  -22.2340   21.3627 C   0  0  0  0  0  0  0  0  0  0  0  0
  -17.0922  -25.7482   21.2075 C   0  0  0  0  0  0  0  0  0  0  0  0
  -25.1999  -14.6045   21.6627 C   0  0  0  0  0  0  0  0  0  0  0  0
  -17.3713  -23.0557   22.5386 C   0  0  0  0  0  0  0  0  0  0  0  0
  -16.1206  -24.8207   21.3590 C   0  0  0  0  0  0  0  0  0  0  0  0
  -27.1296  -27.6663   21.4556 C   0  0  0  0  0  0  0  0  0  0  0  0
  -26.4975  -30.6798   22.4762 C   0  0  0  0  0  0  0  0  0  0  0  0
  -24.1758  -32.9738   23.4734 C   0  0  0  0  0  0  0  0  0  0  0  0
  -19.5096  -19.3186   17.8428 C   0  0  0  0  0  0  0  0  0  0  0  0
  -30.9750  -25.2311   19.1446 C   0  0  0  0  0  0  0  0  0  0  0  0
  -25.3117  -28.3684   19.8562 C   0  0  0  0  0  0  0  0  0  0  0  0
  -24.6160  -29.0088   22.6581 C   0  0  0  0  0  0  0  0  0  0  0  0
  -30.8399  -26.4706   20.0254 C   0  0  0  0  0  0  0  0  0  0  0  0
  -20.6279  -16.2818   16.3581 C   0  0  0  0  0  0  0  0  0  0  0  0
  -30.0052  -26.1576   21.2631 C   0  0  0  0  0  0  0  0  0  0  0  0
  -21.8574  -15.9041   17.1874 C   0  0  0  0  0  0  0  0  0  0  0  0
  -20.5190  -17.7928   16.1612 C   0  0  0  0  0  0  0  0  0  0  0  0
  -21.7973  -18.2073   18.2259 C   0  0  0  0  0  0  0  0  0  0  0  0
  -28.5835  -25.7320   20.8766 C   0  0  1  0  0  0  0  0  0  0  0  0
  -26.3664  -28.8170   20.8631 C   0  0  1  0  0  0  0  0  0  0  0  0
  -21.9140  -16.7001   18.5060 C   0  0  2  0  0  0  0  0  0  0  0  0
  -15.0088  -24.6668   20.3421 C   0  0  0  0  0  0  0  0  0  0  0  0
  -18.1619  -27.4635   22.6549 C   0  0  0  0  0  0  0  0  0  0  0  0
  -23.9655  -35.3401   24.2820 C   0  0  0  0  0  0  0  0  0  0  0  0
  -14.9049  -22.8250   22.5050 C   0  0  0  0  0  0  0  0  0  0  0  0
  -15.8423  -24.6884   23.8596 C   0  0  0  0  0  0  0  0  0  0  0  0
  -27.5173  -29.8292   25.2233 C   0  0  0  0  0  0  0  0  0  0  0  0
  -26.4203  -31.8646   26.1837 C   0  0  0  0  0  0  0  0  0  0  0  0
  -28.2451  -32.1101   24.5007 C   0  0  0  0  0  0  0  0  0  0  0  0
  -22.4949  -33.7374   21.1603 C   0  0  0  0  0  0  0  0  0  0  0  0
  -19.5876  -25.8398   21.3704 C   0  0  0  0  0  0  0  0  0  1  0  0
  -18.2667  -26.0321   22.1226 C   0  0  2  0  0  0  0  0  0  0  0  0
  -25.9737  -31.2877   23.7549 C   0  0  1  0  0  0  0  0  0  0  0  0
  -23.9515  -34.4202   23.0710 C   0  0  2  0  0  0  0  0  0  0  0  0
  -16.0509  -23.8587   22.5763 C   0  0  0  0  0  0  0  0  0  0  0  0
  -27.0239  -31.2539   24.9009 C   0  0  0  0  0  0  0  0  0  0  0  0
  -16.9412  -22.1371   20.3045 N   0  0  0  0  0  0  0  0  0  0  0  0
  -24.2597  -17.1131   19.1453 N   0  0  0  0  0  0  0  0  0  0  0  0
  -23.1553  -16.3656   19.3119 N   0  0  0  0  0  0  0  0  0  0  0  0
  -25.7959  -29.5717   21.9808 N   0  0  0  0  0  0  0  0  0  0  0  0
  -20.5756  -18.4806   17.4529 N   0  0  0  0  0  0  0  0  0  0  0  0
  -22.2896  -14.5160   20.5119 N   0  0  0  0  0  0  0  0  0  0  0  0
  -26.5332  -14.8440   22.0220 N   0  0  0  0  0  0  0  0  0  0  0  0
  -19.6593  -19.8928   19.1047 N   0  0  0  0  0  0  0  0  0  0  0  0
  -27.7884  -26.8883   20.5228 N   0  0  0  0  0  0  0  0  0  0  0  0
  -25.5088  -32.6268   23.4098 N   0  0  0  0  0  0  0  0  0  0  0  0
  -22.6378  -34.5688   22.3831 N   0  3  0  0  0  0  0  0  0  0  0  0
  -24.5844  -13.6472   22.1901 O   0  0  0  0  0  0  0  0  0  0  0  0
  -18.1883  -23.0714   23.4593 O   0  0  0  0  0  0  0  0  0  0  0  0
  -27.1227  -27.4978   22.6694 O   0  0  0  0  0  0  0  0  0  0  0  0
  -27.4884  -31.1746   21.9330 O   0  0  0  0  0  0  0  0  0  0  0  0
  -23.2606  -32.2275   23.8139 O   0  0  0  0  0  0  0  0  0  0  0  0
  -18.5229  -19.4911   17.1226 O   0  0  0  0  0  0  0  0  0  0  0  0
  -30.3133  -18.6139   20.4301 O   0  0  0  0  0  0  0  0  0  0  0  0
  -20.6782  -26.1222   22.2396 O   0  0  0  0  0  0  0  0  0  1  0  0
  -32.9854  -19.8451   15.7666 F   0  0  0  0  0  0  0  0  0  0  0  0
  -32.7049  -17.3799   19.7976 F   0  0  0  0  0  0  0  0  0  0  0  0
  -19.1813  -21.3433   21.3215 S   0  0  0  0  0  0  0  0  0  0  0  0
  1  2  1  0  0  0  0
  1  5  2  0  0  0  0
  2  6  2  0  0  0  0
  3  8  2  0  0  0  0
  3 16  1  0  0  0  0
  4  9  1  0  0  0  0
  4 16  2  0  0  0  0
  5 18  1  0  0  0  0
  6 20  1  0  0  0  0
  7 10  2  0  0  0  0
  7 19  1  0  0  0  0
  8 22  1  0  0  0  0
  9 22  2  0  0  0  0
 10 23  1  0  0  0  0
 11 12  2  0  0  0  0
 11 24  1  0  0  0  0
 12 25  1  0  0  0  0
 13 21  1  0  0  0  0
 13 23  2  0  0  0  0
 14 25  2  0  0  0  0
 14 26  1  0  0  0  0
 15 29  2  0  0  0  0
 15 66  1  0  0  0  0
 16 27  1  0  0  0  0
 17 27  1  0  0  0  0
 17 28  2  0  0  0  0
 17 32  1  0  0  0  0
 18 20  2  0  0  0  0
 18 39  1  0  0  0  0
 19 21  2  0  0  0  0
 19 40  1  0  0  0  0
 20 48  1  0  0  0  0
 21 41  1  0  0  0  0
 22 83  1  0  0  0  0
 23 84  1  0  0  0  0
 24 26  2  0  0  0  0
 24 83  1  0  0  0  0
 25 85  1  0  0  0  0
 26 86  1  0  0  0  0
 27 67  2  0  0  0  0
 28 68  1  0  0  0  0
 28 71  1  0  0  0  0
 29 73  1  0  0  0  0
 29 87  1  0  0  0  0
 30 33  1  0  0  0  0
 30 66  2  0  0  0  0
 30 87  1  0  0  0  0
 31 34  2  0  0  0  0
 31 61  1  0  0  0  0
 32 72  1  0  0  0  0
 32 77  2  0  0  0  0
 33 64  1  0  0  0  0
 33 78  2  0  0  0  0
 34 51  1  0  0  0  0
 34 64  1  0  0  0  0
 35 49  1  0  0  0  0
 35 74  1  0  0  0  0
 35 79  2  0  0  0  0
 36 62  1  0  0  0  0
 36 69  1  0  0  0  0
 36 80  2  0  0  0  0
 37 63  1  0  0  0  0
 37 75  1  0  0  0  0
 37 81  2  0  0  0  0
 38 70  1  0  0  0  0
 38 73  1  0  0  0  0
 38 82  2  0  0  0  0
 39 42  1  0  0  0  0
 40 49  1  0  0  0  0
 41 69  1  0  0  0  0
 42 44  1  0  0  0  0
 43 45  1  0  0  0  0
 43 46  1  0  0  0  0
 44 48  1  0  0  0  0
 45 50  1  0  0  0  0
 46 70  1  0  0  0  0
 47 50  1  0  0  0  0
 47 70  1  0  0  0  0
 48 74  1  0  0  0  0
 49 69  1  0  0  0  0
 50 68  1  0  0  0  0
 52 61  1  0  0  0  0
 53 63  1  0  0  0  0
 54 64  1  0  0  0  0
 55 64  1  0  0  0  0
 56 65  1  0  0  0  0
 57 65  1  0  0  0  0
 58 65  1  0  0  0  0
 59 76  1  0  0  0  0
 60 61  1  0  0  0  0
 60 84  1  0  0  0  0
 62 65  1  0  0  0  0
 62 75  1  0  0  0  0
 63 76  1  0  0  0  0
 67 68  1  0  0  0  0
M  CHG  1  76   1
M  ISO  4  38 100  60 101  73 100  84 101
M  END
> <Batch ID>
0144

> <Smiles>
CNC(C)C(=O)NC(C(=O)N1Cc2cc([101O:1][101CH2:1]C(C)C=C(C)C(C)(C)C(=O)c3ncc([100NH:0][100C:0](=O)N4CCCC(n5nc(-c6ccc(Oc7ccc(F)cc7F)cc6)c(C(N)=O)c5N)C4)s3)ccc2CC1C(=O)NC1CCCc2ccccc21)C(C)(C)C

> <Shape>
0.224

> <Color>
0.056

> <Negative vol penalty>
0.000

$$$$

  -OEChem-04052303043D

 88 96  0     1  0  0  0  0  0999 V2000
  -22.1830  -11.9347   18.6721 C   0  0  0  0  0  0  0  0  0  0  0  0
  -22.0499  -13.3151   18.7823 C   0  0  0  0  0  0  0  0  0  0  0  0
  -28.9152  -28.3818   18.5797 C   0  0  0  0  0  0  0  0  0  0  0  0
  -28.9573  -27.4874   20.8236 C   0  0  0  0  0  0  0  0  0  0  0  0
  -23.2516  -11.2870   19.2904 C   0  0  0  0  0  0  0  0  0  0  0  0
  -22.9849  -14.0485   19.5119 C   0  0  0  0  0  0  0  0  0  0  0  0
  -24.4499  -18.2609   17.1131 C   0  0  0  0  0  0  0  0  0  0  0  0
  -30.2910  -28.1785   18.4728 C   0  0  0  0  0  0  0  0  0  0  0  0
  -30.3331  -27.2840   20.7167 C   0  0  0  0  0  0  0  0  0  0  0  0
  -23.5793  -19.3493   17.1485 C   0  0  0  0  0  0  0  0  0  0  0  0
  -33.9148  -26.8624   21.1681 C   0  0  0  0  0  0  0  0  0  0  0  0
  -34.7124  -27.2440   22.2469 C   0  0  0  0  0  0  0  0  0  0  0  0
  -24.8965  -20.3379   18.9112 C   0  0  0  0  0  0  0  0  0  0  0  0
  -19.4792  -28.1007   23.3342 C   0  0  0  0  0  0  0  0  0  0  0  0
  -17.1293  -28.5801   23.0430 C   0  0  0  0  0  0  0  0  0  0  0  0
  -18.7437  -30.3770   22.9959 C   0  0  0  0  0  0  0  0  0  0  0  0
  -33.9487  -29.5234   22.0052 C   0  0  0  0  0  0  0  0  0  0  0  0
  -28.2484  -28.0363   19.7551 C   0  0  0  0  0  0  0  0  0  0  0  0
  -25.8047  -27.3413   19.5249 C   0  0  0  0  0  0  0  0  0  0  0  0
  -24.2055  -12.0140   20.0199 C   0  0  0  0  0  0  0  0  0  0  0  0
  -25.5460  -18.1976   17.9855 C   0  0  0  0  0  0  0  0  0  0  0  0
  -24.0666  -13.4097   20.1417 C   0  0  0  0  0  0  0  0  0  0  0  0
  -25.7809  -19.2489   18.8832 C   0  0  0  0  0  0  0  0  0  0  0  0
  -18.1578  -27.6615   23.2528 C   0  0  0  0  0  0  0  0  0  0  0  0
  -19.7722  -29.4584   23.2057 C   0  0  0  0  0  0  0  0  0  0  0  0
  -31.0000  -27.6296   19.5413 C   0  0  0  0  0  0  0  0  0  0  0  0
  -23.8009  -20.3866   18.0496 C   0  0  0  0  0  0  0  0  0  0  0  0
  -33.1343  -27.8114   20.5077 C   0  0  0  0  0  0  0  0  0  0  0  0
  -34.7293  -28.5745   22.6655 C   0  0  0  0  0  0  0  0  0  0  0  0
  -17.4222  -29.9378   22.9145 C   0  0  0  0  0  0  0  0  0  0  0  0
  -33.1512  -29.1418   20.9263 C   0  0  0  0  0  0  0  0  0  0  0  0
  -26.8273  -28.2466   19.8664 C   0  0  0  0  0  0  0  0  0  0  0  0
  -24.6416  -28.0119   19.8149 C   0  0  0  0  0  0  0  0  0  0  0  0
  -25.8978  -26.0130   18.9932 C   0  0  0  0  0  0  0  0  0  0  0  0
  -26.4556  -16.2238   20.3051 C   0  0  0  0  0  0  0  0  0  0  0  0
  -21.4111  -22.7289   19.4504 C   0  0  0  0  0  0  0  0  0  0  0  0
  -29.1350  -18.0519   20.2780 C   0  0  0  0  0  0  0  0  0  0  0  0
  -19.4519  -24.8631   22.0819 C   0  0  0  0  0  0  0  0  0  0  0  0
  -30.5906  -21.0483   19.5367 C   0  0  0  0  0  0  0  0  0  0  0  0
  -21.5766  -31.2162   23.1825 C   0  0  0  0  0  0  0  0  0  0  0  0
  -25.3173  -11.2642   20.7103 C   0  0  0  0  0  0  0  0  0  0  0  0
  -26.4910  -17.0294   17.9165 C   0  0  0  0  0  0  0  0  0  0  0  0
  -26.9547  -19.2385   19.8269 C   0  0  0  0  0  0  0  0  0  0  0  0
  -26.4727  -12.1588   21.1519 C   0  0  0  0  0  0  0  0  0  0  0  0
  -23.8464  -32.8698   20.9937 C   0  0  0  0  0  0  0  0  0  0  0  0
  -25.9441  -13.4075   21.8507 C   0  0  0  0  0  0  0  0  0  0  0  0
  -24.7401  -31.7400   20.4772 C   0  0  0  0  0  0  0  0  0  0  0  0
  -23.4615  -32.6643   22.4578 C   0  0  0  0  0  0  0  0  0  0  0  0
  -23.7600  -30.2278   22.2491 C   0  0  0  0  0  0  0  0  0  0  0  0
  -25.0741  -14.2429   20.9039 C   0  0  1  0  0  0  0  0  0  0  0  0
  -27.2830  -16.8246   19.2042 C   0  0  1  0  0  0  0  0  0  0  0  0
  -24.1207  -30.3573   20.7603 C   0  0  2  0  0  0  0  0  0  0  0  0
  -32.7865  -22.2563   19.6625 C   0  0  0  0  0  0  0  0  0  0  0  0
  -28.7359  -18.4602   23.2753 C   0  0  0  0  0  0  0  0  0  0  0  0
  -30.3385  -20.3800   23.1566 C   0  0  0  0  0  0  0  0  0  0  0  0
  -31.1080  -18.0779   22.5813 C   0  0  0  0  0  0  0  0  0  0  0  0
  -17.1360  -25.3857   21.1752 C   0  0  0  0  0  0  0  0  0  0  0  0
  -30.7077  -21.3817   16.5983 C   0  0  0  0  0  0  0  0  0  0  0  0
  -17.8421  -26.2002   23.3905 C   0  0  0  0  0  0  0  0  0  0  0  0
  -21.1249  -23.4733   20.7464 C   0  0  0  0  0  0  0  0  0  0  0  0
  -22.7901  -22.1080   19.3424 C   0  0  0  0  0  0  0  0  0  1  0  0
  -19.7276  -24.0896   20.7965 C   0  0  0  0  0  0  0  0  0  0  0  0
  -29.5792  -19.3084   20.9872 C   0  0  1  0  0  0  0  0  0  0  0  0
  -31.8764  -21.3901   18.8057 C   0  0  2  0  0  0  0  0  0  0  0  0
  -29.9171  -19.0562   22.4838 C   0  0  0  0  0  0  0  0  0  0  0  0
  -26.3553  -29.4040   20.3371 N   0  0  0  0  0  0  0  0  0  0  0  0
  -25.0234  -29.2306   20.2934 N   0  0  0  0  0  0  0  0  0  0  0  0
  -27.8466  -18.0715   19.7255 N   0  0  0  0  0  0  0  0  0  0  0  0
  -22.8776  -31.3350   22.6495 N   0  0  0  0  0  0  0  0  0  0  0  0
  -23.3398  -27.6720   19.7046 N   0  0  0  0  0  0  0  0  0  0  0  0
  -27.1704  -25.4765   18.7547 N   0  0  0  0  0  0  0  0  0  0  0  0
  -21.1144  -29.9048   23.2886 N   0  0  0  0  0  0  0  0  0  0  0  0
  -25.9035  -14.9972   19.9887 N   0  0  0  0  0  0  0  0  0  0  0  0
  -30.6879  -19.8473   20.2069 N   0  0  0  0  0  0  0  0  0  0  0  0
  -18.1871  -25.4519   22.1879 N   0  0  0  0  0  0  0  0  0  0  0  0
  -31.5758  -22.1271   17.5458 N   0  3  0  0  0  0  0  0  0  0  0  0
  -24.8822  -25.3285   18.7219 O   0  0  0  0  0  0  0  0  0  0  0  0
  -26.3287  -16.8276   21.3639 O   0  0  0  0  0  0  0  0  0  0  0  0
  -20.5830  -22.6273   18.5468 O   0  0  0  0  0  0  0  0  0  0  0  0
  -29.9057  -17.0911   20.2103 O   0  0  0  0  0  0  0  0  0  0  0  0
  -20.3123  -24.9432   22.9625 O   0  0  0  0  0  0  0  0  0  0  0  0
  -29.6002  -21.7760   19.5182 O   0  0  0  0  0  0  0  0  0  0  0  0
  -20.9103  -32.2065   23.4947 O   0  0  0  0  0  0  0  0  0  0  0  0
  -32.3425  -27.4308   19.4373 O   0  0  0  0  0  0  0  0  0  0  0  0
  -22.9523  -21.4498   18.0867 O   0  0  0  0  0  0  0  0  0  1  0  0
  -35.4940  -28.9405   23.7026 F   0  0  0  0  0  0  0  0  0  0  0  0
  -16.4345  -30.8198   22.7129 F   0  0  0  0  0  0  0  0  0  0  0  0
  -32.4026  -30.0577   20.2966 F   0  0  0  0  0  0  0  0  0  0  0  0
  1  2  1  0  0  0  0
  1  5  2  0  0  0  0
  2  6  2  0  0  0  0
  3  8  2  0  0  0  0
  3 18  1  0  0  0  0
  4  9  1  0  0  0  0
  4 18  2  0  0  0  0
  5 20  1  0  0  0  0
  6 22  1  0  0  0  0
  7 10  2  0  0  0  0
  7 21  1  0  0  0  0
  8 26  1  0  0  0  0
  9 26  2  0  0  0  0
 10 27  1  0  0  0  0
 11 12  2  0  0  0  0
 11 28  1  0  0  0  0
 12 29  1  0  0  0  0
 13 23  1  0  0  0  0
 13 27  2  0  0  0  0
 14 24  2  0  0  0  0
 14 25  1  0  0  0  0
 15 24  1  0  0  0  0
 15 30  2  0  0  0  0
 16 25  2  0  0  0  0
 16 30  1  0  0  0  0
 17 29  2  0  0  0  0
 17 31  1  0  0  0  0
 18 32  1  0  0  0  0
 19 32  1  0  0  0  0
 19 33  2  0  0  0  0
 19 34  1  0  0  0  0
 20 22  2  0  0  0  0
 20 41  1  0  0  0  0
 21 23  2  0  0  0  0
 21 42  1  0  0  0  0
 22 50  1  0  0  0  0
 23 43  1  0  0  0  0
 24 59  1  0  0  0  0
 25 72  1  0  0  0  0
 26 84  1  0  0  0  0
 27 85  1  0  0  0  0
 28 31  2  0  0  0  0
 28 84  1  0  0  0  0
 29 86  1  0  0  0  0
 30 87  1  0  0  0  0
 31 88  1  0  0  0  0
 32 66  2  0  0  0  0
 33 67  1  0  0  0  0
 33 70  1  0  0  0  0
 34 71  1  0  0  0  0
 34 77  2  0  0  0  0
 35 51  1  0  0  0  0
 35 73  1  0  0  0  0
 35 78  2  0  0  0  0
 36 60  1  0  0  0  0
 36 61  1  0  0  0  0
 36 79  2  0  0  0  0
 37 63  1  0  0  0  0
 37 68  1  0  0  0  0
 37 80  2  0  0  0  0
 38 62  1  0  0  0  0
 38 75  1  0  0  0  0
 38 81  2  0  0  0  0
 39 64  1  0  0  0  0
 39 74  1  0  0  0  0
 39 82  2  0  0  0  0
 40 69  1  0  0  0  0
 40 72  1  0  0  0  0
 40 83  2  0  0  0  0
 41 44  1  0  0  0  0
 42 51  1  0  0  0  0
 43 68  1  0  0  0  0
 44 46  1  0  0  0  0
 45 47  1  0  0  0  0
 45 48  1  0  0  0  0
 46 50  1  0  0  0  0
 47 52  1  0  0  0  0
 48 69  1  0  0  0  0
 49 52  1  0  0  0  0
 49 69  1  0  0  0  0
 50 73  1  0  0  0  0
 51 68  1  0  0  0  0
 52 67  1  0  0  0  0
 53 64  1  0  0  0  0
 54 65  1  0  0  0  0
 55 65  1  0  0  0  0
 56 65  1  0  0  0  0
 57 75  1  0  0  0  0
 58 76  1  0  0  0  0
 59 75  1  0  0  0  0
 60 62  1  0  0  0  0
 61 85  1  0  0  0  0
 63 65  1  0  0  0  0
 63 74  1  0  0  0  0
 64 76  1  0  0  0  0
 66 67  1  0  0  0  0
M  CHG  1  76   1
M  ISO  4  40 100  61 101  72 100  85 101
M  END
> <Batch ID>
0144

> <Smiles>
CNC(C)C(=O)NC(C(=O)N1Cc2cc([101O:1][101CH2:1]C(=O)CCC(=O)N(C)Cc3cc(F)cc([100NH:0][100C:0](=O)N4CCCC(n5nc(-c6ccc(Oc7ccc(F)cc7F)cc6)c(C(N)=O)c5N)C4)c3)ccc2CC1C(=O)NC1CCCc2ccccc21)C(C)(C)C

> <Shape>
0.241

> <Color>
0.080

> <Negative vol penalty>
0.000

$$$$

  -OEChem-04052303043D

 86 95  0     1  0  0  0  0  0999 V2000
  -37.4460  -32.3669   33.4632 C   0  0  0  0  0  0  0  0  0  0  0  0
  -37.4207  -31.1729   32.7496 C   0  0  0  0  0  0  0  0  0  0  0  0
  -23.0793   -9.8636   19.9409 C   0  0  0  0  0  0  0  0  0  0  0  0
  -23.8348   -9.8758   22.2357 C   0  0  0  0  0  0  0  0  0  0  0  0
  -30.4506  -18.3538   24.0414 C   0  0  0  0  0  0  0  0  0  0  0  0
  -36.2621  -33.0676   33.6896 C   0  0  0  0  0  0  0  0  0  0  0  0
  -36.2111  -30.6783   32.2630 C   0  0  0  0  0  0  0  0  0  0  0  0
  -35.3246  -27.6049   27.0405 C   0  0  0  0  0  0  0  0  0  0  0  0
  -29.8667  -17.4671   23.1368 C   0  0  0  0  0  0  0  0  0  0  0  0
  -22.3363   -8.7100   20.1916 C   0  0  0  0  0  0  0  0  0  0  0  0
  -23.0917   -8.7222   22.4865 C   0  0  0  0  0  0  0  0  0  0  0  0
  -35.2009  -26.2444   26.7623 C   0  0  0  0  0  0  0  0  0  0  0  0
  -19.8634   -7.9218   23.0843 C   0  0  0  0  0  0  0  0  0  0  0  0
  -19.1042   -7.8832   24.2538 C   0  0  0  0  0  0  0  0  0  0  0  0
  -32.7988  -26.4543   26.8341 C   0  0  0  0  0  0  0  0  0  0  0  0
  -32.0535  -16.6209   22.5546 C   0  0  0  0  0  0  0  0  0  0  0  0
  -20.3465   -5.9486   24.9963 C   0  0  0  0  0  0  0  0  0  0  0  0
  -23.8286  -10.4464   20.9630 C   0  0  0  0  0  0  0  0  0  0  0  0
  -31.8360  -18.3742   24.2026 C   0  0  0  0  0  0  0  0  0  0  0  0
  -24.1677  -12.9717   20.8388 C   0  0  0  0  0  0  0  0  0  0  0  0
  -35.0387  -32.5863   33.1973 C   0  0  0  0  0  0  0  0  0  0  0  0
  -34.1846  -28.3995   27.2288 C   0  0  0  0  0  0  0  0  0  0  0  0
  -35.0095  -31.3725   32.4843 C   0  0  0  0  0  0  0  0  0  0  0  0
  -32.9107  -27.8252   27.1121 C   0  0  0  0  0  0  0  0  0  0  0  0
  -30.6681  -16.6006   22.3934 C   0  0  0  0  0  0  0  0  0  0  0  0
  -22.3425   -8.1394   21.4644 C   0  0  0  0  0  0  0  0  0  0  0  0
  -33.9379  -25.6683   26.6618 C   0  0  0  0  0  0  0  0  0  0  0  0
  -20.8640   -6.9737   22.8707 C   0  0  0  0  0  0  0  0  0  0  0  0
  -19.3458   -6.8966   25.2099 C   0  0  0  0  0  0  0  0  0  0  0  0
  -32.6375  -17.5077   23.4592 C   0  0  0  0  0  0  0  0  0  0  0  0
  -21.1056   -5.9872   23.8268 C   0  0  0  0  0  0  0  0  0  0  0  0
  -24.5968  -11.6377   20.7044 C   0  0  0  0  0  0  0  0  0  0  0  0
  -25.2597  -13.7218   20.4762 C   0  0  0  0  0  0  0  0  0  0  0  0
  -33.6166  -22.6799   24.7002 C   0  0  0  0  0  0  0  0  0  0  0  0
  -33.7392  -23.9551   25.0819 C   0  0  0  0  0  0  0  0  0  1  0  0
  -32.4500  -19.3127   25.1588 C   0  0  0  0  0  0  0  0  0  0  0  0
  -22.8958  -13.4869   21.2543 C   0  0  0  0  0  0  0  0  0  0  0  0
  -33.0178  -30.1135   29.6381 C   0  0  0  0  0  0  0  0  0  0  0  0
  -30.8289  -31.0187   27.4218 C   0  0  0  0  0  0  0  0  0  0  0  0
  -29.1932  -30.3166   24.5101 C   0  0  0  0  0  0  0  0  0  0  0  0
  -30.7243  -14.7741   20.6594 C   0  0  0  0  0  0  0  0  0  0  0  0
  -33.7785  -33.3543   33.5079 C   0  0  0  0  0  0  0  0  0  0  0  0
  -34.3346  -29.8710   27.5019 C   0  0  0  0  0  0  0  0  0  0  0  0
  -31.6551  -28.6388   27.2855 C   0  0  0  0  0  0  0  0  0  0  0  0
  -33.5304  -22.2080   23.2784 C   0  0  0  0  0  0  0  0  0  0  0  0
  -33.4248  -21.5209   25.6300 C   0  0  0  0  0  0  0  0  0  0  0  0
  -32.5908  -32.9541   32.6364 C   0  0  0  0  0  0  0  0  0  0  0  0
  -29.6173  -12.3545   18.2936 C   0  0  0  0  0  0  0  0  0  0  0  0
  -32.4725  -31.4352   32.5600 C   0  0  0  0  0  0  0  0  0  0  0  0
  -28.1771  -12.0620   18.7209 C   0  0  0  0  0  0  0  0  0  0  0  0
  -32.6163  -20.9921   23.3684 C   0  0  0  0  0  0  0  0  0  0  0  0
  -30.5298  -12.5866   19.4965 C   0  0  0  0  0  0  0  0  0  0  0  0
  -28.6194  -13.3115   20.8728 C   0  0  0  0  0  0  0  0  0  0  0  0
  -33.7206  -30.8163   31.9191 C   0  0  1  0  0  0  0  0  0  0  0  0
  -33.1133  -30.4797   28.1840 C   0  0  1  0  0  0  0  0  0  0  0  0
  -27.6490  -13.1349   19.6934 C   0  0  2  0  0  0  0  0  0  0  0  0
  -27.4331  -31.2272   22.9705 C   0  0  0  0  0  0  0  0  0  0  0  0
  -28.6635  -30.1532   29.3895 C   0  0  0  0  0  0  0  0  0  0  0  0
  -27.0276  -30.1824   27.4944 C   0  0  0  0  0  0  0  0  0  0  0  0
  -28.1796  -32.2868   28.1778 C   0  0  0  0  0  0  0  0  0  0  0  0
  -31.0956  -30.4906   22.2497 C   0  0  0  0  0  0  0  0  0  0  0  0
  -29.4884  -30.4944   26.9669 C   0  0  1  0  0  0  0  0  0  0  0  0
  -28.9209  -31.1617   23.2787 C   0  0  2  0  0  0  0  0  0  0  0  0
  -28.3633  -30.7632   28.0057 C   0  0  0  0  0  0  0  0  0  0  0  0
  -25.8626  -11.5425   20.2888 N   0  0  0  0  0  0  0  0  0  0  0  0
  -26.2382  -12.8263   20.1587 N   0  0  0  0  0  0  0  0  0  0  0  0
  -32.8054  -20.5171   24.7487 N   0  0  0  0  0  0  0  0  0  0  0  0
  -31.8541  -30.0719   27.5574 N   0  0  0  0  0  0  0  0  0  0  0  0
  -29.9680  -13.6185   20.3709 N   0  0  0  0  0  0  0  0  0  0  0  0
  -25.4687  -15.0534   20.4011 N   0  0  0  0  0  0  0  0  0  0  0  0
  -21.8843  -12.5772   21.5914 N   0  0  0  0  0  0  0  0  0  0  0  0
  -30.0743  -15.6999   21.4748 N   0  0  0  0  0  0  0  0  0  0  0  0
  -33.6851  -30.9809   30.4817 N   0  0  0  0  0  0  0  0  0  0  0  0
  -29.2435  -31.0836   25.6549 N   0  0  0  0  0  0  0  0  0  0  0  0
  -32.6349  -18.9331   26.4197 N   0  3  0  0  0  0  0  0  0  0  0  0
  -29.6217  -30.5911   22.0937 N   0  3  0  0  0  0  0  0  0  0  0  0
  -22.6581  -14.7173   21.3088 O   0  0  0  0  0  0  0  0  0  0  0  0
  -32.3844  -29.1184   29.9702 O   0  0  0  0  0  0  0  0  0  0  0  0
  -30.9635  -32.2250   27.6417 O   0  0  0  0  0  0  0  0  0  0  0  0
  -29.3423  -29.0977   24.4618 O   0  0  0  0  0  0  0  0  0  0  0  0
  -31.8541  -14.9432   20.1936 O   0  0  0  0  0  0  0  0  0  0  0  0
  -21.6174   -7.0139   21.7095 O   0  0  0  0  0  0  0  0  0  0  0  0
  -33.8143  -24.3404   26.3910 O   0  0  0  0  0  0  0  0  0  1  0  0
  -18.6177   -6.8606   26.3336 F   0  0  0  0  0  0  0  0  0  0  0  0
  -33.9698  -17.5212   23.6058 F   0  0  0  0  0  0  0  0  0  0  0  0
  -22.0663   -5.0744   23.6277 F   0  0  0  0  0  0  0  0  0  0  0  0
  1  2  1  0  0  0  0
  1  6  2  0  0  0  0
  2  7  2  0  0  0  0
  3 10  2  0  0  0  0
  3 18  1  0  0  0  0
  4 11  1  0  0  0  0
  4 18  2  0  0  0  0
  5  9  2  0  0  0  0
  5 19  1  0  0  0  0
  6 21  1  0  0  0  0
  7 23  1  0  0  0  0
  8 12  2  0  0  0  0
  8 22  1  0  0  0  0
  9 25  1  0  0  0  0
 10 26  1  0  0  0  0
 11 26  2  0  0  0  0
 12 27  1  0  0  0  0
 13 14  2  0  0  0  0
 13 28  1  0  0  0  0
 14 29  1  0  0  0  0
 15 24  1  0  0  0  0
 15 27  2  0  0  0  0
 16 25  2  0  0  0  0
 16 30  1  0  0  0  0
 17 29  2  0  0  0  0
 17 31  1  0  0  0  0
 18 32  1  0  0  0  0
 19 30  2  0  0  0  0
 19 36  1  0  0  0  0
 20 32  1  0  0  0  0
 20 33  2  0  0  0  0
 20 37  1  0  0  0  0
 21 23  2  0  0  0  0
 21 42  1  0  0  0  0
 22 24  2  0  0  0  0
 22 43  1  0  0  0  0
 23 54  1  0  0  0  0
 24 44  1  0  0  0  0
 25 72  1  0  0  0  0
 26 82  1  0  0  0  0
 27 83  1  0  0  0  0
 28 31  2  0  0  0  0
 28 82  1  0  0  0  0
 29 84  1  0  0  0  0
 30 85  1  0  0  0  0
 31 86  1  0  0  0  0
 32 65  2  0  0  0  0
 33 66  1  0  0  0  0
 33 70  1  0  0  0  0
 34 35  2  0  0  0  0
 34 45  1  0  0  0  0
 34 46  1  0  0  0  0
 35 83  1  0  0  0  0
 36 67  1  0  0  0  0
 36 75  2  0  0  0  0
 37 71  1  0  0  0  0
 37 77  2  0  0  0  0
 38 55  1  0  0  0  0
 38 73  1  0  0  0  0
 38 78  2  0  0  0  0
 39 62  1  0  0  0  0
 39 68  1  0  0  0  0
 39 79  2  0  0  0  0
 40 63  1  0  0  0  0
 40 74  1  0  0  0  0
 40 80  2  0  0  0  0
 41 69  1  0  0  0  0
 41 72  1  0  0  0  0
 41 81  2  0  0  0  0
 42 47  1  0  0  0  0
 43 55  1  0  0  0  0
 44 68  1  0  0  0  0
 45 51  1  0  0  0  0
 46 67  1  0  0  0  0
 47 49  1  0  0  0  0
 48 50  1  0  0  0  0
 48 52  1  0  0  0  0
 49 54  1  0  0  0  0
 50 56  1  0  0  0  0
 51 67  1  0  0  0  0
 52 69  1  0  0  0  0
 53 56  1  0  0  0  0
 53 69  1  0  0  0  0
 54 73  1  0  0  0  0
 55 68  1  0  0  0  0
 56 66  1  0  0  0  0
 57 63  1  0  0  0  0
 58 64  1  0  0  0  0
 59 64  1  0  0  0  0
 60 64  1  0  0  0  0
 61 76  1  0  0  0  0
 62 64  1  0  0  0  0
 62 74  1  0  0  0  0
 63 76  1  0  0  0  0
 65 66  1  0  0  0  0
M  CHG  2  75   1  76   1
M  ISO  4  35 101  41 100  72 100  83 101
M  END
> <Batch ID>
0144

> <Smiles>
CNC(C)C(=O)NC(C(=O)N1Cc2cc([101O:1][101CH:1]=C3CCN(C(=N)c4ccc([100NH:0][100C:0](=O)N5CCCC(n6nc(-c7ccc(Oc8ccc(F)cc8F)cc7)c(C(N)=O)c6N)C5)cc4F)C3)ccc2CC1C(=O)NC1CCCc2ccccc21)C(C)(C)C

> <Shape>
0.181

> <Color>
0.188

> <Negative vol penalty>
0.000

$$$$

  -OEChem-04052303043D

 90 98  0     1  0  0  0  0  0999 V2000
  -20.8706  -31.7233   13.8860 C   0  0  0  0  0  0  0  0  0  0  0  0
  -21.2449  -31.5889   15.2192 C   0  0  0  0  0  0  0  0  0  0  0  0
  -22.9999   -9.8121   20.0351 C   0  0  0  0  0  0  0  0  0  0  0  0
  -23.6386  -10.0178   22.3560 C   0  0  0  0  0  0  0  0  0  0  0  0
  -20.9266  -30.6218   13.0330 C   0  0  0  0  0  0  0  0  0  0  0  0
  -21.6743  -30.3526   15.7003 C   0  0  0  0  0  0  0  0  0  0  0  0
  -25.9564  -29.3462   19.9614 C   0  0  0  0  0  0  0  0  0  0  0  0
  -22.2270   -8.6936   20.3469 C   0  0  0  0  0  0  0  0  0  0  0  0
  -22.8656   -8.8993   22.6679 C   0  0  0  0  0  0  0  0  0  0  0  0
  -25.8757  -29.0746   21.3265 C   0  0  0  0  0  0  0  0  0  0  0  0
  -23.1360   -5.5379   22.4258 C   0  0  0  0  0  0  0  0  0  0  0  0
  -23.6978   -4.5752   23.2644 C   0  0  0  0  0  0  0  0  0  0  0  0
  -31.8016  -18.8487   22.1241 C   0  0  0  0  0  0  0  0  0  0  0  0
  -31.7291  -17.5368   21.5728 C   0  0  0  0  0  0  0  0  0  0  0  0
  -26.0435  -26.7137   20.8606 C   0  0  0  0  0  0  0  0  0  0  0  0
  -21.9120   -4.9188   24.8551 C   0  0  0  0  0  0  0  0  0  0  0  0
  -23.7058  -10.4741   21.0397 C   0  0  0  0  0  0  0  0  0  0  0  0
  -24.0908  -12.9747   20.7130 C   0  0  0  0  0  0  0  0  0  0  0  0
  -21.3661  -29.3737   13.5016 C   0  0  0  0  0  0  0  0  0  0  0  0
  -26.0705  -28.3012   19.0333 C   0  0  0  0  0  0  0  0  0  0  0  0
  -21.7349  -29.2331   14.8531 C   0  0  0  0  0  0  0  0  0  0  0  0
  -26.1281  -26.9748   19.4845 C   0  0  0  0  0  0  0  0  0  0  0  0
  -22.1598   -8.2373   21.6632 C   0  0  0  0  0  0  0  0  0  0  0  0
  -25.9163  -27.7581   21.7761 C   0  0  0  0  0  0  0  0  0  0  0  0
  -21.9623   -6.1911   22.8019 C   0  0  0  0  0  0  0  0  0  0  0  0
  -23.0858   -4.2656   24.4790 C   0  0  0  0  0  0  0  0  0  0  0  0
  -21.3503   -5.8815   24.0165 C   0  0  0  0  0  0  0  0  0  0  0  0
  -24.5049  -11.6292   20.7181 C   0  0  0  0  0  0  0  0  0  0  0  0
  -25.2115  -13.6774   20.3433 C   0  0  0  0  0  0  0  0  0  0  0  0
  -30.6239  -19.2190   22.7352 C   0  0  0  0  0  0  0  0  0  0  0  0
  -30.4986  -16.9543   21.7839 C   0  0  0  0  0  0  0  0  0  0  0  0
  -22.8079  -13.5388   21.0156 C   0  0  0  0  0  0  0  0  0  0  0  0
  -24.2921  -27.2377   16.6229 C   0  0  0  0  0  0  0  0  0  0  0  0
  -28.9390  -24.7736   24.3374 C   0  0  0  0  0  0  0  0  0  0  0  0
  -26.8274  -25.2751   16.1303 C   0  0  0  0  0  0  0  0  0  0  0  0
  -31.0460  -21.5431   23.6013 C   0  0  0  0  0  0  0  0  0  0  0  0
  -29.5672  -23.7019   17.4209 C   0  0  0  0  0  0  0  0  0  0  0  0
  -30.6759  -14.6793   20.7164 C   0  0  0  0  0  0  0  0  0  0  0  0
  -21.3646  -28.2008   12.5535 C   0  0  0  0  0  0  0  0  0  0  0  0
  -26.1834  -28.6123   17.5661 C   0  0  0  0  0  0  0  0  0  0  0  0
  -26.2703  -25.8181   18.5304 C   0  0  0  0  0  0  0  0  0  0  0  0
  -22.1875  -27.0149   13.0505 C   0  0  0  0  0  0  0  0  0  0  0  0
  -29.6515  -12.0737   18.5168 C   0  0  0  0  0  0  0  0  0  0  0  0
  -21.8705  -26.7207   14.5133 C   0  0  0  0  0  0  0  0  0  0  0  0
  -28.1871  -11.8364   18.8930 C   0  0  0  0  0  0  0  0  0  0  0  0
  -30.5057  -12.4004   19.7404 C   0  0  0  0  0  0  0  0  0  0  0  0
  -28.5399  -13.2653   20.9475 C   0  0  0  0  0  0  0  0  0  0  0  0
  -22.2298  -27.9143   15.4064 C   0  0  1  0  0  0  0  0  0  0  0  0
  -25.7798  -27.4421   16.6744 C   0  0  1  0  0  0  0  0  0  0  0  0
  -27.6277  -12.9966   19.7394 C   0  0  2  0  0  0  0  0  0  0  0  0
  -27.3375  -22.3788   23.2773 C   0  0  0  0  0  0  0  0  0  0  0  0
  -31.4207  -22.1344   16.7846 C   0  0  0  0  0  0  0  0  0  0  0  0
  -26.2100  -28.9824   24.9557 C   0  0  0  0  0  0  0  0  0  0  0  0
  -30.6735  -24.3401   22.5653 C   0  0  0  0  0  0  0  0  0  0  0  0
  -24.8711  -22.9348   16.2067 C   0  0  0  0  0  0  0  0  0  0  0  0
  -26.8253  -21.4020   16.5229 C   0  0  0  0  0  0  0  0  0  0  0  0
  -26.6342  -22.7634   14.4414 C   0  0  0  0  0  0  0  0  0  0  0  0
  -31.6432  -25.7125   18.0587 C   0  0  0  0  0  0  0  0  0  0  0  0
  -28.2272  -25.9294   23.6397 C   0  0  0  0  0  0  0  0  0  0  0  0
  -30.2985  -22.6303   24.3656 C   0  0  0  0  0  0  0  0  0  0  0  0
  -28.5046  -23.0443   22.5568 C   0  0  0  0  0  0  0  0  0  0  0  0
  -27.6108  -26.9125   24.6396 C   0  0  0  0  0  0  0  0  0  0  0  0
  -27.2286  -23.9039   16.6181 C   0  0  1  0  0  0  0  0  0  0  0  0
  -30.9944  -23.5882   16.9163 C   0  0  2  0  0  0  0  0  0  0  0  0
  -26.8543  -28.0459   23.9425 C   0  0  1  0  0  0  0  0  0  1  0  0
  -29.6057  -23.6783   23.4602 C   0  0  1  0  0  0  0  0  0  0  0  0
  -26.3852  -22.7725   15.9654 C   0  0  0  0  0  0  0  0  0  0  0  0
  -25.7884  -11.4834   20.3784 N   0  0  0  0  0  0  0  0  0  0  0  0
  -26.1905  -12.7463   20.1563 N   0  0  0  0  0  0  0  0  0  0  0  0
  -26.3705  -26.1733   17.1051 N   0  0  0  0  0  0  0  0  0  0  0  0
  -29.9168  -13.5115   20.4911 N   0  0  0  0  0  0  0  0  0  0  0  0
  -25.4451  -14.9947   20.1630 N   0  0  0  0  0  0  0  0  0  0  0  0
  -21.7663  -12.6739   21.3781 N   0  0  0  0  0  0  0  0  0  0  0  0
  -30.2625  -20.4141   23.4003 N   0  0  0  0  0  0  0  0  0  0  0  0
  -30.0003  -15.6807   21.4131 N   0  0  0  0  0  0  0  0  0  0  0  0
  -23.6583  -27.9641   15.6329 N   0  0  0  0  0  0  0  0  0  0  0  0
  -28.6640  -23.7907   16.3829 N   0  0  0  0  0  0  0  0  0  0  0  0
  -31.9312  -24.2696   17.8539 N   0  3  0  0  0  0  0  0  0  0  0  0
  -22.5872  -14.7719   20.9500 O   0  0  0  0  0  0  0  0  0  0  0  0
  -23.7589  -26.4761   17.4213 O   0  0  0  0  0  0  0  0  0  0  0  0
  -28.9848  -24.7213   25.5695 O   0  0  0  0  0  0  0  0  0  0  0  0
  -26.9230  -25.5417   14.9298 O   0  0  0  0  0  0  0  0  0  0  0  0
  -32.2031  -21.7245   23.2325 O   0  0  0  0  0  0  0  0  0  0  0  0
  -29.2818  -23.7073   18.6164 O   0  0  0  0  0  0  0  0  0  0  0  0
  -31.8304  -14.7940   20.2967 O   0  0  0  0  0  0  0  0  0  0  0  0
  -21.4054   -7.1461   21.9679 O   0  0  0  0  0  0  0  0  0  0  0  0
  -25.8365  -27.4885   23.1161 O   0  0  0  0  0  0  0  0  0  1  0  0
  -23.6245   -3.3400   25.2835 F   0  0  0  0  0  0  0  0  0  0  0  0
  -20.2219   -6.5049   24.3826 F   0  0  0  0  0  0  0  0  0  0  0  0
  -29.4375  -17.9877   22.6431 S   0  0  0  0  0  0  0  0  0  0  0  0
  1  2  1  0  0  0  0
  1  5  2  0  0  0  0
  2  6  2  0  0  0  0
  3  8  2  0  0  0  0
  3 17  1  0  0  0  0
  4  9  1  0  0  0  0
  4 17  2  0  0  0  0
  5 19  1  0  0  0  0
  6 21  1  0  0  0  0
  7 10  2  0  0  0  0
  7 20  1  0  0  0  0
  8 23  1  0  0  0  0
  9 23  2  0  0  0  0
 10 24  1  0  0  0  0
 11 12  2  0  0  0  0
 11 25  1  0  0  0  0
 12 26  1  0  0  0  0
 13 14  1  0  0  0  0
 13 30  2  0  0  0  0
 14 31  2  0  0  0  0
 15 22  1  0  0  0  0
 15 24  2  0  0  0  0
 16 26  2  0  0  0  0
 16 27  1  0  0  0  0
 17 28  1  0  0  0  0
 18 28  1  0  0  0  0
 18 29  2  0  0  0  0
 18 32  1  0  0  0  0
 19 21  2  0  0  0  0
 19 39  1  0  0  0  0
 20 22  2  0  0  0  0
 20 40  1  0  0  0  0
 21 48  1  0  0  0  0
 22 41  1  0  0  0  0
 23 86  1  0  0  0  0
 24 87  1  0  0  0  0
 25 27  2  0  0  0  0
 25 86  1  0  0  0  0
 26 88  1  0  0  0  0
 27 89  1  0  0  0  0
 28 68  2  0  0  0  0
 29 69  1  0  0  0  0
 29 72  1  0  0  0  0
 30 74  1  0  0  0  0
 30 90  1  0  0  0  0
 31 75  1  0  0  0  0
 31 90  1  0  0  0  0
 32 73  1  0  0  0  0
 32 79  2  0  0  0  0
 33 49  1  0  0  0  0
 33 76  1  0  0  0  0
 33 80  2  0  0  0  0
 34 59  1  0  0  0  0
 34 66  1  0  0  0  0
 34 81  2  0  0  0  0
 35 63  1  0  0  0  0
 35 70  1  0  0  0  0
 35 82  2  0  0  0  0
 36 60  1  0  0  0  0
 36 74  1  0  0  0  0
 36 83  2  0  0  0  0
 37 64  1  0  0  0  0
 37 77  1  0  0  0  0
 37 84  2  0  0  0  0
 38 71  1  0  0  0  0
 38 75  1  0  0  0  0
 38 85  2  0  0  0  0
 39 42  1  0  0  0  0
 40 49  1  0  0  0  0
 41 70  1  0  0  0  0
 42 44  1  0  0  0  0
 43 45  1  0  0  0  0
 43 46  1  0  0  0  0
 44 48  1  0  0  0  0
 45 50  1  0  0  0  0
 46 71  1  0  0  0  0
 47 50  1  0  0  0  0
 47 71  1  0  0  0  0
 48 76  1  0  0  0  0
 49 70  1  0  0  0  0
 50 69  1  0  0  0  0
 51 61  1  0  0  0  0
 52 64  1  0  0  0  0
 53 65  1  0  0  0  0
 54 66  1  0  0  0  0
 55 67  1  0  0  0  0
 56 67  1  0  0  0  0
 57 67  1  0  0  0  0
 58 78  1  0  0  0  0
 59 62  1  0  0  0  0
 60 66  1  0  0  0  0
 61 66  1  0  0  0  0
 62 65  1  0  0  0  0
 63 67  1  0  0  0  0
 63 77  1  0  0  0  0
 64 78  1  0  0  0  0
 65 87  1  0  0  0  0
 68 69  1  0  0  0  0
M  CHG  1  78   1
M  ISO  4  38 100  65 101  75 100  87 101
M  END
> <Batch ID>
0144

> <Smiles>
CCC(C)(CC(=O)Nc1ccc([100NH:0][100C:0](=O)N2CCCC(n3nc(-c4ccc(Oc5ccc(F)cc5F)cc4)c(C(N)=O)c3N)C2)s1)C(=O)CC[101CH:1](C)[101O:1]c1ccc2c(c1)CN(C(=O)C(NC(=O)C(C)NC)C(C)(C)C)C(C(=O)NC1CCCc3ccccc31)C2

> <Shape>
0.240

> <Color>
0.215

> <Negative vol penalty>
0.000

$$$$

  -OEChem-04052303043D

 86 94  0     1  0  0  0  0  0999 V2000
  -25.2875  -35.4389   22.4695 C   0  0  0  0  0  0  0  0  0  0  0  0
  -25.9652  -34.2349   22.3066 C   0  0  0  0  0  0  0  0  0  0  0  0
  -23.7546  -12.2395   19.8949 C   0  0  0  0  0  0  0  0  0  0  0  0
  -25.5352  -13.5498   20.8693 C   0  0  0  0  0  0  0  0  0  0  0  0
  -24.0209  -35.4513   23.0521 C   0  0  0  0  0  0  0  0  0  0  0  0
  -25.3771  -33.0426   22.7273 C   0  0  0  0  0  0  0  0  0  0  0  0
  -25.8623  -29.3285   19.3192 C   0  0  0  0  0  0  0  0  0  0  0  0
  -24.4794  -11.0730   20.1388 C   0  0  0  0  0  0  0  0  0  0  0  0
  -26.2600  -12.3832   21.1133 C   0  0  0  0  0  0  0  0  0  0  0  0
  -27.0976  -28.6860   19.2492 C   0  0  0  0  0  0  0  0  0  0  0  0
  -28.7368   -9.7815   21.6666 C   0  0  0  0  0  0  0  0  0  0  0  0
  -30.0952   -9.7840   21.3497 C   0  0  0  0  0  0  0  0  0  0  0  0
  -26.2174  -26.8638   20.5623 C   0  0  0  0  0  0  0  0  0  0  0  0
  -27.6030  -20.8259   17.8778 C   0  0  0  0  0  0  0  0  0  0  0  0
  -27.1829  -21.2015   15.5285 C   0  0  0  0  0  0  0  0  0  0  0  0
  -29.2013  -22.0544   16.5462 C   0  0  0  0  0  0  0  0  0  0  0  0
  -29.5553  -10.2412   19.0396 C   0  0  0  0  0  0  0  0  0  0  0  0
  -24.2825  -13.4779   20.2601 C   0  0  0  0  0  0  0  0  0  0  0  0
  -22.6079  -15.3042   20.8667 C   0  0  0  0  0  0  0  0  0  0  0  0
  -23.4129  -34.2575   23.4713 C   0  0  0  0  0  0  0  0  0  0  0  0
  -24.7967  -28.7477   20.0217 C   0  0  0  0  0  0  0  0  0  0  0  0
  -24.1017  -33.0392   23.3173 C   0  0  0  0  0  0  0  0  0  0  0  0
  -24.9689  -27.4998   20.6375 C   0  0  0  0  0  0  0  0  0  0  0  0
  -26.7902  -20.6669   16.7555 C   0  0  0  0  0  0  0  0  0  0  0  0
  -28.8085  -21.5197   17.7732 C   0  0  0  0  0  0  0  0  0  0  0  0
  -25.7321  -11.1448   20.7480 C   0  0  0  0  0  0  0  0  0  0  0  0
  -27.2762  -27.4548   19.8732 C   0  0  0  0  0  0  0  0  0  0  0  0
  -27.7877  -10.0088   20.6700 C   0  0  0  0  0  0  0  0  0  0  0  0
  -30.5045  -10.0139   20.0362 C   0  0  0  0  0  0  0  0  0  0  0  0
  -28.3885  -21.8953   15.4239 C   0  0  0  0  0  0  0  0  0  0  0  0
  -28.1970  -10.2387   19.3565 C   0  0  0  0  0  0  0  0  0  0  0  0
  -23.5345  -14.6833   20.0078 C   0  0  0  0  0  0  0  0  0  0  0  0
  -22.1790  -16.4071   20.1695 C   0  0  0  0  0  0  0  0  0  0  0  0
  -22.1737  -14.9185   22.1776 C   0  0  0  0  0  0  0  0  0  0  0  0
  -23.0585  -29.5786   22.5500 C   0  0  0  0  0  0  0  0  0  0  0  0
  -29.9918  -25.0008   20.3144 C   0  0  0  0  0  0  0  0  0  0  0  0
  -21.3581  -26.9306   21.7631 C   0  0  0  0  0  0  0  0  0  0  0  0
  -21.2821  -23.8906   20.2142 C   0  0  0  0  0  0  0  0  0  0  0  0
  -24.6422  -19.7153   15.8459 C   0  0  0  0  0  0  0  0  0  0  0  0
  -22.0622  -34.3263   24.1388 C   0  0  0  0  0  0  0  0  0  0  0  0
  -23.4625  -29.4410   20.0653 C   0  0  0  0  0  0  0  0  0  0  0  0
  -23.8506  -26.8242   21.3870 C   0  0  0  0  0  0  0  0  0  0  0  0
  -21.3515  -32.9775   24.2160 C   0  0  0  0  0  0  0  0  0  0  0  0
  -21.5307  -17.9910   15.6968 C   0  0  0  0  0  0  0  0  0  0  0  0
  -22.3097  -31.8965   24.7061 C   0  0  0  0  0  0  0  0  0  0  0  0
  -21.6046  -17.0078   16.8673 C   0  0  0  0  0  0  0  0  0  0  0  0
  -22.8870  -18.1647   15.0155 C   0  0  0  0  0  0  0  0  0  0  0  0
  -24.0664  -17.5363   17.0851 C   0  0  0  0  0  0  0  0  0  0  0  0
  -23.4864  -31.7223   23.7384 C   0  0  1  0  0  0  0  0  0  0  0  0
  -22.5980  -28.9996   21.2422 C   0  0  1  0  0  0  0  0  0  0  0  0
  -22.7384  -17.3780   17.8435 C   0  0  2  0  0  0  0  0  0  0  0  0
  -19.7638  -21.9418   19.7732 C   0  0  0  0  0  0  0  0  0  0  0  0
  -31.9339  -21.4668   18.2465 C   0  0  0  0  0  0  0  0  0  0  0  0
  -21.7518  -25.9772   24.6347 C   0  0  0  0  0  0  0  0  0  0  0  0
  -21.0755  -23.6838   23.8923 C   0  0  0  0  0  0  0  0  0  0  0  0
  -19.4635  -25.5786   23.7076 C   0  0  0  0  0  0  0  0  0  0  0  0
  -21.4447  -24.2780   17.2846 C   0  0  0  0  0  0  0  0  0  0  0  0
  -30.2404  -23.6641   20.9960 C   0  0  0  0  0  0  0  0  0  0  0  0
  -28.5938  -25.5668   20.4692 C   0  0  0  0  0  0  0  0  0  1  0  0
  -31.2832  -22.7942   20.2888 C   0  0  0  0  0  0  0  0  0  0  0  0
  -21.4314  -25.4666   22.1242 C   0  0  1  0  0  0  0  0  0  0  0  0
  -20.2811  -23.2742   19.2537 C   0  0  2  0  0  0  0  0  0  0  0  0
  -30.8806  -22.3813   18.8641 C   0  0  2  0  0  0  0  0  0  0  0  0
  -20.9524  -25.1900   23.5773 C   0  0  0  0  0  0  0  0  0  0  0  0
  -23.6858  -15.3374   18.8531 N   0  0  0  0  0  0  0  0  0  0  0  0
  -22.8485  -16.3807   18.9815 N   0  0  0  0  0  0  0  0  0  0  0  0
  -22.5670  -27.5449   21.4065 N   0  0  0  0  0  0  0  0  0  0  0  0
  -23.9108  -18.5188   16.0010 N   0  0  0  0  0  0  0  0  0  0  0  0
  -21.2983  -17.3873   20.4628 N   0  0  0  0  0  0  0  0  0  0  0  0
  -22.7156  -13.7578   22.7463 N   0  0  0  0  0  0  0  0  0  0  0  0
  -25.5651  -19.9627   16.8616 N   0  0  0  0  0  0  0  0  0  0  0  0
  -29.6148  -21.6777   18.8860 N   0  0  0  0  0  0  0  0  0  0  0  0
  -23.0779  -30.9600   22.5780 N   0  0  0  0  0  0  0  0  0  0  0  0
  -20.6744  -24.7552   21.0999 N   0  0  0  0  0  0  0  0  0  0  0  0
  -20.9124  -23.0467   17.9231 N   0  3  0  0  0  0  0  0  0  0  0  0
  -21.3181  -15.5745   22.8187 O   0  0  0  0  0  0  0  0  0  0  0  0
  -23.3716  -28.8276   23.4663 O   0  0  0  0  0  0  0  0  0  0  0  0
  -30.8696  -25.6044   19.6997 O   0  0  0  0  0  0  0  0  0  0  0  0
  -20.2674  -27.5061   21.7894 O   0  0  0  0  0  0  0  0  0  0  0  0
  -22.4824  -23.6282   20.1844 O   0  0  0  0  0  0  0  0  0  0  0  0
  -24.4440  -20.4788   14.8973 O   0  0  0  0  0  0  0  0  0  0  0  0
  -26.4395  -10.0068   20.9864 O   0  0  0  0  0  0  0  0  0  0  0  0
  -28.4811  -26.8258   19.8070 O   0  0  0  0  0  0  0  0  0  1  0  0
  -31.8090  -10.0178   19.7323 F   0  0  0  0  0  0  0  0  0  0  0  0
  -28.7657  -22.4094   14.2458 F   0  0  0  0  0  0  0  0  0  0  0  0
  -27.2898  -10.4589   18.3950 F   0  0  0  0  0  0  0  0  0  0  0  0
  1  2  1  0  0  0  0
  1  5  2  0  0  0  0
  2  6  2  0  0  0  0
  3  8  2  0  0  0  0
  3 18  1  0  0  0  0
  4  9  1  0  0  0  0
  4 18  2  0  0  0  0
  5 20  1  0  0  0  0
  6 22  1  0  0  0  0
  7 10  2  0  0  0  0
  7 21  1  0  0  0  0
  8 26  1  0  0  0  0
  9 26  2  0  0  0  0
 10 27  1  0  0  0  0
 11 12  2  0  0  0  0
 11 28  1  0  0  0  0
 12 29  1  0  0  0  0
 13 23  1  0  0  0  0
 13 27  2  0  0  0  0
 14 24  1  0  0  0  0
 14 25  2  0  0  0  0
 15 24  2  0  0  0  0
 15 30  1  0  0  0  0
 16 25  1  0  0  0  0
 16 30  2  0  0  0  0
 17 29  2  0  0  0  0
 17 31  1  0  0  0  0
 18 32  1  0  0  0  0
 19 32  1  0  0  0  0
 19 33  2  0  0  0  0
 19 34  1  0  0  0  0
 20 22  2  0  0  0  0
 20 40  1  0  0  0  0
 21 23  2  0  0  0  0
 21 41  1  0  0  0  0
 22 49  1  0  0  0  0
 23 42  1  0  0  0  0
 24 71  1  0  0  0  0
 25 72  1  0  0  0  0
 26 82  1  0  0  0  0
 27 83  1  0  0  0  0
 28 31  2  0  0  0  0
 28 82  1  0  0  0  0
 29 84  1  0  0  0  0
 30 85  1  0  0  0  0
 31 86  1  0  0  0  0
 32 65  2  0  0  0  0
 33 66  1  0  0  0  0
 33 69  1  0  0  0  0
 34 70  1  0  0  0  0
 34 76  2  0  0  0  0
 35 50  1  0  0  0  0
 35 73  1  0  0  0  0
 35 77  2  0  0  0  0
 36 58  1  0  0  0  0
 36 59  1  0  0  0  0
 36 78  2  0  0  0  0
 37 61  1  0  0  0  0
 37 67  1  0  0  0  0
 37 79  2  0  0  0  0
 38 62  1  0  0  0  0
 38 74  1  0  0  0  0
 38 80  2  0  0  0  0
 39 68  1  0  0  0  0
 39 71  1  0  0  0  0
 39 81  2  0  0  0  0
 40 43  1  0  0  0  0
 41 50  1  0  0  0  0
 42 67  1  0  0  0  0
 43 45  1  0  0  0  0
 44 46  1  0  0  0  0
 44 47  1  0  0  0  0
 45 49  1  0  0  0  0
 46 51  1  0  0  0  0
 47 68  1  0  0  0  0
 48 51  1  0  0  0  0
 48 68  1  0  0  0  0
 49 73  1  0  0  0  0
 50 67  1  0  0  0  0
 51 66  1  0  0  0  0
 52 62  1  0  0  0  0
 53 63  1  0  0  0  0
 54 64  1  0  0  0  0
 55 64  1  0  0  0  0
 56 64  1  0  0  0  0
 57 75  1  0  0  0  0
 58 60  1  0  0  0  0
 59 83  1  0  0  0  0
 60 63  1  0  0  0  0
 61 64  1  0  0  0  0
 61 74  1  0  0  0  0
 62 75  1  0  0  0  0
 63 72  1  0  0  0  0
 65 66  1  0  0  0  0
M  CHG  1  75   1
M  ISO  4  39 100  59 101  71 100  83 101
M  END
> <Batch ID>
0144

> <Smiles>
CNC(C)C(=O)NC(C(=O)N1Cc2cc([101O:1][101CH2:1]C(=O)CCC(C)Nc3cc(F)cc([100NH:0][100C:0](=O)N4CCCC(n5nc(-c6ccc(Oc7ccc(F)cc7F)cc6)c(C(N)=O)c5N)C4)c3)ccc2CC1C(=O)NC1CCCc2ccccc21)C(C)(C)C

> <Shape>
0.187

> <Color>
0.093

> <Negative vol penalty>
0.000

$$$$

  -OEChem-04052303043D

 94102  0     1  0  0  0  0  0999 V2000
  -20.1883  -22.4723   21.7645 C   0  0  0  0  0  0  0  0  0  0  0  0
  -20.7138  -23.4787   20.9606 C   0  0  0  0  0  0  0  0  0  0  0  0
  -26.6880  -12.8304   21.8669 C   0  0  0  0  0  0  0  0  0  0  0  0
  -25.9846  -14.3520   20.1271 C   0  0  0  0  0  0  0  0  0  0  0  0
  -20.2350  -22.5947   23.1526 C   0  0  0  0  0  0  0  0  0  0  0  0
  -21.2853  -24.6088   21.5443 C   0  0  0  0  0  0  0  0  0  0  0  0
  -25.6738  -25.9066   19.3758 C   0  0  0  0  0  0  0  0  0  0  0  0
  -30.4063  -24.2715   20.6841 C   0  0  0  0  0  0  0  0  0  0  0  0
  -30.4492  -23.0459   21.3486 C   0  0  0  0  0  0  0  0  0  0  0  0
  -25.4082  -12.2769   21.9003 C   0  0  0  0  0  0  0  0  0  0  0  0
  -24.7047  -13.7985   20.1605 C   0  0  0  0  0  0  0  0  0  0  0  0
  -25.6071  -26.5791   18.1564 C   0  0  0  0  0  0  0  0  0  0  0  0
  -22.4249  -10.2200   22.1910 C   0  0  0  0  0  0  0  0  0  0  0  0
  -22.3205   -8.8297   22.2314 C   0  0  0  0  0  0  0  0  0  0  0  0
  -25.9770  -28.6721   19.2973 C   0  0  0  0  0  0  0  0  0  0  0  0
  -29.0916  -23.2702   18.9218 C   0  0  0  0  0  0  0  0  0  0  0  0
  -23.4942   -8.6803   20.1250 C   0  0  0  0  0  0  0  0  0  0  0  0
  -26.9763  -13.8680   20.9803 C   0  0  0  0  0  0  0  0  0  0  0  0
  -29.3821  -14.0291   20.1473 C   0  0  0  0  0  0  0  0  0  0  0  0
  -20.8161  -23.7223   23.7537 C   0  0  0  0  0  0  0  0  0  0  0  0
  -25.8821  -26.6142   20.5684 C   0  0  0  0  0  0  0  0  0  0  0  0
  -21.3386  -24.7470   22.9417 C   0  0  0  0  0  0  0  0  0  0  0  0
  -26.0485  -28.0059   20.5303 C   0  0  0  0  0  0  0  0  0  0  0  0
  -29.7275  -24.3837   19.4708 C   0  0  0  0  0  0  0  0  0  0  0  0
  -29.1346  -22.0445   19.5862 C   0  0  0  0  0  0  0  0  0  0  0  0
  -29.8134  -21.9323   20.7996 C   0  0  0  0  0  0  0  0  0  0  0  0
  -24.4165  -12.7609   21.0471 C   0  0  0  0  0  0  0  0  0  0  0  0
  -25.7558  -27.9624   18.1173 C   0  0  0  0  0  0  0  0  0  0  0  0
  -23.0640  -10.8405   21.1176 C   0  0  0  0  0  0  0  0  0  0  0  0
  -22.8551   -8.0598   21.1984 C   0  0  0  0  0  0  0  0  0  0  0  0
  -23.5986  -10.0707   20.0846 C   0  0  0  0  0  0  0  0  0  0  0  0
  -28.2981  -14.4405   20.9457 C   0  0  0  0  0  0  0  0  0  0  0  0
  -30.4011  -14.8863   20.4838 C   0  0  0  0  0  0  0  0  0  0  0  0
  -29.4608  -12.9671   19.1873 C   0  0  0  0  0  0  0  0  0  0  0  0
  -24.2163  -27.0453   23.2411 C   0  0  0  0  0  0  0  0  0  0  0  0
  -26.9117  -28.5653   24.2141 C   0  0  0  0  0  0  0  0  0  0  0  0
  -29.7659  -30.2316   23.3632 C   0  0  0  0  0  0  0  0  0  0  0  0
  -29.2174  -27.5258   16.2928 C   0  0  0  0  0  0  0  0  0  0  0  0
  -30.5045  -20.4334   22.7027 C   0  0  0  0  0  0  0  0  0  0  0  0
  -20.8010  -23.8320   25.2579 C   0  0  0  0  0  0  0  0  0  0  0  0
  -25.9782  -25.8710   21.8726 C   0  0  0  0  0  0  0  0  0  0  0  0
  -26.2944  -28.8097   21.7800 C   0  0  0  0  0  0  0  0  0  0  0  0
  -21.7603  -24.8877   25.8013 C   0  0  0  0  0  0  0  0  0  0  0  0
  -32.0117  -17.5406   24.1300 C   0  0  0  0  0  0  0  0  0  0  0  0
  -21.6268  -26.1868   25.0129 C   0  0  0  0  0  0  0  0  0  0  0  0
  -31.3335  -16.3800   23.3984 C   0  0  0  0  0  0  0  0  0  0  0  0
  -31.0411  -18.6910   24.3912 C   0  0  0  0  0  0  0  0  0  0  0  0
  -29.6464  -18.0194   22.4748 C   0  0  0  0  0  0  0  0  0  0  0  0
  -21.9891  -25.9765   23.5378 C   0  0  1  0  0  0  0  0  0  0  0  0
  -25.6810  -26.7493   23.0841 C   0  0  1  0  0  0  0  0  0  0  0  0
  -30.6005  -16.8637   22.1318 C   0  0  2  0  0  0  0  0  0  0  0  0
  -29.4280  -19.9074   18.3082 C   0  0  0  0  0  0  0  0  0  0  0  0
  -31.7495  -31.3865   24.3775 C   0  0  0  0  0  0  0  0  0  0  0  0
  -30.5386  -28.6014   18.1082 C   0  0  0  0  0  0  0  0  0  0  0  0
  -31.7112  -27.8939   16.0633 C   0  0  0  0  0  0  0  0  0  0  0  0
  -25.1598  -30.9678   24.8986 C   0  0  0  0  0  0  0  0  0  0  0  0
  -27.2344  -32.3663   24.9905 C   0  0  0  0  0  0  0  0  0  0  0  0
  -26.9430  -30.4646   26.5784 C   0  0  0  0  0  0  0  0  0  0  0  0
  -32.1953  -26.0069   18.4507 C   0  0  0  0  0  0  0  0  0  0  0  0
  -30.8852  -24.8946   16.6622 C   0  0  0  0  0  0  0  0  0  0  0  0
  -25.6163  -30.2080   14.4607 C   0  0  0  0  0  0  0  0  0  0  0  0
  -27.6640  -31.3971   15.2922 C   0  0  0  0  0  0  0  0  0  0  0  0
  -31.6601  -28.3466   22.0912 C   0  0  0  0  0  0  0  0  0  0  0  0
  -29.6830  -25.7143   18.7481 C   0  0  0  0  0  0  0  0  0  0  0  0
  -28.4470  -20.8676   18.9733 C   0  0  0  0  0  0  0  0  0  0  0  0
  -27.7485  -28.8992   14.8504 C   0  0  0  0  0  0  0  0  0  0  0  0
  -26.4523  -29.8211   16.8074 C   0  0  0  0  0  0  0  0  0  1  0  0
  -27.4241  -29.9836   24.1434 C   0  0  1  0  0  0  0  0  0  0  0  0
  -31.2010  -30.0767   23.8333 C   0  0  2  0  0  0  0  0  0  0  0  0
  -30.5830  -27.4708   17.0394 C   0  0  0  0  0  0  0  0  0  0  0  0
  -26.6838  -30.9310   25.1292 C   0  0  0  0  0  0  0  0  0  0  0  0
  -30.8291  -26.0294   17.7162 C   0  0  0  0  0  0  0  0  0  0  0  0
  -26.8733  -30.0769   15.3417 C   0  0  0  0  0  0  0  0  0  0  0  0
  -28.6003  -15.4783   21.7304 N   0  0  0  0  0  0  0  0  0  0  0  0
  -29.8858  -15.7261   21.4268 N   0  0  0  0  0  0  0  0  0  0  0  0
  -26.3739  -28.0382   23.0314 N   0  0  0  0  0  0  0  0  0  0  0  0
  -30.3873  -19.0990   23.1459 N   0  0  0  0  0  0  0  0  0  0  0  0
  -31.6789  -14.9959   20.0621 N   0  0  0  0  0  0  0  0  0  0  0  0
  -28.3209  -12.1830   18.9634 N   0  0  0  0  0  0  0  0  0  0  0  0
  -29.8685  -20.6961   21.4898 N   0  0  0  0  0  0  0  0  0  0  0  0
  -23.4258  -25.9197   23.3733 N   0  0  0  0  0  0  0  0  0  0  0  0
  -28.9554  -28.7075   15.6200 N   0  0  0  0  0  0  0  0  0  0  0  0
  -28.8654  -29.9080   24.3560 N   0  0  0  0  0  0  0  0  0  0  0  0
  -32.0704  -29.6351   22.7064 N   0  3  0  0  0  0  0  0  0  0  0  0
  -30.5156  -12.7103   18.5589 O   0  0  0  0  0  0  0  0  0  0  0  0
  -23.8320  -28.2089   23.2436 O   0  0  0  0  0  0  0  0  0  0  0  0
  -26.9925  -27.9455   25.2775 O   0  0  0  0  0  0  0  0  0  0  0  0
  -29.4730  -30.6061   22.2298 O   0  0  0  0  0  0  0  0  0  0  0  0
  -28.4442  -26.5652   16.2803 O   0  0  0  0  0  0  0  0  0  0  0  0
  -31.1465  -21.2741   23.3377 O   0  0  0  0  0  0  0  0  0  0  0  0
  -23.1675  -12.2209   21.0793 O   0  0  0  0  0  0  0  0  0  0  0  0
  -25.6900  -28.6259   16.9202 O   0  0  0  0  0  0  0  0  0  1  0  0
  -22.7561   -6.7246   21.2381 F   0  0  0  0  0  0  0  0  0  0  0  0
  -24.2147  -10.6611   19.0513 F   0  0  0  0  0  0  0  0  0  0  0  0
  1  2  1  0  0  0  0
  1  5  2  0  0  0  0
  2  6  2  0  0  0  0
  3 10  2  0  0  0  0
  3 18  1  0  0  0  0
  4 11  1  0  0  0  0
  4 18  2  0  0  0  0
  5 20  1  0  0  0  0
  6 22  1  0  0  0  0
  7 12  2  0  0  0  0
  7 21  1  0  0  0  0
  8  9  2  0  0  0  0
  8 24  1  0  0  0  0
  9 26  1  0  0  0  0
 10 27  1  0  0  0  0
 11 27  2  0  0  0  0
 12 28  1  0  0  0  0
 13 14  2  0  0  0  0
 13 29  1  0  0  0  0
 14 30  1  0  0  0  0
 15 23  1  0  0  0  0
 15 28  2  0  0  0  0
 16 24  2  0  0  0  0
 16 25  1  0  0  0  0
 17 30  2  0  0  0  0
 17 31  1  0  0  0  0
 18 32  1  0  0  0  0
 19 32  1  0  0  0  0
 19 33  2  0  0  0  0
 19 34  1  0  0  0  0
 20 22  2  0  0  0  0
 20 40  1  0  0  0  0
 21 23  2  0  0  0  0
 21 41  1  0  0  0  0
 22 49  1  0  0  0  0
 23 42  1  0  0  0  0
 24 64  1  0  0  0  0
 25 26  2  0  0  0  0
 25 65  1  0  0  0  0
 26 80  1  0  0  0  0
 27 91  1  0  0  0  0
 28 92  1  0  0  0  0
 29 31  2  0  0  0  0
 29 91  1  0  0  0  0
 30 93  1  0  0  0  0
 31 94  1  0  0  0  0
 32 74  2  0  0  0  0
 33 75  1  0  0  0  0
 33 78  1  0  0  0  0
 34 79  1  0  0  0  0
 34 85  2  0  0  0  0
 35 50  1  0  0  0  0
 35 81  1  0  0  0  0
 35 86  2  0  0  0  0
 36 68  1  0  0  0  0
 36 76  1  0  0  0  0
 36 87  2  0  0  0  0
 37 69  1  0  0  0  0
 37 83  1  0  0  0  0
 37 88  2  0  0  0  0
 38 70  1  0  0  0  0
 38 82  1  0  0  0  0
 38 89  2  0  0  0  0
 39 77  1  0  0  0  0
 39 80  1  0  0  0  0
 39 90  2  0  0  0  0
 40 43  1  0  0  0  0
 41 50  1  0  0  0  0
 42 76  1  0  0  0  0
 43 45  1  0  0  0  0
 44 46  1  0  0  0  0
 44 47  1  0  0  0  0
 45 49  1  0  0  0  0
 46 51  1  0  0  0  0
 47 77  1  0  0  0  0
 48 51  1  0  0  0  0
 48 77  1  0  0  0  0
 49 81  1  0  0  0  0
 50 76  1  0  0  0  0
 51 75  1  0  0  0  0
 52 65  1  0  0  0  0
 53 69  1  0  0  0  0
 54 70  1  0  0  0  0
 55 70  1  0  0  0  0
 56 71  1  0  0  0  0
 57 71  1  0  0  0  0
 58 71  1  0  0  0  0
 59 72  1  0  0  0  0
 60 72  1  0  0  0  0
 61 73  1  0  0  0  0
 62 73  1  0  0  0  0
 63 84  1  0  0  0  0
 64 72  1  0  0  0  0
 66 73  1  0  0  0  0
 66 82  1  0  0  0  0
 67 73  1  0  0  0  0
 67 92  1  0  0  0  0
 68 71  1  0  0  0  0
 68 83  1  0  0  0  0
 69 84  1  0  0  0  0
 70 72  1  0  0  0  0
 74 75  1  0  0  0  0
M  CHG  1  84   1
M  ISO  4  39 100  67 101  80 100  92 101
M  END
> <Batch ID>
0144

> <Smiles>
CCc1cc(CC(C)(C)C(C)(C)C(=O)NCC(C)(C)[101CH2:1][101O:1]c2ccc3c(c2)CN(C(=O)C(NC(=O)C(C)NC)C(C)(C)C)C(C(=O)NC2CCCc4ccccc42)C3)ccc1[100NH:0][100C:0](=O)N1CCCC(n2nc(-c3ccc(Oc4ccc(F)cc4F)cc3)c(C(N)=O)c2N)C1

> <Shape>
0.258

> <Color>
0.072

> <Negative vol penalty>
0.000

$$$$

  -OEChem-04052303043D

 91100  0     1  0  0  0  0  0999 V2000
  -26.4234  -38.9355   25.9032 C   0  0  0  0  0  0  0  0  0  0  0  0
  -27.4430  -37.9936   25.8105 C   0  0  0  0  0  0  0  0  0  0  0  0
  -23.7381   -9.6959   21.7098 C   0  0  0  0  0  0  0  0  0  0  0  0
  -24.3722  -10.9066   23.7021 C   0  0  0  0  0  0  0  0  0  0  0  0
  -28.3092  -20.2290   19.2137 C   0  0  0  0  0  0  0  0  0  0  0  0
  -30.0290  -19.5589   17.6548 C   0  0  0  0  0  0  0  0  0  0  0  0
  -25.1004  -38.5177   26.0415 C   0  0  0  0  0  0  0  0  0  0  0  0
  -27.1403  -36.6332   25.8573 C   0  0  0  0  0  0  0  0  0  0  0  0
  -28.9232  -32.2488   20.4269 C   0  0  0  0  0  0  0  0  0  0  0  0
  -28.4091  -18.9942   19.8547 C   0  0  0  0  0  0  0  0  0  0  0  0
  -30.1290  -18.3241   18.2959 C   0  0  0  0  0  0  0  0  0  0  0  0
  -23.2170   -8.6705   22.4987 C   0  0  0  0  0  0  0  0  0  0  0  0
  -23.8510   -9.8811   24.4911 C   0  0  0  0  0  0  0  0  0  0  0  0
  -29.4178  -31.3080   19.5233 C   0  0  0  0  0  0  0  0  0  0  0  0
  -20.4091   -8.0874   24.2900 C   0  0  0  0  0  0  0  0  0  0  0  0
  -19.1598   -7.5734   23.9427 C   0  0  0  0  0  0  0  0  0  0  0  0
  -28.3061  -29.5387   20.7406 C   0  0  0  0  0  0  0  0  0  0  0  0
  -20.1426   -5.3867   23.6433 C   0  0  0  0  0  0  0  0  0  0  0  0
  -24.3158  -10.8139   22.3115 C   0  0  0  0  0  0  0  0  0  0  0  0
  -29.1191  -20.5113   18.1136 C   0  0  0  0  0  0  0  0  0  0  0  0
  -24.1746  -13.0108   21.0225 C   0  0  0  0  0  0  0  0  0  0  0  0
  -24.7804  -37.1514   26.0803 C   0  0  0  0  0  0  0  0  0  0  0  0
  -28.1046  -31.8394   21.4832 C   0  0  0  0  0  0  0  0  0  0  0  0
  -25.8120  -36.1968   25.9976 C   0  0  0  0  0  0  0  0  0  0  0  0
  -27.7976  -30.4780   21.6416 C   0  0  0  0  0  0  0  0  0  0  0  0
  -29.3190  -18.0418   19.3959 C   0  0  0  0  0  0  0  0  0  0  0  0
  -23.2734   -8.7631   23.8894 C   0  0  0  0  0  0  0  0  0  0  0  0
  -29.1102  -29.9563   19.6800 C   0  0  0  0  0  0  0  0  0  0  0  0
  -21.5252   -7.2511   24.3138 C   0  0  0  0  0  0  0  0  0  0  0  0
  -19.0265   -6.2231   23.6194 C   0  0  0  0  0  0  0  0  0  0  0  0
  -21.3920   -5.9008   23.9905 C   0  0  0  0  0  0  0  0  0  0  0  0
  -24.8548  -11.8733   21.4970 C   0  0  0  0  0  0  0  0  0  0  0  0
  -25.1197  -13.7009   20.3034 C   0  0  0  0  0  0  0  0  0  0  0  0
  -29.0135  -21.8159   17.4361 C   0  0  0  0  0  0  0  0  0  0  0  0
  -22.8105  -13.4082   21.2146 C   0  0  0  0  0  0  0  0  0  0  0  0
  -26.0865  -32.8370   24.4845 C   0  0  0  0  0  0  0  0  0  0  0  0
  -29.0012  -27.3741   17.1428 C   0  0  0  0  0  0  0  0  0  0  0  0
  -24.4799  -30.6816   23.0068 C   0  0  0  0  0  0  0  0  0  0  0  0
  -22.8416  -28.5957   20.8616 C   0  0  0  0  0  0  0  0  0  0  0  0
  -30.2711  -15.7320   19.7193 C   0  0  0  0  0  0  0  0  0  0  0  0
  -23.3406  -36.7484   26.2785 C   0  0  0  0  0  0  0  0  0  0  0  0
  -27.5999  -32.8103   22.5159 C   0  0  0  0  0  0  0  0  0  0  0  0
  -26.9417  -30.0794   22.8127 C   0  0  0  0  0  0  0  0  0  0  0  0
  -23.0661  -35.2848   25.9431 C   0  0  0  0  0  0  0  0  0  0  0  0
  -29.7525  -12.3344   18.7893 C   0  0  0  0  0  0  0  0  0  0  0  0
  -31.1746  -24.1444   19.1738 C   0  0  0  0  0  0  0  0  0  0  0  0
  -24.1273  -34.3855   26.5692 C   0  0  0  0  0  0  0  0  0  0  0  0
  -28.3761  -12.0052   19.3718 C   0  0  0  0  0  0  0  0  0  0  0  0
  -31.0520  -24.7793   17.7926 C   0  0  0  0  0  0  0  0  0  0  0  0
  -30.7322  -22.7038   18.9506 C   0  0  0  0  0  0  0  0  0  0  0  0
  -30.5486  -13.2626   19.7050 C   0  0  0  0  0  0  0  0  0  0  0  0
  -28.4746  -14.1636   20.6828 C   0  0  0  0  0  0  0  0  0  0  0  0
  -25.5211  -34.7118   26.0195 C   0  0  1  0  0  0  0  0  0  0  0  0
  -26.1937  -32.4617   23.0357 C   0  0  1  0  0  0  0  0  0  0  0  0
  -27.6102  -13.2835   19.7652 C   0  0  2  0  0  0  0  0  0  0  0  0
  -29.7833  -24.1543   17.2046 C   0  0  2  0  0  0  0  0  0  0  0  0
  -20.6858  -27.3385   20.5980 C   0  0  0  0  0  0  0  0  0  0  0  0
  -26.6928  -26.4461   16.7844 C   0  0  0  0  0  0  0  0  0  0  0  0
  -28.5165  -25.8272   15.2120 C   0  0  0  0  0  0  0  0  0  0  0  0
  -25.4466  -28.6083   25.0244 C   0  0  0  0  0  0  0  0  0  0  0  0
  -23.8091  -26.9905   24.0398 C   0  0  0  0  0  0  0  0  0  0  0  0
  -22.9940  -29.0884   25.1153 C   0  0  0  0  0  0  0  0  0  0  0  0
  -22.1468  -30.0739   18.3935 C   0  0  0  0  0  0  0  0  0  0  0  0
  -28.8002  -27.8790   18.5636 C   0  0  0  0  0  0  0  0  0  1  0  0
  -28.5173  -24.9104   17.5792 C   0  0  0  0  0  0  0  0  0  0  0  0
  -24.1549  -29.2154   22.8730 C   0  0  1  0  0  0  0  0  0  0  0  0
  -21.4307  -28.6311   20.3025 C   0  0  2  0  0  0  0  0  0  0  0  0
  -28.1971  -26.1346   16.6882 C   0  0  0  0  0  0  0  0  0  0  0  0
  -24.1208  -28.4881   24.2468 C   0  0  0  0  0  0  0  0  0  0  0  0
  -26.1332  -11.8388   21.1117 N   0  0  0  0  0  0  0  0  0  0  0  0
  -26.2639  -12.9633   20.3874 N   0  0  0  0  0  0  0  0  0  0  0  0
  -29.7713  -22.8206   17.8402 N   0  0  0  0  0  0  0  0  0  0  0  0
  -25.8344  -31.0347   22.9739 N   0  0  0  0  0  0  0  0  0  0  0  0
  -29.7618  -14.4538   20.0319 N   0  0  0  0  0  0  0  0  0  0  0  0
  -25.0754  -14.8605   19.6137 N   0  0  0  0  0  0  0  0  0  0  0  0
  -21.9758  -12.5832   21.9807 N   0  0  0  0  0  0  0  0  0  0  0  0
  -29.4207  -16.7874   20.0470 N   0  0  0  0  0  0  0  0  0  0  0  0
  -25.6898  -34.1431   24.6995 N   0  0  0  0  0  0  0  0  0  0  0  0
  -22.9037  -29.1412   22.1264 N   0  0  0  0  0  0  0  0  0  0  0  0
  -28.1588  -21.9612   16.4278 N   0  3  0  0  0  0  0  0  0  0  0  0
  -21.4635  -28.8275   18.8256 N   0  3  0  0  0  0  0  0  0  0  0  0
  -22.3412  -14.4554   20.7079 O   0  0  0  0  0  0  0  0  0  0  0  0
  -26.3431  -32.0033   25.3452 O   0  0  0  0  0  0  0  0  0  0  0  0
  -29.7945  -27.9399   16.3864 O   0  0  0  0  0  0  0  0  0  0  0  0
  -23.5602  -31.4933   23.1427 O   0  0  0  0  0  0  0  0  0  0  0  0
  -23.7929  -28.1274   20.2400 O   0  0  0  0  0  0  0  0  0  0  0  0
  -31.3683  -15.8779   19.1744 O   0  0  0  0  0  0  0  0  0  0  0  0
  -22.7647   -7.7627   24.6596 O   0  0  0  0  0  0  0  0  0  0  0  0
  -29.5926  -29.0437   18.7916 O   0  0  0  0  0  0  0  0  0  1  0  0
  -17.8265   -5.7293   23.2875 F   0  0  0  0  0  0  0  0  0  0  0  0
  -22.4604   -5.0922   24.0128 F   0  0  0  0  0  0  0  0  0  0  0  0
  1  2  1  0  0  0  0
  1  7  2  0  0  0  0
  2  8  2  0  0  0  0
  3 12  2  0  0  0  0
  3 19  1  0  0  0  0
  4 13  1  0  0  0  0
  4 19  2  0  0  0  0
  5 10  2  0  0  0  0
  5 20  1  0  0  0  0
  6 11  1  0  0  0  0
  6 20  2  0  0  0  0
  7 22  1  0  0  0  0
  8 24  1  0  0  0  0
  9 14  2  0  0  0  0
  9 23  1  0  0  0  0
 10 26  1  0  0  0  0
 11 26  2  0  0  0  0
 12 27  1  0  0  0  0
 13 27  2  0  0  0  0
 14 28  1  0  0  0  0
 15 16  2  0  0  0  0
 15 29  1  0  0  0  0
 16 30  1  0  0  0  0
 17 25  1  0  0  0  0
 17 28  2  0  0  0  0
 18 30  2  0  0  0  0
 18 31  1  0  0  0  0
 19 32  1  0  0  0  0
 20 34  1  0  0  0  0
 21 32  1  0  0  0  0
 21 33  2  0  0  0  0
 21 35  1  0  0  0  0
 22 24  2  0  0  0  0
 22 41  1  0  0  0  0
 23 25  2  0  0  0  0
 23 42  1  0  0  0  0
 24 53  1  0  0  0  0
 25 43  1  0  0  0  0
 26 77  1  0  0  0  0
 27 88  1  0  0  0  0
 28 89  1  0  0  0  0
 29 31  2  0  0  0  0
 29 88  1  0  0  0  0
 30 90  1  0  0  0  0
 31 91  1  0  0  0  0
 32 70  2  0  0  0  0
 33 71  1  0  0  0  0
 33 75  1  0  0  0  0
 34 72  1  0  0  0  0
 34 80  2  0  0  0  0
 35 76  1  0  0  0  0
 35 82  2  0  0  0  0
 36 54  1  0  0  0  0
 36 78  1  0  0  0  0
 36 83  2  0  0  0  0
 37 64  1  0  0  0  0
 37 68  1  0  0  0  0
 37 84  2  0  0  0  0
 38 66  1  0  0  0  0
 38 73  1  0  0  0  0
 38 85  2  0  0  0  0
 39 67  1  0  0  0  0
 39 79  1  0  0  0  0
 39 86  2  0  0  0  0
 40 74  1  0  0  0  0
 40 77  1  0  0  0  0
 40 87  2  0  0  0  0
 41 44  1  0  0  0  0
 42 54  1  0  0  0  0
 43 73  1  0  0  0  0
 44 47  1  0  0  0  0
 45 48  1  0  0  0  0
 45 51  1  0  0  0  0
 46 49  1  0  0  0  0
 46 50  1  0  0  0  0
 47 53  1  0  0  0  0
 48 55  1  0  0  0  0
 49 56  1  0  0  0  0
 50 72  1  0  0  0  0
 51 74  1  0  0  0  0
 52 55  1  0  0  0  0
 52 74  1  0  0  0  0
 53 78  1  0  0  0  0
 54 73  1  0  0  0  0
 55 71  1  0  0  0  0
 56 65  1  0  0  0  0
 56 72  1  0  0  0  0
 57 67  1  0  0  0  0
 58 68  1  0  0  0  0
 59 68  1  0  0  0  0
 60 69  1  0  0  0  0
 61 69  1  0  0  0  0
 62 69  1  0  0  0  0
 63 81  1  0  0  0  0
 64 89  1  0  0  0  0
 65 68  1  0  0  0  0
 66 69  1  0  0  0  0
 66 79  1  0  0  0  0
 67 81  1  0  0  0  0
 70 71  1  0  0  0  0
M  CHG  2  80   1  81   1
M  ISO  4  40 100  64 101  77 100  89 101
M  END
> <Batch ID>
0144

> <Smiles>
CNC(C)C(=O)NC(C(=O)N1Cc2cc([101O:1][101CH2:1]C(=O)C(C)(C)CC3CCCN3C(=N)c3ccc([100NH:0][100C:0](=O)N4CCCC(n5nc(-c6ccc(Oc7ccc(F)cc7F)cc6)c(C(N)=O)c5N)C4)cc3)ccc2CC1C(=O)NC1CCCc2ccccc21)C(C)(C)C

> <Shape>
0.315

> <Color>
0.126

> <Negative vol penalty>
0.000

$$$$

  -OEChem-04052303043D

 85 94  0     1  0  0  0  0  0999 V2000
  -16.8869  -30.1224   24.1535 C   0  0  0  0  0  0  0  0  0  0  0  0
  -18.0985  -30.4796   24.7363 C   0  0  0  0  0  0  0  0  0  0  0  0
  -24.2879  -14.9475   21.3404 C   0  0  0  0  0  0  0  0  0  0  0  0
  -26.6936  -15.1455   21.2362 C   0  0  0  0  0  0  0  0  0  0  0  0
  -16.8501  -29.1249   23.1800 C   0  0  0  0  0  0  0  0  0  0  0  0
  -19.2741  -29.8386   24.3468 C   0  0  0  0  0  0  0  0  0  0  0  0
  -26.2774  -31.0672   23.4749 C   0  0  0  0  0  0  0  0  0  0  0  0
  -24.3871  -13.5879   21.0452 C   0  0  0  0  0  0  0  0  0  0  0  0
  -26.7927  -13.7859   20.9410 C   0  0  0  0  0  0  0  0  0  0  0  0
  -27.5166  -30.5482   23.8477 C   0  0  0  0  0  0  0  0  0  0  0  0
  -25.1434  -10.7309   22.6879 C   0  0  0  0  0  0  0  0  0  0  0  0
  -24.3733   -9.8459   23.4424 C   0  0  0  0  0  0  0  0  0  0  0  0
  -27.3432  -28.8949   22.0996 C   0  0  0  0  0  0  0  0  0  0  0  0
  -31.6259  -23.3651   20.3502 C   0  0  0  0  0  0  0  0  0  0  0  0
  -23.2581   -9.1024   21.4323 C   0  0  0  0  0  0  0  0  0  0  0  0
  -33.1482  -22.4033   21.8199 C   0  0  0  0  0  0  0  0  0  0  0  0
  -25.4412  -15.7264   21.4359 C   0  0  0  0  0  0  0  0  0  0  0  0
  -24.7782  -17.7126   22.8929 C   0  0  0  0  0  0  0  0  0  0  0  0
  -18.0271  -28.4782   22.7714 C   0  0  0  0  0  0  0  0  0  0  0  0
  -25.5557  -30.4960   22.4169 C   0  0  0  0  0  0  0  0  0  0  0  0
  -19.2528  -28.8306   23.3679 C   0  0  0  0  0  0  0  0  0  0  0  0
  -26.0963  -29.4101   21.7137 C   0  0  0  0  0  0  0  0  0  0  0  0
  -32.9037  -23.4620   20.9731 C   0  0  0  0  0  0  0  0  0  0  0  0
  -25.6394  -13.0070   20.8455 C   0  0  0  0  0  0  0  0  0  0  0  0
  -28.0483  -29.4601   23.1619 C   0  0  0  0  0  0  0  0  0  0  0  0
  -24.9707  -10.8017   21.3055 C   0  0  0  0  0  0  0  0  0  0  0  0
  -23.4307   -9.0316   22.8147 C   0  0  0  0  0  0  0  0  0  0  0  0
  -24.0281   -9.9874   20.6777 C   0  0  0  0  0  0  0  0  0  0  0  0
  -25.3394  -17.1310   21.7403 C   0  0  0  0  0  0  0  0  0  0  0  0
  -24.9253  -19.0647   22.7016 C   0  0  0  0  0  0  0  0  0  0  0  0
  -30.9425  -22.2357   20.7444 C   0  0  0  0  0  0  0  0  0  0  0  0
  -24.1778  -17.0865   24.0345 C   0  0  0  0  0  0  0  0  0  0  0  0
  -31.5187  -28.4777   22.8062 C   0  0  0  0  0  0  0  0  0  0  0  0
  -22.7314  -29.0634   22.1439 C   0  0  0  0  0  0  0  0  0  0  0  0
  -23.4369  -29.1374   18.9786 C   0  0  0  0  0  0  0  0  0  0  0  0
  -26.3416  -28.5732   16.9142 C   0  0  0  0  0  0  0  0  0  0  0  0
  -28.7577  -22.3409   19.4947 C   0  0  0  0  0  0  0  0  0  0  0  0
  -17.9309  -27.3731   21.7496 C   0  0  0  0  0  0  0  0  0  0  0  0
  -24.2326  -31.0844   22.0099 C   0  0  0  0  0  0  0  0  0  0  0  0
  -25.3707  -28.7735   20.5576 C   0  0  0  0  0  0  0  0  0  0  0  0
  -19.2733  -27.0037   21.1236 C   0  0  0  0  0  0  0  0  0  0  0  0
  -25.2074  -22.3462   19.2251 C   0  0  0  0  0  0  0  0  0  0  0  0
  -20.3424  -26.8563   22.2015 C   0  0  0  0  0  0  0  0  0  0  0  0
  -33.9281  -28.0452   22.2041 C   0  0  0  0  0  0  0  0  0  0  0  0
  -34.6194  -26.9018   21.4786 C   0  0  0  0  0  0  0  0  0  0  0  0
  -24.7869  -21.0654   19.9496 C   0  0  0  0  0  0  0  0  0  0  0  0
  -32.2634  -26.3604   21.6211 C   0  0  0  0  0  0  0  0  0  0  0  0
  -26.5104  -22.1576   18.4501 C   0  0  0  0  0  0  0  0  0  0  0  0
  -27.2083  -20.3417   19.9616 C   0  0  0  0  0  0  0  0  0  0  0  0
  -20.5528  -28.1757   22.9541 C   0  0  1  0  0  0  0  0  0  0  0  0
  -32.4576  -27.8754   21.8144 C   0  0  1  0  0  0  0  0  0  0  0  0
  -23.3497  -30.1001   21.2490 C   0  0  1  0  0  0  0  0  0  0  0  0
  -33.6632  -25.7353   21.7092 C   0  0  1  0  0  0  0  0  0  0  0  0
  -25.9353  -20.5010   20.8088 C   0  0  2  0  0  0  0  0  0  0  0  0
  -26.9410  -29.4889   14.6560 C   0  0  0  0  0  0  0  0  0  0  0  0
  -22.1557  -26.5779   17.9214 C   0  0  0  0  0  0  0  0  0  0  0  0
  -23.9524  -26.4803   16.1806 C   0  0  0  0  0  0  0  0  0  0  0  0
  -22.3728  -28.4102   16.2332 C   0  0  0  0  0  0  0  0  0  0  0  0
  -28.9302  -29.6184   17.8967 C   0  0  0  0  0  0  0  0  0  0  0  0
  -33.8730  -24.5903   20.7326 C   0  0  0  0  0  0  0  0  0  0  0  0
  -30.0426  -28.3484   22.4963 C   0  0  0  0  0  0  0  0  0  1  0  0
  -24.1502  -28.2143   18.0204 C   0  0  1  0  0  0  0  0  0  0  0  0
  -27.1368  -29.6222   16.1582 C   0  0  2  0  0  0  0  0  0  0  0  0
  -23.1645  -27.4214   17.1165 C   0  0  0  0  0  0  0  0  0  0  0  0
  -25.8079  -18.0393   20.8803 N   0  0  0  0  0  0  0  0  0  0  0  0
  -25.5413  -19.2054   21.4930 N   0  0  0  0  0  0  0  0  0  0  0  0
  -24.0776  -29.3808   20.2017 N   0  0  0  0  0  0  0  0  0  0  0  0
  -27.5535  -21.6244   19.3290 N   0  0  0  0  0  0  0  0  0  0  0  0
  -24.5863  -20.1352   23.4511 N   0  0  0  0  0  0  0  0  0  0  0  0
  -24.1080  -15.6872   24.0696 N   0  0  0  0  0  0  0  0  0  0  0  0
  -29.6613  -21.7531   20.3793 N   0  0  0  0  0  0  0  0  0  0  0  0
  -21.3499  -29.0877   22.1621 N   0  0  0  0  0  0  0  0  0  0  0  0
  -25.0997  -29.0432   17.2856 N   0  0  0  0  0  0  0  0  0  0  0  0
  -28.5905  -29.4849   16.4567 N   0  3  0  0  0  0  0  0  0  0  0  0
  -23.7019  -17.7490   24.9875 O   0  0  0  0  0  0  0  0  0  0  0  0
  -31.9333  -29.0454   23.8156 O   0  0  0  0  0  0  0  0  0  0  0  0
  -23.4541  -28.2973   22.7702 O   0  0  0  0  0  0  0  0  0  0  0  0
  -22.3545  -29.6301   18.6508 O   0  0  0  0  0  0  0  0  0  0  0  0
  -26.7770  -27.4479   17.1483 O   0  0  0  0  0  0  0  0  0  0  0  0
  -28.9604  -23.4119   18.9168 O   0  0  0  0  0  0  0  0  0  0  0  0
  -25.7365  -11.6803   20.5576 O   0  0  0  0  0  0  0  0  0  0  0  0
  -29.2573  -28.9511   23.5241 O   0  0  0  0  0  0  0  0  0  1  0  0
  -22.6924   -8.1807   23.5392 F   0  0  0  0  0  0  0  0  0  0  0  0
  -23.8586  -10.0501   19.3499 F   0  0  0  0  0  0  0  0  0  0  0  0
  -31.8405  -21.2985   21.8614 S   0  0  0  0  0  0  0  0  0  0  0  0
  1  2  1  0  0  0  0
  1  5  2  0  0  0  0
  2  6  2  0  0  0  0
  3  8  2  0  0  0  0
  3 17  1  0  0  0  0
  4  9  1  0  0  0  0
  4 17  2  0  0  0  0
  5 19  1  0  0  0  0
  6 21  1  0  0  0  0
  7 10  2  0  0  0  0
  7 20  1  0  0  0  0
  8 24  1  0  0  0  0
  9 24  2  0  0  0  0
 10 25  1  0  0  0  0
 11 12  2  0  0  0  0
 11 26  1  0  0  0  0
 12 27  1  0  0  0  0
 13 22  1  0  0  0  0
 13 25  2  0  0  0  0
 14 23  1  0  0  0  0
 14 31  2  0  0  0  0
 15 27  2  0  0  0  0
 15 28  1  0  0  0  0
 16 23  2  0  0  0  0
 16 85  1  0  0  0  0
 17 29  1  0  0  0  0
 18 29  1  0  0  0  0
 18 30  2  0  0  0  0
 18 32  1  0  0  0  0
 19 21  2  0  0  0  0
 19 38  1  0  0  0  0
 20 22  2  0  0  0  0
 20 39  1  0  0  0  0
 21 50  1  0  0  0  0
 22 40  1  0  0  0  0
 23 60  1  0  0  0  0
 24 81  1  0  0  0  0
 25 82  1  0  0  0  0
 26 28  2  0  0  0  0
 26 81  1  0  0  0  0
 27 83  1  0  0  0  0
 28 84  1  0  0  0  0
 29 65  2  0  0  0  0
 30 66  1  0  0  0  0
 30 69  1  0  0  0  0
 31 71  1  0  0  0  0
 31 85  1  0  0  0  0
 32 70  1  0  0  0  0
 32 75  2  0  0  0  0
 33 51  1  0  0  0  0
 33 61  1  0  0  0  0
 33 76  2  0  0  0  0
 34 52  1  0  0  0  0
 34 72  1  0  0  0  0
 34 77  2  0  0  0  0
 35 62  1  0  0  0  0
 35 67  1  0  0  0  0
 35 78  2  0  0  0  0
 36 63  1  0  0  0  0
 36 73  1  0  0  0  0
 36 79  2  0  0  0  0
 37 68  1  0  0  0  0
 37 71  1  0  0  0  0
 37 80  2  0  0  0  0
 38 41  1  0  0  0  0
 39 52  1  0  0  0  0
 40 67  1  0  0  0  0
 41 43  1  0  0  0  0
 42 46  1  0  0  0  0
 42 48  1  0  0  0  0
 43 50  1  0  0  0  0
 44 45  1  0  0  0  0
 44 51  1  0  0  0  0
 45 53  1  0  0  0  0
 46 54  1  0  0  0  0
 47 51  1  0  0  0  0
 47 53  1  0  0  0  0
 48 68  1  0  0  0  0
 49 54  1  0  0  0  0
 49 68  1  0  0  0  0
 50 72  1  0  0  0  0
 52 67  1  0  0  0  0
 53 60  1  0  0  0  0
 54 66  1  0  0  0  0
 55 63  1  0  0  0  0
 56 64  1  0  0  0  0
 57 64  1  0  0  0  0
 58 64  1  0  0  0  0
 59 74  1  0  0  0  0
 61 82  1  0  0  0  0
 62 64  1  0  0  0  0
 62 73  1  0  0  0  0
 63 74  1  0  0  0  0
 65 66  1  0  0  0  0
M  CHG  1  74   1
M  ISO  4  37 100  61 101  71 100  82 101
M  END
> <Batch ID>
0144

> <Smiles>
CNC(C)C(=O)NC(C(=O)N1Cc2cc([101O:1][101CH2:1]C(=O)C3CCC(Cc4csc([100NH:0][100C:0](=O)N5CCCC(n6nc(-c7ccc(Oc8ccc(F)cc8F)cc7)c(C(N)=O)c6N)C5)c4)C3)ccc2CC1C(=O)NC1CCCc2ccccc21)C(C)(C)C

> <Shape>
0.237

> <Color>
0.120

> <Negative vol penalty>
0.000

$$$$

  -OEChem-04052303043D

 90 98  0     1  0  0  0  0  0999 V2000
  -24.6539  -19.0355   17.5654 C   0  0  0  0  0  0  0  0  0  0  0  0
  -25.2621  -19.8100   18.5481 C   0  0  0  0  0  0  0  0  0  0  0  0
  -22.9986   -9.8987   19.9783 C   0  0  0  0  0  0  0  0  0  0  0  0
  -23.7265   -9.9411   22.2817 C   0  0  0  0  0  0  0  0  0  0  0  0
  -24.9780  -19.2331   16.2238 C   0  0  0  0  0  0  0  0  0  0  0  0
  -26.1957  -20.7818   18.1898 C   0  0  0  0  0  0  0  0  0  0  0  0
  -25.4790  -25.1589   20.6337 C   0  0  0  0  0  0  0  0  0  0  0  0
  -22.2312   -8.7641   20.2417 C   0  0  0  0  0  0  0  0  0  0  0  0
  -22.9590   -8.8066   22.5451 C   0  0  0  0  0  0  0  0  0  0  0  0
  -25.9214  -25.2308   21.9539 C   0  0  0  0  0  0  0  0  0  0  0  0
  -23.1991   -5.4690   22.0617 C   0  0  0  0  0  0  0  0  0  0  0  0
  -23.7864   -4.4486   22.8098 C   0  0  0  0  0  0  0  0  0  0  0  0
  -31.8274  -17.4685   21.7091 C   0  0  0  0  0  0  0  0  0  0  0  0
  -27.9045  -26.3917   21.2197 C   0  0  0  0  0  0  0  0  0  0  0  0
  -22.0647   -4.6878   24.4877 C   0  0  0  0  0  0  0  0  0  0  0  0
  -23.7463  -10.4872   20.9983 C   0  0  0  0  0  0  0  0  0  0  0  0
  -31.9273  -18.7394   22.3454 C   0  0  0  0  0  0  0  0  0  0  0  0
  -24.1342  -13.0029   20.8302 C   0  0  0  0  0  0  0  0  0  0  0  0
  -25.9089  -20.2144   15.8482 C   0  0  0  0  0  0  0  0  0  0  0  0
  -26.2525  -25.6940   19.5936 C   0  0  0  0  0  0  0  0  0  0  0  0
  -26.5336  -20.9917   16.8421 C   0  0  0  0  0  0  0  0  0  0  0  0
  -27.4684  -26.3275   19.8874 C   0  0  0  0  0  0  0  0  0  0  0  0
  -22.2113   -8.2181   21.5251 C   0  0  0  0  0  0  0  0  0  0  0  0
  -27.1357  -25.8448   22.2467 C   0  0  0  0  0  0  0  0  0  0  0  0
  -22.0447   -6.0988   22.5267 C   0  0  0  0  0  0  0  0  0  0  0  0
  -23.2192   -4.0580   24.0227 C   0  0  0  0  0  0  0  0  0  0  0  0
  -21.4774   -5.7082   23.7397 C   0  0  0  0  0  0  0  0  0  0  0  0
  -24.5398  -11.6588   20.7267 C   0  0  0  0  0  0  0  0  0  0  0  0
  -25.2443  -13.7255   20.4670 C   0  0  0  0  0  0  0  0  0  0  0  0
  -30.6027  -16.8761   21.9258 C   0  0  0  0  0  0  0  0  0  0  0  0
  -30.7750  -19.0701   23.0242 C   0  0  0  0  0  0  0  0  0  0  0  0
  -22.8672  -13.5494   21.2200 C   0  0  0  0  0  0  0  0  0  0  0  0
  -33.1730  -19.6230   22.2755 C   0  0  0  0  0  0  0  0  0  0  0  0
  -27.6788  -24.5005   17.0159 C   0  0  0  0  0  0  0  0  0  0  0  0
  -28.2116  -24.6565   25.5009 C   0  0  0  0  0  0  0  0  0  0  0  0
  -28.2827  -27.6240   16.3825 C   0  0  0  0  0  0  0  0  0  0  0  0
  -29.2378  -20.4718   24.4439 C   0  0  0  0  0  0  0  0  0  0  0  0
  -28.6654  -30.7999   17.5717 C   0  0  0  0  0  0  0  0  0  0  0  0
  -30.7251  -14.6798   20.6980 C   0  0  0  0  0  0  0  0  0  0  0  0
  -26.2623  -20.3591   14.3891 C   0  0  0  0  0  0  0  0  0  0  0  0
  -25.7486  -25.6319   18.1778 C   0  0  0  0  0  0  0  0  0  0  0  0
  -28.3266  -26.9357   18.8094 C   0  0  0  0  0  0  0  0  0  0  0  0
  -26.9835  -21.6645   14.0636 C   0  0  0  0  0  0  0  0  0  0  0  0
  -29.6015  -12.2361   18.3650 C   0  0  0  0  0  0  0  0  0  0  0  0
  -28.0971  -21.9252   15.0729 C   0  0  0  0  0  0  0  0  0  0  0  0
  -28.1511  -11.9786   18.7800 C   0  0  0  0  0  0  0  0  0  0  0  0
  -30.5036  -12.4744   19.5746 C   0  0  0  0  0  0  0  0  0  0  0  0
  -28.5907  -13.2608   20.9130 C   0  0  0  0  0  0  0  0  0  0  0  0
  -27.5329  -22.0727   16.4912 C   0  0  1  0  0  0  0  0  0  0  0  0
  -26.8614  -25.7550   17.1415 C   0  0  1  0  0  0  0  0  0  0  0  0
  -27.6315  -13.0795   19.7253 C   0  0  2  0  0  0  0  0  0  0  0  0
  -29.1922  -33.1351   16.8189 C   0  0  0  0  0  0  0  0  0  0  0  0
  -26.6235  -23.7643   27.2882 C   0  0  0  0  0  0  0  0  0  0  0  0
  -29.1083  -23.6334   27.5718 C   0  0  0  0  0  0  0  0  0  0  0  0
  -31.2276  -26.8713   16.1168 C   0  0  0  0  0  0  0  0  0  0  0  0
  -31.7949  -29.3016   16.3168 C   0  0  0  0  0  0  0  0  0  0  0  0
  -30.4084  -28.4996   14.4045 C   0  0  0  0  0  0  0  0  0  0  0  0
  -26.0499  -31.8173   18.5116 C   0  0  0  0  0  0  0  0  0  0  0  0
  -27.1699  -24.8657   24.4138 C   0  0  0  0  0  0  0  0  0  1  0  0
  -29.2924  -21.8245   25.1436 C   0  0  0  0  0  0  0  0  0  0  0  0
  -27.9917  -22.1524   25.8859 C   0  0  0  0  0  0  0  0  0  0  0  0
  -29.3951  -28.5875   16.7191 C   0  0  1  0  0  0  0  0  0  0  0  0
  -28.0914  -32.1259   17.1060 C   0  0  2  0  0  0  0  0  0  0  0  0
  -27.9562  -23.5549   26.5539 C   0  0  0  0  0  0  0  0  0  0  0  0
  -30.6915  -28.3019   15.9096 C   0  0  0  0  0  0  0  0  0  0  0  0
  -25.8084  -11.5323   20.3286 N   0  0  0  0  0  0  0  0  0  0  0  0
  -26.2096  -12.8061   20.1788 N   0  0  0  0  0  0  0  0  0  0  0  0
  -27.7937  -26.8440   17.4400 N   0  0  0  0  0  0  0  0  0  0  0  0
  -29.9507  -13.5331   20.4222 N   0  0  0  0  0  0  0  0  0  0  0  0
  -25.4791  -15.0513   20.3691 N   0  0  0  0  0  0  0  0  0  0  0  0
  -21.8349  -12.6652   21.5618 N   0  0  0  0  0  0  0  0  0  0  0  0
  -30.4366  -20.2150   23.7841 N   0  0  0  0  0  0  0  0  0  0  0  0
  -30.0828  -15.6330   21.4876 N   0  0  0  0  0  0  0  0  0  0  0  0
  -26.9444  -23.3831   16.6673 N   0  0  0  0  0  0  0  0  0  0  0  0
  -28.8497  -29.9260   16.5212 N   0  0  0  0  0  0  0  0  0  0  0  0
  -27.1917  -32.6956   18.1485 N   0  3  0  0  0  0  0  0  0  0  0  0
  -34.1460  -19.1723   21.6111 O   0  5  0  0  0  0  0  0  0  0  0  0
  -22.6519  -14.7848   21.2482 O   0  0  0  0  0  0  0  0  0  0  0  0
  -33.1173  -20.7240   22.8886 O   0  0  0  0  0  0  0  0  0  0  0  0
  -28.8865  -24.5435   17.2186 O   0  0  0  0  0  0  0  0  0  0  0  0
  -29.2015  -25.3897   25.5663 O   0  0  0  0  0  0  0  0  0  0  0  0
  -27.8581  -27.5708   15.2256 O   0  0  0  0  0  0  0  0  0  0  0  0
  -28.2435  -19.7551   24.4872 O   0  0  0  0  0  0  0  0  0  0  0  0
  -28.9277  -30.5644   18.7491 O   0  0  0  0  0  0  0  0  0  0  0  0
  -31.8634  -14.8190   20.2432 O   0  0  0  0  0  0  0  0  0  0  0  0
  -21.4623   -7.1111   21.7825 O   0  0  0  0  0  0  0  0  0  0  0  0
  -27.5701  -25.9158   23.5344 O   0  0  0  0  0  0  0  0  0  1  0  0
  -23.7824   -3.0771   24.7402 F   0  0  0  0  0  0  0  0  0  0  0  0
  -20.3677   -6.3088   24.1910 F   0  0  0  0  0  0  0  0  0  0  0  0
  -29.5797  -17.8510   22.8930 S   0  0  0  0  0  0  0  0  0  0  0  0
  1  2  1  0  0  0  0
  1  5  2  0  0  0  0
  2  6  2  0  0  0  0
  3  8  2  0  0  0  0
  3 16  1  0  0  0  0
  4  9  1  0  0  0  0
  4 16  2  0  0  0  0
  5 19  1  0  0  0  0
  6 21  1  0  0  0  0
  7 10  2  0  0  0  0
  7 20  1  0  0  0  0
  8 23  1  0  0  0  0
  9 23  2  0  0  0  0
 10 24  1  0  0  0  0
 11 12  2  0  0  0  0
 11 25  1  0  0  0  0
 12 26  1  0  0  0  0
 13 17  1  0  0  0  0
 13 30  2  0  0  0  0
 14 22  1  0  0  0  0
 14 24  2  0  0  0  0
 15 26  2  0  0  0  0
 15 27  1  0  0  0  0
 16 28  1  0  0  0  0
 17 31  2  0  0  0  0
 17 33  1  0  0  0  0
 18 28  1  0  0  0  0
 18 29  2  0  0  0  0
 18 32  1  0  0  0  0
 19 21  2  0  0  0  0
 19 40  1  0  0  0  0
 20 22  2  0  0  0  0
 20 41  1  0  0  0  0
 21 49  1  0  0  0  0
 22 42  1  0  0  0  0
 23 86  1  0  0  0  0
 24 87  1  0  0  0  0
 25 27  2  0  0  0  0
 25 86  1  0  0  0  0
 26 88  1  0  0  0  0
 27 89  1  0  0  0  0
 28 66  2  0  0  0  0
 29 67  1  0  0  0  0
 29 70  1  0  0  0  0
 30 73  1  0  0  0  0
 30 90  1  0  0  0  0
 31 72  1  0  0  0  0
 31 90  1  0  0  0  0
 32 71  1  0  0  0  0
 32 78  2  0  0  0  0
 33 77  1  0  0  0  0
 33 79  2  0  0  0  0
 34 50  1  0  0  0  0
 34 74  1  0  0  0  0
 34 80  2  0  0  0  0
 35 59  1  0  0  0  0
 35 64  1  0  0  0  0
 35 81  2  0  0  0  0
 36 62  1  0  0  0  0
 36 68  1  0  0  0  0
 36 82  2  0  0  0  0
 37 60  1  0  0  0  0
 37 72  1  0  0  0  0
 37 83  2  0  0  0  0
 38 63  1  0  0  0  0
 38 75  1  0  0  0  0
 38 84  2  0  0  0  0
 39 69  1  0  0  0  0
 39 73  1  0  0  0  0
 39 85  2  0  0  0  0
 40 43  1  0  0  0  0
 41 50  1  0  0  0  0
 42 68  1  0  0  0  0
 43 45  1  0  0  0  0
 44 46  1  0  0  0  0
 44 47  1  0  0  0  0
 45 49  1  0  0  0  0
 46 51  1  0  0  0  0
 47 69  1  0  0  0  0
 48 51  1  0  0  0  0
 48 69  1  0  0  0  0
 49 74  1  0  0  0  0
 50 68  1  0  0  0  0
 51 67  1  0  0  0  0
 52 63  1  0  0  0  0
 53 64  1  0  0  0  0
 54 64  1  0  0  0  0
 55 65  1  0  0  0  0
 56 65  1  0  0  0  0
 57 65  1  0  0  0  0
 58 76  1  0  0  0  0
 59 87  1  0  0  0  0
 60 61  1  0  0  0  0
 61 64  1  0  0  0  0
 62 65  1  0  0  0  0
 62 75  1  0  0  0  0
 63 76  1  0  0  0  0
 66 67  1  0  0  0  0
M  CHG  2  76   1  77  -1
M  ISO  4  39 100  59 101  73 100  87 101
M  END
> <Batch ID>
0144

> <Smiles>
CNC(C)C(=O)NC(C(=O)N1Cc2cc([101O:1][101CH2:1]C(=O)C(C)(C)CCC(=O)Nc3sc([100NH:0][100C:0](=O)N4CCCC(n5nc(-c6ccc(Oc7ccc(F)cc7F)cc6)c(C(N)=O)c5N)C4)cc3C(=O)O)ccc2CC1C(=O)NC1CCCc2ccccc21)C(C)(C)C

> <Shape>
0.199

> <Color>
0.179

> <Negative vol penalty>
0.000

$$$$

  -OEChem-04052303043D

 93102  0     1  0  0  0  0  0999 V2000
  -28.4093  -24.3424   17.3356 C   0  0  0  0  0  0  0  0  0  0  0  0
  -27.2543  -25.0633   17.6175 C   0  0  0  0  0  0  0  0  0  0  0  0
  -26.2828  -23.5984   26.7849 C   0  0  0  0  0  0  0  0  0  0  0  0
  -28.0488  -14.1464   19.6565 C   0  0  0  0  0  0  0  0  0  0  0  0
  -25.9130  -14.9636   20.4360 C   0  0  0  0  0  0  0  0  0  0  0  0
  -29.5139  -24.4457   18.1785 C   0  0  0  0  0  0  0  0  0  0  0  0
  -27.2077  -25.8967   18.7355 C   0  0  0  0  0  0  0  0  0  0  0  0
  -23.2242  -28.7395   19.2394 C   0  0  0  0  0  0  0  0  0  0  0  0
  -25.0243  -23.9189   26.2761 C   0  0  0  0  0  0  0  0  0  0  0  0
  -27.1232  -22.7392   26.0769 C   0  0  0  0  0  0  0  0  0  0  0  0
  -27.6104  -12.8338   19.8312 C   0  0  0  0  0  0  0  0  0  0  0  0
  -25.4745  -13.6510   20.6106 C   0  0  0  0  0  0  0  0  0  0  0  0
  -21.9749  -28.2308   19.5919 C   0  0  0  0  0  0  0  0  0  0  0  0
  -24.3104  -11.1372   18.6751 C   0  0  0  0  0  0  0  0  0  0  0  0
  -23.0326  -10.8161   18.2172 C   0  0  0  0  0  0  0  0  0  0  0  0
  -22.2765  -29.0619   21.8363 C   0  0  0  0  0  0  0  0  0  0  0  0
  -22.3860  -10.1916   20.4598 C   0  0  0  0  0  0  0  0  0  0  0  0
  -27.2002  -15.2113   19.9590 C   0  0  0  0  0  0  0  0  0  0  0  0
  -25.4464  -22.5209   24.3513 C   0  0  0  0  0  0  0  0  0  0  0  0
  -27.5319  -17.3574   18.6204 C   0  0  0  0  0  0  0  0  0  0  0  0
  -29.4756  -25.2715   19.3141 C   0  0  0  0  0  0  0  0  0  0  0  0
  -24.0151  -29.4048   20.1872 C   0  0  0  0  0  0  0  0  0  0  0  0
  -28.3205  -26.0329   19.5851 C   0  0  0  0  0  0  0  0  0  0  0  0
  -23.5344  -29.5804   21.4926 C   0  0  0  0  0  0  0  0  0  0  0  0
  -24.6061  -23.3802   25.0593 C   0  0  0  0  0  0  0  0  0  0  0  0
  -26.7050  -22.2005   24.8602 C   0  0  0  0  0  0  0  0  0  0  0  0
  -26.3232  -12.5861   20.3082 C   0  0  0  0  0  0  0  0  0  0  0  0
  -21.5021  -28.3894   20.8912 C   0  0  0  0  0  0  0  0  0  0  0  0
  -24.6261  -10.9855   20.0253 C   0  0  0  0  0  0  0  0  0  0  0  0
  -22.0704  -10.3433   19.1095 C   0  0  0  0  0  0  0  0  0  0  0  0
  -23.6639  -10.5127   20.9176 C   0  0  0  0  0  0  0  0  0  0  0  0
  -27.6528  -16.5674   19.7793 C   0  0  0  0  0  0  0  0  0  0  0  0
  -28.1128  -18.5550   18.9592 C   0  0  0  0  0  0  0  0  0  0  0  0
  -25.0072  -21.9539   23.0780 C   0  0  0  0  0  0  0  0  0  0  0  0
  -26.9468  -17.0374   17.3512 C   0  0  0  0  0  0  0  0  0  0  0  0
  -26.8747  -28.8947   21.4779 C   0  0  0  0  0  0  0  0  0  0  0  0
  -26.3503  -31.7961   22.8304 C   0  0  0  0  0  0  0  0  0  0  0  0
  -22.3838  -24.5615   25.1559 C   0  0  0  0  0  0  0  0  0  0  0  0
  -24.1034  -34.1532   23.8513 C   0  0  0  0  0  0  0  0  0  0  0  0
  -28.9726  -21.3449   24.1729 C   0  0  0  0  0  0  0  0  0  0  0  0
  -30.7024  -25.3519   20.1879 C   0  0  0  0  0  0  0  0  0  0  0  0
  -25.3489  -29.9711   19.7840 C   0  0  0  0  0  0  0  0  0  0  0  0
  -24.3359  -30.3046   22.5422 C   0  0  0  0  0  0  0  0  0  0  0  0
  -30.4073  -25.9073   21.5774 C   0  0  0  0  0  0  0  0  0  0  0  0
  -31.4760  -20.4091   21.8203 C   0  0  0  0  0  0  0  0  0  0  0  0
  -29.5989  -27.1911   21.4631 C   0  0  0  0  0  0  0  0  0  0  0  0
  -30.7668  -19.3942   20.9208 C   0  0  0  0  0  0  0  0  0  0  0  0
  -24.8562  -22.1300   20.5332 C   0  0  0  0  0  0  0  0  0  0  0  0
  -26.3121  -22.1008   20.8863 C   0  0  0  0  0  0  0  0  0  0  0  0
  -31.0328  -20.2830   23.2768 C   0  0  0  0  0  0  0  0  0  0  0  0
  -28.8718  -19.3192   22.5911 C   0  0  0  0  0  0  0  0  0  0  0  0
  -28.2361  -26.9222   20.8124 C   0  0  1  0  0  0  0  0  0  0  0  0
  -26.2908  -30.1809   20.9657 C   0  0  1  0  0  0  0  0  0  0  0  0
  -29.2375  -19.4509   21.1036 C   0  0  2  0  0  0  0  0  0  0  0  0
  -25.3232  -22.7291   21.8360 C   0  0  0  0  0  0  0  0  0  0  0  0
  -25.3227  -24.2252   21.9604 C   0  0  0  0  0  0  0  0  0  0  0  0
  -23.9732  -36.4030   24.9553 C   0  0  0  0  0  0  0  0  0  0  0  0
  -26.9218  -30.5002   25.5330 C   0  0  0  0  0  0  0  0  0  0  0  0
  -25.8694  -32.4890   26.6308 C   0  0  0  0  0  0  0  0  0  0  0  0
  -27.9173  -32.7751   25.2354 C   0  0  0  0  0  0  0  0  0  0  0  0
  -18.0613  -24.4212   23.8533 C   0  0  0  0  0  0  0  0  0  0  0  0
  -17.8337  -26.7022   24.8263 C   0  0  0  0  0  0  0  0  0  0  0  0
  -22.8136  -35.3702   21.4818 C   0  0  0  0  0  0  0  0  0  0  0  0
  -21.1343  -24.6570   24.2878 C   0  0  0  0  0  0  0  0  0  0  0  0
  -20.0684  -25.5716   24.8986 C   0  0  0  0  0  0  0  0  0  0  0  0
  -19.0745  -26.3651   22.6420 C   0  0  0  0  0  0  0  0  0  0  0  0
  -20.1117  -27.4834   22.5947 C   0  0  0  0  0  0  0  0  0  1  0  0
  -25.7090  -32.2796   24.1086 C   0  0  1  0  0  0  0  0  0  0  0  0
  -24.0496  -35.6546   23.6336 C   0  0  2  0  0  0  0  0  0  0  0  0
  -26.5899  -31.9956   25.3579 C   0  0  0  0  0  0  0  0  0  0  0  0
  -18.7852  -25.7707   24.0454 C   0  0  0  0  0  0  0  0  0  0  0  0
  -28.2627  -17.2090   20.7795 N   0  0  0  0  0  0  0  0  0  0  0  0
  -28.5304  -18.4149   20.2500 N   0  0  0  0  0  0  0  0  0  0  0  0
  -25.6365  -30.8347   22.1008 N   0  0  0  0  0  0  0  0  0  0  0  0
  -29.5730  -20.3496   23.3730 N   0  0  0  0  0  0  0  0  0  0  0  0
  -28.3022  -19.7038   18.2759 N   0  0  0  0  0  0  0  0  0  0  0  0
  -26.3944  -15.7617   17.1728 N   0  0  0  0  0  0  0  0  0  0  0  0
  -23.3248  -23.7224   24.5654 N   0  0  0  0  0  0  0  0  0  0  0  0
  -27.5783  -21.3306   24.1612 N   0  0  0  0  0  0  0  0  0  0  0  0
  -27.5895  -28.1851   20.5318 N   0  0  0  0  0  0  0  0  0  0  0  0
  -25.4014  -33.6907   23.9026 N   0  0  0  0  0  0  0  0  0  0  0  0
  -22.8560  -36.0174   22.8184 N   0  3  0  0  0  0  0  0  0  0  0  0
  -24.3964  -20.8945   22.9579 O   0  0  0  0  0  0  0  0  0  0  0  0
  -26.9294  -17.8527   16.3981 O   0  0  0  0  0  0  0  0  0  0  0  0
  -26.6916  -28.5707   22.6455 O   0  0  0  0  0  0  0  0  0  0  0  0
  -27.4409  -32.2597   22.4880 O   0  0  0  0  0  0  0  0  0  0  0  0
  -22.4869  -25.1642   26.2191 O   0  0  0  0  0  0  0  0  0  0  0  0
  -23.0949  -33.4605   23.9681 O   0  0  0  0  0  0  0  0  0  0  0  0
  -29.6457  -22.1677   24.7990 O   0  0  0  0  0  0  0  0  0  0  0  0
  -25.8949  -11.3054   20.4785 O   0  0  0  0  0  0  0  0  0  0  0  0
  -20.2754  -27.8901   21.2404 O   0  0  0  0  0  0  0  0  0  1  0  0
  -20.8429  -10.0365   18.6700 F   0  0  0  0  0  0  0  0  0  0  0  0
  -23.9609  -10.3660   22.2161 F   0  0  0  0  0  0  0  0  0  0  0  0
  1  2  1  0  0  0  0
  1  6  2  0  0  0  0
  2  7  2  0  0  0  0
  3  9  2  0  0  0  0
  3 10  1  0  0  0  0
  4 11  2  0  0  0  0
  4 18  1  0  0  0  0
  5 12  1  0  0  0  0
  5 18  2  0  0  0  0
  6 21  1  0  0  0  0
  7 23  1  0  0  0  0
  8 13  2  0  0  0  0
  8 22  1  0  0  0  0
  9 25  1  0  0  0  0
 10 26  2  0  0  0  0
 11 27  1  0  0  0  0
 12 27  2  0  0  0  0
 13 28  1  0  0  0  0
 14 15  2  0  0  0  0
 14 29  1  0  0  0  0
 15 30  1  0  0  0  0
 16 24  1  0  0  0  0
 16 28  2  0  0  0  0
 17 30  2  0  0  0  0
 17 31  1  0  0  0  0
 18 32  1  0  0  0  0
 19 25  2  0  0  0  0
 19 26  1  0  0  0  0
 19 34  1  0  0  0  0
 20 32  1  0  0  0  0
 20 33  2  0  0  0  0
 20 35  1  0  0  0  0
 21 23  2  0  0  0  0
 21 41  1  0  0  0  0
 22 24  2  0  0  0  0
 22 42  1  0  0  0  0
 23 52  1  0  0  0  0
 24 43  1  0  0  0  0
 25 78  1  0  0  0  0
 26 79  1  0  0  0  0
 27 90  1  0  0  0  0
 28 91  1  0  0  0  0
 29 31  2  0  0  0  0
 29 90  1  0  0  0  0
 30 92  1  0  0  0  0
 31 93  1  0  0  0  0
 32 72  2  0  0  0  0
 33 73  1  0  0  0  0
 33 76  1  0  0  0  0
 34 55  1  0  0  0  0
 34 83  2  0  0  0  0
 35 77  1  0  0  0  0
 35 84  2  0  0  0  0
 36 53  1  0  0  0  0
 36 80  1  0  0  0  0
 36 85  2  0  0  0  0
 37 68  1  0  0  0  0
 37 74  1  0  0  0  0
 37 86  2  0  0  0  0
 38 64  1  0  0  0  0
 38 78  1  0  0  0  0
 38 87  2  0  0  0  0
 39 69  1  0  0  0  0
 39 81  1  0  0  0  0
 39 88  2  0  0  0  0
 40 75  1  0  0  0  0
 40 79  1  0  0  0  0
 40 89  2  0  0  0  0
 41 44  1  0  0  0  0
 42 53  1  0  0  0  0
 43 74  1  0  0  0  0
 44 46  1  0  0  0  0
 45 47  1  0  0  0  0
 45 50  1  0  0  0  0
 46 52  1  0  0  0  0
 47 54  1  0  0  0  0
 48 49  1  0  0  0  0
 48 55  1  0  0  0  0
 49 55  1  0  0  0  0
 50 75  1  0  0  0  0
 51 54  1  0  0  0  0
 51 75  1  0  0  0  0
 52 80  1  0  0  0  0
 53 74  1  0  0  0  0
 54 73  1  0  0  0  0
 55 56  1  0  0  0  0
 57 69  1  0  0  0  0
 58 70  1  0  0  0  0
 59 70  1  0  0  0  0
 60 70  1  0  0  0  0
 61 71  1  0  0  0  0
 62 71  1  0  0  0  0
 63 82  1  0  0  0  0
 64 65  1  0  0  0  0
 65 71  1  0  0  0  0
 66 67  1  0  0  0  0
 66 71  1  0  0  0  0
 67 91  1  0  0  0  0
 68 70  1  0  0  0  0
 68 81  1  0  0  0  0
 69 82  1  0  0  0  0
 72 73  1  0  0  0  0
M  CHG  1  82   1
M  ISO  4  40 100  67 101  79 100  91 101
M  END
> <Batch ID>
0144

> <Smiles>
CNC(C)C(=O)NC(C(=O)N1Cc2cc([101O:1][101CH2:1]CC(C)(C)CCC(=O)Nc3cccc([100NH:0][100C:0](=O)N4CCCC(n5nc(-c6ccc(Oc7ccc(F)cc7F)cc6)c(C(N)=O)c5N)C4)c3C(=O)C3(C)CC3)ccc2CC1C(=O)NC1CCCc2ccccc21)C(C)(C)C

> <Shape>
0.296

> <Color>
0.063

> <Negative vol penalty>
0.000

$$$$

  -OEChem-04052303043D

 90 98  0     1  0  0  0  0  0999 V2000
  -22.3717  -26.0408   19.5245 C   0  0  0  0  0  0  0  0  0  0  0  0
  -23.0186  -24.8409   19.2465 C   0  0  0  0  0  0  0  0  0  0  0  0
  -26.3523  -28.3399   18.9384 C   0  0  0  0  0  0  0  0  0  0  0  0
  -26.2216  -27.5296   21.2108 C   0  0  0  0  0  0  0  0  0  0  0  0
  -21.8365  -26.2655   20.7922 C   0  0  0  0  0  0  0  0  0  0  0  0
  -23.1318  -23.8655   20.2365 C   0  0  0  0  0  0  0  0  0  0  0  0
  -23.0002  -17.7930   19.4538 C   0  0  0  0  0  0  0  0  0  0  0  0
  -25.3070  -29.2272   19.1947 C   0  0  0  0  0  0  0  0  0  0  0  0
  -25.1763  -28.4170   21.4670 C   0  0  0  0  0  0  0  0  0  0  0  0
  -24.0108  -16.8367   19.3637 C   0  0  0  0  0  0  0  0  0  0  0  0
  -24.8145  -31.7077   22.1457 C   0  0  0  0  0  0  0  0  0  0  0  0
  -24.8599  -32.4339   23.3357 C   0  0  0  0  0  0  0  0  0  0  0  0
  -23.7575  -16.3565   21.7142 C   0  0  0  0  0  0  0  0  0  0  0  0
  -29.2623  -18.2696   21.3960 C   0  0  0  0  0  0  0  0  0  0  0  0
  -28.3326  -19.7601   23.0545 C   0  0  0  0  0  0  0  0  0  0  0  0
  -29.6572  -17.8609   23.7442 C   0  0  0  0  0  0  0  0  0  0  0  0
  -22.7611  -31.4495   24.0165 C   0  0  0  0  0  0  0  0  0  0  0  0
  -26.8096  -27.4911   19.9465 C   0  0  0  0  0  0  0  0  0  0  0  0
  -29.2666  -26.8123   19.8467 C   0  0  0  0  0  0  0  0  0  0  0  0
  -21.9347  -25.2885   21.7953 C   0  0  0  0  0  0  0  0  0  0  0  0
  -22.3671  -18.0463   20.6791 C   0  0  0  0  0  0  0  0  0  0  0  0
  -22.5986  -24.0779   21.5193 C   0  0  0  0  0  0  0  0  0  0  0  0
  -22.7375  -17.3147   21.8165 C   0  0  0  0  0  0  0  0  0  0  0  0
  -28.5109  -19.3994   21.7189 C   0  0  0  0  0  0  0  0  0  0  0  0
  -24.7190  -29.2657   20.4589 C   0  0  0  0  0  0  0  0  0  0  0  0
  -24.3916  -16.1204   20.4946 C   0  0  0  0  0  0  0  0  0  0  0  0
  -23.7424  -30.8525   21.8910 C   0  0  0  0  0  0  0  0  0  0  0  0
  -29.8355  -17.5003   22.4086 C   0  0  0  0  0  0  0  0  0  0  0  0
  -23.8332  -32.3048   24.2711 C   0  0  0  0  0  0  0  0  0  0  0  0
  -28.9058  -18.9908   24.0672 C   0  0  0  0  0  0  0  0  0  0  0  0
  -22.7157  -30.7233   22.8264 C   0  0  0  0  0  0  0  0  0  0  0  0
  -27.8890  -26.5739   19.6823 C   0  0  0  0  0  0  0  0  0  0  0  0
  -29.8665  -25.6377   19.4633 C   0  0  0  0  0  0  0  0  0  0  0  0
  -29.9435  -27.9901   20.3052 C   0  0  0  0  0  0  0  0  0  0  0  0
  -22.1020  -20.5754   22.5863 C   0  0  0  0  0  0  0  0  0  0  0  0
  -27.4766  -13.1388   20.4157 C   0  0  0  0  0  0  0  0  0  0  0  0
  -20.0769  -18.6409   24.2230 C   0  0  0  0  0  0  0  0  0  0  0  0
  -19.0875  -15.4655   24.9877 C   0  0  0  0  0  0  0  0  0  0  0  0
  -28.0051  -19.9616   19.3159 C   0  0  0  0  0  0  0  0  0  0  0  0
  -21.3822  -25.5958   23.1646 C   0  0  0  0  0  0  0  0  0  0  0  0
  -21.2604  -19.0622   20.7538 C   0  0  0  0  0  0  0  0  0  0  0  0
  -22.0751  -17.5346   23.1512 C   0  0  0  0  0  0  0  0  0  0  0  0
  -21.2159  -24.3604   24.0457 C   0  0  0  0  0  0  0  0  0  0  0  0
  -29.2243  -21.8747   16.5717 C   0  0  0  0  0  0  0  0  0  0  0  0
  -22.4667  -23.4894   23.9854 C   0  0  0  0  0  0  0  0  0  0  0  0
  -29.1513  -23.3180   17.0751 C   0  0  0  0  0  0  0  0  0  0  0  0
  -28.0502  -21.0379   17.0766 C   0  0  0  0  0  0  0  0  0  0  0  0
  -27.7758  -22.5079   19.0344 C   0  0  0  0  0  0  0  0  0  0  0  0
  -22.7198  -22.9855   22.5594 C   0  0  1  0  0  0  0  0  0  0  0  0
  -21.0387  -19.6016   22.1635 C   0  0  1  0  0  0  0  0  0  0  0  0
  -28.9721  -23.3729   18.6050 C   0  0  2  0  0  0  0  0  0  0  0  0
  -17.4292  -14.2013   26.3838 C   0  0  0  0  0  0  0  0  0  0  0  0
  -30.8401  -12.8499   23.3428 C   0  0  0  0  0  0  0  0  0  0  0  0
  -25.3066  -12.4993   19.3676 C   0  0  0  0  0  0  0  0  0  0  0  0
  -25.8445  -11.6493   21.6731 C   0  0  0  0  0  0  0  0  0  0  0  0
  -21.7369  -19.2216   26.7164 C   0  0  0  0  0  0  0  0  0  0  0  0
  -20.6517  -17.2498   27.8131 C   0  0  0  0  0  0  0  0  0  0  0  0
  -19.2646  -19.1938   27.0923 C   0  0  0  0  0  0  0  0  0  0  0  0
  -17.8532  -14.2215   22.6028 C   0  0  0  0  0  0  0  0  0  0  0  0
  -28.3816  -13.4669   21.6011 C   0  0  0  0  0  0  0  0  0  0  0  0
  -29.8294  -13.7207   21.1721 C   0  0  0  0  0  0  0  0  0  0  0  0
  -30.5743  -15.3287   23.0364 C   0  0  0  0  0  0  0  0  0  0  0  0
  -25.3023  -14.0788   21.3060 C   0  0  0  0  0  0  0  0  0  1  0  0
  -20.2257  -17.6408   25.3440 C   0  0  1  0  0  0  0  0  0  0  0  0
  -17.7143  -14.8195   25.0239 C   0  0  2  0  0  0  0  0  0  0  0  0
  -30.8174  -13.9921   22.3265 C   0  0  1  0  0  0  0  0  0  0  0  0
  -25.9878  -12.8322   20.7033 C   0  0  0  0  0  0  0  0  0  0  0  0
  -20.4838  -18.3235   26.7168 C   0  0  0  0  0  0  0  0  0  0  0  0
  -27.6289  -25.3445   19.2295 N   0  0  0  0  0  0  0  0  0  0  0  0
  -28.8513  -24.7999   19.1061 N   0  0  0  0  0  0  0  0  0  0  0  0
  -21.0027  -18.5431   23.1746 N   0  0  0  0  0  0  0  0  0  0  0  0
  -27.9448  -21.1346   18.5341 N   0  0  0  0  0  0  0  0  0  0  0  0
  -31.1581  -25.2502   19.4002 N   0  0  0  0  0  0  0  0  0  0  0  0
  -29.1749  -29.1076   20.6586 N   0  0  0  0  0  0  0  0  0  0  0  0
  -27.9270  -20.1805   20.6909 N   0  0  0  0  0  0  0  0  0  0  0  0
  -21.8310  -21.8871   22.2464 N   0  0  0  0  0  0  0  0  0  0  0  0
  -19.0301  -16.8056   25.3073 N   0  0  0  0  0  0  0  0  0  0  0  0
  -17.6180  -13.7491   23.9915 N   0  3  0  0  0  0  0  0  0  0  0  0
  -31.1938  -28.0554   20.3830 O   0  0  0  0  0  0  0  0  0  0  0  0
  -23.0942  -20.1671   23.1784 O   0  0  0  0  0  0  0  0  0  0  0  0
  -27.9278  -13.0926   19.2688 O   0  0  0  0  0  0  0  0  0  0  0  0
  -19.1681  -19.4735   24.2721 O   0  0  0  0  0  0  0  0  0  0  0  0
  -20.1095  -14.8427   24.7078 O   0  0  0  0  0  0  0  0  0  0  0  0
  -28.1449  -18.8475   18.8048 O   0  0  0  0  0  0  0  0  0  0  0  0
  -23.6992  -30.1316   20.7094 O   0  0  0  0  0  0  0  0  0  0  0  0
  -25.3846  -15.1807   20.4091 O   0  0  0  0  0  0  0  0  0  1  0  0
  -30.5735  -16.3897   22.0912 O   0  0  0  0  0  0  0  0  0  0  0  0
  -23.8777  -33.0010   25.4146 F   0  0  0  0  0  0  0  0  0  0  0  0
  -28.7330  -19.3358   25.3500 F   0  0  0  0  0  0  0  0  0  0  0  0
  -21.6838  -29.9024   22.5878 F   0  0  0  0  0  0  0  0  0  0  0  0
  1  2  1  0  0  0  0
  1  5  2  0  0  0  0
  2  6  2  0  0  0  0
  3  8  2  0  0  0  0
  3 18  1  0  0  0  0
  4  9  1  0  0  0  0
  4 18  2  0  0  0  0
  5 20  1  0  0  0  0
  6 22  1  0  0  0  0
  7 10  2  0  0  0  0
  7 21  1  0  0  0  0
  8 25  1  0  0  0  0
  9 25  2  0  0  0  0
 10 26  1  0  0  0  0
 11 12  2  0  0  0  0
 11 27  1  0  0  0  0
 12 29  1  0  0  0  0
 13 23  1  0  0  0  0
 13 26  2  0  0  0  0
 14 24  1  0  0  0  0
 14 28  2  0  0  0  0
 15 24  2  0  0  0  0
 15 30  1  0  0  0  0
 16 28  1  0  0  0  0
 16 30  2  0  0  0  0
 17 29  2  0  0  0  0
 17 31  1  0  0  0  0
 18 32  1  0  0  0  0
 19 32  1  0  0  0  0
 19 33  2  0  0  0  0
 19 34  1  0  0  0  0
 20 22  2  0  0  0  0
 20 40  1  0  0  0  0
 21 23  2  0  0  0  0
 21 41  1  0  0  0  0
 22 49  1  0  0  0  0
 23 42  1  0  0  0  0
 24 75  1  0  0  0  0
 25 85  1  0  0  0  0
 26 86  1  0  0  0  0
 27 31  2  0  0  0  0
 27 85  1  0  0  0  0
 28 87  1  0  0  0  0
 29 88  1  0  0  0  0
 30 89  1  0  0  0  0
 31 90  1  0  0  0  0
 32 69  2  0  0  0  0
 33 70  1  0  0  0  0
 33 73  1  0  0  0  0
 34 74  1  0  0  0  0
 34 79  2  0  0  0  0
 35 50  1  0  0  0  0
 35 76  1  0  0  0  0
 35 80  2  0  0  0  0
 36 60  1  0  0  0  0
 36 67  1  0  0  0  0
 36 81  2  0  0  0  0
 37 64  1  0  0  0  0
 37 71  1  0  0  0  0
 37 82  2  0  0  0  0
 38 65  1  0  0  0  0
 38 77  1  0  0  0  0
 38 83  2  0  0  0  0
 39 72  1  0  0  0  0
 39 75  1  0  0  0  0
 39 84  2  0  0  0  0
 40 43  1  0  0  0  0
 41 50  1  0  0  0  0
 42 71  1  0  0  0  0
 43 45  1  0  0  0  0
 44 46  1  0  0  0  0
 44 47  1  0  0  0  0
 45 49  1  0  0  0  0
 46 51  1  0  0  0  0
 47 72  1  0  0  0  0
 48 51  1  0  0  0  0
 48 72  1  0  0  0  0
 49 76  1  0  0  0  0
 50 71  1  0  0  0  0
 51 70  1  0  0  0  0
 52 65  1  0  0  0  0
 53 66  1  0  0  0  0
 54 67  1  0  0  0  0
 55 67  1  0  0  0  0
 56 68  1  0  0  0  0
 57 68  1  0  0  0  0
 58 68  1  0  0  0  0
 59 78  1  0  0  0  0
 60 61  1  0  0  0  0
 61 66  1  0  0  0  0
 62 66  1  0  0  0  0
 62 87  1  0  0  0  0
 63 67  1  0  0  0  0
 63 86  1  0  0  0  0
 64 68  1  0  0  0  0
 64 77  1  0  0  0  0
 65 78  1  0  0  0  0
 69 70  1  0  0  0  0
M  CHG  1  78   1
M  ISO  4  39 100  63 101  75 100  86 101
M  END
> <Batch ID>
0144

> <Smiles>
CNC(C)C(=O)NC(C(=O)N1Cc2cc([101O:1][101CH2:1]C(C)(C)C(=O)CCC(C)COc3cc(F)cc([100NH:0][100C:0](=O)N4CCCC(n5nc(-c6ccc(Oc7ccc(F)cc7F)cc6)c(C(N)=O)c5N)C4)c3)ccc2CC1C(=O)NC1CCCc2ccccc21)C(C)(C)C

> <Shape>
0.227

> <Color>
0.051

> <Negative vol penalty>
0.000

$$$$

  -OEChem-04052303043D

 84 93  0     1  0  0  0  0  0999 V2000
  -34.1514  -32.7182   27.5519 C   0  0  0  0  0  0  0  0  0  0  0  0
  -34.9906  -31.6477   27.2603 C   0  0  0  0  0  0  0  0  0  0  0  0
  -23.0004   -9.8940   19.9803 C   0  0  0  0  0  0  0  0  0  0  0  0
  -23.7256   -9.9438   22.2843 C   0  0  0  0  0  0  0  0  0  0  0  0
  -32.9022  -32.8102   26.9395 C   0  0  0  0  0  0  0  0  0  0  0  0
  -34.5806  -30.6678   26.3569 C   0  0  0  0  0  0  0  0  0  0  0  0
  -37.1890  -26.2006   21.4014 C   0  0  0  0  0  0  0  0  0  0  0  0
  -22.2338   -8.7594   20.2461 C   0  0  0  0  0  0  0  0  0  0  0  0
  -22.9589   -8.8093   22.5502 C   0  0  0  0  0  0  0  0  0  0  0  0
  -37.1730  -24.8507   21.0529 C   0  0  0  0  0  0  0  0  0  0  0  0
  -23.2029   -5.4705   22.0768 C   0  0  0  0  0  0  0  0  0  0  0  0
  -23.7903   -4.4529   22.8284 C   0  0  0  0  0  0  0  0  0  0  0  0
  -35.0262  -25.1553   19.9956 C   0  0  0  0  0  0  0  0  0  0  0  0
  -31.8200  -17.4772   21.6991 C   0  0  0  0  0  0  0  0  0  0  0  0
  -22.0664   -4.6953   24.5037 C   0  0  0  0  0  0  0  0  0  0  0  0
  -30.7646  -19.0821   23.0079 C   0  0  0  0  0  0  0  0  0  0  0  0
  -23.7464  -10.4862   20.9994 C   0  0  0  0  0  0  0  0  0  0  0  0
  -24.1320  -13.0018   20.8245 C   0  0  0  0  0  0  0  0  0  0  0  0
  -32.4806  -31.8361   26.0208 C   0  0  0  0  0  0  0  0  0  0  0  0
  -36.1168  -27.0369   21.0586 C   0  0  0  0  0  0  0  0  0  0  0  0
  -33.3240  -30.7461   25.7326 C   0  0  0  0  0  0  0  0  0  0  0  0
  -35.0322  -26.5159   20.3388 C   0  0  0  0  0  0  0  0  0  0  0  0
  -31.9179  -18.7502   22.3316 C   0  0  0  0  0  0  0  0  0  0  0  0
  -22.2130   -8.2171   21.5310 C   0  0  0  0  0  0  0  0  0  0  0  0
  -36.0903  -24.3272   20.3524 C   0  0  0  0  0  0  0  0  0  0  0  0
  -22.0472   -6.1006   22.5386 C   0  0  0  0  0  0  0  0  0  0  0  0
  -23.2221   -4.0653   24.0419 C   0  0  0  0  0  0  0  0  0  0  0  0
  -21.4790   -5.7129   23.7520 C   0  0  0  0  0  0  0  0  0  0  0  0
  -24.5390  -11.6578   20.7253 C   0  0  0  0  0  0  0  0  0  0  0  0
  -25.2418  -13.7244   20.4605 C   0  0  0  0  0  0  0  0  0  0  0  0
  -30.5955  -16.8845   21.9164 C   0  0  0  0  0  0  0  0  0  0  0  0
  -35.0897  -20.4390   21.6539 C   0  0  0  0  0  0  0  0  0  0  0  0
  -22.8641  -13.5481   21.2113 C   0  0  0  0  0  0  0  0  0  0  0  0
  -36.0898  -20.7590   20.8258 C   0  0  0  0  0  0  0  0  0  0  0  0
  -34.0021  -28.7571   22.6934 C   0  0  0  0  0  0  0  0  0  0  0  0
  -33.1387  -29.7847   19.7403 C   0  0  0  0  0  0  0  0  0  0  0  0
  -33.0458  -29.1956   16.3801 C   0  0  0  0  0  0  0  0  0  0  0  0
  -30.7214  -14.6847   20.6951 C   0  0  0  0  0  0  0  0  0  0  0  0
  -31.1023  -31.9531   25.4199 C   0  0  0  0  0  0  0  0  0  0  0  0
  -36.1615  -28.4966   21.4186 C   0  0  0  0  0  0  0  0  0  0  0  0
  -33.8657  -27.3761   19.9292 C   0  0  0  0  0  0  0  0  0  0  0  0
  -34.5595  -21.3175   22.7424 C   0  0  0  0  0  0  0  0  0  0  0  0
  -34.2550  -19.1977   21.5547 C   0  0  0  0  0  0  0  0  0  0  0  0
  -30.8968  -31.0715   24.1908 C   0  0  0  0  0  0  0  0  0  0  0  0
  -29.6029  -12.2332   18.3678 C   0  0  0  0  0  0  0  0  0  0  0  0
  -31.4190  -29.6622   24.4514 C   0  0  0  0  0  0  0  0  0  0  0  0
  -28.1522  -11.9755   18.7819 C   0  0  0  0  0  0  0  0  0  0  0  0
  -33.0899  -20.9131   22.8196 C   0  0  0  0  0  0  0  0  0  0  0  0
  -30.5034  -12.4758   19.5778 C   0  0  0  0  0  0  0  0  0  0  0  0
  -28.5881  -13.2643   20.9117 C   0  0  0  0  0  0  0  0  0  0  0  0
  -32.9251  -29.6764   24.7393 C   0  0  1  0  0  0  0  0  0  0  0  0
  -34.7803  -29.1426   21.4672 C   0  0  1  0  0  0  0  0  0  0  0  0
  -27.6305  -13.0786   19.7234 C   0  0  2  0  0  0  0  0  0  0  0  0
  -36.5842  -19.7988   19.7826 C   0  0  0  0  0  0  0  0  0  0  0  0
  -32.2426  -30.2005   14.2254 C   0  0  0  0  0  0  0  0  0  0  0  0
  -30.2793  -28.9749   20.4314 C   0  0  0  0  0  0  0  0  0  0  0  0
  -29.7284  -29.1000   17.9923 C   0  0  0  0  0  0  0  0  0  0  0  0
  -30.4815  -31.1453   19.2055 C   0  0  0  0  0  0  0  0  0  0  0  0
  -35.7918  -29.3298   15.2843 C   0  0  0  0  0  0  0  0  0  0  0  0
  -36.7550  -22.1052   20.8782 C   0  0  0  0  0  0  0  0  0  1  0  0
  -32.1557  -29.3218   18.6922 C   0  0  1  0  0  0  0  0  0  0  0  0
  -33.4081  -30.0706   15.1936 C   0  0  2  0  0  0  0  0  0  0  0  0
  -30.6821  -29.6186   19.0896 C   0  0  0  0  0  0  0  0  0  0  0  0
  -25.8083  -11.5313   20.3291 N   0  0  0  0  0  0  0  0  0  0  0  0
  -26.2084  -12.8052   20.1761 N   0  0  0  0  0  0  0  0  0  0  0  0
  -33.0363  -19.5585   22.2749 N   0  0  3  0  0  0  0  0  0  0  0  0
  -33.9530  -28.7956   20.3099 N   0  0  0  0  0  0  0  0  0  0  0  0
  -29.9485  -13.5364   20.4216 N   0  0  0  0  0  0  0  0  0  0  0  0
  -25.4754  -15.0501   20.3590 N   0  0  0  0  0  0  0  0  0  0  0  0
  -21.8322  -12.6639   21.5544 N   0  0  0  0  0  0  0  0  0  0  0  0
  -30.0773  -15.6396   21.4811 N   0  0  0  0  0  0  0  0  0  0  0  0
  -33.6735  -29.8228   23.5093 N   0  0  0  0  0  0  0  0  0  0  0  0
  -32.5731  -29.9414   17.4391 N   0  0  0  0  0  0  0  0  0  0  0  0
  -34.5678  -29.4917   14.4581 N   0  3  0  0  0  0  0  0  0  0  0  0
  -22.6475  -14.7835   21.2356 O   0  0  0  0  0  0  0  0  0  0  0  0
  -33.7194  -27.5801   22.8843 O   0  0  0  0  0  0  0  0  0  0  0  0
  -33.1874  -30.9810   20.0373 O   0  0  0  0  0  0  0  0  0  0  0  0
  -33.1663  -27.9726   16.3672 O   0  0  0  0  0  0  0  0  0  0  0  0
  -31.8601  -14.8237   20.2411 O   0  0  0  0  0  0  0  0  0  0  0  0
  -21.4648   -7.1102   21.7908 O   0  0  0  0  0  0  0  0  0  0  0  0
  -36.0719  -23.0099   20.0116 O   0  0  0  0  0  0  0  0  0  1  0  0
  -23.7854   -3.0870   24.7628 F   0  0  0  0  0  0  0  0  0  0  0  0
  -20.3682   -6.3137   24.2003 F   0  0  0  0  0  0  0  0  0  0  0  0
  -29.5704  -17.8616   22.8790 S   0  0  0  0  0  0  0  0  0  0  0  0
  1  2  1  0  0  0  0
  1  5  2  0  0  0  0
  2  6  2  0  0  0  0
  3  8  2  0  0  0  0
  3 17  1  0  0  0  0
  4  9  1  0  0  0  0
  4 17  2  0  0  0  0
  5 19  1  0  0  0  0
  6 21  1  0  0  0  0
  7 10  2  0  0  0  0
  7 20  1  0  0  0  0
  8 24  1  0  0  0  0
  9 24  2  0  0  0  0
 10 25  1  0  0  0  0
 11 12  2  0  0  0  0
 11 26  1  0  0  0  0
 12 27  1  0  0  0  0
 13 22  1  0  0  0  0
 13 25  2  0  0  0  0
 14 23  1  0  0  0  0
 14 31  2  0  0  0  0
 15 27  2  0  0  0  0
 15 28  1  0  0  0  0
 16 23  2  0  0  0  0
 16 84  1  0  0  0  0
 17 29  1  0  0  0  0
 18 29  1  0  0  0  0
 18 30  2  0  0  0  0
 18 33  1  0  0  0  0
 19 21  2  0  0  0  0
 19 39  1  0  0  0  0
 20 22  2  0  0  0  0
 20 40  1  0  0  0  0
 21 51  1  0  0  0  0
 22 41  1  0  0  0  0
 23 66  1  0  0  0  0
 24 80  1  0  0  0  0
 25 81  1  0  0  0  0
 26 28  2  0  0  0  0
 26 80  1  0  0  0  0
 27 82  1  0  0  0  0
 28 83  1  0  0  0  0
 29 64  2  0  0  0  0
 30 65  1  0  0  0  0
 30 69  1  0  0  0  0
 31 71  1  0  0  0  0
 31 84  1  0  0  0  0
 32 34  2  0  0  0  0
 32 42  1  0  0  0  0
 32 43  1  0  0  0  0
 33 70  1  0  0  0  0
 33 75  2  0  0  0  0
 34 54  1  0  0  0  0
 34 60  1  0  0  0  0
 35 52  1  0  0  0  0
 35 72  1  0  0  0  0
 35 76  2  0  0  0  0
 36 61  1  0  0  0  0
 36 67  1  0  0  0  0
 36 77  2  0  0  0  0
 37 62  1  0  0  0  0
 37 73  1  0  0  0  0
 37 78  2  0  0  0  0
 38 68  1  0  0  0  0
 38 71  1  0  0  0  0
 38 79  2  0  0  0  0
 39 44  1  0  0  0  0
 40 52  1  0  0  0  0
 41 67  1  0  0  0  0
 42 48  1  0  0  0  0
 43 66  1  0  0  0  0
 44 46  1  0  0  0  0
 45 47  1  0  0  0  0
 45 49  1  0  0  0  0
 46 51  1  0  0  0  0
 47 53  1  0  0  0  0
 48 66  1  0  0  0  0
 49 68  1  0  0  0  0
 50 53  1  0  0  0  0
 50 68  1  0  0  0  0
 51 72  1  0  0  0  0
 52 67  1  0  0  0  0
 53 65  1  0  0  0  0
 55 62  1  0  0  0  0
 56 63  1  0  0  0  0
 57 63  1  0  0  0  0
 58 63  1  0  0  0  0
 59 74  1  0  0  0  0
 60 81  1  0  0  0  0
 61 63  1  0  0  0  0
 61 73  1  0  0  0  0
 62 74  1  0  0  0  0
 64 65  1  0  0  0  0
M  CHG  1  74   1
M  ISO  4  38 100  60 101  71 100  81 101
M  END
> <Batch ID>
0144

> <Smiles>
CNC(C)C(=O)NC(C(=O)N1Cc2cc([101O:1][101CH2:1]C(C)=C3CCN(c4csc([100NH:0][100C:0](=O)N5CCCC(n6nc(-c7ccc(Oc8ccc(F)cc8F)cc7)c(C(N)=O)c6N)C5)c4)C3)ccc2CC1C(=O)NC1CCCc2ccccc21)C(C)(C)C

> <Shape>
0.178

> <Color>
0.198

> <Negative vol penalty>
0.000

$$$$

  -OEChem-04052303043D

 87 96  0     1  0  0  0  0  0999 V2000
  -29.0481  -24.7822   16.9111 C   0  0  0  0  0  0  0  0  0  0  0  0
  -27.8246  -25.3099   17.3082 C   0  0  0  0  0  0  0  0  0  0  0  0
  -23.7207  -23.9489   22.7398 C   0  0  0  0  0  0  0  0  0  0  0  0
  -26.2944  -13.5635   18.2447 C   0  0  0  0  0  0  0  0  0  0  0  0
  -24.2832  -14.1339   19.4559 C   0  0  0  0  0  0  0  0  0  0  0  0
  -22.4658  -23.4917   23.1419 C   0  0  0  0  0  0  0  0  0  0  0  0
  -30.1947  -25.0556   17.6539 C   0  0  0  0  0  0  0  0  0  0  0  0
  -27.7494  -26.1207   18.4412 C   0  0  0  0  0  0  0  0  0  0  0  0
  -23.4308  -28.2946   19.3509 C   0  0  0  0  0  0  0  0  0  0  0  0
  -24.3685  -23.3489   21.6599 C   0  0  0  0  0  0  0  0  0  0  0  0
  -26.4219  -12.4004   19.0039 C   0  0  0  0  0  0  0  0  0  0  0  0
  -24.4106  -12.9707   20.2151 C   0  0  0  0  0  0  0  0  0  0  0  0
  -22.3144  -27.5930   19.8039 C   0  0  0  0  0  0  0  0  0  0  0  0
  -23.7838   -9.6713   19.8388 C   0  0  0  0  0  0  0  0  0  0  0  0
  -22.6379   -8.9020   20.0403 C   0  0  0  0  0  0  0  0  0  0  0  0
  -22.5063  -21.8344   21.3844 C   0  0  0  0  0  0  0  0  0  0  0  0
  -22.6845  -28.4519   22.0276 C   0  0  0  0  0  0  0  0  0  0  0  0
  -22.8580   -9.1995   22.4278 C   0  0  0  0  0  0  0  0  0  0  0  0
  -25.2251  -14.4303   18.4707 C   0  0  0  0  0  0  0  0  0  0  0  0
  -21.8586  -22.4345   22.4643 C   0  0  0  0  0  0  0  0  0  0  0  0
  -24.4023  -15.7819   16.4697 C   0  0  0  0  0  0  0  0  0  0  0  0
  -30.1305  -25.8601   18.8035 C   0  0  0  0  0  0  0  0  0  0  0  0
  -24.1901  -29.0728   20.2366 C   0  0  0  0  0  0  0  0  0  0  0  0
  -28.8995  -26.4278   19.1905 C   0  0  0  0  0  0  0  0  0  0  0  0
  -23.8085  -29.1645   21.5828 C   0  0  0  0  0  0  0  0  0  0  0  0
  -23.7613  -22.2917   20.9822 C   0  0  0  0  0  0  0  0  0  0  0  0
  -25.4800  -12.1040   19.9892 C   0  0  0  0  0  0  0  0  0  0  0  0
  -21.9428  -27.6693   21.1430 C   0  0  0  0  0  0  0  0  0  0  0  0
  -24.4669  -10.2047   20.9318 C   0  0  0  0  0  0  0  0  0  0  0  0
  -22.1750   -8.6661   21.3347 C   0  0  0  0  0  0  0  0  0  0  0  0
  -24.0039   -9.9688   22.2263 C   0  0  0  0  0  0  0  0  0  0  0  0
  -25.0932  -15.6323   17.6871 C   0  0  0  0  0  0  0  0  0  0  0  0
  -24.5754  -17.1031   16.1367 C   0  0  0  0  0  0  0  0  0  0  0  0
  -20.5324  -21.9511   22.8881 C   0  0  0  0  0  0  0  0  0  0  0  0
  -23.6694  -14.8131   15.7080 C   0  0  0  0  0  0  0  0  0  0  0  0
  -19.8410  -24.8043   21.8570 C   0  0  0  0  0  0  0  0  0  0  0  0
  -27.1998  -29.0166   21.2575 C   0  0  0  0  0  0  0  0  0  0  0  0
  -26.3507  -31.7926   22.7048 C   0  0  0  0  0  0  0  0  0  0  0  0
  -23.8632  -33.7598   23.9656 C   0  0  0  0  0  0  0  0  0  0  0  0
  -25.6675  -22.0155   19.3585 C   0  0  0  0  0  0  0  0  0  0  0  0
  -31.4038  -26.1302   19.5657 C   0  0  0  0  0  0  0  0  0  0  0  0
  -25.3759  -29.8449   19.7267 C   0  0  0  0  0  0  0  0  0  0  0  0
  -24.5782  -30.0022   22.5698 C   0  0  0  0  0  0  0  0  0  0  0  0
  -31.1526  -26.6260   20.9861 C   0  0  0  0  0  0  0  0  0  0  0  0
  -17.1824  -23.1332   22.0306 C   0  0  0  0  0  0  0  0  0  0  0  0
  -27.6490  -20.7333   16.6926 C   0  0  0  0  0  0  0  0  0  0  0  0
  -30.1453  -27.7660   20.9681 C   0  0  0  0  0  0  0  0  0  0  0  0
  -17.9823  -23.5323   20.7971 C   0  0  0  0  0  0  0  0  0  0  0  0
  -27.1513  -19.2952   16.5303 C   0  0  0  0  0  0  0  0  0  0  0  0
  -18.0697  -22.0896   22.6983 C   0  0  0  0  0  0  0  0  0  0  0  0
  -27.6698  -21.1642   18.1581 C   0  0  0  0  0  0  0  0  0  0  0  0
  -25.9070  -19.5364   18.7167 C   0  0  0  0  0  0  0  0  0  0  0  0
  -28.7883  -27.2874   20.4368 C   0  0  1  0  0  0  0  0  0  0  0  0
  -19.4308  -23.4729   21.2696 C   0  0  2  0  0  0  0  0  0  0  0  0
  -26.3766  -30.1962   20.8233 C   0  0  1  0  0  0  0  0  0  0  0  0
  -25.8068  -19.0792   17.2523 C   0  0  2  0  0  0  0  0  0  0  0  0
  -23.4817  -35.9560   25.1183 C   0  0  0  0  0  0  0  0  0  0  0  0
  -27.3625  -30.5923   25.3212 C   0  0  0  0  0  0  0  0  0  0  0  0
  -26.1145  -32.3847   26.5452 C   0  0  0  0  0  0  0  0  0  0  0  0
  -27.9564  -32.9973   24.9783 C   0  0  0  0  0  0  0  0  0  0  0  0
  -22.1878  -34.7672   21.7436 C   0  0  0  0  0  0  0  0  0  0  0  0
  -20.5327  -25.7677   20.9161 C   0  0  0  0  0  0  0  0  0  1  0  0
  -25.7602  -32.1631   24.0439 C   0  0  1  0  0  0  0  0  0  0  0  0
  -23.5543  -35.2347   23.7815 C   0  0  2  0  0  0  0  0  0  0  0  0
  -26.7848  -32.0169   25.2042 C   0  0  0  0  0  0  0  0  0  0  0  0
  -25.6630  -16.7677   18.0995 N   0  0  0  0  0  0  0  0  0  0  0  0
  -25.3304  -17.6434   17.1358 N   0  0  0  0  0  0  0  0  0  0  0  0
  -19.4243  -22.4968   22.3469 N   0  0  0  0  0  0  0  0  0  0  0  0
  -25.7337  -30.7334   22.0242 N   0  0  0  0  0  0  0  0  0  0  0  0
  -26.3619  -20.9344   18.7756 N   0  0  0  0  0  0  0  0  0  0  0  0
  -24.1540  -17.8437   15.0897 N   0  0  0  0  0  0  0  0  0  0  0  0
  -23.5911  -13.5010   16.1943 N   0  0  0  0  0  0  0  0  0  0  0  0
  -24.4200  -21.6828   19.8854 N   0  0  0  0  0  0  0  0  0  0  0  0
  -27.9282  -28.4332   20.2384 N   0  0  0  0  0  0  0  0  0  0  0  0
  -25.2170  -33.5086   23.8923 N   0  0  0  0  0  0  0  0  0  0  0  0
  -20.4493  -20.9831   23.7961 N   0  3  0  0  0  0  0  0  0  0  0  0
  -22.2493  -35.4072   23.0828 N   0  3  0  0  0  0  0  0  0  0  0  0
  -23.1146  -15.0986   14.6198 O   0  0  0  0  0  0  0  0  0  0  0  0
  -19.6198  -25.0782   23.0356 O   0  0  0  0  0  0  0  0  0  0  0  0
  -27.1769  -28.6628   22.4305 O   0  0  0  0  0  0  0  0  0  0  0  0
  -27.3190  -32.4245   22.2752 O   0  0  0  0  0  0  0  0  0  0  0  0
  -22.9911  -32.9157   24.1590 O   0  0  0  0  0  0  0  0  0  0  0  0
  -26.1326  -23.1582   19.3639 O   0  0  0  0  0  0  0  0  0  0  0  0
  -25.6039  -10.9690   20.7301 O   0  0  0  0  0  0  0  0  0  0  0  0
  -20.8539  -26.9850   21.5880 O   0  0  0  0  0  0  0  0  0  1  0  0
  -21.0737   -7.9285   21.5280 F   0  0  0  0  0  0  0  0  0  0  0  0
  -24.6552  -10.4796   23.2802 F   0  0  0  0  0  0  0  0  0  0  0  0
  1  2  1  0  0  0  0
  1  7  2  0  0  0  0
  2  8  2  0  0  0  0
  3  6  2  0  0  0  0
  3 10  1  0  0  0  0
  4 11  2  0  0  0  0
  4 19  1  0  0  0  0
  5 12  1  0  0  0  0
  5 19  2  0  0  0  0
  6 20  1  0  0  0  0
  7 22  1  0  0  0  0
  8 24  1  0  0  0  0
  9 13  2  0  0  0  0
  9 23  1  0  0  0  0
 10 26  2  0  0  0  0
 11 27  1  0  0  0  0
 12 27  2  0  0  0  0
 13 28  1  0  0  0  0
 14 15  2  0  0  0  0
 14 29  1  0  0  0  0
 15 30  1  0  0  0  0
 16 20  2  0  0  0  0
 16 26  1  0  0  0  0
 17 25  1  0  0  0  0
 17 28  2  0  0  0  0
 18 30  2  0  0  0  0
 18 31  1  0  0  0  0
 19 32  1  0  0  0  0
 20 34  1  0  0  0  0
 21 32  1  0  0  0  0
 21 33  2  0  0  0  0
 21 35  1  0  0  0  0
 22 24  2  0  0  0  0
 22 41  1  0  0  0  0
 23 25  2  0  0  0  0
 23 42  1  0  0  0  0
 24 53  1  0  0  0  0
 25 43  1  0  0  0  0
 26 73  1  0  0  0  0
 27 84  1  0  0  0  0
 28 85  1  0  0  0  0
 29 31  2  0  0  0  0
 29 84  1  0  0  0  0
 30 86  1  0  0  0  0
 31 87  1  0  0  0  0
 32 66  2  0  0  0  0
 33 67  1  0  0  0  0
 33 71  1  0  0  0  0
 34 68  1  0  0  0  0
 34 76  2  0  0  0  0
 35 72  1  0  0  0  0
 35 78  2  0  0  0  0
 36 54  1  0  0  0  0
 36 62  1  0  0  0  0
 36 79  2  0  0  0  0
 37 55  1  0  0  0  0
 37 74  1  0  0  0  0
 37 80  2  0  0  0  0
 38 63  1  0  0  0  0
 38 69  1  0  0  0  0
 38 81  2  0  0  0  0
 39 64  1  0  0  0  0
 39 75  1  0  0  0  0
 39 82  2  0  0  0  0
 40 70  1  0  0  0  0
 40 73  1  0  0  0  0
 40 83  2  0  0  0  0
 41 44  1  0  0  0  0
 42 55  1  0  0  0  0
 43 69  1  0  0  0  0
 44 47  1  0  0  0  0
 45 48  1  0  0  0  0
 45 50  1  0  0  0  0
 46 49  1  0  0  0  0
 46 51  1  0  0  0  0
 47 53  1  0  0  0  0
 48 54  1  0  0  0  0
 49 56  1  0  0  0  0
 50 68  1  0  0  0  0
 51 70  1  0  0  0  0
 52 56  1  0  0  0  0
 52 70  1  0  0  0  0
 53 74  1  0  0  0  0
 54 68  1  0  0  0  0
 55 69  1  0  0  0  0
 56 67  1  0  0  0  0
 57 64  1  0  0  0  0
 58 65  1  0  0  0  0
 59 65  1  0  0  0  0
 60 65  1  0  0  0  0
 61 77  1  0  0  0  0
 62 85  1  0  0  0  0
 63 65  1  0  0  0  0
 63 75  1  0  0  0  0
 64 77  1  0  0  0  0
 66 67  1  0  0  0  0
M  CHG  2  76   1  77   1
M  ISO  4  40 100  62 101  73 100  85 101
M  END
> <Batch ID>
0144

> <Smiles>
CNC(C)C(=O)NC(C(=O)N1Cc2cc([101O:1][101CH2:1]C(=O)C3CCCN3C(=N)c3cccc([100NH:0][100C:0](=O)N4CCCC(n5nc(-c6ccc(Oc7ccc(F)cc7F)cc6)c(C(N)=O)c5N)C4)c3)ccc2CC1C(=O)NC1CCCc2ccccc21)C(C)(C)C

> <Shape>
0.240

> <Color>
0.075

> <Negative vol penalty>
0.000

$$$$

  -OEChem-04052303043D

 86 95  0     1  0  0  0  0  0999 V2000
  -28.0352  -37.3689   19.0848 C   0  0  0  0  0  0  0  0  0  0  0  0
  -28.0750  -36.0840   18.5528 C   0  0  0  0  0  0  0  0  0  0  0  0
  -23.6138  -10.0735   22.1545 C   0  0  0  0  0  0  0  0  0  0  0  0
  -22.6663  -12.1656   21.4044 C   0  0  0  0  0  0  0  0  0  0  0  0
  -27.9152  -37.5484   20.4623 C   0  0  0  0  0  0  0  0  0  0  0  0
  -27.9958  -34.9778   19.3982 C   0  0  0  0  0  0  0  0  0  0  0  0
  -25.2900  -29.6158   18.2012 C   0  0  0  0  0  0  0  0  0  0  0  0
  -29.5176  -19.8213   19.8643 C   0  0  0  0  0  0  0  0  0  0  0  0
  -29.5994  -18.4270   19.7886 C   0  0  0  0  0  0  0  0  0  0  0  0
  -22.6255   -9.9771   23.1341 C   0  0  0  0  0  0  0  0  0  0  0  0
  -21.6779  -12.0691   22.3839 C   0  0  0  0  0  0  0  0  0  0  0  0
  -25.7911  -28.3871   17.7735 C   0  0  0  0  0  0  0  0  0  0  0  0
  -19.3695   -9.0820   23.3077 C   0  0  0  0  0  0  0  0  0  0  0  0
  -18.7390   -7.8488   23.4731 C   0  0  0  0  0  0  0  0  0  0  0  0
  -27.3600  -18.3001   18.8597 C   0  0  0  0  0  0  0  0  0  0  0  0
  -25.8701  -27.6294   20.0624 C   0  0  0  0  0  0  0  0  0  0  0  0
  -19.5051   -7.7642   25.7629 C   0  0  0  0  0  0  0  0  0  0  0  0
  -23.6343  -11.1678   21.2897 C   0  0  0  0  0  0  0  0  0  0  0  0
  -24.5999  -10.7715   18.9620 C   0  0  0  0  0  0  0  0  0  0  0  0
  -27.8248  -36.4439   21.3240 C   0  0  0  0  0  0  0  0  0  0  0  0
  -25.0851  -29.8648   19.5659 C   0  0  0  0  0  0  0  0  0  0  0  0
  -27.8759  -35.1427   20.7885 C   0  0  0  0  0  0  0  0  0  0  0  0
  -27.2918  -19.6800   18.9496 C   0  0  0  0  0  0  0  0  0  0  0  0
  -25.3639  -28.8612   20.5046 C   0  0  0  0  0  0  0  0  0  0  0  0
  -28.3547  -20.4476   19.4429 C   0  0  0  0  0  0  0  0  0  0  0  0
  -28.5280  -17.6718   19.2896 C   0  0  0  0  0  0  0  0  0  0  0  0
  -21.6575  -10.9748   23.2487 C   0  0  0  0  0  0  0  0  0  0  0  0
  -26.0840  -27.3947   18.7043 C   0  0  0  0  0  0  0  0  0  0  0  0
  -20.0680   -9.6562   24.3699 C   0  0  0  0  0  0  0  0  0  0  0  0
  -18.8067   -7.1900   24.7007 C   0  0  0  0  0  0  0  0  0  0  0  0
  -20.1357   -8.9974   25.5974 C   0  0  0  0  0  0  0  0  0  0  0  0
  -24.6553  -11.2683   20.2780 C   0  0  0  0  0  0  0  0  0  0  0  0
  -25.8082  -11.1224   18.4114 C   0  0  0  0  0  0  0  0  0  0  0  0
  -23.5499  -10.0569   18.2967 C   0  0  0  0  0  0  0  0  0  0  0  0
  -26.2606  -31.9383   21.6689 C   0  0  0  0  0  0  0  0  0  0  0  0
  -24.0274  -30.6275   23.6227 C   0  0  0  0  0  0  0  0  0  0  0  0
  -22.0391  -27.9557   24.3677 C   0  0  0  0  0  0  0  0  0  0  0  0
  -29.7247  -15.4765   19.5981 C   0  0  0  0  0  0  0  0  0  0  0  0
  -27.7438  -36.6875   22.8102 C   0  0  0  0  0  0  0  0  0  0  0  0
  -24.5187  -31.1860   20.0088 C   0  0  0  0  0  0  0  0  0  0  0  0
  -26.1778  -20.5843   18.5305 C   0  0  0  0  0  0  0  0  0  0  0  0
  -25.1425  -29.0712   21.9795 C   0  0  0  0  0  0  0  0  0  0  0  0
  -27.2885  -35.4655   23.6038 C   0  0  0  0  0  0  0  0  0  0  0  0
  -30.3650  -11.9741   19.6132 C   0  0  0  0  0  0  0  0  0  0  0  0
  -28.0443  -34.2213   23.1483 C   0  0  0  0  0  0  0  0  0  0  0  0
  -28.9683  -11.3504   19.6595 C   0  0  0  0  0  0  0  0  0  0  0  0
  -26.6244  -21.9210   19.1568 C   0  0  0  0  0  0  0  0  0  0  0  0
  -30.4428  -13.2533   20.4447 C   0  0  0  0  0  0  0  0  0  0  0  0
  -28.0238  -13.6364   20.1782 C   0  0  0  0  0  0  0  0  0  0  0  0
  -27.7678  -33.9179   21.6707 C   0  0  1  0  0  0  0  0  0  0  0  0
  -24.8339  -31.5131   21.4652 C   0  0  1  0  0  0  0  0  0  0  0  0
  -27.8789  -12.3808   19.3030 C   0  0  2  0  0  0  0  0  0  0  0  0
  -20.3499  -27.1647   26.0465 C   0  0  0  0  0  0  0  0  0  0  0  0
  -26.2671  -30.1116   25.6296 C   0  0  0  0  0  0  0  0  0  0  0  0
  -24.7437  -28.5164   26.8141 C   0  0  0  0  0  0  0  0  0  0  0  0
  -24.1294  -30.9278   26.6389 C   0  0  0  0  0  0  0  0  0  0  0  0
  -30.3962  -23.0837   18.2278 C   0  0  0  0  0  0  0  0  0  0  0  0
  -30.3042  -24.8371   19.9966 C   0  0  0  0  0  0  0  0  0  0  0  0
  -19.9376  -27.6902   22.3009 C   0  0  0  0  0  0  0  0  0  0  0  0
  -28.4053  -24.6501   18.3692 C   0  0  0  0  0  0  0  0  0  0  0  0
  -28.7999  -22.8076   20.1344 C   0  0  0  0  0  0  0  0  0  0  0  0
  -27.4383  -25.5006   19.1881 C   0  0  0  0  0  0  0  0  0  1  0  0
  -23.9980  -29.4627   24.5826 C   0  0  1  0  0  0  0  0  0  0  0  0
  -20.5637  -27.8632   24.7127 C   0  0  2  0  0  0  0  0  0  0  0  0
  -24.7906  -29.7510   25.8887 C   0  0  0  0  0  0  0  0  0  0  0  0
  -29.4504  -23.8402   19.1829 C   0  0  0  0  0  0  0  0  0  0  0  0
  -25.8077  -11.8875   20.5474 N   0  0  0  0  0  0  0  0  0  0  0  0
  -26.4877  -11.7820   19.3929 N   0  0  0  0  0  0  0  0  0  0  0  0
  -28.0575  -21.8028   19.4167 N   0  0  1  0  0  0  0  0  0  0  0  0
  -24.5930  -30.3820   22.3634 N   0  0  0  0  0  0  0  0  0  0  0  0
  -29.3834  -14.1838   20.0487 N   0  0  0  0  0  0  0  0  0  0  0  0
  -26.3453  -10.9279   17.1882 N   0  0  0  0  0  0  0  0  0  0  0  0
  -22.3752   -9.7793   19.0090 N   0  0  0  0  0  0  0  0  0  0  0  0
  -28.6360  -16.2608   19.2181 N   0  0  0  0  0  0  0  0  0  0  0  0
  -26.4703  -33.2956   21.5168 N   0  0  0  0  0  0  0  0  0  0  0  0
  -22.5902  -29.1450   24.7958 N   0  0  0  0  0  0  0  0  0  0  0  0
  -19.8326  -27.1016   23.6608 N   0  3  0  0  0  0  0  0  0  0  0  0
  -23.6570   -9.6614   17.1111 O   0  0  0  0  0  0  0  0  0  0  0  0
  -27.1080  -31.0974   21.9453 O   0  0  0  0  0  0  0  0  0  0  0  0
  -23.5591  -31.7131   23.9745 O   0  0  0  0  0  0  0  0  0  0  0  0
  -22.6433  -27.0607   23.7808 O   0  0  0  0  0  0  0  0  0  0  0  0
  -30.8983  -15.8501   19.5269 O   0  0  0  0  0  0  0  0  0  0  0  0
  -20.6928  -10.8809   24.2043 O   0  0  0  0  0  0  0  0  0  0  0  0
  -26.5738  -26.1947   18.2896 O   0  0  0  0  0  0  0  0  0  1  0  0
  -18.1999   -6.0065   24.8599 F   0  0  0  0  0  0  0  0  0  0  0  0
  -20.8043   -9.5446   26.6219 F   0  0  0  0  0  0  0  0  0  0  0  0
  1  2  1  0  0  0  0
  1  5  2  0  0  0  0
  2  6  2  0  0  0  0
  3 10  2  0  0  0  0
  3 18  1  0  0  0  0
  4 11  1  0  0  0  0
  4 18  2  0  0  0  0
  5 20  1  0  0  0  0
  6 22  1  0  0  0  0
  7 12  2  0  0  0  0
  7 21  1  0  0  0  0
  8  9  2  0  0  0  0
  8 25  1  0  0  0  0
  9 26  1  0  0  0  0
 10 27  1  0  0  0  0
 11 27  2  0  0  0  0
 12 28  1  0  0  0  0
 13 14  2  0  0  0  0
 13 29  1  0  0  0  0
 14 30  1  0  0  0  0
 15 23  1  0  0  0  0
 15 26  2  0  0  0  0
 16 24  1  0  0  0  0
 16 28  2  0  0  0  0
 17 30  2  0  0  0  0
 17 31  1  0  0  0  0
 18 32  1  0  0  0  0
 19 32  1  0  0  0  0
 19 33  2  0  0  0  0
 19 34  1  0  0  0  0
 20 22  2  0  0  0  0
 20 39  1  0  0  0  0
 21 24  2  0  0  0  0
 21 40  1  0  0  0  0
 22 50  1  0  0  0  0
 23 25  2  0  0  0  0
 23 41  1  0  0  0  0
 24 42  1  0  0  0  0
 25 69  1  0  0  0  0
 26 74  1  0  0  0  0
 27 83  1  0  0  0  0
 28 84  1  0  0  0  0
 29 31  2  0  0  0  0
 29 83  1  0  0  0  0
 30 85  1  0  0  0  0
 31 86  1  0  0  0  0
 32 67  2  0  0  0  0
 33 68  1  0  0  0  0
 33 72  1  0  0  0  0
 34 73  1  0  0  0  0
 34 78  2  0  0  0  0
 35 51  1  0  0  0  0
 35 75  1  0  0  0  0
 35 79  2  0  0  0  0
 36 63  1  0  0  0  0
 36 70  1  0  0  0  0
 36 80  2  0  0  0  0
 37 64  1  0  0  0  0
 37 76  1  0  0  0  0
 37 81  2  0  0  0  0
 38 71  1  0  0  0  0
 38 74  1  0  0  0  0
 38 82  2  0  0  0  0
 39 43  1  0  0  0  0
 40 51  1  0  0  0  0
 41 47  1  0  0  0  0
 42 70  1  0  0  0  0
 43 45  1  0  0  0  0
 44 46  1  0  0  0  0
 44 48  1  0  0  0  0
 45 50  1  0  0  0  0
 46 52  1  0  0  0  0
 47 69  1  0  0  0  0
 48 71  1  0  0  0  0
 49 52  1  0  0  0  0
 49 71  1  0  0  0  0
 50 75  1  0  0  0  0
 51 70  1  0  0  0  0
 52 68  1  0  0  0  0
 53 64  1  0  0  0  0
 54 65  1  0  0  0  0
 55 65  1  0  0  0  0
 56 65  1  0  0  0  0
 57 66  1  0  0  0  0
 58 66  1  0  0  0  0
 59 77  1  0  0  0  0
 60 62  1  0  0  0  0
 60 66  1  0  0  0  0
 61 66  1  0  0  0  0
 61 69  1  0  0  0  0
 62 84  1  0  0  0  0
 63 65  1  0  0  0  0
 63 76  1  0  0  0  0
 64 77  1  0  0  0  0
 67 68  1  0  0  0  0
M  CHG  1  77   1
M  ISO  4  38 100  62 101  74 100  84 101
M  END
> <Batch ID>
0144

> <Smiles>
CNC(C)C(=O)NC(C(=O)N1Cc2cc([101O:1][101CH2:1]CC(C)(C)CN3CCc4cc([100NH:0][100C:0](=O)N5CCCC(n6nc(-c7ccc(Oc8ccc(F)cc8F)cc7)c(C(N)=O)c6N)C5)ccc43)ccc2CC1C(=O)NC1CCCc2ccccc21)C(C)(C)C

> <Shape>
0.270

> <Color>
0.078

> <Negative vol penalty>
0.000

$$$$

  -OEChem-04052303043D

 90 98  0     1  0  0  0  0  0999 V2000
  -34.2493  -23.5453   27.3130 C   0  0  0  0  0  0  0  0  0  0  0  0
  -34.3049  -23.3982   25.9308 C   0  0  0  0  0  0  0  0  0  0  0  0
  -23.0021   -9.8879   19.9837 C   0  0  0  0  0  0  0  0  0  0  0  0
  -23.7253   -9.9464   22.2882 C   0  0  0  0  0  0  0  0  0  0  0  0
  -33.0167  -23.5382   27.9647 C   0  0  0  0  0  0  0  0  0  0  0  0
  -33.1278  -23.2428   25.1994 C   0  0  0  0  0  0  0  0  0  0  0  0
  -33.0475  -26.0982   21.0179 C   0  0  0  0  0  0  0  0  0  0  0  0
  -22.2370   -8.7531   20.2526 C   0  0  0  0  0  0  0  0  0  0  0  0
  -22.9601   -8.8116   22.5572 C   0  0  0  0  0  0  0  0  0  0  0  0
  -33.7798  -25.6434   19.9222 C   0  0  0  0  0  0  0  0  0  0  0  0
  -23.2095   -5.4717   22.0950 C   0  0  0  0  0  0  0  0  0  0  0  0
  -23.7978   -4.4575   22.8504 C   0  0  0  0  0  0  0  0  0  0  0  0
  -31.7539  -24.7879   18.9307 C   0  0  0  0  0  0  0  0  0  0  0  0
  -29.5269  -17.8735   22.2998 C   0  0  0  0  0  0  0  0  0  0  0  0
  -31.1831  -17.6138   20.5601 C   0  0  0  0  0  0  0  0  0  0  0  0
  -22.0722   -4.7027   24.5235 C   0  0  0  0  0  0  0  0  0  0  0  0
  -23.7464  -10.4845   21.0015 C   0  0  0  0  0  0  0  0  0  0  0  0
  -24.1284  -13.0001   20.8186 C   0  0  0  0  0  0  0  0  0  0  0  0
  -31.8234  -23.3922   27.2399 C   0  0  0  0  0  0  0  0  0  0  0  0
  -31.6621  -25.8912   21.0834 C   0  0  0  0  0  0  0  0  0  0  0  0
  -31.8782  -23.2323   25.8421 C   0  0  0  0  0  0  0  0  0  0  0  0
  -31.0059  -25.2433   20.0272 C   0  0  0  0  0  0  0  0  0  0  0  0
  -29.7152  -19.2553   22.2729 C   0  0  0  0  0  0  0  0  0  0  0  0
  -30.2608  -17.0527   21.4434 C   0  0  0  0  0  0  0  0  0  0  0  0
  -31.3715  -18.9957   20.5332 C   0  0  0  0  0  0  0  0  0  0  0  0
  -22.2159   -8.2149   21.5394 C   0  0  0  0  0  0  0  0  0  0  0  0
  -33.1335  -24.9856   18.8797 C   0  0  0  0  0  0  0  0  0  0  0  0
  -22.0525   -6.1015   22.5538 C   0  0  0  0  0  0  0  0  0  0  0  0
  -30.6375  -19.8164   21.3896 C   0  0  0  0  0  0  0  0  0  0  0  0
  -23.2291   -4.0730   24.0647 C   0  0  0  0  0  0  0  0  0  0  0  0
  -21.4839   -5.7170   23.7680 C   0  0  0  0  0  0  0  0  0  0  0  0
  -24.5375  -11.6564   20.7242 C   0  0  0  0  0  0  0  0  0  0  0  0
  -25.2374  -13.7232   20.4531 C   0  0  0  0  0  0  0  0  0  0  0  0
  -22.8593  -13.5459   21.2026 C   0  0  0  0  0  0  0  0  0  0  0  0
  -29.7195  -24.3176   23.0465 C   0  0  0  0  0  0  0  0  0  0  0  0
  -34.5055  -22.5813   16.5473 C   0  0  0  0  0  0  0  0  0  0  0  0
  -27.4080  -25.7025   21.2407 C   0  0  0  0  0  0  0  0  0  0  0  0
  -33.1135  -18.8689   18.7186 C   0  0  0  0  0  0  0  0  0  0  0  0
  -26.5097  -27.1054   18.2622 C   0  0  0  0  0  0  0  0  0  0  0  0
  -30.7153  -14.6926   20.6889 C   0  0  0  0  0  0  0  0  0  0  0  0
  -30.5178  -23.3432   27.9934 C   0  0  0  0  0  0  0  0  0  0  0  0
  -30.8824  -26.4115   22.2598 C   0  0  0  0  0  0  0  0  0  0  0  0
  -29.5173  -25.0141   20.0398 C   0  0  0  0  0  0  0  0  0  0  0  0
  -29.2937  -23.5492   27.1049 C   0  0  0  0  0  0  0  0  0  0  0  0
  -29.6024  -12.2315   18.3690 C   0  0  0  0  0  0  0  0  0  0  0  0
  -29.3973  -22.6933   25.8465 C   0  0  0  0  0  0  0  0  0  0  0  0
  -28.1518  -11.9731   18.7827 C   0  0  0  0  0  0  0  0  0  0  0  0
  -30.5016  -12.4796   19.5788 C   0  0  0  0  0  0  0  0  0  0  0  0
  -28.5840  -13.2696   20.9085 C   0  0  0  0  0  0  0  0  0  0  0  0
  -30.6218  -23.0862   25.0113 C   0  0  1  0  0  0  0  0  0  0  0  0
  -29.5527  -25.6913   22.4611 C   0  0  1  0  0  0  0  0  0  0  0  0
  -27.6276  -13.0786   19.7201 C   0  0  2  0  0  0  0  0  0  0  0  0
  -28.9199  -20.1172   23.1973 C   0  0  0  0  0  0  0  0  0  0  0  0
  -24.5421  -28.1091   17.0713 C   0  0  0  0  0  0  0  0  0  0  0  0
  -35.4415  -20.5557   15.3091 C   0  0  0  0  0  0  0  0  0  0  0  0
  -33.3449  -21.6933   14.5464 C   0  0  0  0  0  0  0  0  0  0  0  0
  -26.2511  -22.9128   20.8059 C   0  0  0  0  0  0  0  0  0  0  0  0
  -24.9173  -23.8388   18.9003 C   0  0  0  0  0  0  0  0  0  0  0  0
  -24.5467  -24.6971   21.2130 C   0  0  0  0  0  0  0  0  0  0  0  0
  -27.8788  -29.7109   17.9526 C   0  0  0  0  0  0  0  0  0  0  0  0
  -33.3555  -23.3792   17.1402 C   0  0  0  0  0  0  0  0  0  1  0  0
  -33.9834  -19.8478   17.9393 C   0  0  0  0  0  0  0  0  0  0  0  0
  -33.3032  -20.3432   16.6578 C   0  0  0  0  0  0  0  0  0  0  0  0
  -26.6643  -25.3247   19.9825 C   0  0  1  0  0  0  0  0  0  0  0  0
  -25.7617  -28.3856   17.9366 C   0  0  2  0  0  0  0  0  0  0  0  0
  -34.1727  -21.2834   15.7778 C   0  0  0  0  0  0  0  0  0  0  0  0
  -25.6232  -24.1958   20.2258 C   0  0  0  0  0  0  0  0  0  0  0  0
  -25.8072  -11.5306   20.3294 N   0  0  0  0  0  0  0  0  0  0  0  0
  -26.2056  -12.8045   20.1725 N   0  0  0  0  0  0  0  0  0  0  0  0
  -28.7999  -25.5358   21.2148 N   0  0  0  0  0  0  0  0  0  0  0  0
  -29.9444  -13.5422   20.4187 N   0  0  0  0  0  0  0  0  0  0  0  0
  -25.4691  -15.0489   20.3475 N   0  0  0  0  0  0  0  0  0  0  0  0
  -21.8285  -12.6613   21.5478 N   0  0  0  0  0  0  0  0  0  0  0  0
  -32.3106  -19.5488   19.6305 N   0  0  0  0  0  0  0  0  0  0  0  0
  -30.0691  -15.6491   21.4712 N   0  0  0  0  0  0  0  0  0  0  0  0
  -30.3598  -24.3018   24.2710 N   0  0  0  0  0  0  0  0  0  0  0  0
  -26.0937  -26.5610   19.4587 N   0  0  0  0  0  0  0  0  0  0  0  0
  -26.6505  -29.3336   17.2070 N   0  3  0  0  0  0  0  0  0  0  0  0
  -22.6409  -14.7809   21.2226 O   0  0  0  0  0  0  0  0  0  0  0  0
  -29.2972  -23.3442   22.4335 O   0  0  0  0  0  0  0  0  0  0  0  0
  -35.6722  -22.9373   16.7309 O   0  0  0  0  0  0  0  0  0  0  0  0
  -26.7779  -26.1365   22.2083 O   0  0  0  0  0  0  0  0  0  0  0  0
  -33.1629  -17.6583   18.5281 O   0  0  0  0  0  0  0  0  0  0  0  0
  -27.3738  -26.6334   17.5266 O   0  0  0  0  0  0  0  0  0  0  0  0
  -31.8542  -14.8318   20.2354 O   0  0  0  0  0  0  0  0  0  0  0  0
  -30.8187  -21.1686   21.3648 O   0  0  0  0  0  0  0  0  0  0  0  0
  -21.4692   -7.1078   21.8022 O   0  0  0  0  0  0  0  0  0  0  0  0
  -33.8461  -24.5402   17.8094 O   0  0  0  0  0  0  0  0  0  1  0  0
  -23.7933   -3.0979   24.7894 F   0  0  0  0  0  0  0  0  0  0  0  0
  -20.3718   -6.3176   24.2134 F   0  0  0  0  0  0  0  0  0  0  0  0
  1  2  1  0  0  0  0
  1  5  2  0  0  0  0
  2  6  2  0  0  0  0
  3  8  2  0  0  0  0
  3 17  1  0  0  0  0
  4  9  1  0  0  0  0
  4 17  2  0  0  0  0
  5 19  1  0  0  0  0
  6 21  1  0  0  0  0
  7 10  2  0  0  0  0
  7 20  1  0  0  0  0
  8 26  1  0  0  0  0
  9 26  2  0  0  0  0
 10 27  1  0  0  0  0
 11 12  2  0  0  0  0
 11 28  1  0  0  0  0
 12 30  1  0  0  0  0
 13 22  1  0  0  0  0
 13 27  2  0  0  0  0
 14 23  2  0  0  0  0
 14 24  1  0  0  0  0
 15 24  2  0  0  0  0
 15 25  1  0  0  0  0
 16 30  2  0  0  0  0
 16 31  1  0  0  0  0
 17 32  1  0  0  0  0
 18 32  1  0  0  0  0
 18 33  2  0  0  0  0
 18 34  1  0  0  0  0
 19 21  2  0  0  0  0
 19 41  1  0  0  0  0
 20 22  2  0  0  0  0
 20 42  1  0  0  0  0
 21 50  1  0  0  0  0
 22 43  1  0  0  0  0
 23 29  1  0  0  0  0
 23 53  1  0  0  0  0
 24 75  1  0  0  0  0
 25 29  2  0  0  0  0
 25 74  1  0  0  0  0
 26 87  1  0  0  0  0
 27 88  1  0  0  0  0
 28 31  2  0  0  0  0
 28 87  1  0  0  0  0
 29 86  1  0  0  0  0
 30 89  1  0  0  0  0
 31 90  1  0  0  0  0
 32 68  2  0  0  0  0
 33 69  1  0  0  0  0
 33 72  1  0  0  0  0
 34 73  1  0  0  0  0
 34 79  2  0  0  0  0
 35 51  1  0  0  0  0
 35 76  1  0  0  0  0
 35 80  2  0  0  0  0
 36 61  1  0  0  0  0
 36 66  1  0  0  0  0
 36 81  2  0  0  0  0
 37 64  1  0  0  0  0
 37 70  1  0  0  0  0
 37 82  2  0  0  0  0
 38 62  1  0  0  0  0
 38 74  1  0  0  0  0
 38 83  2  0  0  0  0
 39 65  1  0  0  0  0
 39 77  1  0  0  0  0
 39 84  2  0  0  0  0
 40 71  1  0  0  0  0
 40 75  1  0  0  0  0
 40 85  2  0  0  0  0
 41 44  1  0  0  0  0
 42 51  1  0  0  0  0
 43 70  1  0  0  0  0
 44 46  1  0  0  0  0
 45 47  1  0  0  0  0
 45 48  1  0  0  0  0
 46 50  1  0  0  0  0
 47 52  1  0  0  0  0
 48 71  1  0  0  0  0
 49 52  1  0  0  0  0
 49 71  1  0  0  0  0
 50 76  1  0  0  0  0
 51 70  1  0  0  0  0
 52 69  1  0  0  0  0
 54 65  1  0  0  0  0
 55 66  1  0  0  0  0
 56 66  1  0  0  0  0
 57 67  1  0  0  0  0
 58 67  1  0  0  0  0
 59 67  1  0  0  0  0
 60 78  1  0  0  0  0
 61 88  1  0  0  0  0
 62 63  1  0  0  0  0
 63 66  1  0  0  0  0
 64 67  1  0  0  0  0
 64 77  1  0  0  0  0
 65 78  1  0  0  0  0
 68 69  1  0  0  0  0
M  CHG  1  78   1
M  ISO  4  40 100  61 101  75 100  88 101
M  END
> <Batch ID>
0144

> <Smiles>
CNC(C)C(=O)NC(C(=O)N1Cc2cc([101O:1][101CH2:1]C(=O)C(C)(C)CCC(=O)Nc3cc([100NH:0][100C:0](=O)N4CCCC(n5nc(-c6ccc(Oc7ccc(F)cc7F)cc6)c(C(N)=O)c5N)C4)cc(C)c3O)ccc2CC1C(=O)NC1CCCc2ccccc21)C(C)(C)C

> <Shape>
0.225

> <Color>
0.182

> <Negative vol penalty>
0.000

$$$$

  -OEChem-04052303043D

 89 98  0     1  0  0  0  0  0999 V2000
  -22.4781   -7.0383   24.2192 C   0  0  0  0  0  0  0  0  0  0  0  0
  -23.7689   -7.5418   24.3451 C   0  0  0  0  0  0  0  0  0  0  0  0
  -29.5474  -23.1890   19.7139 C   0  0  0  0  0  0  0  0  0  0  0  0
  -22.8654  -29.6456   25.1728 C   0  0  0  0  0  0  0  0  0  0  0  0
  -24.3906  -29.8427   23.3095 C   0  0  0  0  0  0  0  0  0  0  0  0
  -21.7202   -7.3412   23.0888 C   0  0  0  0  0  0  0  0  0  0  0  0
  -24.3029   -8.3476   23.3402 C   0  0  0  0  0  0  0  0  0  0  0  0
  -28.7593  -13.8760   22.3947 C   0  0  0  0  0  0  0  0  0  0  0  0
  -30.3894  -22.1822   20.1860 C   0  0  0  0  0  0  0  0  0  0  0  0
  -28.2911  -23.3752   20.2909 C   0  0  0  0  0  0  0  0  0  0  0  0
  -23.3049  -30.8755   25.6626 C   0  0  0  0  0  0  0  0  0  0  0  0
  -24.8301  -31.0726   23.7993 C   0  0  0  0  0  0  0  0  0  0  0  0
  -29.8773  -14.2425   21.6467 C   0  0  0  0  0  0  0  0  0  0  0  0
  -23.7442  -34.2727   23.8268 C   0  0  0  0  0  0  0  0  0  0  0  0
  -23.8794  -35.3204   22.9159 C   0  0  0  0  0  0  0  0  0  0  0  0
  -28.4469  -14.7643   19.7757 C   0  0  0  0  0  0  0  0  0  0  0  0
  -28.7189  -21.5475   21.8120 C   0  0  0  0  0  0  0  0  0  0  0  0
  -26.2298  -35.4827   23.4515 C   0  0  0  0  0  0  0  0  0  0  0  0
  -23.4083  -29.1292   23.9963 C   0  0  0  0  0  0  0  0  0  0  0  0
  -21.8924  -27.6299   22.5957 C   0  0  0  0  0  0  0  0  0  0  0  0
  -22.2417   -8.1591   22.0740 C   0  0  0  0  0  0  0  0  0  0  0  0
  -27.4755  -13.9406   21.8343 C   0  0  0  0  0  0  0  0  0  0  0  0
  -23.5517   -8.6606   22.1946 C   0  0  0  0  0  0  0  0  0  0  0  0
  -27.3140  -14.4005   20.5195 C   0  0  0  0  0  0  0  0  0  0  0  0
  -29.9752  -21.3614   21.2350 C   0  0  0  0  0  0  0  0  0  0  0  0
  -27.8769  -22.5544   21.3399 C   0  0  0  0  0  0  0  0  0  0  0  0
  -24.2872  -31.5890   24.9759 C   0  0  0  0  0  0  0  0  0  0  0  0
  -29.7215  -14.6839   20.3360 C   0  0  0  0  0  0  0  0  0  0  0  0
  -24.8518  -33.8300   24.5501 C   0  0  0  0  0  0  0  0  0  0  0  0
  -25.1222  -35.9254   22.7283 C   0  0  0  0  0  0  0  0  0  0  0  0
  -26.0945  -34.4350   24.3624 C   0  0  0  0  0  0  0  0  0  0  0  0
  -22.9552  -27.8585   23.4901 C   0  0  0  0  0  0  0  0  0  0  0  0
  -21.8692  -26.2664   22.4314 C   0  0  0  0  0  0  0  0  0  0  0  0
  -32.2433  -20.3482   21.7134 C   0  0  0  0  0  0  0  0  0  0  0  0
  -21.0054  -28.5662   21.9693 C   0  0  0  0  0  0  0  0  0  0  0  0
  -31.4889  -17.2560   21.2332 C   0  0  0  0  0  0  0  0  0  0  0  0
  -25.1933  -11.8195   21.2049 C   0  0  0  0  0  0  0  0  0  0  0  0
  -23.4912  -14.4663   20.4178 C   0  0  0  0  0  0  0  0  0  0  0  0
  -23.5060  -17.7256   19.4060 C   0  0  0  0  0  0  0  0  0  0  0  0
  -26.0358  -22.0179   22.9736 C   0  0  0  0  0  0  0  0  0  0  0  0
  -21.4019   -8.4201   20.8487 C   0  0  0  0  0  0  0  0  0  0  0  0
  -26.2773  -13.5671   22.6633 C   0  0  0  0  0  0  0  0  0  0  0  0
  -25.9555  -14.5075   19.8782 C   0  0  0  0  0  0  0  0  0  0  0  0
  -32.7231  -19.0800   22.3840 C   0  0  0  0  0  0  0  0  0  0  0  0
  -21.9042   -9.5879   20.0036 C   0  0  0  0  0  0  0  0  0  0  0  0
  -22.9399  -22.1998   24.7227 C   0  0  0  0  0  0  0  0  0  0  0  0
  -23.4125   -9.4887   19.7986 C   0  0  0  0  0  0  0  0  0  0  0  0
  -22.4928  -23.6491   24.5186 C   0  0  0  0  0  0  0  0  0  0  0  0
  -24.4546  -22.0917   24.8892 C   0  0  0  0  0  0  0  0  0  0  0  0
  -30.3231  -19.1388   22.3662 C   0  0  0  0  0  0  0  0  0  0  0  0
  -24.7959  -24.1763   23.6214 C   0  0  0  0  0  0  0  0  0  0  0  0
  -24.1569   -9.5585   21.1374 C   0  0  1  0  0  0  0  0  0  0  0  0
  -31.4992  -18.1824   22.4134 C   0  0  1  0  0  0  0  0  0  0  0  0
  -25.0643  -13.1837   21.8213 C   0  0  1  0  0  0  0  0  0  0  0  0
  -23.2845  -24.3287   23.3842 C   0  0  2  0  0  0  0  0  0  0  0  0
  -22.5879  -19.9886   18.8284 C   0  0  0  0  0  0  0  0  0  0  0  0
  -22.9246  -13.1483   17.7249 C   0  0  0  0  0  0  0  0  0  0  0  0
  -22.2247  -15.3889   16.8541 C   0  0  0  0  0  0  0  0  0  0  0  0
  -20.9704  -14.3369   18.7363 C   0  0  0  0  0  0  0  0  0  0  0  0
  -32.2983  -13.4803   20.6463 C   0  0  0  0  0  0  0  0  0  0  0  0
  -33.1468  -15.3432   19.2112 C   0  0  0  0  0  0  0  0  0  0  0  0
  -23.7176  -18.6547   22.2079 C   0  0  0  0  0  0  0  0  0  0  0  0
  -32.1435  -15.8965   21.4443 C   0  0  0  0  0  0  0  0  0  0  0  0
  -23.2835  -15.2675   19.1553 C   0  0  1  0  0  0  0  0  0  0  0  0
  -22.7588  -18.9432   19.9196 C   0  0  2  0  0  0  0  0  0  0  0  0
  -22.3767  -14.5317   18.1288 C   0  0  0  0  0  0  0  0  0  0  0  0
  -32.0840  -14.9400   20.2405 C   0  0  0  0  0  0  0  0  0  1  0  0
  -23.5630  -26.7307   23.8677 N   0  0  0  0  0  0  0  0  0  0  0  0
  -22.8799  -25.7802   23.2074 N   0  0  0  0  0  0  0  0  0  0  0  0
  -30.8379  -20.3312   21.7180 N   0  0  0  0  0  0  0  0  0  0  0  0
  -24.8153  -14.1248   20.7273 N   0  0  0  0  0  0  0  0  0  0  0  0
  -25.1383  -22.7537   23.7760 N   0  0  0  0  0  0  0  0  0  0  0  0
  -21.0829  -25.4480   21.7004 N   0  0  0  0  0  0  0  0  0  0  0  0
  -21.1684  -29.9301   22.2479 N   0  0  0  0  0  0  0  0  0  0  0  0
  -26.6007  -22.7441   21.9257 N   0  0  0  0  0  0  0  0  0  0  0  0
  -24.2208  -10.9251   21.6095 N   0  0  0  0  0  0  0  0  0  0  0  0
  -22.7755  -16.5686   19.5764 N   0  0  0  0  0  0  0  0  0  0  0  0
  -23.4990  -19.5646   21.0541 N   0  3  0  0  0  0  0  0  0  0  0  0
  -33.0172  -21.2059   21.3120 O   0  0  0  0  0  0  0  0  0  0  0  0
  -20.0849  -28.2028   21.1986 O   0  0  0  0  0  0  0  0  0  0  0  0
  -31.0188  -17.6156   20.1554 O   0  0  0  0  0  0  0  0  0  0  0  0
  -26.1067  -11.5955   20.4192 O   0  0  0  0  0  0  0  0  0  0  0  0
  -22.5153  -14.1611   21.1077 O   0  0  0  0  0  0  0  0  0  0  0  0
  -24.6241  -17.7945   18.9004 O   0  0  0  0  0  0  0  0  0  0  0  0
  -26.2642  -20.8238   23.1830 O   0  0  0  0  0  0  0  0  0  0  0  0
  -24.7161  -32.7892   25.4534 O   0  0  0  0  0  0  0  0  0  0  0  0
  -30.8111  -15.0417   19.6035 O   0  0  0  0  0  0  0  0  0  1  0  0
  -25.2522  -36.9304   21.8524 F   0  0  0  0  0  0  0  0  0  0  0  0
  -27.1624  -34.0132   25.0535 F   0  0  0  0  0  0  0  0  0  0  0  0
  1  2  1  0  0  0  0
  1  6  2  0  0  0  0
  2  7  2  0  0  0  0
  3  9  2  0  0  0  0
  3 10  1  0  0  0  0
  4 11  2  0  0  0  0
  4 19  1  0  0  0  0
  5 12  1  0  0  0  0
  5 19  2  0  0  0  0
  6 21  1  0  0  0  0
  7 23  1  0  0  0  0
  8 13  2  0  0  0  0
  8 22  1  0  0  0  0
  9 25  1  0  0  0  0
 10 26  2  0  0  0  0
 11 27  1  0  0  0  0
 12 27  2  0  0  0  0
 13 28  1  0  0  0  0
 14 15  2  0  0  0  0
 14 29  1  0  0  0  0
 15 30  1  0  0  0  0
 16 24  1  0  0  0  0
 16 28  2  0  0  0  0
 17 25  2  0  0  0  0
 17 26  1  0  0  0  0
 18 30  2  0  0  0  0
 18 31  1  0  0  0  0
 19 32  1  0  0  0  0
 20 32  1  0  0  0  0
 20 33  2  0  0  0  0
 20 35  1  0  0  0  0
 21 23  2  0  0  0  0
 21 41  1  0  0  0  0
 22 24  2  0  0  0  0
 22 42  1  0  0  0  0
 23 52  1  0  0  0  0
 24 43  1  0  0  0  0
 25 70  1  0  0  0  0
 26 75  1  0  0  0  0
 27 86  1  0  0  0  0
 28 87  1  0  0  0  0
 29 31  2  0  0  0  0
 29 86  1  0  0  0  0
 30 88  1  0  0  0  0
 31 89  1  0  0  0  0
 32 68  2  0  0  0  0
 33 69  1  0  0  0  0
 33 73  1  0  0  0  0
 34 44  1  0  0  0  0
 34 70  1  0  0  0  0
 34 79  2  0  0  0  0
 35 74  1  0  0  0  0
 35 80  2  0  0  0  0
 36 53  1  0  0  0  0
 36 63  1  0  0  0  0
 36 81  2  0  0  0  0
 37 54  1  0  0  0  0
 37 76  1  0  0  0  0
 37 82  2  0  0  0  0
 38 64  1  0  0  0  0
 38 71  1  0  0  0  0
 38 83  2  0  0  0  0
 39 65  1  0  0  0  0
 39 77  1  0  0  0  0
 39 84  2  0  0  0  0
 40 72  1  0  0  0  0
 40 75  1  0  0  0  0
 40 85  2  0  0  0  0
 41 45  1  0  0  0  0
 42 54  1  0  0  0  0
 43 71  1  0  0  0  0
 44 53  1  0  0  0  0
 45 47  1  0  0  0  0
 46 48  1  0  0  0  0
 46 49  1  0  0  0  0
 47 52  1  0  0  0  0
 48 55  1  0  0  0  0
 49 72  1  0  0  0  0
 50 53  1  0  0  0  0
 50 70  1  0  0  0  0
 51 55  1  0  0  0  0
 51 72  1  0  0  0  0
 52 76  1  0  0  0  0
 54 71  1  0  0  0  0
 55 69  1  0  0  0  0
 56 65  1  0  0  0  0
 57 66  1  0  0  0  0
 58 66  1  0  0  0  0
 59 66  1  0  0  0  0
 60 67  1  0  0  0  0
 61 67  1  0  0  0  0
 62 78  1  0  0  0  0
 63 67  1  0  0  0  0
 64 66  1  0  0  0  0
 64 77  1  0  0  0  0
 65 78  1  0  0  0  0
 67 87  1  0  0  0  0
 68 69  1  0  0  0  0
M  CHG  1  78   1
M  ISO  4  40 100  67 101  75 100  87 101
M  END
> <Batch ID>
0144

> <Smiles>
CNC(C)C(=O)NC(C(=O)N1Cc2cc([101O:1][101C:1](C)(C)CC(=O)C3CC(=O)N(c4cccc([100NH:0][100C:0](=O)N5CCCC(n6nc(-c7ccc(Oc8ccc(F)cc8F)cc7)c(C(N)=O)c6N)C5)c4)C3)ccc2CC1C(=O)NC1CCCc2ccccc21)C(C)(C)C

> <Shape>
0.255

> <Color>
0.075

> <Negative vol penalty>
0.000

$$$$

  -OEChem-04052303043D

 91 99  0     1  0  0  0  0  0999 V2000
  -29.5186  -23.1017   20.0036 C   0  0  0  0  0  0  0  0  0  0  0  0
  -28.1542  -23.3583   19.9149 C   0  0  0  0  0  0  0  0  0  0  0  0
  -26.5716  -12.5253   20.2356 C   0  0  0  0  0  0  0  0  0  0  0  0
  -24.6989  -14.0397   20.4266 C   0  0  0  0  0  0  0  0  0  0  0  0
  -30.2864  -23.7462   20.9726 C   0  0  0  0  0  0  0  0  0  0  0  0
  -27.5565  -24.2587   20.7961 C   0  0  0  0  0  0  0  0  0  0  0  0
  -22.9138  -28.0642   19.5841 C   0  0  0  0  0  0  0  0  0  0  0  0
  -25.7594  -11.4690   20.6481 C   0  0  0  0  0  0  0  0  0  0  0  0
  -23.8867  -12.9834   20.8390 C   0  0  0  0  0  0  0  0  0  0  0  0
  -21.5437  -27.9799   19.8281 C   0  0  0  0  0  0  0  0  0  0  0  0
  -24.5128  -10.2734   23.5534 C   0  0  0  0  0  0  0  0  0  0  0  0
  -25.0269   -9.3962   24.5082 C   0  0  0  0  0  0  0  0  0  0  0  0
  -21.8306  -29.2652   21.8493 C   0  0  0  0  0  0  0  0  0  0  0  0
  -25.6383  -21.6664   23.0950 C   0  0  0  0  0  0  0  0  0  0  0  0
  -25.3618  -23.1735   24.9629 C   0  0  0  0  0  0  0  0  0  0  0  0
  -27.4843  -22.0785   24.5981 C   0  0  0  0  0  0  0  0  0  0  0  0
  -24.7829   -7.5622   22.9546 C   0  0  0  0  0  0  0  0  0  0  0  0
  -26.0414  -13.8107   20.1250 C   0  0  0  0  0  0  0  0  0  0  0  0
  -27.1000  -15.3412   18.3801 C   0  0  0  0  0  0  0  0  0  0  0  0
  -29.6996  -24.6622   21.8598 C   0  0  0  0  0  0  0  0  0  0  0  0
  -23.7556  -28.7415   20.4781 C   0  0  0  0  0  0  0  0  0  0  0  0
  -28.3169  -24.9150   21.7788 C   0  0  0  0  0  0  0  0  0  0  0  0
  -23.2107  -29.3588   21.6130 C   0  0  0  0  0  0  0  0  0  0  0  0
  -24.8386  -22.5337   23.8392 C   0  0  0  0  0  0  0  0  0  0  0  0
  -26.9611  -21.4387   23.4744 C   0  0  0  0  0  0  0  0  0  0  0  0
  -24.4170  -11.6980   20.9498 C   0  0  0  0  0  0  0  0  0  0  0  0
  -21.0023  -28.5779   20.9623 C   0  0  0  0  0  0  0  0  0  0  0  0
  -24.1336   -9.7951   22.2992 C   0  0  0  0  0  0  0  0  0  0  0  0
  -25.1620   -8.0406   24.2088 C   0  0  0  0  0  0  0  0  0  0  0  0
  -26.6847  -22.9459   25.3423 C   0  0  0  0  0  0  0  0  0  0  0  0
  -24.2687   -8.4394   21.9997 C   0  0  0  0  0  0  0  0  0  0  0  0
  -26.8800  -14.9024   19.6995 C   0  0  0  0  0  0  0  0  0  0  0  0
  -27.9671  -16.3984   18.5099 C   0  0  0  0  0  0  0  0  0  0  0  0
  -26.5681  -14.8381   17.1473 C   0  0  0  0  0  0  0  0  0  0  0  0
  -26.2185  -27.9100   22.3073 C   0  0  0  0  0  0  0  0  0  0  0  0
  -18.2804  -26.1602   22.8557 C   0  0  0  0  0  0  0  0  0  0  0  0
  -26.3741  -31.1003   22.8732 C   0  0  0  0  0  0  0  0  0  0  0  0
  -22.7464  -23.9213   23.6476 C   0  0  0  0  0  0  0  0  0  0  0  0
  -24.7672  -34.1100   22.9551 C   0  0  0  0  0  0  0  0  0  0  0  0
  -29.1057  -20.2216   22.9587 C   0  0  0  0  0  0  0  0  0  0  0  0
  -30.5615  -25.2987   22.9213 C   0  0  0  0  0  0  0  0  0  0  0  0
  -25.2275  -28.8462   20.1866 C   0  0  0  0  0  0  0  0  0  0  0  0
  -24.0685  -30.1150   22.5932 C   0  0  0  0  0  0  0  0  0  0  0  0
  -29.9209  -26.5209   23.5740 C   0  0  0  0  0  0  0  0  0  0  0  0
  -31.4407  -18.0651   21.3543 C   0  0  0  0  0  0  0  0  0  0  0  0
  -28.4706  -26.2290   23.9457 C   0  0  0  0  0  0  0  0  0  0  0  0
  -30.5561  -17.0529   20.6229 C   0  0  0  0  0  0  0  0  0  0  0  0
  -30.8466  -18.4670   22.7032 C   0  0  0  0  0  0  0  0  0  0  0  0
  -28.5731  -17.9288   21.9218 C   0  0  0  0  0  0  0  0  0  0  0  0
  -27.6367  -25.9038   22.7006 C   0  0  1  0  0  0  0  0  0  0  0  0
  -26.0650  -29.1214   21.4317 C   0  0  1  0  0  0  0  0  0  0  0  0
  -29.0978  -17.5430   20.5292 C   0  0  2  0  0  0  0  0  0  0  0  0
  -18.2417  -23.7084   23.2652 C   0  0  0  0  0  0  0  0  0  0  0  0
  -25.1466  -36.5316   23.4930 C   0  0  0  0  0  0  0  0  0  0  0  0
  -17.0557  -28.2190   22.0783 C   0  0  0  0  0  0  0  0  0  0  0  0
  -16.8036  -26.0858   20.8171 C   0  0  0  0  0  0  0  0  0  0  0  0
  -26.2896  -30.4492   25.8529 C   0  0  0  0  0  0  0  0  0  0  0  0
  -25.7161  -32.8469   26.2895 C   0  0  0  0  0  0  0  0  0  0  0  0
  -27.8953  -32.2612   25.2262 C   0  0  0  0  0  0  0  0  0  0  0  0
  -24.1094  -34.9462   20.1934 C   0  0  0  0  0  0  0  0  0  0  0  0
  -21.3416  -23.7529   23.0827 C   0  0  0  0  0  0  0  0  0  0  0  0
  -20.4544  -24.9867   23.2573 C   0  0  0  0  0  0  0  0  0  0  0  0
  -18.9885  -27.3360   20.7215 C   0  0  0  0  0  0  0  0  0  1  0  0
  -19.0471  -24.8497   22.6463 C   0  0  2  0  0  0  0  0  0  0  0  0
  -25.7628  -32.0374   23.8866 C   0  0  1  0  0  0  0  0  0  0  0  0
  -25.1495  -35.4713   22.4028 C   0  0  2  0  0  0  0  0  0  0  0  0
  -17.7948  -26.9472   21.6155 C   0  0  0  0  0  0  0  0  0  0  0  0
  -26.3998  -31.8829   25.2965 C   0  0  0  0  0  0  0  0  0  0  0  0
  -27.5532  -15.6220   20.6012 N   0  0  0  0  0  0  0  0  0  0  0  0
  -28.2048  -16.5235   19.8471 N   0  0  0  0  0  0  0  0  0  0  0  0
  -25.5026  -30.1840   22.2677 N   0  0  0  0  0  0  0  0  0  0  0  0
  -29.4655  -18.9245   22.5358 N   0  0  0  0  0  0  0  0  0  0  0  0
  -28.5419  -17.2239   17.6096 N   0  0  0  0  0  0  0  0  0  0  0  0
  -25.6907  -13.7462   17.1944 N   0  0  0  0  0  0  0  0  0  0  0  0
  -23.4963  -22.7648   23.4549 N   0  0  0  0  0  0  0  0  0  0  0  0
  -27.7736  -20.5575   22.7188 N   0  0  0  0  0  0  0  0  0  0  0  0
  -27.3030  -27.1166   21.9849 N   0  0  0  0  0  0  0  0  0  0  0  0
  -25.8765  -33.3784   23.3233 N   0  0  0  0  0  0  0  0  0  0  0  0
  -24.1908  -35.8871   21.3403 N   0  3  0  0  0  0  0  0  0  0  0  0
  -26.8749  -15.3316   16.0357 O   0  0  0  0  0  0  0  0  0  0  0  0
  -25.4137  -27.7108   23.2096 O   0  0  0  0  0  0  0  0  0  0  0  0
  -18.0619  -26.5678   24.0005 O   0  0  0  0  0  0  0  0  0  0  0  0
  -27.5791  -31.1832   22.6225 O   0  0  0  0  0  0  0  0  0  0  0  0
  -23.1003  -24.9505   24.2134 O   0  0  0  0  0  0  0  0  0  0  0  0
  -23.6011  -33.7347   23.0538 O   0  0  0  0  0  0  0  0  0  0  0  0
  -29.9259  -20.9885   23.4695 O   0  0  0  0  0  0  0  0  0  0  0  0
  -23.6241  -10.6674   21.3520 O   0  0  0  0  0  0  0  0  0  0  0  0
  -19.6567  -28.4961   21.2048 O   0  0  0  0  0  0  0  0  0  1  0  0
  -25.6572   -7.1985   25.1253 F   0  0  0  0  0  0  0  0  0  0  0  0
  -27.1871  -23.5595   26.4218 F   0  0  0  0  0  0  0  0  0  0  0  0
  -23.9074   -7.9742   20.7961 F   0  0  0  0  0  0  0  0  0  0  0  0
  1  2  1  0  0  0  0
  1  5  2  0  0  0  0
  2  6  2  0  0  0  0
  3  8  2  0  0  0  0
  3 18  1  0  0  0  0
  4  9  1  0  0  0  0
  4 18  2  0  0  0  0
  5 20  1  0  0  0  0
  6 22  1  0  0  0  0
  7 10  2  0  0  0  0
  7 21  1  0  0  0  0
  8 26  1  0  0  0  0
  9 26  2  0  0  0  0
 10 27  1  0  0  0  0
 11 12  2  0  0  0  0
 11 28  1  0  0  0  0
 12 29  1  0  0  0  0
 13 23  1  0  0  0  0
 13 27  2  0  0  0  0
 14 24  2  0  0  0  0
 14 25  1  0  0  0  0
 15 24  1  0  0  0  0
 15 30  2  0  0  0  0
 16 25  2  0  0  0  0
 16 30  1  0  0  0  0
 17 29  2  0  0  0  0
 17 31  1  0  0  0  0
 18 32  1  0  0  0  0
 19 32  1  0  0  0  0
 19 33  2  0  0  0  0
 19 34  1  0  0  0  0
 20 22  2  0  0  0  0
 20 41  1  0  0  0  0
 21 23  2  0  0  0  0
 21 42  1  0  0  0  0
 22 50  1  0  0  0  0
 23 43  1  0  0  0  0
 24 75  1  0  0  0  0
 25 76  1  0  0  0  0
 26 87  1  0  0  0  0
 27 88  1  0  0  0  0
 28 31  2  0  0  0  0
 28 87  1  0  0  0  0
 29 89  1  0  0  0  0
 30 90  1  0  0  0  0
 31 91  1  0  0  0  0
 32 69  2  0  0  0  0
 33 70  1  0  0  0  0
 33 73  1  0  0  0  0
 34 74  1  0  0  0  0
 34 80  2  0  0  0  0
 35 51  1  0  0  0  0
 35 77  1  0  0  0  0
 35 81  2  0  0  0  0
 36 64  1  0  0  0  0
 36 67  1  0  0  0  0
 36 82  2  0  0  0  0
 37 65  1  0  0  0  0
 37 71  1  0  0  0  0
 37 83  2  0  0  0  0
 38 61  1  0  0  0  0
 38 75  1  0  0  0  0
 38 84  2  0  0  0  0
 39 66  1  0  0  0  0
 39 78  1  0  0  0  0
 39 85  2  0  0  0  0
 40 72  1  0  0  0  0
 40 76  1  0  0  0  0
 40 86  2  0  0  0  0
 41 44  1  0  0  0  0
 42 51  1  0  0  0  0
 43 71  1  0  0  0  0
 44 46  1  0  0  0  0
 45 47  1  0  0  0  0
 45 48  1  0  0  0  0
 46 50  1  0  0  0  0
 47 52  1  0  0  0  0
 48 72  1  0  0  0  0
 49 52  1  0  0  0  0
 49 72  1  0  0  0  0
 50 77  1  0  0  0  0
 51 71  1  0  0  0  0
 52 70  1  0  0  0  0
 53 64  1  0  0  0  0
 54 66  1  0  0  0  0
 55 67  1  0  0  0  0
 56 67  1  0  0  0  0
 57 68  1  0  0  0  0
 58 68  1  0  0  0  0
 59 68  1  0  0  0  0
 60 79  1  0  0  0  0
 61 62  1  0  0  0  0
 62 64  1  0  0  0  0
 63 67  1  0  0  0  0
 63 88  1  0  0  0  0
 65 68  1  0  0  0  0
 65 78  1  0  0  0  0
 66 79  1  0  0  0  0
 69 70  1  0  0  0  0
M  CHG  1  79   1
M  ISO  4  40 100  63 101  76 100  88 101
M  END
> <Batch ID>
0144

> <Smiles>
CNC(C)C(=O)NC(C(=O)N1Cc2cc([101O:1][101CH2:1]C(C)(C)C(=O)C(C)CCC(=O)Nc3cc(F)cc([100NH:0][100C:0](=O)N4CCCC(n5nc(-c6ccc(Oc7ccc(F)cc7F)cc6)c(C(N)=O)c5N)C4)c3)ccc2CC1C(=O)NC1CCCc2ccccc21)C(C)(C)C

> <Shape>
0.271

> <Color>
0.046

> <Negative vol penalty>
0.000

$$$$

  -OEChem-04052303043D

 86 94  0     1  0  0  0  0  0999 V2000
  -22.3960   -7.8873   23.8284 C   0  0  0  0  0  0  0  0  0  0  0  0
  -23.4312   -8.5847   23.2142 C   0  0  0  0  0  0  0  0  0  0  0  0
  -24.3743  -29.1507   19.7089 C   0  0  0  0  0  0  0  0  0  0  0  0
  -24.4997  -28.3000   21.9667 C   0  0  0  0  0  0  0  0  0  0  0  0
  -21.0769   -8.3039   23.6545 C   0  0  0  0  0  0  0  0  0  0  0  0
  -23.1478   -9.6986   22.4247 C   0  0  0  0  0  0  0  0  0  0  0  0
  -26.2580  -13.5842   23.3592 C   0  0  0  0  0  0  0  0  0  0  0  0
  -23.0605  -29.5604   19.9362 C   0  0  0  0  0  0  0  0  0  0  0  0
  -23.1859  -28.7097   22.1941 C   0  0  0  0  0  0  0  0  0  0  0  0
  -27.5355  -13.5249   22.8042 C   0  0  0  0  0  0  0  0  0  0  0  0
  -20.0722  -27.6071   21.4730 C   0  0  0  0  0  0  0  0  0  0  0  0
  -19.2167  -26.7132   22.1169 C   0  0  0  0  0  0  0  0  0  0  0  0
  -26.8270  -14.9988   21.0308 C   0  0  0  0  0  0  0  0  0  0  0  0
  -29.9358  -20.0590   22.3812 C   0  0  0  0  0  0  0  0  0  0  0  0
  -18.8878  -28.3114   23.8986 C   0  0  0  0  0  0  0  0  0  0  0  0
  -29.6180  -20.2722   24.6738 C   0  0  0  0  0  0  0  0  0  0  0  0
  -25.0939  -28.5204   20.7242 C   0  0  0  0  0  0  0  0  0  0  0  0
  -27.6243  -28.8433   20.7063 C   0  0  0  0  0  0  0  0  0  0  0  0
  -20.7779   -9.4292   22.8703 C   0  0  0  0  0  0  0  0  0  0  0  0
  -25.2506  -14.3438   22.7471 C   0  0  0  0  0  0  0  0  0  0  0  0
  -21.8233  -10.1299   22.2390 C   0  0  0  0  0  0  0  0  0  0  0  0
  -25.5382  -15.0681   21.5814 C   0  0  0  0  0  0  0  0  0  0  0  0
  -30.1197  -19.4757   23.6681 C   0  0  0  0  0  0  0  0  0  0  0  0
  -22.4663  -29.3400   21.1788 C   0  0  0  0  0  0  0  0  0  0  0  0
  -27.8194  -14.2299   21.6382 C   0  0  0  0  0  0  0  0  0  0  0  0
  -20.3355  -28.8532   22.0419 C   0  0  0  0  0  0  0  0  0  0  0  0
  -18.6245  -27.0653   23.3297 C   0  0  0  0  0  0  0  0  0  0  0  0
  -19.7433  -29.2053   23.2547 C   0  0  0  0  0  0  0  0  0  0  0  0
  -26.4509  -28.0964   20.4898 C   0  0  0  0  0  0  0  0  0  0  0  0
  -28.6420  -27.9999   20.3329 C   0  0  0  0  0  0  0  0  0  0  0  0
  -29.3002  -21.2792   22.4524 C   0  0  0  0  0  0  0  0  0  0  0  0
  -27.7804  -30.1800   21.2008 C   0  0  0  0  0  0  0  0  0  0  0  0
  -22.4214  -13.6906   21.4538 C   0  0  0  0  0  0  0  0  0  0  0  0
  -31.8584  -16.1564   23.4293 C   0  0  0  0  0  0  0  0  0  0  0  0
  -31.4168  -14.6300   21.4437 C   0  0  0  0  0  0  0  0  0  0  0  0
  -22.2093  -16.9204   21.2405 C   0  0  0  0  0  0  0  0  0  0  0  0
  -23.8193  -19.9253   21.0799 C   0  0  0  0  0  0  0  0  0  0  0  0
  -29.1203  -22.0499   20.0608 C   0  0  0  0  0  0  0  0  0  0  0  0
  -19.3329   -9.8135   22.6730 C   0  0  0  0  0  0  0  0  0  0  0  0
  -23.8850  -14.4188   23.3731 C   0  0  0  0  0  0  0  0  0  0  0  0
  -24.4974  -15.9146   20.8967 C   0  0  0  0  0  0  0  0  0  0  0  0
  -19.1476  -11.2263   22.1255 C   0  0  0  0  0  0  0  0  0  0  0  0
  -29.5872  -24.3485   17.3820 C   0  0  0  0  0  0  0  0  0  0  0  0
  -20.0938  -11.4735   20.9549 C   0  0  0  0  0  0  0  0  0  0  0  0
  -28.9481  -25.6402   17.8971 C   0  0  0  0  0  0  0  0  0  0  0  0
  -28.8126  -23.1124   17.8356 C   0  0  0  0  0  0  0  0  0  0  0  0
  -27.9346  -24.3171   19.7970 C   0  0  0  0  0  0  0  0  0  0  0  0
  -21.5581  -11.3578   21.3951 C   0  0  1  0  0  0  0  0  0  0  0  0
  -22.7940  -14.8121   22.3818 C   0  0  1  0  0  0  0  0  0  0  0  0
  -28.7165  -25.5860   19.4199 C   0  0  2  0  0  0  0  0  0  0  0  0
  -23.3795  -22.3871   20.8722 C   0  0  0  0  0  0  0  0  0  0  0  0
  -33.6692  -15.7867   21.7404 C   0  0  0  0  0  0  0  0  0  0  0  0
  -32.9723  -13.9085   23.2353 C   0  0  0  0  0  0  0  0  0  0  0  0
  -21.6055  -16.5596   18.2715 C   0  0  0  0  0  0  0  0  0  0  0  0
  -22.1161  -18.9886   17.9438 C   0  0  0  0  0  0  0  0  0  0  0  0
  -20.2212  -18.3014   19.4134 C   0  0  0  0  0  0  0  0  0  0  0  0
  -25.1009  -20.4920   23.6867 C   0  0  0  0  0  0  0  0  0  0  0  0
  -31.2562  -17.4179   22.8318 C   0  0  0  0  0  0  0  0  0  0  0  0
  -30.1579  -13.9789   21.9913 C   0  0  0  0  0  0  0  0  0  1  0  0
  -22.5958  -17.9513   20.2076 C   0  0  1  0  0  0  0  0  0  0  0  0
  -23.6003  -21.2267   21.8300 C   0  0  2  0  0  0  0  0  0  0  0  0
  -32.4741  -15.1314   22.4461 C   0  0  0  0  0  0  0  0  0  0  0  0
  -21.6539  -17.9328   18.9707 C   0  0  0  0  0  0  0  0  0  0  0  0
  -26.6988  -26.8726   20.0155 N   0  0  0  0  0  0  0  0  0  0  0  0
  -28.0397  -26.8442   19.9308 N   0  0  0  0  0  0  0  0  0  0  0  0
  -23.1755  -15.9507   21.5438 N   0  0  0  0  0  0  0  0  0  0  0  0
  -28.6352  -23.1270   19.2893 N   0  0  0  0  0  0  0  0  0  0  0  0
  -29.9843  -28.1416   20.3126 N   0  0  0  0  0  0  0  0  0  0  0  0
  -26.6301  -30.9065   21.5376 N   0  0  0  0  0  0  0  0  0  0  0  0
  -30.7316  -18.2502   23.8855 N   0  0  0  0  0  0  0  0  0  0  0  0
  -28.9234  -22.1897   21.4342 N   0  0  0  0  0  0  0  0  0  0  0  0
  -21.9707  -12.5539   22.0975 N   0  0  0  0  0  0  0  0  0  0  0  0
  -22.6404  -19.2317   20.9055 N   0  0  0  0  0  0  0  0  0  0  0  0
  -24.7827  -21.5389   22.6818 N   0  3  0  0  0  0  0  0  0  0  0  0
  -28.9058  -30.7203   21.3245 O   0  0  0  0  0  0  0  0  0  0  0  0
  -22.5329  -13.8456   20.2433 O   0  0  0  0  0  0  0  0  0  0  0  0
  -31.8491  -15.9573   24.6460 O   0  0  0  0  0  0  0  0  0  0  0  0
  -31.5642  -14.7952   20.2301 O   0  0  0  0  0  0  0  0  0  0  0  0
  -21.0940  -16.9778   21.7644 O   0  0  0  0  0  0  0  0  0  0  0  0
  -24.9250  -19.5622   20.6847 O   0  0  0  0  0  0  0  0  0  0  0  0
  -29.6943  -21.0880   19.5438 O   0  0  0  0  0  0  0  0  0  0  0  0
  -21.1844  -29.7399   21.4010 O   0  0  0  0  0  0  0  0  0  0  0  0
  -29.0654  -14.1733   21.0940 O   0  0  0  0  0  0  0  0  0  1  0  0
  -17.8018  -26.2073   23.9472 F   0  0  0  0  0  0  0  0  0  0  0  0
  -19.9915  -30.4014   23.8056 F   0  0  0  0  0  0  0  0  0  0  0  0
  -28.9285  -21.7169   24.0657 S   0  0  0  0  0  0  0  0  0  0  0  0
  1  2  1  0  0  0  0
  1  5  2  0  0  0  0
  2  6  2  0  0  0  0
  3  8  2  0  0  0  0
  3 17  1  0  0  0  0
  4  9  1  0  0  0  0
  4 17  2  0  0  0  0
  5 19  1  0  0  0  0
  6 21  1  0  0  0  0
  7 10  2  0  0  0  0
  7 20  1  0  0  0  0
  8 24  1  0  0  0  0
  9 24  2  0  0  0  0
 10 25  1  0  0  0  0
 11 12  2  0  0  0  0
 11 26  1  0  0  0  0
 12 27  1  0  0  0  0
 13 22  1  0  0  0  0
 13 25  2  0  0  0  0
 14 23  1  0  0  0  0
 14 31  2  0  0  0  0
 15 27  2  0  0  0  0
 15 28  1  0  0  0  0
 16 23  2  0  0  0  0
 16 86  1  0  0  0  0
 17 29  1  0  0  0  0
 18 29  1  0  0  0  0
 18 30  2  0  0  0  0
 18 32  1  0  0  0  0
 19 21  2  0  0  0  0
 19 39  1  0  0  0  0
 20 22  2  0  0  0  0
 20 40  1  0  0  0  0
 21 48  1  0  0  0  0
 22 41  1  0  0  0  0
 23 70  1  0  0  0  0
 24 82  1  0  0  0  0
 25 83  1  0  0  0  0
 26 28  2  0  0  0  0
 26 82  1  0  0  0  0
 27 84  1  0  0  0  0
 28 85  1  0  0  0  0
 29 64  2  0  0  0  0
 30 65  1  0  0  0  0
 30 68  1  0  0  0  0
 31 71  1  0  0  0  0
 31 86  1  0  0  0  0
 32 69  1  0  0  0  0
 32 75  2  0  0  0  0
 33 49  1  0  0  0  0
 33 72  1  0  0  0  0
 33 76  2  0  0  0  0
 34 58  1  0  0  0  0
 34 62  1  0  0  0  0
 34 77  2  0  0  0  0
 35 59  1  0  0  0  0
 35 62  1  0  0  0  0
 35 78  2  0  0  0  0
 36 60  1  0  0  0  0
 36 66  1  0  0  0  0
 36 79  2  0  0  0  0
 37 61  1  0  0  0  0
 37 73  1  0  0  0  0
 37 80  2  0  0  0  0
 38 67  1  0  0  0  0
 38 71  1  0  0  0  0
 38 81  2  0  0  0  0
 39 42  1  0  0  0  0
 40 49  1  0  0  0  0
 41 66  1  0  0  0  0
 42 44  1  0  0  0  0
 43 45  1  0  0  0  0
 43 46  1  0  0  0  0
 44 48  1  0  0  0  0
 45 50  1  0  0  0  0
 46 67  1  0  0  0  0
 47 50  1  0  0  0  0
 47 67  1  0  0  0  0
 48 72  1  0  0  0  0
 49 66  1  0  0  0  0
 50 65  1  0  0  0  0
 51 61  1  0  0  0  0
 52 62  1  0  0  0  0
 53 62  1  0  0  0  0
 54 63  1  0  0  0  0
 55 63  1  0  0  0  0
 56 63  1  0  0  0  0
 57 74  1  0  0  0  0
 58 70  1  0  0  0  0
 59 83  1  0  0  0  0
 60 63  1  0  0  0  0
 60 73  1  0  0  0  0
 61 74  1  0  0  0  0
 64 65  1  0  0  0  0
M  CHG  1  74   1
M  ISO  4  38 100  59 101  71 100  83 101
M  END
> <Batch ID>
0144

> <Smiles>
CNC(C)C(=O)NC(C(=O)N1Cc2cc([101O:1][101CH2:1]C(=O)C(C)(C)C(=O)CNc3csc([100NH:0][100C:0](=O)N4CCCC(n5nc(-c6ccc(Oc7ccc(F)cc7F)cc6)c(C(N)=O)c5N)C4)c3)ccc2CC1C(=O)NC1CCCc2ccccc21)C(C)(C)C

> <Shape>
0.248

> <Color>
0.074

> <Negative vol penalty>
0.000

$$$$

  -OEChem-04052303043D

 92100  0     1  0  0  0  0  0999 V2000
  -19.3360  -24.7636   24.6503 C   0  0  0  0  0  0  0  0  0  0  0  0
  -20.5726  -24.8269   24.0161 C   0  0  0  0  0  0  0  0  0  0  0  0
  -23.5061  -10.3871   22.6885 C   0  0  0  0  0  0  0  0  0  0  0  0
  -24.0024  -12.2099   24.1946 C   0  0  0  0  0  0  0  0  0  0  0  0
  -18.4059  -25.7857   24.4655 C   0  0  0  0  0  0  0  0  0  0  0  0
  -20.8794  -25.9118   23.1956 C   0  0  0  0  0  0  0  0  0  0  0  0
  -26.3649  -28.5323   22.4553 C   0  0  0  0  0  0  0  0  0  0  0  0
  -31.8414  -19.3778   19.2592 C   0  0  0  0  0  0  0  0  0  0  0  0
  -31.4302  -18.0466   19.3244 C   0  0  0  0  0  0  0  0  0  0  0  0
  -22.8587   -9.7097   23.7217 C   0  0  0  0  0  0  0  0  0  0  0  0
  -23.3549  -11.5325   25.2278 C   0  0  0  0  0  0  0  0  0  0  0  0
  -27.3449  -28.3954   21.4731 C   0  0  0  0  0  0  0  0  0  0  0  0
  -23.7257   -7.8476   26.4061 C   0  0  0  0  0  0  0  0  0  0  0  0
  -23.9993   -6.4886   26.5603 C   0  0  0  0  0  0  0  0  0  0  0  0
  -26.4677  -30.3338   20.3363 C   0  0  0  0  0  0  0  0  0  0  0  0
  -29.5415  -20.0764   19.0154 C   0  0  0  0  0  0  0  0  0  0  0  0
  -21.6640   -5.9786   26.2093 C   0  0  0  0  0  0  0  0  0  0  0  0
  -24.0780  -11.6372   22.9250 C   0  0  0  0  0  0  0  0  0  0  0  0
  -24.1756  -13.2458   20.9474 C   0  0  0  0  0  0  0  0  0  0  0  0
  -18.7052  -26.8885   23.6501 C   0  0  0  0  0  0  0  0  0  0  0  0
  -25.4206  -29.5662   22.3793 C   0  0  0  0  0  0  0  0  0  0  0  0
  -19.9519  -26.9490   22.9986 C   0  0  0  0  0  0  0  0  0  0  0  0
  -25.4783  -30.4831   21.3201 C   0  0  0  0  0  0  0  0  0  0  0  0
  -29.1302  -18.7451   19.0805 C   0  0  0  0  0  0  0  0  0  0  0  0
  -30.8970  -20.3928   19.1048 C   0  0  0  0  0  0  0  0  0  0  0  0
  -30.0746  -17.7302   19.2350 C   0  0  0  0  0  0  0  0  0  0  0  0
  -22.7831  -10.2823   24.9914 C   0  0  0  0  0  0  0  0  0  0  0  0
  -27.3947  -29.2945   20.4119 C   0  0  0  0  0  0  0  0  0  0  0  0
  -22.4212   -8.2721   26.1535 C   0  0  0  0  0  0  0  0  0  0  0  0
  -22.9685   -5.5541   26.4619 C   0  0  0  0  0  0  0  0  0  0  0  0
  -21.3904   -7.3376   26.0551 C   0  0  0  0  0  0  0  0  0  0  0  0
  -24.7473  -12.3373   21.8582 C   0  0  0  0  0  0  0  0  0  0  0  0
  -25.2204  -13.6279   20.1419 C   0  0  0  0  0  0  0  0  0  0  0  0
  -22.8211  -13.7034   20.8391 C   0  0  0  0  0  0  0  0  0  0  0  0
  -22.2559  -29.6986   22.1130 C   0  0  0  0  0  0  0  0  0  0  0  0
  -22.7457  -32.8807   22.5087 C   0  0  0  0  0  0  0  0  0  0  0  0
  -30.5139  -22.8730   18.8920 C   0  0  0  0  0  0  0  0  0  0  0  0
  -24.8720  -35.5382   22.2565 C   0  0  0  0  0  0  0  0  0  0  0  0
  -30.5007  -15.2574   19.4587 C   0  0  0  0  0  0  0  0  0  0  0  0
  -17.6498  -27.9458   23.4429 C   0  0  0  0  0  0  0  0  0  0  0  0
  -24.3863  -29.7161   23.4611 C   0  0  0  0  0  0  0  0  0  0  0  0
  -24.5003  -31.6226   21.2034 C   0  0  0  0  0  0  0  0  0  0  0  0
  -18.1959  -29.2448   22.8558 C   0  0  0  0  0  0  0  0  0  0  0  0
  -29.9039  -11.7565   19.7127 C   0  0  0  0  0  0  0  0  0  0  0  0
  -19.1199  -28.9515   21.6781 C   0  0  0  0  0  0  0  0  0  0  0  0
  -28.4622  -11.6702   20.2186 C   0  0  0  0  0  0  0  0  0  0  0  0
  -30.6525  -12.9357   20.3314 C   0  0  0  0  0  0  0  0  0  0  0  0
  -28.5410  -14.1494   20.7028 C   0  0  0  0  0  0  0  0  0  0  0  0
  -20.3312  -28.1218   22.1206 C   0  0  1  0  0  0  0  0  0  0  0  0
  -23.1579  -30.4997   23.0088 C   0  0  1  0  0  0  0  0  0  0  0  0
  -27.7272  -13.0155   20.0582 C   0  0  2  0  0  0  0  0  0  0  0  0
  -27.6717  -18.4351   18.9842 C   0  0  0  0  0  0  0  0  0  0  0  0
  -32.1702  -31.4544   19.0055 C   0  0  0  0  0  0  0  0  0  0  0  0
  -24.9755  -38.0194   22.6174 C   0  0  0  0  0  0  0  0  0  0  0  0
  -21.1523  -33.3179   19.9436 C   0  0  0  0  0  0  0  0  0  0  0  0
  -22.0816  -35.6405   19.8447 C   0  0  0  0  0  0  0  0  0  0  0  0
  -20.6554  -34.9508   21.7715 C   0  0  0  0  0  0  0  0  0  0  0  0
  -32.2673  -26.6693   17.3843 C   0  0  0  0  0  0  0  0  0  0  0  0
  -32.1668  -26.9329   19.8693 C   0  0  0  0  0  0  0  0  0  0  0  0
  -29.4135  -27.7984   17.1088 C   0  0  0  0  0  0  0  0  0  0  0  0
  -27.0190  -35.2718   24.2760 C   0  0  0  0  0  0  0  0  0  0  0  0
  -31.3697  -24.1355   18.8719 C   0  0  0  0  0  0  0  0  0  0  0  0
  -31.5083  -30.1418   19.4080 C   0  0  0  0  0  0  0  0  0  0  0  0
  -30.5258  -25.4086   18.7083 C   0  0  0  0  0  0  0  0  0  0  0  0
  -30.9389  -29.4140   18.1880 C   0  0  0  0  0  0  0  0  0  0  0  0
  -29.2688  -28.0789   19.5959 C   0  0  0  0  0  0  0  0  0  1  0  0
  -23.0084  -34.0451   21.5844 C   0  0  1  0  0  0  0  0  0  0  0  0
  -25.2158  -36.6493   23.2320 C   0  0  2  0  0  0  0  0  0  0  0  0
  -21.7418  -34.4661   20.7869 C   0  0  0  0  0  0  0  0  0  0  0  0
  -31.3046  -26.7732   18.5929 C   0  0  0  0  0  0  0  0  0  0  0  0
  -30.2668  -28.0053   18.4006 C   0  0  1  0  0  0  0  0  0  0  0  0
  -26.0540  -12.1531   21.6513 N   0  0  0  0  0  0  0  0  0  0  0  0
  -26.3119  -12.9512   20.6012 N   0  0  0  0  0  0  0  0  0  0  0  0
  -23.5039  -31.7232   22.2825 N   0  0  0  0  0  0  0  0  0  0  0  0
  -29.8990  -14.1763   20.1369 N   0  0  0  0  0  0  0  0  0  0  0  0
  -25.3028  -14.4733   19.0927 N   0  0  0  0  0  0  0  0  0  0  0  0
  -21.8745  -13.2098   21.7473 N   0  0  0  0  0  0  0  0  0  0  0  0
  -31.3143  -21.7435   19.0414 N   0  0  0  0  0  0  0  0  0  0  0  0
  -29.6769  -16.3720   19.3050 N   0  0  0  0  0  0  0  0  0  0  0  0
  -21.3022  -28.9616   22.7888 N   0  0  0  0  0  0  0  0  0  0  0  0
  -23.5724  -35.1050   22.4131 N   0  0  0  0  0  0  0  0  0  0  0  0
  -26.6477  -36.5597   23.6355 N   0  3  0  0  0  0  0  0  0  0  0  0
  -22.4575  -14.5131   19.9528 O   0  0  0  0  0  0  0  0  0  0  0  0
  -22.4127  -29.7468   20.8986 O   0  0  0  0  0  0  0  0  0  0  0  0
  -21.9042  -32.9965   23.4031 O   0  0  0  0  0  0  0  0  0  0  0  0
  -29.2923  -22.9111   18.7900 O   0  0  0  0  0  0  0  0  0  0  0  0
  -25.6749  -35.1010   21.4349 O   0  0  0  0  0  0  0  0  0  0  0  0
  -31.6520  -15.1888   19.0207 O   0  0  0  0  0  0  0  0  0  0  0  0
  -22.1513   -9.6217   25.9998 O   0  0  0  0  0  0  0  0  0  0  0  0
  -28.3557  -29.1620   19.4457 O   0  0  0  0  0  0  0  0  0  1  0  0
  -23.2317   -4.2489   26.6086 F   0  0  0  0  0  0  0  0  0  0  0  0
  -20.1353   -7.7393   25.8114 F   0  0  0  0  0  0  0  0  0  0  0  0
  1  2  1  0  0  0  0
  1  5  2  0  0  0  0
  2  6  2  0  0  0  0
  3 10  2  0  0  0  0
  3 18  1  0  0  0  0
  4 11  1  0  0  0  0
  4 18  2  0  0  0  0
  5 20  1  0  0  0  0
  6 22  1  0  0  0  0
  7 12  2  0  0  0  0
  7 21  1  0  0  0  0
  8  9  2  0  0  0  0
  8 25  1  0  0  0  0
  9 26  1  0  0  0  0
 10 27  1  0  0  0  0
 11 27  2  0  0  0  0
 12 28  1  0  0  0  0
 13 14  2  0  0  0  0
 13 29  1  0  0  0  0
 14 30  1  0  0  0  0
 15 23  1  0  0  0  0
 15 28  2  0  0  0  0
 16 24  1  0  0  0  0
 16 25  2  0  0  0  0
 17 30  2  0  0  0  0
 17 31  1  0  0  0  0
 18 32  1  0  0  0  0
 19 32  1  0  0  0  0
 19 33  2  0  0  0  0
 19 34  1  0  0  0  0
 20 22  2  0  0  0  0
 20 40  1  0  0  0  0
 21 23  2  0  0  0  0
 21 41  1  0  0  0  0
 22 49  1  0  0  0  0
 23 42  1  0  0  0  0
 24 26  2  0  0  0  0
 24 52  1  0  0  0  0
 25 78  1  0  0  0  0
 26 79  1  0  0  0  0
 27 89  1  0  0  0  0
 28 90  1  0  0  0  0
 29 31  2  0  0  0  0
 29 89  1  0  0  0  0
 30 91  1  0  0  0  0
 31 92  1  0  0  0  0
 32 72  2  0  0  0  0
 33 73  1  0  0  0  0
 33 76  1  0  0  0  0
 34 77  1  0  0  0  0
 34 83  2  0  0  0  0
 35 50  1  0  0  0  0
 35 80  1  0  0  0  0
 35 84  2  0  0  0  0
 36 67  1  0  0  0  0
 36 74  1  0  0  0  0
 36 85  2  0  0  0  0
 37 62  1  0  0  0  0
 37 78  1  0  0  0  0
 37 86  2  0  0  0  0
 38 68  1  0  0  0  0
 38 81  1  0  0  0  0
 38 87  2  0  0  0  0
 39 75  1  0  0  0  0
 39 79  1  0  0  0  0
 39 88  2  0  0  0  0
 40 43  1  0  0  0  0
 41 50  1  0  0  0  0
 42 74  1  0  0  0  0
 43 45  1  0  0  0  0
 44 46  1  0  0  0  0
 44 47  1  0  0  0  0
 45 49  1  0  0  0  0
 46 51  1  0  0  0  0
 47 75  1  0  0  0  0
 48 51  1  0  0  0  0
 48 75  1  0  0  0  0
 49 80  1  0  0  0  0
 50 74  1  0  0  0  0
 51 73  1  0  0  0  0
 53 63  1  0  0  0  0
 54 68  1  0  0  0  0
 55 69  1  0  0  0  0
 56 69  1  0  0  0  0
 57 69  1  0  0  0  0
 58 70  1  0  0  0  0
 59 70  1  0  0  0  0
 60 71  1  0  0  0  0
 61 82  1  0  0  0  0
 62 64  1  0  0  0  0
 63 65  1  0  0  0  0
 64 70  1  0  0  0  0
 65 71  1  0  0  0  0
 66 71  1  0  0  0  0
 66 90  1  0  0  0  0
 67 69  1  0  0  0  0
 67 81  1  0  0  0  0
 68 82  1  0  0  0  0
 70 71  1  0  0  0  0
 72 73  1  0  0  0  0
M  CHG  1  82   1
M  ISO  4  39 100  66 101  79 100  90 101
M  END
> <Batch ID>
0144

> <Smiles>
CCCC(C)(C(C)(C)CCC(=O)Nc1ccc([100NH:0][100C:0](=O)N2CCCC(n3nc(-c4ccc(Oc5ccc(F)cc5F)cc4)c(C(N)=O)c3N)C2)c(C)c1)[101CH2:1][101O:1]c1ccc2c(c1)CN(C(=O)C(NC(=O)C(C)NC)C(C)(C)C)C(C(=O)NC1CCCc3ccccc31)C2

> <Shape>
0.305

> <Color>
0.136

> <Negative vol penalty>
0.000

$$$$

  -OEChem-04052303043D

 85 94  0     1  0  0  0  0  0999 V2000
  -23.9867   -8.1424   22.2151 C   0  0  0  0  0  0  0  0  0  0  0  0
  -24.7206   -9.2267   21.7447 C   0  0  0  0  0  0  0  0  0  0  0  0
  -19.7448  -28.4675   23.8388 C   0  0  0  0  0  0  0  0  0  0  0  0
  -20.8535  -27.1197   22.1680 C   0  0  0  0  0  0  0  0  0  0  0  0
  -22.5936   -8.1976   22.2271 C   0  0  0  0  0  0  0  0  0  0  0  0
  -24.0617  -10.3664   21.2851 C   0  0  0  0  0  0  0  0  0  0  0  0
  -25.9377  -16.1714   21.8216 C   0  0  0  0  0  0  0  0  0  0  0  0
  -18.5230  -28.2531   23.2011 C   0  0  0  0  0  0  0  0  0  0  0  0
  -19.6316  -26.9052   21.5303 C   0  0  0  0  0  0  0  0  0  0  0  0
  -26.5886  -17.0322   20.9389 C   0  0  0  0  0  0  0  0  0  0  0  0
  -16.2131  -25.7915   23.0062 C   0  0  0  0  0  0  0  0  0  0  0  0
  -15.1151  -25.4647   23.8020 C   0  0  0  0  0  0  0  0  0  0  0  0
  -24.4615  -17.9702   20.2947 C   0  0  0  0  0  0  0  0  0  0  0  0
  -29.9142  -25.3024   18.4563 C   0  0  0  0  0  0  0  0  0  0  0  0
  -28.4069  -25.5526   20.3277 C   0  0  0  0  0  0  0  0  0  0  0  0
  -29.5935  -27.4732   19.4672 C   0  0  0  0  0  0  0  0  0  0  0  0
  -13.9581  -27.4339   23.0142 C   0  0  0  0  0  0  0  0  0  0  0  0
  -20.9101  -27.9009   23.3223 C   0  0  0  0  0  0  0  0  0  0  0  0
  -22.5160  -27.7740   25.3003 C   0  0  0  0  0  0  0  0  0  0  0  0
  -21.9175   -9.3423   21.7763 C   0  0  0  0  0  0  0  0  0  0  0  0
  -24.5406  -16.1961   21.9397 C   0  0  0  0  0  0  0  0  0  0  0  0
  -22.6582  -10.4364   21.2898 C   0  0  0  0  0  0  0  0  0  0  0  0
  -23.7955  -17.1105   21.1815 C   0  0  0  0  0  0  0  0  0  0  0  0
  -29.0163  -24.7456   19.3670 C   0  0  0  0  0  0  0  0  0  0  0  0
  -30.2029  -26.6662   18.5064 C   0  0  0  0  0  0  0  0  0  0  0  0
  -28.6955  -26.9164   20.3778 C   0  0  0  0  0  0  0  0  0  0  0  0
  -18.4663  -27.4719   22.0469 C   0  0  0  0  0  0  0  0  0  0  0  0
  -25.8503  -17.9298   20.1731 C   0  0  0  0  0  0  0  0  0  0  0  0
  -16.1836  -26.9396   22.2145 C   0  0  0  0  0  0  0  0  0  0  0  0
  -13.9876  -26.2859   23.8059 C   0  0  0  0  0  0  0  0  0  0  0  0
  -15.0561  -27.7607   22.2184 C   0  0  0  0  0  0  0  0  0  0  0  0
  -22.1726  -28.1225   23.9802 C   0  0  0  0  0  0  0  0  0  0  0  0
  -23.8160  -28.1949   25.4394 C   0  0  0  0  0  0  0  0  0  0  0  0
  -21.7302  -27.1275   26.3103 C   0  0  0  0  0  0  0  0  0  0  0  0
  -22.2078  -14.1017   21.4149 C   0  0  0  0  0  0  0  0  0  0  0  0
  -20.3559  -16.4294   22.7091 C   0  0  0  0  0  0  0  0  0  0  0  0
  -20.1077  -20.0222   22.4921 C   0  0  0  0  0  0  0  0  0  0  0  0
  -28.2510  -29.1068   21.5401 C   0  0  0  0  0  0  0  0  0  0  0  0
  -20.4094   -9.3371   21.7644 C   0  0  0  0  0  0  0  0  0  0  0  0
  -23.8557  -15.2795   22.9160 C   0  0  0  0  0  0  0  0  0  0  0  0
  -22.2952  -17.1908   21.2860 C   0  0  0  0  0  0  0  0  0  0  0  0
  -19.7967  -10.7267   21.6096 C   0  0  0  0  0  0  0  0  0  0  0  0
  -26.8806  -31.4906   23.8021 C   0  0  0  0  0  0  0  0  0  0  0  0
  -20.4934  -11.4958   20.4916 C   0  0  0  0  0  0  0  0  0  0  0  0
  -25.5519  -30.8629   24.2293 C   0  0  0  0  0  0  0  0  0  0  0  0
  -27.0595  -21.5847   19.6210 C   0  0  0  0  0  0  0  0  0  0  0  0
  -29.4890  -21.0332   19.3843 C   0  0  0  0  0  0  0  0  0  0  0  0
  -27.1937  -31.2111   22.3332 C   0  0  0  0  0  0  0  0  0  0  0  0
  -27.3289  -22.9892   19.0846 C   0  0  0  0  0  0  0  0  0  0  0  0
  -29.7561  -22.4408   18.8530 C   0  0  0  0  0  0  0  0  0  0  0  0
  -25.8188  -29.1673   22.3744 C   0  0  0  0  0  0  0  0  0  0  0  0
  -21.9804  -11.7000   20.8060 C   0  0  1  0  0  0  0  0  0  0  0  0
  -22.3881  -15.0357   22.5781 C   0  0  1  0  0  0  0  0  0  0  0  0
  -28.0644  -20.5679   19.0734 C   0  0  0  0  0  0  0  0  0  0  0  0
  -25.4919  -29.3669   23.8634 C   0  0  2  0  0  0  0  0  0  0  0  0
  -19.2512  -21.7015   24.1487 C   0  0  0  0  0  0  0  0  0  0  0  0
  -17.7153  -16.1300   21.2101 C   0  0  0  0  0  0  0  0  0  0  0  0
  -17.3531  -18.5905   21.4979 C   0  0  0  0  0  0  0  0  0  0  0  0
  -17.5089  -17.1118   23.5009 C   0  0  0  0  0  0  0  0  0  0  0  0
  -22.6373  -21.5568   22.4196 C   0  0  0  0  0  0  0  0  0  0  0  0
  -27.8059  -19.1800   19.6550 C   0  0  0  0  0  0  0  0  0  1  0  0
  -19.5967  -17.6164   22.1674 C   0  0  1  0  0  0  0  0  0  0  0  0
  -20.4834  -21.0257   23.5675 C   0  0  2  0  0  0  0  0  0  0  0  0
  -18.0669  -17.3524   22.0812 C   0  0  0  0  0  0  0  0  0  0  0  0
  -23.1736  -28.7190   23.3274 N   0  0  0  0  0  0  0  0  0  0  0  0
  -24.1588  -28.7487   24.2410 N   0  0  0  0  0  0  0  0  0  0  0  0
  -28.7266  -23.3761   19.3168 N   0  0  0  0  0  0  0  0  0  0  0  0
  -21.6711  -16.2695   22.2501 N   0  0  0  0  0  0  0  0  0  0  0  0
  -27.1222  -29.7738   22.0615 N   0  0  0  0  0  0  0  0  0  0  0  0
  -31.1110  -27.2291   17.5858 N   0  0  0  0  0  0  0  0  0  0  0  0
  -24.6879  -28.1417   26.4687 N   0  0  0  0  0  0  0  0  0  0  0  0
  -21.7617  -25.7284   26.3877 N   0  0  0  0  0  0  0  0  0  0  0  0
  -28.0755  -27.7361   21.3533 N   0  0  0  0  0  0  0  0  0  0  0  0
  -22.1516  -12.7671   21.7685 N   0  0  0  0  0  0  0  0  0  0  0  0
  -19.9607  -18.7520   23.0079 N   0  0  0  0  0  0  0  0  0  0  0  0
  -21.3753  -22.0786   23.0045 N   0  3  0  0  0  0  0  0  0  0  0  0
  -21.0084  -27.7705   27.1097 O   0  0  0  0  0  0  0  0  0  0  0  0
  -22.1243  -14.5583   20.2808 O   0  0  0  0  0  0  0  0  0  0  0  0
  -19.8049  -15.6759   23.5155 O   0  0  0  0  0  0  0  0  0  0  0  0
  -19.9558  -20.3347   21.3132 O   0  0  0  0  0  0  0  0  0  0  0  0
  -29.3053  -29.7026   21.3043 O   0  0  0  0  0  0  0  0  0  0  0  0
  -17.2742  -27.2622   21.4244 O   0  0  0  0  0  0  0  0  0  0  0  0
  -26.4830  -18.7707   19.3103 O   0  0  0  0  0  0  0  0  0  1  0  0
  -12.9326  -25.9711   24.5689 F   0  0  0  0  0  0  0  0  0  0  0  0
  -15.0215  -28.8643   21.4590 F   0  0  0  0  0  0  0  0  0  0  0  0
  1  2  1  0  0  0  0
  1  5  2  0  0  0  0
  2  6  2  0  0  0  0
  3  8  2  0  0  0  0
  3 18  1  0  0  0  0
  4  9  1  0  0  0  0
  4 18  2  0  0  0  0
  5 20  1  0  0  0  0
  6 22  1  0  0  0  0
  7 10  2  0  0  0  0
  7 21  1  0  0  0  0
  8 27  1  0  0  0  0
  9 27  2  0  0  0  0
 10 28  1  0  0  0  0
 11 12  2  0  0  0  0
 11 29  1  0  0  0  0
 12 30  1  0  0  0  0
 13 23  1  0  0  0  0
 13 28  2  0  0  0  0
 14 24  1  0  0  0  0
 14 25  2  0  0  0  0
 15 24  2  0  0  0  0
 15 26  1  0  0  0  0
 16 25  1  0  0  0  0
 16 26  2  0  0  0  0
 17 30  2  0  0  0  0
 17 31  1  0  0  0  0
 18 32  1  0  0  0  0
 19 32  1  0  0  0  0
 19 33  2  0  0  0  0
 19 34  1  0  0  0  0
 20 22  2  0  0  0  0
 20 39  1  0  0  0  0
 21 23  2  0  0  0  0
 21 40  1  0  0  0  0
 22 52  1  0  0  0  0
 23 41  1  0  0  0  0
 24 67  1  0  0  0  0
 25 70  1  0  0  0  0
 26 73  1  0  0  0  0
 27 82  1  0  0  0  0
 28 83  1  0  0  0  0
 29 31  2  0  0  0  0
 29 82  1  0  0  0  0
 30 84  1  0  0  0  0
 31 85  1  0  0  0  0
 32 65  2  0  0  0  0
 33 66  1  0  0  0  0
 33 71  1  0  0  0  0
 34 72  1  0  0  0  0
 34 77  2  0  0  0  0
 35 53  1  0  0  0  0
 35 74  1  0  0  0  0
 35 78  2  0  0  0  0
 36 62  1  0  0  0  0
 36 68  1  0  0  0  0
 36 79  2  0  0  0  0
 37 63  1  0  0  0  0
 37 75  1  0  0  0  0
 37 80  2  0  0  0  0
 38 69  1  0  0  0  0
 38 73  1  0  0  0  0
 38 81  2  0  0  0  0
 39 42  1  0  0  0  0
 40 53  1  0  0  0  0
 41 68  1  0  0  0  0
 42 44  1  0  0  0  0
 43 45  1  0  0  0  0
 43 48  1  0  0  0  0
 44 52  1  0  0  0  0
 45 55  1  0  0  0  0
 46 49  1  0  0  0  0
 46 54  1  0  0  0  0
 47 50  1  0  0  0  0
 47 54  1  0  0  0  0
 48 69  1  0  0  0  0
 49 67  1  0  0  0  0
 50 67  1  0  0  0  0
 51 55  1  0  0  0  0
 51 69  1  0  0  0  0
 52 74  1  0  0  0  0
 53 68  1  0  0  0  0
 54 61  1  0  0  0  0
 55 66  1  0  0  0  0
 56 63  1  0  0  0  0
 57 64  1  0  0  0  0
 58 64  1  0  0  0  0
 59 64  1  0  0  0  0
 60 76  1  0  0  0  0
 61 83  1  0  0  0  0
 62 64  1  0  0  0  0
 62 75  1  0  0  0  0
 63 76  1  0  0  0  0
 65 66  1  0  0  0  0
M  CHG  1  76   1
M  ISO  4  38 100  61 101  73 100  83 101
M  END
> <Batch ID>
0144

> <Smiles>
CNC(C)C(=O)NC(C(=O)N1Cc2cc([101O:1][101CH2:1]C3CCN(c4cc(N)cc([100NH:0][100C:0](=O)N5CCCC(n6nc(-c7ccc(Oc8ccc(F)cc8F)cc7)c(C(N)=O)c6N)C5)c4)CC3)ccc2CC1C(=O)NC1CCCc2ccccc21)C(C)(C)C

> <Shape>
0.216

> <Color>
0.081

> <Negative vol penalty>
0.000

$$$$

  -OEChem-04052303043D

 93102  0     1  0  0  0  0  0999 V2000
  -36.6761  -27.9556   17.9956 C   0  0  0  0  0  0  0  0  0  0  0  0
  -35.3905  -27.4692   18.2102 C   0  0  0  0  0  0  0  0  0  0  0  0
  -23.0411   -9.9952   19.9033 C   0  0  0  0  0  0  0  0  0  0  0  0
  -23.8352   -9.8844   22.1824 C   0  0  0  0  0  0  0  0  0  0  0  0
  -36.9486  -28.7284   16.8676 C   0  0  0  0  0  0  0  0  0  0  0  0
  -34.3763  -27.7563   17.2973 C   0  0  0  0  0  0  0  0  0  0  0  0
  -31.5598  -23.6980   16.1827 C   0  0  0  0  0  0  0  0  0  0  0  0
  -22.2738   -8.8497   20.1150 C   0  0  0  0  0  0  0  0  0  0  0  0
  -23.0679   -8.7389   22.3941 C   0  0  0  0  0  0  0  0  0  0  0  0
  -30.5997  -23.3131   17.1174 C   0  0  0  0  0  0  0  0  0  0  0  0
  -19.8311   -7.9903   23.0130 C   0  0  0  0  0  0  0  0  0  0  0  0
  -19.0910   -7.9168   24.1931 C   0  0  0  0  0  0  0  0  0  0  0  0
  -28.8932  -24.3987   15.8026 C   0  0  0  0  0  0  0  0  0  0  0  0
  -30.8102  -19.7429   21.7688 C   0  0  0  0  0  0  0  0  0  0  0  0
  -31.3088  -17.6006   20.7694 C   0  0  0  0  0  0  0  0  0  0  0  0
  -29.7093  -17.7488   22.5740 C   0  0  0  0  0  0  0  0  0  0  0  0
  -20.2969   -5.9208   24.8249 C   0  0  0  0  0  0  0  0  0  0  0  0
  -23.8218  -10.5125   20.9370 C   0  0  0  0  0  0  0  0  0  0  0  0
  -24.2218  -13.0319   20.9211 C   0  0  0  0  0  0  0  0  0  0  0  0
  -35.9394  -29.0170   15.9355 C   0  0  0  0  0  0  0  0  0  0  0  0
  -31.1950  -24.4467   15.0546 C   0  0  0  0  0  0  0  0  0  0  0  0
  -34.6352  -28.5348   16.1565 C   0  0  0  0  0  0  0  0  0  0  0  0
  -29.8503  -24.7897   14.8538 C   0  0  0  0  0  0  0  0  0  0  0  0
  -31.5096  -18.9794   20.8342 C   0  0  0  0  0  0  0  0  0  0  0  0
  -29.9101  -19.1276   22.6388 C   0  0  0  0  0  0  0  0  0  0  0  0
  -30.4086  -16.9852   21.6394 C   0  0  0  0  0  0  0  0  0  0  0  0
  -22.2872   -8.2216   21.3603 C   0  0  0  0  0  0  0  0  0  0  0  0
  -29.2666  -23.6659   16.9290 C   0  0  0  0  0  0  0  0  0  0  0  0
  -20.8040   -7.0291   22.7389 C   0  0  0  0  0  0  0  0  0  0  0  0
  -19.3240   -6.8820   25.0990 C   0  0  0  0  0  0  0  0  0  0  0  0
  -21.0370   -5.9944   23.6448 C   0  0  0  0  0  0  0  0  0  0  0  0
  -24.6151  -11.6954   20.7189 C   0  0  0  0  0  0  0  0  0  0  0  0
  -25.3259  -13.7711   20.5732 C   0  0  0  0  0  0  0  0  0  0  0  0
  -26.2240  -21.6066   22.1082 C   0  0  0  0  0  0  0  0  0  0  0  0
  -25.6609  -22.3733   21.1696 C   0  0  0  0  0  0  0  0  0  0  0  0
  -22.9704  -13.5582   21.3823 C   0  0  0  0  0  0  0  0  0  0  0  0
  -31.9326  -27.3317   13.9426 C   0  0  0  0  0  0  0  0  0  0  0  0
  -30.1885  -26.3638   11.3845 C   0  0  0  0  0  0  0  0  0  0  0  0
  -27.7509  -24.3221   10.1450 C   0  0  0  0  0  0  0  0  0  0  0  0
  -30.8174  -14.6815   20.7056 C   0  0  0  0  0  0  0  0  0  0  0  0
  -36.2709  -29.8960   14.7556 C   0  0  0  0  0  0  0  0  0  0  0  0
  -32.2385  -24.8312   14.0419 C   0  0  0  0  0  0  0  0  0  0  0  0
  -29.4037  -25.5754   13.6489 C   0  0  0  0  0  0  0  0  0  0  0  0
  -25.7013  -21.4088   23.4998 C   0  0  0  0  0  0  0  0  0  0  0  0
  -27.5094  -20.8581   21.9517 C   0  0  0  0  0  0  0  0  0  0  0  0
  -35.2271  -29.8413   13.6430 C   0  0  0  0  0  0  0  0  0  0  0  0
  -29.6105  -12.3999   18.2530 C   0  0  0  0  0  0  0  0  0  0  0  0
  -33.8217  -29.9651   14.2230 C   0  0  0  0  0  0  0  0  0  0  0  0
  -28.1710  -12.1232   18.6926 C   0  0  0  0  0  0  0  0  0  0  0  0
  -30.5487  -12.5547   19.4487 C   0  0  0  0  0  0  0  0  0  0  0  0
  -28.6805  -13.2620   20.8904 C   0  0  0  0  0  0  0  0  0  0  0  0
  -26.9302  -20.9600   24.2792 C   0  0  0  0  0  0  0  0  0  0  0  0
  -33.5141  -28.8040   15.1763 C   0  0  1  0  0  0  0  0  0  0  0  0
  -31.8338  -26.0329   13.1936 C   0  0  1  0  0  0  0  0  0  0  0  0
  -27.6863  -13.1629   19.7219 C   0  0  2  0  0  0  0  0  0  0  0  0
  -33.8851  -19.6984   20.4786 C   0  0  0  0  0  0  0  0  0  0  0  0
  -25.2176  -21.9250   18.7875 C   0  0  0  0  0  0  0  0  0  0  0  0
  -26.5190  -23.7871    8.0253 C   0  0  0  0  0  0  0  0  0  0  0  0
  -28.5408  -28.9122   11.7017 C   0  0  0  0  0  0  0  0  0  0  0  0
  -26.7976  -27.8856   10.2267 C   0  0  0  0  0  0  0  0  0  0  0  0
  -29.0886  -28.3118    9.3366 C   0  0  0  0  0  0  0  0  0  0  0  0
  -25.4025  -24.9981   19.5041 C   0  0  0  0  0  0  0  0  0  0  0  0
  -28.7167  -21.5246   10.1531 C   0  0  0  0  0  0  0  0  0  0  0  0
  -32.4721  -19.6374   19.9042 C   0  0  0  0  0  0  0  0  0  0  0  0
  -29.1578  -19.9490   23.6439 C   0  0  0  0  0  0  0  0  0  0  0  0
  -27.6875  -24.5162   20.4563 C   0  0  0  0  0  0  0  0  0  0  0  0
  -27.1982  -24.1500   17.9982 C   0  0  0  0  0  0  0  0  0  1  0  0
  -26.2186  -22.5496   19.7713 C   0  0  1  0  0  0  0  0  0  0  0  0
  -28.7320  -26.4365   10.9943 C   0  0  1  0  0  0  0  0  0  0  0  0
  -27.7068  -23.4411    8.9096 C   0  0  2  0  0  0  0  0  0  0  0  0
  -28.2981  -27.8734   10.5886 C   0  0  0  0  0  0  0  0  0  0  0  0
  -26.6141  -24.0408   19.4338 C   0  0  2  0  0  0  0  0  0  0  0  0
  -25.8709  -11.5888   20.2766 N   0  0  0  0  0  0  0  0  0  0  0  0
  -26.2762  -12.8677   20.1981 N   0  0  0  0  0  0  0  0  0  0  0  0
  -30.4623  -25.9333   12.6904 N   0  0  0  0  0  0  0  0  0  0  0  0
  -30.0277  -13.5589   20.3787 N   0  0  0  0  0  0  0  0  0  0  0  0
  -25.5668  -15.0993   20.5546 N   0  0  0  0  0  0  0  0  0  0  0  0
  -21.9423  -12.6587   21.6960 N   0  0  0  0  0  0  0  0  0  0  0  0
  -30.2046  -15.5846   21.5736 N   0  0  0  0  0  0  0  0  0  0  0  0
  -33.1967  -27.6064   14.4283 N   0  0  0  0  0  0  0  0  0  0  0  0
  -28.5389  -25.4367    9.9496 N   0  0  0  0  0  0  0  0  0  0  0  0
  -27.7271  -20.1588   23.2745 N   0  3  2  0  0  0  0  0  0  0  0  0
  -27.6001  -22.0067    9.2999 N   0  3  0  0  0  0  0  0  0  0  0  0
  -22.7643  -14.7902   21.4967 O   0  0  0  0  0  0  0  0  0  0  0  0
  -30.9359  -28.0334   14.0692 O   0  0  0  0  0  0  0  0  0  0  0  0
  -31.0519  -26.6707   10.5585 O   0  0  0  0  0  0  0  0  0  0  0  0
  -27.1439  -24.0509   11.1787 O   0  0  0  0  0  0  0  0  0  0  0  0
  -31.9431  -14.8443   20.2277 O   0  0  0  0  0  0  0  0  0  0  0  0
  -28.1240  -25.8405   20.1708 O   0  0  0  0  0  0  0  0  0  0  0  0
  -21.5385   -7.1040   21.5672 O   0  0  0  0  0  0  0  0  0  0  0  0
  -28.3275  -23.2920   17.8401 O   0  0  0  0  0  0  0  0  0  1  0  0
  -18.6143   -6.8124   26.2329 F   0  0  0  0  0  0  0  0  0  0  0  0
  -21.9711   -5.0687   23.3874 F   0  0  0  0  0  0  0  0  0  0  0  0
  1  2  1  0  0  0  0
  1  5  2  0  0  0  0
  2  6  2  0  0  0  0
  3  8  2  0  0  0  0
  3 18  1  0  0  0  0
  4  9  1  0  0  0  0
  4 18  2  0  0  0  0
  5 20  1  0  0  0  0
  6 22  1  0  0  0  0
  7 10  2  0  0  0  0
  7 21  1  0  0  0  0
  8 27  1  0  0  0  0
  9 27  2  0  0  0  0
 10 28  1  0  0  0  0
 11 12  2  0  0  0  0
 11 29  1  0  0  0  0
 12 30  1  0  0  0  0
 13 23  1  0  0  0  0
 13 28  2  0  0  0  0
 14 24  1  0  0  0  0
 14 25  2  0  0  0  0
 15 24  2  0  0  0  0
 15 26  1  0  0  0  0
 16 25  1  0  0  0  0
 16 26  2  0  0  0  0
 17 30  2  0  0  0  0
 17 31  1  0  0  0  0
 18 32  1  0  0  0  0
 19 32  1  0  0  0  0
 19 33  2  0  0  0  0
 19 36  1  0  0  0  0
 20 22  2  0  0  0  0
 20 41  1  0  0  0  0
 21 23  2  0  0  0  0
 21 42  1  0  0  0  0
 22 53  1  0  0  0  0
 23 43  1  0  0  0  0
 24 64  1  0  0  0  0
 25 65  1  0  0  0  0
 26 79  1  0  0  0  0
 27 90  1  0  0  0  0
 28 91  1  0  0  0  0
 29 31  2  0  0  0  0
 29 90  1  0  0  0  0
 30 92  1  0  0  0  0
 31 93  1  0  0  0  0
 32 73  2  0  0  0  0
 33 74  1  0  0  0  0
 33 77  1  0  0  0  0
 34 35  2  0  0  0  0
 34 44  1  0  0  0  0
 34 45  1  0  0  0  0
 35 68  1  0  0  0  0
 36 78  1  0  0  0  0
 36 84  2  0  0  0  0
 37 54  1  0  0  0  0
 37 80  1  0  0  0  0
 37 85  2  0  0  0  0
 38 69  1  0  0  0  0
 38 75  1  0  0  0  0
 38 86  2  0  0  0  0
 39 70  1  0  0  0  0
 39 81  1  0  0  0  0
 39 87  2  0  0  0  0
 40 76  1  0  0  0  0
 40 79  1  0  0  0  0
 40 88  2  0  0  0  0
 41 46  1  0  0  0  0
 42 54  1  0  0  0  0
 43 75  1  0  0  0  0
 44 52  1  0  0  0  0
 45 82  1  0  0  0  0
 46 48  1  0  0  0  0
 47 49  1  0  0  0  0
 47 50  1  0  0  0  0
 48 53  1  0  0  0  0
 49 55  1  0  0  0  0
 50 76  1  0  0  0  0
 51 55  1  0  0  0  0
 51 76  1  0  0  0  0
 52 82  1  0  0  0  0
 53 80  1  0  0  0  0
 54 75  1  0  0  0  0
 55 74  1  0  0  0  0
 56 64  1  0  0  0  0
 57 68  1  0  0  0  0
 58 70  1  0  0  0  0
 59 71  1  0  0  0  0
 60 71  1  0  0  0  0
 61 71  1  0  0  0  0
 62 72  1  0  0  0  0
 63 83  1  0  0  0  0
 65 82  1  0  0  0  0
 66 72  1  0  0  0  0
 66 89  1  0  0  0  0
 67 72  1  0  0  0  0
 67 91  1  0  0  0  0
 68 72  1  0  0  0  0
 69 71  1  0  0  0  0
 69 81  1  0  0  0  0
 70 83  1  0  0  0  0
 73 74  1  0  0  0  0
M  CHG  2  82   1  83   1
M  ISO  4  40 100  67 101  79 100  91 101
M  END
> <Batch ID>
0144

> <Smiles>
CCc1cc(CN2CCC(=CC(C)C(C)(CO)[101CH2:1][101O:1]c3ccc4c(c3)CN(C(=O)C(NC(=O)C(C)NC)C(C)(C)C)C(C(=O)NC3CCCc5ccccc53)C4)C2)cc([100NH:0][100C:0](=O)N2CCCC(n3nc(-c4ccc(Oc5ccc(F)cc5F)cc4)c(C(N)=O)c3N)C2)c1

> <Shape>
0.196

> <Color>
0.181

> <Negative vol penalty>
0.000

$$$$

  -OEChem-04052303043D

 86 95  0     1  0  0  0  0  0999 V2000
  -17.6955  -25.1458   24.9167 C   0  0  0  0  0  0  0  0  0  0  0  0
  -19.0155  -24.7578   25.1225 C   0  0  0  0  0  0  0  0  0  0  0  0
  -22.6890  -11.0262   21.4754 C   0  0  0  0  0  0  0  0  0  0  0  0
  -24.4410   -9.3682   21.6121 C   0  0  0  0  0  0  0  0  0  0  0  0
  -17.4064  -26.1961   24.0465 C   0  0  0  0  0  0  0  0  0  0  0  0
  -20.0472  -25.4193   24.4573 C   0  0  0  0  0  0  0  0  0  0  0  0
  -27.3171  -19.2219   23.2796 C   0  0  0  0  0  0  0  0  0  0  0  0
  -29.6983  -19.0088   23.6280 C   0  0  0  0  0  0  0  0  0  0  0  0
  -25.6697  -26.5637   26.5984 C   0  0  0  0  0  0  0  0  0  0  0  0
  -27.3455  -18.1272   22.4157 C   0  0  0  0  0  0  0  0  0  0  0  0
  -29.7267  -17.9141   22.7641 C   0  0  0  0  0  0  0  0  0  0  0  0
  -21.9367  -10.3079   22.4048 C   0  0  0  0  0  0  0  0  0  0  0  0
  -23.6887   -8.6499   22.5415 C   0  0  0  0  0  0  0  0  0  0  0  0
  -26.8925  -25.9197   26.4145 C   0  0  0  0  0  0  0  0  0  0  0  0
  -21.0612   -6.5224   22.5095 C   0  0  0  0  0  0  0  0  0  0  0  0
  -20.9697   -5.1409   22.3403 C   0  0  0  0  0  0  0  0  0  0  0  0
  -27.4419  -27.4779   24.6569 C   0  0  0  0  0  0  0  0  0  0  0  0
  -21.9824   -4.8084   24.5085 C   0  0  0  0  0  0  0  0  0  0  0  0
  -23.9412  -10.5563   21.0791 C   0  0  0  0  0  0  0  0  0  0  0  0
  -24.3543  -11.6205   18.7977 C   0  0  0  0  0  0  0  0  0  0  0  0
  -28.4935  -19.6628   23.8857 C   0  0  0  0  0  0  0  0  0  0  0  0
  -18.4358  -26.8771   23.3777 C   0  0  0  0  0  0  0  0  0  0  0  0
  -25.3186  -27.6648   25.8042 C   0  0  0  0  0  0  0  0  0  0  0  0
  -19.7715  -26.4788   23.5763 C   0  0  0  0  0  0  0  0  0  0  0  0
  -26.2152  -28.1357   24.8344 C   0  0  0  0  0  0  0  0  0  0  0  0
  -28.5503  -17.4732   22.1580 C   0  0  0  0  0  0  0  0  0  0  0  0
  -22.4365   -9.1198   22.9378 C   0  0  0  0  0  0  0  0  0  0  0  0
  -27.7776  -26.3750   25.4416 C   0  0  0  0  0  0  0  0  0  0  0  0
  -21.6134   -7.0470   23.6781 C   0  0  0  0  0  0  0  0  0  0  0  0
  -21.4303   -4.2839   23.3398 C   0  0  0  0  0  0  0  0  0  0  0  0
  -22.0739   -6.1899   24.6776 C   0  0  0  0  0  0  0  0  0  0  0  0
  -24.7185  -11.2976   20.1187 C   0  0  0  0  0  0  0  0  0  0  0  0
  -25.4262  -12.3266   18.3089 C   0  0  0  0  0  0  0  0  0  0  0  0
  -23.1543  -11.3101   18.0771 C   0  0  0  0  0  0  0  0  0  0  0  0
  -22.9935  -28.2814   23.7263 C   0  0  0  0  0  0  0  0  0  0  0  0
  -24.2842  -31.2571   23.7590 C   0  0  0  0  0  0  0  0  0  0  0  0
  -27.0148  -33.2247   24.3243 C   0  0  0  0  0  0  0  0  0  0  0  0
  -29.6903  -15.6002   20.9177 C   0  0  0  0  0  0  0  0  0  0  0  0
  -18.0708  -27.9753   22.4105 C   0  0  0  0  0  0  0  0  0  0  0  0
  -24.0072  -28.3649   26.0331 C   0  0  0  0  0  0  0  0  0  0  0  0
  -25.8945  -29.3263   23.9694 C   0  0  0  0  0  0  0  0  0  0  0  0
  -19.2486  -28.8695   22.0317 C   0  0  0  0  0  0  0  0  0  0  0  0
  -30.1679  -12.7649   18.8176 C   0  0  0  0  0  0  0  0  0  0  0  0
  -20.4713  -28.0248   21.6880 C   0  0  0  0  0  0  0  0  0  0  0  0
  -28.7900  -12.0996   18.7878 C   0  0  0  0  0  0  0  0  0  0  0  0
  -29.6581  -23.1607   26.2267 C   0  0  0  0  0  0  0  0  0  0  0  0
  -28.7212  -22.1783   24.0946 C   0  0  0  0  0  0  0  0  0  0  0  0
  -30.4809  -13.3597   20.1894 C   0  0  0  0  0  0  0  0  0  0  0  0
  -28.0811  -13.6068   20.6886 C   0  0  0  0  0  0  0  0  0  0  0  0
  -29.3990  -21.8439   26.9410 C   0  0  0  0  0  0  0  0  0  0  0  0
  -20.9200  -27.1880   22.8921 C   0  0  1  0  0  0  0  0  0  0  0  0
  -28.4625  -20.8507   24.8231 C   0  0  2  0  0  0  0  0  0  0  0  0
  -23.5340  -29.1591   24.8196 C   0  0  1  0  0  0  0  0  0  0  0  0
  -28.6864  -23.3739   25.0588 C   0  0  2  0  0  0  0  0  0  0  0  0
  -27.6940  -13.0499   19.3089 C   0  0  2  0  0  0  0  0  0  0  0  0
  -27.7744  -35.6146   24.2293 C   0  0  0  0  0  0  0  0  0  0  0  0
  -30.4104  -24.6237   23.7275 C   0  0  0  0  0  0  0  0  0  0  0  0
  -27.9697  -24.9481   23.2308 C   0  0  0  0  0  0  0  0  0  0  0  0
  -24.4658  -31.0760   20.7186 C   0  0  0  0  0  0  0  0  0  0  0  0
  -26.0557  -33.0093   20.7680 C   0  0  0  0  0  0  0  0  0  0  0  0
  -23.7178  -33.2982   21.5884 C   0  0  0  0  0  0  0  0  0  0  0  0
  -27.6051  -33.2738   27.2240 C   0  0  0  0  0  0  0  0  0  0  0  0
  -25.3608  -31.9642   22.9716 C   0  0  1  0  0  0  0  0  0  0  0  0
  -27.1806  -34.5187   25.1006 C   0  0  2  0  0  0  0  0  0  0  0  0
  -29.0043  -24.6732   24.3212 C   0  0  0  0  0  0  0  0  0  1  0  0
  -24.9055  -32.3133   21.5265 C   0  0  0  0  0  0  0  0  0  0  0  0
  -25.9274  -11.7603   20.4480 N   0  0  0  0  0  0  0  0  0  0  0  0
  -26.3322  -12.3812   19.3269 N   0  0  0  0  0  0  0  0  0  0  0  0
  -24.5973  -29.9731   24.2272 N   0  0  0  0  0  0  0  0  0  0  0  0
  -29.4013  -14.2524   20.6163 N   0  0  0  0  0  0  0  0  0  0  0  0
  -25.6728  -12.8998   17.1118 N   0  0  0  0  0  0  0  0  0  0  0  0
  -22.1538  -10.5769   18.7296 N   0  0  0  0  0  0  0  0  0  0  0  0
  -28.5794  -16.3609   21.2806 N   0  0  0  0  0  0  0  0  0  0  0  0
  -21.6431  -28.0107   23.8380 N   0  0  0  0  0  0  0  0  0  0  0  0
  -25.7571  -33.1200   23.7688 N   0  0  0  0  0  0  0  0  0  0  0  0
  -29.4547  -20.7267   25.9523 N   0  3  0  0  0  0  0  0  0  0  0  0
  -28.0799  -34.3093   26.2704 N   0  3  0  0  0  0  0  0  0  0  0  0
  -22.9815  -11.6580   16.8843 O   0  0  0  0  0  0  0  0  0  0  0  0
  -23.7457  -27.8807   22.8458 O   0  0  0  0  0  0  0  0  0  0  0  0
  -23.2079  -31.8260   23.9578 O   0  0  0  0  0  0  0  0  0  0  0  0
  -27.9124  -32.3920   24.2180 O   0  0  0  0  0  0  0  0  0  0  0  0
  -30.8346  -16.0534   20.8318 O   0  0  0  0  0  0  0  0  0  0  0  0
  -21.7028   -8.4188   23.8449 O   0  0  0  0  0  0  0  0  0  0  0  0
  -28.9715  -25.7478   25.2596 O   0  0  0  0  0  0  0  0  0  1  0  0
  -21.3409   -2.9572   23.1779 F   0  0  0  0  0  0  0  0  0  0  0  0
  -22.6043   -6.6879   25.8030 F   0  0  0  0  0  0  0  0  0  0  0  0
  1  2  1  0  0  0  0
  1  5  2  0  0  0  0
  2  6  2  0  0  0  0
  3 12  2  0  0  0  0
  3 19  1  0  0  0  0
  4 13  1  0  0  0  0
  4 19  2  0  0  0  0
  5 22  1  0  0  0  0
  6 24  1  0  0  0  0
  7 10  2  0  0  0  0
  7 21  1  0  0  0  0
  8 11  1  0  0  0  0
  8 21  2  0  0  0  0
  9 14  2  0  0  0  0
  9 23  1  0  0  0  0
 10 26  1  0  0  0  0
 11 26  2  0  0  0  0
 12 27  1  0  0  0  0
 13 27  2  0  0  0  0
 14 28  1  0  0  0  0
 15 16  2  0  0  0  0
 15 29  1  0  0  0  0
 16 30  1  0  0  0  0
 17 25  1  0  0  0  0
 17 28  2  0  0  0  0
 18 30  2  0  0  0  0
 18 31  1  0  0  0  0
 19 32  1  0  0  0  0
 20 32  1  0  0  0  0
 20 33  2  0  0  0  0
 20 34  1  0  0  0  0
 21 52  1  0  0  0  0
 22 24  2  0  0  0  0
 22 39  1  0  0  0  0
 23 25  2  0  0  0  0
 23 40  1  0  0  0  0
 24 51  1  0  0  0  0
 25 41  1  0  0  0  0
 26 73  1  0  0  0  0
 27 83  1  0  0  0  0
 28 84  1  0  0  0  0
 29 31  2  0  0  0  0
 29 83  1  0  0  0  0
 30 85  1  0  0  0  0
 31 86  1  0  0  0  0
 32 67  2  0  0  0  0
 33 68  1  0  0  0  0
 33 71  1  0  0  0  0
 34 72  1  0  0  0  0
 34 78  2  0  0  0  0
 35 53  1  0  0  0  0
 35 74  1  0  0  0  0
 35 79  2  0  0  0  0
 36 63  1  0  0  0  0
 36 69  1  0  0  0  0
 36 80  2  0  0  0  0
 37 64  1  0  0  0  0
 37 75  1  0  0  0  0
 37 81  2  0  0  0  0
 38 70  1  0  0  0  0
 38 73  1  0  0  0  0
 38 82  2  0  0  0  0
 39 42  1  0  0  0  0
 40 53  1  0  0  0  0
 41 69  1  0  0  0  0
 42 44  1  0  0  0  0
 43 45  1  0  0  0  0
 43 48  1  0  0  0  0
 44 51  1  0  0  0  0
 45 55  1  0  0  0  0
 46 50  1  0  0  0  0
 46 54  1  0  0  0  0
 47 52  1  0  0  0  0
 47 54  1  0  0  0  0
 48 70  1  0  0  0  0
 49 55  1  0  0  0  0
 49 70  1  0  0  0  0
 50 76  1  0  0  0  0
 51 74  1  0  0  0  0
 52 76  1  0  0  0  0
 53 69  1  0  0  0  0
 54 65  1  0  0  0  0
 55 68  1  0  0  0  0
 56 64  1  0  0  0  0
 57 65  1  0  0  0  0
 58 65  1  0  0  0  0
 59 66  1  0  0  0  0
 60 66  1  0  0  0  0
 61 66  1  0  0  0  0
 62 77  1  0  0  0  0
 63 66  1  0  0  0  0
 63 75  1  0  0  0  0
 64 77  1  0  0  0  0
 65 84  1  0  0  0  0
 67 68  1  0  0  0  0
M  CHG  2  76   1  77   1
M  ISO  4  38 100  65 101  73 100  84 101
M  END
> <Batch ID>
0144

> <Smiles>
CNC(C)C(=O)NC(C(=O)N1Cc2cc([101O:1][101C:1](C)(C)C3CCNC(c4ccc([100NH:0][100C:0](=O)N5CCCC(n6nc(-c7ccc(Oc8ccc(F)cc8F)cc7)c(C(N)=O)c6N)C5)cc4)C3)ccc2CC1C(=O)NC1CCCc2ccccc21)C(C)(C)C

> <Shape>
0.256

> <Color>
0.107

> <Negative vol penalty>
0.000

$$$$

  -OEChem-04052303043D

 88 97  0     1  0  0  0  0  0999 V2000
  -19.2092  -28.8797   23.3162 C   0  0  0  0  0  0  0  0  0  0  0  0
  -20.5318  -28.4941   23.1229 C   0  0  0  0  0  0  0  0  0  0  0  0
  -24.3545  -13.8205   22.1918 C   0  0  0  0  0  0  0  0  0  0  0  0
  -26.2809  -13.9856   20.7431 C   0  0  0  0  0  0  0  0  0  0  0  0
  -18.1744  -28.0969   22.8059 C   0  0  0  0  0  0  0  0  0  0  0  0
  -20.8205  -27.3248   22.4201 C   0  0  0  0  0  0  0  0  0  0  0  0
  -24.5610  -27.9485   19.0639 C   0  0  0  0  0  0  0  0  0  0  0  0
  -23.8841  -12.7415   21.4434 C   0  0  0  0  0  0  0  0  0  0  0  0
  -25.8105  -12.9065   19.9947 C   0  0  0  0  0  0  0  0  0  0  0  0
  -25.8643  -27.9643   19.5586 C   0  0  0  0  0  0  0  0  0  0  0  0
  -24.5236   -9.4326   21.1696 C   0  0  0  0  0  0  0  0  0  0  0  0
  -24.0478   -8.3204   21.8640 C   0  0  0  0  0  0  0  0  0  0  0  0
  -26.1416  -25.6647   18.8844 C   0  0  0  0  0  0  0  0  0  0  0  0
  -30.5683  -24.2301   19.5423 C   0  0  0  0  0  0  0  0  0  0  0  0
  -32.6437  -24.0415   18.3200 C   0  0  0  0  0  0  0  0  0  0  0  0
  -31.4747  -22.0499   19.0302 C   0  0  0  0  0  0  0  0  0  0  0  0
  -21.8835   -8.5988   20.8268 C   0  0  0  0  0  0  0  0  0  0  0  0
  -25.5528  -14.4426   21.8416 C   0  0  0  0  0  0  0  0  0  0  0  0
  -26.3648  -15.5654   23.9835 C   0  0  0  0  0  0  0  0  0  0  0  0
  -18.4508  -26.9225   22.0882 C   0  0  0  0  0  0  0  0  0  0  0  0
  -24.0336  -26.7855   18.4845 C   0  0  0  0  0  0  0  0  0  0  0  0
  -19.7884  -26.5249   21.9009 C   0  0  0  0  0  0  0  0  0  0  0  0
  -24.8322  -25.6376   18.3808 C   0  0  0  0  0  0  0  0  0  0  0  0
  -31.6498  -24.8311   18.8982 C   0  0  0  0  0  0  0  0  0  0  0  0
  -30.4808  -22.8395   19.6084 C   0  0  0  0  0  0  0  0  0  0  0  0
  -24.6121  -12.2845   20.3449 C   0  0  0  0  0  0  0  0  0  0  0  0
  -26.6539  -26.8214   19.4716 C   0  0  0  0  0  0  0  0  0  0  0  0
  -23.6794  -10.1279   20.3038 C   0  0  0  0  0  0  0  0  0  0  0  0
  -22.7278   -7.9035   21.6926 C   0  0  0  0  0  0  0  0  0  0  0  0
  -32.5562  -22.6509   18.3860 C   0  0  0  0  0  0  0  0  0  0  0  0
  -22.3594   -9.7110   20.1324 C   0  0  0  0  0  0  0  0  0  0  0  0
  -26.0390  -15.5576   22.6140 C   0  0  0  0  0  0  0  0  0  0  0  0
  -26.7741  -16.8528   24.2317 C   0  0  0  0  0  0  0  0  0  0  0  0
  -30.9092  -28.2918   20.7904 C   0  0  0  0  0  0  0  0  0  0  0  0
  -30.1082  -27.8379   19.8094 C   0  0  0  0  0  0  0  0  0  0  0  0
  -32.3893  -28.1785   20.8143 C   0  0  0  0  0  0  0  0  0  0  0  0
  -26.3032  -14.5038   24.9453 C   0  0  0  0  0  0  0  0  0  0  0  0
  -21.6082  -24.8448   19.1589 C   0  0  0  0  0  0  0  0  0  0  0  0
  -22.4317  -23.4713   16.3380 C   0  0  0  0  0  0  0  0  0  0  0  0
  -23.0928  -21.5497   13.5962 C   0  0  0  0  0  0  0  0  0  0  0  0
  -29.1339  -20.8630   20.4231 C   0  0  0  0  0  0  0  0  0  0  0  0
  -17.2976  -26.0840   21.5964 C   0  0  0  0  0  0  0  0  0  0  0  0
  -22.6349  -26.7929   17.9314 C   0  0  0  0  0  0  0  0  0  0  0  0
  -24.3200  -24.3697   17.7495 C   0  0  0  0  0  0  0  0  0  0  0  0
  -33.1303  -28.1868   19.5011 C   0  0  0  0  0  0  0  0  0  0  0  0
  -17.6981  -25.0570   20.5404 C   0  0  0  0  0  0  0  0  0  0  0  0
  -25.6701  -21.0362   22.0650 C   0  0  0  0  0  0  0  0  0  0  0  0
  -18.9588  -24.3133   20.9701 C   0  0  0  0  0  0  0  0  0  0  0  0
  -25.8072  -19.8926   23.0673 C   0  0  0  0  0  0  0  0  0  0  0  0
  -33.0667  -26.8452   18.7892 C   0  0  0  0  0  0  0  0  0  0  0  0
  -27.0211  -21.6009   21.6447 C   0  0  0  0  0  0  0  0  0  0  0  0
  -27.5589  -19.1760   21.3503 C   0  0  0  0  0  0  0  0  0  0  0  0
  -20.1424  -25.2762   21.1226 C   0  0  1  0  0  0  0  0  0  0  0  0
  -30.5135  -27.0157   18.5928 C   0  0  1  0  0  0  0  0  0  0  0  0
  -22.0266  -25.3978   17.8260 C   0  0  1  0  0  0  0  0  0  0  0  0
  -27.0036  -18.9678   22.7679 C   0  0  2  0  0  0  0  0  0  0  0  0
  -30.6040  -27.8365   17.3017 C   0  0  0  0  0  0  0  0  0  0  0  0
  -22.7291  -19.2453   12.6716 C   0  0  0  0  0  0  0  0  0  0  0  0
  -24.5956  -22.3870   18.1958 C   0  0  0  0  0  0  0  0  0  0  0  0
  -24.8582  -20.4423   16.6410 C   0  0  0  0  0  0  0  0  0  0  0  0
  -22.6826  -20.8257   17.7996 C   0  0  0  0  0  0  0  0  0  0  0  0
  -21.5767  -22.5931   11.2785 C   0  0  0  0  0  0  0  0  0  0  0  0
  -28.6206  -28.0801   19.9228 C   0  0  0  0  0  0  0  0  0  1  0  0
  -23.3751  -22.3691   15.9207 C   0  0  1  0  0  0  0  0  0  0  0  0
  -22.1974  -20.6683   12.7443 C   0  0  2  0  0  0  0  0  0  0  0  0
  -23.8810  -21.5326   17.1298 C   0  0  0  0  0  0  0  0  0  0  0  0
  -26.2250  -16.7457   22.0329 N   0  0  0  0  0  0  0  0  0  0  0  0
  -26.6722  -17.5122   23.0422 N   0  0  0  0  0  0  0  0  0  0  0  0
  -31.7381  -26.2279   18.8321 N   0  0  3  0  0  0  0  0  0  0  0  0
  -22.9439  -24.4249   17.2290 N   0  0  0  0  0  0  0  0  0  0  0  0
  -27.9405  -20.5757   21.1298 N   0  0  0  0  0  0  0  0  0  0  0  0
  -27.2076  -17.4737   25.3493 N   0  0  0  0  0  0  0  0  0  0  0  0
  -27.4334  -13.6936   25.1195 N   0  0  0  0  0  0  0  0  0  0  0  0
  -29.3818  -22.2289   20.2627 N   0  0  0  0  0  0  0  0  0  0  0  0
  -20.6816  -25.6238   19.8254 N   0  0  0  0  0  0  0  0  0  0  0  0
  -22.6705  -21.5902   14.9082 N   0  0  0  0  0  0  0  0  0  0  0  0
  -22.1072  -21.2077   11.3580 N   0  3  0  0  0  0  0  0  0  0  0  0
  -32.9796  -28.1340   21.8920 O   0  0  0  0  0  0  0  0  0  0  0  0
  -25.2706  -14.2701   25.6181 O   0  0  0  0  0  0  0  0  0  0  0  0
  -22.0891  -23.7888   19.5529 O   0  0  0  0  0  0  0  0  0  0  0  0
  -21.2847  -23.4895   15.8843 O   0  0  0  0  0  0  0  0  0  0  0  0
  -24.0712  -22.1401   13.1439 O   0  0  0  0  0  0  0  0  0  0  0  0
  -29.8739  -19.9676   20.0103 O   0  0  0  0  0  0  0  0  0  0  0  0
  -24.1535  -11.2315   19.6145 O   0  0  0  0  0  0  0  0  0  0  0  0
  -27.9262  -26.8339   19.9543 O   0  0  0  0  0  0  0  0  0  1  0  0
  -22.2714   -6.8345   22.3583 F   0  0  0  0  0  0  0  0  0  0  0  0
  -33.5098  -21.8923   17.8298 F   0  0  0  0  0  0  0  0  0  0  0  0
  -21.5440  -10.3743   19.3012 F   0  0  0  0  0  0  0  0  0  0  0  0
  1  2  1  0  0  0  0
  1  5  2  0  0  0  0
  2  6  2  0  0  0  0
  3  8  2  0  0  0  0
  3 18  1  0  0  0  0
  4  9  1  0  0  0  0
  4 18  2  0  0  0  0
  5 20  1  0  0  0  0
  6 22  1  0  0  0  0
  7 10  2  0  0  0  0
  7 21  1  0  0  0  0
  8 26  1  0  0  0  0
  9 26  2  0  0  0  0
 10 27  1  0  0  0  0
 11 12  2  0  0  0  0
 11 28  1  0  0  0  0
 12 29  1  0  0  0  0
 13 23  1  0  0  0  0
 13 27  2  0  0  0  0
 14 24  2  0  0  0  0
 14 25  1  0  0  0  0
 15 24  1  0  0  0  0
 15 30  2  0  0  0  0
 16 25  2  0  0  0  0
 16 30  1  0  0  0  0
 17 29  2  0  0  0  0
 17 31  1  0  0  0  0
 18 32  1  0  0  0  0
 19 32  1  0  0  0  0
 19 33  2  0  0  0  0
 19 37  1  0  0  0  0
 20 22  2  0  0  0  0
 20 42  1  0  0  0  0
 21 23  2  0  0  0  0
 21 43  1  0  0  0  0
 22 53  1  0  0  0  0
 23 44  1  0  0  0  0
 24 69  1  0  0  0  0
 25 74  1  0  0  0  0
 26 84  1  0  0  0  0
 27 85  1  0  0  0  0
 28 31  2  0  0  0  0
 28 84  1  0  0  0  0
 29 86  1  0  0  0  0
 30 87  1  0  0  0  0
 31 88  1  0  0  0  0
 32 67  2  0  0  0  0
 33 68  1  0  0  0  0
 33 72  1  0  0  0  0
 34 35  2  0  0  0  0
 34 36  1  0  0  0  0
 35 54  1  0  0  0  0
 35 63  1  0  0  0  0
 36 45  1  0  0  0  0
 36 78  2  0  0  0  0
 37 73  1  0  0  0  0
 37 79  2  0  0  0  0
 38 55  1  0  0  0  0
 38 75  1  0  0  0  0
 38 80  2  0  0  0  0
 39 64  1  0  0  0  0
 39 70  1  0  0  0  0
 39 81  2  0  0  0  0
 40 65  1  0  0  0  0
 40 76  1  0  0  0  0
 40 82  2  0  0  0  0
 41 71  1  0  0  0  0
 41 74  1  0  0  0  0
 41 83  2  0  0  0  0
 42 46  1  0  0  0  0
 43 55  1  0  0  0  0
 44 70  1  0  0  0  0
 45 50  1  0  0  0  0
 46 48  1  0  0  0  0
 47 49  1  0  0  0  0
 47 51  1  0  0  0  0
 48 53  1  0  0  0  0
 49 56  1  0  0  0  0
 50 69  1  0  0  0  0
 51 71  1  0  0  0  0
 52 56  1  0  0  0  0
 52 71  1  0  0  0  0
 53 75  1  0  0  0  0
 54 57  1  0  0  0  0
 54 69  1  0  0  0  0
 55 70  1  0  0  0  0
 56 68  1  0  0  0  0
 58 65  1  0  0  0  0
 59 66  1  0  0  0  0
 60 66  1  0  0  0  0
 61 66  1  0  0  0  0
 62 77  1  0  0  0  0
 63 85  1  0  0  0  0
 64 66  1  0  0  0  0
 64 76  1  0  0  0  0
 65 77  1  0  0  0  0
 67 68  1  0  0  0  0
M  CHG  1  77   1
M  ISO  4  41 100  63 101  74 100  85 101
M  END
> <Batch ID>
0144

> <Smiles>
CNC(C)C(=O)NC(C(=O)N1Cc2cc([101O:1][101CH2:1]C3=C(C)N(c4cc(F)cc([100NH:0][100C:0](=O)N5CCCC(n6nc(-c7ccc(Oc8ccc(F)cc8F)cc7)c(C(N)=O)c6N)C5)c4)CCC(=O)C3)ccc2CC1C(=O)NC1CCCc2ccccc21)C(C)(C)C

> <Shape>
0.218

> <Color>
0.073

> <Negative vol penalty>
0.000

$$$$

  -OEChem-04052303043D

 92101  0     1  0  0  0  0  0999 V2000
  -21.3880  -19.8313   15.0400 C   0  0  0  0  0  0  0  0  0  0  0  0
  -21.3774  -21.0289   15.7478 C   0  0  0  0  0  0  0  0  0  0  0  0
  -26.7220  -17.6056   20.4119 C   0  0  0  0  0  0  0  0  0  0  0  0
  -29.0882  -17.2520   20.0754 C   0  0  0  0  0  0  0  0  0  0  0  0
  -24.9524  -28.3852   19.3159 C   0  0  0  0  0  0  0  0  0  0  0  0
  -20.9120  -18.6652   15.6381 C   0  0  0  0  0  0  0  0  0  0  0  0
  -20.8898  -21.0614   17.0538 C   0  0  0  0  0  0  0  0  0  0  0  0
  -22.9212  -24.5537   21.6562 C   0  0  0  0  0  0  0  0  0  0  0  0
  -25.8439  -27.3153   19.2373 C   0  0  0  0  0  0  0  0  0  0  0  0
  -26.6036  -16.3171   20.9328 C   0  0  0  0  0  0  0  0  0  0  0  0
  -28.9698  -15.9635   20.5964 C   0  0  0  0  0  0  0  0  0  0  0  0
  -22.4672  -25.7589   22.1903 C   0  0  0  0  0  0  0  0  0  0  0  0
  -26.4186  -13.1581   19.7451 C   0  0  0  0  0  0  0  0  0  0  0  0
  -25.3484  -12.3784   19.3065 C   0  0  0  0  0  0  0  0  0  0  0  0
  -21.2571  -24.5442   23.8871 C   0  0  0  0  0  0  0  0  0  0  0  0
  -27.3174  -28.4286   20.7950 C   0  0  0  0  0  0  0  0  0  0  0  0
  -24.5400  -12.2106   21.5771 C   0  0  0  0  0  0  0  0  0  0  0  0
  -27.9644  -18.0731   19.9832 C   0  0  0  0  0  0  0  0  0  0  0  0
  -25.2435  -29.4769   20.1340 C   0  0  0  0  0  0  0  0  0  0  0  0
  -27.4324  -19.9269   18.3135 C   0  0  0  0  0  0  0  0  0  0  0  0
  -20.4272  -18.6815   16.9554 C   0  0  0  0  0  0  0  0  0  0  0  0
  -22.5371  -23.3322   22.2280 C   0  0  0  0  0  0  0  0  0  0  0  0
  -20.4056  -19.8947   17.6695 C   0  0  0  0  0  0  0  0  0  0  0  0
  -21.7097  -23.3250   23.3600 C   0  0  0  0  0  0  0  0  0  0  0  0
  -27.0263  -27.3370   19.9768 C   0  0  0  0  0  0  0  0  0  0  0  0
  -27.7274  -15.4961   21.0251 C   0  0  0  0  0  0  0  0  0  0  0  0
  -21.6327  -25.7541   23.3041 C   0  0  0  0  0  0  0  0  0  0  0  0
  -26.5496  -13.4640   21.0998 C   0  0  0  0  0  0  0  0  0  0  0  0
  -26.4259  -29.4985   20.8736 C   0  0  0  0  0  0  0  0  0  0  0  0
  -24.4091  -11.9047   20.2225 C   0  0  0  0  0  0  0  0  0  0  0  0
  -25.6103  -12.9903   22.0157 C   0  0  0  0  0  0  0  0  0  0  0  0
  -28.0873  -19.4038   19.4445 C   0  0  0  0  0  0  0  0  0  0  0  0
  -27.8836  -21.2210   18.2233 C   0  0  0  0  0  0  0  0  0  0  0  0
  -24.2910  -30.5993   20.2058 C   0  0  0  0  0  0  0  0  0  0  0  0
  -26.4994  -19.2991   17.4239 C   0  0  0  0  0  0  0  0  0  0  0  0
  -20.9099  -20.7956   21.2173 C   0  0  0  0  0  0  0  0  0  0  0  0
  -21.7941  -19.5711   24.0881 C   0  0  0  0  0  0  0  0  0  0  0  0
  -22.7747  -20.1477   27.3057 C   0  0  0  0  0  0  0  0  0  0  0  0
  -29.1484  -26.1126   20.5634 C   0  0  0  0  0  0  0  0  0  0  0  0
  -19.8792  -17.4052   17.5431 C   0  0  0  0  0  0  0  0  0  0  0  0
  -23.0570  -22.0418   21.6562 C   0  0  0  0  0  0  0  0  0  0  0  0
  -21.2847  -22.0413   24.0234 C   0  0  0  0  0  0  0  0  0  0  0  0
  -19.7267  -17.4500   19.0613 C   0  0  0  0  0  0  0  0  0  0  0  0
  -31.6444  -23.5753   20.6595 C   0  0  0  0  0  0  0  0  0  0  0  0
  -19.0582  -18.7515   19.4925 C   0  0  0  0  0  0  0  0  0  0  0  0
  -30.8876  -22.3069   20.2589 C   0  0  0  0  0  0  0  0  0  0  0  0
  -21.6607  -31.2973   22.5833 C   0  0  0  0  0  0  0  0  0  0  0  0
  -30.7840  -24.5025   21.5161 C   0  0  0  0  0  0  0  0  0  0  0  0
  -22.3372  -31.6515   21.2631 C   0  0  0  0  0  0  0  0  0  0  0  0
  -28.7205  -23.5764   20.5395 C   0  0  0  0  0  0  0  0  0  0  0  0
  -23.1520  -29.4805   22.0803 C   0  0  0  0  0  0  0  0  0  0  0  0
  -19.9075  -19.9654   19.0968 C   0  0  1  0  0  0  0  0  0  0  0  0
  -22.1870  -20.8390   22.0078 C   0  0  1  0  0  0  0  0  0  0  0  0
  -29.5247  -22.6414   19.6216 C   0  0  2  0  0  0  0  0  0  0  0  0
  -21.7583  -29.7624   22.6708 C   0  0  2  0  0  0  0  0  0  0  0  0
  -20.6648  -29.0918   21.8239 C   0  0  0  0  0  0  0  0  0  0  0  0
  -26.6359  -31.3028   25.3555 C   0  0  0  0  0  0  0  0  0  0  0  0
  -23.5912  -19.6247   29.6202 C   0  0  0  0  0  0  0  0  0  0  0  0
  -22.4820  -27.5480   25.7506 C   0  0  0  0  0  0  0  0  0  0  0  0
  -18.8456  -18.9776   24.6022 C   0  0  0  0  0  0  0  0  0  0  0  0
  -19.3991  -18.6846   27.0262 C   0  0  0  0  0  0  0  0  0  0  0  0
  -20.4151  -17.1696   25.3247 C   0  0  0  0  0  0  0  0  0  0  0  0
  -25.6087  -20.3247   26.4713 C   0  0  0  0  0  0  0  0  0  0  0  0
  -21.6509  -29.2767   24.1170 C   0  0  0  0  0  0  0  0  0  0  0  0
  -26.4665  -31.5115   23.8614 C   0  0  0  0  0  0  0  0  0  0  0  0
  -26.8974  -30.2882   23.0668 C   0  0  0  0  0  0  0  0  0  0  0  0
  -21.2021  -19.5674   25.4768 C   0  0  1  0  0  0  0  0  0  0  0  0
  -23.9061  -19.5654   28.1336 C   0  0  2  0  0  0  0  0  0  0  0  0
  -22.1750  -27.8494   24.2898 C   0  0  2  0  0  0  0  0  0  1  0  0
  -19.9717  -18.6241   25.5941 C   0  0  0  0  0  0  0  0  0  0  0  0
  -28.8934  -20.2929   20.0307 N   0  0  0  0  0  0  0  0  0  0  0  0
  -28.7480  -21.3878   19.2651 N   0  0  0  0  0  0  0  0  0  0  0  0
  -23.3327  -30.5799   21.1143 N   0  0  0  0  0  0  0  0  0  0  0  0
  -21.8142  -20.8055   23.4235 N   0  0  0  0  0  0  0  0  0  0  0  0
  -29.5108  -24.7788   20.8471 N   0  0  0  0  0  0  0  0  0  0  0  0
  -27.6214  -22.2211   17.3554 N   0  0  0  0  0  0  0  0  0  0  0  0
  -26.9969  -18.6318   16.2962 N   0  0  0  0  0  0  0  0  0  0  0  0
  -27.9317  -26.2500   19.8961 N   0  0  0  0  0  0  0  0  0  0  0  0
  -21.0162  -20.1268   20.0128 N   0  0  0  0  0  0  0  0  0  0  0  0
  -22.2952  -19.2394   26.3856 N   0  0  0  0  0  0  0  0  0  0  0  0
  -24.4126  -31.6147   19.3559 N   0  3  0  0  0  0  0  0  0  0  0  0
  -25.1678  -20.3201   27.8899 N   0  3  0  0  0  0  0  0  0  0  0  0
  -25.2604  -19.3431   17.6143 O   0  0  0  0  0  0  0  0  0  0  0  0
  -19.9022  -21.3281   21.6676 O   0  0  0  0  0  0  0  0  0  0  0  0
  -22.2292  -18.5191   23.6134 O   0  0  0  0  0  0  0  0  0  0  0  0
  -22.3555  -21.2924   27.4622 O   0  0  0  0  0  0  0  0  0  0  0  0
  -29.8775  -27.0612   20.8644 O   0  0  0  0  0  0  0  0  0  0  0  0
  -27.6122  -14.2388   21.5335 O   0  0  0  0  0  0  0  0  0  0  0  0
  -26.7261  -30.5575   21.6769 O   0  0  0  0  0  0  0  0  0  0  0  0
  -21.1876  -26.9290   23.8270 O   0  0  0  0  0  0  0  0  0  1  0  0
  -23.3806  -11.1573   19.8010 F   0  0  0  0  0  0  0  0  0  0  0  0
  -25.7302  -13.2819   23.3182 F   0  0  0  0  0  0  0  0  0  0  0  0
  1  2  1  0  0  0  0
  1  6  2  0  0  0  0
  2  7  2  0  0  0  0
  3 10  2  0  0  0  0
  3 18  1  0  0  0  0
  4 11  1  0  0  0  0
  4 18  2  0  0  0  0
  5  9  2  0  0  0  0
  5 19  1  0  0  0  0
  6 21  1  0  0  0  0
  7 23  1  0  0  0  0
  8 12  2  0  0  0  0
  8 22  1  0  0  0  0
  9 25  1  0  0  0  0
 10 26  1  0  0  0  0
 11 26  2  0  0  0  0
 12 27  1  0  0  0  0
 13 14  2  0  0  0  0
 13 28  1  0  0  0  0
 14 30  1  0  0  0  0
 15 24  1  0  0  0  0
 15 27  2  0  0  0  0
 16 25  2  0  0  0  0
 16 29  1  0  0  0  0
 17 30  2  0  0  0  0
 17 31  1  0  0  0  0
 18 32  1  0  0  0  0
 19 29  2  0  0  0  0
 19 34  1  0  0  0  0
 20 32  1  0  0  0  0
 20 33  2  0  0  0  0
 20 35  1  0  0  0  0
 21 23  2  0  0  0  0
 21 40  1  0  0  0  0
 22 24  2  0  0  0  0
 22 41  1  0  0  0  0
 23 52  1  0  0  0  0
 24 42  1  0  0  0  0
 25 78  1  0  0  0  0
 26 88  1  0  0  0  0
 27 90  1  0  0  0  0
 28 31  2  0  0  0  0
 28 88  1  0  0  0  0
 29 89  1  0  0  0  0
 30 91  1  0  0  0  0
 31 92  1  0  0  0  0
 32 71  2  0  0  0  0
 33 72  1  0  0  0  0
 33 76  1  0  0  0  0
 34 73  1  0  0  0  0
 34 81  2  0  0  0  0
 35 77  1  0  0  0  0
 35 83  2  0  0  0  0
 36 53  1  0  0  0  0
 36 79  1  0  0  0  0
 36 84  2  0  0  0  0
 37 67  1  0  0  0  0
 37 74  1  0  0  0  0
 37 85  2  0  0  0  0
 38 68  1  0  0  0  0
 38 80  1  0  0  0  0
 38 86  2  0  0  0  0
 39 75  1  0  0  0  0
 39 78  1  0  0  0  0
 39 87  2  0  0  0  0
 40 43  1  0  0  0  0
 41 53  1  0  0  0  0
 42 74  1  0  0  0  0
 43 45  1  0  0  0  0
 44 46  1  0  0  0  0
 44 48  1  0  0  0  0
 45 52  1  0  0  0  0
 46 54  1  0  0  0  0
 47 49  1  0  0  0  0
 47 55  1  0  0  0  0
 48 75  1  0  0  0  0
 49 73  1  0  0  0  0
 50 54  1  0  0  0  0
 50 75  1  0  0  0  0
 51 55  1  0  0  0  0
 51 73  1  0  0  0  0
 52 79  1  0  0  0  0
 53 74  1  0  0  0  0
 54 72  1  0  0  0  0
 55 56  1  0  0  0  0
 55 64  1  0  0  0  0
 57 65  1  0  0  0  0
 58 68  1  0  0  0  0
 59 69  1  0  0  0  0
 60 70  1  0  0  0  0
 61 70  1  0  0  0  0
 62 70  1  0  0  0  0
 63 82  1  0  0  0  0
 64 69  1  0  0  0  0
 65 66  1  0  0  0  0
 66 89  1  0  0  0  0
 67 70  1  0  0  0  0
 67 80  1  0  0  0  0
 68 82  1  0  0  0  0
 69 90  1  0  0  0  0
 71 72  1  0  0  0  0
M  CHG  2  81   1  82   1
M  ISO  4  39 100  69 101  78 100  90 101
M  END
> <Batch ID>
0144

> <Smiles>
CCCOc1cc([100NH:0][100C:0](=O)N2CCCC(n3nc(-c4ccc(Oc5ccc(F)cc5F)cc4)c(C(N)=O)c3N)C2)ccc1C(=N)N1CCC(C)(C[101CH:1](C)[101O:1]c2ccc3c(c2)CN(C(=O)C(NC(=O)C(C)NC)C(C)(C)C)C(C(=O)NC2CCCc4ccccc42)C3)C1

> <Shape>
0.218

> <Color>
0.068

> <Negative vol penalty>
0.000

$$$$

  -OEChem-04052303043D

 86 95  0     1  0  0  0  0  0999 V2000
  -35.3835  -27.2155   11.8683 C   0  0  0  0  0  0  0  0  0  0  0  0
  -34.6209  -26.4007   12.6989 C   0  0  0  0  0  0  0  0  0  0  0  0
  -23.0779   -9.8642   19.9422 C   0  0  0  0  0  0  0  0  0  0  0  0
  -23.8357   -9.8757   22.2363 C   0  0  0  0  0  0  0  0  0  0  0  0
  -36.4343  -27.9621   12.3997 C   0  0  0  0  0  0  0  0  0  0  0  0
  -34.9094  -26.3312   14.0614 C   0  0  0  0  0  0  0  0  0  0  0  0
  -30.9031  -25.6462   18.6425 C   0  0  0  0  0  0  0  0  0  0  0  0
  -22.3349   -8.7107   20.1934 C   0  0  0  0  0  0  0  0  0  0  0  0
  -23.0926   -8.7222   22.4875 C   0  0  0  0  0  0  0  0  0  0  0  0
  -30.4971  -24.5314   19.3747 C   0  0  0  0  0  0  0  0  0  0  0  0
  -19.8647   -7.9224   23.0884 C   0  0  0  0  0  0  0  0  0  0  0  0
  -19.1067   -7.8837   24.2586 C   0  0  0  0  0  0  0  0  0  0  0  0
  -29.8709  -17.4658   23.1336 C   0  0  0  0  0  0  0  0  0  0  0  0
  -31.8426  -18.3734   24.1945 C   0  0  0  0  0  0  0  0  0  0  0  0
  -32.0930  -25.0882   21.0958 C   0  0  0  0  0  0  0  0  0  0  0  0
  -32.0564  -16.6194   22.5468 C   0  0  0  0  0  0  0  0  0  0  0  0
  -20.3492   -5.9486   24.9994 C   0  0  0  0  0  0  0  0  0  0  0  0
  -23.8284  -10.4466   20.9637 C   0  0  0  0  0  0  0  0  0  0  0  0
  -30.4569  -18.3530   24.0365 C   0  0  0  0  0  0  0  0  0  0  0  0
  -24.1679  -12.9719   20.8398 C   0  0  0  0  0  0  0  0  0  0  0  0
  -36.7296  -27.9091   13.7710 C   0  0  0  0  0  0  0  0  0  0  0  0
  -31.9164  -26.4857   19.1271 C   0  0  0  0  0  0  0  0  0  0  0  0
  -35.9659  -27.0768   14.6115 C   0  0  0  0  0  0  0  0  0  0  0  0
  -32.5083  -26.2144   20.3690 C   0  0  0  0  0  0  0  0  0  0  0  0
  -30.6707  -16.5990   22.3888 C   0  0  0  0  0  0  0  0  0  0  0  0
  -22.3422   -8.1398   21.4660 C   0  0  0  0  0  0  0  0  0  0  0  0
  -31.0941  -24.2506   20.6002 C   0  0  0  0  0  0  0  0  0  0  0  0
  -20.8649   -6.9742   22.8736 C   0  0  0  0  0  0  0  0  0  0  0  0
  -19.3489   -6.8969   25.2142 C   0  0  0  0  0  0  0  0  0  0  0  0
  -32.6424  -17.5066   23.4497 C   0  0  0  0  0  0  0  0  0  0  0  0
  -21.1072   -5.9873   23.8291 C   0  0  0  0  0  0  0  0  0  0  0  0
  -24.5966  -11.6378   20.7047 C   0  0  0  0  0  0  0  0  0  0  0  0
  -25.2597  -13.7218   20.4763 C   0  0  0  0  0  0  0  0  0  0  0  0
  -29.2138  -22.3197   22.9704 C   0  0  0  0  0  0  0  0  0  0  0  0
  -29.6814  -23.3180   22.2143 C   0  0  0  0  0  0  0  0  0  1  0  0
  -29.6123  -19.2682   24.8247 C   0  0  0  0  0  0  0  0  0  0  0  0
  -22.8966  -13.4872   21.2566 C   0  0  0  0  0  0  0  0  0  0  0  0
  -34.8078  -27.3291   18.1112 C   0  0  0  0  0  0  0  0  0  0  0  0
  -34.6828  -29.3485   20.6466 C   0  0  0  0  0  0  0  0  0  0  0  0
  -33.3648  -30.0751   23.7096 C   0  0  0  0  0  0  0  0  0  0  0  0
  -30.7248  -14.7728   20.6543 C   0  0  0  0  0  0  0  0  0  0  0  0
  -37.9051  -28.6979   14.2914 C   0  0  0  0  0  0  0  0  0  0  0  0
  -32.3243  -27.6993   18.3378 C   0  0  0  0  0  0  0  0  0  0  0  0
  -33.5863  -27.0957   20.9431 C   0  0  0  0  0  0  0  0  0  0  0  0
  -28.0994  -22.4404   23.9681 C   0  0  0  0  0  0  0  0  0  0  0  0
  -29.8028  -20.9437   23.0346 C   0  0  0  0  0  0  0  0  0  0  0  0
  -37.9083  -28.8562   15.8097 C   0  0  0  0  0  0  0  0  0  0  0  0
  -29.6148  -12.3540   18.2890 C   0  0  0  0  0  0  0  0  0  0  0  0
  -37.6195  -27.5199   16.4863 C   0  0  0  0  0  0  0  0  0  0  0  0
  -28.1751  -12.0618   18.7177 C   0  0  0  0  0  0  0  0  0  0  0  0
  -28.4940  -21.4476   25.0547 C   0  0  0  0  0  0  0  0  0  0  0  0
  -30.5286  -12.5857   19.4911 C   0  0  0  0  0  0  0  0  0  0  0  0
  -28.6197  -13.3106   20.8694 C   0  0  0  0  0  0  0  0  0  0  0  0
  -36.2322  -26.9938   16.0988 C   0  0  1  0  0  0  0  0  0  0  0  0
  -33.7239  -28.1962   18.6865 C   0  0  1  0  0  0  0  0  0  0  0  0
  -27.6481  -13.1345   19.6910 C   0  0  2  0  0  0  0  0  0  0  0  0
  -33.4840  -31.7739   25.5528 C   0  0  0  0  0  0  0  0  0  0  0  0
  -37.3464  -28.1708   21.5565 C   0  0  0  0  0  0  0  0  0  0  0  0
  -36.9428  -29.1801   23.8119 C   0  0  0  0  0  0  0  0  0  0  0  0
  -37.1620  -30.6519   21.8098 C   0  0  0  0  0  0  0  0  0  0  0  0
  -30.5055  -30.7761   23.4059 C   0  0  0  0  0  0  0  0  0  0  0  0
  -35.0709  -29.2614   22.1029 C   0  0  1  0  0  0  0  0  0  0  0  0
  -32.7748  -31.3546   24.2745 C   0  0  2  0  0  0  0  0  0  0  0  0
  -36.6116  -29.2982   22.3088 C   0  0  0  0  0  0  0  0  0  0  0  0
  -25.8619  -11.5424   20.2877 N   0  0  0  0  0  0  0  0  0  0  0  0
  -26.2377  -12.8261   20.1576 N   0  0  0  0  0  0  0  0  0  0  0  0
  -29.3226  -20.4627   24.3406 N   0  0  0  0  0  0  0  0  0  0  0  0
  -33.9551  -28.2668   20.1307 N   0  0  0  0  0  0  0  0  0  0  0  0
  -29.9679  -13.6174   20.3663 N   0  0  0  0  0  0  0  0  0  0  0  0
  -25.4690  -15.0533   20.4012 N   0  0  0  0  0  0  0  0  0  0  0  0
  -21.8852  -12.5776   21.5945 N   0  0  0  0  0  0  0  0  0  0  0  0
  -30.0758  -15.6986   21.4706 N   0  0  0  0  0  0  0  0  0  0  0  0
  -35.2023  -27.6923   16.8376 N   0  0  0  0  0  0  0  0  0  0  0  0
  -34.3516  -30.3338   22.7819 N   0  0  0  0  0  0  0  0  0  0  0  0
  -29.1537  -18.8765   26.0098 N   0  3  0  0  0  0  0  0  0  0  0  0
  -31.3281  -31.1675   24.5794 N   0  3  0  0  0  0  0  0  0  0  0  0
  -22.6591  -14.7177   21.3117 O   0  0  0  0  0  0  0  0  0  0  0  0
  -35.2542  -26.4003   18.7742 O   0  0  0  0  0  0  0  0  0  0  0  0
  -35.0070  -30.3431   19.9928 O   0  0  0  0  0  0  0  0  0  0  0  0
  -32.9905  -28.9579   24.0592 O   0  0  0  0  0  0  0  0  0  0  0  0
  -31.8541  -14.9418   20.1875 O   0  0  0  0  0  0  0  0  0  0  0  0
  -21.6171   -7.0144   21.7116 O   0  0  0  0  0  0  0  0  0  0  0  0
  -30.7001  -23.1627   21.3166 O   0  0  0  0  0  0  0  0  0  1  0  0
  -18.6220   -6.8608   26.3386 F   0  0  0  0  0  0  0  0  0  0  0  0
  -33.9731  -17.5262   23.6015 F   0  0  0  0  0  0  0  0  0  0  0  0
  -22.0675   -5.0744   23.6289 F   0  0  0  0  0  0  0  0  0  0  0  0
  1  2  1  0  0  0  0
  1  5  2  0  0  0  0
  2  6  2  0  0  0  0
  3  8  2  0  0  0  0
  3 18  1  0  0  0  0
  4  9  1  0  0  0  0
  4 18  2  0  0  0  0
  5 21  1  0  0  0  0
  6 23  1  0  0  0  0
  7 10  2  0  0  0  0
  7 22  1  0  0  0  0
  8 26  1  0  0  0  0
  9 26  2  0  0  0  0
 10 27  1  0  0  0  0
 11 12  2  0  0  0  0
 11 28  1  0  0  0  0
 12 29  1  0  0  0  0
 13 19  2  0  0  0  0
 13 25  1  0  0  0  0
 14 19  1  0  0  0  0
 14 30  2  0  0  0  0
 15 24  1  0  0  0  0
 15 27  2  0  0  0  0
 16 25  2  0  0  0  0
 16 30  1  0  0  0  0
 17 29  2  0  0  0  0
 17 31  1  0  0  0  0
 18 32  1  0  0  0  0
 19 36  1  0  0  0  0
 20 32  1  0  0  0  0
 20 33  2  0  0  0  0
 20 37  1  0  0  0  0
 21 23  2  0  0  0  0
 21 42  1  0  0  0  0
 22 24  2  0  0  0  0
 22 43  1  0  0  0  0
 23 54  1  0  0  0  0
 24 44  1  0  0  0  0
 25 72  1  0  0  0  0
 26 82  1  0  0  0  0
 27 83  1  0  0  0  0
 28 31  2  0  0  0  0
 28 82  1  0  0  0  0
 29 84  1  0  0  0  0
 30 85  1  0  0  0  0
 31 86  1  0  0  0  0
 32 65  2  0  0  0  0
 33 66  1  0  0  0  0
 33 70  1  0  0  0  0
 34 35  2  0  0  0  0
 34 45  1  0  0  0  0
 34 46  1  0  0  0  0
 35 83  1  0  0  0  0
 36 67  1  0  0  0  0
 36 75  2  0  0  0  0
 37 71  1  0  0  0  0
 37 77  2  0  0  0  0
 38 55  1  0  0  0  0
 38 73  1  0  0  0  0
 38 78  2  0  0  0  0
 39 62  1  0  0  0  0
 39 68  1  0  0  0  0
 39 79  2  0  0  0  0
 40 63  1  0  0  0  0
 40 74  1  0  0  0  0
 40 80  2  0  0  0  0
 41 69  1  0  0  0  0
 41 72  1  0  0  0  0
 41 81  2  0  0  0  0
 42 47  1  0  0  0  0
 43 55  1  0  0  0  0
 44 68  1  0  0  0  0
 45 51  1  0  0  0  0
 46 67  1  0  0  0  0
 47 49  1  0  0  0  0
 48 50  1  0  0  0  0
 48 52  1  0  0  0  0
 49 54  1  0  0  0  0
 50 56  1  0  0  0  0
 51 67  1  0  0  0  0
 52 69  1  0  0  0  0
 53 56  1  0  0  0  0
 53 69  1  0  0  0  0
 54 73  1  0  0  0  0
 55 68  1  0  0  0  0
 56 66  1  0  0  0  0
 57 63  1  0  0  0  0
 58 64  1  0  0  0  0
 59 64  1  0  0  0  0
 60 64  1  0  0  0  0
 61 76  1  0  0  0  0
 62 64  1  0  0  0  0
 62 74  1  0  0  0  0
 63 76  1  0  0  0  0
 65 66  1  0  0  0  0
M  CHG  2  75   1  76   1
M  ISO  4  35 101  41 100  72 100  83 101
M  END
> <Batch ID>
0144

> <Smiles>
CNC(C)C(=O)NC(C(=O)N1Cc2cc([101O:1][101CH:1]=C3CCN(C(=N)c4cc(F)cc([100NH:0][100C:0](=O)N5CCCC(n6nc(-c7ccc(Oc8ccc(F)cc8F)cc7)c(C(N)=O)c6N)C5)c4)C3)ccc2CC1C(=O)NC1CCCc2ccccc21)C(C)(C)C

> <Shape>
0.197

> <Color>
0.188

> <Negative vol penalty>
0.000

$$$$

  -OEChem-04052303043D

 83 92  0     1  0  0  0  0  0999 V2000
  -31.0921  -35.1141   24.5835 C   0  0  0  0  0  0  0  0  0  0  0  0
  -31.0599  -34.1709   23.5613 C   0  0  0  0  0  0  0  0  0  0  0  0
  -28.2775  -20.2616   13.8156 C   0  0  0  0  0  0  0  0  0  0  0  0
  -26.2038  -12.7863   21.2969 C   0  0  0  0  0  0  0  0  0  0  0  0
  -26.1970  -12.9283   18.8851 C   0  0  0  0  0  0  0  0  0  0  0  0
  -30.2313  -34.9891   25.6731 C   0  0  0  0  0  0  0  0  0  0  0  0
  -30.1677  -33.1015   23.6288 C   0  0  0  0  0  0  0  0  0  0  0  0
  -27.2834  -30.4121   18.9433 C   0  0  0  0  0  0  0  0  0  0  0  0
  -27.9670  -21.6214   13.8108 C   0  0  0  0  0  0  0  0  0  0  0  0
  -28.6604  -19.6377   15.0030 C   0  0  0  0  0  0  0  0  0  0  0  0
  -25.0219  -12.0465   21.2567 C   0  0  0  0  0  0  0  0  0  0  0  0
  -25.0152  -12.1885   18.8449 C   0  0  0  0  0  0  0  0  0  0  0  0
  -27.5488  -29.2493   18.2213 C   0  0  0  0  0  0  0  0  0  0  0  0
  -24.1010   -8.8555   20.6226 C   0  0  0  0  0  0  0  0  0  0  0  0
  -24.0189   -7.7206   21.4293 C   0  0  0  0  0  0  0  0  0  0  0  0
  -26.0132  -28.0323   19.6283 C   0  0  0  0  0  0  0  0  0  0  0  0
  -28.4223  -21.7336   16.1809 C   0  0  0  0  0  0  0  0  0  0  0  0
  -22.1189   -8.6742   22.5774 C   0  0  0  0  0  0  0  0  0  0  0  0
  -26.7913  -13.2272   20.1111 C   0  0  0  0  0  0  0  0  0  0  0  0
  -29.3283  -13.4943   20.1189 C   0  0  0  0  0  0  0  0  0  0  0  0
  -29.3213  -33.9229   25.7493 C   0  0  0  0  0  0  0  0  0  0  0  0
  -26.3876  -30.3913   20.0219 C   0  0  0  0  0  0  0  0  0  0  0  0
  -29.2948  -32.9613   24.7211 C   0  0  0  0  0  0  0  0  0  0  0  0
  -25.7362  -29.1968   20.3608 C   0  0  0  0  0  0  0  0  0  0  0  0
  -28.0394  -22.3574   14.9935 C   0  0  0  0  0  0  0  0  0  0  0  0
  -28.7328  -20.3737   16.1856 C   0  0  0  0  0  0  0  0  0  0  0  0
  -24.4276  -11.7476   20.0307 C   0  0  0  0  0  0  0  0  0  0  0  0
  -26.9159  -28.0586   18.5656 C   0  0  0  0  0  0  0  0  0  0  0  0
  -23.1922   -9.8998   20.7933 C   0  0  0  0  0  0  0  0  0  0  0  0
  -23.0278   -7.6299   22.4067 C   0  0  0  0  0  0  0  0  0  0  0  0
  -22.2011   -9.8091   21.7706 C   0  0  0  0  0  0  0  0  0  0  0  0
  -28.0118  -13.9919   20.1521 C   0  0  0  0  0  0  0  0  0  0  0  0
  -30.1205  -14.6145   20.1818 C   0  0  0  0  0  0  0  0  0  0  0  0
  -29.7934  -12.1405   20.0383 C   0  0  0  0  0  0  0  0  0  0  0  0
  -26.6172  -30.9657   23.1398 C   0  0  0  0  0  0  0  0  0  0  0  0
  -23.3974  -30.5812   23.0519 C   0  0  0  0  0  0  0  0  0  0  0  0
  -20.6808  -29.2487   21.4736 C   0  0  0  0  0  0  0  0  0  0  0  0
  -29.2458  -20.3240   18.6515 C   0  0  0  0  0  0  0  0  0  0  0  0
  -28.4433  -33.8036   26.9698 C   0  0  0  0  0  0  0  0  0  0  0  0
  -26.0918  -31.6600   20.7738 C   0  0  0  0  0  0  0  0  0  0  0  0
  -24.7506  -29.1258   21.4975 C   0  0  0  0  0  0  0  0  0  0  0  0
  -27.2678  -32.8478   26.7834 C   0  0  0  0  0  0  0  0  0  0  0  0
  -30.1422  -19.0956   21.8710 C   0  0  0  0  0  0  0  0  0  0  0  0
  -27.7349  -31.5465   26.1390 C   0  0  0  0  0  0  0  0  0  0  0  0
  -29.8231  -17.6010   21.7905 C   0  0  0  0  0  0  0  0  0  0  0  0
  -27.3847  -25.9047   14.2333 C   0  0  0  0  0  0  0  0  0  0  0  0
  -29.1230  -19.9353   21.1028 C   0  0  0  0  0  0  0  0  0  0  0  0
  -27.3210  -24.4421   13.7986 C   0  0  0  0  0  0  0  0  0  0  0  0
  -27.7852  -24.5586   16.1709 C   0  0  0  0  0  0  0  0  0  0  0  0
  -28.5915  -18.0358   19.6269 C   0  0  0  0  0  0  0  0  0  0  0  0
  -28.3238  -31.8009   24.7462 C   0  0  1  0  0  0  0  0  0  0  0  0
  -25.5514  -31.4100   22.1783 C   0  0  1  0  0  0  0  0  0  0  0  0
  -27.0702  -25.8390   15.7250 C   0  0  1  0  0  0  0  0  0  0  0  0
  -29.6272  -17.1444   20.3315 C   0  0  2  0  0  0  0  0  0  0  0  0
  -18.1844  -29.0732   21.6592 C   0  0  0  0  0  0  0  0  0  0  0  0
  -23.7104  -28.5056   25.2663 C   0  0  0  0  0  0  0  0  0  0  0  0
  -21.3954  -27.7055   24.7479 C   0  0  0  0  0  0  0  0  0  0  0  0
  -21.7565  -30.0416   25.5448 C   0  0  0  0  0  0  0  0  0  0  0  0
  -20.2753  -30.6275   18.8864 C   0  0  0  0  0  0  0  0  0  0  0  0
  -27.5195  -27.0736   16.4868 C   0  0  0  0  0  0  0  0  0  1  0  0
  -22.4562  -29.4101   23.1988 C   0  0  1  0  0  0  0  0  0  0  0  0
  -19.3487  -29.8575   21.0744 C   0  0  2  0  0  0  0  0  0  0  0  0
  -22.3496  -28.9163   24.6692 C   0  0  0  0  0  0  0  0  0  0  0  0
  -27.9661  -15.3245   20.2302 N   0  0  0  0  0  0  0  0  0  0  0  0
  -29.2637  -15.6738   20.2467 N   0  0  0  0  0  0  0  0  0  0  0  0
  -27.7318  -23.7014   14.9886 N   0  0  3  0  0  0  0  0  0  0  0  0
  -24.4996  -30.3916   22.2063 N   0  0  0  0  0  0  0  0  0  0  0  0
  -28.9934  -19.4475   19.7280 N   0  0  0  0  0  0  0  0  0  0  0  0
  -31.4594  -14.7870   20.1875 N   0  0  0  0  0  0  0  0  0  0  0  0
  -28.8448  -11.1103   19.9810 N   0  0  0  0  0  0  0  0  0  0  0  0
  -29.1229  -19.7398   17.3913 N   0  0  0  0  0  0  0  0  0  0  0  0
  -27.2661  -32.0044   23.7797 N   0  0  0  0  0  0  0  0  0  0  0  0
  -21.1866  -29.8313   22.6164 N   0  0  0  0  0  0  0  0  0  0  0  0
  -19.2088  -29.8702   19.5907 N   0  3  0  0  0  0  0  0  0  0  0  0
  -31.0142  -11.8518   20.0342 O   0  0  0  0  0  0  0  0  0  0  0  0
  -26.8337  -29.7691   23.2910 O   0  0  0  0  0  0  0  0  0  0  0  0
  -23.1595  -31.6282   23.6592 O   0  0  0  0  0  0  0  0  0  0  0  0
  -21.2171  -28.3441   20.8375 O   0  0  0  0  0  0  0  0  0  0  0  0
  -29.5752  -21.4987   18.8347 O   0  0  0  0  0  0  0  0  0  0  0  0
  -23.2745  -11.0256   19.9910 O   0  0  0  0  0  0  0  0  0  0  0  0
  -27.1737  -26.9220   17.8630 O   0  0  0  0  0  0  0  0  0  1  0  0
  -22.9481   -6.5393   23.1802 F   0  0  0  0  0  0  0  0  0  0  0  0
  -21.3244  -10.8087   21.9385 F   0  0  0  0  0  0  0  0  0  0  0  0
  1  2  1  0  0  0  0
  1  6  2  0  0  0  0
  2  7  2  0  0  0  0
  3  9  2  0  0  0  0
  3 10  1  0  0  0  0
  4 11  2  0  0  0  0
  4 19  1  0  0  0  0
  5 12  1  0  0  0  0
  5 19  2  0  0  0  0
  6 21  1  0  0  0  0
  7 23  1  0  0  0  0
  8 13  2  0  0  0  0
  8 22  1  0  0  0  0
  9 25  1  0  0  0  0
 10 26  2  0  0  0  0
 11 27  1  0  0  0  0
 12 27  2  0  0  0  0
 13 28  1  0  0  0  0
 14 15  2  0  0  0  0
 14 29  1  0  0  0  0
 15 30  1  0  0  0  0
 16 24  1  0  0  0  0
 16 28  2  0  0  0  0
 17 25  2  0  0  0  0
 17 26  1  0  0  0  0
 18 30  2  0  0  0  0
 18 31  1  0  0  0  0
 19 32  1  0  0  0  0
 20 32  1  0  0  0  0
 20 33  2  0  0  0  0
 20 34  1  0  0  0  0
 21 23  2  0  0  0  0
 21 39  1  0  0  0  0
 22 24  2  0  0  0  0
 22 40  1  0  0  0  0
 23 51  1  0  0  0  0
 24 41  1  0  0  0  0
 25 66  1  0  0  0  0
 26 71  1  0  0  0  0
 27 80  1  0  0  0  0
 28 81  1  0  0  0  0
 29 31  2  0  0  0  0
 29 80  1  0  0  0  0
 30 82  1  0  0  0  0
 31 83  1  0  0  0  0
 32 64  2  0  0  0  0
 33 65  1  0  0  0  0
 33 69  1  0  0  0  0
 34 70  1  0  0  0  0
 34 75  2  0  0  0  0
 35 52  1  0  0  0  0
 35 72  1  0  0  0  0
 35 76  2  0  0  0  0
 36 61  1  0  0  0  0
 36 67  1  0  0  0  0
 36 77  2  0  0  0  0
 37 62  1  0  0  0  0
 37 73  1  0  0  0  0
 37 78  2  0  0  0  0
 38 68  1  0  0  0  0
 38 71  1  0  0  0  0
 38 79  2  0  0  0  0
 39 42  1  0  0  0  0
 40 52  1  0  0  0  0
 41 67  1  0  0  0  0
 42 44  1  0  0  0  0
 43 45  1  0  0  0  0
 43 47  1  0  0  0  0
 44 51  1  0  0  0  0
 45 54  1  0  0  0  0
 46 48  1  0  0  0  0
 46 53  1  0  0  0  0
 47 68  1  0  0  0  0
 48 66  1  0  0  0  0
 49 53  1  0  0  0  0
 49 66  1  0  0  0  0
 50 54  1  0  0  0  0
 50 68  1  0  0  0  0
 51 72  1  0  0  0  0
 52 67  1  0  0  0  0
 53 60  1  0  0  0  0
 54 65  1  0  0  0  0
 55 62  1  0  0  0  0
 56 63  1  0  0  0  0
 57 63  1  0  0  0  0
 58 63  1  0  0  0  0
 59 74  1  0  0  0  0
 60 81  1  0  0  0  0
 61 63  1  0  0  0  0
 61 73  1  0  0  0  0
 62 74  1  0  0  0  0
 64 65  1  0  0  0  0
M  CHG  1  74   1
M  ISO  4  38 100  60 101  71 100  81 101
M  END
> <Batch ID>
0144

> <Smiles>
CNC(C)C(=O)NC(C(=O)N1Cc2cc([101O:1][101CH2:1]C3CCN(c4cccc([100NH:0][100C:0](=O)N5CCCC(n6nc(-c7ccc(Oc8ccc(F)cc8F)cc7)c(C(N)=O)c6N)C5)c4)C3)ccc2CC1C(=O)NC1CCCc2ccccc21)C(C)(C)C

> <Shape>
0.272

> <Color>
0.086

> <Negative vol penalty>
0.000

$$$$

  -OEChem-04052303043D

 88 97  0     1  0  0  0  0  0999 V2000
  -29.1241  -24.5811   16.8051 C   0  0  0  0  0  0  0  0  0  0  0  0
  -27.8539  -24.7381   17.3504 C   0  0  0  0  0  0  0  0  0  0  0  0
  -18.9734  -18.1045   17.3965 C   0  0  0  0  0  0  0  0  0  0  0  0
  -24.3419   -9.9005   21.8690 C   0  0  0  0  0  0  0  0  0  0  0  0
  -22.7040  -10.2015   20.1187 C   0  0  0  0  0  0  0  0  0  0  0  0
  -18.4088  -19.2283   17.9998 C   0  0  0  0  0  0  0  0  0  0  0  0
  -30.2385  -25.0717   17.4844 C   0  0  0  0  0  0  0  0  0  0  0  0
  -27.6975  -25.3848   18.5759 C   0  0  0  0  0  0  0  0  0  0  0  0
  -23.8784  -28.7102   18.5441 C   0  0  0  0  0  0  0  0  0  0  0  0
  -20.1874  -17.5990   17.8617 C   0  0  0  0  0  0  0  0  0  0  0  0
  -23.6668   -8.7604   22.3048 C   0  0  0  0  0  0  0  0  0  0  0  0
  -22.0288   -9.0613   20.5545 C   0  0  0  0  0  0  0  0  0  0  0  0
  -22.5869  -28.1977   18.6579 C   0  0  0  0  0  0  0  0  0  0  0  0
  -23.3977   -5.5190   21.3809 C   0  0  0  0  0  0  0  0  0  0  0  0
  -24.1590   -4.3885   21.6775 C   0  0  0  0  0  0  0  0  0  0  0  0
  -20.2723  -19.3411   19.5334 C   0  0  0  0  0  0  0  0  0  0  0  0
  -22.5742  -28.7666   21.0021 C   0  0  0  0  0  0  0  0  0  0  0  0
  -23.3390   -4.4325   23.9497 C   0  0  0  0  0  0  0  0  0  0  0  0
  -23.8605  -10.6211   20.7759 C   0  0  0  0  0  0  0  0  0  0  0  0
  -19.0583  -19.8466   19.0682 C   0  0  0  0  0  0  0  0  0  0  0  0
  -25.5893  -11.8634   19.3704 C   0  0  0  0  0  0  0  0  0  0  0  0
  -30.0948  -25.7333   18.7141 C   0  0  0  0  0  0  0  0  0  0  0  0
  -24.5328  -29.2458   19.6627 C   0  0  0  0  0  0  0  0  0  0  0  0
  -28.8111  -25.8835   19.2728 C   0  0  0  0  0  0  0  0  0  0  0  0
  -23.8730  -29.2876   20.8993 C   0  0  0  0  0  0  0  0  0  0  0  0
  -20.8368  -18.2173   18.9301 C   0  0  0  0  0  0  0  0  0  0  0  0
  -22.5102   -8.3408   21.6476 C   0  0  0  0  0  0  0  0  0  0  0  0
  -21.9356  -28.2232   19.8876 C   0  0  0  0  0  0  0  0  0  0  0  0
  -22.6071   -6.1063   22.3687 C   0  0  0  0  0  0  0  0  0  0  0  0
  -24.1296   -3.8452   22.9618 C   0  0  0  0  0  0  0  0  0  0  0  0
  -22.5778   -5.5630   23.6530 C   0  0  0  0  0  0  0  0  0  0  0  0
  -24.5572  -11.7992   20.3256 C   0  0  0  0  0  0  0  0  0  0  0  0
  -25.9090  -13.1973   19.2995 C   0  0  0  0  0  0  0  0  0  0  0  0
  -18.2671  -23.4848   19.7654 C   0  0  0  0  0  0  0  0  0  0  0  0
  -18.4623  -21.0337   19.7067 C   0  0  0  0  0  0  0  0  0  0  0  0
  -26.2041  -10.8114   18.6148 C   0  0  0  0  0  0  0  0  0  0  0  0
  -27.1748  -28.5226   21.2754 C   0  0  0  0  0  0  0  0  0  0  0  0
  -26.4912  -31.2685   22.8613 C   0  0  0  0  0  0  0  0  0  0  0  0
  -24.1447  -33.5544   23.8179 C   0  0  0  0  0  0  0  0  0  0  0  0
  -22.8448  -18.1962   20.4513 C   0  0  0  0  0  0  0  0  0  0  0  0
  -31.3334  -26.2047   19.4340 C   0  0  0  0  0  0  0  0  0  0  0  0
  -25.9158  -29.8191   19.5175 C   0  0  0  0  0  0  0  0  0  0  0  0
  -24.5240  -29.8702   22.1262 C   0  0  0  0  0  0  0  0  0  0  0  0
  -31.0459  -27.2088   20.5472 C   0  0  0  0  0  0  0  0  0  0  0  0
  -25.9183  -17.1915   21.9416 C   0  0  0  0  0  0  0  0  0  0  0  0
  -29.8850  -26.7287   21.4125 C   0  0  0  0  0  0  0  0  0  0  0  0
  -26.0150  -15.7019   21.6041 C   0  0  0  0  0  0  0  0  0  0  0  0
  -20.0758  -23.9121   18.2957 C   0  0  0  0  0  0  0  0  0  0  0  0
  -24.4794  -17.6154   22.2305 C   0  0  0  0  0  0  0  0  0  0  0  0
  -19.6721  -22.4524   18.1153 C   0  0  0  0  0  0  0  0  0  0  0  0
  -23.6034  -15.7714   20.8516 C   0  0  0  0  0  0  0  0  0  0  0  0
  -28.5984  -26.6012   20.5880 C   0  0  1  0  0  0  0  0  0  0  0  0
  -26.6820  -29.8722   20.8356 C   0  0  1  0  0  0  0  0  0  0  0  0
  -25.0249  -15.3112   20.4894 C   0  0  2  0  0  0  0  0  0  0  0  0
  -18.8566  -24.6075   18.9343 C   0  0  1  0  0  0  0  0  0  0  0  0
  -17.8333  -25.0440   17.8849 C   0  0  0  0  0  0  0  0  0  0  0  0
  -23.8804  -35.6704   25.1409 C   0  0  0  0  0  0  0  0  0  0  0  0
  -26.6602  -29.6665   25.4527 C   0  0  0  0  0  0  0  0  0  0  0  0
  -25.4814  -31.5475   26.6106 C   0  0  0  0  0  0  0  0  0  0  0  0
  -27.7096  -31.9342   25.5578 C   0  0  0  0  0  0  0  0  0  0  0  0
  -23.2168  -35.0595   21.4446 C   0  0  0  0  0  0  0  0  0  0  0  0
  -19.2765  -25.7839   19.8096 C   0  0  0  0  0  0  0  0  0  0  0  0
  -20.3185  -26.6551   19.1248 C   0  0  0  0  0  0  0  0  0  1  0  0
  -25.6793  -31.6234   24.0835 C   0  0  1  0  0  0  0  0  0  0  0  0
  -24.1368  -35.0716   23.7667 C   0  0  2  0  0  0  0  0  0  0  0  0
  -26.3708  -31.1801   25.4037 C   0  0  0  0  0  0  0  0  0  0  0  0
  -24.2421  -12.9970   20.8257 N   0  0  0  0  0  0  0  0  0  0  0  0
  -25.0813  -13.8264   20.1823 N   0  0  0  0  0  0  0  0  0  0  0  0
  -18.7648  -22.2365   19.2510 N   0  0  0  0  0  0  0  0  0  0  0  0
  -25.8793  -30.4126   21.9346 N   0  0  0  0  0  0  0  0  0  0  0  0
  -23.5996  -17.2161   21.1298 N   0  0  0  0  0  0  0  0  0  0  0  0
  -26.8145  -13.8817   18.5687 N   0  0  0  0  0  0  0  0  0  0  0  0
  -25.7552   -9.4981   18.8102 N   0  0  0  0  0  0  0  0  0  0  0  0
  -22.0699  -17.7030   19.4020 N   0  0  0  0  0  0  0  0  0  0  0  0
  -28.0100  -27.9044   20.3645 N   0  0  0  0  0  0  0  0  0  0  0  0
  -25.4177  -33.0561   23.9979 N   0  0  0  0  0  0  0  0  0  0  0  0
  -17.6281  -20.8756   20.7302 N   0  3  0  0  0  0  0  0  0  0  0  0
  -23.0748  -35.5530   22.8386 N   0  3  0  0  0  0  0  0  0  0  0  0
  -17.4784  -23.5618   20.6909 O   0  0  0  0  0  0  0  0  0  0  0  0
  -27.1355  -11.0274   17.8028 O   0  0  0  0  0  0  0  0  0  0  0  0
  -26.8244  -28.0759   22.3613 O   0  0  0  0  0  0  0  0  0  0  0  0
  -27.6239  -31.7392   22.7301 O   0  0  0  0  0  0  0  0  0  0  0  0
  -23.1233  -32.8791   23.7128 O   0  0  0  0  0  0  0  0  0  0  0  0
  -22.9037  -19.3893   20.7596 O   0  0  0  0  0  0  0  0  0  0  0  0
  -21.8513   -7.2282   22.0724 O   0  0  0  0  0  0  0  0  0  0  0  0
  -20.6752  -27.7229   20.0016 O   0  0  0  0  0  0  0  0  0  1  0  0
  -24.8595   -2.7586   23.2461 F   0  0  0  0  0  0  0  0  0  0  0  0
  -21.8193   -6.1222   24.6059 F   0  0  0  0  0  0  0  0  0  0  0  0
  1  2  1  0  0  0  0
  1  7  2  0  0  0  0
  2  8  2  0  0  0  0
  3  6  2  0  0  0  0
  3 10  1  0  0  0  0
  4 11  2  0  0  0  0
  4 19  1  0  0  0  0
  5 12  1  0  0  0  0
  5 19  2  0  0  0  0
  6 20  1  0  0  0  0
  7 22  1  0  0  0  0
  8 24  1  0  0  0  0
  9 13  2  0  0  0  0
  9 23  1  0  0  0  0
 10 26  2  0  0  0  0
 11 27  1  0  0  0  0
 12 27  2  0  0  0  0
 13 28  1  0  0  0  0
 14 15  2  0  0  0  0
 14 29  1  0  0  0  0
 15 30  1  0  0  0  0
 16 20  2  0  0  0  0
 16 26  1  0  0  0  0
 17 25  1  0  0  0  0
 17 28  2  0  0  0  0
 18 30  2  0  0  0  0
 18 31  1  0  0  0  0
 19 32  1  0  0  0  0
 20 35  1  0  0  0  0
 21 32  1  0  0  0  0
 21 33  2  0  0  0  0
 21 36  1  0  0  0  0
 22 24  2  0  0  0  0
 22 41  1  0  0  0  0
 23 25  2  0  0  0  0
 23 42  1  0  0  0  0
 24 52  1  0  0  0  0
 25 43  1  0  0  0  0
 26 74  1  0  0  0  0
 27 85  1  0  0  0  0
 28 86  1  0  0  0  0
 29 31  2  0  0  0  0
 29 85  1  0  0  0  0
 30 87  1  0  0  0  0
 31 88  1  0  0  0  0
 32 67  2  0  0  0  0
 33 68  1  0  0  0  0
 33 72  1  0  0  0  0
 34 55  1  0  0  0  0
 34 69  1  0  0  0  0
 34 79  2  0  0  0  0
 35 69  1  0  0  0  0
 35 77  2  0  0  0  0
 36 73  1  0  0  0  0
 36 80  2  0  0  0  0
 37 53  1  0  0  0  0
 37 75  1  0  0  0  0
 37 81  2  0  0  0  0
 38 64  1  0  0  0  0
 38 70  1  0  0  0  0
 38 82  2  0  0  0  0
 39 65  1  0  0  0  0
 39 76  1  0  0  0  0
 39 83  2  0  0  0  0
 40 71  1  0  0  0  0
 40 74  1  0  0  0  0
 40 84  2  0  0  0  0
 41 44  1  0  0  0  0
 42 53  1  0  0  0  0
 43 70  1  0  0  0  0
 44 46  1  0  0  0  0
 45 47  1  0  0  0  0
 45 49  1  0  0  0  0
 46 52  1  0  0  0  0
 47 54  1  0  0  0  0
 48 50  1  0  0  0  0
 48 55  1  0  0  0  0
 49 71  1  0  0  0  0
 50 69  1  0  0  0  0
 51 54  1  0  0  0  0
 51 71  1  0  0  0  0
 52 75  1  0  0  0  0
 53 70  1  0  0  0  0
 54 68  1  0  0  0  0
 55 56  1  0  0  0  0
 55 62  1  0  0  0  0
 57 65  1  0  0  0  0
 58 66  1  0  0  0  0
 59 66  1  0  0  0  0
 60 66  1  0  0  0  0
 61 78  1  0  0  0  0
 62 63  1  0  0  0  0
 63 86  1  0  0  0  0
 64 66  1  0  0  0  0
 64 76  1  0  0  0  0
 65 78  1  0  0  0  0
 67 68  1  0  0  0  0
M  CHG  2  77   1  78   1
M  ISO  4  40 100  63 101  74 100  86 101
M  END
> <Batch ID>
0144

> <Smiles>
CNC(C)C(=O)NC(C(=O)N1Cc2cc([101O:1][101CH2:1]CC3(C)CCN(C(=N)c4cccc([100NH:0][100C:0](=O)N5CCCC(n6nc(-c7ccc(Oc8ccc(F)cc8F)cc7)c(C(N)=O)c6N)C5)c4)C3=O)ccc2CC1C(=O)NC1CCCc2ccccc21)C(C)(C)C

> <Shape>
0.278

> <Color>
0.088

> <Negative vol penalty>
0.000

$$$$

  -OEChem-04052303043D

 86 94  0     1  0  0  0  0  0999 V2000
  -30.2241  -24.0917   19.3582 C   0  0  0  0  0  0  0  0  0  0  0  0
  -28.8423  -24.2383   19.2917 C   0  0  0  0  0  0  0  0  0  0  0  0
  -28.0750  -14.6077   21.0979 C   0  0  0  0  0  0  0  0  0  0  0  0
  -25.8945  -15.2502   20.2796 C   0  0  0  0  0  0  0  0  0  0  0  0
  -30.9413  -24.7120   20.3804 C   0  0  0  0  0  0  0  0  0  0  0  0
  -28.1767  -25.0043   20.2481 C   0  0  0  0  0  0  0  0  0  0  0  0
  -23.2202  -28.4931   19.3719 C   0  0  0  0  0  0  0  0  0  0  0  0
  -27.7371  -13.2633   20.9429 C   0  0  0  0  0  0  0  0  0  0  0  0
  -25.5566  -13.9058   20.1245 C   0  0  0  0  0  0  0  0  0  0  0  0
  -21.8639  -28.2718   19.6069 C   0  0  0  0  0  0  0  0  0  0  0  0
  -23.9892  -10.6379   19.8525 C   0  0  0  0  0  0  0  0  0  0  0  0
  -22.7324  -10.2297   20.2988 C   0  0  0  0  0  0  0  0  0  0  0  0
  -22.0552  -29.3954   21.7329 C   0  0  0  0  0  0  0  0  0  0  0  0
  -22.6118  -23.3259   24.9950 C   0  0  0  0  0  0  0  0  0  0  0  0
  -23.2983  -10.9361   22.5388 C   0  0  0  0  0  0  0  0  0  0  0  0
  -21.9984  -22.1590   23.1954 C   0  0  0  0  0  0  0  0  0  0  0  0
  -27.1537  -15.6012   20.7663 C   0  0  0  0  0  0  0  0  0  0  0  0
  -28.1072  -17.8304   19.9731 C   0  0  0  0  0  0  0  0  0  0  0  0
  -30.2853  -25.4940   21.3441 C   0  0  0  0  0  0  0  0  0  0  0  0
  -24.0079  -29.1587   20.3221 C   0  0  0  0  0  0  0  0  0  0  0  0
  -28.8857  -25.6345   21.2849 C   0  0  0  0  0  0  0  0  0  0  0  0
  -23.4206  -29.6262   21.5064 C   0  0  0  0  0  0  0  0  0  0  0  0
  -23.0059  -22.2825   24.1237 C   0  0  0  0  0  0  0  0  0  0  0  0
  -26.4779  -12.9124   20.4562 C   0  0  0  0  0  0  0  0  0  0  0  0
  -21.2818  -28.7204   20.7888 C   0  0  0  0  0  0  0  0  0  0  0  0
  -24.9007  -11.1951   20.7494 C   0  0  0  0  0  0  0  0  0  0  0  0
  -22.3869  -10.3788   21.6419 C   0  0  0  0  0  0  0  0  0  0  0  0
  -24.5553  -11.3443   22.0925 C   0  0  0  0  0  0  0  0  0  0  0  0
  -27.5020  -16.9901   20.9267 C   0  0  0  0  0  0  0  0  0  0  0  0
  -28.2248  -19.0422   20.6087 C   0  0  0  0  0  0  0  0  0  0  0  0
  -21.3917  -23.7658   24.5370 C   0  0  0  0  0  0  0  0  0  0  0  0
  -28.5256  -17.5413   18.6325 C   0  0  0  0  0  0  0  0  0  0  0  0
  -26.5451  -28.3830   22.0727 C   0  0  0  0  0  0  0  0  0  0  0  0
  -18.3602  -27.4198   22.4787 C   0  0  0  0  0  0  0  0  0  0  0  0
  -26.4341  -31.5133   22.9158 C   0  0  0  0  0  0  0  0  0  0  0  0
  -24.5788  -34.3570   23.2602 C   0  0  0  0  0  0  0  0  0  0  0  0
  -25.2280  -21.6050   25.0982 C   0  0  0  0  0  0  0  0  0  0  0  0
  -31.0976  -26.1062   22.4577 C   0  0  0  0  0  0  0  0  0  0  0  0
  -25.4636  -29.4131   20.0416 C   0  0  0  0  0  0  0  0  0  0  0  0
  -24.2181  -30.3640   22.5495 C   0  0  0  0  0  0  0  0  0  0  0  0
  -30.3604  -27.2080   23.2146 C   0  0  0  0  0  0  0  0  0  0  0  0
  -28.7252  -20.9485   24.9734 C   0  0  0  0  0  0  0  0  0  0  0  0
  -28.9426  -26.7626   23.5586 C   0  0  0  0  0  0  0  0  0  0  0  0
  -28.8642  -19.9400   23.8307 C   0  0  0  0  0  0  0  0  0  0  0  0
  -27.4478  -20.7199   25.7794 C   0  0  0  0  0  0  0  0  0  0  0  0
  -26.3523  -19.6619   23.8429 C   0  0  0  0  0  0  0  0  0  0  0  0
  -28.1306  -26.4777   22.2894 C   0  0  1  0  0  0  0  0  0  0  0  0
  -26.2835  -29.6487   21.3064 C   0  0  1  0  0  0  0  0  0  0  0  0
  -27.5914  -19.8929   22.9627 C   0  0  2  0  0  0  0  0  0  0  0  0
  -24.7556  -36.7458   24.0083 C   0  0  0  0  0  0  0  0  0  0  0  0
  -17.3201  -28.4666   24.4980 C   0  0  0  0  0  0  0  0  0  0  0  0
  -16.5228  -26.2371   23.7365 C   0  0  0  0  0  0  0  0  0  0  0  0
  -26.4256  -30.5998   25.8270 C   0  0  0  0  0  0  0  0  0  0  0  0
  -25.6544  -32.8928   26.4716 C   0  0  0  0  0  0  0  0  0  0  0  0
  -27.8679  -32.5893   25.3622 C   0  0  0  0  0  0  0  0  0  0  0  0
  -23.8333  -35.3722   20.5821 C   0  0  0  0  0  0  0  0  0  0  0  0
  -19.5529  -28.3590   22.3814 C   0  0  0  0  0  0  0  0  0  1  0  0
  -19.2752  -25.0753   24.3601 C   0  0  0  0  0  0  0  0  0  0  0  0
  -25.7527  -32.3031   24.0071 C   0  0  1  0  0  0  0  0  0  0  0  0
  -24.8407  -35.7889   22.8294 C   0  0  2  0  0  0  0  0  0  0  0  0
  -18.8161  -26.4639   24.8043 C   0  0  1  0  0  0  0  0  0  0  0  0
  -17.7708  -27.1312   23.8784 C   0  0  0  0  0  0  0  0  0  0  0  0
  -26.4103  -32.0806   25.3984 C   0  0  0  0  0  0  0  0  0  0  0  0
  -27.2527  -17.6152   22.0805 N   0  0  0  0  0  0  0  0  0  0  0  0
  -27.7035  -18.8611   21.8560 N   0  0  0  0  0  0  0  0  0  0  0  0
  -25.6390  -30.5827   22.2320 N   0  0  0  0  0  0  0  0  0  0  0  0
  -26.2832  -20.6915   24.8917 N   0  0  0  0  0  0  0  0  0  0  0  0
  -28.7224  -20.2344   20.2169 N   0  0  0  0  0  0  0  0  0  0  0  0
  -28.3306  -16.2450   18.1366 N   0  0  0  0  0  0  0  0  0  0  0  0
  -24.1899  -21.5056   24.1725 N   0  0  0  0  0  0  0  0  0  0  0  0
  -20.5378  -24.7574   24.9891 N   0  0  0  0  0  0  0  0  0  0  0  0
  -27.6905  -27.7157   21.6825 N   0  0  0  0  0  0  0  0  0  0  0  0
  -25.7486  -33.6929   23.5635 N   0  0  0  0  0  0  0  0  0  0  0  0
  -23.8428  -36.2128   21.8069 N   0  3  0  0  0  0  0  0  0  0  0  0
  -29.0716  -18.4025   17.9019 O   0  0  0  0  0  0  0  0  0  0  0  0
  -25.7662  -28.0381   22.9537 O   0  0  0  0  0  0  0  0  0  0  0  0
  -17.8755  -26.9197   21.4606 O   0  0  0  0  0  0  0  0  0  0  0  0
  -27.6259  -31.7198   22.6740 O   0  0  0  0  0  0  0  0  0  0  0  0
  -23.4493  -33.8768   23.3251 O   0  0  0  0  0  0  0  0  0  0  0  0
  -25.2566  -22.4340   26.0114 O   0  0  0  0  0  0  0  0  0  0  0  0
  -21.0107  -23.0596   23.4403 O   0  0  0  0  0  0  0  0  0  0  0  0
  -26.1479  -11.6006   20.3046 O   0  0  0  0  0  0  0  0  0  0  0  0
  -19.9583  -28.5051   21.0210 O   0  0  0  0  0  0  0  0  0  1  0  0
  -21.1793   -9.9882   22.0701 F   0  0  0  0  0  0  0  0  0  0  0  0
  -25.4263  -11.8801   22.9586 F   0  0  0  0  0  0  0  0  0  0  0  0
  -18.2592  -26.3300   26.0475 F   0  0  0  0  0  0  0  0  0  0  0  0
  1  2  1  0  0  0  0
  1  5  2  0  0  0  0
  2  6  2  0  0  0  0
  3  8  2  0  0  0  0
  3 17  1  0  0  0  0
  4  9  1  0  0  0  0
  4 17  2  0  0  0  0
  5 19  1  0  0  0  0
  6 21  1  0  0  0  0
  7 10  2  0  0  0  0
  7 20  1  0  0  0  0
  8 24  1  0  0  0  0
  9 24  2  0  0  0  0
 10 25  1  0  0  0  0
 11 12  2  0  0  0  0
 11 26  1  0  0  0  0
 12 27  1  0  0  0  0
 13 22  1  0  0  0  0
 13 25  2  0  0  0  0
 14 23  1  0  0  0  0
 14 31  2  0  0  0  0
 15 27  2  0  0  0  0
 15 28  1  0  0  0  0
 16 23  2  0  0  0  0
 16 81  1  0  0  0  0
 17 29  1  0  0  0  0
 18 29  1  0  0  0  0
 18 30  2  0  0  0  0
 18 32  1  0  0  0  0
 19 21  2  0  0  0  0
 19 38  1  0  0  0  0
 20 22  2  0  0  0  0
 20 39  1  0  0  0  0
 21 47  1  0  0  0  0
 22 40  1  0  0  0  0
 23 70  1  0  0  0  0
 24 82  1  0  0  0  0
 25 83  1  0  0  0  0
 26 28  2  0  0  0  0
 26 82  1  0  0  0  0
 27 84  1  0  0  0  0
 28 85  1  0  0  0  0
 29 64  2  0  0  0  0
 30 65  1  0  0  0  0
 30 68  1  0  0  0  0
 31 71  1  0  0  0  0
 31 81  1  0  0  0  0
 32 69  1  0  0  0  0
 32 75  2  0  0  0  0
 33 48  1  0  0  0  0
 33 72  1  0  0  0  0
 33 76  2  0  0  0  0
 34 57  1  0  0  0  0
 34 62  1  0  0  0  0
 34 77  2  0  0  0  0
 35 59  1  0  0  0  0
 35 66  1  0  0  0  0
 35 78  2  0  0  0  0
 36 60  1  0  0  0  0
 36 73  1  0  0  0  0
 36 79  2  0  0  0  0
 37 67  1  0  0  0  0
 37 70  1  0  0  0  0
 37 80  2  0  0  0  0
 38 41  1  0  0  0  0
 39 48  1  0  0  0  0
 40 66  1  0  0  0  0
 41 43  1  0  0  0  0
 42 44  1  0  0  0  0
 42 45  1  0  0  0  0
 43 47  1  0  0  0  0
 44 49  1  0  0  0  0
 45 67  1  0  0  0  0
 46 49  1  0  0  0  0
 46 67  1  0  0  0  0
 47 72  1  0  0  0  0
 48 66  1  0  0  0  0
 49 65  1  0  0  0  0
 50 60  1  0  0  0  0
 51 62  1  0  0  0  0
 52 62  1  0  0  0  0
 53 63  1  0  0  0  0
 54 63  1  0  0  0  0
 55 63  1  0  0  0  0
 56 74  1  0  0  0  0
 57 83  1  0  0  0  0
 58 61  1  0  0  0  0
 58 71  1  0  0  0  0
 59 63  1  0  0  0  0
 59 73  1  0  0  0  0
 60 74  1  0  0  0  0
 61 62  1  0  0  0  0
 61 86  1  0  0  0  0
 64 65  1  0  0  0  0
M  CHG  1  74   1
M  ISO  4  37 100  57 101  70 100  83 101
M  END
> <Batch ID>
0144

> <Smiles>
CNC(C)C(=O)NC(C(=O)N1Cc2cc([101O:1][101CH2:1]C(=O)C(C)(C)C(F)CNc3cc([100NH:0][100C:0](=O)N4CCCC(n5nc(-c6ccc(Oc7ccc(F)cc7F)cc6)c(C(N)=O)c5N)C4)co3)ccc2CC1C(=O)NC1CCCc2ccccc21)C(C)(C)C

> <Shape>
0.287

> <Color>
0.066

> <Negative vol penalty>
0.000

$$$$

  -OEChem-04052303043D

 87 96  0     1  0  0  0  0  0999 V2000
  -24.6917  -29.0259   32.6011 C   0  0  0  0  0  0  0  0  0  0  0  0
  -25.1147  -27.8921   31.9147 C   0  0  0  0  0  0  0  0  0  0  0  0
  -23.0272   -9.9489   19.9759 C   0  0  0  0  0  0  0  0  0  0  0  0
  -23.8092   -9.9402   22.2619 C   0  0  0  0  0  0  0  0  0  0  0  0
  -23.6443  -29.7950   32.0960 C   0  0  0  0  0  0  0  0  0  0  0  0
  -24.4896  -27.5263   30.7231 C   0  0  0  0  0  0  0  0  0  0  0  0
  -27.7956  -26.2194   27.1166 C   0  0  0  0  0  0  0  0  0  0  0  0
  -22.2595   -8.8134   20.2341 C   0  0  0  0  0  0  0  0  0  0  0  0
  -23.0414   -8.8046   22.5201 C   0  0  0  0  0  0  0  0  0  0  0  0
  -28.3613  -24.9480   27.2018 C   0  0  0  0  0  0  0  0  0  0  0  0
  -19.8017   -8.0817   23.1545 C   0  0  0  0  0  0  0  0  0  0  0  0
  -19.0554   -8.0600   24.3326 C   0  0  0  0  0  0  0  0  0  0  0  0
  -26.8015  -24.1495   25.5439 C   0  0  0  0  0  0  0  0  0  0  0  0
  -32.0379  -18.2405   24.1424 C   0  0  0  0  0  0  0  0  0  0  0  0
  -32.1918  -16.4837   22.4911 C   0  0  0  0  0  0  0  0  0  0  0  0
  -30.0338  -17.3832   23.1003 C   0  0  0  0  0  0  0  0  0  0  0  0
  -20.2590   -6.0951   25.0590 C   0  0  0  0  0  0  0  0  0  0  0  0
  -23.8021  -10.5123   20.9898 C   0  0  0  0  0  0  0  0  0  0  0  0
  -24.2007  -13.0288   20.8640 C   0  0  0  0  0  0  0  0  0  0  0  0
  -23.0124  -29.4438   30.8926 C   0  0  0  0  0  0  0  0  0  0  0  0
  -26.7197  -26.4632   26.2509 C   0  0  0  0  0  0  0  0  0  0  0  0
  -23.4318  -28.2907   30.2020 C   0  0  0  0  0  0  0  0  0  0  0  0
  -26.2256  -25.4255   25.4477 C   0  0  0  0  0  0  0  0  0  0  0  0
  -32.8085  -17.3550   23.3890 C   0  0  0  0  0  0  0  0  0  0  0  0
  -30.6505  -18.2545   23.9982 C   0  0  0  0  0  0  0  0  0  0  0  0
  -30.8044  -16.4978   22.3468 C   0  0  0  0  0  0  0  0  0  0  0  0
  -22.2666   -8.2412   21.5062 C   0  0  0  0  0  0  0  0  0  0  0  0
  -27.8624  -23.9121   26.4175 C   0  0  0  0  0  0  0  0  0  0  0  0
  -20.7767   -7.1100   22.9285 C   0  0  0  0  0  0  0  0  0  0  0  0
  -19.2840   -7.0668   25.2849 C   0  0  0  0  0  0  0  0  0  0  0  0
  -21.0053   -6.1167   23.8808 C   0  0  0  0  0  0  0  0  0  0  0  0
  -24.5959  -11.6850   20.7235 C   0  0  0  0  0  0  0  0  0  0  0  0
  -25.3063  -13.7527   20.4895 C   0  0  0  0  0  0  0  0  0  0  0  0
  -22.9466  -13.5740   21.2946 C   0  0  0  0  0  0  0  0  0  0  0  0
  -23.7041  -27.3947   26.6277 C   0  0  0  0  0  0  0  0  0  0  0  0
  -23.7278  -27.4585   23.3846 C   0  0  0  0  0  0  0  0  0  0  0  0
  -25.1080  -26.3298   20.4747 C   0  0  0  0  0  0  0  0  0  0  0  0
  -30.7965  -14.6725   20.6106 C   0  0  0  0  0  0  0  0  0  0  0  0
  -21.8533  -30.2796   30.4105 C   0  0  0  0  0  0  0  0  0  0  0  0
  -26.1381  -27.8467   26.1510 C   0  0  0  0  0  0  0  0  0  0  0  0
  -25.0852  -25.6401   24.4875 C   0  0  0  0  0  0  0  0  0  0  0  0
  -21.4920  -30.0340   28.9478 C   0  0  0  0  0  0  0  0  0  0  0  0
  -29.6041  -12.2831   18.2555 C   0  0  0  0  0  0  0  0  0  0  0  0
  -21.4327  -28.5378   28.6566 C   0  0  0  0  0  0  0  0  0  0  0  0
  -28.1624  -12.0251   18.6992 C   0  0  0  0  0  0  0  0  0  0  0  0
  -30.5358  -12.4917   19.4480 C   0  0  0  0  0  0  0  0  0  0  0  0
  -28.6594  -13.2609   20.8469 C   0  0  0  0  0  0  0  0  0  0  0  0
  -28.4506  -19.3228   24.7632 C   0  0  0  0  0  0  0  0  0  0  0  0
  -22.7952  -27.8752   28.8935 C   0  0  1  0  0  0  0  0  0  0  0  0
  -24.7107  -27.8574   25.6127 C   0  0  1  0  0  0  0  0  0  0  0  0
  -27.6715  -13.1092   19.6786 C   0  0  2  0  0  0  0  0  0  0  0  0
  -28.6184  -20.3523   25.9004 C   0  0  2  0  0  0  0  0  0  0  0  0
  -30.1574  -20.3398   25.5198 C   0  0  0  0  0  0  0  0  0  0  0  0
  -28.2251  -19.7594   27.2620 C   0  0  0  0  0  0  0  0  0  0  0  0
  -30.6532  -21.4744   24.6187 C   0  0  0  0  0  0  0  0  0  0  0  0
  -31.1089  -20.0965   26.6910 C   0  0  0  0  0  0  0  0  0  0  0  0
  -34.9852  -18.3034   22.5834 C   0  0  0  0  0  0  0  0  0  0  0  0
  -24.8907  -26.5322   17.9828 C   0  0  0  0  0  0  0  0  0  0  0  0
  -21.2635  -25.6607   23.4559 C   0  0  0  0  0  0  0  0  0  0  0  0
  -21.6637  -25.1342   21.0412 C   0  0  0  0  0  0  0  0  0  0  0  0
  -21.1791  -27.4790   21.7409 C   0  0  0  0  0  0  0  0  0  0  0  0
  -27.8509  -27.4087   20.2067 C   0  0  0  0  0  0  0  0  0  0  0  0
  -34.2917  -17.3401   23.5433 C   0  0  0  0  0  0  0  0  0  0  0  0
  -27.8515  -21.6554   25.6670 C   0  0  0  0  0  0  0  0  0  1  0  0
  -23.4259  -26.4599   22.2934 C   0  0  1  0  0  0  0  0  0  0  0  0
  -25.5775  -27.0635   19.2314 C   0  0  2  0  0  0  0  0  0  0  0  0
  -21.9033  -26.1786   22.1522 C   0  0  0  0  0  0  0  0  0  0  0  0
  -25.8541  -11.5598   20.2931 N   0  0  0  0  0  0  0  0  0  0  0  0
  -26.2592  -12.8342   20.1599 N   0  0  0  0  0  0  0  0  0  0  0  0
  -29.8723  -19.1491   24.7597 N   0  0  3  0  0  0  0  0  0  0  0  0
  -24.5461  -27.0089   24.4306 N   0  0  0  0  0  0  0  0  0  0  0  0
  -30.0091  -13.5358   20.3297 N   0  0  0  0  0  0  0  0  0  0  0  0
  -25.5465  -15.0789   20.4132 N   0  0  0  0  0  0  0  0  0  0  0  0
  -21.9173  -12.6886   21.6425 N   0  0  0  0  0  0  0  0  0  0  0  0
  -30.1785  -15.6128   21.4343 N   0  0  0  0  0  0  0  0  0  0  0  0
  -23.6881  -28.1461   27.7873 N   0  0  0  0  0  0  0  0  0  0  0  0
  -24.0528  -26.9772   21.0819 N   0  0  0  0  0  0  0  0  0  0  0  0
  -27.0496  -26.9054   19.0615 N   0  3  0  0  0  0  0  0  0  0  0  0
  -22.7392  -14.8098   21.3530 O   0  0  0  0  0  0  0  0  0  0  0  0
  -22.9934  -26.4284   26.3768 O   0  0  0  0  0  0  0  0  0  0  0  0
  -23.2608  -28.5977   23.3080 O   0  0  0  0  0  0  0  0  0  0  0  0
  -25.6232  -25.2848   20.8658 O   0  0  0  0  0  0  0  0  0  0  0  0
  -31.9246  -14.8148   20.1319 O   0  0  0  0  0  0  0  0  0  0  0  0
  -21.5173   -7.1333   21.7586 O   0  0  0  0  0  0  0  0  0  0  0  0
  -28.4122  -22.6700   26.4992 O   0  0  0  0  0  0  0  0  0  1  0  0
  -18.5683   -7.0471   26.4169 F   0  0  0  0  0  0  0  0  0  0  0  0
  -21.9414   -5.1813   23.6698 F   0  0  0  0  0  0  0  0  0  0  0  0
  1  2  1  0  0  0  0
  1  5  2  0  0  0  0
  2  6  2  0  0  0  0
  3  8  2  0  0  0  0
  3 18  1  0  0  0  0
  4  9  1  0  0  0  0
  4 18  2  0  0  0  0
  5 20  1  0  0  0  0
  6 22  1  0  0  0  0
  7 10  2  0  0  0  0
  7 21  1  0  0  0  0
  8 27  1  0  0  0  0
  9 27  2  0  0  0  0
 10 28  1  0  0  0  0
 11 12  2  0  0  0  0
 11 29  1  0  0  0  0
 12 30  1  0  0  0  0
 13 23  1  0  0  0  0
 13 28  2  0  0  0  0
 14 24  2  0  0  0  0
 14 25  1  0  0  0  0
 15 24  1  0  0  0  0
 15 26  2  0  0  0  0
 16 25  2  0  0  0  0
 16 26  1  0  0  0  0
 17 30  2  0  0  0  0
 17 31  1  0  0  0  0
 18 32  1  0  0  0  0
 19 32  1  0  0  0  0
 19 33  2  0  0  0  0
 19 34  1  0  0  0  0
 20 22  2  0  0  0  0
 20 39  1  0  0  0  0
 21 23  2  0  0  0  0
 21 40  1  0  0  0  0
 22 49  1  0  0  0  0
 23 41  1  0  0  0  0
 24 63  1  0  0  0  0
 25 70  1  0  0  0  0
 26 75  1  0  0  0  0
 27 84  1  0  0  0  0
 28 85  1  0  0  0  0
 29 31  2  0  0  0  0
 29 84  1  0  0  0  0
 30 86  1  0  0  0  0
 31 87  1  0  0  0  0
 32 68  2  0  0  0  0
 33 69  1  0  0  0  0
 33 73  1  0  0  0  0
 34 74  1  0  0  0  0
 34 79  2  0  0  0  0
 35 50  1  0  0  0  0
 35 76  1  0  0  0  0
 35 80  2  0  0  0  0
 36 65  1  0  0  0  0
 36 71  1  0  0  0  0
 36 81  2  0  0  0  0
 37 66  1  0  0  0  0
 37 77  1  0  0  0  0
 37 82  2  0  0  0  0
 38 72  1  0  0  0  0
 38 75  1  0  0  0  0
 38 83  2  0  0  0  0
 39 42  1  0  0  0  0
 40 50  1  0  0  0  0
 41 71  1  0  0  0  0
 42 44  1  0  0  0  0
 43 45  1  0  0  0  0
 43 46  1  0  0  0  0
 44 49  1  0  0  0  0
 45 51  1  0  0  0  0
 46 72  1  0  0  0  0
 47 51  1  0  0  0  0
 47 72  1  0  0  0  0
 48 52  1  0  0  0  0
 48 70  1  0  0  0  0
 49 76  1  0  0  0  0
 50 71  1  0  0  0  0
 51 69  1  0  0  0  0
 52 53  1  0  0  0  0
 52 54  1  0  0  0  0
 52 64  1  0  0  0  0
 53 55  1  0  0  0  0
 53 56  1  0  0  0  0
 53 70  1  0  0  0  0
 57 63  1  0  0  0  0
 58 66  1  0  0  0  0
 59 67  1  0  0  0  0
 60 67  1  0  0  0  0
 61 67  1  0  0  0  0
 62 78  1  0  0  0  0
 64 85  1  0  0  0  0
 65 67  1  0  0  0  0
 65 77  1  0  0  0  0
 66 78  1  0  0  0  0
 68 69  1  0  0  0  0
M  CHG  1  78   1
M  ISO  4  38 100  64 101  75 100  85 101
M  END
> <Batch ID>
0144

> <Smiles>
CCc1cc([100NH:0][100C:0](=O)N2CCCC(n3nc(-c4ccc(Oc5ccc(F)cc5F)cc4)c(C(N)=O)c3N)C2)cc(N2CC(C)([101CH2:1][101O:1]c3ccc4c(c3)CN(C(=O)C(NC(=O)C(C)NC)C(C)(C)C)C(C(=O)NC3CCCc5ccccc53)C4)C2(C)C)c1

> <Shape>
0.210

> <Color>
0.209

> <Negative vol penalty>
0.000

$$$$

  -OEChem-04052303043D

 94103  0     1  0  0  0  0  0999 V2000
  -25.4103  -38.1971   21.8334 C   0  0  0  0  0  0  0  0  0  0  0  0
  -26.2279  -37.1737   21.3648 C   0  0  0  0  0  0  0  0  0  0  0  0
  -23.4290   -9.6835   21.6908 C   0  0  0  0  0  0  0  0  0  0  0  0
  -23.9726  -10.9494   23.6755 C   0  0  0  0  0  0  0  0  0  0  0  0
  -24.5683  -37.9722   22.9217 C   0  0  0  0  0  0  0  0  0  0  0  0
  -26.2047  -35.9250   21.9850 C   0  0  0  0  0  0  0  0  0  0  0  0
  -26.9058  -30.4665   19.2983 C   0  0  0  0  0  0  0  0  0  0  0  0
  -30.4104  -17.8825   18.4184 C   0  0  0  0  0  0  0  0  0  0  0  0
  -22.8112   -8.7127   22.4791 C   0  0  0  0  0  0  0  0  0  0  0  0
  -23.3548   -9.9787   24.4639 C   0  0  0  0  0  0  0  0  0  0  0  0
  -28.0040  -29.6168   19.1731 C   0  0  0  0  0  0  0  0  0  0  0  0
  -23.7537   -6.1131   24.4228 C   0  0  0  0  0  0  0  0  0  0  0  0
  -30.4274  -19.0848   17.7115 C   0  0  0  0  0  0  0  0  0  0  0  0
  -24.0294   -4.7758   24.1376 C   0  0  0  0  0  0  0  0  0  0  0  0
  -27.2512  -28.3703   21.0963 C   0  0  0  0  0  0  0  0  0  0  0  0
  -21.6838   -4.3831   23.7118 C   0  0  0  0  0  0  0  0  0  0  0  0
  -24.0098  -10.8018   22.2889 C   0  0  0  0  0  0  0  0  0  0  0  0
  -24.0519  -12.9475   20.9098 C   0  0  0  0  0  0  0  0  0  0  0  0
  -24.5278  -36.7173   23.5495 C   0  0  0  0  0  0  0  0  0  0  0  0
  -25.9763  -30.2807   20.3317 C   0  0  0  0  0  0  0  0  0  0  0  0
  -25.3624  -35.6835   23.0836 C   0  0  0  0  0  0  0  0  0  0  0  0
  -26.1406  -29.2174   21.2309 C   0  0  0  0  0  0  0  0  0  0  0  0
  -28.6168  -18.7217   19.8025 C   0  0  0  0  0  0  0  0  0  0  0  0
  -29.5050  -17.7009   19.4639 C   0  0  0  0  0  0  0  0  0  0  0  0
  -28.6339  -19.9241   19.0956 C   0  0  0  0  0  0  0  0  0  0  0  0
  -22.7740   -8.8603   23.8657 C   0  0  0  0  0  0  0  0  0  0  0  0
  -28.1784  -28.5702   20.0739 C   0  0  0  0  0  0  0  0  0  0  0  0
  -22.4430   -6.5853   24.3526 C   0  0  0  0  0  0  0  0  0  0  0  0
  -22.9945   -3.9108   23.7821 C   0  0  0  0  0  0  0  0  0  0  0  0
  -29.5392  -20.1056   18.0501 C   0  0  0  0  0  0  0  0  0  0  0  0
  -21.4081   -5.7203   23.9970 C   0  0  0  0  0  0  0  0  0  0  0  0
  -24.6487  -11.8046   21.4751 C   0  0  0  0  0  0  0  0  0  0  0  0
  -25.0733  -13.5696   20.2343 C   0  0  0  0  0  0  0  0  0  0  0  0
  -22.6957  -13.4058   20.9884 C   0  0  0  0  0  0  0  0  0  0  0  0
  -24.9993  -32.0167   22.8088 C   0  0  0  0  0  0  0  0  0  0  0  0
  -27.7244  -25.4463   19.3330 C   0  0  0  0  0  0  0  0  0  0  0  0
  -22.8591  -29.6041   23.1572 C   0  0  0  0  0  0  0  0  0  0  0  0
  -27.9551  -22.3428   19.2789 C   0  0  0  0  0  0  0  0  0  0  0  0
  -22.0576  -26.3368   22.5834 C   0  0  0  0  0  0  0  0  0  0  0  0
  -30.3339  -15.3707   19.9431 C   0  0  0  0  0  0  0  0  0  0  0  0
  -23.6361  -36.5358   24.7523 C   0  0  0  0  0  0  0  0  0  0  0  0
  -24.7826  -31.1898   20.4370 C   0  0  0  0  0  0  0  0  0  0  0  0
  -25.1603  -28.9629   22.3456 C   0  0  0  0  0  0  0  0  0  0  0  0
  -23.3965  -35.0731   25.1177 C   0  0  0  0  0  0  0  0  0  0  0  0
  -29.7389  -11.9608   19.1093 C   0  0  0  0  0  0  0  0  0  0  0  0
  -27.6329  -19.5243   22.0524 C   0  0  0  0  0  0  0  0  0  0  0  0
  -28.1722  -18.1472   22.2826 C   0  0  0  0  0  0  0  0  0  0  0  0
  -24.7106  -34.2986   25.1091 C   0  0  0  0  0  0  0  0  0  0  0  0
  -28.3124  -11.7102   19.6040 C   0  0  0  0  0  0  0  0  0  0  0  0
  -30.5073  -12.8939   20.0434 C   0  0  0  0  0  0  0  0  0  0  0  0
  -28.4098  -13.9153   20.8349 C   0  0  0  0  0  0  0  0  0  0  0  0
  -27.6462  -18.5281   20.9272 C   0  0  0  0  0  0  0  0  0  0  0  0
  -25.3475  -34.3079   23.7142 C   0  0  1  0  0  0  0  0  0  0  0  0
  -24.1761  -31.2200   21.8365 C   0  0  1  0  0  0  0  0  0  0  0  0
  -27.5754  -13.0328   19.8922 C   0  0  2  0  0  0  0  0  0  0  0  0
  -20.2580  -24.6437   23.0218 C   0  0  0  0  0  0  0  0  0  0  0  0
  -26.2896  -24.3386   17.6010 C   0  0  0  0  0  0  0  0  0  0  0  0
  -25.2358  -25.1658   19.6917 C   0  0  0  0  0  0  0  0  0  0  0  0
  -23.8075  -29.3476   26.0459 C   0  0  0  0  0  0  0  0  0  0  0  0
  -22.7073  -27.1004   26.1343 C   0  0  0  0  0  0  0  0  0  0  0  0
  -21.3339  -29.1449   25.7381 C   0  0  0  0  0  0  0  0  0  0  0  0
  -29.4553  -27.2995   22.3174 C   0  0  0  0  0  0  0  0  0  0  0  0
  -30.6607  -25.9394   20.6009 C   0  0  0  0  0  0  0  0  0  0  0  0
  -21.5647  -25.9409   19.6922 C   0  0  0  0  0  0  0  0  0  0  0  0
  -28.1713  -25.7200   20.7706 C   0  0  0  0  0  0  0  0  0  0  0  0
  -26.7327  -23.1256   19.7586 C   0  0  0  0  0  0  0  0  0  0  0  0
  -22.8419  -28.2890   23.8982 C   0  0  1  0  0  0  0  0  0  0  0  0
  -20.7914  -25.6884   22.0538 C   0  0  2  0  0  0  0  0  0  0  0  0
  -26.5093  -24.5136   19.1157 C   0  0  0  0  0  0  0  0  0  0  0  0
  -22.6924  -28.4762   25.4344 C   0  0  0  0  0  0  0  0  0  0  0  0
  -29.3608  -26.6873   20.9178 C   0  0  0  0  0  0  0  0  0  1  0  0
  -25.9483  -11.7041   21.1839 N   0  0  0  0  0  0  0  0  0  0  0  0
  -26.1766  -12.7917   20.4282 N   0  0  0  0  0  0  0  0  0  0  0  0
  -24.0128  -29.8829   22.4107 N   0  0  0  0  0  0  0  0  0  0  0  0
  -29.7505  -14.1276   20.2672 N   0  0  0  0  0  0  0  0  0  0  0  0
  -25.1262  -14.7007   19.4993 N   0  0  0  0  0  0  0  0  0  0  0  0
  -21.7754  -12.6465   21.7239 N   0  0  0  0  0  0  0  0  0  0  0  0
  -27.7435  -20.9737   19.4249 N   0  0  0  0  0  0  0  0  0  0  0  0
  -29.5079  -16.4714   20.1683 N   0  0  0  0  0  0  0  0  0  0  0  0
  -24.6799  -33.3605   22.8475 N   0  0  0  0  0  0  0  0  0  0  0  0
  -21.7846  -27.4904   23.2878 N   0  0  0  0  0  0  0  0  0  0  0  0
  -21.0572  -25.0250   20.7460 N   0  3  0  0  0  0  0  0  0  0  0  0
  -22.3075  -14.4488   20.4096 O   0  0  0  0  0  0  0  0  0  0  0  0
  -25.8596  -31.4536   23.4755 O   0  0  0  0  0  0  0  0  0  0  0  0
  -28.3449  -25.9180   18.3775 O   0  0  0  0  0  0  0  0  0  0  0  0
  -21.8820  -30.3532   23.2320 O   0  0  0  0  0  0  0  0  0  0  0  0
  -28.9647  -22.8898   18.8504 O   0  0  0  0  0  0  0  0  0  0  0  0
  -23.1767  -25.8651   22.3946 O   0  0  0  0  0  0  0  0  0  0  0  0
  -31.4717  -15.4508   19.4729 O   0  0  0  0  0  0  0  0  0  0  0  0
  -22.1710   -7.9134   24.6352 O   0  0  0  0  0  0  0  0  0  0  0  0
  -29.2551  -27.7357   19.9538 O   0  0  0  0  0  0  0  0  0  1  0  0
  -23.2596   -2.6271   23.5067 F   0  0  0  0  0  0  0  0  0  0  0  0
  -29.5656  -21.2562   17.3624 F   0  0  0  0  0  0  0  0  0  0  0  0
  -20.1472   -6.1685   23.9267 F   0  0  0  0  0  0  0  0  0  0  0  0
  1  2  1  0  0  0  0
  1  5  2  0  0  0  0
  2  6  2  0  0  0  0
  3  9  2  0  0  0  0
  3 17  1  0  0  0  0
  4 10  1  0  0  0  0
  4 17  2  0  0  0  0
  5 19  1  0  0  0  0
  6 21  1  0  0  0  0
  7 11  2  0  0  0  0
  7 20  1  0  0  0  0
  8 13  1  0  0  0  0
  8 24  2  0  0  0  0
  9 26  1  0  0  0  0
 10 26  2  0  0  0  0
 11 27  1  0  0  0  0
 12 14  2  0  0  0  0
 12 28  1  0  0  0  0
 13 30  2  0  0  0  0
 14 29  1  0  0  0  0
 15 22  1  0  0  0  0
 15 27  2  0  0  0  0
 16 29  2  0  0  0  0
 16 31  1  0  0  0  0
 17 32  1  0  0  0  0
 18 32  1  0  0  0  0
 18 33  2  0  0  0  0
 18 34  1  0  0  0  0
 19 21  2  0  0  0  0
 19 41  1  0  0  0  0
 20 22  2  0  0  0  0
 20 42  1  0  0  0  0
 21 53  1  0  0  0  0
 22 43  1  0  0  0  0
 23 24  1  0  0  0  0
 23 25  2  0  0  0  0
 23 52  1  0  0  0  0
 24 79  1  0  0  0  0
 25 30  1  0  0  0  0
 25 78  1  0  0  0  0
 26 90  1  0  0  0  0
 27 91  1  0  0  0  0
 28 31  2  0  0  0  0
 28 90  1  0  0  0  0
 29 92  1  0  0  0  0
 30 93  1  0  0  0  0
 31 94  1  0  0  0  0
 32 72  2  0  0  0  0
 33 73  1  0  0  0  0
 33 76  1  0  0  0  0
 34 77  1  0  0  0  0
 34 83  2  0  0  0  0
 35 54  1  0  0  0  0
 35 80  1  0  0  0  0
 35 84  2  0  0  0  0
 36 65  1  0  0  0  0
 36 69  1  0  0  0  0
 36 85  2  0  0  0  0
 37 67  1  0  0  0  0
 37 74  1  0  0  0  0
 37 86  2  0  0  0  0
 38 66  1  0  0  0  0
 38 78  1  0  0  0  0
 38 87  2  0  0  0  0
 39 68  1  0  0  0  0
 39 81  1  0  0  0  0
 39 88  2  0  0  0  0
 40 75  1  0  0  0  0
 40 79  1  0  0  0  0
 40 89  2  0  0  0  0
 41 44  1  0  0  0  0
 42 54  1  0  0  0  0
 43 74  1  0  0  0  0
 44 48  1  0  0  0  0
 45 49  1  0  0  0  0
 45 50  1  0  0  0  0
 46 47  1  0  0  0  0
 46 52  1  0  0  0  0
 47 52  1  0  0  0  0
 48 53  1  0  0  0  0
 49 55  1  0  0  0  0
 50 75  1  0  0  0  0
 51 55  1  0  0  0  0
 51 75  1  0  0  0  0
 53 80  1  0  0  0  0
 54 74  1  0  0  0  0
 55 73  1  0  0  0  0
 56 68  1  0  0  0  0
 57 69  1  0  0  0  0
 58 69  1  0  0  0  0
 59 70  1  0  0  0  0
 60 70  1  0  0  0  0
 61 70  1  0  0  0  0
 62 71  1  0  0  0  0
 63 71  1  0  0  0  0
 64 82  1  0  0  0  0
 65 71  1  0  0  0  0
 66 69  1  0  0  0  0
 67 70  1  0  0  0  0
 67 81  1  0  0  0  0
 68 82  1  0  0  0  0
 71 91  1  0  0  0  0
 72 73  1  0  0  0  0
M  CHG  1  82   1
M  ISO  4  40 100  71 101  79 100  91 101
M  END
> <Batch ID>
0144

> <Smiles>
CNC(C)C(=O)NC(C(=O)N1Cc2cc([101O:1][101C:1](C)(C)CC(=O)C(C)(C)CC(=O)Nc3c(F)ccc([100NH:0][100C:0](=O)N4CCCC(n5nc(-c6ccc(Oc7ccc(F)cc7F)cc6)c(C(N)=O)c5N)C4)c3C3CC3)ccc2CC1C(=O)NC1CCCc2ccccc21)C(C)(C)C

> <Shape>
0.366

> <Color>
0.149

> <Negative vol penalty>
0.000

$$$$

  -OEChem-04052303043D

 87 96  0     1  0  0  0  0  0999 V2000
  -28.2228  -33.4450   26.3147 C   0  0  0  0  0  0  0  0  0  0  0  0
  -28.3262  -32.2570   25.5982 C   0  0  0  0  0  0  0  0  0  0  0  0
  -24.2855   -8.6742   21.0645 C   0  0  0  0  0  0  0  0  0  0  0  0
  -23.0058  -10.7195   20.9374 C   0  0  0  0  0  0  0  0  0  0  0  0
  -28.8598  -19.2757   18.1763 C   0  0  0  0  0  0  0  0  0  0  0  0
  -26.9697  -33.9155   26.7050 C   0  0  0  0  0  0  0  0  0  0  0  0
  -27.1766  -31.5383   25.2724 C   0  0  0  0  0  0  0  0  0  0  0  0
  -27.1881  -29.9269   20.4715 C   0  0  0  0  0  0  0  0  0  0  0  0
  -29.0654  -18.0539   18.8169 C   0  0  0  0  0  0  0  0  0  0  0  0
  -23.3614   -8.1522   21.9696 C   0  0  0  0  0  0  0  0  0  0  0  0
  -22.0816  -10.1975   21.8425 C   0  0  0  0  0  0  0  0  0  0  0  0
  -27.9634  -28.8060   20.1780 C   0  0  0  0  0  0  0  0  0  0  0  0
  -20.2863   -6.7506   21.8605 C   0  0  0  0  0  0  0  0  0  0  0  0
  -19.8553   -5.4388   21.6629 C   0  0  0  0  0  0  0  0  0  0  0  0
  -26.5040  -19.1530   18.6982 C   0  0  0  0  0  0  0  0  0  0  0  0
  -25.9852  -27.4272   20.2474 C   0  0  0  0  0  0  0  0  0  0  0  0
  -20.7131   -4.8294   23.8378 C   0  0  0  0  0  0  0  0  0  0  0  0
  -24.1077   -9.9578   20.5484 C   0  0  0  0  0  0  0  0  0  0  0  0
  -27.5791  -19.8253   18.1169 C   0  0  0  0  0  0  0  0  0  0  0  0
  -25.0315  -10.3915   18.2105 C   0  0  0  0  0  0  0  0  0  0  0  0
  -25.8034  -33.2072   26.3755 C   0  0  0  0  0  0  0  0  0  0  0  0
  -25.8048  -29.8045   20.6663 C   0  0  0  0  0  0  0  0  0  0  0  0
  -25.9068  -31.9991   25.6598 C   0  0  0  0  0  0  0  0  0  0  0  0
  -25.1942  -28.5485   20.5407 C   0  0  0  0  0  0  0  0  0  0  0  0
  -27.9903  -17.3816   19.3982 C   0  0  0  0  0  0  0  0  0  0  0  0
  -22.2595   -8.9138   22.3586 C   0  0  0  0  0  0  0  0  0  0  0  0
  -27.3624  -27.5554   20.0687 C   0  0  0  0  0  0  0  0  0  0  0  0
  -20.9308   -7.1018   23.0467 C   0  0  0  0  0  0  0  0  0  0  0  0
  -20.0686   -4.4782   22.6516 C   0  0  0  0  0  0  0  0  0  0  0  0
  -26.7096  -17.9311   19.3388 C   0  0  0  0  0  0  0  0  0  0  0  0
  -21.1442   -6.1412   24.0353 C   0  0  0  0  0  0  0  0  0  0  0  0
  -25.0622  -10.4978   19.6139 C   0  0  0  0  0  0  0  0  0  0  0  0
  -26.1512  -11.0670   17.7904 C   0  0  0  0  0  0  0  0  0  0  0  0
  -27.4767  -24.4708   18.7222 C   0  0  0  0  0  0  0  0  0  0  0  0
  -27.3609  -21.1163   17.4403 C   0  0  0  0  0  0  0  0  0  0  0  0
  -24.0761   -9.7406   17.3624 C   0  0  0  0  0  0  0  0  0  0  0  0
  -27.8282  -25.7583   18.6460 C   0  0  0  0  0  0  0  0  0  1  0  0
  -23.8242  -30.3492   23.0920 C   0  0  0  0  0  0  0  0  0  0  0  0
  -21.5514  -29.6631   20.8815 C   0  0  0  0  0  0  0  0  0  0  0  0
  -20.7293  -28.1043   17.9590 C   0  0  0  0  0  0  0  0  0  0  0  0
  -29.4108  -15.4598   20.1952 C   0  0  0  0  0  0  0  0  0  0  0  0
  -24.4747  -33.7309   26.8600 C   0  0  0  0  0  0  0  0  0  0  0  0
  -24.9786  -31.0276   20.9559 C   0  0  0  0  0  0  0  0  0  0  0  0
  -23.7099  -28.3668   20.7206 C   0  0  0  0  0  0  0  0  0  0  0  0
  -27.3624  -23.6800   19.9924 C   0  0  0  0  0  0  0  0  0  0  0  0
  -27.2548  -23.5711   17.5449 C   0  0  0  0  0  0  0  0  0  0  0  0
  -23.2773  -33.1034   26.1509 C   0  0  0  0  0  0  0  0  0  0  0  0
  -30.5709  -12.2400   19.2133 C   0  0  0  0  0  0  0  0  0  0  0  0
  -23.4360  -31.5882   26.0746 C   0  0  0  0  0  0  0  0  0  0  0  0
  -29.2867  -11.4198   19.0709 C   0  0  0  0  0  0  0  0  0  0  0  0
  -27.7790  -22.2766   19.5692 C   0  0  0  0  0  0  0  0  0  0  0  0
  -30.4873  -13.2274   20.3759 C   0  0  0  0  0  0  0  0  0  0  0  0
  -28.0298  -13.2900   20.2152 C   0  0  0  0  0  0  0  0  0  0  0  0
  -24.6809  -31.2039   25.2660 C   0  0  1  0  0  0  0  0  0  0  0  0
  -23.6547  -30.7056   21.6422 C   0  0  1  0  0  0  0  0  0  0  0  0
  -28.0418  -12.3269   19.0169 C   0  0  2  0  0  0  0  0  0  0  0  0
  -27.9313  -26.5135   17.3602 C   0  0  0  0  0  0  0  0  0  0  0  0
  -18.7861  -27.6904   16.4260 C   0  0  0  0  0  0  0  0  0  0  0  0
  -20.4544  -27.5919   22.8352 C   0  0  0  0  0  0  0  0  0  0  0  0
  -19.1694  -26.5845   20.9373 C   0  0  0  0  0  0  0  0  0  0  0  0
  -18.7091  -28.9316   21.6462 C   0  0  0  0  0  0  0  0  0  0  0  0
  -22.0658  -29.4789   15.7044 C   0  0  0  0  0  0  0  0  0  0  0  0
  -20.8557  -28.4060   20.4181 C   0  0  1  0  0  0  0  0  0  0  0  0
  -19.9720  -28.5905   16.7365 C   0  0  2  0  0  0  0  0  0  0  0  0
  -19.8254  -27.8813   21.4577 C   0  0  0  0  0  0  0  0  0  0  0  0
  -26.1179  -11.1864   20.0558 N   0  0  0  0  0  0  0  0  0  0  0  0
  -26.7610  -11.5189   18.9236 N   0  0  0  0  0  0  0  0  0  0  0  0
  -27.4558  -22.2367   18.1338 N   0  0  0  0  0  0  0  0  0  0  0  0
  -22.9459  -29.5919   21.0087 N   0  0  0  0  0  0  0  0  0  0  0  0
  -29.2855  -14.0557   20.2557 N   0  0  0  0  0  0  0  0  0  0  0  0
  -26.6638  -11.3125   16.5659 N   0  0  0  0  0  0  0  0  0  0  0  0
  -22.9849   -9.0939   17.9585 N   0  0  0  0  0  0  0  0  0  0  0  0
  -28.2028  -16.1407   20.0484 N   0  0  0  0  0  0  0  0  0  0  0  0
  -24.4239  -31.3381   23.8481 N   0  0  0  0  0  0  0  0  0  0  0  0
  -20.2829  -28.7142   19.1123 N   0  0  0  0  0  0  0  0  0  0  0  0
  -27.0739  -21.1332   16.1420 N   0  3  0  0  0  0  0  0  0  0  0  0
  -20.8690  -28.6131   15.5466 N   0  3  0  0  0  0  0  0  0  0  0  0
  -24.1957   -9.7185   16.1139 O   0  0  0  0  0  0  0  0  0  0  0  0
  -23.4380  -29.2583   23.4951 O   0  0  0  0  0  0  0  0  0  0  0  0
  -20.8830  -30.6732   21.1150 O   0  0  0  0  0  0  0  0  0  0  0  0
  -21.6247  -27.2646   17.8975 O   0  0  0  0  0  0  0  0  0  0  0  0
  -30.5112  -16.0157   20.2409 O   0  0  0  0  0  0  0  0  0  0  0  0
  -21.3574   -8.4047   23.2416 O   0  0  0  0  0  0  0  0  0  0  0  0
  -28.1168  -26.4595   19.7830 O   0  0  0  0  0  0  0  0  0  1  0  0
  -19.6533   -3.2189   22.4624 F   0  0  0  0  0  0  0  0  0  0  0  0
  -25.6688  -17.2930   19.8929 F   0  0  0  0  0  0  0  0  0  0  0  0
  -21.7617   -6.4729   25.1774 F   0  0  0  0  0  0  0  0  0  0  0  0
  1  2  1  0  0  0  0
  1  6  2  0  0  0  0
  2  7  2  0  0  0  0
  3 10  2  0  0  0  0
  3 18  1  0  0  0  0
  4 11  1  0  0  0  0
  4 18  2  0  0  0  0
  5  9  2  0  0  0  0
  5 19  1  0  0  0  0
  6 21  1  0  0  0  0
  7 23  1  0  0  0  0
  8 12  2  0  0  0  0
  8 22  1  0  0  0  0
  9 25  1  0  0  0  0
 10 26  1  0  0  0  0
 11 26  2  0  0  0  0
 12 27  1  0  0  0  0
 13 14  2  0  0  0  0
 13 28  1  0  0  0  0
 14 29  1  0  0  0  0
 15 19  2  0  0  0  0
 15 30  1  0  0  0  0
 16 24  1  0  0  0  0
 16 27  2  0  0  0  0
 17 29  2  0  0  0  0
 17 31  1  0  0  0  0
 18 32  1  0  0  0  0
 19 35  1  0  0  0  0
 20 32  1  0  0  0  0
 20 33  2  0  0  0  0
 20 36  1  0  0  0  0
 21 23  2  0  0  0  0
 21 42  1  0  0  0  0
 22 24  2  0  0  0  0
 22 43  1  0  0  0  0
 23 54  1  0  0  0  0
 24 44  1  0  0  0  0
 25 30  2  0  0  0  0
 25 73  1  0  0  0  0
 26 83  1  0  0  0  0
 27 84  1  0  0  0  0
 28 31  2  0  0  0  0
 28 83  1  0  0  0  0
 29 85  1  0  0  0  0
 30 86  1  0  0  0  0
 31 87  1  0  0  0  0
 32 66  2  0  0  0  0
 33 67  1  0  0  0  0
 33 71  1  0  0  0  0
 34 37  2  0  0  0  0
 34 45  1  0  0  0  0
 34 46  1  0  0  0  0
 35 68  1  0  0  0  0
 35 76  2  0  0  0  0
 36 72  1  0  0  0  0
 36 78  2  0  0  0  0
 37 57  1  0  0  0  0
 37 84  1  0  0  0  0
 38 55  1  0  0  0  0
 38 74  1  0  0  0  0
 38 79  2  0  0  0  0
 39 63  1  0  0  0  0
 39 69  1  0  0  0  0
 39 80  2  0  0  0  0
 40 64  1  0  0  0  0
 40 75  1  0  0  0  0
 40 81  2  0  0  0  0
 41 70  1  0  0  0  0
 41 73  1  0  0  0  0
 41 82  2  0  0  0  0
 42 47  1  0  0  0  0
 43 55  1  0  0  0  0
 44 69  1  0  0  0  0
 45 51  1  0  0  0  0
 46 68  1  0  0  0  0
 47 49  1  0  0  0  0
 48 50  1  0  0  0  0
 48 52  1  0  0  0  0
 49 54  1  0  0  0  0
 50 56  1  0  0  0  0
 51 68  1  0  0  0  0
 52 70  1  0  0  0  0
 53 56  1  0  0  0  0
 53 70  1  0  0  0  0
 54 74  1  0  0  0  0
 55 69  1  0  0  0  0
 56 67  1  0  0  0  0
 58 64  1  0  0  0  0
 59 65  1  0  0  0  0
 60 65  1  0  0  0  0
 61 65  1  0  0  0  0
 62 77  1  0  0  0  0
 63 65  1  0  0  0  0
 63 75  1  0  0  0  0
 64 77  1  0  0  0  0
 66 67  1  0  0  0  0
M  CHG  2  76   1  77   1
M  ISO  4  37 101  41 100  73 100  84 101
M  END
> <Batch ID>
0144

> <Smiles>
CNC(C)C(=O)NC(C(=O)N1Cc2cc([101O:1][101C:1](C)=C3CCN(C(=N)c4ccc([100NH:0][100C:0](=O)N5CCCC(n6nc(-c7ccc(Oc8ccc(F)cc8F)cc7)c(C(N)=O)c6N)C5)c(F)c4)C3)ccc2CC1C(=O)NC1CCCc2ccccc21)C(C)(C)C

> <Shape>
0.303

> <Color>
0.107

> <Negative vol penalty>
0.000

$$$$

  -OEChem-04052303043D

 92100  0     1  0  0  0  0  0999 V2000
  -22.5312  -21.6103   20.9991 C   0  0  0  0  0  0  0  0  0  0  0  0
  -23.5938  -20.7497   20.7432 C   0  0  0  0  0  0  0  0  0  0  0  0
  -22.4150  -26.8424   25.4678 C   0  0  0  0  0  0  0  0  0  0  0  0
  -22.3075  -26.2977   23.1165 C   0  0  0  0  0  0  0  0  0  0  0  0
  -22.5516  -22.9103   20.4955 C   0  0  0  0  0  0  0  0  0  0  0  0
  -24.6771  -21.1883   19.9825 C   0  0  0  0  0  0  0  0  0  0  0  0
  -29.1298  -19.8638   21.9985 C   0  0  0  0  0  0  0  0  0  0  0  0
  -21.3117  -15.5281   21.7254 C   0  0  0  0  0  0  0  0  0  0  0  0
  -21.6972  -16.5966   22.5348 C   0  0  0  0  0  0  0  0  0  0  0  0
  -22.5243  -28.1960   25.1493 C   0  0  0  0  0  0  0  0  0  0  0  0
  -22.4168  -27.6514   22.7979 C   0  0  0  0  0  0  0  0  0  0  0  0
  -29.5445  -18.5454   21.8157 C   0  0  0  0  0  0  0  0  0  0  0  0
  -24.8642  -29.9761   22.6069 C   0  0  0  0  0  0  0  0  0  0  0  0
  -25.7472  -30.3328   21.5878 C   0  0  0  0  0  0  0  0  0  0  0  0
  -30.9884  -19.2550   20.0183 C   0  0  0  0  0  0  0  0  0  0  0  0
  -23.9817  -15.8121   22.4824 C   0  0  0  0  0  0  0  0  0  0  0  0
  -23.9155  -31.2882   20.3351 C   0  0  0  0  0  0  0  0  0  0  0  0
  -22.3067  -25.8933   24.4514 C   0  0  0  0  0  0  0  0  0  0  0  0
  -21.0105  -23.7663   25.0025 C   0  0  0  0  0  0  0  0  0  0  0  0
  -23.6401  -23.3681   19.7364 C   0  0  0  0  0  0  0  0  0  0  0  0
  -29.6339  -20.8880   21.1840 C   0  0  0  0  0  0  0  0  0  0  0  0
  -24.7114  -22.4952   19.4671 C   0  0  0  0  0  0  0  0  0  0  0  0
  -30.5804  -20.5861   20.1945 C   0  0  0  0  0  0  0  0  0  0  0  0
  -22.2611  -14.6015   21.2945 C   0  0  0  0  0  0  0  0  0  0  0  0
  -23.0322  -16.7386   22.9133 C   0  0  0  0  0  0  0  0  0  0  0  0
  -23.5961  -14.7435   21.6729 C   0  0  0  0  0  0  0  0  0  0  0  0
  -22.5252  -28.6005   23.8144 C   0  0  0  0  0  0  0  0  0  0  0  0
  -30.4718  -18.2404   20.8236 C   0  0  0  0  0  0  0  0  0  0  0  0
  -23.5068  -30.2753   22.4902 C   0  0  0  0  0  0  0  0  0  0  0  0
  -25.2729  -30.9889   20.4519 C   0  0  0  0  0  0  0  0  0  0  0  0
  -23.0325  -30.9314   21.3543 C   0  0  0  0  0  0  0  0  0  0  0  0
  -22.1943  -24.4948   24.7798 C   0  0  0  0  0  0  0  0  0  0  0  0
  -21.4389  -22.4907   25.2775 C   0  0  0  0  0  0  0  0  0  0  0  0
  -19.6456  -24.2036   24.9640 C   0  0  0  0  0  0  0  0  0  0  0  0
  -28.3627  -22.9422   19.1181 C   0  0  0  0  0  0  0  0  0  0  0  0
  -26.7207  -12.8900   20.7277 C   0  0  0  0  0  0  0  0  0  0  0  0
  -30.8849  -14.5895   21.1714 C   0  0  0  0  0  0  0  0  0  0  0  0
  -31.3705  -24.1557   19.0712 C   0  0  0  0  0  0  0  0  0  0  0  0
  -34.7087  -23.6449   19.5636 C   0  0  0  0  0  0  0  0  0  0  0  0
  -24.7054  -18.1115   24.2025 C   0  0  0  0  0  0  0  0  0  0  0  0
  -23.5955  -24.7666   19.1734 C   0  0  0  0  0  0  0  0  0  0  0  0
  -29.1966  -22.3090   21.4115 C   0  0  0  0  0  0  0  0  0  0  0  0
  -31.1673  -21.6520   19.3069 C   0  0  0  0  0  0  0  0  0  0  0  0
  -24.9527  -25.2729   18.6919 C   0  0  0  0  0  0  0  0  0  0  0  0
  -26.0816  -20.7056   26.2159 C   0  0  0  0  0  0  0  0  0  0  0  0
  -25.6499  -24.2107   17.8478 C   0  0  0  0  0  0  0  0  0  0  0  0
  -25.0956  -21.8628   26.0401 C   0  0  0  0  0  0  0  0  0  0  0  0
  -26.2600  -19.9111   24.9233 C   0  0  0  0  0  0  0  0  0  0  0  0
  -24.0275  -20.5917   24.1347 C   0  0  0  0  0  0  0  0  0  0  0  0
  -25.9158  -22.9419   18.6670 C   0  0  1  0  0  0  0  0  0  0  0  0
  -29.3887  -23.1968   20.1858 C   0  0  1  0  0  0  0  0  0  0  0  0
  -23.7656  -21.3817   25.4273 C   0  0  2  0  0  0  0  0  0  0  0  0
  -21.2427  -13.9459   19.0839 C   0  0  0  0  0  0  0  0  0  0  0  0
  -20.8092  -12.5470   21.1358 C   0  0  0  0  0  0  0  0  0  0  0  0
  -36.9243  -24.8129   19.4076 C   0  0  0  0  0  0  0  0  0  0  0  0
  -30.8846  -13.6569   23.4668 C   0  0  0  0  0  0  0  0  0  0  0  0
  -31.0268  -12.0681   21.5358 C   0  0  0  0  0  0  0  0  0  0  0  0
  -31.3023  -23.8744   16.0338 C   0  0  0  0  0  0  0  0  0  0  0  0
  -33.7923  -24.1356   16.0234 C   0  0  0  0  0  0  0  0  0  0  0  0
  -32.3490  -25.9892   16.8623 C   0  0  0  0  0  0  0  0  0  0  0  0
  -35.2307  -23.2892   22.4549 C   0  0  0  0  0  0  0  0  0  0  0  0
  -28.2334  -13.0457   20.6525 C   0  0  0  0  0  0  0  0  0  0  0  0
  -25.9676  -14.1025   21.2364 C   0  0  0  0  0  0  0  0  0  0  0  0
  -30.3219  -15.9639   21.4954 C   0  0  0  0  0  0  0  0  0  1  0  0
  -28.8648  -13.3020   22.0256 C   0  0  0  0  0  0  0  0  0  0  0  0
  -21.8205  -13.4669   20.4280 C   0  0  0  0  0  0  0  0  0  0  0  0
  -32.6151  -23.8972   18.2569 C   0  0  1  0  0  0  0  0  0  0  0  0
  -35.7527  -24.4564   20.3092 C   0  0  2  0  0  0  0  0  0  0  0  0
  -30.4161  -13.3898   22.0248 C   0  0  0  0  0  0  0  0  0  0  0  0
  -32.5023  -24.4535   16.8094 C   0  0  0  0  0  0  0  0  0  0  0  0
  -23.2924  -23.7444   24.9029 N   0  0  0  0  0  0  0  0  0  0  0  0
  -22.8003  -22.5311   25.2060 N   0  0  0  0  0  0  0  0  0  0  0  0
  -30.7034  -23.0254   19.5642 N   0  0  0  0  0  0  0  0  0  0  0  0
  -24.9589  -19.4849   24.4034 N   0  0  0  0  0  0  0  0  0  0  0  0
  -20.7801  -21.3496   25.5712 N   0  0  0  0  0  0  0  0  0  0  0  0
  -19.3827  -25.5476   24.6655 N   0  0  0  0  0  0  0  0  0  0  0  0
  -23.4231  -17.8241   23.7360 N   0  0  0  0  0  0  0  0  0  0  0  0
  -24.5531  -13.8304   21.2540 N   0  0  0  0  0  0  0  0  0  0  0  0
  -27.0586  -23.1308   19.5345 N   0  0  0  0  0  0  0  0  0  0  0  0
  -33.7268  -24.4486   19.0240 N   0  0  0  0  0  0  0  0  0  0  0  0
  -36.2733  -23.6857   21.4737 N   0  3  0  0  0  0  0  0  0  0  0  0
  -18.6882  -23.4294   25.2039 O   0  0  0  0  0  0  0  0  0  0  0  0
  -28.7271  -22.6013   17.9989 O   0  0  0  0  0  0  0  0  0  0  0  0
  -26.1508  -11.8532   20.3904 O   0  0  0  0  0  0  0  0  0  0  0  0
  -31.6483  -14.4374   20.2145 O   0  0  0  0  0  0  0  0  0  0  0  0
  -31.0078  -25.3180   19.2689 O   0  0  0  0  0  0  0  0  0  0  0  0
  -34.7613  -22.4209   19.4661 O   0  0  0  0  0  0  0  0  0  0  0  0
  -25.5535  -17.2515   24.4537 O   0  0  0  0  0  0  0  0  0  0  0  0
  -22.6315  -29.9212   23.5032 O   0  0  0  0  0  0  0  0  0  0  0  0
  -30.8817  -16.9418   20.6409 O   0  0  0  0  0  0  0  0  0  1  0  0
  -26.1212  -31.3327   19.4740 F   0  0  0  0  0  0  0  0  0  0  0  0
  -21.7297  -31.2226   21.2370 F   0  0  0  0  0  0  0  0  0  0  0  0
  1  2  1  0  0  0  0
  1  5  2  0  0  0  0
  2  6  2  0  0  0  0
  3 10  2  0  0  0  0
  3 18  1  0  0  0  0
  4 11  1  0  0  0  0
  4 18  2  0  0  0  0
  5 20  1  0  0  0  0
  6 22  1  0  0  0  0
  7 12  2  0  0  0  0
  7 21  1  0  0  0  0
  8  9  2  0  0  0  0
  8 24  1  0  0  0  0
  9 25  1  0  0  0  0
 10 27  1  0  0  0  0
 11 27  2  0  0  0  0
 12 28  1  0  0  0  0
 13 14  2  0  0  0  0
 13 29  1  0  0  0  0
 14 30  1  0  0  0  0
 15 23  1  0  0  0  0
 15 28  2  0  0  0  0
 16 25  2  0  0  0  0
 16 26  1  0  0  0  0
 17 30  2  0  0  0  0
 17 31  1  0  0  0  0
 18 32  1  0  0  0  0
 19 32  1  0  0  0  0
 19 33  2  0  0  0  0
 19 34  1  0  0  0  0
 20 22  2  0  0  0  0
 20 41  1  0  0  0  0
 21 23  2  0  0  0  0
 21 42  1  0  0  0  0
 22 50  1  0  0  0  0
 23 43  1  0  0  0  0
 24 26  2  0  0  0  0
 24 66  1  0  0  0  0
 25 77  1  0  0  0  0
 26 78  1  0  0  0  0
 27 89  1  0  0  0  0
 28 90  1  0  0  0  0
 29 31  2  0  0  0  0
 29 89  1  0  0  0  0
 30 91  1  0  0  0  0
 31 92  1  0  0  0  0
 32 71  2  0  0  0  0
 33 72  1  0  0  0  0
 33 75  1  0  0  0  0
 34 76  1  0  0  0  0
 34 82  2  0  0  0  0
 35 51  1  0  0  0  0
 35 79  1  0  0  0  0
 35 83  2  0  0  0  0
 36 62  1  0  0  0  0
 36 63  1  0  0  0  0
 36 84  2  0  0  0  0
 37 64  1  0  0  0  0
 37 69  1  0  0  0  0
 37 85  2  0  0  0  0
 38 67  1  0  0  0  0
 38 73  1  0  0  0  0
 38 86  2  0  0  0  0
 39 68  1  0  0  0  0
 39 80  1  0  0  0  0
 39 87  2  0  0  0  0
 40 74  1  0  0  0  0
 40 77  1  0  0  0  0
 40 88  2  0  0  0  0
 41 44  1  0  0  0  0
 42 51  1  0  0  0  0
 43 73  1  0  0  0  0
 44 46  1  0  0  0  0
 45 47  1  0  0  0  0
 45 48  1  0  0  0  0
 46 50  1  0  0  0  0
 47 52  1  0  0  0  0
 48 74  1  0  0  0  0
 49 52  1  0  0  0  0
 49 74  1  0  0  0  0
 50 79  1  0  0  0  0
 51 73  1  0  0  0  0
 52 72  1  0  0  0  0
 53 66  1  0  0  0  0
 54 66  1  0  0  0  0
 55 68  1  0  0  0  0
 56 69  1  0  0  0  0
 57 69  1  0  0  0  0
 58 70  1  0  0  0  0
 59 70  1  0  0  0  0
 60 70  1  0  0  0  0
 61 81  1  0  0  0  0
 62 65  1  0  0  0  0
 63 78  1  0  0  0  0
 64 90  1  0  0  0  0
 65 69  1  0  0  0  0
 67 70  1  0  0  0  0
 67 80  1  0  0  0  0
 68 81  1  0  0  0  0
 71 72  1  0  0  0  0
M  CHG  1  81   1
M  ISO  4  40 100  64 101  77 100  90 101
M  END
> <Batch ID>
0144

> <Smiles>
CNC(C)C(=O)NC(C(=O)N1Cc2cc([101O:1][101CH2:1]C(=O)C(C)(C)CCC(=O)CNc3cc([100NH:0][100C:0](=O)N4CCCC(n5nc(-c6ccc(Oc7ccc(F)cc7F)cc6)c(C(N)=O)c5N)C4)ccc3C(C)C)ccc2CC1C(=O)NC1CCCc2ccccc21)C(C)(C)C

> <Shape>
0.179

> <Color>
0.075

> <Negative vol penalty>
0.000

$$$$

  -OEChem-04052303043D

 86 95  0     1  0  0  0  0  0999 V2000
  -17.1677  -28.3094   24.6052 C   0  0  0  0  0  0  0  0  0  0  0  0
  -18.2670  -27.4588   24.6630 C   0  0  0  0  0  0  0  0  0  0  0  0
  -23.3018   -9.7089   20.0788 C   0  0  0  0  0  0  0  0  0  0  0  0
  -23.8628  -10.0539   22.4034 C   0  0  0  0  0  0  0  0  0  0  0  0
  -17.1091  -29.3057   23.6316 C   0  0  0  0  0  0  0  0  0  0  0  0
  -19.3079  -27.6032   23.7464 C   0  0  0  0  0  0  0  0  0  0  0  0
  -26.4109  -26.8513   23.2012 C   0  0  0  0  0  0  0  0  0  0  0  0
  -22.6355   -8.5305   20.4145 C   0  0  0  0  0  0  0  0  0  0  0  0
  -23.1964   -8.8754   22.7391 C   0  0  0  0  0  0  0  0  0  0  0  0
  -27.3703  -26.2340   22.3997 C   0  0  0  0  0  0  0  0  0  0  0  0
  -20.0043   -7.8645   23.1962 C   0  0  0  0  0  0  0  0  0  0  0  0
  -19.1571   -7.8939   24.3039 C   0  0  0  0  0  0  0  0  0  0  0  0
  -27.1974  -28.0414   20.8113 C   0  0  0  0  0  0  0  0  0  0  0  0
  -30.6200  -18.2828   20.3609 C   0  0  0  0  0  0  0  0  0  0  0  0
  -20.4850   -6.1768   25.3649 C   0  0  0  0  0  0  0  0  0  0  0  0
  -28.8634  -18.5226   21.9463 C   0  0  0  0  0  0  0  0  0  0  0  0
  -23.9156  -10.4706   21.0733 C   0  0  0  0  0  0  0  0  0  0  0  0
  -24.0606  -12.9848   20.6661 C   0  0  0  0  0  0  0  0  0  0  0  0
  -18.1542  -29.4686   22.7087 C   0  0  0  0  0  0  0  0  0  0  0  0
  -25.8287  -28.0648   22.8078 C   0  0  0  0  0  0  0  0  0  0  0  0
  -19.2626  -28.6017   22.7587 C   0  0  0  0  0  0  0  0  0  0  0  0
  -26.2328  -28.6733   21.6109 C   0  0  0  0  0  0  0  0  0  0  0  0
  -30.6503  -19.6668   20.2307 C   0  0  0  0  0  0  0  0  0  0  0  0
  -29.7124  -17.6919   21.2330 C   0  0  0  0  0  0  0  0  0  0  0  0
  -22.5827   -8.1137   21.7446 C   0  0  0  0  0  0  0  0  0  0  0  0
  -27.7616  -26.8276   21.2031 C   0  0  0  0  0  0  0  0  0  0  0  0
  -21.0917   -6.9913   23.1727 C   0  0  0  0  0  0  0  0  0  0  0  0
  -19.3975   -7.0500   25.3883 C   0  0  0  0  0  0  0  0  0  0  0  0
  -21.3321   -6.1474   24.2571 C   0  0  0  0  0  0  0  0  0  0  0  0
  -24.6046  -11.6878   20.7271 C   0  0  0  0  0  0  0  0  0  0  0  0
  -29.7592  -20.4091   20.9887 C   0  0  0  0  0  0  0  0  0  0  0  0
  -25.1151  -13.7823   20.2941 C   0  0  0  0  0  0  0  0  0  0  0  0
  -29.2337  -23.9518   20.2510 C   0  0  0  0  0  0  0  0  0  0  0  0
  -22.7218  -13.4289   20.9228 C   0  0  0  0  0  0  0  0  0  0  0  0
  -28.4293  -24.9745   19.9419 C   0  0  0  0  0  0  0  0  0  1  0  0
  -22.8766  -29.0139   22.1092 C   0  0  0  0  0  0  0  0  0  0  0  0
  -24.2713  -31.9386   21.9556 C   0  0  0  0  0  0  0  0  0  0  0  0
  -27.1101  -33.7735   21.4853 C   0  0  0  0  0  0  0  0  0  0  0  0
  -30.4444  -15.3323   20.7404 C   0  0  0  0  0  0  0  0  0  0  0  0
  -18.0243  -30.5295   21.6446 C   0  0  0  0  0  0  0  0  0  0  0  0
  -24.8147  -28.7312   23.6966 C   0  0  0  0  0  0  0  0  0  0  0  0
  -25.6529  -29.9859   21.1534 C   0  0  0  0  0  0  0  0  0  0  0  0
  -30.4566  -24.0473   21.1073 C   0  0  0  0  0  0  0  0  0  0  0  0
  -28.9803  -22.5190   19.8900 C   0  0  0  0  0  0  0  0  0  0  0  0
  -19.3418  -30.8565   20.9464 C   0  0  0  0  0  0  0  0  0  0  0  0
  -29.7327  -12.5662   18.6145 C   0  0  0  0  0  0  0  0  0  0  0  0
  -20.0727  -29.5751   20.5583 C   0  0  0  0  0  0  0  0  0  0  0  0
  -28.2904  -12.1977   18.9696 C   0  0  0  0  0  0  0  0  0  0  0  0
  -30.5216  -22.6700   21.7613 C   0  0  0  0  0  0  0  0  0  0  0  0
  -30.5218  -13.0164   19.8427 C   0  0  0  0  0  0  0  0  0  0  0  0
  -28.4529  -13.7221   20.9788 C   0  0  0  0  0  0  0  0  0  0  0  0
  -20.4230  -28.7428   21.7976 C   0  0  1  0  0  0  0  0  0  0  0  0
  -23.9131  -29.7075   22.9473 C   0  0  1  0  0  0  0  0  0  0  0  0
  -27.6000  -13.3244   19.7631 C   0  0  2  0  0  0  0  0  0  0  0  0
  -27.2140  -24.8411   19.0819 C   0  0  0  0  0  0  0  0  0  0  0  0
  -33.0403  -20.3302   19.8642 C   0  0  0  0  0  0  0  0  0  0  0  0
  -27.9291  -36.1432   21.3801 C   0  0  0  0  0  0  0  0  0  0  0  0
  -23.0652  -32.2292   19.1680 C   0  0  0  0  0  0  0  0  0  0  0  0
  -24.6541  -34.1191   18.7535 C   0  0  0  0  0  0  0  0  0  0  0  0
  -22.9562  -34.2956   20.5725 C   0  0  0  0  0  0  0  0  0  0  0  0
  -28.9319  -33.3682   23.7821 C   0  0  0  0  0  0  0  0  0  0  0  0
  -31.6244  -20.2970   19.2943 C   0  0  0  0  0  0  0  0  0  0  0  0
  -24.9353  -32.7507   20.8700 C   0  0  1  0  0  0  0  0  0  0  0  0
  -27.7032  -34.9303   22.2692 C   0  0  2  0  0  0  0  0  0  0  0  0
  -23.9124  -33.3229   19.8484 C   0  0  0  0  0  0  0  0  0  0  0  0
  -28.8634  -19.8708   21.8463 N   0  0  0  0  0  0  0  0  0  0  0  0
  -25.9038  -11.6586   20.4184 N   0  0  0  0  0  0  0  0  0  0  0  0
  -26.1849  -12.9470   20.1598 N   0  0  0  0  0  0  0  0  0  0  0  0
  -29.7854  -21.7841   20.8625 N   0  0  3  0  0  0  0  0  0  0  0  0
  -24.6603  -30.5952   22.0540 N   0  0  0  0  0  0  0  0  0  0  0  0
  -29.8092  -14.0882   20.5416 N   0  0  0  0  0  0  0  0  0  0  0  0
  -25.2224  -15.1095   20.0720 N   0  0  0  0  0  0  0  0  0  0  0  0
  -21.7620  -12.4776   21.2948 N   0  0  0  0  0  0  0  0  0  0  0  0
  -29.6576  -16.2845   21.3876 N   0  0  0  0  0  0  0  0  0  0  0  0
  -21.5748  -29.3015   22.4727 N   0  0  0  0  0  0  0  0  0  0  0  0
  -25.7327  -33.7659   21.5496 N   0  0  0  0  0  0  0  0  0  0  0  0
  -29.0103  -34.5352   22.8662 N   0  3  0  0  0  0  0  0  0  0  0  0
  -22.3826  -14.6312   20.8093 O   0  0  0  0  0  0  0  0  0  0  0  0
  -23.2316  -28.2740   21.1992 O   0  0  0  0  0  0  0  0  0  0  0  0
  -23.4434  -32.4782   22.6939 O   0  0  0  0  0  0  0  0  0  0  0  0
  -27.7995  -32.9603   20.8737 O   0  0  0  0  0  0  0  0  0  0  0  0
  -31.5915  -15.5466   20.3400 O   0  0  0  0  0  0  0  0  0  0  0  0
  -21.9323   -6.9639   22.0726 O   0  0  0  0  0  0  0  0  0  0  0  0
  -28.6973  -26.2270   20.4186 O   0  0  0  0  0  0  0  0  0  1  0  0
  -18.5848   -7.0794   26.4526 F   0  0  0  0  0  0  0  0  0  0  0  0
  -22.3759   -5.3072   24.2408 F   0  0  0  0  0  0  0  0  0  0  0  0
  1  2  1  0  0  0  0
  1  5  2  0  0  0  0
  2  6  2  0  0  0  0
  3  8  2  0  0  0  0
  3 17  1  0  0  0  0
  4  9  1  0  0  0  0
  4 17  2  0  0  0  0
  5 19  1  0  0  0  0
  6 21  1  0  0  0  0
  7 10  2  0  0  0  0
  7 20  1  0  0  0  0
  8 25  1  0  0  0  0
  9 25  2  0  0  0  0
 10 26  1  0  0  0  0
 11 12  2  0  0  0  0
 11 27  1  0  0  0  0
 12 28  1  0  0  0  0
 13 22  1  0  0  0  0
 13 26  2  0  0  0  0
 14 23  1  0  0  0  0
 14 24  2  0  0  0  0
 15 28  2  0  0  0  0
 15 29  1  0  0  0  0
 16 24  1  0  0  0  0
 16 66  2  0  0  0  0
 17 30  1  0  0  0  0
 18 30  1  0  0  0  0
 18 32  2  0  0  0  0
 18 34  1  0  0  0  0
 19 21  2  0  0  0  0
 19 40  1  0  0  0  0
 20 22  2  0  0  0  0
 20 41  1  0  0  0  0
 21 52  1  0  0  0  0
 22 42  1  0  0  0  0
 23 31  2  0  0  0  0
 23 62  1  0  0  0  0
 24 74  1  0  0  0  0
 25 83  1  0  0  0  0
 26 84  1  0  0  0  0
 27 29  2  0  0  0  0
 27 83  1  0  0  0  0
 28 85  1  0  0  0  0
 29 86  1  0  0  0  0
 30 67  2  0  0  0  0
 31 66  1  0  0  0  0
 31 69  1  0  0  0  0
 32 68  1  0  0  0  0
 32 72  1  0  0  0  0
 33 35  2  0  0  0  0
 33 43  1  0  0  0  0
 33 44  1  0  0  0  0
 34 73  1  0  0  0  0
 34 78  2  0  0  0  0
 35 55  1  0  0  0  0
 35 84  1  0  0  0  0
 36 53  1  0  0  0  0
 36 75  1  0  0  0  0
 36 79  2  0  0  0  0
 37 63  1  0  0  0  0
 37 70  1  0  0  0  0
 37 80  2  0  0  0  0
 38 64  1  0  0  0  0
 38 76  1  0  0  0  0
 38 81  2  0  0  0  0
 39 71  1  0  0  0  0
 39 74  1  0  0  0  0
 39 82  2  0  0  0  0
 40 45  1  0  0  0  0
 41 53  1  0  0  0  0
 42 70  1  0  0  0  0
 43 49  1  0  0  0  0
 44 69  1  0  0  0  0
 45 47  1  0  0  0  0
 46 48  1  0  0  0  0
 46 50  1  0  0  0  0
 47 52  1  0  0  0  0
 48 54  1  0  0  0  0
 49 69  1  0  0  0  0
 50 71  1  0  0  0  0
 51 54  1  0  0  0  0
 51 71  1  0  0  0  0
 52 75  1  0  0  0  0
 53 70  1  0  0  0  0
 54 68  1  0  0  0  0
 56 62  1  0  0  0  0
 57 64  1  0  0  0  0
 58 65  1  0  0  0  0
 59 65  1  0  0  0  0
 60 65  1  0  0  0  0
 61 77  1  0  0  0  0
 63 65  1  0  0  0  0
 63 76  1  0  0  0  0
 64 77  1  0  0  0  0
 67 68  1  0  0  0  0
M  CHG  1  77   1
M  ISO  4  35 101  39 100  74 100  84 101
M  END
> <Batch ID>
0144

> <Smiles>
CCc1cc([100NH:0][100C:0](=O)N2CCCC(n3nc(-c4ccc(Oc5ccc(F)cc5F)cc4)c(C(N)=O)c3N)C2)cnc1N1CCC(=[101C:1](C)[101O:1]c2ccc3c(c2)CN(C(=O)C(NC(=O)C(C)NC)C(C)(C)C)C(C(=O)NC2CCCc4ccccc42)C3)C1

> <Shape>
0.338

> <Color>
0.219

> <Negative vol penalty>
0.000

$$$$

  -OEChem-04052303043D

 92100  0     1  0  0  0  0  0999 V2000
  -34.3791  -28.7980   19.5044 C   0  0  0  0  0  0  0  0  0  0  0  0
  -33.3353  -28.5967   18.6069 C   0  0  0  0  0  0  0  0  0  0  0  0
  -26.4953  -12.7562   21.5116 C   0  0  0  0  0  0  0  0  0  0  0  0
  -26.1403  -13.5255   19.2491 C   0  0  0  0  0  0  0  0  0  0  0  0
  -34.2584  -28.3588   20.8221 C   0  0  0  0  0  0  0  0  0  0  0  0
  -32.1706  -27.9549   19.0264 C   0  0  0  0  0  0  0  0  0  0  0  0
  -26.4550  -29.1025   17.1501 C   0  0  0  0  0  0  0  0  0  0  0  0
  -25.2387  -12.1507   21.5029 C   0  0  0  0  0  0  0  0  0  0  0  0
  -24.8838  -12.9200   19.2403 C   0  0  0  0  0  0  0  0  0  0  0  0
  -25.6347  -28.4828   16.2083 C   0  0  0  0  0  0  0  0  0  0  0  0
  -23.8449   -9.3226   20.2816 C   0  0  0  0  0  0  0  0  0  0  0  0
  -23.7464   -8.0264   20.7872 C   0  0  0  0  0  0  0  0  0  0  0  0
  -24.6043  -27.1902   17.9652 C   0  0  0  0  0  0  0  0  0  0  0  0
  -30.1473  -22.4473   17.8416 C   0  0  0  0  0  0  0  0  0  0  0  0
  -22.1752   -8.7958   22.4535 C   0  0  0  0  0  0  0  0  0  0  0  0
  -26.9461  -13.4436   20.3847 C   0  0  0  0  0  0  0  0  0  0  0  0
  -29.4682  -13.4937   20.0052 C   0  0  0  0  0  0  0  0  0  0  0  0
  -33.0877  -27.7200   21.2605 C   0  0  0  0  0  0  0  0  0  0  0  0
  -26.3635  -28.7622   18.5074 C   0  0  0  0  0  0  0  0  0  0  0  0
  -32.0346  -27.5055   20.3509 C   0  0  0  0  0  0  0  0  0  0  0  0
  -25.4228  -27.8088   18.9225 C   0  0  0  0  0  0  0  0  0  0  0  0
  -30.0407  -23.0002   16.5327 C   0  0  0  0  0  0  0  0  0  0  0  0
  -24.4330  -12.2326   20.3673 C   0  0  0  0  0  0  0  0  0  0  0  0
  -24.7112  -27.5245   16.6154 C   0  0  0  0  0  0  0  0  0  0  0  0
  -23.1086  -10.3554   20.8619 C   0  0  0  0  0  0  0  0  0  0  0  0
  -22.9115   -7.7629   21.8731 C   0  0  0  0  0  0  0  0  0  0  0  0
  -22.2738  -10.0920   21.9479 C   0  0  0  0  0  0  0  0  0  0  0  0
  -28.2437  -14.0698   20.3933 C   0  0  0  0  0  0  0  0  0  0  0  0
  -29.5149  -22.1002   15.6321 C   0  0  0  0  0  0  0  0  0  0  0  0
  -30.3931  -14.4906   20.1981 C   0  0  0  0  0  0  0  0  0  0  0  0
  -29.6987  -21.1456   17.8914 C   0  0  0  0  0  0  0  0  0  0  0  0
  -29.7447  -12.1754   19.5140 C   0  0  0  0  0  0  0  0  0  0  0  0
  -28.3511  -27.4989   20.6421 C   0  0  0  0  0  0  0  0  0  0  0  0
  -27.4874  -22.9505   12.4272 C   0  0  0  0  0  0  0  0  0  0  0  0
  -25.9260  -28.1371   22.6997 C   0  0  0  0  0  0  0  0  0  0  0  0
  -22.5877  -28.6698   23.1674 C   0  0  0  0  0  0  0  0  0  0  0  0
  -30.0091  -20.4528   20.2935 C   0  0  0  0  0  0  0  0  0  0  0  0
  -33.0222  -27.2205   22.6821 C   0  0  0  0  0  0  0  0  0  0  0  0
  -27.2370  -29.4591   19.5142 C   0  0  0  0  0  0  0  0  0  0  0  0
  -25.2711  -27.4226   20.3704 C   0  0  0  0  0  0  0  0  0  0  0  0
  -31.6069  -26.8837   23.1447 C   0  0  0  0  0  0  0  0  0  0  0  0
  -31.2248  -18.3553   22.9011 C   0  0  0  0  0  0  0  0  0  0  0  0
  -30.8828  -26.0557   22.0879 C   0  0  0  0  0  0  0  0  0  0  0  0
  -30.7149  -16.9649   22.5154 C   0  0  0  0  0  0  0  0  0  0  0  0
  -30.2126  -19.4464   22.5564 C   0  0  0  0  0  0  0  0  0  0  0  0
  -29.2325  -18.0494   20.7795 C   0  0  0  0  0  0  0  0  0  0  0  0
  -30.7456  -26.8355   20.7747 C   0  0  1  0  0  0  0  0  0  0  0  0
  -27.4150  -28.6630   20.8034 C   0  0  1  0  0  0  0  0  0  0  0  0
  -30.2449  -16.9240   21.0481 C   0  0  2  0  0  0  0  0  0  0  0  0
  -31.9582  -24.6320   16.4155 C   0  0  0  0  0  0  0  0  0  0  0  0
  -29.6356  -25.4527   16.9511 C   0  0  0  0  0  0  0  0  0  0  0  0
  -20.8990  -29.1278   24.9662 C   0  0  0  0  0  0  0  0  0  0  0  0
  -26.5724  -25.5108   10.7873 C   0  0  0  0  0  0  0  0  0  0  0  0
  -26.0530  -25.2125   23.5601 C   0  0  0  0  0  0  0  0  0  0  0  0
  -23.7964  -25.4949   24.6070 C   0  0  0  0  0  0  0  0  0  0  0  0
  -25.7295  -26.8378   25.4331 C   0  0  0  0  0  0  0  0  0  0  0  0
  -24.2946  -24.2554   14.5267 C   0  0  0  0  0  0  0  0  0  0  0  0
  -22.3536  -25.5526   13.6368 C   0  0  0  0  0  0  0  0  0  0  0  0
  -21.8289  -31.2615   21.9564 C   0  0  0  0  0  0  0  0  0  0  0  0
  -27.8010  -22.7517   13.9052 C   0  0  0  0  0  0  0  0  0  0  0  0
  -26.0863  -23.4626   12.1180 C   0  0  0  0  0  0  0  0  0  0  0  0
  -24.4923  -25.4415   12.2530 C   0  0  0  0  0  0  0  0  0  0  0  0
  -24.4313  -26.7645   14.3793 C   0  0  0  0  0  0  0  0  0  1  0  0
  -30.4508  -24.3833   16.1924 C   0  0  0  0  0  0  0  0  0  0  0  0
  -29.2393  -22.2848   14.1569 C   0  0  2  0  0  0  0  0  0  0  0  0
  -24.7102  -27.3856   23.1852 C   0  0  1  0  0  0  0  0  0  0  0  0
  -21.8368  -29.7408   23.9379 C   0  0  2  0  0  0  0  0  0  0  0  0
  -25.9723  -25.0013   12.1055 C   0  0  2  0  0  0  0  0  0  0  0  0
  -25.0762  -26.2383   24.1688 C   0  0  0  0  0  0  0  0  0  0  0  0
  -23.8929  -25.4823   13.6924 C   0  0  0  0  0  0  0  0  0  0  0  0
  -28.3755  -15.3345   20.8022 N   0  0  0  0  0  0  0  0  0  0  0  0
  -29.6938  -15.5613   20.6720 N   0  0  0  0  0  0  0  0  0  0  0  0
  -26.1522  -28.1276   21.3160 N   0  0  0  0  0  0  0  0  0  0  0  0
  -29.8165  -19.3481   21.1499 N   0  0  0  0  0  0  0  0  0  0  0  0
  -31.7283  -14.5469   20.0071 N   0  0  0  0  0  0  0  0  0  0  0  0
  -28.6784  -11.2763   19.3764 N   0  0  0  0  0  0  0  0  0  0  0  0
  -29.6251  -20.2313   18.9714 N   0  0  0  0  0  0  0  0  0  0  0  0
  -29.6780  -27.8077   20.8733 N   0  0  0  0  0  0  0  0  0  0  0  0
  -23.8078  -28.3865   23.7440 N   0  0  0  0  0  0  0  0  0  0  0  0
  -21.0299  -30.5792   23.0068 N   0  3  0  0  0  0  0  0  0  0  0  0
  -30.9056  -11.8004   19.2218 O   0  0  0  0  0  0  0  0  0  0  0  0
  -27.9027  -26.4013   20.3323 O   0  0  0  0  0  0  0  0  0  0  0  0
  -28.2963  -22.6783   11.5420 O   0  0  0  0  0  0  0  0  0  0  0  0
  -26.6446  -28.7175   23.5173 O   0  0  0  0  0  0  0  0  0  0  0  0
  -22.1355  -28.1353   22.1573 O   0  0  0  0  0  0  0  0  0  0  0  0
  -30.5051  -21.5079   20.6969 O   0  0  0  0  0  0  0  0  0  0  0  0
  -29.4670  -21.0368   13.5015 O   0  0  0  0  0  0  0  0  0  0  0  0
  -23.2069  -11.6417   20.3583 O   0  0  0  0  0  0  0  0  0  0  0  0
  -23.9042  -26.9134   15.6918 O   0  0  0  0  0  0  0  0  0  1  0  0
  -22.8159   -6.5178   22.3576 F   0  0  0  0  0  0  0  0  0  0  0  0
  -21.5631  -11.0800   22.5089 F   0  0  0  0  0  0  0  0  0  0  0  0
  -29.1522  -20.5955   16.3647 S   0  0  0  0  0  0  0  0  0  0  0  0
  1  2  1  0  0  0  0
  1  5  2  0  0  0  0
  2  6  2  0  0  0  0
  3  8  2  0  0  0  0
  3 16  1  0  0  0  0
  4  9  1  0  0  0  0
  4 16  2  0  0  0  0
  5 18  1  0  0  0  0
  6 20  1  0  0  0  0
  7 10  2  0  0  0  0
  7 19  1  0  0  0  0
  8 23  1  0  0  0  0
  9 23  2  0  0  0  0
 10 24  1  0  0  0  0
 11 12  2  0  0  0  0
 11 25  1  0  0  0  0
 12 26  1  0  0  0  0
 13 21  1  0  0  0  0
 13 24  2  0  0  0  0
 14 22  1  0  0  0  0
 14 31  2  0  0  0  0
 15 26  2  0  0  0  0
 15 27  1  0  0  0  0
 16 28  1  0  0  0  0
 17 28  1  0  0  0  0
 17 30  2  0  0  0  0
 17 32  1  0  0  0  0
 18 20  2  0  0  0  0
 18 38  1  0  0  0  0
 19 21  2  0  0  0  0
 19 39  1  0  0  0  0
 20 47  1  0  0  0  0
 21 40  1  0  0  0  0
 22 29  2  0  0  0  0
 22 64  1  0  0  0  0
 23 88  1  0  0  0  0
 24 89  1  0  0  0  0
 25 27  2  0  0  0  0
 25 88  1  0  0  0  0
 26 90  1  0  0  0  0
 27 91  1  0  0  0  0
 28 71  2  0  0  0  0
 29 65  1  0  0  0  0
 29 92  1  0  0  0  0
 30 72  1  0  0  0  0
 30 75  1  0  0  0  0
 31 77  1  0  0  0  0
 31 92  1  0  0  0  0
 32 76  1  0  0  0  0
 32 81  2  0  0  0  0
 33 48  1  0  0  0  0
 33 78  1  0  0  0  0
 33 82  2  0  0  0  0
 34 60  1  0  0  0  0
 34 61  1  0  0  0  0
 34 83  2  0  0  0  0
 35 66  1  0  0  0  0
 35 73  1  0  0  0  0
 35 84  2  0  0  0  0
 36 67  1  0  0  0  0
 36 79  1  0  0  0  0
 36 85  2  0  0  0  0
 37 74  1  0  0  0  0
 37 77  1  0  0  0  0
 37 86  2  0  0  0  0
 38 41  1  0  0  0  0
 39 48  1  0  0  0  0
 40 73  1  0  0  0  0
 41 43  1  0  0  0  0
 42 44  1  0  0  0  0
 42 45  1  0  0  0  0
 43 47  1  0  0  0  0
 44 49  1  0  0  0  0
 45 74  1  0  0  0  0
 46 49  1  0  0  0  0
 46 74  1  0  0  0  0
 47 78  1  0  0  0  0
 48 73  1  0  0  0  0
 49 72  1  0  0  0  0
 50 64  1  0  0  0  0
 51 64  1  0  0  0  0
 52 67  1  0  0  0  0
 53 68  1  0  0  0  0
 54 69  1  0  0  0  0
 55 69  1  0  0  0  0
 56 69  1  0  0  0  0
 57 70  1  0  0  0  0
 58 70  1  0  0  0  0
 59 80  1  0  0  0  0
 60 65  1  0  0  0  0
 61 68  1  0  0  0  0
 62 68  1  0  0  0  0
 62 70  1  0  0  0  0
 63 70  1  0  0  0  0
 63 89  1  0  0  0  0
 65 87  1  0  0  0  0
 66 69  1  0  0  0  0
 66 79  1  0  0  0  0
 67 80  1  0  0  0  0
 71 72  1  0  0  0  0
M  CHG  1  80   1
M  ISO  4  37 100  63 101  77 100  89 101
M  END
> <Batch ID>
0144

> <Smiles>
CNC(C)C(=O)NC(C(=O)N1Cc2cc([101O:1][101CH2:1]C(C)(C)CC(C)CC(=O)CC(O)c3sc([100NH:0][100C:0](=O)N4CCCC(n5nc(-c6ccc(Oc7ccc(F)cc7F)cc6)c(C(N)=O)c5N)C4)cc3C(C)C)ccc2CC1C(=O)NC1CCCc2ccccc21)C(C)(C)C

> <Shape>
0.245

> <Color>
0.077

> <Negative vol penalty>
0.000

$$$$

  -OEChem-04052303043D

 89 99  0     1  0  0  0  0  0999 V2000
  -27.6942  -35.4753   24.4672 C   0  0  0  0  0  0  0  0  0  0  0  0
  -27.7315  -34.4520   23.5268 C   0  0  0  0  0  0  0  0  0  0  0  0
  -23.5396   -9.2896   21.9998 C   0  0  0  0  0  0  0  0  0  0  0  0
  -25.6906   -8.3676   21.3997 C   0  0  0  0  0  0  0  0  0  0  0  0
  -26.6999  -35.4839   25.4431 C   0  0  0  0  0  0  0  0  0  0  0  0
  -26.7677  -33.4435   23.5546 C   0  0  0  0  0  0  0  0  0  0  0  0
  -24.7984  -18.8119   23.3835 C   0  0  0  0  0  0  0  0  0  0  0  0
  -26.7851  -30.2316   19.8281 C   0  0  0  0  0  0  0  0  0  0  0  0
  -25.4517  -17.5982   23.1663 C   0  0  0  0  0  0  0  0  0  0  0  0
  -23.2989   -8.1911   22.8250 C   0  0  0  0  0  0  0  0  0  0  0  0
  -25.4500   -7.2690   22.2250 C   0  0  0  0  0  0  0  0  0  0  0  0
  -27.7708  -29.2572   19.6776 C   0  0  0  0  0  0  0  0  0  0  0  0
  -22.3224   -4.9749   22.4684 C   0  0  0  0  0  0  0  0  0  0  0  0
  -21.0651   -4.3752   22.3975 C   0  0  0  0  0  0  0  0  0  0  0  0
  -27.1549  -18.7075   21.8299 C   0  0  0  0  0  0  0  0  0  0  0  0
  -26.2354  -27.5861   20.4956 C   0  0  0  0  0  0  0  0  0  0  0  0
  -20.7057   -4.8519   24.7386 C   0  0  0  0  0  0  0  0  0  0  0  0
  -24.7354   -9.3778   21.2871 C   0  0  0  0  0  0  0  0  0  0  0  0
  -24.2224  -10.9249   19.3247 C   0  0  0  0  0  0  0  0  0  0  0  0
  -25.7311  -34.4678   25.4899 C   0  0  0  0  0  0  0  0  0  0  0  0
  -25.3271  -19.9568   22.8089 C   0  0  0  0  0  0  0  0  0  0  0  0
  -25.5185  -29.8919   20.3247 C   0  0  0  0  0  0  0  0  0  0  0  0
  -25.7419  -33.4476   24.5171 C   0  0  0  0  0  0  0  0  0  0  0  0
  -26.4982  -19.9127   22.0386 C   0  0  0  0  0  0  0  0  0  0  0  0
  -25.2345  -28.5576   20.6491 C   0  0  0  0  0  0  0  0  0  0  0  0
  -26.6217  -17.5464   22.3949 C   0  0  0  0  0  0  0  0  0  0  0  0
  -24.2541   -7.1808   22.9376 C   0  0  0  0  0  0  0  0  0  0  0  0
  -27.4970  -27.9347   20.0140 C   0  0  0  0  0  0  0  0  0  0  0  0
  -22.7715   -5.5131   23.6744 C   0  0  0  0  0  0  0  0  0  0  0  0
  -20.2567   -4.3137   23.5326 C   0  0  0  0  0  0  0  0  0  0  0  0
  -21.9631   -5.4516   24.8095 C   0  0  0  0  0  0  0  0  0  0  0  0
  -24.9844  -10.5120   20.4341 C   0  0  0  0  0  0  0  0  0  0  0  0
  -24.8701  -12.0435   18.8604 C   0  0  0  0  0  0  0  0  0  0  0  0
  -23.0351  -10.3488   18.7641 C   0  0  0  0  0  0  0  0  0  0  0  0
  -23.8186  -30.7101   22.8830 C   0  0  0  0  0  0  0  0  0  0  0  0
  -21.5112  -28.9538   21.4292 C   0  0  0  0  0  0  0  0  0  0  0  0
  -20.7157  -26.4695   19.2286 C   0  0  0  0  0  0  0  0  0  0  0  0
  -28.4373  -16.0700   21.4619 C   0  0  0  0  0  0  0  0  0  0  0  0
  -24.6729  -34.5304   26.5629 C   0  0  0  0  0  0  0  0  0  0  0  0
  -24.8159  -21.3553   22.9378 C   0  0  0  0  0  0  0  0  0  0  0  0
  -24.4576  -30.9501   20.4560 C   0  0  0  0  0  0  0  0  0  0  0  0
  -23.8841  -28.1376   21.1672 C   0  0  0  0  0  0  0  0  0  0  0  0
  -23.9705  -33.1947   26.7839 C   0  0  0  0  0  0  0  0  0  0  0  0
  -25.5281  -22.0342   21.7596 C   0  0  0  0  0  0  0  0  0  0  0  0
  -29.2205  -14.0342   18.6478 C   0  0  0  0  0  0  0  0  0  0  0  0
  -23.5184  -32.6184   25.4505 C   0  0  0  0  0  0  0  0  0  0  0  0
  -27.7727  -22.7275   19.6477 C   0  0  0  0  0  0  0  0  0  0  0  0
  -28.4837  -23.2540   22.0169 C   0  0  0  0  0  0  0  0  0  0  0  0
  -28.1501  -12.9410   18.6820 C   0  0  0  0  0  0  0  0  0  0  0  0
  -27.3317  -21.3319   20.0886 C   0  0  0  0  0  0  0  0  0  0  0  0
  -27.9983  -21.8745   22.4676 C   0  0  0  0  0  0  0  0  0  0  0  0
  -29.6676  -14.4343   20.0527 C   0  0  0  0  0  0  0  0  0  0  0  0
  -27.5107  -13.7153   21.0012 C   0  0  0  0  0  0  0  0  0  0  0  0
  -24.7221  -32.3235   24.5466 C   0  0  1  0  0  0  0  0  0  0  0  0
  -23.3661  -30.5811   21.4560 C   0  0  1  0  0  0  0  0  0  0  0  0
  -28.8975  -23.2656   20.5404 C   0  0  0  0  0  0  0  0  0  0  0  0
  -26.9819  -13.3249   19.6114 C   0  0  2  0  0  0  0  0  0  0  0  0
  -26.8877  -21.2982   21.5626 C   0  0  0  0  0  0  0  0  0  0  0  0
  -18.7484  -25.2343   18.2793 C   0  0  0  0  0  0  0  0  0  0  0  0
  -29.7581  -24.6470   18.6337 C   0  0  0  0  0  0  0  0  0  0  0  0
  -30.4820  -25.1522   20.9766 C   0  0  0  0  0  0  0  0  0  0  0  0
  -21.2548  -27.3717   24.0256 C   0  0  0  0  0  0  0  0  0  0  0  0
  -20.0177  -25.6095   22.7481 C   0  0  0  0  0  0  0  0  0  0  0  0
  -19.0804  -27.9151   22.9160 C   0  0  0  0  0  0  0  0  0  0  0  0
  -21.3364  -27.3616   16.4758 C   0  0  0  0  0  0  0  0  0  0  0  0
  -28.1099  -25.6472   20.2321 C   0  0  0  0  0  0  0  0  0  1  0  0
  -21.0995  -27.5015   21.4517 C   0  0  1  0  0  0  0  0  0  0  0  0
  -19.6988  -26.4083   18.1032 C   0  0  2  0  0  0  0  0  0  0  0  0
  -29.3041  -24.6726   20.1060 C   0  0  0  0  0  0  0  0  0  0  0  0
  -20.3893  -27.1074   22.7774 C   0  0  0  0  0  0  0  0  0  0  0  0
  -26.0359  -11.3038   20.6608 N   0  0  0  0  0  0  0  0  0  0  0  0
  -25.9392  -12.2254   19.6875 N   0  0  0  0  0  0  0  0  0  0  0  0
  -22.8821  -29.2098   21.2839 N   0  0  0  0  0  0  0  0  0  0  0  0
  -28.5086  -14.7890   20.8748 N   0  0  0  0  0  0  0  0  0  0  0  0
  -24.6237  -12.8794   17.8294 N   0  0  0  0  0  0  0  0  0  0  0  0
  -23.1723   -9.3745   17.7660 N   0  0  0  0  0  0  0  0  0  0  0  0
  -27.2740  -16.3046   22.1943 N   0  0  0  0  0  0  0  0  0  0  0  0
  -24.2468  -31.9787   23.2249 N   0  0  0  0  0  0  0  0  0  0  0  0
  -20.2929  -27.2873   20.2551 N   0  0  0  0  0  0  0  0  0  0  0  0
  -20.3878  -26.2623   16.7899 N   0  3  0  0  0  0  0  0  0  0  0  0
  -21.8864  -10.6997   19.1257 O   0  0  0  0  0  0  0  0  0  0  0  0
  -23.7807  -29.7316   23.6197 O   0  0  0  0  0  0  0  0  0  0  0  0
  -20.6476  -29.8288   21.5294 O   0  0  0  0  0  0  0  0  0  0  0  0
  -21.7772  -25.8506   19.2016 O   0  0  0  0  0  0  0  0  0  0  0  0
  -29.3290  -16.9075   21.3025 O   0  0  0  0  0  0  0  0  0  0  0  0
  -24.0197   -6.1089   23.7430 O   0  0  0  0  0  0  0  0  0  0  0  0
  -28.4643  -26.9750   19.8676 O   0  0  0  0  0  0  0  0  0  1  0  0
  -19.0487   -3.7391   23.4640 F   0  0  0  0  0  0  0  0  0  0  0  0
  -22.3886   -5.9680   25.9706 F   0  0  0  0  0  0  0  0  0  0  0  0
  1  2  1  0  0  0  0
  1  5  2  0  0  0  0
  2  6  2  0  0  0  0
  3 10  2  0  0  0  0
  3 18  1  0  0  0  0
  4 11  1  0  0  0  0
  4 18  2  0  0  0  0
  5 20  1  0  0  0  0
  6 23  1  0  0  0  0
  7  9  2  0  0  0  0
  7 21  1  0  0  0  0
  8 12  2  0  0  0  0
  8 22  1  0  0  0  0
  9 26  1  0  0  0  0
 10 27  1  0  0  0  0
 11 27  2  0  0  0  0
 12 28  1  0  0  0  0
 13 14  2  0  0  0  0
 13 29  1  0  0  0  0
 14 30  1  0  0  0  0
 15 24  1  0  0  0  0
 15 26  2  0  0  0  0
 16 25  1  0  0  0  0
 16 28  2  0  0  0  0
 17 30  2  0  0  0  0
 17 31  1  0  0  0  0
 18 32  1  0  0  0  0
 19 32  1  0  0  0  0
 19 33  2  0  0  0  0
 19 34  1  0  0  0  0
 20 23  2  0  0  0  0
 20 39  1  0  0  0  0
 21 24  2  0  0  0  0
 21 40  1  0  0  0  0
 22 25  2  0  0  0  0
 22 41  1  0  0  0  0
 23 54  1  0  0  0  0
 24 58  1  0  0  0  0
 25 42  1  0  0  0  0
 26 77  1  0  0  0  0
 27 86  1  0  0  0  0
 28 87  1  0  0  0  0
 29 31  2  0  0  0  0
 29 86  1  0  0  0  0
 30 88  1  0  0  0  0
 31 89  1  0  0  0  0
 32 71  2  0  0  0  0
 33 72  1  0  0  0  0
 33 75  1  0  0  0  0
 34 76  1  0  0  0  0
 34 81  2  0  0  0  0
 35 55  1  0  0  0  0
 35 78  1  0  0  0  0
 35 82  2  0  0  0  0
 36 67  1  0  0  0  0
 36 73  1  0  0  0  0
 36 83  2  0  0  0  0
 37 68  1  0  0  0  0
 37 79  1  0  0  0  0
 37 84  2  0  0  0  0
 38 74  1  0  0  0  0
 38 77  1  0  0  0  0
 38 85  2  0  0  0  0
 39 43  1  0  0  0  0
 40 44  1  0  0  0  0
 41 55  1  0  0  0  0
 42 73  1  0  0  0  0
 43 46  1  0  0  0  0
 44 58  1  0  0  0  0
 45 49  1  0  0  0  0
 45 52  1  0  0  0  0
 46 54  1  0  0  0  0
 47 50  1  0  0  0  0
 47 56  1  0  0  0  0
 48 51  1  0  0  0  0
 48 56  1  0  0  0  0
 49 57  1  0  0  0  0
 50 58  1  0  0  0  0
 51 58  1  0  0  0  0
 52 74  1  0  0  0  0
 53 57  1  0  0  0  0
 53 74  1  0  0  0  0
 54 78  1  0  0  0  0
 55 73  1  0  0  0  0
 56 69  1  0  0  0  0
 57 72  1  0  0  0  0
 59 68  1  0  0  0  0
 60 69  1  0  0  0  0
 61 69  1  0  0  0  0
 62 70  1  0  0  0  0
 63 70  1  0  0  0  0
 64 70  1  0  0  0  0
 65 80  1  0  0  0  0
 66 69  1  0  0  0  0
 66 87  1  0  0  0  0
 67 70  1  0  0  0  0
 67 79  1  0  0  0  0
 68 80  1  0  0  0  0
 71 72  1  0  0  0  0
M  CHG  1  80   1
M  ISO  4  38 100  66 101  77 100  87 101
M  END
> <Batch ID>
0144

> <Smiles>
CNC(C)C(=O)NC(C(=O)N1Cc2cc([101O:1][101CH2:1]C(C)(C)C3CCC4(CCc5ccc([100NH:0][100C:0](=O)N6CCCC(n7nc(-c8ccc(Oc9ccc(F)cc9F)cc8)c(C(N)=O)c7N)C6)cc54)CC3)ccc2CC1C(=O)NC1CCCc2ccccc21)C(C)(C)C

> <Shape>
0.305

> <Color>
0.085

> <Negative vol penalty>
0.000

$$$$

  -OEChem-04052303043D

 89 98  0     1  0  0  0  0  0999 V2000
  -30.7712  -24.3766   17.9554 C   0  0  0  0  0  0  0  0  0  0  0  0
  -30.0910  -23.6981   18.9616 C   0  0  0  0  0  0  0  0  0  0  0  0
  -32.2651  -17.9378   23.4731 C   0  0  0  0  0  0  0  0  0  0  0  0
  -23.1916   -9.7216   19.9615 C   0  0  0  0  0  0  0  0  0  0  0  0
  -23.8340   -9.8919   22.2843 C   0  0  0  0  0  0  0  0  0  0  0  0
  -31.3968  -18.8107   24.1286 C   0  0  0  0  0  0  0  0  0  0  0  0
  -30.7616  -25.7705   17.9265 C   0  0  0  0  0  0  0  0  0  0  0  0
  -29.4017  -24.4133   19.9403 C   0  0  0  0  0  0  0  0  0  0  0  0
  -24.1727  -22.7936   22.6863 C   0  0  0  0  0  0  0  0  0  0  0  0
  -31.7591  -16.9793   22.5950 C   0  0  0  0  0  0  0  0  0  0  0  0
  -22.4828   -8.5537   20.2431 C   0  0  0  0  0  0  0  0  0  0  0  0
  -23.1252   -8.7241   22.5660 C   0  0  0  0  0  0  0  0  0  0  0  0
  -23.9059  -22.1932   23.9159 C   0  0  0  0  0  0  0  0  0  0  0  0
  -19.9052   -7.8244   23.0589 C   0  0  0  0  0  0  0  0  0  0  0  0
  -19.0924   -7.8189   24.1924 C   0  0  0  0  0  0  0  0  0  0  0  0
  -29.5164  -17.7664   23.0282 C   0  0  0  0  0  0  0  0  0  0  0  0
  -23.5315  -24.3682   24.8898 C   0  0  0  0  0  0  0  0  0  0  0  0
  -20.3716   -5.9816   25.1008 C   0  0  0  0  0  0  0  0  0  0  0  0
  -23.8673  -10.3907   20.9820 C   0  0  0  0  0  0  0  0  0  0  0  0
  -30.0224  -18.7250   23.9062 C   0  0  0  0  0  0  0  0  0  0  0  0
  -24.1135  -12.9172   20.7295 C   0  0  0  0  0  0  0  0  0  0  0  0
  -30.0637  -26.5029   18.8998 C   0  0  0  0  0  0  0  0  0  0  0  0
  -24.1315  -24.1888   22.5516 C   0  0  0  0  0  0  0  0  0  0  0  0
  -29.3838  -25.8183   19.9252 C   0  0  0  0  0  0  0  0  0  0  0  0
  -23.7957  -24.9837   23.6568 C   0  0  0  0  0  0  0  0  0  0  0  0
  -30.3848  -16.8936   22.3726 C   0  0  0  0  0  0  0  0  0  0  0  0
  -22.4495   -8.0550   21.5454 C   0  0  0  0  0  0  0  0  0  0  0  0
  -23.5880  -22.9807   25.0187 C   0  0  0  0  0  0  0  0  0  0  0  0
  -20.9512   -6.9084   22.9463 C   0  0  0  0  0  0  0  0  0  0  0  0
  -19.3256   -6.8976   25.2134 C   0  0  0  0  0  0  0  0  0  0  0  0
  -21.1844   -5.9871   23.9673 C   0  0  0  0  0  0  0  0  0  0  0  0
  -24.6001  -11.5967   20.6916 C   0  0  0  0  0  0  0  0  0  0  0  0
  -25.1917  -13.6908   20.3755 C   0  0  0  0  0  0  0  0  0  0  0  0
  -29.1041  -19.6472   24.5979 C   0  0  0  0  0  0  0  0  0  0  0  0
  -22.8039  -13.4011   21.0558 C   0  0  0  0  0  0  0  0  0  0  0  0
  -26.2485  -26.4315   21.7817 C   0  0  0  0  0  0  0  0  0  0  0  0
  -25.4966  -21.3763   26.4301 C   0  0  0  0  0  0  0  0  0  0  0  0
  -23.6495  -28.3697   21.8843 C   0  0  0  0  0  0  0  0  0  0  0  0
  -20.5030  -28.9361   23.0783 C   0  0  0  0  0  0  0  0  0  0  0  0
  -30.5959  -14.9779   20.7502 C   0  0  0  0  0  0  0  0  0  0  0  0
  -30.1214  -28.0094   18.8545 C   0  0  0  0  0  0  0  0  0  0  0  0
  -24.3957  -24.8195   21.2118 C   0  0  0  0  0  0  0  0  0  0  0  0
  -23.7183  -26.4847   23.5598 C   0  0  0  0  0  0  0  0  0  0  0  0
  -29.0557  -28.6858   19.7130 C   0  0  0  0  0  0  0  0  0  0  0  0
  -29.6998  -12.3874   18.4780 C   0  0  0  0  0  0  0  0  0  0  0  0
  -27.9543  -18.0086   27.6154 C   0  0  0  0  0  0  0  0  0  0  0  0
  -28.9917  -28.0384   21.0927 C   0  0  0  0  0  0  0  0  0  0  0  0
  -28.2531  -12.0594   18.8544 C   0  0  0  0  0  0  0  0  0  0  0  0
  -27.7480  -19.4835   27.9443 C   0  0  0  0  0  0  0  0  0  0  0  0
  -28.9237  -18.0319   26.4404 C   0  0  0  0  0  0  0  0  0  0  0  0
  -30.5433  -12.7234   19.7066 C   0  0  0  0  0  0  0  0  0  0  0  0
  -28.5416  -13.4431   20.9495 C   0  0  0  0  0  0  0  0  0  0  0  0
  -28.6040  -26.5583   20.9902 C   0  0  1  0  0  0  0  0  0  0  0  0
  -24.8290  -26.2787   21.3134 C   0  0  1  0  0  0  0  0  0  0  0  0
  -27.6371  -13.1614   19.7386 C   0  0  2  0  0  0  0  0  0  0  0  0
  -27.7162  -20.1713   26.5762 C   0  0  2  0  0  0  0  0  0  0  0  0
  -23.5542  -20.6981   27.8779 C   0  0  0  0  0  0  0  0  0  0  0  0
  -18.6475  -30.6245   23.0181 C   0  0  0  0  0  0  0  0  0  0  0  0
  -25.2049  -30.1445   23.8185 C   0  0  0  0  0  0  0  0  0  0  0  0
  -23.0418  -31.2386   24.4445 C   0  0  0  0  0  0  0  0  0  0  0  0
  -23.8793  -31.3862   22.0994 C   0  0  0  0  0  0  0  0  0  0  0  0
  -18.6265  -27.0022   21.8545 C   0  0  0  0  0  0  0  0  0  0  0  0
  -26.3284  -20.1960   25.9532 C   0  0  0  0  0  0  0  0  0  0  0  0
  -23.9881  -21.1635   26.4997 C   0  0  1  0  0  0  0  0  0  1  0  0
  -22.9678  -29.1883   22.9540 C   0  0  1  0  0  0  0  0  0  0  0  0
  -19.2246  -29.3689   22.3834 C   0  0  2  0  0  0  0  0  0  0  0  0
  -23.7767  -30.4613   23.3317 C   0  0  0  0  0  0  0  0  0  0  0  0
  -25.8873  -11.5315   20.3409 N   0  0  0  0  0  0  0  0  0  0  0  0
  -26.2186  -12.8206   20.1552 N   0  0  0  0  0  0  0  0  0  0  0  0
  -28.6052  -19.3063   25.7734 N   0  0  0  0  0  0  0  0  0  0  0  0
  -23.9911  -27.0546   22.2300 N   0  0  0  0  0  0  0  0  0  0  0  0
  -29.9000  -13.7777   20.4936 N   0  0  0  0  0  0  0  0  0  0  0  0
  -25.3521  -15.0237   20.2341 N   0  0  0  0  0  0  0  0  0  0  0  0
  -21.8134  -12.4701   21.3972 N   0  0  0  0  0  0  0  0  0  0  0  0
  -29.8717  -15.9196   21.4805 N   0  0  0  0  0  0  0  0  0  0  0  0
  -27.1813  -26.4232   20.7622 N   0  0  0  0  0  0  0  0  0  0  0  0
  -21.6208  -29.4598   22.4639 N   0  0  0  0  0  0  0  0  0  0  0  0
  -28.7934  -20.8084   24.0294 N   0  3  0  0  0  0  0  0  0  0  0  0
  -18.2008  -28.2889   22.4628 N   0  3  0  0  0  0  0  0  0  0  0  0
  -22.5160  -14.6217   21.0289 O   0  0  0  0  0  0  0  0  0  0  0  0
  -26.4802  -26.5497   22.9792 O   0  0  0  0  0  0  0  0  0  0  0  0
  -26.0089  -22.4530   26.7379 O   0  0  0  0  0  0  0  0  0  0  0  0
  -23.8642  -28.8762   20.7802 O   0  0  0  0  0  0  0  0  0  0  0  0
  -20.5091  -28.2094   24.0695 O   0  0  0  0  0  0  0  0  0  0  0  0
  -31.7395  -15.1679   20.3282 O   0  0  0  0  0  0  0  0  0  0  0  0
  -21.7578   -6.9156   21.8206 O   0  0  0  0  0  0  0  0  0  0  0  0
  -23.3278  -22.3972   26.2202 O   0  0  0  0  0  0  0  0  0  1  0  0
  -18.5460   -6.8935   26.3026 F   0  0  0  0  0  0  0  0  0  0  0  0
  -22.1885   -5.1055   23.8653 F   0  0  0  0  0  0  0  0  0  0  0  0
  1  2  1  0  0  0  0
  1  7  2  0  0  0  0
  2  8  2  0  0  0  0
  3  6  2  0  0  0  0
  3 10  1  0  0  0  0
  4 11  2  0  0  0  0
  4 19  1  0  0  0  0
  5 12  1  0  0  0  0
  5 19  2  0  0  0  0
  6 20  1  0  0  0  0
  7 22  1  0  0  0  0
  8 24  1  0  0  0  0
  9 13  2  0  0  0  0
  9 23  1  0  0  0  0
 10 26  2  0  0  0  0
 11 27  1  0  0  0  0
 12 27  2  0  0  0  0
 13 28  1  0  0  0  0
 14 15  2  0  0  0  0
 14 29  1  0  0  0  0
 15 30  1  0  0  0  0
 16 20  2  0  0  0  0
 16 26  1  0  0  0  0
 17 25  1  0  0  0  0
 17 28  2  0  0  0  0
 18 30  2  0  0  0  0
 18 31  1  0  0  0  0
 19 32  1  0  0  0  0
 20 34  1  0  0  0  0
 21 32  1  0  0  0  0
 21 33  2  0  0  0  0
 21 35  1  0  0  0  0
 22 24  2  0  0  0  0
 22 41  1  0  0  0  0
 23 25  2  0  0  0  0
 23 42  1  0  0  0  0
 24 53  1  0  0  0  0
 25 43  1  0  0  0  0
 26 75  1  0  0  0  0
 27 86  1  0  0  0  0
 28 87  1  0  0  0  0
 29 31  2  0  0  0  0
 29 86  1  0  0  0  0
 30 88  1  0  0  0  0
 31 89  1  0  0  0  0
 32 68  2  0  0  0  0
 33 69  1  0  0  0  0
 33 73  1  0  0  0  0
 34 70  1  0  0  0  0
 34 78  2  0  0  0  0
 35 74  1  0  0  0  0
 35 80  2  0  0  0  0
 36 54  1  0  0  0  0
 36 76  1  0  0  0  0
 36 81  2  0  0  0  0
 37 63  1  0  0  0  0
 37 64  1  0  0  0  0
 37 82  2  0  0  0  0
 38 65  1  0  0  0  0
 38 71  1  0  0  0  0
 38 83  2  0  0  0  0
 39 66  1  0  0  0  0
 39 77  1  0  0  0  0
 39 84  2  0  0  0  0
 40 72  1  0  0  0  0
 40 75  1  0  0  0  0
 40 85  2  0  0  0  0
 41 44  1  0  0  0  0
 42 54  1  0  0  0  0
 43 71  1  0  0  0  0
 44 47  1  0  0  0  0
 45 48  1  0  0  0  0
 45 51  1  0  0  0  0
 46 49  1  0  0  0  0
 46 50  1  0  0  0  0
 47 53  1  0  0  0  0
 48 55  1  0  0  0  0
 49 56  1  0  0  0  0
 50 70  1  0  0  0  0
 51 72  1  0  0  0  0
 52 55  1  0  0  0  0
 52 72  1  0  0  0  0
 53 76  1  0  0  0  0
 54 71  1  0  0  0  0
 55 69  1  0  0  0  0
 56 63  1  0  0  0  0
 56 70  1  0  0  0  0
 57 64  1  0  0  0  0
 58 66  1  0  0  0  0
 59 67  1  0  0  0  0
 60 67  1  0  0  0  0
 61 67  1  0  0  0  0
 62 79  1  0  0  0  0
 64 87  1  0  0  0  0
 65 67  1  0  0  0  0
 65 77  1  0  0  0  0
 66 79  1  0  0  0  0
 68 69  1  0  0  0  0
M  CHG  2  78   1  79   1
M  ISO  4  40 100  64 101  75 100  87 101
M  END
> <Batch ID>
0144

> <Smiles>
CNC(C)C(=O)NC(C(=O)N1Cc2cc([101O:1][101CH:1](C)C(=O)CC3CCCN3C(=N)c3cccc([100NH:0][100C:0](=O)N4CCCC(n5nc(-c6ccc(Oc7ccc(F)cc7F)cc6)c(C(N)=O)c5N)C4)c3)ccc2CC1C(=O)NC1CCCc2ccccc21)C(C)(C)C

> <Shape>
0.312

> <Color>
0.200

> <Negative vol penalty>
0.000

$$$$

  -OEChem-04052303043D

 89 98  0     1  0  0  0  0  0999 V2000
  -29.7190  -11.8931   19.4200 C   0  0  0  0  0  0  0  0  0  0  0  0
  -29.5598  -12.6145   20.5989 C   0  0  0  0  0  0  0  0  0  0  0  0
  -27.3399  -26.0193   17.7636 C   0  0  0  0  0  0  0  0  0  0  0  0
  -27.2836  -25.8421   20.1724 C   0  0  0  0  0  0  0  0  0  0  0  0
  -28.9919  -12.2467   18.2842 C   0  0  0  0  0  0  0  0  0  0  0  0
  -28.6742  -13.6907   20.6422 C   0  0  0  0  0  0  0  0  0  0  0  0
  -30.8918  -16.4666   24.6101 C   0  0  0  0  0  0  0  0  0  0  0  0
  -31.8419  -18.5702   25.3237 C   0  0  0  0  0  0  0  0  0  0  0  0
  -25.7955  -13.6713   24.8084 C   0  0  0  0  0  0  0  0  0  0  0  0
  -30.7007  -16.9871   23.3302 C   0  0  0  0  0  0  0  0  0  0  0  0
  -31.6509  -19.0907   24.0437 C   0  0  0  0  0  0  0  0  0  0  0  0
  -26.2724  -26.9160   17.8045 C   0  0  0  0  0  0  0  0  0  0  0  0
  -26.2160  -26.7389   20.2134 C   0  0  0  0  0  0  0  0  0  0  0  0
  -26.3839  -14.1174   25.9910 C   0  0  0  0  0  0  0  0  0  0  0  0
  -25.7632  -30.0812   20.0015 C   0  0  0  0  0  0  0  0  0  0  0  0
  -25.8104  -31.0996   20.9534 C   0  0  0  0  0  0  0  0  0  0  0  0
  -25.3128  -16.2603   25.7087 C   0  0  0  0  0  0  0  0  0  0  0  0
  -23.7593  -30.2800   21.9323 C   0  0  0  0  0  0  0  0  0  0  0  0
  -27.8455  -25.4823   18.9475 C   0  0  0  0  0  0  0  0  0  0  0  0
  -30.3204  -24.8638   18.9608 C   0  0  0  0  0  0  0  0  0  0  0  0
  -31.4623  -17.2582   25.6069 C   0  0  0  0  0  0  0  0  0  0  0  0
  -28.0898  -13.3217   18.3163 C   0  0  0  0  0  0  0  0  0  0  0  0
  -24.9686  -14.5215   24.0601 C   0  0  0  0  0  0  0  0  0  0  0  0
  -27.9353  -14.0599   19.5052 C   0  0  0  0  0  0  0  0  0  0  0  0
  -24.7130  -15.8218   24.5183 C   0  0  0  0  0  0  0  0  0  0  0  0
  -31.0803  -18.2991   23.0470 C   0  0  0  0  0  0  0  0  0  0  0  0
  -25.7104  -27.2759   19.0294 C   0  0  0  0  0  0  0  0  0  0  0  0
  -26.1449  -15.4129   26.4398 C   0  0  0  0  0  0  0  0  0  0  0  0
  -24.7139  -29.1621   20.0149 C   0  0  0  0  0  0  0  0  0  0  0  0
  -24.8085  -31.1990   21.9188 C   0  0  0  0  0  0  0  0  0  0  0  0
  -23.7120  -29.2615   20.9803 C   0  0  0  0  0  0  0  0  0  0  0  0
  -28.9479  -24.5554   18.9058 C   0  0  0  0  0  0  0  0  0  0  0  0
  -30.9494  -23.6451   18.8868 C   0  0  0  0  0  0  0  0  0  0  0  0
  -30.9687  -26.1381   19.0693 C   0  0  0  0  0  0  0  0  0  0  0  0
  -25.0757  -15.7453   21.1285 C   0  0  0  0  0  0  0  0  0  0  0  0
  -28.6455  -17.9118   29.0251 C   0  0  0  0  0  0  0  0  0  0  0  0
  -22.1193  -16.8367   21.8970 C   0  0  0  0  0  0  0  0  0  0  0  0
  -19.8984  -17.7150   24.3348 C   0  0  0  0  0  0  0  0  0  0  0  0
  -30.3349  -18.1774   20.6437 C   0  0  0  0  0  0  0  0  0  0  0  0
  -27.3611  -13.6960   17.0499 C   0  0  0  0  0  0  0  0  0  0  0  0
  -24.3199  -14.0164   22.8005 C   0  0  0  0  0  0  0  0  0  0  0  0
  -23.8167  -16.7671   23.7623 C   0  0  0  0  0  0  0  0  0  0  0  0
  -26.1651  -14.6151   17.2843 C   0  0  0  0  0  0  0  0  0  0  0  0
  -29.6535  -19.1461   17.2859 C   0  0  0  0  0  0  0  0  0  0  0  0
  -32.9632  -16.5401   28.9785 C   0  0  0  0  0  0  0  0  0  0  0  0
  -26.5436  -15.7543   18.2255 C   0  0  0  0  0  0  0  0  0  0  0  0
  -33.1148  -16.7410   27.4835 C   0  0  0  0  0  0  0  0  0  0  0  0
  -29.5360  -20.6699   17.3649 C   0  0  0  0  0  0  0  0  0  0  0  0
  -29.0705  -18.4674   18.5241 C   0  0  0  0  0  0  0  0  0  0  0  0
  -29.4778  -20.4805   19.8844 C   0  0  0  0  0  0  0  0  0  0  0  0
  -31.7785  -17.4143   29.3419 C   0  0  0  0  0  0  0  0  0  0  0  0
  -26.9659  -15.2181   19.5987 C   0  0  1  0  0  0  0  0  0  0  0  0
  -31.6687  -16.6955   26.9906 C   0  0  1  0  0  0  0  0  0  0  0  0
  -23.9071  -15.1364   21.8505 C   0  0  1  0  0  0  0  0  0  0  0  0
  -30.1102  -21.2115   18.6888 C   0  0  2  0  0  0  0  0  0  0  0  0
  -17.5742  -18.6059   24.6542 C   0  0  0  0  0  0  0  0  0  0  0  0
  -26.4847  -18.7281   29.9809 C   0  0  0  0  0  0  0  0  0  0  0  0
  -27.1240  -16.3272   30.2541 C   0  0  0  0  0  0  0  0  0  0  0  0
  -23.0848  -19.6260   21.1238 C   0  0  0  0  0  0  0  0  0  0  0  0
  -21.1076  -20.5703   22.3351 C   0  0  0  0  0  0  0  0  0  0  0  0
  -20.7655  -19.0776   20.3659 C   0  0  0  0  0  0  0  0  0  0  0  0
  -19.0468  -15.2918   25.8052 C   0  0  0  0  0  0  0  0  0  0  0  0
  -29.5221  -16.8892   28.3300 C   0  0  0  0  0  0  0  0  0  0  0  0
  -26.4305  -17.1899   27.9944 C   0  0  0  0  0  0  0  0  0  1  0  0
  -21.5766  -18.0870   22.5460 C   0  0  1  0  0  0  0  0  0  0  0  0
  -18.4374  -17.3588   24.5423 C   0  0  2  0  0  0  0  0  0  0  0  0
  -27.1713  -17.5357   29.2990 C   0  0  0  0  0  0  0  0  0  0  0  0
  -21.6521  -19.3233   21.6062 C   0  0  0  0  0  0  0  0  0  0  0  0
  -28.7179  -23.2436   18.8045 N   0  0  0  0  0  0  0  0  0  0  0  0
  -29.9543  -22.7170   18.7951 N   0  0  0  0  0  0  0  0  0  0  0  0
  -23.2108  -16.2288   22.5332 N   0  0  0  0  0  0  0  0  0  0  0  0
  -29.6641  -19.0282   19.7399 N   0  0  0  0  0  0  0  0  0  0  0  0
  -32.2512  -23.2876   18.8917 N   0  0  0  0  0  0  0  0  0  0  0  0
  -30.1723  -27.2895   19.1346 N   0  0  0  0  0  0  0  0  0  0  0  0
  -30.8866  -18.8280   21.7468 N   0  0  0  0  0  0  0  0  0  0  0  0
  -25.8030  -14.8440   20.3746 N   0  0  0  0  0  0  0  0  0  0  0  0
  -20.2280  -17.7605   22.9967 N   0  0  0  0  0  0  0  0  0  0  0  0
  -30.9025  -17.4246   28.1007 N   0  3  1  0  0  0  0  0  0  0  0  0
  -18.2712  -16.5588   25.7886 N   0  3  0  0  0  0  0  0  0  0  0  0
  -32.2176  -26.2534   19.0906 O   0  0  0  0  0  0  0  0  0  0  0  0
  -25.3001  -16.9443   21.2454 O   0  0  0  0  0  0  0  0  0  0  0  0
  -29.0944  -19.0158   29.3427 O   0  0  0  0  0  0  0  0  0  0  0  0
  -21.5896  -16.4111   20.8675 O   0  0  0  0  0  0  0  0  0  0  0  0
  -20.6692  -17.9348   25.2665 O   0  0  0  0  0  0  0  0  0  0  0  0
  -30.4375  -16.9651   20.4393 O   0  0  0  0  0  0  0  0  0  0  0  0
  -24.6688  -28.1511   19.0697 O   0  0  0  0  0  0  0  0  0  0  0  0
  -26.7186  -15.8510   27.5935 O   0  0  0  0  0  0  0  0  0  1  0  0
  -24.8549  -32.1762   22.8338 F   0  0  0  0  0  0  0  0  0  0  0  0
  -22.7021  -28.3808   20.9990 F   0  0  0  0  0  0  0  0  0  0  0  0
  1  2  1  0  0  0  0
  1  5  2  0  0  0  0
  2  6  2  0  0  0  0
  3 12  2  0  0  0  0
  3 19  1  0  0  0  0
  4 13  1  0  0  0  0
  4 19  2  0  0  0  0
  5 22  1  0  0  0  0
  6 24  1  0  0  0  0
  7 10  2  0  0  0  0
  7 21  1  0  0  0  0
  8 11  1  0  0  0  0
  8 21  2  0  0  0  0
  9 14  2  0  0  0  0
  9 23  1  0  0  0  0
 10 26  1  0  0  0  0
 11 26  2  0  0  0  0
 12 27  1  0  0  0  0
 13 27  2  0  0  0  0
 14 28  1  0  0  0  0
 15 16  2  0  0  0  0
 15 29  1  0  0  0  0
 16 30  1  0  0  0  0
 17 25  1  0  0  0  0
 17 28  2  0  0  0  0
 18 30  2  0  0  0  0
 18 31  1  0  0  0  0
 19 32  1  0  0  0  0
 20 32  1  0  0  0  0
 20 33  2  0  0  0  0
 20 34  1  0  0  0  0
 21 53  1  0  0  0  0
 22 24  2  0  0  0  0
 22 40  1  0  0  0  0
 23 25  2  0  0  0  0
 23 41  1  0  0  0  0
 24 52  1  0  0  0  0
 25 42  1  0  0  0  0
 26 75  1  0  0  0  0
 27 86  1  0  0  0  0
 28 87  1  0  0  0  0
 29 31  2  0  0  0  0
 29 86  1  0  0  0  0
 30 88  1  0  0  0  0
 31 89  1  0  0  0  0
 32 69  2  0  0  0  0
 33 70  1  0  0  0  0
 33 73  1  0  0  0  0
 34 74  1  0  0  0  0
 34 80  2  0  0  0  0
 35 54  1  0  0  0  0
 35 76  1  0  0  0  0
 35 81  2  0  0  0  0
 36 63  1  0  0  0  0
 36 67  1  0  0  0  0
 36 82  2  0  0  0  0
 37 65  1  0  0  0  0
 37 71  1  0  0  0  0
 37 83  2  0  0  0  0
 38 66  1  0  0  0  0
 38 77  1  0  0  0  0
 38 84  2  0  0  0  0
 39 72  1  0  0  0  0
 39 75  1  0  0  0  0
 39 85  2  0  0  0  0
 40 43  1  0  0  0  0
 41 54  1  0  0  0  0
 42 71  1  0  0  0  0
 43 46  1  0  0  0  0
 44 48  1  0  0  0  0
 44 49  1  0  0  0  0
 45 47  1  0  0  0  0
 45 51  1  0  0  0  0
 46 52  1  0  0  0  0
 47 53  1  0  0  0  0
 48 55  1  0  0  0  0
 49 72  1  0  0  0  0
 50 55  1  0  0  0  0
 50 72  1  0  0  0  0
 51 78  1  0  0  0  0
 52 76  1  0  0  0  0
 53 78  1  0  0  0  0
 54 71  1  0  0  0  0
 55 70  1  0  0  0  0
 56 66  1  0  0  0  0
 57 67  1  0  0  0  0
 58 67  1  0  0  0  0
 59 68  1  0  0  0  0
 60 68  1  0  0  0  0
 61 68  1  0  0  0  0
 62 79  1  0  0  0  0
 63 78  1  0  0  0  0
 64 67  1  0  0  0  0
 64 87  1  0  0  0  0
 65 68  1  0  0  0  0
 65 77  1  0  0  0  0
 66 79  1  0  0  0  0
 69 70  1  0  0  0  0
M  CHG  2  78   1  79   1
M  ISO  4  39 100  64 101  75 100  87 101
M  END
> <Batch ID>
0144

> <Smiles>
CNC(C)C(=O)NC(C(=O)N1Cc2cc([101O:1][101CH2:1]C(C)(C)C(=O)CN3CCCC3c3ccc([100NH:0][100C:0](=O)N4CCCC(n5nc(-c6ccc(Oc7ccc(F)cc7F)cc6)c(C(N)=O)c5N)C4)cc3)ccc2CC1C(=O)NC1CCCc2ccccc21)C(C)(C)C

> <Shape>
0.206

> <Color>
0.074

> <Negative vol penalty>
0.000

$$$$

  -OEChem-04052303043D

 84 93  0     1  0  0  0  0  0999 V2000
  -26.3349  -31.3873   27.0859 C   0  0  0  0  0  0  0  0  0  0  0  0
  -26.6518  -30.0944   26.6817 C   0  0  0  0  0  0  0  0  0  0  0  0
  -23.0620   -9.8709   19.9698 C   0  0  0  0  0  0  0  0  0  0  0  0
  -23.9013   -9.8781   22.2354 C   0  0  0  0  0  0  0  0  0  0  0  0
  -26.2310  -32.4064   26.1401 C   0  0  0  0  0  0  0  0  0  0  0  0
  -26.8639  -29.8197   25.3311 C   0  0  0  0  0  0  0  0  0  0  0  0
  -30.9421  -26.9193   24.5559 C   0  0  0  0  0  0  0  0  0  0  0  0
  -22.3368   -8.7110   20.2421 C   0  0  0  0  0  0  0  0  0  0  0  0
  -23.1760   -8.7182   22.5077 C   0  0  0  0  0  0  0  0  0  0  0  0
  -30.8092  -25.5540   24.8053 C   0  0  0  0  0  0  0  0  0  0  0  0
  -19.9774   -7.8920   23.2199 C   0  0  0  0  0  0  0  0  0  0  0  0
  -19.2621   -7.8427   24.4163 C   0  0  0  0  0  0  0  0  0  0  0  0
  -30.5339  -25.1552   22.4422 C   0  0  0  0  0  0  0  0  0  0  0  0
  -31.6938  -17.7600   21.0895 C   0  0  0  0  0  0  0  0  0  0  0  0
  -20.5442   -5.9136   25.1033 C   0  0  0  0  0  0  0  0  0  0  0  0
  -23.8443  -10.4545   20.9664 C   0  0  0  0  0  0  0  0  0  0  0  0
  -24.1611  -12.9827   20.8421 C   0  0  0  0  0  0  0  0  0  0  0  0
  -26.4515  -32.1460   24.7784 C   0  0  0  0  0  0  0  0  0  0  0  0
  -30.8608  -27.4148   23.2466 C   0  0  0  0  0  0  0  0  0  0  0  0
  -26.7616  -30.8360   24.3661 C   0  0  0  0  0  0  0  0  0  0  0  0
  -30.6686  -26.5269   22.1786 C   0  0  0  0  0  0  0  0  0  0  0  0
  -31.7179  -19.1529   21.3988 C   0  0  0  0  0  0  0  0  0  0  0  0
  -22.3937   -8.1346   21.5110 C   0  0  0  0  0  0  0  0  0  0  0  0
  -30.6022  -24.6721   23.7487 C   0  0  0  0  0  0  0  0  0  0  0  0
  -20.9762   -6.9521   22.9651 C   0  0  0  0  0  0  0  0  0  0  0  0
  -19.5455   -6.8535   25.3580 C   0  0  0  0  0  0  0  0  0  0  0  0
  -21.2596   -5.9630   23.9069 C   0  0  0  0  0  0  0  0  0  0  0  0
  -24.5942  -11.6524   20.6856 C   0  0  0  0  0  0  0  0  0  0  0  0
  -30.4410  -19.6807   21.4875 C   0  0  0  0  0  0  0  0  0  0  0  0
  -25.2337  -13.7422   20.4432 C   0  0  0  0  0  0  0  0  0  0  0  0
  -30.4100  -17.2779   20.9651 C   0  0  0  0  0  0  0  0  0  0  0  0
  -22.9018  -13.4868   21.3065 C   0  0  0  0  0  0  0  0  0  0  0  0
  -28.9201  -29.4188   21.7231 C   0  0  0  0  0  0  0  0  0  0  0  0
  -31.0450  -29.0221   19.3045 C   0  0  0  0  0  0  0  0  0  0  0  0
  -33.4398  -27.0803   17.8413 C   0  0  0  0  0  0  0  0  0  0  0  0
  -30.6940  -14.8325   20.4306 C   0  0  0  0  0  0  0  0  0  0  0  0
  -26.2815  -33.2703   23.7876 C   0  0  0  0  0  0  0  0  0  0  0  0
  -31.0329  -28.8872   22.9916 C   0  0  0  0  0  0  0  0  0  0  0  0
  -32.9407  -19.9937   21.5964 C   0  0  0  0  0  0  0  0  0  0  0  0
  -30.5941  -27.0059   20.7526 C   0  0  0  0  0  0  0  0  0  0  0  0
  -26.8896  -32.9733   22.4192 C   0  0  0  0  0  0  0  0  0  0  0  0
  -29.5175  -12.4160   18.0953 C   0  0  0  0  0  0  0  0  0  0  0  0
  -26.4957  -31.5757   21.9520 C   0  0  0  0  0  0  0  0  0  0  0  0
  -28.0961  -12.1113   18.5739 C   0  0  0  0  0  0  0  0  0  0  0  0
  -30.4720  -12.6491   19.2651 C   0  0  0  0  0  0  0  0  0  0  0  0
  -28.6085  -13.3540   20.7141 C   0  0  0  0  0  0  0  0  0  0  0  0
  -32.6387  -21.2555   22.4035 C   0  0  0  0  0  0  0  0  0  0  0  0
  -27.0232  -30.5036   22.9131 C   0  0  1  0  0  0  0  0  0  0  0  0
  -30.4196  -29.3404   21.6703 C   0  0  1  0  0  0  0  0  0  0  0  0
  -27.5967  -13.1759   19.5704 C   0  0  2  0  0  0  0  0  0  0  0  0
  -30.1384  -21.1271   21.8183 C   0  0  1  0  0  0  0  0  0  0  0  0
  -29.2341  -21.7863   20.7666 C   0  0  0  0  0  0  0  0  0  0  0  0
  -34.9690  -27.0023   15.8531 C   0  0  0  0  0  0  0  0  0  0  0  0
  -28.2498  -22.8240   24.7362 C   0  0  0  0  0  0  0  0  0  0  0  0
  -28.6856  -28.2686   17.5224 C   0  0  0  0  0  0  0  0  0  0  0  0
  -30.3183  -27.3054   15.8870 C   0  0  0  0  0  0  0  0  0  0  0  0
  -30.3893  -29.7388   16.4313 C   0  0  0  0  0  0  0  0  0  0  0  0
  -35.8536  -27.0431   19.5533 C   0  0  0  0  0  0  0  0  0  0  0  0
  -29.5175  -21.2648   23.2165 C   0  0  0  0  0  0  0  0  0  0  0  0
  -31.1818  -28.0609   18.1485 C   0  0  1  0  0  0  0  0  0  0  0  0
  -34.8216  -27.4150   17.3094 C   0  0  2  0  0  0  0  0  0  0  0  0
  -29.2474  -22.7239   23.5901 C   0  0  2  0  0  0  0  0  0  1  0  0
  -30.1432  -28.3343   17.0243 C   0  0  0  0  0  0  0  0  0  0  0  0
  -25.8444  -11.5682   20.2233 N   0  0  0  0  0  0  0  0  0  0  0  0
  -26.2061  -12.8551   20.0857 N   0  0  0  0  0  0  0  0  0  0  0  0
  -30.7619  -28.4552   20.5552 N   0  0  0  0  0  0  0  0  0  0  0  0
  -29.9355  -13.6728   20.1645 N   0  0  0  0  0  0  0  0  0  0  0  0
  -25.4305  -15.0755   20.3668 N   0  0  0  0  0  0  0  0  0  0  0  0
  -21.9097  -12.5684   21.6761 N   0  0  0  0  0  0  0  0  0  0  0  0
  -29.9334  -15.9761   20.6717 N   0  0  0  0  0  0  0  0  0  0  0  0
  -28.4353  -30.2770   22.6916 N   0  0  0  0  0  0  0  0  0  0  0  0
  -32.5712  -28.1433   17.7113 N   0  0  0  0  0  0  0  0  0  0  0  0
  -31.4390  -21.9486   21.8175 N   0  3  0  0  0  0  0  0  0  0  0  0
  -35.8673  -26.7120   18.1052 N   0  3  0  0  0  0  0  0  0  0  0  0
  -22.6576  -14.7153   21.3757 O   0  0  0  0  0  0  0  0  0  0  0  0
  -28.2523  -28.7514   20.9419 O   0  0  0  0  0  0  0  0  0  0  0  0
  -31.1911  -30.2309   19.1064 O   0  0  0  0  0  0  0  0  0  0  0  0
  -33.1580  -25.9842   18.3205 O   0  0  0  0  0  0  0  0  0  0  0  0
  -31.9275  -14.8184   20.4169 O   0  0  0  0  0  0  0  0  0  0  0  0
  -21.6860   -7.0029   21.7772 O   0  0  0  0  0  0  0  0  0  0  0  0
  -30.4715  -23.3391   23.9895 O   0  0  0  0  0  0  0  0  0  1  0  0
  -18.8595   -6.8072   26.5076 F   0  0  0  0  0  0  0  0  0  0  0  0
  -22.2187   -5.0580   23.6683 F   0  0  0  0  0  0  0  0  0  0  0  0
  -29.2385  -18.4974   21.2201 S   0  0  0  0  0  0  0  0  0  0  0  0
  1  2  1  0  0  0  0
  1  5  2  0  0  0  0
  2  6  2  0  0  0  0
  3  8  2  0  0  0  0
  3 16  1  0  0  0  0
  4  9  1  0  0  0  0
  4 16  2  0  0  0  0
  5 18  1  0  0  0  0
  6 20  1  0  0  0  0
  7 10  2  0  0  0  0
  7 19  1  0  0  0  0
  8 23  1  0  0  0  0
  9 23  2  0  0  0  0
 10 24  1  0  0  0  0
 11 12  2  0  0  0  0
 11 25  1  0  0  0  0
 12 26  1  0  0  0  0
 13 21  1  0  0  0  0
 13 24  2  0  0  0  0
 14 22  1  0  0  0  0
 14 31  2  0  0  0  0
 15 26  2  0  0  0  0
 15 27  1  0  0  0  0
 16 28  1  0  0  0  0
 17 28  1  0  0  0  0
 17 30  2  0  0  0  0
 17 32  1  0  0  0  0
 18 20  2  0  0  0  0
 18 37  1  0  0  0  0
 19 21  2  0  0  0  0
 19 38  1  0  0  0  0
 20 48  1  0  0  0  0
 21 40  1  0  0  0  0
 22 29  2  0  0  0  0
 22 39  1  0  0  0  0
 23 80  1  0  0  0  0
 24 81  1  0  0  0  0
 25 27  2  0  0  0  0
 25 80  1  0  0  0  0
 26 82  1  0  0  0  0
 27 83  1  0  0  0  0
 28 64  2  0  0  0  0
 29 51  1  0  0  0  0
 29 84  1  0  0  0  0
 30 65  1  0  0  0  0
 30 68  1  0  0  0  0
 31 70  1  0  0  0  0
 31 84  1  0  0  0  0
 32 69  1  0  0  0  0
 32 75  2  0  0  0  0
 33 49  1  0  0  0  0
 33 71  1  0  0  0  0
 33 76  2  0  0  0  0
 34 60  1  0  0  0  0
 34 66  1  0  0  0  0
 34 77  2  0  0  0  0
 35 61  1  0  0  0  0
 35 72  1  0  0  0  0
 35 78  2  0  0  0  0
 36 67  1  0  0  0  0
 36 70  1  0  0  0  0
 36 79  2  0  0  0  0
 37 41  1  0  0  0  0
 38 49  1  0  0  0  0
 39 47  1  0  0  0  0
 40 66  1  0  0  0  0
 41 43  1  0  0  0  0
 42 44  1  0  0  0  0
 42 45  1  0  0  0  0
 43 48  1  0  0  0  0
 44 50  1  0  0  0  0
 45 67  1  0  0  0  0
 46 50  1  0  0  0  0
 46 67  1  0  0  0  0
 47 73  1  0  0  0  0
 48 71  1  0  0  0  0
 49 66  1  0  0  0  0
 50 65  1  0  0  0  0
 51 52  1  0  0  0  0
 51 59  1  0  0  0  0
 51 73  1  0  0  0  0
 53 61  1  0  0  0  0
 54 62  1  0  0  0  0
 55 63  1  0  0  0  0
 56 63  1  0  0  0  0
 57 63  1  0  0  0  0
 58 74  1  0  0  0  0
 59 62  1  0  0  0  0
 60 63  1  0  0  0  0
 60 72  1  0  0  0  0
 61 74  1  0  0  0  0
 62 81  1  0  0  0  0
 64 65  1  0  0  0  0
M  CHG  2  73   1  74   1
M  ISO  4  36 100  62 101  70 100  81 101
M  END
> <Batch ID>
0144

> <Smiles>
CNC(C)C(=O)NC(C(=O)N1Cc2cc([101O:1][101CH:1](C)CC3(C)NCCc4cc([100NH:0][100C:0](=O)N5CCCC(n6nc(-c7ccc(Oc8ccc(F)cc8F)cc7)c(C(N)=O)c6N)C5)sc43)ccc2CC1C(=O)NC1CCCc2ccccc21)C(C)(C)C

> <Shape>
0.287

> <Color>
0.183

> <Negative vol penalty>
0.000

$$$$

  -OEChem-04052303043D

 86 94  0     1  0  0  0  0  0999 V2000
  -16.2180  -25.6779   25.8345 C   0  0  0  0  0  0  0  0  0  0  0  0
  -16.8290  -24.8062   24.9389 C   0  0  0  0  0  0  0  0  0  0  0  0
  -32.0970  -19.0812   20.6572 C   0  0  0  0  0  0  0  0  0  0  0  0
  -23.2820  -10.0502   22.3612 C   0  0  0  0  0  0  0  0  0  0  0  0
  -23.7960  -11.5899   24.1507 C   0  0  0  0  0  0  0  0  0  0  0  0
  -31.1886  -20.1393   20.6299 C   0  0  0  0  0  0  0  0  0  0  0  0
  -16.4743  -27.0462   25.7586 C   0  0  0  0  0  0  0  0  0  0  0  0
  -17.6959  -25.3025   23.9660 C   0  0  0  0  0  0  0  0  0  0  0  0
  -22.7165  -22.5691   21.7686 C   0  0  0  0  0  0  0  0  0  0  0  0
  -31.6459  -17.7705   20.5019 C   0  0  0  0  0  0  0  0  0  0  0  0
  -22.5666   -9.2518   23.2535 C   0  0  0  0  0  0  0  0  0  0  0  0
  -23.0805  -10.7915   25.0431 C   0  0  0  0  0  0  0  0  0  0  0  0
  -22.9498  -21.8256   20.6125 C   0  0  0  0  0  0  0  0  0  0  0  0
  -19.8444  -10.2396   25.8455 C   0  0  0  0  0  0  0  0  0  0  0  0
  -18.9712  -10.8773   26.7266 C   0  0  0  0  0  0  0  0  0  0  0  0
  -29.3778  -18.5760   20.2922 C   0  0  0  0  0  0  0  0  0  0  0  0
  -23.7677  -23.8089   19.5093 C   0  0  0  0  0  0  0  0  0  0  0  0
  -20.2110   -9.9875   28.5996 C   0  0  0  0  0  0  0  0  0  0  0  0
  -23.8968  -11.2193   22.8098 C   0  0  0  0  0  0  0  0  0  0  0  0
  -29.8290  -19.8867   20.4474 C   0  0  0  0  0  0  0  0  0  0  0  0
  -24.1398  -13.1099   21.1145 C   0  0  0  0  0  0  0  0  0  0  0  0
  -17.3523  -27.5586   24.7905 C   0  0  0  0  0  0  0  0  0  0  0  0
  -22.9972  -23.9427   21.8002 C   0  0  0  0  0  0  0  0  0  0  0  0
  -17.9632  -26.6792   23.8762 C   0  0  0  0  0  0  0  0  0  0  0  0
  -23.5394  -24.5670   20.6678 C   0  0  0  0  0  0  0  0  0  0  0  0
  -30.2863  -17.5179   20.3194 C   0  0  0  0  0  0  0  0  0  0  0  0
  -22.4658   -9.6225   24.5945 C   0  0  0  0  0  0  0  0  0  0  0  0
  -23.4728  -22.4460   19.4817 C   0  0  0  0  0  0  0  0  0  0  0  0
  -20.9010   -9.4757   26.3415 C   0  0  0  0  0  0  0  0  0  0  0  0
  -19.1545  -10.7513   28.1036 C   0  0  0  0  0  0  0  0  0  0  0  0
  -21.0843   -9.3497   27.7185 C   0  0  0  0  0  0  0  0  0  0  0  0
  -24.6365  -12.0441   21.8886 C   0  0  0  0  0  0  0  0  0  0  0  0
  -25.2306  -13.5623   20.4131 C   0  0  0  0  0  0  0  0  0  0  0  0
  -28.8662  -21.0068   20.4178 C   0  0  0  0  0  0  0  0  0  0  0  0
  -22.8113  -13.6433   21.0364 C   0  0  0  0  0  0  0  0  0  0  0  0
  -21.2696  -26.5760   22.2301 C   0  0  0  0  0  0  0  0  0  0  0  0
  -24.1739  -28.0200   22.1853 C   0  0  0  0  0  0  0  0  0  0  0  0
  -27.1612  -22.2231   19.0830 C   0  0  0  0  0  0  0  0  0  0  0  0
  -27.4407  -27.9274   21.2021 C   0  0  0  0  0  0  0  0  0  0  0  0
  -30.5979  -15.0229   20.1642 C   0  0  0  0  0  0  0  0  0  0  0  0
  -17.5616  -29.0504   24.7171 C   0  0  0  0  0  0  0  0  0  0  0  0
  -22.7648  -24.7251   23.0636 C   0  0  0  0  0  0  0  0  0  0  0  0
  -23.8770  -26.0348   20.6568 C   0  0  0  0  0  0  0  0  0  0  0  0
  -18.7834  -29.4544   23.8960 C   0  0  0  0  0  0  0  0  0  0  0  0
  -29.8437  -11.5579   19.8443 C   0  0  0  0  0  0  0  0  0  0  0  0
  -18.8189  -28.6865   22.5785 C   0  0  0  0  0  0  0  0  0  0  0  0
  -28.3809  -11.4632   20.2839 C   0  0  0  0  0  0  0  0  0  0  0  0
  -30.6169  -12.5889   20.6646 C   0  0  0  0  0  0  0  0  0  0  0  0
  -28.5459  -13.8299   21.1549 C   0  0  0  0  0  0  0  0  0  0  0  0
  -18.9289  -27.1767   22.8226 C   0  0  1  0  0  0  0  0  0  0  0  0
  -22.6063  -26.2225   22.8184 C   0  0  1  0  0  0  0  0  0  0  0  0
  -27.7105  -12.8507   20.3140 C   0  0  2  0  0  0  0  0  0  0  0  0
  -29.5600  -29.2690   21.2797 C   0  0  0  0  0  0  0  0  0  0  0  0
  -23.8775  -19.3400   18.1237 C   0  0  0  0  0  0  0  0  0  0  0  0
  -23.0868  -29.8588   20.0065 C   0  0  0  0  0  0  0  0  0  0  0  0
  -25.4460  -30.5039   19.4710 C   0  0  0  0  0  0  0  0  0  0  0  0
  -24.5003  -31.0000   21.7254 C   0  0  0  0  0  0  0  0  0  0  0  0
  -28.8599  -25.8143   22.7119 C   0  0  0  0  0  0  0  0  0  0  0  0
  -26.5203  -22.1802   17.7199 C   0  0  0  0  0  0  0  0  0  0  0  0
  -25.7843  -20.8615   17.4876 C   0  0  0  0  0  0  0  0  0  0  0  0
  -25.0576  -28.6111   21.1135 C   0  0  1  0  0  0  0  0  0  0  0  0
  -28.7287  -28.1927   21.9604 C   0  0  2  0  0  0  0  0  0  0  0  0
  -24.6151  -20.6316   18.4526 C   0  0  1  0  0  0  0  0  0  1  0  0
  -24.5146  -29.9662   20.5784 C   0  0  0  0  0  0  0  0  0  0  0  0
  -25.9412  -11.8319   21.6971 N   0  0  0  0  0  0  0  0  0  0  0  0
  -26.2736  -12.7706   20.7946 N   0  0  0  0  0  0  0  0  0  0  0  0
  -23.6259  -26.7583   21.9142 N   0  0  0  0  0  0  0  0  0  0  0  0
  -29.9248  -13.8794   20.6441 N   0  0  0  0  0  0  0  0  0  0  0  0
  -25.3898  -14.5561   19.5134 N   0  0  0  0  0  0  0  0  0  0  0  0
  -21.8098  -13.0602   21.8247 N   0  0  0  0  0  0  0  0  0  0  0  0
  -29.8288  -16.1861   20.1618 N   0  0  0  0  0  0  0  0  0  0  0  0
  -28.1337  -21.1802   19.3092 N   0  0  0  0  0  0  0  0  0  0  0  0
  -20.2872  -26.8187   23.1710 N   0  0  0  0  0  0  0  0  0  0  0  0
  -26.3974  -28.6883   21.6857 N   0  0  0  0  0  0  0  0  0  0  0  0
  -28.7817  -21.7816   21.4987 N   0  3  0  0  0  0  0  0  0  0  0  0
  -29.5464  -26.9496   22.0434 N   0  3  0  0  0  0  0  0  0  0  0  0
  -22.5173  -14.5979   20.2775 O   0  0  0  0  0  0  0  0  0  0  0  0
  -21.1396  -26.6263   21.0126 O   0  0  0  0  0  0  0  0  0  0  0  0
  -23.9829  -28.6513   23.2277 O   0  0  0  0  0  0  0  0  0  0  0  0
  -26.9173  -23.0732   19.9285 O   0  0  0  0  0  0  0  0  0  0  0  0
  -27.3683  -27.1281   20.2713 O   0  0  0  0  0  0  0  0  0  0  0  0
  -31.7615  -14.9682   19.7579 O   0  0  0  0  0  0  0  0  0  0  0  0
  -21.7675   -8.8438   25.4654 O   0  0  0  0  0  0  0  0  0  0  0  0
  -23.7010  -21.7228   18.3518 O   0  0  0  0  0  0  0  0  0  1  0  0
  -18.3167  -11.3651   28.9496 F   0  0  0  0  0  0  0  0  0  0  0  0
  -22.0982   -8.6181   28.2008 F   0  0  0  0  0  0  0  0  0  0  0  0
  1  2  1  0  0  0  0
  1  7  2  0  0  0  0
  2  8  2  0  0  0  0
  3  6  2  0  0  0  0
  3 10  1  0  0  0  0
  4 11  2  0  0  0  0
  4 19  1  0  0  0  0
  5 12  1  0  0  0  0
  5 19  2  0  0  0  0
  6 20  1  0  0  0  0
  7 22  1  0  0  0  0
  8 24  1  0  0  0  0
  9 13  2  0  0  0  0
  9 23  1  0  0  0  0
 10 26  2  0  0  0  0
 11 27  1  0  0  0  0
 12 27  2  0  0  0  0
 13 28  1  0  0  0  0
 14 15  2  0  0  0  0
 14 29  1  0  0  0  0
 15 30  1  0  0  0  0
 16 20  2  0  0  0  0
 16 26  1  0  0  0  0
 17 25  1  0  0  0  0
 17 28  2  0  0  0  0
 18 30  2  0  0  0  0
 18 31  1  0  0  0  0
 19 32  1  0  0  0  0
 20 34  1  0  0  0  0
 21 32  1  0  0  0  0
 21 33  2  0  0  0  0
 21 35  1  0  0  0  0
 22 24  2  0  0  0  0
 22 41  1  0  0  0  0
 23 25  2  0  0  0  0
 23 42  1  0  0  0  0
 24 50  1  0  0  0  0
 25 43  1  0  0  0  0
 26 71  1  0  0  0  0
 27 83  1  0  0  0  0
 28 84  1  0  0  0  0
 29 31  2  0  0  0  0
 29 83  1  0  0  0  0
 30 85  1  0  0  0  0
 31 86  1  0  0  0  0
 32 65  2  0  0  0  0
 33 66  1  0  0  0  0
 33 69  1  0  0  0  0
 34 72  1  0  0  0  0
 34 75  2  0  0  0  0
 35 70  1  0  0  0  0
 35 77  2  0  0  0  0
 36 51  1  0  0  0  0
 36 73  1  0  0  0  0
 36 78  2  0  0  0  0
 37 61  1  0  0  0  0
 37 67  1  0  0  0  0
 37 79  2  0  0  0  0
 38 59  1  0  0  0  0
 38 72  1  0  0  0  0
 38 80  2  0  0  0  0
 39 62  1  0  0  0  0
 39 74  1  0  0  0  0
 39 81  2  0  0  0  0
 40 68  1  0  0  0  0
 40 71  1  0  0  0  0
 40 82  2  0  0  0  0
 41 44  1  0  0  0  0
 42 51  1  0  0  0  0
 43 67  1  0  0  0  0
 44 46  1  0  0  0  0
 45 47  1  0  0  0  0
 45 48  1  0  0  0  0
 46 50  1  0  0  0  0
 47 52  1  0  0  0  0
 48 68  1  0  0  0  0
 49 52  1  0  0  0  0
 49 68  1  0  0  0  0
 50 73  1  0  0  0  0
 51 67  1  0  0  0  0
 52 66  1  0  0  0  0
 53 62  1  0  0  0  0
 54 63  1  0  0  0  0
 55 64  1  0  0  0  0
 56 64  1  0  0  0  0
 57 64  1  0  0  0  0
 58 76  1  0  0  0  0
 59 60  1  0  0  0  0
 60 63  1  0  0  0  0
 61 64  1  0  0  0  0
 61 74  1  0  0  0  0
 62 76  1  0  0  0  0
 63 84  1  0  0  0  0
 65 66  1  0  0  0  0
M  CHG  2  75   1  76   1
M  ISO  4  40 100  63 101  71 100  84 101
M  END
> <Batch ID>
0144

> <Smiles>
CNC(C)C(=O)NC(C(=O)N1Cc2cc([101O:1][101CH:1](C)CCC(=O)NC(=N)c3cccc([100NH:0][100C:0](=O)N4CCCC(n5nc(-c6ccc(Oc7ccc(F)cc7F)cc6)c(C(N)=O)c5N)C4)c3)ccc2CC1C(=O)NC1CCCc2ccccc21)C(C)(C)C

> <Shape>
0.239

> <Color>
0.114

> <Negative vol penalty>
0.000

$$$$

  -OEChem-04052303043D

 89 98  0     1  0  0  0  0  0999 V2000
  -20.9062  -24.3557   26.6966 C   0  0  0  0  0  0  0  0  0  0  0  0
  -21.9467  -24.2901   25.7754 C   0  0  0  0  0  0  0  0  0  0  0  0
  -23.4047   -9.1689   20.2636 C   0  0  0  0  0  0  0  0  0  0  0  0
  -23.5422  -11.0960   21.7142 C   0  0  0  0  0  0  0  0  0  0  0  0
  -20.0060  -25.4195   26.6550 C   0  0  0  0  0  0  0  0  0  0  0  0
  -22.0869  -25.2878   24.8114 C   0  0  0  0  0  0  0  0  0  0  0  0
  -27.3246  -27.4813   22.5179 C   0  0  0  0  0  0  0  0  0  0  0  0
  -30.2008  -19.1024   19.8983 C   0  0  0  0  0  0  0  0  0  0  0  0
  -30.2252  -17.7280   20.1347 C   0  0  0  0  0  0  0  0  0  0  0  0
  -22.5206   -8.5610   21.1549 C   0  0  0  0  0  0  0  0  0  0  0  0
  -22.6580  -10.4881   22.6055 C   0  0  0  0  0  0  0  0  0  0  0  0
  -28.0211  -27.2071   21.3417 C   0  0  0  0  0  0  0  0  0  0  0  0
  -22.6963   -6.8974   24.0919 C   0  0  0  0  0  0  0  0  0  0  0  0
  -22.9108   -5.5545   24.4018 C   0  0  0  0  0  0  0  0  0  0  0  0
  -26.9750  -29.1074   20.2864 C   0  0  0  0  0  0  0  0  0  0  0  0
  -27.9908  -17.8451   21.0462 C   0  0  0  0  0  0  0  0  0  0  0  0
  -20.7237   -5.0051   23.5346 C   0  0  0  0  0  0  0  0  0  0  0  0
  -23.9156  -10.4364   20.5433 C   0  0  0  0  0  0  0  0  0  0  0  0
  -24.5874  -11.3930   18.2759 C   0  0  0  0  0  0  0  0  0  0  0  0
  -20.1409  -26.4358   25.6961 C   0  0  0  0  0  0  0  0  0  0  0  0
  -26.4383  -28.5660   22.5839 C   0  0  0  0  0  0  0  0  0  0  0  0
  -21.1868  -26.3655   24.7561 C   0  0  0  0  0  0  0  0  0  0  0  0
  -26.2704  -29.3948   21.4654 C   0  0  0  0  0  0  0  0  0  0  0  0
  -27.9664  -19.2195   20.8098 C   0  0  0  0  0  0  0  0  0  0  0  0
  -29.0714  -19.8482   20.2359 C   0  0  0  0  0  0  0  0  0  0  0  0
  -29.1202  -17.0993   20.7086 C   0  0  0  0  0  0  0  0  0  0  0  0
  -22.1472   -9.2206   22.3258 C   0  0  0  0  0  0  0  0  0  0  0  0
  -27.8442  -28.0185   20.2248 C   0  0  0  0  0  0  0  0  0  0  0  0
  -21.4954   -7.2943   23.5034 C   0  0  0  0  0  0  0  0  0  0  0  0
  -21.9245   -4.6083   24.1232 C   0  0  0  0  0  0  0  0  0  0  0  0
  -20.5092   -6.3481   23.2248 C   0  0  0  0  0  0  0  0  0  0  0  0
  -24.8293  -11.0646   19.6233 C   0  0  0  0  0  0  0  0  0  0  0  0
  -25.7596  -11.9656   17.8462 C   0  0  0  0  0  0  0  0  0  0  0  0
  -23.4085  -11.1979   17.4835 C   0  0  0  0  0  0  0  0  0  0  0  0
  -28.5255  -25.4068   19.3954 C   0  0  0  0  0  0  0  0  0  0  0  0
  -23.3166  -28.8843   23.0910 C   0  0  0  0  0  0  0  0  0  0  0  0
  -24.0310  -32.0484   23.0690 C   0  0  0  0  0  0  0  0  0  0  0  0
  -25.3595  -35.1635   22.6470 C   0  0  0  0  0  0  0  0  0  0  0  0
  -30.1857  -14.8168   20.6720 C   0  0  0  0  0  0  0  0  0  0  0  0
  -19.1153  -27.5411   25.6606 C   0  0  0  0  0  0  0  0  0  0  0  0
  -25.7148  -28.8642   23.8684 C   0  0  0  0  0  0  0  0  0  0  0  0
  -25.3460  -30.5836   21.4909 C   0  0  0  0  0  0  0  0  0  0  0  0
  -19.5548  -28.7538   24.8441 C   0  0  0  0  0  0  0  0  0  0  0  0
  -30.4788  -11.8958   18.6573 C   0  0  0  0  0  0  0  0  0  0  0  0
  -20.1413  -28.3128   23.5068 C   0  0  0  0  0  0  0  0  0  0  0  0
  -29.0405  -11.3845   18.5487 C   0  0  0  0  0  0  0  0  0  0  0  0
  -28.6400  -23.1189   18.4735 C   0  0  0  0  0  0  0  0  0  0  0  0
  -28.9553  -23.5043   20.9255 C   0  0  0  0  0  0  0  0  0  0  0  0
  -30.7683  -12.4863   20.0362 C   0  0  0  0  0  0  0  0  0  0  0  0
  -29.2320  -21.7177   18.6196 C   0  0  0  0  0  0  0  0  0  0  0  0
  -29.5536  -22.1059   21.0642 C   0  0  0  0  0  0  0  0  0  0  0  0
  -28.3837  -13.0061   20.3725 C   0  0  0  0  0  0  0  0  0  0  0  0
  -21.3866  -27.4416   23.7110 C   0  0  1  0  0  0  0  0  0  0  0  0
  -29.1935  -24.0734   19.5288 C   0  0  0  0  0  0  0  0  0  0  0  0
  -24.4485  -29.6899   23.6631 C   0  0  1  0  0  0  0  0  0  0  0  0
  -28.0255  -12.4612   18.9802 C   0  0  2  0  0  0  0  0  0  0  0  0
  -26.7446  -19.9947   21.1823 C   0  0  0  0  0  0  0  0  0  0  0  0
  -24.7209  -37.5901   22.6191 C   0  0  0  0  0  0  0  0  0  0  0  0
  -30.4431  -26.8450   20.1741 C   0  0  0  0  0  0  0  0  0  0  0  0
  -30.0364  -26.5099   17.7031 C   0  0  0  0  0  0  0  0  0  0  0  0
  -22.8016  -31.6904   20.2995 C   0  0  0  0  0  0  0  0  0  0  0  0
  -23.0622  -34.1547   19.9418 C   0  0  0  0  0  0  0  0  0  0  0  0
  -21.5958  -33.3104   21.7746 C   0  0  0  0  0  0  0  0  0  0  0  0
  -27.1527  -35.7811   24.9190 C   0  0  0  0  0  0  0  0  0  0  0  0
  -24.1060  -33.1201   22.0085 C   0  0  1  0  0  0  0  0  0  0  0  0
  -25.2281  -36.4341   23.4671 C   0  0  2  0  0  0  0  0  0  0  0  0
  -29.3988  -26.6266   19.0838 C   0  0  0  0  0  0  0  0  0  1  0  0
  -22.9139  -33.0527   21.0125 C   0  0  0  0  0  0  0  0  0  0  0  0
  -26.0587  -11.4005   20.0231 N   0  0  0  0  0  0  0  0  0  0  0  0
  -26.5997  -11.9458   18.9205 N   0  0  0  0  0  0  0  0  0  0  0  0
  -29.0646  -21.2270   19.9922 N   0  0  0  0  0  0  0  0  0  0  0  0
  -24.6562  -30.8301   22.7680 N   0  0  0  0  0  0  0  0  0  0  0  0
  -29.7691  -13.5017   20.3758 N   0  0  0  0  0  0  0  0  0  0  0  0
  -26.1433  -12.4790   16.6581 N   0  0  0  0  0  0  0  0  0  0  0  0
  -22.4443  -12.2148   17.4588 N   0  0  0  0  0  0  0  0  0  0  0  0
  -29.1450  -15.7029   20.9481 N   0  0  0  0  0  0  0  0  0  0  0  0
  -22.5300  -28.2642   24.0430 N   0  0  0  0  0  0  0  0  0  0  0  0
  -24.2206  -34.3895   22.7183 N   0  0  0  0  0  0  0  0  0  0  0  0
  -26.5479  -36.8176   24.0433 N   0  3  0  0  0  0  0  0  0  0  0  0
  -23.2082  -10.1459   16.8302 O   0  0  0  0  0  0  0  0  0  0  0  0
  -27.3040  -25.5007   19.5352 O   0  0  0  0  0  0  0  0  0  0  0  0
  -23.1670  -28.8305   21.8759 O   0  0  0  0  0  0  0  0  0  0  0  0
  -23.4455  -32.2859   24.1285 O   0  0  0  0  0  0  0  0  0  0  0  0
  -26.3699  -34.8870   22.0043 O   0  0  0  0  0  0  0  0  0  0  0  0
  -31.3761  -15.1401   20.6536 O   0  0  0  0  0  0  0  0  0  0  0  0
  -21.2843   -8.6278   23.1957 O   0  0  0  0  0  0  0  0  0  0  0  0
  -28.5223  -27.7527   19.0753 O   0  0  0  0  0  0  0  0  0  1  0  0
  -22.1312   -3.3185   24.4194 F   0  0  0  0  0  0  0  0  0  0  0  0
  -19.3540   -6.7231   22.6584 F   0  0  0  0  0  0  0  0  0  0  0  0
  1  2  1  0  0  0  0
  1  5  2  0  0  0  0
  2  6  2  0  0  0  0
  3 10  2  0  0  0  0
  3 18  1  0  0  0  0
  4 11  1  0  0  0  0
  4 18  2  0  0  0  0
  5 20  1  0  0  0  0
  6 22  1  0  0  0  0
  7 12  2  0  0  0  0
  7 21  1  0  0  0  0
  8  9  2  0  0  0  0
  8 25  1  0  0  0  0
  9 26  1  0  0  0  0
 10 27  1  0  0  0  0
 11 27  2  0  0  0  0
 12 28  1  0  0  0  0
 13 14  2  0  0  0  0
 13 29  1  0  0  0  0
 14 30  1  0  0  0  0
 15 23  1  0  0  0  0
 15 28  2  0  0  0  0
 16 24  1  0  0  0  0
 16 26  2  0  0  0  0
 17 30  2  0  0  0  0
 17 31  1  0  0  0  0
 18 32  1  0  0  0  0
 19 32  1  0  0  0  0
 19 33  2  0  0  0  0
 19 34  1  0  0  0  0
 20 22  2  0  0  0  0
 20 40  1  0  0  0  0
 21 23  2  0  0  0  0
 21 41  1  0  0  0  0
 22 53  1  0  0  0  0
 23 42  1  0  0  0  0
 24 25  2  0  0  0  0
 24 57  1  0  0  0  0
 25 71  1  0  0  0  0
 26 76  1  0  0  0  0
 27 86  1  0  0  0  0
 28 87  1  0  0  0  0
 29 31  2  0  0  0  0
 29 86  1  0  0  0  0
 30 88  1  0  0  0  0
 31 89  1  0  0  0  0
 32 69  2  0  0  0  0
 33 70  1  0  0  0  0
 33 74  1  0  0  0  0
 34 75  1  0  0  0  0
 34 80  2  0  0  0  0
 35 54  1  0  0  0  0
 35 67  1  0  0  0  0
 35 81  2  0  0  0  0
 36 55  1  0  0  0  0
 36 77  1  0  0  0  0
 36 82  2  0  0  0  0
 37 65  1  0  0  0  0
 37 72  1  0  0  0  0
 37 83  2  0  0  0  0
 38 66  1  0  0  0  0
 38 78  1  0  0  0  0
 38 84  2  0  0  0  0
 39 73  1  0  0  0  0
 39 76  1  0  0  0  0
 39 85  2  0  0  0  0
 40 43  1  0  0  0  0
 41 55  1  0  0  0  0
 42 72  1  0  0  0  0
 43 45  1  0  0  0  0
 44 46  1  0  0  0  0
 44 49  1  0  0  0  0
 45 53  1  0  0  0  0
 46 56  1  0  0  0  0
 47 50  1  0  0  0  0
 47 54  1  0  0  0  0
 48 51  1  0  0  0  0
 48 54  1  0  0  0  0
 49 73  1  0  0  0  0
 50 71  1  0  0  0  0
 51 71  1  0  0  0  0
 52 56  1  0  0  0  0
 52 73  1  0  0  0  0
 53 77  1  0  0  0  0
 55 72  1  0  0  0  0
 56 70  1  0  0  0  0
 58 66  1  0  0  0  0
 59 67  1  0  0  0  0
 60 67  1  0  0  0  0
 61 68  1  0  0  0  0
 62 68  1  0  0  0  0
 63 68  1  0  0  0  0
 64 79  1  0  0  0  0
 65 68  1  0  0  0  0
 65 78  1  0  0  0  0
 66 79  1  0  0  0  0
 67 87  1  0  0  0  0
 69 70  1  0  0  0  0
M  CHG  1  79   1
M  ISO  4  39 100  67 101  76 100  87 101
M  END
> <Batch ID>
0144

> <Smiles>
CNC(C)C(=O)NC(C(=O)N1Cc2cc([101O:1][101C:1](C)(C)C(=O)C3CCN(c4ccc([100NH:0][100C:0](=O)N5CCCC(n6nc(-c7ccc(Oc8ccc(F)cc8F)cc7)c(C(N)=O)c6N)C5)cc4C)CC3)ccc2CC1C(=O)NC1CCCc2ccccc21)C(C)(C)C

> <Shape>
0.348

> <Color>
0.133

> <Negative vol penalty>
0.000

$$$$

  -OEChem-04052303043D

 93102  0     1  0  0  0  0  0999 V2000
  -29.4890  -36.6748   23.9026 C   0  0  0  0  0  0  0  0  0  0  0  0
  -29.4631  -35.3208   23.5840 C   0  0  0  0  0  0  0  0  0  0  0  0
  -24.5574   -8.3177   20.5262 C   0  0  0  0  0  0  0  0  0  0  0  0
  -23.0303  -10.1865   20.4137 C   0  0  0  0  0  0  0  0  0  0  0  0
  -28.4447  -37.2374   24.6353 C   0  0  0  0  0  0  0  0  0  0  0  0
  -28.3933  -34.5284   23.9989 C   0  0  0  0  0  0  0  0  0  0  0  0
  -28.1881  -19.1596   16.9126 C   0  0  0  0  0  0  0  0  0  0  0  0
  -25.9220  -29.8067   20.9817 C   0  0  0  0  0  0  0  0  0  0  0  0
  -28.5929  -20.2755   17.6450 C   0  0  0  0  0  0  0  0  0  0  0  0
  -23.5227   -7.4995   20.9796 C   0  0  0  0  0  0  0  0  0  0  0  0
  -21.9956   -9.3683   20.8671 C   0  0  0  0  0  0  0  0  0  0  0  0
  -26.0924  -28.4277   21.0963 C   0  0  0  0  0  0  0  0  0  0  0  0
  -21.8954   -6.9219   23.8852 C   0  0  0  0  0  0  0  0  0  0  0  0
  -22.1629   -6.0768   24.9622 C   0  0  0  0  0  0  0  0  0  0  0  0
  -24.1415  -28.3102   22.5104 C   0  0  0  0  0  0  0  0  0  0  0  0
  -29.1212  -18.8508   19.5234 C   0  0  0  0  0  0  0  0  0  0  0  0
  -21.6326   -4.1603   23.5900 C   0  0  0  0  0  0  0  0  0  0  0  0
  -24.3112   -9.6612   20.2433 C   0  0  0  0  0  0  0  0  0  0  0  0
  -25.7591  -10.7369   18.4394 C   0  0  0  0  0  0  0  0  0  0  0  0
  -27.3569  -36.4536   25.0511 C   0  0  0  0  0  0  0  0  0  0  0  0
  -24.8647  -30.4504   21.6405 C   0  0  0  0  0  0  0  0  0  0  0  0
  -27.3342  -35.0809   24.7389 C   0  0  0  0  0  0  0  0  0  0  0  0
  -28.2497  -17.8893   17.4855 C   0  0  0  0  0  0  0  0  0  0  0  0
  -23.9584  -29.6971   22.4004 C   0  0  0  0  0  0  0  0  0  0  0  0
  -29.0595  -20.1211   18.9505 C   0  0  0  0  0  0  0  0  0  0  0  0
  -28.7163  -17.7350   18.7909 C   0  0  0  0  0  0  0  0  0  0  0  0
  -22.2418   -8.0247   21.1500 C   0  0  0  0  0  0  0  0  0  0  0  0
  -25.2038  -27.6796   21.8631 C   0  0  0  0  0  0  0  0  0  0  0  0
  -21.4964   -6.3863   22.6606 C   0  0  0  0  0  0  0  0  0  0  0  0
  -22.0315   -4.6960   24.8145 C   0  0  0  0  0  0  0  0  0  0  0  0
  -21.3650   -5.0055   22.5130 C   0  0  0  0  0  0  0  0  0  0  0  0
  -25.3797  -10.5070   19.7755 C   0  0  0  0  0  0  0  0  0  0  0  0
  -26.8173  -11.6080   18.5280 C   0  0  0  0  0  0  0  0  0  0  0  0
  -25.2045  -10.2102   17.2267 C   0  0  0  0  0  0  0  0  0  0  0  0
  -24.6526  -32.6839   23.8922 C   0  0  0  0  0  0  0  0  0  0  0  0
  -28.6073  -21.8891   20.4169 C   0  0  0  0  0  0  0  0  0  0  0  0
  -21.4811  -32.4874   23.2403 C   0  0  0  0  0  0  0  0  0  0  0  0
  -18.8817  -30.6384   22.0272 C   0  0  0  0  0  0  0  0  0  0  0  0
  -29.2245  -16.1452   20.6780 C   0  0  0  0  0  0  0  0  0  0  0  0
  -26.2744  -37.0963   25.8816 C   0  0  0  0  0  0  0  0  0  0  0  0
  -24.6790  -31.9349   21.4851 C   0  0  0  0  0  0  0  0  0  0  0  0
  -22.7951  -30.3375   23.1110 C   0  0  0  0  0  0  0  0  0  0  0  0
  -24.9949  -36.2676   25.9614 C   0  0  0  0  0  0  0  0  0  0  0  0
  -29.5104  -13.1224   22.5375 C   0  0  0  0  0  0  0  0  0  0  0  0
  -26.0323  -15.6144   15.5023 C   0  0  0  0  0  0  0  0  0  0  0  0
  -25.3219  -34.8085   26.2629 C   0  0  0  0  0  0  0  0  0  0  0  0
  -26.3070  -16.4140   16.7629 C   0  0  0  0  0  0  0  0  0  0  0  0
  -28.4925  -12.1914   21.8748 C   0  0  0  0  0  0  0  0  0  0  0  0
  -29.0123  -14.5658   22.5846 C   0  0  0  0  0  0  0  0  0  0  0  0
  -27.5606  -14.1844   20.6311 C   0  0  0  0  0  0  0  0  0  0  0  0
  -26.8357  -16.3470   14.4482 C   0  0  0  0  0  0  0  0  0  0  0  0
  -26.1789  -34.1938   25.1497 C   0  0  1  0  0  0  0  0  0  0  0  0
  -27.8048  -16.7028   16.6715 C   0  0  1  0  0  0  0  0  0  0  0  0
  -23.8677  -32.5574   22.6172 C   0  0  1  0  0  0  0  0  0  0  0  0
  -28.0454  -12.7311   20.5020 C   0  0  2  0  0  0  0  0  0  0  0  0
  -28.9361  -23.1091   21.2489 C   0  0  0  0  0  0  0  0  0  0  0  0
  -16.4011  -30.7311   21.6594 C   0  0  0  0  0  0  0  0  0  0  0  0
  -21.0242  -32.0277   26.2219 C   0  0  0  0  0  0  0  0  0  0  0  0
  -18.7273  -31.1977   25.6710 C   0  0  0  0  0  0  0  0  0  0  0  0
  -19.3638  -33.5493   25.1345 C   0  0  0  0  0  0  0  0  0  0  0  0
  -25.1463  -20.5536   21.6363 C   0  0  0  0  0  0  0  0  0  0  0  0
  -27.3951  -19.8858   22.4635 C   0  0  0  0  0  0  0  0  0  0  0  0
  -19.1868  -30.3190   19.1008 C   0  0  0  0  0  0  0  0  0  0  0  0
  -27.1694  -21.3845   20.4249 C   0  0  0  0  0  0  0  0  0  0  0  0
  -25.7575  -23.4474   22.4313 C   0  0  0  0  0  0  0  0  0  0  0  0
  -25.8038  -24.5237   23.5228 C   0  0  0  0  0  0  0  0  0  0  0  0
  -26.6315  -22.2451   22.8116 C   0  0  0  0  0  0  0  0  0  0  0  0
  -24.9266  -25.7235   23.1869 C   0  0  0  0  0  0  0  0  0  1  0  0
  -20.3317  -31.6594   23.7621 C   0  0  1  0  0  0  0  0  0  0  0  0
  -17.7718  -30.9808   21.0498 C   0  0  2  0  0  0  0  0  0  0  0  0
  -19.8847  -32.0964   25.1857 C   0  0  0  0  0  0  0  0  0  0  0  0
  -26.5980  -21.0432   21.8259 C   0  0  0  0  0  0  0  0  0  0  0  0
  -26.1356  -11.1779   20.6488 N   0  0  0  0  0  0  0  0  0  0  0  0
  -29.4674  -21.2436   19.6863 N   0  0  0  0  0  0  0  0  0  0  0  0
  -27.0006  -11.8377   19.8599 N   0  0  0  0  0  0  0  0  0  0  0  0
  -22.6597  -31.7927   22.9336 N   0  0  0  0  0  0  0  0  0  0  0  0
  -28.6104  -15.0102   21.2483 N   0  0  0  0  0  0  0  0  0  0  0  0
  -27.5998  -12.1922   17.5958 N   0  0  0  0  0  0  0  0  0  0  0  0
  -24.1193   -9.3278   17.3164 N   0  0  0  0  0  0  0  0  0  0  0  0
  -28.7849  -16.4531   19.3909 N   0  0  0  0  0  0  0  0  0  0  0  0
  -25.3590  -33.8664   24.0031 N   0  0  0  0  0  0  0  0  0  0  0  0
  -19.2798  -31.7402   22.7544 N   0  0  0  0  0  0  0  0  0  0  0  0
  -28.0577  -16.8217   15.1802 N   0  3  0  0  0  0  0  0  0  0  0  0
  -17.8951  -30.1543   19.8159 N   0  3  0  0  0  0  0  0  0  0  0  0
  -25.6684  -10.5002   16.0979 O   0  0  0  0  0  0  0  0  0  0  0  0
  -24.6186  -31.7766   24.7152 O   0  0  0  0  0  0  0  0  0  0  0  0
  -21.3361  -33.7047   23.1030 O   0  0  0  0  0  0  0  0  0  0  0  0
  -19.3464  -29.5059   22.1375 O   0  0  0  0  0  0  0  0  0  0  0  0
  -30.0971  -16.7802   21.2758 O   0  0  0  0  0  0  0  0  0  0  0  0
  -21.2319   -7.2266   21.5922 O   0  0  0  0  0  0  0  0  0  0  0  0
  -25.3694  -26.3235   21.9780 O   0  0  0  0  0  0  0  0  0  1  0  0
  -22.2900   -3.8845   25.8484 F   0  0  0  0  0  0  0  0  0  0  0  0
  -20.9832   -4.4849   21.3387 F   0  0  0  0  0  0  0  0  0  0  0  0
  1  2  1  0  0  0  0
  1  5  2  0  0  0  0
  2  6  2  0  0  0  0
  3 10  2  0  0  0  0
  3 18  1  0  0  0  0
  4 11  1  0  0  0  0
  4 18  2  0  0  0  0
  5 20  1  0  0  0  0
  6 22  1  0  0  0  0
  7  9  2  0  0  0  0
  7 23  1  0  0  0  0
  8 12  2  0  0  0  0
  8 21  1  0  0  0  0
  9 25  1  0  0  0  0
 10 27  1  0  0  0  0
 11 27  2  0  0  0  0
 12 28  1  0  0  0  0
 13 14  2  0  0  0  0
 13 29  1  0  0  0  0
 14 30  1  0  0  0  0
 15 24  1  0  0  0  0
 15 28  2  0  0  0  0
 16 25  2  0  0  0  0
 16 26  1  0  0  0  0
 17 30  2  0  0  0  0
 17 31  1  0  0  0  0
 18 32  1  0  0  0  0
 19 32  1  0  0  0  0
 19 33  2  0  0  0  0
 19 34  1  0  0  0  0
 20 22  2  0  0  0  0
 20 40  1  0  0  0  0
 21 24  2  0  0  0  0
 21 41  1  0  0  0  0
 22 52  1  0  0  0  0
 23 26  2  0  0  0  0
 23 53  1  0  0  0  0
 24 42  1  0  0  0  0
 25 74  1  0  0  0  0
 26 80  1  0  0  0  0
 27 90  1  0  0  0  0
 28 91  1  0  0  0  0
 29 31  2  0  0  0  0
 29 90  1  0  0  0  0
 30 92  1  0  0  0  0
 31 93  1  0  0  0  0
 32 73  2  0  0  0  0
 33 75  1  0  0  0  0
 33 78  1  0  0  0  0
 34 79  1  0  0  0  0
 34 85  2  0  0  0  0
 35 54  1  0  0  0  0
 35 81  1  0  0  0  0
 35 86  2  0  0  0  0
 36 56  1  0  0  0  0
 36 64  1  0  0  0  0
 36 74  2  0  0  0  0
 37 69  1  0  0  0  0
 37 76  1  0  0  0  0
 37 87  2  0  0  0  0
 38 70  1  0  0  0  0
 38 82  1  0  0  0  0
 38 88  2  0  0  0  0
 39 77  1  0  0  0  0
 39 80  1  0  0  0  0
 39 89  2  0  0  0  0
 40 43  1  0  0  0  0
 41 54  1  0  0  0  0
 42 76  1  0  0  0  0
 43 46  1  0  0  0  0
 44 48  1  0  0  0  0
 44 49  1  0  0  0  0
 45 47  1  0  0  0  0
 45 51  1  0  0  0  0
 46 52  1  0  0  0  0
 47 53  1  0  0  0  0
 48 55  1  0  0  0  0
 49 77  1  0  0  0  0
 50 55  1  0  0  0  0
 50 77  1  0  0  0  0
 51 83  1  0  0  0  0
 52 81  1  0  0  0  0
 53 83  1  0  0  0  0
 54 76  1  0  0  0  0
 55 75  1  0  0  0  0
 57 70  1  0  0  0  0
 58 71  1  0  0  0  0
 59 71  1  0  0  0  0
 60 71  1  0  0  0  0
 61 72  1  0  0  0  0
 62 72  1  0  0  0  0
 63 84  1  0  0  0  0
 64 72  1  0  0  0  0
 65 66  1  0  0  0  0
 65 67  1  0  0  0  0
 66 68  1  0  0  0  0
 67 72  1  0  0  0  0
 68 91  1  0  0  0  0
 69 71  1  0  0  0  0
 69 82  1  0  0  0  0
 70 84  1  0  0  0  0
 73 75  1  0  0  0  0
M  CHG  2  83   1  84   1
M  ISO  4  39 100  68 101  80 100  91 101
M  END
> <Batch ID>
0144

> <Smiles>
CNC(C)C(=O)NC(C(=O)N1Cc2cc([101O:1][101CH2:1]CCCC(C)(C)C=C(C)Nc3ccc(C4CCCN4)c([100NH:0][100C:0](=O)N4CCCC(n5nc(-c6ccc(Oc7ccc(F)cc7F)cc6)c(C(N)=O)c5N)C4)c3)ccc2CC1C(=O)NC1CCCc2ccccc21)C(C)(C)C

> <Shape>
0.273

> <Color>
0.087

> <Negative vol penalty>
0.000

$$$$

  -OEChem-04052303043D

 89 97  0     1  0  0  0  0  0999 V2000
  -34.2185  -23.4673   27.3982 C   0  0  0  0  0  0  0  0  0  0  0  0
  -34.2780  -23.3391   26.0142 C   0  0  0  0  0  0  0  0  0  0  0  0
  -23.0016   -9.8933   19.9813 C   0  0  0  0  0  0  0  0  0  0  0  0
  -23.7272   -9.9444   22.2851 C   0  0  0  0  0  0  0  0  0  0  0  0
  -32.9846  -23.4438   28.0470 C   0  0  0  0  0  0  0  0  0  0  0  0
  -33.1035  -23.1861   25.2782 C   0  0  0  0  0  0  0  0  0  0  0  0
  -33.0143  -26.0966   21.1350 C   0  0  0  0  0  0  0  0  0  0  0  0
  -22.2356   -8.7585   20.2476 C   0  0  0  0  0  0  0  0  0  0  0  0
  -22.9612   -8.8095   22.5515 C   0  0  0  0  0  0  0  0  0  0  0  0
  -33.7518  -25.6610   20.0350 C   0  0  0  0  0  0  0  0  0  0  0  0
  -23.2069   -5.4707   22.0792 C   0  0  0  0  0  0  0  0  0  0  0  0
  -23.7950   -4.4537   22.8311 C   0  0  0  0  0  0  0  0  0  0  0  0
  -31.7333  -24.8064   19.0277 C   0  0  0  0  0  0  0  0  0  0  0  0
  -30.6513  -19.8100   21.4114 C   0  0  0  0  0  0  0  0  0  0  0  0
  -29.5365  -17.8660   22.3141 C   0  0  0  0  0  0  0  0  0  0  0  0
  -31.1922  -17.6094   20.5735 C   0  0  0  0  0  0  0  0  0  0  0  0
  -22.0713   -4.6957   24.5067 C   0  0  0  0  0  0  0  0  0  0  0  0
  -23.7475  -10.4863   21.0000 C   0  0  0  0  0  0  0  0  0  0  0  0
  -24.1317  -13.0020   20.8242 C   0  0  0  0  0  0  0  0  0  0  0  0
  -31.7938  -23.3002   27.3177 C   0  0  0  0  0  0  0  0  0  0  0  0
  -31.6300  -25.8802   21.1948 C   0  0  0  0  0  0  0  0  0  0  0  0
  -31.8526  -23.1593   25.9180 C   0  0  0  0  0  0  0  0  0  0  0  0
  -30.9801  -25.2424   20.1285 C   0  0  0  0  0  0  0  0  0  0  0  0
  -29.7278  -19.2475   22.2924 C   0  0  0  0  0  0  0  0  0  0  0  0
  -31.3835  -18.9909   20.5518 C   0  0  0  0  0  0  0  0  0  0  0  0
  -30.2687  -17.0469   21.4546 C   0  0  0  0  0  0  0  0  0  0  0  0
  -22.2154   -8.2166   21.5327 C   0  0  0  0  0  0  0  0  0  0  0  0
  -33.1118  -25.0133   18.9824 C   0  0  0  0  0  0  0  0  0  0  0  0
  -22.0510   -6.1003   22.5411 C   0  0  0  0  0  0  0  0  0  0  0  0
  -23.2272   -4.0662   24.0448 C   0  0  0  0  0  0  0  0  0  0  0  0
  -21.4832   -5.7128   23.7548 C   0  0  0  0  0  0  0  0  0  0  0  0
  -24.5394  -11.6582   20.7253 C   0  0  0  0  0  0  0  0  0  0  0  0
  -25.2411  -13.7251   20.4597 C   0  0  0  0  0  0  0  0  0  0  0  0
  -22.8636  -13.5479   21.2110 C   0  0  0  0  0  0  0  0  0  0  0  0
  -29.6932  -24.2684   23.1324 C   0  0  0  0  0  0  0  0  0  0  0  0
  -34.5037  -22.6488   16.6212 C   0  0  0  0  0  0  0  0  0  0  0  0
  -27.3769  -25.6630   21.3401 C   0  0  0  0  0  0  0  0  0  0  0  0
  -33.1302  -18.8992   18.7396 C   0  0  0  0  0  0  0  0  0  0  0  0
  -26.4762  -27.1000   18.3785 C   0  0  0  0  0  0  0  0  0  0  0  0
  -30.7202  -14.6886   20.6926 C   0  0  0  0  0  0  0  0  0  0  0  0
  -30.4869  -23.2330   28.0675 C   0  0  0  0  0  0  0  0  0  0  0  0
  -30.8447  -26.3799   22.3763 C   0  0  0  0  0  0  0  0  0  0  0  0
  -29.4930  -25.0038   20.1348 C   0  0  0  0  0  0  0  0  0  0  0  0
  -29.2635  -23.4433   27.1791 C   0  0  0  0  0  0  0  0  0  0  0  0
  -29.6025  -12.2354   18.3667 C   0  0  0  0  0  0  0  0  0  0  0  0
  -29.3750  -22.6049   25.9097 C   0  0  0  0  0  0  0  0  0  0  0  0
  -28.1521  -11.9771   18.7811 C   0  0  0  0  0  0  0  0  0  0  0  0
  -30.5031  -12.4791   19.5763 C   0  0  0  0  0  0  0  0  0  0  0  0
  -28.5877  -13.2670   20.9103 C   0  0  0  0  0  0  0  0  0  0  0  0
  -30.5989  -23.0165   25.0825 C   0  0  1  0  0  0  0  0  0  0  0  0
  -29.5191  -25.6488   22.5650 C   0  0  1  0  0  0  0  0  0  0  0  0
  -27.6299  -13.0804   19.7223 C   0  0  2  0  0  0  0  0  0  0  0  0
  -24.5049  -28.1073   17.1968 C   0  0  0  0  0  0  0  0  0  0  0  0
  -35.4549  -20.6458   15.3581 C   0  0  0  0  0  0  0  0  0  0  0  0
  -33.3529  -21.7805   14.6060 C   0  0  0  0  0  0  0  0  0  0  0  0
  -26.2383  -22.8722   20.8656 C   0  0  0  0  0  0  0  0  0  0  0  0
  -24.9028  -23.8154   18.9695 C   0  0  0  0  0  0  0  0  0  0  0  0
  -24.5220  -24.6404   21.2926 C   0  0  0  0  0  0  0  0  0  0  0  0
  -27.8297  -29.7179   18.1068 C   0  0  0  0  0  0  0  0  0  0  0  0
  -33.3474  -23.4316   17.2221 C   0  0  0  0  0  0  0  0  0  1  0  0
  -33.9956  -19.8938   17.9753 C   0  0  0  0  0  0  0  0  0  0  0  0
  -33.3151  -20.4021   16.6991 C   0  0  0  0  0  0  0  0  0  0  0  0
  -26.6382  -25.2974   20.0753 C   0  0  1  0  0  0  0  0  0  0  0  0
  -25.7210  -28.3798   18.0684 C   0  0  2  0  0  0  0  0  0  0  0  0
  -34.1806  -21.3593   15.8337 C   0  0  0  0  0  0  0  0  0  0  0  0
  -25.6037  -24.1590   20.3012 C   0  0  0  0  0  0  0  0  0  0  0  0
  -25.8086  -11.5323   20.3289 N   0  0  0  0  0  0  0  0  0  0  0  0
  -26.2080  -12.8063   20.1754 N   0  0  0  0  0  0  0  0  0  0  0  0
  -28.7698  -25.5053   21.3151 N   0  0  0  0  0  0  0  0  0  0  0  0
  -29.9478  -13.5397   20.4198 N   0  0  0  0  0  0  0  0  0  0  0  0
  -28.9873  -20.0758   23.1616 N   0  0  0  0  0  0  0  0  0  0  0  0
  -25.4739  -15.0510   20.3577 N   0  0  0  0  0  0  0  0  0  0  0  0
  -21.8322  -12.6632   21.5547 N   0  0  0  0  0  0  0  0  0  0  0  0
  -32.3212  -19.5618   19.6587 N   0  0  0  0  0  0  0  0  0  0  0  0
  -30.0756  -15.6434   21.4784 N   0  0  0  0  0  0  0  0  0  0  0  0
  -30.3309  -24.2402   24.3579 N   0  0  0  0  0  0  0  0  0  0  0  0
  -26.0611  -26.5371   19.5668 N   0  0  0  0  0  0  0  0  0  0  0  0
  -26.6054  -29.3429   17.3535 N   0  3  0  0  0  0  0  0  0  0  0  0
  -22.6463  -14.7831   21.2350 O   0  0  0  0  0  0  0  0  0  0  0  0
  -29.2782  -23.3007   22.5054 O   0  0  0  0  0  0  0  0  0  0  0  0
  -35.6678  -23.0096   16.8121 O   0  0  0  0  0  0  0  0  0  0  0  0
  -26.7421  -26.0802   22.3120 O   0  0  0  0  0  0  0  0  0  0  0  0
  -33.1876  -17.6916   18.5330 O   0  0  0  0  0  0  0  0  0  0  0  0
  -27.3449  -26.6432   17.6387 O   0  0  0  0  0  0  0  0  0  0  0  0
  -31.8587  -14.8280   20.2384 O   0  0  0  0  0  0  0  0  0  0  0  0
  -21.4679   -7.1094   21.7931 O   0  0  0  0  0  0  0  0  0  0  0  0
  -33.8294  -24.5866   17.9078 O   0  0  0  0  0  0  0  0  0  1  0  0
  -23.7912   -3.0884   24.7659 F   0  0  0  0  0  0  0  0  0  0  0  0
  -20.3722   -6.3131   24.2031 F   0  0  0  0  0  0  0  0  0  0  0  0
  1  2  1  0  0  0  0
  1  5  2  0  0  0  0
  2  6  2  0  0  0  0
  3  8  2  0  0  0  0
  3 18  1  0  0  0  0
  4  9  1  0  0  0  0
  4 18  2  0  0  0  0
  5 20  1  0  0  0  0
  6 22  1  0  0  0  0
  7 10  2  0  0  0  0
  7 21  1  0  0  0  0
  8 27  1  0  0  0  0
  9 27  2  0  0  0  0
 10 28  1  0  0  0  0
 11 12  2  0  0  0  0
 11 29  1  0  0  0  0
 12 30  1  0  0  0  0
 13 23  1  0  0  0  0
 13 28  2  0  0  0  0
 14 24  2  0  0  0  0
 14 25  1  0  0  0  0
 15 24  1  0  0  0  0
 15 26  2  0  0  0  0
 16 25  2  0  0  0  0
 16 26  1  0  0  0  0
 17 30  2  0  0  0  0
 17 31  1  0  0  0  0
 18 32  1  0  0  0  0
 19 32  1  0  0  0  0
 19 33  2  0  0  0  0
 19 34  1  0  0  0  0
 20 22  2  0  0  0  0
 20 41  1  0  0  0  0
 21 23  2  0  0  0  0
 21 42  1  0  0  0  0
 22 50  1  0  0  0  0
 23 43  1  0  0  0  0
 24 71  1  0  0  0  0
 25 74  1  0  0  0  0
 26 75  1  0  0  0  0
 27 86  1  0  0  0  0
 28 87  1  0  0  0  0
 29 31  2  0  0  0  0
 29 86  1  0  0  0  0
 30 88  1  0  0  0  0
 31 89  1  0  0  0  0
 32 67  2  0  0  0  0
 33 68  1  0  0  0  0
 33 72  1  0  0  0  0
 34 73  1  0  0  0  0
 34 79  2  0  0  0  0
 35 51  1  0  0  0  0
 35 76  1  0  0  0  0
 35 80  2  0  0  0  0
 36 60  1  0  0  0  0
 36 65  1  0  0  0  0
 36 81  2  0  0  0  0
 37 63  1  0  0  0  0
 37 69  1  0  0  0  0
 37 82  2  0  0  0  0
 38 61  1  0  0  0  0
 38 74  1  0  0  0  0
 38 83  2  0  0  0  0
 39 64  1  0  0  0  0
 39 77  1  0  0  0  0
 39 84  2  0  0  0  0
 40 70  1  0  0  0  0
 40 75  1  0  0  0  0
 40 85  2  0  0  0  0
 41 44  1  0  0  0  0
 42 51  1  0  0  0  0
 43 69  1  0  0  0  0
 44 46  1  0  0  0  0
 45 47  1  0  0  0  0
 45 48  1  0  0  0  0
 46 50  1  0  0  0  0
 47 52  1  0  0  0  0
 48 70  1  0  0  0  0
 49 52  1  0  0  0  0
 49 70  1  0  0  0  0
 50 76  1  0  0  0  0
 51 69  1  0  0  0  0
 52 68  1  0  0  0  0
 53 64  1  0  0  0  0
 54 65  1  0  0  0  0
 55 65  1  0  0  0  0
 56 66  1  0  0  0  0
 57 66  1  0  0  0  0
 58 66  1  0  0  0  0
 59 78  1  0  0  0  0
 60 87  1  0  0  0  0
 61 62  1  0  0  0  0
 62 65  1  0  0  0  0
 63 66  1  0  0  0  0
 63 77  1  0  0  0  0
 64 78  1  0  0  0  0
 67 68  1  0  0  0  0
M  CHG  1  78   1
M  ISO  4  40 100  60 101  75 100  87 101
M  END
> <Batch ID>
0144

> <Smiles>
CNC(C)C(=O)NC(C(=O)N1Cc2cc([101O:1][101CH2:1]C(=O)C(C)(C)CCC(=O)Nc3cc(N)cc([100NH:0][100C:0](=O)N4CCCC(n5nc(-c6ccc(Oc7ccc(F)cc7F)cc6)c(C(N)=O)c5N)C4)c3)ccc2CC1C(=O)NC1CCCc2ccccc21)C(C)(C)C

> <Shape>
0.223

> <Color>
0.182

> <Negative vol penalty>
0.000

$$$$

  -OEChem-04052303043D

 86 95  0     1  0  0  0  0  0999 V2000
  -17.0739  -24.7555   20.9072 C   0  0  0  0  0  0  0  0  0  0  0  0
  -17.7312  -25.3422   19.8305 C   0  0  0  0  0  0  0  0  0  0  0  0
  -24.5026  -11.9249   22.0119 C   0  0  0  0  0  0  0  0  0  0  0  0
  -24.7036  -11.7369   19.6116 C   0  0  0  0  0  0  0  0  0  0  0  0
  -17.2409  -25.2736   22.1908 C   0  0  0  0  0  0  0  0  0  0  0  0
  -18.5552  -26.4480   20.0368 C   0  0  0  0  0  0  0  0  0  0  0  0
  -25.5196  -26.2764   18.2038 C   0  0  0  0  0  0  0  0  0  0  0  0
  -24.4379  -10.5355   22.1153 C   0  0  0  0  0  0  0  0  0  0  0  0
  -24.6390  -10.3474   19.7150 C   0  0  0  0  0  0  0  0  0  0  0  0
  -26.8099  -26.3950   17.6870 C   0  0  0  0  0  0  0  0  0  0  0  0
  -22.1286   -8.1093   21.6624 C   0  0  0  0  0  0  0  0  0  0  0  0
  -21.1555   -7.5672   22.5020 C   0  0  0  0  0  0  0  0  0  0  0  0
  -27.1871  -23.1550   23.4889 C   0  0  0  0  0  0  0  0  0  0  0  0
  -26.8022  -21.8090   23.2809 C   0  0  0  0  0  0  0  0  0  0  0  0
  -26.9901  -28.6193   18.6187 C   0  0  0  0  0  0  0  0  0  0  0  0
  -22.8821   -6.5093   23.8200 C   0  0  0  0  0  0  0  0  0  0  0  0
  -24.6354  -12.5257   20.7600 C   0  0  0  0  0  0  0  0  0  0  0  0
  -23.7266  -14.8901   21.0621 C   0  0  0  0  0  0  0  0  0  0  0  0
  -18.0750  -26.3804   22.4142 C   0  0  0  0  0  0  0  0  0  0  0  0
  -24.9647  -27.3241   18.9440 C   0  0  0  0  0  0  0  0  0  0  0  0
  -18.7326  -26.9822   21.3244 C   0  0  0  0  0  0  0  0  0  0  0  0
  -25.7028  -28.5013   19.1494 C   0  0  0  0  0  0  0  0  0  0  0  0
  -24.5061   -9.7467   20.9669 C   0  0  0  0  0  0  0  0  0  0  0  0
  -27.5433  -27.5636   17.8938 C   0  0  0  0  0  0  0  0  0  0  0  0
  -23.4784   -7.8513   21.9015 C   0  0  0  0  0  0  0  0  0  0  0  0
  -21.5323   -6.7673   23.5808 C   0  0  0  0  0  0  0  0  0  0  0  0
  -23.8551   -7.0513   22.9803 C   0  0  0  0  0  0  0  0  0  0  0  0
  -24.7017  -13.9610   20.6524 C   0  0  0  0  0  0  0  0  0  0  0  0
  -28.2025  -23.4044   22.5951 C   0  0  0  0  0  0  0  0  0  0  0  0
  -24.2635  -16.1138   20.7444 C   0  0  0  0  0  0  0  0  0  0  0  0
  -27.6097  -21.3319   22.2748 C   0  0  0  0  0  0  0  0  0  0  0  0
  -30.1970  -24.3347   18.2432 C   0  0  0  0  0  0  0  0  0  0  0  0
  -22.4499  -14.6670   21.6752 C   0  0  0  0  0  0  0  0  0  0  0  0
  -30.4160  -25.4756   18.9156 C   0  0  0  0  0  0  0  0  0  0  0  0
  -22.0232  -28.6055   20.8885 C   0  0  0  0  0  0  0  0  0  0  0  0
  -24.5425  -29.4736   22.4083 C   0  0  0  0  0  0  0  0  0  0  0  0
  -27.2487  -29.3372   24.0086 C   0  0  0  0  0  0  0  0  0  0  0  0
  -28.5445  -19.6722   20.6261 C   0  0  0  0  0  0  0  0  0  0  0  0
  -18.1873  -26.9342   23.8126 C   0  0  0  0  0  0  0  0  0  0  0  0
  -23.5552  -27.2643   19.4670 C   0  0  0  0  0  0  0  0  0  0  0  0
  -25.0524  -29.6160   19.9223 C   0  0  0  0  0  0  0  0  0  0  0  0
  -19.3729  -27.8772   24.0009 C   0  0  0  0  0  0  0  0  0  0  0  0
  -28.3263  -17.3089   17.9719 C   0  0  0  0  0  0  0  0  0  0  0  0
  -19.4452  -28.8796   22.8534 C   0  0  0  0  0  0  0  0  0  0  0  0
  -30.5582  -24.4172   22.4924 C   0  0  0  0  0  0  0  0  0  0  0  0
  -31.1759  -24.5515   21.1068 C   0  0  0  0  0  0  0  0  0  0  0  0
  -27.2836  -16.3037   18.4664 C   0  0  0  0  0  0  0  0  0  0  0  0
  -28.8694  -25.1232   20.8511 C   0  0  0  0  0  0  0  0  0  0  0  0
  -29.2081  -17.8179   19.1108 C   0  0  0  0  0  0  0  0  0  0  0  0
  -27.4374  -17.3545   20.7597 C   0  0  0  0  0  0  0  0  0  0  0  0
  -19.6544  -28.1677   21.5114 C   0  0  1  0  0  0  0  0  0  0  0  0
  -29.0439  -24.6267   22.2985 C   0  0  1  0  0  0  0  0  0  0  0  0
  -30.2646  -25.5441   20.4011 C   0  0  2  0  0  0  0  0  0  0  0  0
  -23.3833  -27.9756   20.8211 C   0  0  1  0  0  0  0  0  0  0  0  0
  -26.4832  -16.8626   19.6591 C   0  0  2  0  0  0  0  0  0  0  0  0
  -28.8973  -30.1383   25.7225 C   0  0  0  0  0  0  0  0  0  0  0  0
  -30.5199  -29.2236   18.0113 C   0  0  0  0  0  0  0  0  0  0  0  0
  -24.2759  -32.2666   21.2117 C   0  0  0  0  0  0  0  0  0  0  0  0
  -26.0739  -33.0316   22.7771 C   0  0  0  0  0  0  0  0  0  0  0  0
  -23.9230  -32.1528   23.6850 C   0  0  0  0  0  0  0  0  0  0  0  0
  -27.1523  -26.7666   25.4719 C   0  0  0  0  0  0  0  0  0  0  0  0
  -30.8671  -26.7360   18.2099 C   0  0  0  0  0  0  0  0  0  0  0  0
  -25.5736  -30.5494   22.6377 C   0  0  1  0  0  0  0  0  0  0  0  0
  -27.7397  -29.1940   25.4379 C   0  0  2  0  0  0  0  0  0  0  0  0
  -29.8598  -27.8865   18.3261 C   0  0  2  0  0  0  0  0  0  1  0  0
  -24.9663  -31.9786   22.5599 C   0  0  0  0  0  0  0  0  0  0  0  0
  -25.7764  -14.5445   20.1153 N   0  0  0  0  0  0  0  0  0  0  0  0
  -25.4799  -15.8534   20.1852 N   0  0  0  0  0  0  0  0  0  0  0  0
  -24.3340  -29.0692   21.0841 N   0  0  0  0  0  0  0  0  0  0  0  0
  -28.3815  -18.3361   20.2030 N   0  0  0  0  0  0  0  0  0  0  0  0
  -23.8089  -17.3764   20.8916 N   0  0  0  0  0  0  0  0  0  0  0  0
  -22.0535  -13.3475   21.9320 N   0  0  0  0  0  0  0  0  0  0  0  0
  -27.6812  -20.0624   21.6493 N   0  0  0  0  0  0  0  0  0  0  0  0
  -21.0361  -27.7633   21.3638 N   0  0  0  0  0  0  0  0  0  0  0  0
  -26.2102  -30.2394   23.9132 N   0  0  0  0  0  0  0  0  0  0  0  0
  -28.1981  -27.7988   25.6907 N   0  3  0  0  0  0  0  0  0  0  0  0
  -21.6762  -15.6091   21.9710 O   0  0  0  0  0  0  0  0  0  0  0  0
  -21.8787  -29.7705   20.5368 O   0  0  0  0  0  0  0  0  0  0  0  0
  -23.9328  -29.0066   23.3745 O   0  0  0  0  0  0  0  0  0  0  0  0
  -27.7398  -28.7142   23.0699 O   0  0  0  0  0  0  0  0  0  0  0  0
  -29.3691  -20.4236   20.0995 O   0  0  0  0  0  0  0  0  0  0  0  0
  -28.4661  -22.2982   21.8512 O   0  0  0  0  0  0  0  0  0  0  0  0
  -24.4433   -8.3908   21.0675 O   0  0  0  0  0  0  0  0  0  0  0  0
  -28.8041  -27.6710   17.3904 O   0  0  0  0  0  0  0  0  0  1  0  0
  -20.5978   -6.2481   24.3879 F   0  0  0  0  0  0  0  0  0  0  0  0
  -25.1504   -6.8009   23.2157 F   0  0  0  0  0  0  0  0  0  0  0  0
  1  2  1  0  0  0  0
  1  5  2  0  0  0  0
  2  6  2  0  0  0  0
  3  8  2  0  0  0  0
  3 17  1  0  0  0  0
  4  9  1  0  0  0  0
  4 17  2  0  0  0  0
  5 19  1  0  0  0  0
  6 21  1  0  0  0  0
  7 10  2  0  0  0  0
  7 20  1  0  0  0  0
  8 23  1  0  0  0  0
  9 23  2  0  0  0  0
 10 24  1  0  0  0  0
 11 12  2  0  0  0  0
 11 25  1  0  0  0  0
 12 26  1  0  0  0  0
 13 14  1  0  0  0  0
 13 29  2  0  0  0  0
 14 31  2  0  0  0  0
 15 22  1  0  0  0  0
 15 24  2  0  0  0  0
 16 26  2  0  0  0  0
 16 27  1  0  0  0  0
 17 28  1  0  0  0  0
 18 28  1  0  0  0  0
 18 30  2  0  0  0  0
 18 33  1  0  0  0  0
 19 21  2  0  0  0  0
 19 39  1  0  0  0  0
 20 22  2  0  0  0  0
 20 40  1  0  0  0  0
 21 51  1  0  0  0  0
 22 41  1  0  0  0  0
 23 83  1  0  0  0  0
 24 84  1  0  0  0  0
 25 27  2  0  0  0  0
 25 83  1  0  0  0  0
 26 85  1  0  0  0  0
 27 86  1  0  0  0  0
 28 67  2  0  0  0  0
 29 52  1  0  0  0  0
 29 82  1  0  0  0  0
 30 68  1  0  0  0  0
 30 71  1  0  0  0  0
 31 73  1  0  0  0  0
 31 82  1  0  0  0  0
 32 34  2  0  0  0  0
 33 72  1  0  0  0  0
 33 77  2  0  0  0  0
 34 53  1  0  0  0  0
 34 62  1  0  0  0  0
 35 54  1  0  0  0  0
 35 74  1  0  0  0  0
 35 78  2  0  0  0  0
 36 63  1  0  0  0  0
 36 69  1  0  0  0  0
 36 79  2  0  0  0  0
 37 64  1  0  0  0  0
 37 75  1  0  0  0  0
 37 80  2  0  0  0  0
 38 70  1  0  0  0  0
 38 73  1  0  0  0  0
 38 81  2  0  0  0  0
 39 42  1  0  0  0  0
 40 54  1  0  0  0  0
 41 69  1  0  0  0  0
 42 44  1  0  0  0  0
 43 47  1  0  0  0  0
 43 49  1  0  0  0  0
 44 51  1  0  0  0  0
 45 46  1  0  0  0  0
 45 52  1  0  0  0  0
 46 53  1  0  0  0  0
 47 55  1  0  0  0  0
 48 52  1  0  0  0  0
 48 53  1  0  0  0  0
 49 70  1  0  0  0  0
 50 55  1  0  0  0  0
 50 70  1  0  0  0  0
 51 74  1  0  0  0  0
 54 69  1  0  0  0  0
 55 68  1  0  0  0  0
 56 64  1  0  0  0  0
 57 65  1  0  0  0  0
 58 66  1  0  0  0  0
 59 66  1  0  0  0  0
 60 66  1  0  0  0  0
 61 76  1  0  0  0  0
 62 65  1  0  0  0  0
 63 66  1  0  0  0  0
 63 75  1  0  0  0  0
 64 76  1  0  0  0  0
 65 84  1  0  0  0  0
 67 68  1  0  0  0  0
M  CHG  1  76   1
M  ISO  4  38 100  65 101  73 100  84 101
M  END
> <Batch ID>
0144

> <Smiles>
C=C(C[101CH:1](C)[101O:1]c1ccc2c(c1)CN(C(=O)C(NC(=O)C(C)NC)C(C)(C)C)C(C(=O)NC1CCCc3ccccc31)C2)C1CCC(c2ccc([100NH:0][100C:0](=O)N3CCCC(n4nc(-c5ccc(Oc6ccc(F)cc6F)cc5)c(C(N)=O)c4N)C3)o2)C1

> <Shape>
0.314

> <Color>
0.077

> <Negative vol penalty>
0.000

$$$$

  -OEChem-04052303043D

 87 96  0     1  0  0  0  0  0999 V2000
  -19.8913  -25.1379   24.0403 C   0  0  0  0  0  0  0  0  0  0  0  0
  -21.0024  -25.1986   23.2053 C   0  0  0  0  0  0  0  0  0  0  0  0
  -24.6733   -8.3109   21.6133 C   0  0  0  0  0  0  0  0  0  0  0  0
  -22.8598   -9.7132   20.8503 C   0  0  0  0  0  0  0  0  0  0  0  0
  -18.9638  -26.1789   24.0413 C   0  0  0  0  0  0  0  0  0  0  0  0
  -21.1860  -26.3000   22.3700 C   0  0  0  0  0  0  0  0  0  0  0  0
  -25.9539  -28.0058   22.4245 C   0  0  0  0  0  0  0  0  0  0  0  0
  -23.8029   -7.6616   22.4887 C   0  0  0  0  0  0  0  0  0  0  0  0
  -21.9894   -9.0638   21.7257 C   0  0  0  0  0  0  0  0  0  0  0  0
  -26.8934  -27.2937   21.6803 C   0  0  0  0  0  0  0  0  0  0  0  0
  -21.9794   -5.3913   24.6649 C   0  0  0  0  0  0  0  0  0  0  0  0
  -22.0416   -3.9993   24.7274 C   0  0  0  0  0  0  0  0  0  0  0  0
  -24.2141  -19.2381   18.2122 C   0  0  0  0  0  0  0  0  0  0  0  0
  -24.2438  -17.8526   18.4999 C   0  0  0  0  0  0  0  0  0  0  0  0
  -26.7210  -28.9259   19.9123 C   0  0  0  0  0  0  0  0  0  0  0  0
  -21.4887   -3.8691   22.3791 C   0  0  0  0  0  0  0  0  0  0  0  0
  -24.2018   -9.3368   20.7941 C   0  0  0  0  0  0  0  0  0  0  0  0
  -25.3874   -9.6548   18.5579 C   0  0  0  0  0  0  0  0  0  0  0  0
  -19.1412  -27.2981   23.2127 C   0  0  0  0  0  0  0  0  0  0  0  0
  -25.3817  -29.1794   21.9128 C   0  0  0  0  0  0  0  0  0  0  0  0
  -20.2594  -27.3563   22.3590 C   0  0  0  0  0  0  0  0  0  0  0  0
  -25.7763  -29.6524   20.6532 C   0  0  0  0  0  0  0  0  0  0  0  0
  -22.4610   -8.0380   22.5449 C   0  0  0  0  0  0  0  0  0  0  0  0
  -27.2750  -27.7522   20.4227 C   0  0  0  0  0  0  0  0  0  0  0  0
  -21.6718   -6.0223   23.4595 C   0  0  0  0  0  0  0  0  0  0  0  0
  -21.7962   -3.2382   23.5846 C   0  0  0  0  0  0  0  0  0  0  0  0
  -21.4265   -5.2612   22.3166 C   0  0  0  0  0  0  0  0  0  0  0  0
  -25.1005  -10.0083   19.8900 C   0  0  0  0  0  0  0  0  0  0  0  0
  -26.2926  -10.5992   18.1394 C   0  0  0  0  0  0  0  0  0  0  0  0
  -25.4658  -19.7188   18.5189 C   0  0  0  0  0  0  0  0  0  0  0  0
  -25.5116  -17.5854   18.9616 C   0  0  0  0  0  0  0  0  0  0  0  0
  -24.8809   -8.5699   17.7692 C   0  0  0  0  0  0  0  0  0  0  0  0
  -22.4324  -30.0921   21.1564 C   0  0  0  0  0  0  0  0  0  0  0  0
  -28.6806  -24.9728   18.5984 C   0  0  0  0  0  0  0  0  0  0  0  0
  -23.8626  -32.9638   20.6767 C   0  0  0  0  0  0  0  0  0  0  0  0
  -26.7178  -34.6978   19.9781 C   0  0  0  0  0  0  0  0  0  0  0  0
  -27.4247  -16.2104   19.8536 C   0  0  0  0  0  0  0  0  0  0  0  0
  -18.0871  -28.3767   23.2140 C   0  0  0  0  0  0  0  0  0  0  0  0
  -24.3895  -29.9504   22.7394 C   0  0  0  0  0  0  0  0  0  0  0  0
  -25.2070  -30.9177   20.0672 C   0  0  0  0  0  0  0  0  0  0  0  0
  -18.5506  -29.6821   22.5726 C   0  0  0  0  0  0  0  0  0  0  0  0
  -29.7253  -13.4934   19.8052 C   0  0  0  0  0  0  0  0  0  0  0  0
  -19.2540  -29.4056   21.2475 C   0  0  0  0  0  0  0  0  0  0  0  0
  -28.8268  -12.2595   19.6941 C   0  0  0  0  0  0  0  0  0  0  0  0
  -26.3677  -23.2182   17.7905 C   0  0  0  0  0  0  0  0  0  0  0  0
  -29.0991  -14.5735   20.6855 C   0  0  0  0  0  0  0  0  0  0  0  0
  -25.2822  -22.1590   17.9697 C   0  0  0  0  0  0  0  0  0  0  0  0
  -27.3862  -21.3075   18.8095 C   0  0  0  0  0  0  0  0  0  0  0  0
  -26.8354  -13.7309   20.2006 C   0  0  0  0  0  0  0  0  0  0  0  0
  -20.5064  -28.5458   21.4567 C   0  0  1  0  0  0  0  0  0  0  0  0
  -23.4899  -30.8551   21.9030 C   0  0  1  0  0  0  0  0  0  0  0  0
  -27.4019  -22.8398   18.8468 C   0  0  1  0  0  0  0  0  0  0  0  0
  -27.3947  -12.6414   19.2712 C   0  0  2  0  0  0  0  0  0  0  0  0
  -27.5659  -37.0311   19.6126 C   0  0  0  0  0  0  0  0  0  0  0  0
  -29.2530  -22.9818   17.1948 C   0  0  0  0  0  0  0  0  0  0  0  0
  -29.7393  -22.9294   19.6619 C   0  0  0  0  0  0  0  0  0  0  0  0
  -22.6201  -32.9762   17.8899 C   0  0  0  0  0  0  0  0  0  0  0  0
  -24.2272  -34.7888   17.2574 C   0  0  0  0  0  0  0  0  0  0  0  0
  -22.5582  -35.1806   19.0695 C   0  0  0  0  0  0  0  0  0  0  0  0
  -28.5673  -34.5106   22.2810 C   0  0  0  0  0  0  0  0  0  0  0  0
  -28.2414  -25.6459   19.8884 C   0  0  0  0  0  0  0  0  0  1  0  0
  -24.5212  -33.6473   19.5028 C   0  0  1  0  0  0  0  0  0  0  0  0
  -27.3372  -35.9220   20.6277 C   0  0  2  0  0  0  0  0  0  0  0  0
  -28.7745  -23.4325   18.5805 C   0  0  0  0  0  0  0  0  0  0  0  0
  -23.4912  -34.1233   18.4398 C   0  0  0  0  0  0  0  0  0  0  0  0
  -25.7694  -11.0925   20.2913 N   0  0  0  0  0  0  0  0  0  0  0  0
  -26.4857  -11.4285   19.2049 N   0  0  0  0  0  0  0  0  0  0  0  0
  -26.0100  -20.9832   18.4403 N   0  0  3  0  0  0  0  0  0  0  0  0
  -24.2355  -31.6328   20.9113 N   0  0  0  0  0  0  0  0  0  0  0  0
  -27.7454  -14.8869   20.2226 N   0  0  0  0  0  0  0  0  0  0  0  0
  -26.9344  -10.7929   16.9676 N   0  0  0  0  0  0  0  0  0  0  0  0
  -23.9575   -7.6927   18.3543 N   0  0  0  0  0  0  0  0  0  0  0  0
  -26.1177  -16.3815   19.3985 N   0  0  0  0  0  0  0  0  0  0  0  0
  -21.5936  -29.3525   21.9681 N   0  0  0  0  0  0  0  0  0  0  0  0
  -25.3416  -34.7169   20.0608 N   0  0  0  0  0  0  0  0  0  0  0  0
  -28.6476  -35.5733   21.2460 N   0  3  0  0  0  0  0  0  0  0  0  0
  -25.2490   -8.3741   16.5862 O   0  0  0  0  0  0  0  0  0  0  0  0
  -22.3804  -30.1699   19.9346 O   0  0  0  0  0  0  0  0  0  0  0  0
  -28.9838  -25.6463   17.6106 O   0  0  0  0  0  0  0  0  0  0  0  0
  -23.0526  -33.5902   21.3645 O   0  0  0  0  0  0  0  0  0  0  0  0
  -27.3877  -33.8148   19.4470 O   0  0  0  0  0  0  0  0  0  0  0  0
  -28.2569  -17.1194   19.9094 O   0  0  0  0  0  0  0  0  0  0  0  0
  -26.2628  -18.7177   18.9762 O   0  0  0  0  0  0  0  0  0  0  0  0
  -21.6113   -7.4044   23.3989 O   0  0  0  0  0  0  0  0  0  0  0  0
  -28.1914  -27.0587   19.6939 O   0  0  0  0  0  0  0  0  0  1  0  0
  -21.8574   -1.9014   23.6444 F   0  0  0  0  0  0  0  0  0  0  0  0
  -21.1317   -5.8617   21.1555 F   0  0  0  0  0  0  0  0  0  0  0  0
  1  2  1  0  0  0  0
  1  5  2  0  0  0  0
  2  6  2  0  0  0  0
  3  8  2  0  0  0  0
  3 17  1  0  0  0  0
  4  9  1  0  0  0  0
  4 17  2  0  0  0  0
  5 19  1  0  0  0  0
  6 21  1  0  0  0  0
  7 10  2  0  0  0  0
  7 20  1  0  0  0  0
  8 23  1  0  0  0  0
  9 23  2  0  0  0  0
 10 24  1  0  0  0  0
 11 12  2  0  0  0  0
 11 25  1  0  0  0  0
 12 26  1  0  0  0  0
 13 14  1  0  0  0  0
 13 30  2  0  0  0  0
 14 31  2  0  0  0  0
 15 22  1  0  0  0  0
 15 24  2  0  0  0  0
 16 26  2  0  0  0  0
 16 27  1  0  0  0  0
 17 28  1  0  0  0  0
 18 28  1  0  0  0  0
 18 29  2  0  0  0  0
 18 32  1  0  0  0  0
 19 21  2  0  0  0  0
 19 38  1  0  0  0  0
 20 22  2  0  0  0  0
 20 39  1  0  0  0  0
 21 50  1  0  0  0  0
 22 40  1  0  0  0  0
 23 84  1  0  0  0  0
 24 85  1  0  0  0  0
 25 27  2  0  0  0  0
 25 84  1  0  0  0  0
 26 86  1  0  0  0  0
 27 87  1  0  0  0  0
 28 66  2  0  0  0  0
 29 67  1  0  0  0  0
 29 71  1  0  0  0  0
 30 68  1  0  0  0  0
 30 83  1  0  0  0  0
 31 73  1  0  0  0  0
 31 83  1  0  0  0  0
 32 72  1  0  0  0  0
 32 77  2  0  0  0  0
 33 51  1  0  0  0  0
 33 74  1  0  0  0  0
 33 78  2  0  0  0  0
 34 61  1  0  0  0  0
 34 64  1  0  0  0  0
 34 79  2  0  0  0  0
 35 62  1  0  0  0  0
 35 69  1  0  0  0  0
 35 80  2  0  0  0  0
 36 63  1  0  0  0  0
 36 75  1  0  0  0  0
 36 81  2  0  0  0  0
 37 70  1  0  0  0  0
 37 73  1  0  0  0  0
 37 82  2  0  0  0  0
 38 41  1  0  0  0  0
 39 51  1  0  0  0  0
 40 69  1  0  0  0  0
 41 43  1  0  0  0  0
 42 44  1  0  0  0  0
 42 46  1  0  0  0  0
 43 50  1  0  0  0  0
 44 53  1  0  0  0  0
 45 47  1  0  0  0  0
 45 52  1  0  0  0  0
 46 70  1  0  0  0  0
 47 68  1  0  0  0  0
 48 52  1  0  0  0  0
 48 68  1  0  0  0  0
 49 53  1  0  0  0  0
 49 70  1  0  0  0  0
 50 74  1  0  0  0  0
 51 69  1  0  0  0  0
 52 64  1  0  0  0  0
 53 67  1  0  0  0  0
 54 63  1  0  0  0  0
 55 64  1  0  0  0  0
 56 64  1  0  0  0  0
 57 65  1  0  0  0  0
 58 65  1  0  0  0  0
 59 65  1  0  0  0  0
 60 76  1  0  0  0  0
 61 85  1  0  0  0  0
 62 65  1  0  0  0  0
 62 75  1  0  0  0  0
 63 76  1  0  0  0  0
 66 67  1  0  0  0  0
M  CHG  1  76   1
M  ISO  4  37 100  61 101  73 100  85 101
M  END
> <Batch ID>
0144

> <Smiles>
CNC(C)C(=O)NC(C(=O)N1Cc2cc([101O:1][101CH2:1]C(=O)C(C)(C)C3CCN(c4ccc([100NH:0][100C:0](=O)N5CCCC(n6nc(-c7ccc(Oc8ccc(F)cc8F)cc7)c(C(N)=O)c6N)C5)o4)C3)ccc2CC1C(=O)NC1CCCc2ccccc21)C(C)(C)C

> <Shape>
0.266

> <Color>
0.106

> <Negative vol penalty>
0.000

$$$$

  -OEChem-04052303043D

 91100  0     1  0  0  0  0  0999 V2000
  -22.2045  -18.3259   12.4341 C   0  0  0  0  0  0  0  0  0  0  0  0
  -23.4175  -17.8688   12.9393 C   0  0  0  0  0  0  0  0  0  0  0  0
  -22.1658  -27.7884   20.7395 C   0  0  0  0  0  0  0  0  0  0  0  0
  -22.5274  -25.8770   22.1723 C   0  0  0  0  0  0  0  0  0  0  0  0
  -21.1553  -18.6209   13.3036 C   0  0  0  0  0  0  0  0  0  0  0  0
  -23.5824  -17.7075   14.3145 C   0  0  0  0  0  0  0  0  0  0  0  0
  -26.8990  -13.4074   17.1455 C   0  0  0  0  0  0  0  0  0  0  0  0
  -20.8484  -27.8764   21.1893 C   0  0  0  0  0  0  0  0  0  0  0  0
  -21.2100  -25.9650   22.6221 C   0  0  0  0  0  0  0  0  0  0  0  0
  -28.1825  -13.4198   17.6897 C   0  0  0  0  0  0  0  0  0  0  0  0
  -17.4970  -28.8260   22.2292 C   0  0  0  0  0  0  0  0  0  0  0  0
  -17.0088  -30.0891   22.5632 C   0  0  0  0  0  0  0  0  0  0  0  0
  -28.9283  -19.1225   20.6588 C   0  0  0  0  0  0  0  0  0  0  0  0
  -27.2486  -13.8748   19.8668 C   0  0  0  0  0  0  0  0  0  0  0  0
  -29.3906  -20.2521   18.1502 C   0  0  0  0  0  0  0  0  0  0  0  0
  -18.7289  -30.3091   24.2455 C   0  0  0  0  0  0  0  0  0  0  0  0
  -23.0053  -26.7887   21.2310 C   0  0  0  0  0  0  0  0  0  0  0  0
  -25.4976  -27.3256   21.3197 C   0  0  0  0  0  0  0  0  0  0  0  0
  -21.3042  -18.4539   14.6895 C   0  0  0  0  0  0  0  0  0  0  0  0
  -25.7795  -13.6398   17.9573 C   0  0  0  0  0  0  0  0  0  0  0  0
  -22.5346  -18.0019   15.2035 C   0  0  0  0  0  0  0  0  0  0  0  0
  -28.0058  -20.0169   20.1160 C   0  0  0  0  0  0  0  0  0  0  0  0
  -25.9517  -13.8623   19.3309 C   0  0  0  0  0  0  0  0  0  0  0  0
  -30.0820  -18.7930   19.9474 C   0  0  0  0  0  0  0  0  0  0  0  0
  -28.2369  -20.5816   18.8617 C   0  0  0  0  0  0  0  0  0  0  0  0
  -20.3705  -26.9647   22.1306 C   0  0  0  0  0  0  0  0  0  0  0  0
  -28.3577  -13.6564   19.0500 C   0  0  0  0  0  0  0  0  0  0  0  0
  -18.6011  -28.3043   22.9033 C   0  0  0  0  0  0  0  0  0  0  0  0
  -17.6247  -30.8307   23.5714 C   0  0  0  0  0  0  0  0  0  0  0  0
  -30.3131  -19.3577   18.6931 C   0  0  0  0  0  0  0  0  0  0  0  0
  -19.2171  -29.0459   23.9114 C   0  0  0  0  0  0  0  0  0  0  0  0
  -24.3661  -26.6969   20.7663 C   0  0  0  0  0  0  0  0  0  0  0  0
  -26.5395  -26.9227   20.5206 C   0  0  0  0  0  0  0  0  0  0  0  0
  -25.5979  -28.1959   22.4547 C   0  0  0  0  0  0  0  0  0  0  0  0
  -23.4933  -15.8464   18.0474 C   0  0  0  0  0  0  0  0  0  0  0  0
  -31.2530  -15.0308   20.7280 C   0  0  0  0  0  0  0  0  0  0  0  0
  -22.2665  -13.9219   20.3525 C   0  0  0  0  0  0  0  0  0  0  0  0
  -22.8155  -11.5340   22.7281 C   0  0  0  0  0  0  0  0  0  0  0  0
  -27.4115  -22.1327   17.0564 C   0  0  0  0  0  0  0  0  0  0  0  0
  -20.1573  -18.8309   15.5935 C   0  0  0  0  0  0  0  0  0  0  0  0
  -24.3998  -13.5967   17.3598 C   0  0  0  0  0  0  0  0  0  0  0  0
  -24.7812  -14.0972   20.2492 C   0  0  0  0  0  0  0  0  0  0  0  0
  -20.2900  -18.2761   17.0094 C   0  0  0  0  0  0  0  0  0  0  0  0
  -27.5039  -25.5430   16.0372 C   0  0  0  0  0  0  0  0  0  0  0  0
  -25.8815  -19.2368   21.3620 C   0  0  0  0  0  0  0  0  0  0  0  0
  -25.4292  -20.1480   20.2641 C   0  0  0  0  0  0  0  0  0  0  0  0
  -21.6983  -18.5126   17.5456 C   0  0  0  0  0  0  0  0  0  0  0  0
  -26.8181  -26.2838   17.1875 C   0  0  0  0  0  0  0  0  0  0  0  0
  -26.8560  -24.1854   15.7707 C   0  0  0  0  0  0  0  0  0  0  0  0
  -26.0525  -24.0532   18.0958 C   0  0  0  0  0  0  0  0  0  0  0  0
  -26.7785  -20.3528   20.8985 C   0  0  0  0  0  0  0  0  0  0  0  0
  -22.7439  -17.7905   16.6873 C   0  0  1  0  0  0  0  0  0  0  0  0
  -23.3665  -14.3557   18.1866 C   0  0  1  0  0  0  0  0  0  0  0  0
  -26.7113  -25.3979   18.4442 C   0  0  2  0  0  0  0  0  0  0  0  0
  -32.2371  -13.9478   23.4372 C   0  0  0  0  0  0  0  0  0  0  0  0
  -21.6249  -10.1859   24.4781 C   0  0  0  0  0  0  0  0  0  0  0  0
  -31.1192  -18.3249   22.8624 C   0  0  0  0  0  0  0  0  0  0  0  0
  -33.1813  -16.3211   21.7271 C   0  0  0  0  0  0  0  0  0  0  0  0
  -22.1715  -16.3704   22.1708 C   0  0  0  0  0  0  0  0  0  0  0  0
  -21.8971  -14.8249   24.1212 C   0  0  0  0  0  0  0  0  0  0  0  0
  -20.1692  -14.8797   22.3229 C   0  0  0  0  0  0  0  0  0  0  0  0
  -23.5221   -8.9812   21.4080 C   0  0  0  0  0  0  0  0  0  0  0  0
  -29.8234  -14.5095   20.7173 C   0  0  0  0  0  0  0  0  0  1  0  0
  -31.4604  -15.2500   23.2520 C   0  0  0  0  0  0  0  0  0  0  0  0
  -22.4157  -13.8200   21.8513 C   0  0  1  0  0  0  0  0  0  0  0  0
  -22.0963  -10.2324   23.0330 C   0  0  2  0  0  0  0  0  0  0  0  0
  -30.8253  -17.2775   21.7849 C   0  0  2  0  0  0  0  0  0  0  0  0
  -31.6849  -15.9712   21.8866 C   0  0  2  0  0  0  0  0  0  0  0  0
  -21.6858  -14.9713   22.5992 C   0  0  0  0  0  0  0  0  0  0  0  0
  -24.6613  -25.9514   19.6980 N   0  0  0  0  0  0  0  0  0  0  0  0
  -25.9901  -26.1091   19.5738 N   0  0  0  0  0  0  0  0  0  0  0  0
  -23.4527  -14.0515   19.6164 N   0  0  0  0  0  0  0  0  0  0  0  0
  -26.7928  -23.3997   17.0051 N   0  0  0  0  0  0  0  0  0  0  0  0
  -27.8629  -27.1885   20.5425 N   0  0  0  0  0  0  0  0  0  0  0  0
  -24.4294  -28.5070   23.1634 N   0  0  0  0  0  0  0  0  0  0  0  0
  -27.3137  -21.4929   18.2915 N   0  0  0  0  0  0  0  0  0  0  0  0
  -30.9937  -17.9072   20.4865 N   0  0  0  0  0  0  0  0  0  0  0  0
  -22.7657  -16.3775   16.9996 N   0  0  0  0  0  0  0  0  0  0  0  0
  -21.9569  -12.4844   22.2173 N   0  0  0  0  0  0  0  0  0  0  0  0
  -23.0019   -9.0726   22.7965 N   0  3  0  0  0  0  0  0  0  0  0  0
  -26.6888  -28.6963   22.8195 O   0  0  0  0  0  0  0  0  0  0  0  0
  -24.1978  -16.4689   18.8335 O   0  0  0  0  0  0  0  0  0  0  0  0
  -32.0506  -14.6705   19.8584 O   0  0  0  0  0  0  0  0  0  0  0  0
  -21.1395  -13.8806   19.8528 O   0  0  0  0  0  0  0  0  0  0  0  0
  -24.0178  -11.6931   22.9270 O   0  0  0  0  0  0  0  0  0  0  0  0
  -28.0091  -21.6625   16.0849 O   0  0  0  0  0  0  0  0  0  0  0  0
  -19.0851  -27.0504   22.5700 O   0  0  0  0  0  0  0  0  0  0  0  0
  -29.6095  -13.6696   19.5836 O   0  0  0  0  0  0  0  0  0  1  0  0
  -17.1567  -32.0444   23.8910 F   0  0  0  0  0  0  0  0  0  0  0  0
  -31.4186  -19.0480   18.0008 F   0  0  0  0  0  0  0  0  0  0  0  0
  -20.2789  -28.5504   24.5618 F   0  0  0  0  0  0  0  0  0  0  0  0
  1  2  1  0  0  0  0
  1  5  2  0  0  0  0
  2  6  2  0  0  0  0
  3  8  2  0  0  0  0
  3 17  1  0  0  0  0
  4  9  1  0  0  0  0
  4 17  2  0  0  0  0
  5 19  1  0  0  0  0
  6 21  1  0  0  0  0
  7 10  2  0  0  0  0
  7 20  1  0  0  0  0
  8 26  1  0  0  0  0
  9 26  2  0  0  0  0
 10 27  1  0  0  0  0
 11 12  2  0  0  0  0
 11 28  1  0  0  0  0
 12 29  1  0  0  0  0
 13 22  2  0  0  0  0
 13 24  1  0  0  0  0
 14 23  1  0  0  0  0
 14 27  2  0  0  0  0
 15 25  2  0  0  0  0
 15 30  1  0  0  0  0
 16 29  2  0  0  0  0
 16 31  1  0  0  0  0
 17 32  1  0  0  0  0
 18 32  1  0  0  0  0
 18 33  2  0  0  0  0
 18 34  1  0  0  0  0
 19 21  2  0  0  0  0
 19 40  1  0  0  0  0
 20 23  2  0  0  0  0
 20 41  1  0  0  0  0
 21 52  1  0  0  0  0
 22 25  1  0  0  0  0
 22 51  1  0  0  0  0
 23 42  1  0  0  0  0
 24 30  2  0  0  0  0
 24 77  1  0  0  0  0
 25 76  1  0  0  0  0
 26 87  1  0  0  0  0
 27 88  1  0  0  0  0
 28 31  2  0  0  0  0
 28 87  1  0  0  0  0
 29 89  1  0  0  0  0
 30 90  1  0  0  0  0
 31 91  1  0  0  0  0
 32 70  2  0  0  0  0
 33 71  1  0  0  0  0
 33 74  1  0  0  0  0
 34 75  1  0  0  0  0
 34 81  2  0  0  0  0
 35 53  1  0  0  0  0
 35 78  1  0  0  0  0
 35 82  2  0  0  0  0
 36 63  1  0  0  0  0
 36 68  1  0  0  0  0
 36 83  2  0  0  0  0
 37 65  1  0  0  0  0
 37 72  1  0  0  0  0
 37 84  2  0  0  0  0
 38 66  1  0  0  0  0
 38 79  1  0  0  0  0
 38 85  2  0  0  0  0
 39 73  1  0  0  0  0
 39 76  1  0  0  0  0
 39 86  2  0  0  0  0
 40 43  1  0  0  0  0
 41 53  1  0  0  0  0
 42 72  1  0  0  0  0
 43 47  1  0  0  0  0
 44 48  1  0  0  0  0
 44 49  1  0  0  0  0
 45 46  1  0  0  0  0
 45 51  1  0  0  0  0
 46 51  1  0  0  0  0
 47 52  1  0  0  0  0
 48 54  1  0  0  0  0
 49 73  1  0  0  0  0
 50 54  1  0  0  0  0
 50 73  1  0  0  0  0
 52 78  1  0  0  0  0
 53 72  1  0  0  0  0
 54 71  1  0  0  0  0
 55 64  1  0  0  0  0
 56 66  1  0  0  0  0
 57 67  1  0  0  0  0
 58 68  1  0  0  0  0
 59 69  1  0  0  0  0
 60 69  1  0  0  0  0
 61 69  1  0  0  0  0
 62 80  1  0  0  0  0
 63 88  1  0  0  0  0
 64 68  1  0  0  0  0
 65 69  1  0  0  0  0
 65 79  1  0  0  0  0
 66 80  1  0  0  0  0
 67 68  1  0  0  0  0
 67 77  1  0  0  0  0
 70 71  1  0  0  0  0
M  CHG  1  80   1
M  ISO  4  39 100  63 101  76 100  88 101
M  END
> <Batch ID>
0144

> <Smiles>
CCC(C)(C(=O)[101CH2:1][101O:1]c1ccc2c(c1)CN(C(=O)C(NC(=O)C(C)NC)C(C)(C)C)C(C(=O)NC1CCCc3ccccc31)C2)C(C)Nc1cc(C2CC2)c([100NH:0][100C:0](=O)N2CCCC(n3nc(-c4ccc(Oc5ccc(F)cc5F)cc4)c(C(N)=O)c3N)C2)cc1F

> <Shape>
0.227

> <Color>
0.058

> <Negative vol penalty>
0.000

$$$$

  -OEChem-04052303043D

 88 96  0     1  0  0  0  0  0999 V2000
  -24.6753  -33.6320   14.5175 C   0  0  0  0  0  0  0  0  0  0  0  0
  -25.4697  -32.6815   15.1508 C   0  0  0  0  0  0  0  0  0  0  0  0
  -23.5976  -19.5155   20.2365 C   0  0  0  0  0  0  0  0  0  0  0  0
  -24.3447   -8.7842   20.8823 C   0  0  0  0  0  0  0  0  0  0  0  0
  -22.6070  -10.4530   21.0619 C   0  0  0  0  0  0  0  0  0  0  0  0
  -24.1410  -34.6917   15.2493 C   0  0  0  0  0  0  0  0  0  0  0  0
  -25.7311  -32.7909   16.5162 C   0  0  0  0  0  0  0  0  0  0  0  0
  -25.2511  -28.3738   18.9459 C   0  0  0  0  0  0  0  0  0  0  0  0
  -24.4687  -20.4948   20.7138 C   0  0  0  0  0  0  0  0  0  0  0  0
  -24.1051  -18.3309   19.7026 C   0  0  0  0  0  0  0  0  0  0  0  0
  -23.7952   -8.0955   21.9637 C   0  0  0  0  0  0  0  0  0  0  0  0
  -22.0574   -9.7643   22.1432 C   0  0  0  0  0  0  0  0  0  0  0  0
  -26.3002  -27.4634   18.8253 C   0  0  0  0  0  0  0  0  0  0  0  0
  -21.2086   -5.9905   22.5216 C   0  0  0  0  0  0  0  0  0  0  0  0
  -21.0797   -4.6061   22.4106 C   0  0  0  0  0  0  0  0  0  0  0  0
  -27.1283  -28.1404   20.9875 C   0  0  0  0  0  0  0  0  0  0  0  0
  -26.3547  -19.1051   20.1231 C   0  0  0  0  0  0  0  0  0  0  0  0
  -22.5105   -4.3185   24.3360 C   0  0  0  0  0  0  0  0  0  0  0  0
  -23.7507   -9.9630   20.4314 C   0  0  0  0  0  0  0  0  0  0  0  0
  -24.0113  -10.5025   17.9518 C   0  0  0  0  0  0  0  0  0  0  0  0
  -24.3880  -34.8087   16.6262 C   0  0  0  0  0  0  0  0  0  0  0  0
  -25.1387  -29.1834   20.0853 C   0  0  0  0  0  0  0  0  0  0  0  0
  -25.2007  -33.8539   17.2668 C   0  0  0  0  0  0  0  0  0  0  0  0
  -26.0754  -29.0584   21.1213 C   0  0  0  0  0  0  0  0  0  0  0  0
  -25.8472  -20.2896   20.6571 C   0  0  0  0  0  0  0  0  0  0  0  0
  -25.4836  -18.1258   19.6459 C   0  0  0  0  0  0  0  0  0  0  0  0
  -22.6515   -8.5855   22.5941 C   0  0  0  0  0  0  0  0  0  0  0  0
  -27.2406  -27.3487   19.8448 C   0  0  0  0  0  0  0  0  0  0  0  0
  -21.9885   -6.5390   23.5398 C   0  0  0  0  0  0  0  0  0  0  0  0
  -21.7306   -3.7701   23.3178 C   0  0  0  0  0  0  0  0  0  0  0  0
  -22.6394   -5.7030   24.4470 C   0  0  0  0  0  0  0  0  0  0  0  0
  -24.3182  -10.6751   19.3148 C   0  0  0  0  0  0  0  0  0  0  0  0
  -24.8132  -11.4087   17.3019 C   0  0  0  0  0  0  0  0  0  0  0  0
  -23.0843   -9.6035   17.3289 C   0  0  0  0  0  0  0  0  0  0  0  0
  -25.1941  -32.3152   20.6261 C   0  0  0  0  0  0  0  0  0  0  0  0
  -24.4306  -31.4130   23.6469 C   0  0  0  0  0  0  0  0  0  0  0  0
  -24.4738  -28.9836   26.0434 C   0  0  0  0  0  0  0  0  0  0  0  0
  -28.1218  -21.2493   21.1647 C   0  0  0  0  0  0  0  0  0  0  0  0
  -27.3387  -16.5598   18.9729 C   0  0  0  0  0  0  0  0  0  0  0  0
  -23.8276  -35.9976   17.3658 C   0  0  0  0  0  0  0  0  0  0  0  0
  -23.9861  -30.1414   20.2120 C   0  0  0  0  0  0  0  0  0  0  0  0
  -25.9880  -29.8900   22.3739 C   0  0  0  0  0  0  0  0  0  0  0  0
  -23.8443  -35.8341   18.8835 C   0  0  0  0  0  0  0  0  0  0  0  0
  -29.0109  -13.6743   17.7260 C   0  0  0  0  0  0  0  0  0  0  0  0
  -25.1980  -35.3069   19.3487 C   0  0  0  0  0  0  0  0  0  0  0  0
  -27.9673  -12.5633   17.8623 C   0  0  0  0  0  0  0  0  0  0  0  0
  -28.9418  -14.6630   18.8886 C   0  0  0  0  0  0  0  0  0  0  0  0
  -26.5691  -14.1242   19.2750 C   0  0  0  0  0  0  0  0  0  0  0  0
  -25.4866  -33.9244   18.7512 C   0  0  1  0  0  0  0  0  0  0  0  0
  -24.2608  -31.2808   21.1887 C   0  0  1  0  0  0  0  0  0  0  0  0
  -26.5569  -13.1402   18.0937 C   0  0  2  0  0  0  0  0  0  0  0  0
  -23.8097  -28.5537   28.4249 C   0  0  0  0  0  0  0  0  0  0  0  0
  -28.2353  -22.6654   23.2224 C   0  0  0  0  0  0  0  0  0  0  0  0
  -30.2885  -22.3285   21.8820 C   0  0  0  0  0  0  0  0  0  0  0  0
  -26.8189  -33.0518   24.6062 C   0  0  0  0  0  0  0  0  0  0  0  0
  -26.6801  -31.8439   26.7948 C   0  0  0  0  0  0  0  0  0  0  0  0
  -24.7729  -33.2580   26.0296 C   0  0  0  0  0  0  0  0  0  0  0  0
  -30.3288  -24.4337   19.4225 C   0  0  0  0  0  0  0  0  0  0  0  0
  -28.5452  -22.8782   18.5924 C   0  0  0  0  0  0  0  0  0  0  0  0
  -22.6377  -26.7991   25.2589 C   0  0  0  0  0  0  0  0  0  0  0  0
  -28.3946  -23.8286   20.9988 C   0  0  0  0  0  0  0  0  0  0  0  0
  -28.0208  -25.2807   18.9670 C   0  0  0  0  0  0  0  0  0  1  0  0
  -25.2149  -31.0479   24.8841 C   0  0  1  0  0  0  0  0  0  0  0  0
  -23.3885  -28.4599   26.9666 C   0  0  2  0  0  0  0  0  0  0  0  0
  -28.7665  -22.5245   21.7733 C   0  0  0  0  0  0  0  0  0  0  0  0
  -25.8747  -32.2860   25.5543 C   0  0  0  0  0  0  0  0  0  0  0  0
  -28.8321  -24.0712   19.5150 C   0  0  0  0  0  0  0  0  0  0  0  0
  -25.2430  -11.6168   19.5199 N   0  0  0  0  0  0  0  0  0  0  0  0
  -25.5242  -12.0440   18.2771 N   0  0  0  0  0  0  0  0  0  0  0  0
  -24.8465  -30.8168   22.4480 N   0  0  0  0  0  0  0  0  0  0  0  0
  -27.5772  -15.1711   19.0452 N   0  0  0  0  0  0  0  0  0  0  0  0
  -24.9724  -11.7160   15.9971 N   0  0  0  0  0  0  0  0  0  0  0  0
  -22.3403   -8.7400   18.1445 N   0  0  0  0  0  0  0  0  0  0  0  0
  -26.7310  -21.2842   21.1423 N   0  0  0  0  0  0  0  0  0  0  0  0
  -25.9985  -16.9222   19.1035 N   0  0  0  0  0  0  0  0  0  0  0  0
  -24.7450  -32.9030   19.4590 N   0  0  0  0  0  0  0  0  0  0  0  0
  -24.2947  -30.3190   25.7504 N   0  0  0  0  0  0  0  0  0  0  0  0
  -23.0870  -27.0341   26.6552 N   0  3  0  0  0  0  0  0  0  0  0  0
  -22.9324   -9.5556   16.0846 O   0  0  0  0  0  0  0  0  0  0  0  0
  -26.2435  -32.5628   21.2087 O   0  0  0  0  0  0  0  0  0  0  0  0
  -23.4794  -32.1926   23.7421 O   0  0  0  0  0  0  0  0  0  0  0  0
  -25.3910  -28.2794   25.6270 O   0  0  0  0  0  0  0  0  0  0  0  0
  -28.8218  -20.3171   20.7714 O   0  0  0  0  0  0  0  0  0  0  0  0
  -28.2524  -17.3660   18.7803 O   0  0  0  0  0  0  0  0  0  0  0  0
  -22.1148   -7.9137   23.6492 O   0  0  0  0  0  0  0  0  0  0  0  0
  -28.2729  -26.4553   19.7286 O   0  0  0  0  0  0  0  0  0  1  0  0
  -21.6055   -2.4407   23.2120 F   0  0  0  0  0  0  0  0  0  0  0  0
  -23.3891   -6.2241   25.4280 F   0  0  0  0  0  0  0  0  0  0  0  0
  1  2  1  0  0  0  0
  1  6  2  0  0  0  0
  2  7  2  0  0  0  0
  3  9  2  0  0  0  0
  3 10  1  0  0  0  0
  4 11  2  0  0  0  0
  4 19  1  0  0  0  0
  5 12  1  0  0  0  0
  5 19  2  0  0  0  0
  6 21  1  0  0  0  0
  7 23  1  0  0  0  0
  8 13  2  0  0  0  0
  8 22  1  0  0  0  0
  9 25  1  0  0  0  0
 10 26  2  0  0  0  0
 11 27  1  0  0  0  0
 12 27  2  0  0  0  0
 13 28  1  0  0  0  0
 14 15  2  0  0  0  0
 14 29  1  0  0  0  0
 15 30  1  0  0  0  0
 16 24  1  0  0  0  0
 16 28  2  0  0  0  0
 17 25  2  0  0  0  0
 17 26  1  0  0  0  0
 18 30  2  0  0  0  0
 18 31  1  0  0  0  0
 19 32  1  0  0  0  0
 20 32  1  0  0  0  0
 20 33  2  0  0  0  0
 20 34  1  0  0  0  0
 21 23  2  0  0  0  0
 21 40  1  0  0  0  0
 22 24  2  0  0  0  0
 22 41  1  0  0  0  0
 23 49  1  0  0  0  0
 24 42  1  0  0  0  0
 25 74  1  0  0  0  0
 26 75  1  0  0  0  0
 27 85  1  0  0  0  0
 28 86  1  0  0  0  0
 29 31  2  0  0  0  0
 29 85  1  0  0  0  0
 30 87  1  0  0  0  0
 31 88  1  0  0  0  0
 32 68  2  0  0  0  0
 33 69  1  0  0  0  0
 33 72  1  0  0  0  0
 34 73  1  0  0  0  0
 34 79  2  0  0  0  0
 35 50  1  0  0  0  0
 35 76  1  0  0  0  0
 35 80  2  0  0  0  0
 36 63  1  0  0  0  0
 36 70  1  0  0  0  0
 36 81  2  0  0  0  0
 37 64  1  0  0  0  0
 37 77  1  0  0  0  0
 37 82  2  0  0  0  0
 38 65  1  0  0  0  0
 38 74  1  0  0  0  0
 38 83  2  0  0  0  0
 39 71  1  0  0  0  0
 39 75  1  0  0  0  0
 39 84  2  0  0  0  0
 40 43  1  0  0  0  0
 41 50  1  0  0  0  0
 42 70  1  0  0  0  0
 43 45  1  0  0  0  0
 44 46  1  0  0  0  0
 44 47  1  0  0  0  0
 45 49  1  0  0  0  0
 46 51  1  0  0  0  0
 47 71  1  0  0  0  0
 48 51  1  0  0  0  0
 48 71  1  0  0  0  0
 49 76  1  0  0  0  0
 50 70  1  0  0  0  0
 51 69  1  0  0  0  0
 52 64  1  0  0  0  0
 53 65  1  0  0  0  0
 54 65  1  0  0  0  0
 55 66  1  0  0  0  0
 56 66  1  0  0  0  0
 57 66  1  0  0  0  0
 58 67  1  0  0  0  0
 59 67  1  0  0  0  0
 60 78  1  0  0  0  0
 61 65  1  0  0  0  0
 61 67  1  0  0  0  0
 62 67  1  0  0  0  0
 62 86  1  0  0  0  0
 63 66  1  0  0  0  0
 63 77  1  0  0  0  0
 64 78  1  0  0  0  0
 68 69  1  0  0  0  0
M  CHG  1  78   1
M  ISO  4  39 100  62 101  75 100  86 101
M  END
> <Batch ID>
0144

> <Smiles>
CNC(C)C(=O)NC(C(=O)N1Cc2cc([101O:1][101CH2:1]C(C)(C)CC(C)(C)C(=O)Nc3cccc([100NH:0][100C:0](=O)N4CCCC(n5nc(-c6ccc(Oc7ccc(F)cc7F)cc6)c(C(N)=O)c5N)C4)c3)ccc2CC1C(=O)NC1CCCc2ccccc21)C(C)(C)C

> <Shape>
0.248

> <Color>
0.120

> <Negative vol penalty>
0.000

$$$$

  -OEChem-04052303043D

 88 97  0     1  0  0  0  0  0999 V2000
  -30.8123  -33.0500   23.8778 C   0  0  0  0  0  0  0  0  0  0  0  0
  -30.9723  -31.8231   24.5138 C   0  0  0  0  0  0  0  0  0  0  0  0
  -23.0776   -9.8669   19.9394 C   0  0  0  0  0  0  0  0  0  0  0  0
  -23.8362   -9.8738   22.2332 C   0  0  0  0  0  0  0  0  0  0  0  0
  -30.4617  -18.3437   24.0478 C   0  0  0  0  0  0  0  0  0  0  0  0
  -32.6466  -17.4966   23.4599 C   0  0  0  0  0  0  0  0  0  0  0  0
  -29.5824  -33.3865   23.3139 C   0  0  0  0  0  0  0  0  0  0  0  0
  -29.9019  -30.9324   24.5873 C   0  0  0  0  0  0  0  0  0  0  0  0
  -31.2539  -26.1763   23.4933 C   0  0  0  0  0  0  0  0  0  0  0  0
  -29.8752  -17.4594   23.1425 C   0  0  0  0  0  0  0  0  0  0  0  0
  -32.0601  -16.6123   22.5545 C   0  0  0  0  0  0  0  0  0  0  0  0
  -22.3342   -8.7134   20.1886 C   0  0  0  0  0  0  0  0  0  0  0  0
  -23.0927   -8.7202   22.4825 C   0  0  0  0  0  0  0  0  0  0  0  0
  -31.9121  -25.4563   24.4894 C   0  0  0  0  0  0  0  0  0  0  0  0
  -21.1084   -5.9819   23.8174 C   0  0  0  0  0  0  0  0  0  0  0  0
  -20.3515   -5.9376   24.9881 C   0  0  0  0  0  0  0  0  0  0  0  0
  -29.8433  -24.3478   25.0467 C   0  0  0  0  0  0  0  0  0  0  0  0
  -19.1064   -7.8745   24.2563 C   0  0  0  0  0  0  0  0  0  0  0  0
  -23.8287  -10.4471   20.9616 C   0  0  0  0  0  0  0  0  0  0  0  0
  -31.8474  -18.3623   24.2065 C   0  0  0  0  0  0  0  0  0  0  0  0
  -24.1694  -12.9725   20.8423 C   0  0  0  0  0  0  0  0  0  0  0  0
  -28.4992  -32.4954   23.3720 C   0  0  0  0  0  0  0  0  0  0  0  0
  -29.8809  -25.9951   23.2734 C   0  0  0  0  0  0  0  0  0  0  0  0
  -28.6560  -31.2578   24.0248 C   0  0  0  0  0  0  0  0  0  0  0  0
  -29.1706  -25.0648   24.0455 C   0  0  0  0  0  0  0  0  0  0  0  0
  -30.6744  -16.5937   22.3958 C   0  0  0  0  0  0  0  0  0  0  0  0
  -22.3417   -8.1400   21.4602 C   0  0  0  0  0  0  0  0  0  0  0  0
  -31.2062  -24.5440   25.2682 C   0  0  0  0  0  0  0  0  0  0  0  0
  -20.8644   -6.9724   22.8661 C   0  0  0  0  0  0  0  0  0  0  0  0
  -19.3505   -6.8839   25.2076 C   0  0  0  0  0  0  0  0  0  0  0  0
  -19.8634   -7.9187   23.0855 C   0  0  0  0  0  0  0  0  0  0  0  0
  -24.5974  -11.6384   20.7046 C   0  0  0  0  0  0  0  0  0  0  0  0
  -25.2614  -13.7225   20.4799 C   0  0  0  0  0  0  0  0  0  0  0  0
  -32.1288  -20.2661   27.3464 C   0  0  0  0  0  0  0  0  0  0  0  0
  -31.7574  -19.8482   28.5651 C   0  0  0  0  0  0  0  0  0  0  0  0
  -32.4672  -19.2967   25.1630 C   0  0  0  0  0  0  0  0  0  0  0  0
  -22.8984  -13.4876   21.2607 C   0  0  0  0  0  0  0  0  0  0  0  0
  -32.4749  -21.6603   27.0076 C   0  0  0  0  0  0  0  0  0  0  0  0
  -27.3151  -27.8631   23.4496 C   0  0  0  0  0  0  0  0  0  0  0  0
  -25.8187  -25.2637   22.2141 C   0  0  0  0  0  0  0  0  0  0  0  0
  -25.7842  -21.8805   21.7671 C   0  0  0  0  0  0  0  0  0  0  0  0
  -30.7270  -14.7707   20.6579 C   0  0  0  0  0  0  0  0  0  0  0  0
  -27.1754  -32.9229   22.7894 C   0  0  0  0  0  0  0  0  0  0  0  0
  -29.1912  -26.7599   22.1771 C   0  0  0  0  0  0  0  0  0  0  0  0
  -27.6996  -24.8185   23.8357 C   0  0  0  0  0  0  0  0  0  0  0  0
  -31.4803  -18.3685   28.5457 C   0  0  0  0  0  0  0  0  0  0  0  0
  -26.1994  -31.7676   22.5825 C   0  0  0  0  0  0  0  0  0  0  0  0
  -29.6151  -12.3569   18.2884 C   0  0  0  0  0  0  0  0  0  0  0  0
  -26.1538  -30.8789   23.8214 C   0  0  0  0  0  0  0  0  0  0  0  0
  -28.1753  -12.0645   18.7171 C   0  0  0  0  0  0  0  0  0  0  0  0
  -31.7504  -17.9600   27.0938 C   0  0  0  0  0  0  0  0  0  0  0  0
  -30.5294  -12.5859   19.4906 C   0  0  0  0  0  0  0  0  0  0  0  0
  -28.6213  -13.3091   20.8710 C   0  0  0  0  0  0  0  0  0  0  0  0
  -27.5257  -30.2545   24.1034 C   0  0  1  0  0  0  0  0  0  0  0  0
  -27.6837  -26.8709   22.3832 C   0  0  1  0  0  0  0  0  0  0  0  0
  -27.6492  -13.1357   19.6926 C   0  0  2  0  0  0  0  0  0  0  0  0
  -31.5953  -20.6004   29.8395 C   0  0  0  0  0  0  0  0  0  0  0  0
  -24.4127  -20.0419   20.7494 C   0  0  0  0  0  0  0  0  0  0  0  0
  -23.8550  -25.4430   24.5426 C   0  0  0  0  0  0  0  0  0  0  0  0
  -23.1319  -23.1032   24.0220 C   0  0  0  0  0  0  0  0  0  0  0  0
  -22.8088  -24.9114   22.3341 C   0  0  0  0  0  0  0  0  0  0  0  0
  -27.9696  -21.1121   19.9253 C   0  0  0  0  0  0  0  0  0  0  0  0
  -31.3392  -22.5411   26.5436 C   0  0  0  0  0  0  0  0  0  1  0  0
  -25.1396  -24.0457   22.7923 C   0  0  1  0  0  0  0  0  0  0  0  0
  -25.5481  -21.0300   20.5321 C   0  0  2  0  0  0  0  0  0  0  0  0
  -23.7611  -24.3817   23.4282 C   0  0  0  0  0  0  0  0  0  0  0  0
  -25.8625  -11.5433   20.2870 N   0  0  0  0  0  0  0  0  0  0  0  0
  -26.2389  -12.8271   20.1591 N   0  0  0  0  0  0  0  0  0  0  0  0
  -32.1471  -19.2231   26.4415 N   0  0  0  0  0  0  0  0  0  0  0  0
  -27.0687  -25.5953   22.7558 N   0  0  0  0  0  0  0  0  0  0  0  0
  -29.9694  -13.6163   20.3679 N   0  0  0  0  0  0  0  0  0  0  0  0
  -25.4712  -15.0541   20.4072 N   0  0  0  0  0  0  0  0  0  0  0  0
  -21.8868  -12.5778   21.5972 N   0  0  0  0  0  0  0  0  0  0  0  0
  -30.0787  -15.6953   21.4761 N   0  0  0  0  0  0  0  0  0  0  0  0
  -27.7700  -29.1451   23.2068 N   0  0  0  0  0  0  0  0  0  0  0  0
  -25.0774  -23.0633   21.7155 N   0  0  0  0  0  0  0  0  0  0  0  0
  -33.3405  -20.1980   24.7233 N   0  3  0  0  0  0  0  0  0  0  0  0
  -26.7789  -20.2635   20.1880 N   0  3  0  0  0  0  0  0  0  0  0  0
  -22.6616  -14.7181   21.3181 O   0  0  0  0  0  0  0  0  0  0  0  0
  -33.6353  -22.0477   27.1104 O   0  0  0  0  0  0  0  0  0  0  0  0
  -26.6649  -27.4932   24.4202 O   0  0  0  0  0  0  0  0  0  0  0  0
  -25.2639  -25.8935   21.3101 O   0  0  0  0  0  0  0  0  0  0  0  0
  -26.5190  -21.5290   22.6875 O   0  0  0  0  0  0  0  0  0  0  0  0
  -31.8563  -14.9401   20.1909 O   0  0  0  0  0  0  0  0  0  0  0  0
  -21.6162   -7.0145   21.7039 O   0  0  0  0  0  0  0  0  0  0  0  0
  -31.8460  -23.8404   26.2416 O   0  0  0  0  0  0  0  0  0  1  0  0
  -18.6227   -6.8404   26.3312 F   0  0  0  0  0  0  0  0  0  0  0  0
  -19.6235   -8.8720   22.1747 F   0  0  0  0  0  0  0  0  0  0  0  0
  1  2  1  0  0  0  0
  1  7  2  0  0  0  0
  2  8  2  0  0  0  0
  3 12  2  0  0  0  0
  3 19  1  0  0  0  0
  4 13  1  0  0  0  0
  4 19  2  0  0  0  0
  5 10  2  0  0  0  0
  5 20  1  0  0  0  0
  6 11  1  0  0  0  0
  6 20  2  0  0  0  0
  7 22  1  0  0  0  0
  8 24  1  0  0  0  0
  9 14  2  0  0  0  0
  9 23  1  0  0  0  0
 10 26  1  0  0  0  0
 11 26  2  0  0  0  0
 12 27  1  0  0  0  0
 13 27  2  0  0  0  0
 14 28  1  0  0  0  0
 15 16  2  0  0  0  0
 15 29  1  0  0  0  0
 16 30  1  0  0  0  0
 17 25  1  0  0  0  0
 17 28  2  0  0  0  0
 18 30  2  0  0  0  0
 18 31  1  0  0  0  0
 19 32  1  0  0  0  0
 20 36  1  0  0  0  0
 21 32  1  0  0  0  0
 21 33  2  0  0  0  0
 21 37  1  0  0  0  0
 22 24  2  0  0  0  0
 22 43  1  0  0  0  0
 23 25  2  0  0  0  0
 23 44  1  0  0  0  0
 24 54  1  0  0  0  0
 25 45  1  0  0  0  0
 26 74  1  0  0  0  0
 27 85  1  0  0  0  0
 28 86  1  0  0  0  0
 29 31  2  0  0  0  0
 29 85  1  0  0  0  0
 30 87  1  0  0  0  0
 31 88  1  0  0  0  0
 32 67  2  0  0  0  0
 33 68  1  0  0  0  0
 33 72  1  0  0  0  0
 34 35  2  0  0  0  0
 34 38  1  0  0  0  0
 34 69  1  0  0  0  0
 35 46  1  0  0  0  0
 35 57  1  0  0  0  0
 36 69  1  0  0  0  0
 36 77  2  0  0  0  0
 37 73  1  0  0  0  0
 37 79  2  0  0  0  0
 38 63  1  0  0  0  0
 38 80  2  0  0  0  0
 39 55  1  0  0  0  0
 39 75  1  0  0  0  0
 39 81  2  0  0  0  0
 40 64  1  0  0  0  0
 40 70  1  0  0  0  0
 40 82  2  0  0  0  0
 41 65  1  0  0  0  0
 41 76  1  0  0  0  0
 41 83  2  0  0  0  0
 42 71  1  0  0  0  0
 42 74  1  0  0  0  0
 42 84  2  0  0  0  0
 43 47  1  0  0  0  0
 44 55  1  0  0  0  0
 45 70  1  0  0  0  0
 46 51  1  0  0  0  0
 47 49  1  0  0  0  0
 48 50  1  0  0  0  0
 48 52  1  0  0  0  0
 49 54  1  0  0  0  0
 50 56  1  0  0  0  0
 51 69  1  0  0  0  0
 52 71  1  0  0  0  0
 53 56  1  0  0  0  0
 53 71  1  0  0  0  0
 54 75  1  0  0  0  0
 55 70  1  0  0  0  0
 56 68  1  0  0  0  0
 58 65  1  0  0  0  0
 59 66  1  0  0  0  0
 60 66  1  0  0  0  0
 61 66  1  0  0  0  0
 62 78  1  0  0  0  0
 63 86  1  0  0  0  0
 64 66  1  0  0  0  0
 64 76  1  0  0  0  0
 65 78  1  0  0  0  0
 67 68  1  0  0  0  0
M  CHG  2  77   1  78   1
M  ISO  4  42 100  63 101  74 100  86 101
M  END
> <Batch ID>
0144

> <Smiles>
C=C1CCN(C(=N)c2ccc([100NH:0][100C:0](=O)N3CCCC(n4nc(-c5ccc(Oc6ccc(F)cc6F)cc5)c(C(N)=O)c4N)C3)cc2)C1C(=O)[101CH2:1][101O:1]c1ccc2c(c1)CN(C(=O)C(NC(=O)C(C)NC)C(C)(C)C)C(C(=O)NC1CCCc3ccccc31)C2

> <Shape>
0.211

> <Color>
0.184

> <Negative vol penalty>
0.000

$$$$

  -OEChem-04052303043D

 88 97  0     1  0  0  0  0  0999 V2000
  -18.2440  -26.9478   21.7348 C   0  0  0  0  0  0  0  0  0  0  0  0
  -19.2846  -27.6350   21.1181 C   0  0  0  0  0  0  0  0  0  0  0  0
  -22.8611  -11.2592   22.3647 C   0  0  0  0  0  0  0  0  0  0  0  0
  -23.4674   -9.6974   20.6239 C   0  0  0  0  0  0  0  0  0  0  0  0
  -18.3581  -26.5647   23.0705 C   0  0  0  0  0  0  0  0  0  0  0  0
  -20.4396  -27.9404   21.8372 C   0  0  0  0  0  0  0  0  0  0  0  0
  -26.8934  -25.5980   19.6571 C   0  0  0  0  0  0  0  0  0  0  0  0
  -29.6855  -18.2554   21.4043 C   0  0  0  0  0  0  0  0  0  0  0  0
  -31.8720  -17.2456   21.5951 C   0  0  0  0  0  0  0  0  0  0  0  0
  -22.0085  -10.3065   22.9224 C   0  0  0  0  0  0  0  0  0  0  0  0
  -22.6148   -8.7447   21.1817 C   0  0  0  0  0  0  0  0  0  0  0  0
  -28.1873  -25.3650   19.1906 C   0  0  0  0  0  0  0  0  0  0  0  0
  -18.9161   -9.0792   22.3267 C   0  0  0  0  0  0  0  0  0  0  0  0
  -17.6450   -9.4988   22.7191 C   0  0  0  0  0  0  0  0  0  0  0  0
  -30.1805  -19.4331   21.9643 C   0  0  0  0  0  0  0  0  0  0  0  0
  -32.3671  -18.4233   22.1551 C   0  0  0  0  0  0  0  0  0  0  0  0
  -29.1011  -26.3827   21.1849 C   0  0  0  0  0  0  0  0  0  0  0  0
  -18.1254   -8.8295   24.9903 C   0  0  0  0  0  0  0  0  0  0  0  0
  -23.5906  -10.9546   21.2154 C   0  0  0  0  0  0  0  0  0  0  0  0
  -24.1203  -13.2120   20.1517 C   0  0  0  0  0  0  0  0  0  0  0  0
  -19.5191  -26.8572   23.8036 C   0  0  0  0  0  0  0  0  0  0  0  0
  -26.6982  -26.2110   20.8978 C   0  0  0  0  0  0  0  0  0  0  0  0
  -20.5689  -27.5621   23.1844 C   0  0  0  0  0  0  0  0  0  0  0  0
  -27.8073  -26.6074   21.6631 C   0  0  0  0  0  0  0  0  0  0  0  0
  -30.5313  -17.1616   21.2197 C   0  0  0  0  0  0  0  0  0  0  0  0
  -21.8853   -9.0493   22.3309 C   0  0  0  0  0  0  0  0  0  0  0  0
  -29.2884  -25.7567   19.9525 C   0  0  0  0  0  0  0  0  0  0  0  0
  -19.7918   -8.5347   23.2660 C   0  0  0  0  0  0  0  0  0  0  0  0
  -17.2497   -9.3740   24.0509 C   0  0  0  0  0  0  0  0  0  0  0  0
  -19.3964   -8.4099   24.5979 C   0  0  0  0  0  0  0  0  0  0  0  0
  -31.5213  -19.5171   22.3397 C   0  0  0  0  0  0  0  0  0  0  0  0
  -24.4711  -11.9385   20.6385 C   0  0  0  0  0  0  0  0  0  0  0  0
  -25.3054  -13.7505   19.7135 C   0  0  0  0  0  0  0  0  0  0  0  0
  -22.8379  -13.8511   20.1004 C   0  0  0  0  0  0  0  0  0  0  0  0
  -24.2518  -27.4480   23.4593 C   0  0  0  0  0  0  0  0  0  0  0  0
  -26.5497  -26.1143   24.9928 C   0  0  0  0  0  0  0  0  0  0  0  0
  -28.4974  -24.4678   27.2583 C   0  0  0  0  0  0  0  0  0  0  0  0
  -30.7327  -14.7882   20.3994 C   0  0  0  0  0  0  0  0  0  0  0  0
  -19.5772  -26.4642   25.2585 C   0  0  0  0  0  0  0  0  0  0  0  0
  -25.3224  -26.5372   21.4121 C   0  0  0  0  0  0  0  0  0  0  0  0
  -27.5493  -27.2948   22.9760 C   0  0  0  0  0  0  0  0  0  0  0  0
  -20.9872  -26.4971   25.8425 C   0  0  0  0  0  0  0  0  0  0  0  0
  -29.8465  -11.6160   19.0472 C   0  0  0  0  0  0  0  0  0  0  0  0
  -21.6989  -27.7869   25.4467 C   0  0  0  0  0  0  0  0  0  0  0  0
  -28.3402  -11.5218   19.3006 C   0  0  0  0  0  0  0  0  0  0  0  0
  -33.3278  -23.2577   22.0940 C   0  0  0  0  0  0  0  0  0  0  0  0
  -31.5492  -22.1627   20.6671 C   0  0  0  0  0  0  0  0  0  0  0  0
  -33.7599  -24.1102   20.9009 C   0  0  0  0  0  0  0  0  0  0  0  0
  -31.9818  -23.0147   19.4740 C   0  0  0  0  0  0  0  0  0  0  0  0
  -30.5719  -12.3170   20.1944 C   0  0  0  0  0  0  0  0  0  0  0  0
  -28.5236  -13.5377   20.8138 C   0  0  0  0  0  0  0  0  0  0  0  0
  -21.8478  -27.8900   23.9240 C   0  0  1  0  0  0  0  0  0  0  0  0
  -25.2039  -26.4103   22.9415 C   0  0  1  0  0  0  0  0  0  0  0  0
  -27.7414  -12.8970   19.6556 C   0  0  2  0  0  0  0  0  0  0  0  0
  -32.7004  -21.9395   21.6456 C   0  0  0  0  0  0  0  0  0  0  0  0
  -32.6258  -24.3592   19.8810 C   0  0  0  0  0  0  0  0  0  0  0  0
  -33.2185  -25.0298   18.6274 C   0  0  0  0  0  0  0  0  0  0  0  0
  -29.1543  -24.4960   29.6801 C   0  0  0  0  0  0  0  0  0  0  0  0
  -28.3676  -28.5067   24.4680 C   0  0  0  0  0  0  0  0  0  0  0  0
  -29.6459  -27.8983   26.5330 C   0  0  0  0  0  0  0  0  0  0  0  0
  -27.2370  -28.5247   26.6986 C   0  0  0  0  0  0  0  0  0  0  0  0
  -27.4023  -21.7551   27.7067 C   0  0  0  0  0  0  0  0  0  0  0  0
  -31.5664  -25.3102   20.4709 C   0  0  0  0  0  0  0  0  0  1  0  0
  -27.8709  -26.2914   25.6974 C   0  0  1  0  0  0  0  0  0  0  0  0
  -28.1943  -23.9301   28.6452 C   0  0  2  0  0  0  0  0  0  0  0  0
  -28.2771  -27.7865   25.8281 C   0  0  0  0  0  0  0  0  0  0  0  0
  -25.7768  -11.6831   20.5207 N   0  0  0  0  0  0  0  0  0  0  0  0
  -26.2569  -12.8036   19.9547 N   0  0  0  0  0  0  0  0  0  0  0  0
  -26.4548  -26.6192   23.6903 N   0  0  0  0  0  0  0  0  0  0  0  0
  -29.9526  -13.6148   20.4717 N   0  0  0  0  0  0  0  0  0  0  0  0
  -25.6160  -14.9368   19.1491 N   0  0  0  0  0  0  0  0  0  0  0  0
  -22.0454  -13.6680   18.9589 N   0  0  0  0  0  0  0  0  0  0  0  0
  -30.0284  -15.9652   20.6509 N   0  0  0  0  0  0  0  0  0  0  0  0
  -22.9297  -27.0462   23.4637 N   0  0  0  0  0  0  0  0  0  0  0  0
  -27.7510  -25.5911   26.9716 N   0  0  0  0  0  0  0  0  0  0  0  0
  -28.3085  -22.4443   28.6611 N   0  3  0  0  0  0  0  0  0  0  0  0
  -22.4144  -14.5767   21.0318 O   0  0  0  0  0  0  0  0  0  0  0  0
  -24.6839  -28.5334   23.8295 O   0  0  0  0  0  0  0  0  0  0  0  0
  -25.6234  -25.5493   25.5810 O   0  0  0  0  0  0  0  0  0  0  0  0
  -29.3172  -23.9457   26.5060 O   0  0  0  0  0  0  0  0  0  0  0  0
  -31.9308  -14.7540   20.1073 O   0  0  0  0  0  0  0  0  0  0  0  0
  -31.0258  -21.7040   23.6459 O   0  0  0  0  0  0  0  0  0  0  0  0
  -33.3181  -20.6771   23.8376 O   0  0  0  0  0  0  0  0  0  0  0  0
  -21.0536   -8.1194   22.8750 O   0  0  0  0  0  0  0  0  0  0  0  0
  -30.5488  -25.5222   19.4932 O   0  0  0  0  0  0  0  0  0  1  0  0
  -16.0296   -9.7783   24.4279 F   0  0  0  0  0  0  0  0  0  0  0  0
  -20.2337   -7.8887   25.5051 F   0  0  0  0  0  0  0  0  0  0  0  0
  -32.1478  -21.0076   23.0488 S   0  0  0  0  0  0  0  0  0  0  0  0
  1  2  1  0  0  0  0
  1  5  2  0  0  0  0
  2  6  2  0  0  0  0
  3 10  2  0  0  0  0
  3 19  1  0  0  0  0
  4 11  1  0  0  0  0
  4 19  2  0  0  0  0
  5 21  1  0  0  0  0
  6 23  1  0  0  0  0
  7 12  2  0  0  0  0
  7 22  1  0  0  0  0
  8 15  2  0  0  0  0
  8 25  1  0  0  0  0
  9 16  1  0  0  0  0
  9 25  2  0  0  0  0
 10 26  1  0  0  0  0
 11 26  2  0  0  0  0
 12 27  1  0  0  0  0
 13 14  2  0  0  0  0
 13 28  1  0  0  0  0
 14 29  1  0  0  0  0
 15 31  1  0  0  0  0
 16 31  2  0  0  0  0
 17 24  1  0  0  0  0
 17 27  2  0  0  0  0
 18 29  2  0  0  0  0
 18 30  1  0  0  0  0
 19 32  1  0  0  0  0
 20 32  1  0  0  0  0
 20 33  2  0  0  0  0
 20 34  1  0  0  0  0
 21 23  2  0  0  0  0
 21 39  1  0  0  0  0
 22 24  2  0  0  0  0
 22 40  1  0  0  0  0
 23 52  1  0  0  0  0
 24 41  1  0  0  0  0
 25 73  1  0  0  0  0
 26 84  1  0  0  0  0
 27 85  1  0  0  0  0
 28 30  2  0  0  0  0
 28 84  1  0  0  0  0
 29 86  1  0  0  0  0
 30 87  1  0  0  0  0
 31 88  1  0  0  0  0
 32 67  2  0  0  0  0
 33 68  1  0  0  0  0
 33 71  1  0  0  0  0
 34 72  1  0  0  0  0
 34 77  2  0  0  0  0
 35 53  1  0  0  0  0
 35 74  1  0  0  0  0
 35 78  2  0  0  0  0
 36 64  1  0  0  0  0
 36 69  1  0  0  0  0
 36 79  2  0  0  0  0
 37 65  1  0  0  0  0
 37 75  1  0  0  0  0
 37 80  2  0  0  0  0
 38 70  1  0  0  0  0
 38 73  1  0  0  0  0
 38 81  2  0  0  0  0
 39 42  1  0  0  0  0
 40 53  1  0  0  0  0
 41 69  1  0  0  0  0
 42 44  1  0  0  0  0
 43 45  1  0  0  0  0
 43 50  1  0  0  0  0
 44 52  1  0  0  0  0
 45 54  1  0  0  0  0
 46 48  1  0  0  0  0
 46 55  1  0  0  0  0
 47 49  1  0  0  0  0
 47 55  1  0  0  0  0
 48 56  1  0  0  0  0
 49 56  1  0  0  0  0
 50 70  1  0  0  0  0
 51 54  1  0  0  0  0
 51 70  1  0  0  0  0
 52 74  1  0  0  0  0
 53 69  1  0  0  0  0
 54 68  1  0  0  0  0
 55 88  1  0  0  0  0
 56 57  1  0  0  0  0
 56 63  1  0  0  0  0
 58 65  1  0  0  0  0
 59 66  1  0  0  0  0
 60 66  1  0  0  0  0
 61 66  1  0  0  0  0
 62 76  1  0  0  0  0
 63 85  1  0  0  0  0
 64 66  1  0  0  0  0
 64 75  1  0  0  0  0
 65 76  1  0  0  0  0
 67 68  1  0  0  0  0
 82 88  2  0  0  0  0
 83 88  2  0  0  0  0
M  CHG  1  76   1
M  ISO  4  38 100  63 101  73 100  85 101
M  END
> <Batch ID>
0144

> <Smiles>
CNC(C)C(=O)NC(C(=O)N1Cc2cc([101O:1][101CH2:1]C3(C)CCC(S(=O)(=O)c4ccc([100NH:0][100C:0](=O)N5CCCC(n6nc(-c7ccc(Oc8ccc(F)cc8F)cc7)c(C(N)=O)c6N)C5)cc4)CC3)ccc2CC1C(=O)NC1CCCc2ccccc21)C(C)(C)C

> <Shape>
0.213

> <Color>
0.142

> <Negative vol penalty>
0.000

$$$$

  -OEChem-04052303043D

 89 98  0     1  0  0  0  0  0999 V2000
  -37.9567  -27.7104   13.0182 C   0  0  0  0  0  0  0  0  0  0  0  0
  -36.8496  -27.2082   13.6946 C   0  0  0  0  0  0  0  0  0  0  0  0
  -23.1330   -9.8292   19.9475 C   0  0  0  0  0  0  0  0  0  0  0  0
  -23.8837   -9.8821   22.2433 C   0  0  0  0  0  0  0  0  0  0  0  0
  -37.9001  -27.9052   11.6388 C   0  0  0  0  0  0  0  0  0  0  0  0
  -35.6847  -26.9016   12.9921 C   0  0  0  0  0  0  0  0  0  0  0  0
  -33.7055  -22.4463   14.3625 C   0  0  0  0  0  0  0  0  0  0  0  0
  -31.0958  -19.2859   20.5251 C   0  0  0  0  0  0  0  0  0  0  0  0
  -30.9570  -17.8982   20.5487 C   0  0  0  0  0  0  0  0  0  0  0  0
  -22.4255   -8.6552   20.2059 C   0  0  0  0  0  0  0  0  0  0  0  0
  -23.1761   -8.7082   22.5017 C   0  0  0  0  0  0  0  0  0  0  0  0
  -32.9865  -22.4093   15.5565 C   0  0  0  0  0  0  0  0  0  0  0  0
  -19.9728   -7.8132   23.1007 C   0  0  0  0  0  0  0  0  0  0  0  0
  -19.2132   -7.7601   24.2693 C   0  0  0  0  0  0  0  0  0  0  0  0
  -29.4559  -19.4799   22.2887 C   0  0  0  0  0  0  0  0  0  0  0  0
  -30.9238  -22.5237   14.3110 C   0  0  0  0  0  0  0  0  0  0  0  0
  -20.5131   -5.8704   25.0285 C   0  0  0  0  0  0  0  0  0  0  0  0
  -23.8622  -10.4426   20.9662 C   0  0  0  0  0  0  0  0  0  0  0  0
  -29.3170  -18.0921   22.3122 C   0  0  0  0  0  0  0  0  0  0  0  0
  -24.1235  -12.9762   20.8232 C   0  0  0  0  0  0  0  0  0  0  0  0
  -36.7372  -27.5917   10.9176 C   0  0  0  0  0  0  0  0  0  0  0  0
  -33.0381  -22.5336   13.1323 C   0  0  0  0  0  0  0  0  0  0  0  0
  -35.6120  -27.0937   11.6019 C   0  0  0  0  0  0  0  0  0  0  0  0
  -31.6365  -22.5592   13.1027 C   0  0  0  0  0  0  0  0  0  0  0  0
  -30.3453  -20.0767   21.3952 C   0  0  0  0  0  0  0  0  0  0  0  0
  -30.0676  -17.3013   21.4422 C   0  0  0  0  0  0  0  0  0  0  0  0
  -22.4470   -8.0947   21.4830 C   0  0  0  0  0  0  0  0  0  0  0  0
  -31.5956  -22.4509   15.5310 C   0  0  0  0  0  0  0  0  0  0  0  0
  -21.0026   -6.8948   22.8959 C   0  0  0  0  0  0  0  0  0  0  0  0
  -19.4833   -6.7887   25.2332 C   0  0  0  0  0  0  0  0  0  0  0  0
  -21.2728   -5.9235   23.8599 C   0  0  0  0  0  0  0  0  0  0  0  0
  -24.5938  -11.6550   20.6997 C   0  0  0  0  0  0  0  0  0  0  0  0
  -25.1925  -13.7567   20.4566 C   0  0  0  0  0  0  0  0  0  0  0  0
  -29.7995  -22.4232   22.1854 C   0  0  0  0  0  0  0  0  0  0  0  0
  -28.3772  -17.4998   23.2559 C   0  0  0  0  0  0  0  0  0  0  0  0
  -22.8357  -13.4550   21.2328 C   0  0  0  0  0  0  0  0  0  0  0  0
  -30.7188  -22.2819   19.1045 C   0  0  0  0  0  0  0  0  0  0  0  0
  -32.9694  -24.6513   10.7629 C   0  0  0  0  0  0  0  0  0  0  0  0
  -31.1557  -22.3867    9.3123 C   0  0  0  0  0  0  0  0  0  0  0  0
  -29.0830  -19.6939    9.6288 C   0  0  0  0  0  0  0  0  0  0  0  0
  -30.6218  -14.9784   20.6401 C   0  0  0  0  0  0  0  0  0  0  0  0
  -36.7074  -27.8638    9.4344 C   0  0  0  0  0  0  0  0  0  0  0  0
  -33.8274  -22.5457   11.8519 C   0  0  0  0  0  0  0  0  0  0  0  0
  -30.8719  -22.6323   11.8072 C   0  0  0  0  0  0  0  0  0  0  0  0
  -30.2604  -23.8085   21.7971 C   0  0  0  0  0  0  0  0  0  0  0  0
  -35.5624  -27.1614    8.7092 C   0  0  0  0  0  0  0  0  0  0  0  0
  -31.5598  -23.5650   21.0495 C   0  0  0  0  0  0  0  0  0  0  0  0
  -29.5941  -12.5078   18.2912 C   0  0  0  0  0  0  0  0  0  0  0  0
  -34.2542  -27.3465    9.4716 C   0  0  0  0  0  0  0  0  0  0  0  0
  -28.1629  -12.1744   18.7186 C   0  0  0  0  0  0  0  0  0  0  0  0
  -30.4969  -12.7772   19.4938 C   0  0  0  0  0  0  0  0  0  0  0  0
  -28.5625  -13.4532   20.8614 C   0  0  0  0  0  0  0  0  0  0  0  0
  -34.3389  -26.7258   10.8713 C   0  0  1  0  0  0  0  0  0  0  0  0
  -31.3795  -22.1826   20.4486 C   0  0  1  0  0  0  0  0  0  0  0  0
  -33.0594  -23.1536   10.6823 C   0  0  1  0  0  0  0  0  0  0  0  0
  -27.6002  -13.2378   19.6820 C   0  0  2  0  0  0  0  0  0  0  0  0
  -28.1403  -18.2298   24.5442 C   0  0  0  0  0  0  0  0  0  0  0  0
  -27.7276  -18.0805    8.2662 C   0  0  0  0  0  0  0  0  0  0  0  0
  -29.0458  -24.5442    8.8608 C   0  0  0  0  0  0  0  0  0  0  0  0
  -27.3901  -22.7273    8.3854 C   0  0  0  0  0  0  0  0  0  0  0  0
  -29.3921  -23.0019    6.9228 C   0  0  0  0  0  0  0  0  0  0  0  0
  -30.6318  -17.3753   10.6208 C   0  0  0  0  0  0  0  0  0  0  0  0
  -31.6421  -22.3356   17.9060 C   0  0  0  0  0  0  0  0  0  1  0  0
  -29.6801  -22.0729    9.2564 C   0  0  1  0  0  0  0  0  0  0  0  0
  -29.0693  -18.3458    8.9310 C   0  0  2  0  0  0  0  0  0  0  0  0
  -28.8912  -23.0871    8.3810 C   0  0  0  0  0  0  0  0  0  0  0  0
  -25.8626  -11.5957   20.2867 N   0  0  0  0  0  0  0  0  0  0  0  0
  -26.1987  -12.8895   20.1475 N   0  0  0  0  0  0  0  0  0  0  0  0
  -30.4878  -21.5012   21.3700 N   0  0  0  0  0  0  0  0  0  0  0  0
  -31.6887  -22.6482   10.5824 N   0  0  0  0  0  0  0  0  0  0  0  0
  -29.9019  -13.7978   20.3593 N   0  0  0  0  0  0  0  0  0  0  0  0
  -25.3605  -15.0935   20.3715 N   0  0  0  0  0  0  0  0  0  0  0  0
  -21.8521  -12.5171   21.5752 N   0  0  0  0  0  0  0  0  0  0  0  0
  -29.9421  -15.8899   21.4474 N   0  0  0  0  0  0  0  0  0  0  0  0
  -34.1955  -25.2877   10.7960 N   0  0  0  0  0  0  0  0  0  0  0  0
  -29.5738  -20.6883    8.8092 N   0  0  0  0  0  0  0  0  0  0  0  0
  -29.3332  -17.2533    9.9097 N   0  3  0  0  0  0  0  0  0  0  0  0
  -28.9449  -22.2368   23.0398 O   0  0  0  0  0  0  0  0  0  0  0  0
  -27.7695  -16.4448   23.0746 O   0  0  0  0  0  0  0  0  0  0  0  0
  -22.5600  -14.6779   21.2775 O   0  0  0  0  0  0  0  0  0  0  0  0
  -29.4941  -22.3172   18.9955 O   0  0  0  0  0  0  0  0  0  0  0  0
  -31.8689  -25.1898   10.7913 O   0  0  0  0  0  0  0  0  0  0  0  0
  -31.8126  -22.3923    8.2682 O   0  0  0  0  0  0  0  0  0  0  0  0
  -28.6936  -19.8500   10.7840 O   0  0  0  0  0  0  0  0  0  0  0  0
  -31.7467  -15.1787   20.1748 O   0  0  0  0  0  0  0  0  0  0  0  0
  -21.7564   -6.9493   21.7356 O   0  0  0  0  0  0  0  0  0  0  0  0
  -30.8915  -22.4155   16.6949 O   0  0  0  0  0  0  0  0  0  1  0  0
  -18.7547   -6.7389   26.3561 F   0  0  0  0  0  0  0  0  0  0  0  0
  -22.2616   -5.0393   23.6693 F   0  0  0  0  0  0  0  0  0  0  0  0
  1  2  1  0  0  0  0
  1  5  2  0  0  0  0
  2  6  2  0  0  0  0
  3 10  2  0  0  0  0
  3 18  1  0  0  0  0
  4 11  1  0  0  0  0
  4 18  2  0  0  0  0
  5 21  1  0  0  0  0
  6 23  1  0  0  0  0
  7 12  2  0  0  0  0
  7 22  1  0  0  0  0
  8  9  2  0  0  0  0
  8 25  1  0  0  0  0
  9 26  1  0  0  0  0
 10 27  1  0  0  0  0
 11 27  2  0  0  0  0
 12 28  1  0  0  0  0
 13 14  2  0  0  0  0
 13 29  1  0  0  0  0
 14 30  1  0  0  0  0
 15 19  1  0  0  0  0
 15 25  2  0  0  0  0
 16 24  1  0  0  0  0
 16 28  2  0  0  0  0
 17 30  2  0  0  0  0
 17 31  1  0  0  0  0
 18 32  1  0  0  0  0
 19 26  2  0  0  0  0
 19 35  1  0  0  0  0
 20 32  1  0  0  0  0
 20 33  2  0  0  0  0
 20 36  1  0  0  0  0
 21 23  2  0  0  0  0
 21 42  1  0  0  0  0
 22 24  2  0  0  0  0
 22 43  1  0  0  0  0
 23 53  1  0  0  0  0
 24 44  1  0  0  0  0
 25 69  1  0  0  0  0
 26 74  1  0  0  0  0
 27 86  1  0  0  0  0
 28 87  1  0  0  0  0
 29 31  2  0  0  0  0
 29 86  1  0  0  0  0
 30 88  1  0  0  0  0
 31 89  1  0  0  0  0
 32 67  2  0  0  0  0
 33 68  1  0  0  0  0
 33 72  1  0  0  0  0
 34 45  1  0  0  0  0
 34 69  1  0  0  0  0
 34 78  2  0  0  0  0
 35 57  1  0  0  0  0
 35 79  2  0  0  0  0
 36 73  1  0  0  0  0
 36 80  2  0  0  0  0
 37 54  1  0  0  0  0
 37 63  1  0  0  0  0
 37 81  2  0  0  0  0
 38 55  1  0  0  0  0
 38 75  1  0  0  0  0
 38 82  2  0  0  0  0
 39 64  1  0  0  0  0
 39 70  1  0  0  0  0
 39 83  2  0  0  0  0
 40 65  1  0  0  0  0
 40 76  1  0  0  0  0
 40 84  2  0  0  0  0
 41 71  1  0  0  0  0
 41 74  1  0  0  0  0
 41 85  2  0  0  0  0
 42 46  1  0  0  0  0
 43 55  1  0  0  0  0
 44 70  1  0  0  0  0
 45 47  1  0  0  0  0
 46 49  1  0  0  0  0
 47 54  1  0  0  0  0
 48 50  1  0  0  0  0
 48 51  1  0  0  0  0
 49 53  1  0  0  0  0
 50 56  1  0  0  0  0
 51 71  1  0  0  0  0
 52 56  1  0  0  0  0
 52 71  1  0  0  0  0
 53 75  1  0  0  0  0
 54 69  1  0  0  0  0
 55 70  1  0  0  0  0
 56 68  1  0  0  0  0
 58 65  1  0  0  0  0
 59 66  1  0  0  0  0
 60 66  1  0  0  0  0
 61 66  1  0  0  0  0
 62 77  1  0  0  0  0
 63 87  1  0  0  0  0
 64 66  1  0  0  0  0
 64 76  1  0  0  0  0
 65 77  1  0  0  0  0
 67 68  1  0  0  0  0
M  CHG  1  77   1
M  ISO  4  41 100  63 101  74 100  87 101
M  END
> <Batch ID>
0144

> <Smiles>
CNC(C)C(=O)NC(C(=O)N1Cc2cc([101O:1][101CH2:1]C(=O)C3CCC(=O)N3c3ccc([100NH:0][100C:0](=O)N4CCCC(n5nc(-c6ccc(Oc7ccc(F)cc7F)cc6)c(C(N)=O)c5N)C4)c(C(C)=O)c3)ccc2CC1C(=O)NC1CCCc2ccccc21)C(C)(C)C

> <Shape>
0.200

> <Color>
0.192

> <Negative vol penalty>
0.000

$$$$

  -OEChem-04052303043D

 94103  0     1  0  0  0  0  0999 V2000
  -25.0569  -35.0573   24.2580 C   0  0  0  0  0  0  0  0  0  0  0  0
  -25.7840  -33.9448   23.8468 C   0  0  0  0  0  0  0  0  0  0  0  0
  -23.9320   -8.8603   22.9883 C   0  0  0  0  0  0  0  0  0  0  0  0
  -23.4385   -9.9468   20.8876 C   0  0  0  0  0  0  0  0  0  0  0  0
  -23.7553  -34.9014   24.7329 C   0  0  0  0  0  0  0  0  0  0  0  0
  -25.2103  -32.6755   23.9114 C   0  0  0  0  0  0  0  0  0  0  0  0
  -26.0414  -29.9527   19.7232 C   0  0  0  0  0  0  0  0  0  0  0  0
  -27.1908  -19.8464   21.8018 C   0  0  0  0  0  0  0  0  0  0  0  0
  -27.7242  -20.8474   20.9900 C   0  0  0  0  0  0  0  0  0  0  0  0
  -23.0456   -7.8330   22.6652 C   0  0  0  0  0  0  0  0  0  0  0  0
  -22.5521   -8.9195   20.5644 C   0  0  0  0  0  0  0  0  0  0  0  0
  -27.2996  -29.3689   19.5825 C   0  0  0  0  0  0  0  0  0  0  0  0
  -23.0405   -5.0669   20.7205 C   0  0  0  0  0  0  0  0  0  0  0  0
  -23.4580   -3.7554   20.9467 C   0  0  0  0  0  0  0  0  0  0  0  0
  -26.3979  -27.2598   20.3293 C   0  0  0  0  0  0  0  0  0  0  0  0
  -21.6033   -3.4259   22.4595 C   0  0  0  0  0  0  0  0  0  0  0  0
  -24.1284   -9.9173   22.0995 C   0  0  0  0  0  0  0  0  0  0  0  0
  -26.4193  -11.0389   22.1404 C   0  0  0  0  0  0  0  0  0  0  0  0
  -23.1619  -33.6306   24.7943 C   0  0  0  0  0  0  0  0  0  0  0  0
  -24.9525  -29.1958   20.1792 C   0  0  0  0  0  0  0  0  0  0  0  0
  -23.9000  -32.5023   24.3888 C   0  0  0  0  0  0  0  0  0  0  0  0
  -25.1263  -27.8357   20.4725 C   0  0  0  0  0  0  0  0  0  0  0  0
  -28.6178  -18.2174   20.7306 C   0  0  0  0  0  0  0  0  0  0  0  0
  -29.1511  -19.2185   19.9188 C   0  0  0  0  0  0  0  0  0  0  0  0
  -27.6377  -18.5314   21.6722 C   0  0  0  0  0  0  0  0  0  0  0  0
  -28.7043  -20.5335   20.0485 C   0  0  0  0  0  0  0  0  0  0  0  0
  -22.3556   -7.8625   21.4533 C   0  0  0  0  0  0  0  0  0  0  0  0
  -27.4787  -28.0230   19.8884 C   0  0  0  0  0  0  0  0  0  0  0  0
  -21.9044   -5.5580   21.3638 C   0  0  0  0  0  0  0  0  0  0  0  0
  -22.7394   -2.9349   21.8162 C   0  0  0  0  0  0  0  0  0  0  0  0
  -21.1858   -4.7375   22.2333 C   0  0  0  0  0  0  0  0  0  0  0  0
  -25.0435  -10.9791   22.4329 C   0  0  0  0  0  0  0  0  0  0  0  0
  -26.8298  -12.2403   22.6643 C   0  0  0  0  0  0  0  0  0  0  0  0
  -27.2516  -10.0930   21.4561 C   0  0  0  0  0  0  0  0  0  0  0  0
  -23.0264  -29.3318   22.7042 C   0  0  0  0  0  0  0  0  0  0  0  0
  -21.4712  -26.9417   21.1578 C   0  0  0  0  0  0  0  0  0  0  0  0
  -28.8937  -22.9110   19.2510 C   0  0  0  0  0  0  0  0  0  0  0  0
  -21.5988  -24.3916   18.8935 C   0  0  0  0  0  0  0  0  0  0  0  0
  -26.1017  -17.6989   23.4871 C   0  0  0  0  0  0  0  0  0  0  0  0
  -21.7691  -33.5064   25.3593 C   0  0  0  0  0  0  0  0  0  0  0  0
  -23.5957  -29.8338   20.3000 C   0  0  0  0  0  0  0  0  0  0  0  0
  -23.9851  -26.9745   20.9462 C   0  0  0  0  0  0  0  0  0  0  0  0
  -21.1009  -32.1706   25.0441 C   0  0  0  0  0  0  0  0  0  0  0  0
  -24.4424  -15.4855   25.7288 C   0  0  0  0  0  0  0  0  0  0  0  0
  -29.0359  -16.1473   19.2427 C   0  0  0  0  0  0  0  0  0  0  0  0
  -28.0985  -15.7182   20.3278 C   0  0  0  0  0  0  0  0  0  0  0  0
  -22.0610  -31.0164   25.3141 C   0  0  0  0  0  0  0  0  0  0  0  0
  -24.5641  -14.1207   25.0471 C   0  0  0  0  0  0  0  0  0  0  0  0
  -24.2360  -16.6095   24.7149 C   0  0  0  0  0  0  0  0  0  0  0  0
  -25.3516  -15.2971   22.9535 C   0  0  0  0  0  0  0  0  0  0  0  0
  -29.1007  -16.8072   20.5920 C   0  0  0  0  0  0  0  0  0  0  0  0
  -23.3035  -31.1118   24.4204 C   0  0  1  0  0  0  0  0  0  0  0  0
  -22.6718  -29.0951   21.2634 C   0  0  1  0  0  0  0  0  0  0  0  0
  -25.6256  -14.1415   23.9298 C   0  0  2  0  0  0  0  0  0  0  0  0
  -30.2040  -18.8813   18.9089 C   0  0  0  0  0  0  0  0  0  0  0  0
  -20.1791  -22.5933   17.8698 C   0  0  0  0  0  0  0  0  0  0  0  0
  -32.0640  -24.5740   20.0592 C   0  0  0  0  0  0  0  0  0  0  0  0
  -21.7091  -25.2995   23.7184 C   0  0  0  0  0  0  0  0  0  0  0  0
  -21.1603  -23.2578   22.3772 C   0  0  0  0  0  0  0  0  0  0  0  0
  -19.5008  -25.1113   22.5597 C   0  0  0  0  0  0  0  0  0  0  0  0
  -29.7873  -28.9679   21.2508 C   0  0  0  0  0  0  0  0  0  0  0  0
  -28.8294  -26.7799   22.0447 C   0  0  0  0  0  0  0  0  0  0  0  0
  -30.7863  -25.8497   17.5186 C   0  0  0  0  0  0  0  0  0  0  0  0
  -21.9385  -25.5100   16.1746 C   0  0  0  0  0  0  0  0  0  0  0  0
  -29.6849  -23.7140   18.2242 C   0  0  0  0  0  0  0  0  0  0  0  0
  -30.8619  -26.7583   20.5059 C   0  0  0  0  0  0  0  0  0  0  0  0
  -21.5702  -25.4354   21.1438 C   0  0  1  0  0  0  0  0  0  0  0  0
  -20.6838  -24.0220   17.7400 C   0  0  2  0  0  0  0  0  0  0  0  0
  -30.7016  -25.2842   20.0360 C   0  0  1  0  0  0  0  0  0  0  0  0
  -21.0072  -24.7924   22.4427 C   0  0  0  0  0  0  0  0  0  0  0  0
  -29.5628  -27.4962   20.9056 C   0  0  0  0  0  0  0  0  0  1  0  0
  -29.9892  -25.1724   18.6467 C   0  0  1  0  0  0  0  0  0  0  0  0
  -24.6092  -12.0568   23.0917 N   0  0  0  0  0  0  0  0  0  0  0  0
  -25.7184  -12.8050   23.2176 N   0  0  0  0  0  0  0  0  0  0  0  0
  -22.6793  -27.6458   21.0544 N   0  0  0  0  0  0  0  0  0  0  0  0
  -25.2809  -16.5692   23.6895 N   0  0  0  0  0  0  0  0  0  0  0  0
  -28.0295  -12.8582   22.7012 N   0  0  0  0  0  0  0  0  0  0  0  0
  -26.6685   -8.9100   20.9821 N   0  0  0  0  0  0  0  0  0  0  0  0
  -29.2326  -21.5651   19.2378 N   0  0  0  0  0  0  0  0  0  0  0  0
  -27.0810  -17.5321   22.5084 N   0  0  0  0  0  0  0  0  0  0  0  0
  -22.9974  -30.6613   23.0796 N   0  0  0  0  0  0  0  0  0  0  0  0
  -20.9059  -24.9940   19.9222 N   0  0  0  0  0  0  0  0  0  0  0  0
  -21.4078  -24.1487   16.4435 N   0  3  0  0  0  0  0  0  0  0  0  0
  -28.4796  -10.2836   21.2850 O   0  0  0  0  0  0  0  0  0  0  0  0
  -23.3044  -28.3786   23.4224 O   0  0  0  0  0  0  0  0  0  0  0  0
  -20.3623  -27.4741   21.2498 O   0  0  0  0  0  0  0  0  0  0  0  0
  -28.0699  -23.4675   19.9720 O   0  0  0  0  0  0  0  0  0  0  0  0
  -22.8067  -24.1648   18.8846 O   0  0  0  0  0  0  0  0  0  0  0  0
  -25.9648  -18.7282   24.1532 O   0  0  0  0  0  0  0  0  0  0  0  0
  -28.7368  -25.8690   18.7471 O   0  0  0  0  0  0  0  0  0  0  0  0
  -21.4908   -6.8601   21.1376 O   0  0  0  0  0  0  0  0  0  0  0  0
  -28.7089  -27.4494   19.7522 O   0  0  0  0  0  0  0  0  0  1  0  0
  -23.1396   -1.6750   22.0322 F   0  0  0  0  0  0  0  0  0  0  0  0
  -20.0929   -5.2033   22.8534 F   0  0  0  0  0  0  0  0  0  0  0  0
  1  2  1  0  0  0  0
  1  5  2  0  0  0  0
  2  6  2  0  0  0  0
  3 10  2  0  0  0  0
  3 17  1  0  0  0  0
  4 11  1  0  0  0  0
  4 17  2  0  0  0  0
  5 19  1  0  0  0  0
  6 21  1  0  0  0  0
  7 12  2  0  0  0  0
  7 20  1  0  0  0  0
  8  9  2  0  0  0  0
  8 25  1  0  0  0  0
  9 26  1  0  0  0  0
 10 27  1  0  0  0  0
 11 27  2  0  0  0  0
 12 28  1  0  0  0  0
 13 14  2  0  0  0  0
 13 29  1  0  0  0  0
 14 30  1  0  0  0  0
 15 22  1  0  0  0  0
 15 28  2  0  0  0  0
 16 30  2  0  0  0  0
 16 31  1  0  0  0  0
 17 32  1  0  0  0  0
 18 32  1  0  0  0  0
 18 33  2  0  0  0  0
 18 34  1  0  0  0  0
 19 21  2  0  0  0  0
 19 40  1  0  0  0  0
 20 22  2  0  0  0  0
 20 41  1  0  0  0  0
 21 52  1  0  0  0  0
 22 42  1  0  0  0  0
 23 24  1  0  0  0  0
 23 25  2  0  0  0  0
 23 51  1  0  0  0  0
 24 26  2  0  0  0  0
 24 55  1  0  0  0  0
 25 80  1  0  0  0  0
 26 79  1  0  0  0  0
 27 91  1  0  0  0  0
 28 92  1  0  0  0  0
 29 31  2  0  0  0  0
 29 91  1  0  0  0  0
 30 93  1  0  0  0  0
 31 94  1  0  0  0  0
 32 73  2  0  0  0  0
 33 74  1  0  0  0  0
 33 77  1  0  0  0  0
 34 78  1  0  0  0  0
 34 84  2  0  0  0  0
 35 53  1  0  0  0  0
 35 81  1  0  0  0  0
 35 85  2  0  0  0  0
 36 67  1  0  0  0  0
 36 75  1  0  0  0  0
 36 86  2  0  0  0  0
 37 65  1  0  0  0  0
 37 79  1  0  0  0  0
 37 87  2  0  0  0  0
 38 68  1  0  0  0  0
 38 82  1  0  0  0  0
 38 88  2  0  0  0  0
 39 76  1  0  0  0  0
 39 80  1  0  0  0  0
 39 89  2  0  0  0  0
 40 43  1  0  0  0  0
 41 53  1  0  0  0  0
 42 75  1  0  0  0  0
 43 47  1  0  0  0  0
 44 48  1  0  0  0  0
 44 49  1  0  0  0  0
 45 46  1  0  0  0  0
 45 51  1  0  0  0  0
 46 51  1  0  0  0  0
 47 52  1  0  0  0  0
 48 54  1  0  0  0  0
 49 76  1  0  0  0  0
 50 54  1  0  0  0  0
 50 76  1  0  0  0  0
 52 81  1  0  0  0  0
 53 75  1  0  0  0  0
 54 74  1  0  0  0  0
 56 68  1  0  0  0  0
 57 69  1  0  0  0  0
 58 70  1  0  0  0  0
 59 70  1  0  0  0  0
 60 70  1  0  0  0  0
 61 71  1  0  0  0  0
 62 71  1  0  0  0  0
 63 72  1  0  0  0  0
 64 83  1  0  0  0  0
 65 72  1  0  0  0  0
 66 69  1  0  0  0  0
 66 71  1  0  0  0  0
 67 70  1  0  0  0  0
 67 82  1  0  0  0  0
 68 83  1  0  0  0  0
 69 72  1  0  0  0  0
 71 92  1  0  0  0  0
 72 90  1  0  0  0  0
 73 74  1  0  0  0  0
M  CHG  1  83   1
M  ISO  4  39 100  71 101  80 100  92 101
M  END
> <Batch ID>
0144

> <Smiles>
CNC(C)C(=O)NC(C(=O)N1Cc2cc([101O:1][101C:1](C)(C)CC(C)C(C)(O)CC(=O)Nc3ccc([100NH:0][100C:0](=O)N4CCCC(n5nc(-c6ccc(Oc7ccc(F)cc7F)cc6)c(C(N)=O)c5N)C4)c(C4CC4)c3C)ccc2CC1C(=O)NC1CCCc2ccccc21)C(C)(C)C

> <Shape>
0.282

> <Color>
0.070

> <Negative vol penalty>
0.000

$$$$

  -OEChem-04052303043D

 85 94  0     1  0  0  0  0  0999 V2000
  -18.4052  -30.8858   25.4688 C   0  0  0  0  0  0  0  0  0  0  0  0
  -19.7756  -30.7228   25.6444 C   0  0  0  0  0  0  0  0  0  0  0  0
  -25.3411  -14.1388   22.0015 C   0  0  0  0  0  0  0  0  0  0  0  0
  -26.2646  -14.3907   19.7832 C   0  0  0  0  0  0  0  0  0  0  0  0
  -17.7405  -30.1673   24.4759 C   0  0  0  0  0  0  0  0  0  0  0  0
  -20.4820  -29.8404   24.8279 C   0  0  0  0  0  0  0  0  0  0  0  0
  -24.8383  -31.8064   23.1539 C   0  0  0  0  0  0  0  0  0  0  0  0
  -25.2669  -12.7586   21.8139 C   0  0  0  0  0  0  0  0  0  0  0  0
  -26.1905  -13.0105   19.5956 C   0  0  0  0  0  0  0  0  0  0  0  0
  -25.9105  -31.8290   24.0448 C   0  0  0  0  0  0  0  0  0  0  0  0
  -23.2377  -10.5655   20.2338 C   0  0  0  0  0  0  0  0  0  0  0  0
  -22.0630   -9.9216   20.6224 C   0  0  0  0  0  0  0  0  0  0  0  0
  -26.8215  -29.8607   22.9889 C   0  0  0  0  0  0  0  0  0  0  0  0
  -25.3058  -25.5062   25.0427 C   0  0  0  0  0  0  0  0  0  0  0  0
  -23.3216   -8.5605   22.1717 C   0  0  0  0  0  0  0  0  0  0  0  0
  -25.8399  -14.9549   20.9861 C   0  0  0  0  0  0  0  0  0  0  0  0
  -26.9963  -17.1100   21.7112 C   0  0  0  0  0  0  0  0  0  0  0  0
  -18.4407  -29.2828   23.6404 C   0  0  0  0  0  0  0  0  0  0  0  0
  -24.7437  -30.8027   22.1792 C   0  0  0  0  0  0  0  0  0  0  0  0
  -19.8258  -29.1084   23.8237 C   0  0  0  0  0  0  0  0  0  0  0  0
  -25.7484  -29.8290   22.0852 C   0  0  0  0  0  0  0  0  0  0  0  0
  -24.6985  -24.4020   24.4115 C   0  0  0  0  0  0  0  0  0  0  0  0
  -25.6917  -12.1944   20.6110 C   0  0  0  0  0  0  0  0  0  0  0  0
  -26.9008  -30.8544   23.9642 C   0  0  0  0  0  0  0  0  0  0  0  0
  -24.4544  -10.2069   20.8141 C   0  0  0  0  0  0  0  0  0  0  0  0
  -22.1049   -8.9192   21.5913 C   0  0  0  0  0  0  0  0  0  0  0  0
  -24.4964   -9.2044   21.7831 C   0  0  0  0  0  0  0  0  0  0  0  0
  -25.9161  -16.3807   21.1790 C   0  0  0  0  0  0  0  0  0  0  0  0
  -25.5738  -23.7096   23.6265 C   0  0  0  0  0  0  0  0  0  0  0  0
  -26.5751  -18.4170   21.6834 C   0  0  0  0  0  0  0  0  0  0  0  0
  -26.6446  -25.5905   24.6937 C   0  0  0  0  0  0  0  0  0  0  0  0
  -28.2668  -16.6473   22.1881 C   0  0  0  0  0  0  0  0  0  0  0  0
  -22.6610  -28.4891   21.5366 C   0  0  0  0  0  0  0  0  0  0  0  0
  -28.2530  -28.7144   25.8415 C   0  0  0  0  0  0  0  0  0  0  0  0
  -24.5262  -28.0713   18.9158 C   0  0  0  0  0  0  0  0  0  0  0  0
  -27.5789  -28.4604   17.4405 C   0  0  0  0  0  0  0  0  0  0  0  0
  -22.4424  -22.0731   22.8118 C   0  0  0  0  0  0  0  0  0  0  0  0
  -17.6709  -28.4926   22.6120 C   0  0  0  0  0  0  0  0  0  0  0  0
  -23.5947  -30.8078   21.2086 C   0  0  0  0  0  0  0  0  0  0  0  0
  -25.7040  -28.7418   21.0439 C   0  0  0  0  0  0  0  0  0  0  0  0
  -23.3533  -23.8011   24.3706 C   0  0  0  0  0  0  0  0  0  0  0  0
  -24.9761  -22.5397   22.9594 C   0  0  0  0  0  0  0  0  0  0  0  0
  -18.5569  -27.8582   21.5430 C   0  0  0  0  0  0  0  0  0  0  0  0
  -22.5555  -20.5498   19.4723 C   0  0  0  0  0  0  0  0  0  0  0  0
  -19.7583  -27.1711   22.1842 C   0  0  0  0  0  0  0  0  0  0  0  0
  -23.4962  -19.3611   19.6822 C   0  0  0  0  0  0  0  0  0  0  0  0
  -21.7818  -20.9001   20.7417 C   0  0  0  0  0  0  0  0  0  0  0  0
  -23.5495  -19.9081   22.1414 C   0  0  0  0  0  0  0  0  0  0  0  0
  -20.6310  -28.1791   22.9416 C   0  0  1  0  0  0  0  0  0  0  0  0
  -23.3321  -29.4399   20.5863 C   0  0  1  0  0  0  0  0  0  0  0  0
  -24.4024  -19.5763   20.9098 C   0  0  1  0  0  0  0  0  0  0  0  0
  -27.2079  -27.1212   27.4591 C   0  0  0  0  0  0  0  0  0  0  0  0
  -28.6246  -30.8460   27.1216 C   0  0  0  0  0  0  0  0  0  0  0  0
  -28.8098  -27.9864   15.3056 C   0  0  0  0  0  0  0  0  0  0  0  0
  -24.7665  -25.1349   19.7091 C   0  0  0  0  0  0  0  0  0  0  0  0
  -26.7128  -24.9439   18.1459 C   0  0  0  0  0  0  0  0  0  0  0  0
  -24.4563  -25.5317   17.2594 C   0  0  0  0  0  0  0  0  0  0  0  0
  -28.0720  -31.3371   16.9502 C   0  0  0  0  0  0  0  0  0  0  0  0
  -27.2084  -27.6240   26.0251 C   0  0  2  0  0  0  0  0  0  0  0  0
  -27.7987  -30.1542   26.0521 C   0  0  1  0  0  0  0  0  0  1  0  0
  -25.7489  -27.2463   18.5942 C   0  0  1  0  0  0  0  0  0  0  0  0
  -27.9781  -28.9984   16.0783 C   0  0  2  0  0  0  0  0  0  0  0  0
  -25.4212  -25.7334   18.4481 C   0  0  0  0  0  0  0  0  0  0  0  0
  -24.8861  -17.1598   20.8381 N   0  0  0  0  0  0  0  0  0  0  0  0
  -25.3172  -18.3921   21.1570 N   0  0  0  0  0  0  0  0  0  0  0  0
  -24.5571  -28.7858   20.1218 N   0  0  0  0  0  0  0  0  0  0  0  0
  -23.5544  -22.6746   23.4113 N   0  0  0  0  0  0  0  0  0  0  0  0
  -22.6906  -21.0653   21.8748 N   0  0  0  0  0  0  0  0  0  0  0  0
  -27.1617  -19.5736   22.0582 N   0  0  0  0  0  0  0  0  0  0  0  0
  -28.5363  -15.2726   22.1451 N   0  0  0  0  0  0  0  0  0  0  0  0
  -27.5301  -26.5278   25.1160 N   0  0  0  0  0  0  0  0  0  0  0  0
  -21.4454  -28.9379   22.0167 N   0  0  0  0  0  0  0  0  0  0  0  0
  -26.3450  -27.8461   17.4054 N   0  0  0  0  0  0  0  0  0  0  0  0
  -28.7776  -30.2471   16.2285 N   0  3  0  0  0  0  0  0  0  0  0  0
  -29.1309  -17.4280   22.6543 O   0  0  0  0  0  0  0  0  0  0  0  0
  -23.2050  -27.4263   21.8126 O   0  0  0  0  0  0  0  0  0  0  0  0
  -29.4116  -28.4443   25.5194 O   0  0  0  0  0  0  0  0  0  0  0  0
  -23.5816  -28.0872   18.1226 O   0  0  0  0  0  0  0  0  0  0  0  0
  -28.2922  -28.5706   18.4353 O   0  0  0  0  0  0  0  0  0  0  0  0
  -21.2913  -22.4542   23.0589 O   0  0  0  0  0  0  0  0  0  0  0  0
  -25.6197  -10.8477   20.4278 O   0  0  0  0  0  0  0  0  0  0  0  0
  -27.9567  -30.8739   24.8399 O   0  0  0  0  0  0  0  0  0  1  0  0
  -20.9766   -8.3020   21.9655 F   0  0  0  0  0  0  0  0  0  0  0  0
  -25.6621   -8.8564   22.3450 F   0  0  0  0  0  0  0  0  0  0  0  0
  -27.1255  -24.3302   23.6087 S   0  0  0  0  0  0  0  0  0  0  0  0
  1  2  1  0  0  0  0
  1  5  2  0  0  0  0
  2  6  2  0  0  0  0
  3  8  2  0  0  0  0
  3 16  1  0  0  0  0
  4  9  1  0  0  0  0
  4 16  2  0  0  0  0
  5 18  1  0  0  0  0
  6 20  1  0  0  0  0
  7 10  2  0  0  0  0
  7 19  1  0  0  0  0
  8 23  1  0  0  0  0
  9 23  2  0  0  0  0
 10 24  1  0  0  0  0
 11 12  2  0  0  0  0
 11 25  1  0  0  0  0
 12 26  1  0  0  0  0
 13 21  1  0  0  0  0
 13 24  2  0  0  0  0
 14 22  1  0  0  0  0
 14 31  2  0  0  0  0
 15 26  2  0  0  0  0
 15 27  1  0  0  0  0
 16 28  1  0  0  0  0
 17 28  1  0  0  0  0
 17 30  2  0  0  0  0
 17 32  1  0  0  0  0
 18 20  2  0  0  0  0
 18 38  1  0  0  0  0
 19 21  2  0  0  0  0
 19 39  1  0  0  0  0
 20 49  1  0  0  0  0
 21 40  1  0  0  0  0
 22 29  2  0  0  0  0
 22 41  1  0  0  0  0
 23 81  1  0  0  0  0
 24 82  1  0  0  0  0
 25 27  2  0  0  0  0
 25 81  1  0  0  0  0
 26 83  1  0  0  0  0
 27 84  1  0  0  0  0
 28 64  2  0  0  0  0
 29 42  1  0  0  0  0
 29 85  1  0  0  0  0
 30 65  1  0  0  0  0
 30 69  1  0  0  0  0
 31 71  1  0  0  0  0
 31 85  1  0  0  0  0
 32 70  1  0  0  0  0
 32 75  2  0  0  0  0
 33 50  1  0  0  0  0
 33 72  1  0  0  0  0
 33 76  2  0  0  0  0
 34 59  1  0  0  0  0
 34 60  1  0  0  0  0
 34 77  2  0  0  0  0
 35 61  1  0  0  0  0
 35 66  1  0  0  0  0
 35 78  2  0  0  0  0
 36 62  1  0  0  0  0
 36 73  1  0  0  0  0
 36 79  2  0  0  0  0
 37 67  1  0  0  0  0
 37 68  1  0  0  0  0
 37 80  2  0  0  0  0
 38 43  1  0  0  0  0
 39 50  1  0  0  0  0
 40 66  1  0  0  0  0
 41 67  1  0  0  0  0
 42 67  1  0  0  0  0
 43 45  1  0  0  0  0
 44 46  1  0  0  0  0
 44 47  1  0  0  0  0
 45 49  1  0  0  0  0
 46 51  1  0  0  0  0
 47 68  1  0  0  0  0
 48 51  1  0  0  0  0
 48 68  1  0  0  0  0
 49 72  1  0  0  0  0
 50 66  1  0  0  0  0
 51 65  1  0  0  0  0
 52 59  1  0  0  0  0
 53 60  1  0  0  0  0
 54 62  1  0  0  0  0
 55 63  1  0  0  0  0
 56 63  1  0  0  0  0
 57 63  1  0  0  0  0
 58 74  1  0  0  0  0
 59 71  1  0  0  0  0
 60 82  1  0  0  0  0
 61 63  1  0  0  0  0
 61 73  1  0  0  0  0
 62 74  1  0  0  0  0
 64 65  1  0  0  0  0
M  CHG  1  74   1
M  ISO  4  37 100  60 101  67 100  82 101
M  END
> <Batch ID>
0144

> <Smiles>
CNC(C)C(=O)NC(C(=O)N1Cc2cc([101O:1][101CH:1](C)C(=O)C(C)Nc3cc4c(s3)C[100N:0]([100C:0](=O)N3CCCC(n5nc(-c6ccc(Oc7ccc(F)cc7F)cc6)c(C(N)=O)c5N)C3)C4)ccc2CC1C(=O)NC1CCCc2ccccc21)C(C)(C)C

> <Shape>
0.231

> <Color>
0.074

> <Negative vol penalty>
0.000

$$$$

  -OEChem-04052303043D

 87 95  0     1  0  0  0  0  0999 V2000
  -29.9814  -17.7916   17.7515 C   0  0  0  0  0  0  0  0  0  0  0  0
  -30.5456  -17.8426   19.0221 C   0  0  0  0  0  0  0  0  0  0  0  0
  -23.0008   -9.8943   19.9806 C   0  0  0  0  0  0  0  0  0  0  0  0
  -23.7263   -9.9439   22.2846 C   0  0  0  0  0  0  0  0  0  0  0  0
  -30.6299  -18.3990   16.6771 C   0  0  0  0  0  0  0  0  0  0  0  0
  -31.7593  -18.5003   19.2189 C   0  0  0  0  0  0  0  0  0  0  0  0
  -33.4673  -21.6721   24.1715 C   0  0  0  0  0  0  0  0  0  0  0  0
  -22.2344   -8.7596   20.2464 C   0  0  0  0  0  0  0  0  0  0  0  0
  -22.9598   -8.8092   22.5504 C   0  0  0  0  0  0  0  0  0  0  0  0
  -34.2579  -21.3407   25.2710 C   0  0  0  0  0  0  0  0  0  0  0  0
  -23.2042   -5.4706   22.0765 C   0  0  0  0  0  0  0  0  0  0  0  0
  -23.7919   -4.4530   22.8279 C   0  0  0  0  0  0  0  0  0  0  0  0
  -32.0578  -16.5510   22.5668 C   0  0  0  0  0  0  0  0  0  0  0  0
  -31.8501  -18.3434   24.1733 C   0  0  0  0  0  0  0  0  0  0  0  0
  -36.1677  -22.3454   24.1929 C   0  0  0  0  0  0  0  0  0  0  0  0
  -29.8789  -17.4475   23.1015 C   0  0  0  0  0  0  0  0  0  0  0  0
  -22.0683   -4.6948   24.5035 C   0  0  0  0  0  0  0  0  0  0  0  0
  -23.7468  -10.4864   20.9997 C   0  0  0  0  0  0  0  0  0  0  0  0
  -32.6456  -17.4471   23.4596 C   0  0  0  0  0  0  0  0  0  0  0  0
  -24.1320  -13.0022   20.8252 C   0  0  0  0  0  0  0  0  0  0  0  0
  -31.8474  -19.0728   16.8626 C   0  0  0  0  0  0  0  0  0  0  0  0
  -34.0243  -22.3341   23.0679 C   0  0  0  0  0  0  0  0  0  0  0  0
  -32.4254  -19.1162   18.1457 C   0  0  0  0  0  0  0  0  0  0  0  0
  -35.3815  -22.6864   23.0817 C   0  0  0  0  0  0  0  0  0  0  0  0
  -30.6744  -16.5512   22.3878 C   0  0  0  0  0  0  0  0  0  0  0  0
  -22.2139   -8.2171   21.5313 C   0  0  0  0  0  0  0  0  0  0  0  0
  -35.6090  -21.6748   25.2806 C   0  0  0  0  0  0  0  0  0  0  0  0
  -22.0486   -6.1004   22.5386 C   0  0  0  0  0  0  0  0  0  0  0  0
  -23.2239   -4.0651   24.0414 C   0  0  0  0  0  0  0  0  0  0  0  0
  -30.4667  -18.3437   23.9943 C   0  0  0  0  0  0  0  0  0  0  0  0
  -21.4806   -5.7125   23.7521 C   0  0  0  0  0  0  0  0  0  0  0  0
  -24.5392  -11.6582   20.7257 C   0  0  0  0  0  0  0  0  0  0  0  0
  -25.2417  -13.7250   20.4610 C   0  0  0  0  0  0  0  0  0  0  0  0
  -34.1183  -17.4491   23.6486 C   0  0  0  0  0  0  0  0  0  0  0  0
  -22.8641  -13.5483   21.2122 C   0  0  0  0  0  0  0  0  0  0  0  0
  -34.3990  -21.6380   19.9892 C   0  0  0  0  0  0  0  0  0  0  0  0
  -35.4689  -24.6961   19.8288 C   0  0  0  0  0  0  0  0  0  0  0  0
  -35.9082  -17.9500   25.2758 C   0  0  0  0  0  0  0  0  0  0  0  0
  -36.8401  -27.3740   21.4397 C   0  0  0  0  0  0  0  0  0  0  0  0
  -30.7211  -14.6862   20.6948 C   0  0  0  0  0  0  0  0  0  0  0  0
  -32.5348  -19.6736   15.6621 C   0  0  0  0  0  0  0  0  0  0  0  0
  -33.1521  -22.7083   21.9011 C   0  0  0  0  0  0  0  0  0  0  0  0
  -36.0233  -23.4154   21.9306 C   0  0  0  0  0  0  0  0  0  0  0  0
  -33.6310  -20.6723   16.0244 C   0  0  0  0  0  0  0  0  0  0  0  0
  -29.6027  -12.2347   18.3676 C   0  0  0  0  0  0  0  0  0  0  0  0
  -34.5269  -20.1069   17.1219 C   0  0  0  0  0  0  0  0  0  0  0  0
  -28.1521  -11.9767   18.7818 C   0  0  0  0  0  0  0  0  0  0  0  0
  -30.5033  -12.4774   19.5774 C   0  0  0  0  0  0  0  0  0  0  0  0
  -28.5881  -13.2654   20.9117 C   0  0  0  0  0  0  0  0  0  0  0  0
  -33.7283  -19.8415   18.4038 C   0  0  1  0  0  0  0  0  0  0  0  0
  -33.9389  -22.9255   20.6123 C   0  0  1  0  0  0  0  0  0  0  0  0
  -27.6303  -13.0797   19.7235 C   0  0  2  0  0  0  0  0  0  0  0  0
  -37.6344  -29.7202   21.0368 C   0  0  0  0  0  0  0  0  0  0  0  0
  -38.7759  -21.2505   26.4534 C   0  0  0  0  0  0  0  0  0  0  0  0
  -37.9936  -23.6111   18.5028 C   0  0  0  0  0  0  0  0  0  0  0  0
  -39.1065  -25.8003   18.9901 C   0  0  0  0  0  0  0  0  0  0  0  0
  -37.1111  -25.7230   17.4950 C   0  0  0  0  0  0  0  0  0  0  0  0
  -34.8656  -28.4924   23.3395 C   0  0  0  0  0  0  0  0  0  0  0  0
  -36.0560  -18.4630   26.6994 C   0  0  0  0  0  0  0  0  0  0  0  0
  -37.3666  -19.2135   26.9475 C   0  0  0  0  0  0  0  0  0  0  0  0
  -36.8121  -25.3682   19.9803 C   0  0  1  0  0  0  0  0  0  0  0  0
  -36.4623  -28.8443   21.4513 C   0  0  2  0  0  0  0  0  0  0  0  0
  -37.4983  -20.4943   26.1130 C   0  0  1  0  0  0  0  0  0  1  0  0
  -37.7445  -25.1102   18.7630 C   0  0  0  0  0  0  0  0  0  0  0  0
  -25.8084  -11.5320   20.3293 N   0  0  0  0  0  0  0  0  0  0  0  0
  -26.2083  -12.8059   20.1764 N   0  0  0  0  0  0  0  0  0  0  0  0
  -35.1302  -23.7538   20.8102 N   0  0  0  0  0  0  0  0  0  0  0  0
  -29.9483  -13.5378   20.4214 N   0  0  0  0  0  0  0  0  0  0  0  0
  -25.4751  -15.0508   20.3597 N   0  0  0  0  0  0  0  0  0  0  0  0
  -21.8324  -12.6639   21.5553 N   0  0  0  0  0  0  0  0  0  0  0  0
  -30.0769  -15.6409   21.4811 N   0  0  0  0  0  0  0  0  0  0  0  0
  -34.5666  -17.8993   24.8892 N   0  0  0  0  0  0  0  0  0  0  0  0
  -33.4871  -21.0789   19.1144 N   0  0  0  0  0  0  0  0  0  0  0  0
  -36.5368  -26.7782   20.2338 N   0  0  0  0  0  0  0  0  0  0  0  0
  -36.0269  -29.2565   22.8157 N   0  3  0  0  0  0  0  0  0  0  0  0
  -34.8379  -17.0417   22.7408 O   0  0  0  0  0  0  0  0  0  0  0  0
  -22.6473  -14.7836   21.2367 O   0  0  0  0  0  0  0  0  0  0  0  0
  -35.5005  -21.1861   20.2794 O   0  0  0  0  0  0  0  0  0  0  0  0
  -34.7436  -25.0014   18.8788 O   0  0  0  0  0  0  0  0  0  0  0  0
  -36.8608  -17.6081   24.5808 O   0  0  0  0  0  0  0  0  0  0  0  0
  -37.3564  -26.8114   22.4028 O   0  0  0  0  0  0  0  0  0  0  0  0
  -31.8597  -14.8255   20.2408 O   0  0  0  0  0  0  0  0  0  0  0  0
  -21.4659   -7.1100   21.7910 O   0  0  0  0  0  0  0  0  0  0  0  0
  -36.3831  -21.3519   26.3522 O   0  0  0  0  0  0  0  0  0  1  0  0
  -23.7875   -3.0868   24.7621 F   0  0  0  0  0  0  0  0  0  0  0  0
  -29.7031  -19.2063   24.6774 F   0  0  0  0  0  0  0  0  0  0  0  0
  -20.3697   -6.3130   24.2006 F   0  0  0  0  0  0  0  0  0  0  0  0
  1  2  1  0  0  0  0
  1  5  2  0  0  0  0
  2  6  2  0  0  0  0
  3  8  2  0  0  0  0
  3 18  1  0  0  0  0
  4  9  1  0  0  0  0
  4 18  2  0  0  0  0
  5 21  1  0  0  0  0
  6 23  1  0  0  0  0
  7 10  2  0  0  0  0
  7 22  1  0  0  0  0
  8 26  1  0  0  0  0
  9 26  2  0  0  0  0
 10 27  1  0  0  0  0
 11 12  2  0  0  0  0
 11 28  1  0  0  0  0
 12 29  1  0  0  0  0
 13 19  2  0  0  0  0
 13 25  1  0  0  0  0
 14 19  1  0  0  0  0
 14 30  2  0  0  0  0
 15 24  1  0  0  0  0
 15 27  2  0  0  0  0
 16 25  2  0  0  0  0
 16 30  1  0  0  0  0
 17 29  2  0  0  0  0
 17 31  1  0  0  0  0
 18 32  1  0  0  0  0
 19 34  1  0  0  0  0
 20 32  1  0  0  0  0
 20 33  2  0  0  0  0
 20 35  1  0  0  0  0
 21 23  2  0  0  0  0
 21 41  1  0  0  0  0
 22 24  2  0  0  0  0
 22 42  1  0  0  0  0
 23 50  1  0  0  0  0
 24 43  1  0  0  0  0
 25 71  1  0  0  0  0
 26 83  1  0  0  0  0
 27 84  1  0  0  0  0
 28 31  2  0  0  0  0
 28 83  1  0  0  0  0
 29 85  1  0  0  0  0
 30 86  1  0  0  0  0
 31 87  1  0  0  0  0
 32 65  2  0  0  0  0
 33 66  1  0  0  0  0
 33 69  1  0  0  0  0
 34 72  1  0  0  0  0
 34 76  2  0  0  0  0
 35 70  1  0  0  0  0
 35 77  2  0  0  0  0
 36 51  1  0  0  0  0
 36 73  1  0  0  0  0
 36 78  2  0  0  0  0
 37 61  1  0  0  0  0
 37 67  1  0  0  0  0
 37 79  2  0  0  0  0
 38 59  1  0  0  0  0
 38 72  1  0  0  0  0
 38 80  2  0  0  0  0
 39 62  1  0  0  0  0
 39 74  1  0  0  0  0
 39 81  2  0  0  0  0
 40 68  1  0  0  0  0
 40 71  1  0  0  0  0
 40 82  2  0  0  0  0
 41 44  1  0  0  0  0
 42 51  1  0  0  0  0
 43 67  1  0  0  0  0
 44 46  1  0  0  0  0
 45 47  1  0  0  0  0
 45 48  1  0  0  0  0
 46 50  1  0  0  0  0
 47 52  1  0  0  0  0
 48 68  1  0  0  0  0
 49 52  1  0  0  0  0
 49 68  1  0  0  0  0
 50 73  1  0  0  0  0
 51 67  1  0  0  0  0
 52 66  1  0  0  0  0
 53 62  1  0  0  0  0
 54 63  1  0  0  0  0
 55 64  1  0  0  0  0
 56 64  1  0  0  0  0
 57 64  1  0  0  0  0
 58 75  1  0  0  0  0
 59 60  1  0  0  0  0
 60 63  1  0  0  0  0
 61 64  1  0  0  0  0
 61 74  1  0  0  0  0
 62 75  1  0  0  0  0
 63 84  1  0  0  0  0
 65 66  1  0  0  0  0
M  CHG  1  75   1
M  ISO  4  40 100  63 101  71 100  84 101
M  END
> <Batch ID>
0144

> <Smiles>
CNC(C)C(=O)NC(C(=O)N1Cc2cc([101O:1][101CH:1](C)CCC(=O)NC(=O)c3cc(F)cc([100NH:0][100C:0](=O)N4CCCC(n5nc(-c6ccc(Oc7ccc(F)cc7F)cc6)c(C(N)=O)c5N)C4)c3)ccc2CC1C(=O)NC1CCCc2ccccc21)C(C)(C)C

> <Shape>
0.180

> <Color>
0.193

> <Negative vol penalty>
0.000

$$$$

  -OEChem-04052303043D

 89 98  0     1  0  0  0  0  0999 V2000
  -26.1722  -33.1020   27.8552 C   0  0  0  0  0  0  0  0  0  0  0  0
  -26.5089  -31.9464   27.1576 C   0  0  0  0  0  0  0  0  0  0  0  0
  -23.5320   -8.8269   20.2531 C   0  0  0  0  0  0  0  0  0  0  0  0
  -23.0494  -10.6133   21.8064 C   0  0  0  0  0  0  0  0  0  0  0  0
  -24.9203  -33.6870   27.6697 C   0  0  0  0  0  0  0  0  0  0  0  0
  -25.5934  -31.3745   26.2749 C   0  0  0  0  0  0  0  0  0  0  0  0
  -27.7190  -30.0087   21.8861 C   0  0  0  0  0  0  0  0  0  0  0  0
  -22.7323   -7.9616   20.9996 C   0  0  0  0  0  0  0  0  0  0  0  0
  -22.2496   -9.7480   22.5530 C   0  0  0  0  0  0  0  0  0  0  0  0
  -28.4563  -28.8254   21.8767 C   0  0  0  0  0  0  0  0  0  0  0  0
  -22.9961   -6.1605   23.8476 C   0  0  0  0  0  0  0  0  0  0  0  0
  -23.4941   -4.8847   24.1118 C   0  0  0  0  0  0  0  0  0  0  0  0
  -30.2033  -18.2228   19.7962 C   0  0  0  0  0  0  0  0  0  0  0  0
  -26.5771  -27.6694   20.9012 C   0  0  0  0  0  0  0  0  0  0  0  0
  -28.1218  -19.7856   18.7922 C   0  0  0  0  0  0  0  0  0  0  0  0
  -21.6064   -3.9096   22.9617 C   0  0  0  0  0  0  0  0  0  0  0  0
  -23.6906  -10.1527   20.6565 C   0  0  0  0  0  0  0  0  0  0  0  0
  -30.2867  -19.6140   19.8511 C   0  0  0  0  0  0  0  0  0  0  0  0
  -24.1133  -11.8682   18.8163 C   0  0  0  0  0  0  0  0  0  0  0  0
  -23.9925  -33.1274   26.7770 C   0  0  0  0  0  0  0  0  0  0  0  0
  -26.3993  -30.0289   21.4124 C   0  0  0  0  0  0  0  0  0  0  0  0
  -24.3273  -31.9518   26.0783 C   0  0  0  0  0  0  0  0  0  0  0  0
  -25.8262  -28.8548   20.9033 C   0  0  0  0  0  0  0  0  0  0  0  0
  -29.2460  -20.3954   19.3492 C   0  0  0  0  0  0  0  0  0  0  0  0
  -29.0792  -17.6129   19.2392 C   0  0  0  0  0  0  0  0  0  0  0  0
  -22.0911   -8.4222   22.1496 C   0  0  0  0  0  0  0  0  0  0  0  0
  -27.8844  -27.6549   21.3869 C   0  0  0  0  0  0  0  0  0  0  0  0
  -21.8032   -6.3109   23.1404 C   0  0  0  0  0  0  0  0  0  0  0  0
  -22.7993   -3.7592   23.6689 C   0  0  0  0  0  0  0  0  0  0  0  0
  -28.0385  -18.3943   18.7373 C   0  0  0  0  0  0  0  0  0  0  0  0
  -21.1083   -5.1854   22.6975 C   0  0  0  0  0  0  0  0  0  0  0  0
  -24.5170  -11.0469   19.8860 C   0  0  0  0  0  0  0  0  0  0  0  0
  -25.2606  -12.5162   18.4289 C   0  0  0  0  0  0  0  0  0  0  0  0
  -31.4754  -20.2208   20.4366 C   0  0  0  0  0  0  0  0  0  0  0  0
  -22.8169  -12.0309   18.2257 C   0  0  0  0  0  0  0  0  0  0  0  0
  -23.5637  -30.6673   22.6990 C   0  0  0  0  0  0  0  0  0  0  0  0
  -22.5375  -30.3429   19.6389 C   0  0  0  0  0  0  0  0  0  0  0  0
  -23.0574  -29.0285   16.5327 C   0  0  0  0  0  0  0  0  0  0  0  0
  -29.9400  -15.2797   19.6411 C   0  0  0  0  0  0  0  0  0  0  0  0
  -22.6339  -33.7689   26.6452 C   0  0  0  0  0  0  0  0  0  0  0  0
  -25.6266  -31.3193   21.4046 C   0  0  0  0  0  0  0  0  0  0  0  0
  -24.4199  -28.8279   20.3645 C   0  0  0  0  0  0  0  0  0  0  0  0
  -21.8616  -33.3116   25.4105 C   0  0  0  0  0  0  0  0  0  0  0  0
  -30.0891  -11.7233   19.7249 C   0  0  0  0  0  0  0  0  0  0  0  0
  -21.9247  -31.7937   25.2733 C   0  0  0  0  0  0  0  0  0  0  0  0
  -28.6195  -11.2978   19.6863 C   0  0  0  0  0  0  0  0  0  0  0  0
  -30.2903  -12.9934   20.5495 C   0  0  0  0  0  0  0  0  0  0  0  0
  -27.9687  -13.7001   20.1253 C   0  0  0  0  0  0  0  0  0  0  0  0
  -30.2915  -22.6169   18.7884 C   0  0  0  0  0  0  0  0  0  0  0  0
  -28.2282  -22.6964   19.2346 C   0  0  0  0  0  0  0  0  0  0  0  0
  -23.3706  -31.3156   25.0934 C   0  0  1  0  0  0  0  0  0  0  0  0
  -24.1156  -31.1107   21.3737 C   0  0  1  0  0  0  0  0  0  0  0  0
  -27.7070  -12.4618   19.2524 C   0  0  2  0  0  0  0  0  0  0  0  0
  -29.2731  -23.7775   18.8734 C   0  0  0  0  0  0  0  0  0  0  0  0
  -32.8562  -19.9573   19.8405 C   0  0  0  0  0  0  0  0  0  0  0  0
  -30.2633  -25.0831   16.9856 C   0  0  0  0  0  0  0  0  0  0  0  0
  -22.0266  -28.9051   14.2480 C   0  0  0  0  0  0  0  0  0  0  0  0
  -20.5070  -28.3109   20.6674 C   0  0  0  0  0  0  0  0  0  0  0  0
  -20.1825  -27.5442   18.3062 C   0  0  0  0  0  0  0  0  0  0  0  0
  -19.6206  -29.8899   18.9424 C   0  0  0  0  0  0  0  0  0  0  0  0
  -25.3876  -30.3575   15.2826 C   0  0  0  0  0  0  0  0  0  0  0  0
  -29.0145  -24.4844   17.5476 C   0  0  0  0  0  0  0  0  0  0  0  0
  -29.5548  -24.7671   19.9995 C   0  0  0  0  0  0  0  0  0  0  0  0
  -28.3012  -25.5565   20.3482 C   0  0  0  0  0  0  0  0  0  1  0  0
  -22.0465  -29.1936   18.7921 C   0  0  1  0  0  0  0  0  0  0  0  0
  -22.9947  -29.6538   15.1509 C   0  0  2  0  0  0  0  0  0  0  0  0
  -20.6150  -28.7344   19.1889 C   0  0  0  0  0  0  0  0  0  0  0  0
  -25.8192  -11.1607   20.1604 N   0  0  0  0  0  0  0  0  0  0  0  0
  -31.4053  -20.9938   21.4935 N   0  0  0  0  0  0  0  0  0  0  0  0
  -26.2437  -12.0610   19.2575 N   0  0  0  0  0  0  0  0  0  0  0  0
  -29.3092  -21.7837   19.3954 N   0  0  0  0  0  0  0  0  0  0  0  0
  -23.7028  -30.1135   20.3840 N   0  0  0  0  0  0  0  0  0  0  0  0
  -29.3962  -14.0536   20.0790 N   0  0  0  0  0  0  0  0  0  0  0  0
  -25.5145  -13.4251   17.4636 N   0  0  0  0  0  0  0  0  0  0  0  0
  -21.7478  -11.2888   18.7459 N   0  0  0  0  0  0  0  0  0  0  0  0
  -28.9958  -16.1994   19.1859 N   0  0  0  0  0  0  0  0  0  0  0  0
  -23.8140  -31.5465   23.7352 N   0  0  0  0  0  0  0  0  0  0  0  0
  -22.1721  -29.6262   17.4045 N   0  0  0  0  0  0  0  0  0  0  0  0
  -24.3414  -29.6365   14.5128 N   0  3  0  0  0  0  0  0  0  0  0  0
  -22.6160  -12.7990   17.2546 O   0  0  0  0  0  0  0  0  0  0  0  0
  -22.9546  -29.6067   22.7754 O   0  0  0  0  0  0  0  0  0  0  0  0
  -21.9142  -31.4074   19.6338 O   0  0  0  0  0  0  0  0  0  0  0  0
  -23.8134  -28.0999   16.8099 O   0  0  0  0  0  0  0  0  0  0  0  0
  -31.1560  -15.4876   19.6425 O   0  0  0  0  0  0  0  0  0  0  0  0
  -21.3105   -7.5782   22.8782 O   0  0  0  0  0  0  0  0  0  0  0  0
  -28.6016  -26.4984   21.3772 O   0  0  0  0  0  0  0  0  0  1  0  0
  -23.2784   -2.5341   23.9214 F   0  0  0  0  0  0  0  0  0  0  0  0
  -26.9536  -17.8190   18.1992 F   0  0  0  0  0  0  0  0  0  0  0  0
  -19.9624   -5.3236   22.0167 F   0  0  0  0  0  0  0  0  0  0  0  0
  1  2  1  0  0  0  0
  1  5  2  0  0  0  0
  2  6  2  0  0  0  0
  3  8  2  0  0  0  0
  3 17  1  0  0  0  0
  4  9  1  0  0  0  0
  4 17  2  0  0  0  0
  5 20  1  0  0  0  0
  6 22  1  0  0  0  0
  7 10  2  0  0  0  0
  7 21  1  0  0  0  0
  8 26  1  0  0  0  0
  9 26  2  0  0  0  0
 10 27  1  0  0  0  0
 11 12  2  0  0  0  0
 11 28  1  0  0  0  0
 12 29  1  0  0  0  0
 13 18  1  0  0  0  0
 13 25  2  0  0  0  0
 14 23  1  0  0  0  0
 14 27  2  0  0  0  0
 15 24  1  0  0  0  0
 15 30  2  0  0  0  0
 16 29  2  0  0  0  0
 16 31  1  0  0  0  0
 17 32  1  0  0  0  0
 18 24  2  0  0  0  0
 18 34  1  0  0  0  0
 19 32  1  0  0  0  0
 19 33  2  0  0  0  0
 19 35  1  0  0  0  0
 20 22  2  0  0  0  0
 20 40  1  0  0  0  0
 21 23  2  0  0  0  0
 21 41  1  0  0  0  0
 22 51  1  0  0  0  0
 23 42  1  0  0  0  0
 24 71  1  0  0  0  0
 25 30  1  0  0  0  0
 25 76  1  0  0  0  0
 26 85  1  0  0  0  0
 27 86  1  0  0  0  0
 28 31  2  0  0  0  0
 28 85  1  0  0  0  0
 29 87  1  0  0  0  0
 30 88  1  0  0  0  0
 31 89  1  0  0  0  0
 32 68  2  0  0  0  0
 33 70  1  0  0  0  0
 33 74  1  0  0  0  0
 34 55  1  0  0  0  0
 34 69  2  0  0  0  0
 35 75  1  0  0  0  0
 35 80  2  0  0  0  0
 36 52  1  0  0  0  0
 36 77  1  0  0  0  0
 36 81  2  0  0  0  0
 37 65  1  0  0  0  0
 37 72  1  0  0  0  0
 37 82  2  0  0  0  0
 38 66  1  0  0  0  0
 38 78  1  0  0  0  0
 38 83  2  0  0  0  0
 39 73  1  0  0  0  0
 39 76  1  0  0  0  0
 39 84  2  0  0  0  0
 40 43  1  0  0  0  0
 41 52  1  0  0  0  0
 42 72  1  0  0  0  0
 43 45  1  0  0  0  0
 44 46  1  0  0  0  0
 44 47  1  0  0  0  0
 45 51  1  0  0  0  0
 46 53  1  0  0  0  0
 47 73  1  0  0  0  0
 48 53  1  0  0  0  0
 48 73  1  0  0  0  0
 49 54  1  0  0  0  0
 49 71  1  0  0  0  0
 50 54  1  0  0  0  0
 50 71  1  0  0  0  0
 51 77  1  0  0  0  0
 52 72  1  0  0  0  0
 53 70  1  0  0  0  0
 54 62  1  0  0  0  0
 54 63  1  0  0  0  0
 56 62  1  0  0  0  0
 57 66  1  0  0  0  0
 58 67  1  0  0  0  0
 59 67  1  0  0  0  0
 60 67  1  0  0  0  0
 61 79  1  0  0  0  0
 63 64  1  0  0  0  0
 64 86  1  0  0  0  0
 65 67  1  0  0  0  0
 65 78  1  0  0  0  0
 66 79  1  0  0  0  0
 68 70  1  0  0  0  0
M  CHG  1  79   1
M  ISO  4  39 100  64 101  76 100  86 101
M  END
> <Batch ID>
0144

> <Smiles>
CCC1(C[101CH2:1][101O:1]c2ccc3c(c2)CN(C(=O)C(NC(=O)C(C)NC)C(C)(C)C)C(C(=O)NC2CCCc4ccccc42)C3)CN(c2cc(F)c([100NH:0][100C:0](=O)N3CCCC(n4nc(-c5ccc(Oc6ccc(F)cc6F)cc5)c(C(N)=O)c4N)C3)cc2C(C)=N)C1

> <Shape>
0.304

> <Color>
0.092

> <Negative vol penalty>
0.000

$$$$

  -OEChem-04052303043D

 83 92  0     1  0  0  0  0  0999 V2000
  -25.2104  -37.2271   17.5682 C   0  0  0  0  0  0  0  0  0  0  0  0
  -25.7914  -35.9759   17.3887 C   0  0  0  0  0  0  0  0  0  0  0  0
  -24.5667   -9.2176   21.5085 C   0  0  0  0  0  0  0  0  0  0  0  0
  -22.7619  -10.3650   20.3846 C   0  0  0  0  0  0  0  0  0  0  0  0
  -24.9152  -37.6794   18.8536 C   0  0  0  0  0  0  0  0  0  0  0  0
  -26.0786  -35.1766   18.4946 C   0  0  0  0  0  0  0  0  0  0  0  0
  -25.7833  -29.0671   18.7976 C   0  0  0  0  0  0  0  0  0  0  0  0
  -23.7419   -8.1096   21.7019 C   0  0  0  0  0  0  0  0  0  0  0  0
  -21.9370   -9.2570   20.5780 C   0  0  0  0  0  0  0  0  0  0  0  0
  -26.7570  -28.0746   18.6937 C   0  0  0  0  0  0  0  0  0  0  0  0
  -21.2549   -7.1920   23.7989 C   0  0  0  0  0  0  0  0  0  0  0  0
  -21.2587   -6.5943   25.0592 C   0  0  0  0  0  0  0  0  0  0  0  0
  -26.9327  -28.0038   21.0986 C   0  0  0  0  0  0  0  0  0  0  0  0
  -26.9404  -20.6008   19.7677 C   0  0  0  0  0  0  0  0  0  0  0  0
  -22.0037   -4.5186   24.0725 C   0  0  0  0  0  0  0  0  0  0  0  0
  -24.0767  -10.3454   20.8499 C   0  0  0  0  0  0  0  0  0  0  0  0
  -25.7716  -11.7416   19.5515 C   0  0  0  0  0  0  0  0  0  0  0  0
  -25.1900  -36.8813   19.9752 C   0  0  0  0  0  0  0  0  0  0  0  0
  -25.3842  -29.5438   20.0545 C   0  0  0  0  0  0  0  0  0  0  0  0
  -25.7880  -35.6192   19.7963 C   0  0  0  0  0  0  0  0  0  0  0  0
  -25.9520  -29.0005   21.2158 C   0  0  0  0  0  0  0  0  0  0  0  0
  -27.2695  -21.3759   18.6183 C   0  0  0  0  0  0  0  0  0  0  0  0
  -22.4270   -8.1292   21.2366 C   0  0  0  0  0  0  0  0  0  0  0  0
  -27.3339  -27.5449   19.8442 C   0  0  0  0  0  0  0  0  0  0  0  0
  -21.6255   -6.4530   22.6754 C   0  0  0  0  0  0  0  0  0  0  0  0
  -21.6331   -5.2576   25.1960 C   0  0  0  0  0  0  0  0  0  0  0  0
  -21.9999   -5.1163   22.8122 C   0  0  0  0  0  0  0  0  0  0  0  0
  -24.9281  -11.4906   20.6503 C   0  0  0  0  0  0  0  0  0  0  0  0
  -27.1309  -20.6562   17.4519 C   0  0  0  0  0  0  0  0  0  0  0  0
  -26.3594  -12.9492   19.8387 C   0  0  0  0  0  0  0  0  0  0  0  0
  -26.5624  -19.3182   19.4359 C   0  0  0  0  0  0  0  0  0  0  0  0
  -26.0030  -10.9536   18.3763 C   0  0  0  0  0  0  0  0  0  0  0  0
  -25.4796  -32.3642   21.5175 C   0  0  0  0  0  0  0  0  0  0  0  0
  -23.7776  -30.8027   23.7951 C   0  0  0  0  0  0  0  0  0  0  0  0
  -22.9311  -27.8365   25.2553 C   0  0  0  0  0  0  0  0  0  0  0  0
  -26.0541  -18.2091   21.6399 C   0  0  0  0  0  0  0  0  0  0  0  0
  -24.8964  -37.4326   21.3480 C   0  0  0  0  0  0  0  0  0  0  0  0
  -24.3134  -30.5958   20.1505 C   0  0  0  0  0  0  0  0  0  0  0  0
  -25.5437  -29.4636   22.5896 C   0  0  0  0  0  0  0  0  0  0  0  0
  -24.8880  -36.3686   22.4427 C   0  0  0  0  0  0  0  0  0  0  0  0
  -26.3877  -15.6661   24.1095 C   0  0  0  0  0  0  0  0  0  0  0  0
  -26.1036  -35.4568   22.3102 C   0  0  0  0  0  0  0  0  0  0  0  0
  -26.1071  -14.3737   23.3393 C   0  0  0  0  0  0  0  0  0  0  0  0
  -25.5083  -16.8174   23.6250 C   0  0  0  0  0  0  0  0  0  0  0  0
  -25.2686  -15.7709   21.4076 C   0  0  0  0  0  0  0  0  0  0  0  0
  -27.8347  -23.4610   19.8341 C   0  0  0  0  0  0  0  0  0  0  0  0
  -28.7097  -23.2696   17.9218 C   0  0  0  0  0  0  0  0  0  0  0  0
  -26.0917  -34.7127   20.9694 C   0  0  1  0  0  0  0  0  0  0  0  0
  -24.3534  -31.3710   21.4638 C   0  0  1  0  0  0  0  0  0  0  0  0
  -26.1761  -14.5991   21.8162 C   0  0  2  0  0  0  0  0  0  0  0  0
  -28.7882  -24.3557   19.0151 C   0  0  0  0  0  0  0  0  0  0  0  0
  -27.3707  -21.0882   16.0556 C   0  0  0  0  0  0  0  0  0  0  0  0
  -21.5488  -26.8824   27.1197 C   0  0  0  0  0  0  0  0  0  0  0  0
  -25.8650  -31.7344   25.8162 C   0  0  0  0  0  0  0  0  0  0  0  0
  -24.9892  -30.0131   27.4094 C   0  0  0  0  0  0  0  0  0  0  0  0
  -23.5019  -31.8561   26.6258 C   0  0  0  0  0  0  0  0  0  0  0  0
  -21.2795  -26.2546   23.3768 C   0  0  0  0  0  0  0  0  0  0  0  0
  -28.2048  -25.6993   18.6230 C   0  0  0  0  0  0  0  0  0  1  0  0
  -24.1236  -29.9998   25.0258 C   0  0  1  0  0  0  0  0  0  0  0  0
  -21.5847  -27.2539   25.6455 C   0  0  2  0  0  0  0  0  0  0  0  0
  -24.6292  -30.8933   26.1935 C   0  0  0  0  0  0  0  0  0  0  0  0
  -24.9733  -12.4608   21.5672 N   0  0  0  0  0  0  0  0  0  0  0  0
  -25.8523  -13.3331   21.0452 N   0  0  0  0  0  0  0  0  0  0  0  0
  -27.6686  -22.6579   18.6725 N   0  0  0  0  0  0  0  0  0  0  0  0
  -24.4974  -30.4985   22.6309 N   0  0  0  0  0  0  0  0  0  0  0  0
  -25.6281  -16.9745   22.1738 N   0  0  0  0  0  0  0  0  0  0  0  0
  -27.2555  -13.7096   19.1745 N   0  0  0  0  0  0  0  0  0  0  0  0
  -25.3167   -9.7392   18.2403 N   0  0  0  0  0  0  0  0  0  0  0  0
  -26.1618  -18.2297   20.2498 N   0  0  0  0  0  0  0  0  0  0  0  0
  -25.1566  -33.6091   21.0122 N   0  0  0  0  0  0  0  0  0  0  0  0
  -22.9379  -29.2124   25.3461 N   0  0  0  0  0  0  0  0  0  0  0  0
  -21.2984  -26.0298   24.8452 N   0  3  0  0  0  0  0  0  0  0  0  0
  -26.8074  -11.3077   17.4813 O   0  0  0  0  0  0  0  0  0  0  0  0
  -26.5612  -32.0265   21.9843 O   0  0  0  0  0  0  0  0  0  0  0  0
  -22.8961  -31.6629   23.8623 O   0  0  0  0  0  0  0  0  0  0  0  0
  -23.8828  -27.1405   24.9084 O   0  0  0  0  0  0  0  0  0  0  0  0
  -26.3311  -19.1684   22.3644 O   0  0  0  0  0  0  0  0  0  0  0  0
  -30.0926  -24.5460   19.6021 O   0  0  0  0  0  0  0  0  0  0  0  0
  -21.6220   -7.0480   21.4249 O   0  0  0  0  0  0  0  0  0  0  0  0
  -28.2850  -26.5766   19.7456 O   0  0  0  0  0  0  0  0  0  1  0  0
  -21.6382   -4.6842   26.4065 F   0  0  0  0  0  0  0  0  0  0  0  0
  -22.3580   -4.4016   21.7366 F   0  0  0  0  0  0  0  0  0  0  0  0
  -26.6056  -19.0529   17.7448 S   0  0  0  0  0  0  0  0  0  0  0  0
  1  2  1  0  0  0  0
  1  5  2  0  0  0  0
  2  6  2  0  0  0  0
  3  8  2  0  0  0  0
  3 16  1  0  0  0  0
  4  9  1  0  0  0  0
  4 16  2  0  0  0  0
  5 18  1  0  0  0  0
  6 20  1  0  0  0  0
  7 10  2  0  0  0  0
  7 19  1  0  0  0  0
  8 23  1  0  0  0  0
  9 23  2  0  0  0  0
 10 24  1  0  0  0  0
 11 12  2  0  0  0  0
 11 25  1  0  0  0  0
 12 26  1  0  0  0  0
 13 21  1  0  0  0  0
 13 24  2  0  0  0  0
 14 22  1  0  0  0  0
 14 31  2  0  0  0  0
 15 26  2  0  0  0  0
 15 27  1  0  0  0  0
 16 28  1  0  0  0  0
 17 28  1  0  0  0  0
 17 30  2  0  0  0  0
 17 32  1  0  0  0  0
 18 20  2  0  0  0  0
 18 37  1  0  0  0  0
 19 21  2  0  0  0  0
 19 38  1  0  0  0  0
 20 48  1  0  0  0  0
 21 39  1  0  0  0  0
 22 29  2  0  0  0  0
 22 64  1  0  0  0  0
 23 79  1  0  0  0  0
 24 80  1  0  0  0  0
 25 27  2  0  0  0  0
 25 79  1  0  0  0  0
 26 81  1  0  0  0  0
 27 82  1  0  0  0  0
 28 62  2  0  0  0  0
 29 52  1  0  0  0  0
 29 83  1  0  0  0  0
 30 63  1  0  0  0  0
 30 67  1  0  0  0  0
 31 69  1  0  0  0  0
 31 83  1  0  0  0  0
 32 68  1  0  0  0  0
 32 73  2  0  0  0  0
 33 49  1  0  0  0  0
 33 70  1  0  0  0  0
 33 74  2  0  0  0  0
 34 59  1  0  0  0  0
 34 65  1  0  0  0  0
 34 75  2  0  0  0  0
 35 60  1  0  0  0  0
 35 71  1  0  0  0  0
 35 76  2  0  0  0  0
 36 66  1  0  0  0  0
 36 69  1  0  0  0  0
 36 77  2  0  0  0  0
 37 40  1  0  0  0  0
 38 49  1  0  0  0  0
 39 65  1  0  0  0  0
 40 42  1  0  0  0  0
 41 43  1  0  0  0  0
 41 44  1  0  0  0  0
 42 48  1  0  0  0  0
 43 50  1  0  0  0  0
 44 66  1  0  0  0  0
 45 50  1  0  0  0  0
 45 66  1  0  0  0  0
 46 51  1  0  0  0  0
 46 64  1  0  0  0  0
 47 51  1  0  0  0  0
 47 64  1  0  0  0  0
 48 70  1  0  0  0  0
 49 65  1  0  0  0  0
 50 63  1  0  0  0  0
 51 58  1  0  0  0  0
 51 78  1  0  0  0  0
 53 60  1  0  0  0  0
 54 61  1  0  0  0  0
 55 61  1  0  0  0  0
 56 61  1  0  0  0  0
 57 72  1  0  0  0  0
 58 80  1  0  0  0  0
 59 61  1  0  0  0  0
 59 71  1  0  0  0  0
 60 72  1  0  0  0  0
 62 63  1  0  0  0  0
M  CHG  1  72   1
M  ISO  4  36 100  58 101  69 100  80 101
M  END
> <Batch ID>
0144

> <Smiles>
CNC(C)C(=O)NC(C(=O)N1Cc2cc([101O:1][101CH2:1]C3(O)CN(c4cc([100NH:0][100C:0](=O)N5CCCC(n6nc(-c7ccc(Oc8ccc(F)cc8F)cc7)c(C(N)=O)c6N)C5)sc4C)C3)ccc2CC1C(=O)NC1CCCc2ccccc21)C(C)(C)C

> <Shape>
0.261

> <Color>
0.137

> <Negative vol penalty>
0.000

$$$$

  -OEChem-04052303043D

 81 90  0     1  0  0  0  0  0999 V2000
  -35.7146  -35.3200   25.0511 C   0  0  0  0  0  0  0  0  0  0  0  0
  -35.9932  -33.9939   24.7356 C   0  0  0  0  0  0  0  0  0  0  0  0
  -23.0400   -9.9496   19.8338 C   0  0  0  0  0  0  0  0  0  0  0  0
  -23.8881   -9.6975   22.0820 C   0  0  0  0  0  0  0  0  0  0  0  0
  -34.5031  -35.6516   25.6562 C   0  0  0  0  0  0  0  0  0  0  0  0
  -35.0607  -32.9987   25.0260 C   0  0  0  0  0  0  0  0  0  0  0  0
  -32.6322  -26.7302   22.5510 C   0  0  0  0  0  0  0  0  0  0  0  0
  -22.2985   -8.7775   19.9821 C   0  0  0  0  0  0  0  0  0  0  0  0
  -23.1465   -8.5254   22.2303 C   0  0  0  0  0  0  0  0  0  0  0  0
  -32.3961  -25.4233   22.9753 C   0  0  0  0  0  0  0  0  0  0  0  0
  -19.9015   -6.0458   19.8962 C   0  0  0  0  0  0  0  0  0  0  0  0
  -18.5776   -6.0560   19.4572 C   0  0  0  0  0  0  0  0  0  0  0  0
  -30.3035  -26.1240   23.9495 C   0  0  0  0  0  0  0  0  0  0  0  0
  -29.6044  -18.5674   23.0598 C   0  0  0  0  0  0  0  0  0  0  0  0
  -18.0772   -7.8400   21.0078 C   0  0  0  0  0  0  0  0  0  0  0  0
  -23.8348  -10.4096   20.8838 C   0  0  0  0  0  0  0  0  0  0  0  0
  -24.1889  -12.9315   21.0339 C   0  0  0  0  0  0  0  0  0  0  0  0
  -33.5513  -34.6612   25.9453 C   0  0  0  0  0  0  0  0  0  0  0  0
  -31.7092  -27.7477   22.8328 C   0  0  0  0  0  0  0  0  0  0  0  0
  -33.8358  -33.3173   25.6367 C   0  0  0  0  0  0  0  0  0  0  0  0
  -30.5289  -27.4425   23.5255 C   0  0  0  0  0  0  0  0  0  0  0  0
  -29.5655  -17.2703   22.5973 C   0  0  0  0  0  0  0  0  0  0  0  0
  -22.3518   -8.0654   21.1803 C   0  0  0  0  0  0  0  0  0  0  0  0
  -31.2330  -25.1206   23.6772 C   0  0  0  0  0  0  0  0  0  0  0  0
  -20.3133   -6.9326   20.8911 C   0  0  0  0  0  0  0  0  0  0  0  0
  -17.6655   -6.9531   20.0129 C   0  0  0  0  0  0  0  0  0  0  0  0
  -19.4011   -7.8297   21.4469 C   0  0  0  0  0  0  0  0  0  0  0  0
  -24.6014  -11.6200   20.7310 C   0  0  0  0  0  0  0  0  0  0  0  0
  -25.2712  -13.7143   20.7143 C   0  0  0  0  0  0  0  0  0  0  0  0
  -30.5816  -16.9605   21.7913 C   0  0  0  0  0  0  0  0  0  0  0  0
  -30.7354  -19.1902   22.5149 C   0  0  0  0  0  0  0  0  0  0  0  0
  -22.9391  -13.4001   21.5574 C   0  0  0  0  0  0  0  0  0  0  0  0
  -31.7951  -30.4576   24.4918 C   0  0  0  0  0  0  0  0  0  0  0  0
  -28.8239  -30.8552   23.2523 C   0  0  0  0  0  0  0  0  0  0  0  0
  -30.6894  -21.5360   23.4252 C   0  0  0  0  0  0  0  0  0  0  0  0
  -26.0218  -29.4258   21.9285 C   0  0  0  0  0  0  0  0  0  0  0  0
  -30.6787  -14.7990   20.6930 C   0  0  0  0  0  0  0  0  0  0  0  0
  -32.2756  -35.0619   26.6429 C   0  0  0  0  0  0  0  0  0  0  0  0
  -31.9660  -29.1471   22.3449 C   0  0  0  0  0  0  0  0  0  0  0  0
  -29.4968  -28.4946   23.8356 C   0  0  0  0  0  0  0  0  0  0  0  0
  -28.9953  -15.9040   22.4653 C   0  0  0  0  0  0  0  0  0  0  0  0
  -31.1844  -33.9965   26.5763 C   0  0  0  0  0  0  0  0  0  0  0  0
  -29.5417  -12.5817   18.2308 C   0  0  0  0  0  0  0  0  0  0  0  0
  -31.7564  -32.6244   26.9179 C   0  0  0  0  0  0  0  0  0  0  0  0
  -28.1093  -12.2561   18.6648 C   0  0  0  0  0  0  0  0  0  0  0  0
  -30.4890  -12.6854   19.4267 C   0  0  0  0  0  0  0  0  0  0  0  0
  -28.6382  -13.2478   20.9239 C   0  0  0  0  0  0  0  0  0  0  0  0
  -32.8394  -32.2125   25.9134 C   0  0  1  0  0  0  0  0  0  0  0  0
  -31.2015  -30.2050   23.1348 C   0  0  1  0  0  0  0  0  0  0  0  0
  -27.6215  -13.2124   19.7721 C   0  0  2  0  0  0  0  0  0  0  0  0
  -23.7452  -30.0037   21.0450 C   0  0  0  0  0  0  0  0  0  0  0  0
  -27.8259  -31.2746   26.1050 C   0  0  0  0  0  0  0  0  0  0  0  0
  -25.4957  -30.8967   25.2712 C   0  0  0  0  0  0  0  0  0  0  0  0
  -26.8287  -32.8226   24.4128 C   0  0  0  0  0  0  0  0  0  0  0  0
  -26.6522  -28.3239   19.2551 C   0  0  0  0  0  0  0  0  0  0  0  0
  -31.5361  -22.7902   23.3118 C   0  0  0  0  0  0  0  0  0  1  0  0
  -27.4269  -30.4774   23.6820 C   0  0  1  0  0  0  0  0  0  0  0  0
  -25.2055  -29.7643   20.6942 C   0  0  2  0  0  0  0  0  0  0  0  0
  -26.9145  -31.3481   24.8637 C   0  0  0  0  0  0  0  0  0  0  0  0
  -25.8484  -11.5687   20.2554 N   0  0  0  0  0  0  0  0  0  0  0  0
  -26.2288  -12.8576   20.2569 N   0  0  0  0  0  0  0  0  0  0  0  0
  -30.1536  -15.6989   21.5823 N   0  0  0  0  0  0  0  0  0  0  0  0
  -29.7963  -29.8492   23.3429 N   0  0  0  0  0  0  0  0  0  0  0  0
  -29.9548  -13.6353   20.4086 N   0  0  0  0  0  0  0  0  0  0  0  0
  -25.4877  -15.0451   20.7826 N   0  0  0  0  0  0  0  0  0  0  0  0
  -21.9348  -12.4613   21.8302 N   0  0  0  0  0  0  0  0  0  0  0  0
  -31.2167  -20.4627   22.6600 N   0  0  0  0  0  0  0  0  0  0  0  0
  -32.2366  -31.7534   24.6803 N   0  0  0  0  0  0  0  0  0  0  0  0
  -26.5979  -30.5489   22.4836 N   0  0  0  0  0  0  0  0  0  0  0  0
  -25.2750  -28.6510   19.7059 N   0  3  0  0  0  0  0  0  0  0  0  0
  -22.7136  -14.6171   21.7614 O   0  0  0  0  0  0  0  0  0  0  0  0
  -31.8471  -29.5450   25.3080 O   0  0  0  0  0  0  0  0  0  0  0  0
  -29.0427  -31.9986   22.8443 O   0  0  0  0  0  0  0  0  0  0  0  0
  -29.6742  -21.5062   24.1129 O   0  0  0  0  0  0  0  0  0  0  0  0
  -26.1340  -28.2803   22.3595 O   0  0  0  0  0  0  0  0  0  0  0  0
  -31.7571  -15.0305   20.1269 O   0  0  0  0  0  0  0  0  0  0  0  0
  -21.6282   -6.9218   21.3254 O   0  0  0  0  0  0  0  0  0  0  0  0
  -30.9980  -23.8326   24.0973 O   0  0  0  0  0  0  0  0  0  1  0  0
  -16.3945   -6.9639   19.5901 F   0  0  0  0  0  0  0  0  0  0  0  0
  -19.7911   -8.6848   22.4021 F   0  0  0  0  0  0  0  0  0  0  0  0
  -31.6674  -18.1182   21.4587 S   0  0  0  0  0  0  0  0  0  0  0  0
  1  2  1  0  0  0  0
  1  5  2  0  0  0  0
  2  6  2  0  0  0  0
  3  8  2  0  0  0  0
  3 16  1  0  0  0  0
  4  9  1  0  0  0  0
  4 16  2  0  0  0  0
  5 18  1  0  0  0  0
  6 20  1  0  0  0  0
  7 10  2  0  0  0  0
  7 19  1  0  0  0  0
  8 23  1  0  0  0  0
  9 23  2  0  0  0  0
 10 24  1  0  0  0  0
 11 12  2  0  0  0  0
 11 25  1  0  0  0  0
 12 26  1  0  0  0  0
 13 21  1  0  0  0  0
 13 24  2  0  0  0  0
 14 22  1  0  0  0  0
 14 31  2  0  0  0  0
 15 26  2  0  0  0  0
 15 27  1  0  0  0  0
 16 28  1  0  0  0  0
 17 28  1  0  0  0  0
 17 29  2  0  0  0  0
 17 32  1  0  0  0  0
 18 20  2  0  0  0  0
 18 38  1  0  0  0  0
 19 21  2  0  0  0  0
 19 39  1  0  0  0  0
 20 48  1  0  0  0  0
 21 40  1  0  0  0  0
 22 30  2  0  0  0  0
 22 41  1  0  0  0  0
 23 77  1  0  0  0  0
 24 78  1  0  0  0  0
 25 27  2  0  0  0  0
 25 77  1  0  0  0  0
 26 79  1  0  0  0  0
 27 80  1  0  0  0  0
 28 60  2  0  0  0  0
 29 61  1  0  0  0  0
 29 65  1  0  0  0  0
 30 62  1  0  0  0  0
 30 81  1  0  0  0  0
 31 67  1  0  0  0  0
 31 81  1  0  0  0  0
 32 66  1  0  0  0  0
 32 71  2  0  0  0  0
 33 49  1  0  0  0  0
 33 68  1  0  0  0  0
 33 72  2  0  0  0  0
 34 57  1  0  0  0  0
 34 63  1  0  0  0  0
 34 73  2  0  0  0  0
 35 56  1  0  0  0  0
 35 67  1  0  0  0  0
 35 74  2  0  0  0  0
 36 58  1  0  0  0  0
 36 69  1  0  0  0  0
 36 75  2  0  0  0  0
 37 62  1  0  0  0  0
 37 64  1  0  0  0  0
 37 76  2  0  0  0  0
 38 42  1  0  0  0  0
 39 49  1  0  0  0  0
 40 63  1  0  0  0  0
 41 62  1  0  0  0  0
 42 44  1  0  0  0  0
 43 45  1  0  0  0  0
 43 46  1  0  0  0  0
 44 48  1  0  0  0  0
 45 50  1  0  0  0  0
 46 64  1  0  0  0  0
 47 50  1  0  0  0  0
 47 64  1  0  0  0  0
 48 68  1  0  0  0  0
 49 63  1  0  0  0  0
 50 61  1  0  0  0  0
 51 58  1  0  0  0  0
 52 59  1  0  0  0  0
 53 59  1  0  0  0  0
 54 59  1  0  0  0  0
 55 70  1  0  0  0  0
 56 78  1  0  0  0  0
 57 59  1  0  0  0  0
 57 69  1  0  0  0  0
 58 70  1  0  0  0  0
 60 61  1  0  0  0  0
M  CHG  1  70   1
M  ISO  4  37 100  56 101  62 100  78 101
M  END
> <Batch ID>
0144

> <Smiles>
CNC(C)C(=O)NC(C(=O)N1Cc2cc([101O:1][101CH2:1]C(=O)Nc3cc4c(s3)[100N:0]([100C:0](=O)N3CCCC(n5nc(-c6ccc(Oc7ccc(F)cc7F)cc6)c(C(N)=O)c5N)C3)C4)ccc2CC1C(=O)NC1CCCc2ccccc21)C(C)(C)C

> <Shape>
0.237

> <Color>
0.189

> <Negative vol penalty>
0.000

$$$$

  -OEChem-04052303043D

 89 98  0     1  0  0  0  0  0999 V2000
  -18.7032  -28.6205   22.7423 C   0  0  0  0  0  0  0  0  0  0  0  0
  -19.9797  -28.7000   23.2897 C   0  0  0  0  0  0  0  0  0  0  0  0
  -26.0012  -13.7716   19.7064 C   0  0  0  0  0  0  0  0  0  0  0  0
  -24.9700  -13.6019   21.8847 C   0  0  0  0  0  0  0  0  0  0  0  0
  -18.3901  -27.5931   21.8532 C   0  0  0  0  0  0  0  0  0  0  0  0
  -20.9435  -27.7515   22.9493 C   0  0  0  0  0  0  0  0  0  0  0  0
  -25.4455  -29.8352   21.9320 C   0  0  0  0  0  0  0  0  0  0  0  0
  -25.9505  -12.3839   19.5743 C   0  0  0  0  0  0  0  0  0  0  0  0
  -24.9193  -12.2143   21.7526 C   0  0  0  0  0  0  0  0  0  0  0  0
  -26.2258  -30.2274   23.0188 C   0  0  0  0  0  0  0  0  0  0  0  0
  -22.9934   -9.9332   20.1690 C   0  0  0  0  0  0  0  0  0  0  0  0
  -21.8069   -9.2927   20.5260 C   0  0  0  0  0  0  0  0  0  0  0  0
  -27.5271  -28.2073   22.8059 C   0  0  0  0  0  0  0  0  0  0  0  0
  -26.3401  -23.1196   26.5933 C   0  0  0  0  0  0  0  0  0  0  0  0
  -22.9992   -8.0133   22.1930 C   0  0  0  0  0  0  0  0  0  0  0  0
  -24.3647  -22.7116   25.4386 C   0  0  0  0  0  0  0  0  0  0  0  0
  -25.5110  -14.3806   20.8616 C   0  0  0  0  0  0  0  0  0  0  0  0
  -24.5807  -16.7422   20.6061 C   0  0  0  0  0  0  0  0  0  0  0  0
  -19.3534  -26.6371   21.4943 C   0  0  0  0  0  0  0  0  0  0  0  0
  -25.6937  -28.6189   21.2797 C   0  0  0  0  0  0  0  0  0  0  0  0
  -20.6425  -26.7096   22.0557 C   0  0  0  0  0  0  0  0  0  0  0  0
  -26.7501  -27.8032   21.7094 C   0  0  0  0  0  0  0  0  0  0  0  0
  -25.7160  -22.4515   25.5005 C   0  0  0  0  0  0  0  0  0  0  0  0
  -25.4096  -11.6053   20.5974 C   0  0  0  0  0  0  0  0  0  0  0  0
  -27.2649  -29.4121   23.4577 C   0  0  0  0  0  0  0  0  0  0  0  0
  -24.1828   -9.6138   20.8239 C   0  0  0  0  0  0  0  0  0  0  0  0
  -21.8097   -8.3327   21.5380 C   0  0  0  0  0  0  0  0  0  0  0  0
  -24.1857   -8.6539   21.8359 C   0  0  0  0  0  0  0  0  0  0  0  0
  -25.5635  -15.8140   20.9989 C   0  0  0  0  0  0  0  0  0  0  0  0
  -25.4419  -23.8651   27.3250 C   0  0  0  0  0  0  0  0  0  0  0  0
  -25.1051  -17.9640   20.9505 C   0  0  0  0  0  0  0  0  0  0  0  0
  -26.7660  -28.2060   27.4600 C   0  0  0  0  0  0  0  0  0  0  0  0
  -26.8782  -26.7537   27.8198 C   0  0  0  0  0  0  0  0  0  0  0  0
  -27.9003  -28.8965   27.2681 C   0  0  0  0  0  0  0  0  0  0  0  0
  -23.3074  -16.5198   19.9856 C   0  0  0  0  0  0  0  0  0  0  0  0
  -24.0350  -25.9494   20.8041 C   0  0  0  0  0  0  0  0  0  0  0  0
  -26.5758  -25.1639   18.9468 C   0  0  0  0  0  0  0  0  0  0  0  0
  -29.8826  -25.6014   18.2255 C   0  0  0  0  0  0  0  0  0  0  0  0
  -27.7418  -21.2928   24.5518 C   0  0  0  0  0  0  0  0  0  0  0  0
  -18.9542  -25.5175   20.5659 C   0  0  0  0  0  0  0  0  0  0  0  0
  -24.8599  -28.2229   20.0921 C   0  0  0  0  0  0  0  0  0  0  0  0
  -27.0705  -26.4974   21.0306 C   0  0  0  0  0  0  0  0  0  0  0  0
  -25.4204  -28.8541   27.3549 C   0  0  0  0  0  0  0  0  0  0  0  0
  -20.1427  -24.7697   19.9672 C   0  0  0  0  0  0  0  0  0  0  0  0
  -24.4784  -28.2895   28.4005 C   0  0  0  0  0  0  0  0  0  0  0  0
  -29.7648  -19.2412   22.4600 C   0  0  0  0  0  0  0  0  0  0  0  0
  -21.1649  -24.4379   21.0496 C   0  0  0  0  0  0  0  0  0  0  0  0
  -28.7712  -18.2430   21.8611 C   0  0  0  0  0  0  0  0  0  0  0  0
  -24.3881  -26.7843   28.2353 C   0  0  0  0  0  0  0  0  0  0  0  0
  -29.4239  -19.5800   23.9101 C   0  0  0  0  0  0  0  0  0  0  0  0
  -27.0511  -19.0332   23.5356 C   0  0  0  0  0  0  0  0  0  0  0  0
  -21.7225  -25.7140   21.6917 C   0  0  1  0  0  0  0  0  0  0  0  0
  -24.8749  -26.7208   19.8258 C   0  0  1  0  0  0  0  0  0  0  0  0
  -27.3157  -18.7110   22.0557 C   0  0  2  0  0  0  0  0  0  0  0  0
  -31.6850  -24.7928   16.6780 C   0  0  0  0  0  0  0  0  0  0  0  0
  -29.5509  -30.6782   26.7953 C   0  0  0  0  0  0  0  0  0  0  0  0
  -27.4218  -31.3316   27.9281 C   0  0  0  0  0  0  0  0  0  0  0  0
  -26.7905  -22.5779   20.5520 C   0  0  0  0  0  0  0  0  0  0  0  0
  -29.1012  -22.2822   19.6347 C   0  0  0  0  0  0  0  0  0  0  0  0
  -27.1423  -22.3101   18.0905 C   0  0  0  0  0  0  0  0  0  0  0  0
  -30.2913  -28.3079   17.0999 C   0  0  0  0  0  0  0  0  0  0  0  0
  -25.6984  -24.7078   28.5409 C   0  0  0  0  0  0  0  0  0  0  0  0
  -27.3994  -30.5985   25.5145 C   0  0  0  0  0  0  0  0  0  1  0  0
  -27.8938  -24.4651   19.1783 C   0  0  1  0  0  0  0  0  0  0  0  0
  -30.6042  -25.8370   16.9109 C   0  0  2  0  0  0  0  0  0  0  0  0
  -28.0455  -30.3672   26.8992 C   0  0  0  0  0  0  0  0  0  0  0  0
  -27.7249  -22.9324   19.3781 C   0  0  0  0  0  0  0  0  0  0  0  0
  -26.6316  -16.3962   21.5504 N   0  0  0  0  0  0  0  0  0  0  0  0
  -26.3230  -17.7035   21.5066 N   0  0  0  0  0  0  0  0  0  0  0  0
  -25.6968  -26.1310   28.2282 N   0  0  0  0  0  0  0  0  0  0  0  0
  -26.2228  -26.1509   19.8779 N   0  0  0  0  0  0  0  0  0  0  0  0
  -28.0310  -20.0196   24.0169 N   0  0  0  0  0  0  0  0  0  0  0  0
  -24.6388  -19.2250   20.8287 N   0  0  0  0  0  0  0  0  0  0  0  0
  -22.9240  -15.2022   19.7007 N   0  0  0  0  0  0  0  0  0  0  0  0
  -26.3851  -21.6146   24.5733 N   0  0  0  0  0  0  0  0  0  0  0  0
  -22.7060  -26.3275   20.8253 N   0  0  0  0  0  0  0  0  0  0  0  0
  -28.7520  -24.8304   18.0565 N   0  0  0  0  0  0  0  0  0  0  0  0
  -31.2426  -27.1837   16.9045 N   0  3  0  0  0  0  0  0  0  0  0  0
  -27.9659  -26.1794   27.7518 O   0  0  0  0  0  0  0  0  0  0  0  0
  -22.5397  -17.4628   19.6775 O   0  0  0  0  0  0  0  0  0  0  0  0
  -24.5538  -25.0749   21.4880 O   0  0  0  0  0  0  0  0  0  0  0  0
  -25.8882  -24.8506   17.9717 O   0  0  0  0  0  0  0  0  0  0  0  0
  -30.2839  -26.0528   19.2959 O   0  0  0  0  0  0  0  0  0  0  0  0
  -28.6341  -22.0534   24.9356 O   0  0  0  0  0  0  0  0  0  0  0  0
  -25.3598  -10.2512   20.4688 O   0  0  0  0  0  0  0  0  0  0  0  0
  -28.0276  -29.7922   24.5187 O   0  0  0  0  0  0  0  0  0  1  0  0
  -20.6700   -7.7188   21.8818 F   0  0  0  0  0  0  0  0  0  0  0  0
  -25.3251   -8.3436   22.4694 F   0  0  0  0  0  0  0  0  0  0  0  0
  -23.8535  -23.7575   26.6944 S   0  0  0  0  0  0  0  0  0  0  0  0
  1  2  1  0  0  0  0
  1  5  2  0  0  0  0
  2  6  2  0  0  0  0
  3  8  2  0  0  0  0
  3 17  1  0  0  0  0
  4  9  1  0  0  0  0
  4 17  2  0  0  0  0
  5 19  1  0  0  0  0
  6 21  1  0  0  0  0
  7 10  2  0  0  0  0
  7 20  1  0  0  0  0
  8 24  1  0  0  0  0
  9 24  2  0  0  0  0
 10 25  1  0  0  0  0
 11 12  2  0  0  0  0
 11 26  1  0  0  0  0
 12 27  1  0  0  0  0
 13 22  1  0  0  0  0
 13 25  2  0  0  0  0
 14 23  1  0  0  0  0
 14 30  2  0  0  0  0
 15 27  2  0  0  0  0
 15 28  1  0  0  0  0
 16 23  2  0  0  0  0
 16 89  1  0  0  0  0
 17 29  1  0  0  0  0
 18 29  1  0  0  0  0
 18 31  2  0  0  0  0
 18 35  1  0  0  0  0
 19 21  2  0  0  0  0
 19 40  1  0  0  0  0
 20 22  2  0  0  0  0
 20 41  1  0  0  0  0
 21 52  1  0  0  0  0
 22 42  1  0  0  0  0
 23 75  1  0  0  0  0
 24 85  1  0  0  0  0
 25 86  1  0  0  0  0
 26 28  2  0  0  0  0
 26 85  1  0  0  0  0
 27 87  1  0  0  0  0
 28 88  1  0  0  0  0
 29 68  2  0  0  0  0
 30 62  1  0  0  0  0
 30 89  1  0  0  0  0
 31 69  1  0  0  0  0
 31 73  1  0  0  0  0
 32 33  1  0  0  0  0
 32 34  2  0  0  0  0
 32 43  1  0  0  0  0
 33 70  1  0  0  0  0
 33 79  2  0  0  0  0
 34 66  1  0  0  0  0
 35 74  1  0  0  0  0
 35 80  2  0  0  0  0
 36 53  1  0  0  0  0
 36 76  1  0  0  0  0
 36 81  2  0  0  0  0
 37 64  1  0  0  0  0
 37 71  1  0  0  0  0
 37 82  2  0  0  0  0
 38 65  1  0  0  0  0
 38 77  1  0  0  0  0
 38 83  2  0  0  0  0
 39 72  1  0  0  0  0
 39 75  1  0  0  0  0
 39 84  2  0  0  0  0
 40 44  1  0  0  0  0
 41 53  1  0  0  0  0
 42 71  1  0  0  0  0
 43 45  1  0  0  0  0
 44 47  1  0  0  0  0
 45 49  1  0  0  0  0
 46 48  1  0  0  0  0
 46 50  1  0  0  0  0
 47 52  1  0  0  0  0
 48 54  1  0  0  0  0
 49 70  1  0  0  0  0
 50 72  1  0  0  0  0
 51 54  1  0  0  0  0
 51 72  1  0  0  0  0
 52 76  1  0  0  0  0
 53 71  1  0  0  0  0
 54 69  1  0  0  0  0
 55 65  1  0  0  0  0
 56 66  1  0  0  0  0
 57 66  1  0  0  0  0
 58 67  1  0  0  0  0
 59 67  1  0  0  0  0
 60 67  1  0  0  0  0
 61 78  1  0  0  0  0
 62 70  1  0  0  0  0
 63 66  1  0  0  0  0
 63 86  1  0  0  0  0
 64 67  1  0  0  0  0
 64 77  1  0  0  0  0
 65 78  1  0  0  0  0
 68 69  1  0  0  0  0
M  CHG  1  78   1
M  ISO  4  39 100  63 101  75 100  86 101
M  END
> <Batch ID>
0144

> <Smiles>
CNC(C)C(=O)NC(C(=O)N1Cc2cc([101O:1][101CH2:1]C(C)(C)C=C3CCCN(Cc4cc([100NH:0][100C:0](=O)N5CCCC(n6nc(-c7ccc(Oc8ccc(F)cc8F)cc7)c(C(N)=O)c6N)C5)cs4)C3=O)ccc2CC1C(=O)NC1CCCc2ccccc21)C(C)(C)C

> <Shape>
0.228

> <Color>
0.066

> <Negative vol penalty>
0.000

$$$$

  -OEChem-04052303043D

 84 92  0     1  0  0  0  0  0999 V2000
  -25.8761  -22.3659   18.9297 C   0  0  0  0  0  0  0  0  0  0  0  0
  -26.4116  -21.1422   18.5443 C   0  0  0  0  0  0  0  0  0  0  0  0
  -26.9278  -29.5611   19.7737 C   0  0  0  0  0  0  0  0  0  0  0  0
  -25.7504  -27.7115   20.7883 C   0  0  0  0  0  0  0  0  0  0  0  0
  -25.1506  -22.4627   20.1152 C   0  0  0  0  0  0  0  0  0  0  0  0
  -26.2117  -20.0122   19.3382 C   0  0  0  0  0  0  0  0  0  0  0  0
  -28.3579  -14.3384   18.7653 C   0  0  0  0  0  0  0  0  0  0  0  0
  -25.7170  -30.2260   19.5805 C   0  0  0  0  0  0  0  0  0  0  0  0
  -24.5395  -28.3764   20.5952 C   0  0  0  0  0  0  0  0  0  0  0  0
  -29.4573  -13.6044   19.2083 C   0  0  0  0  0  0  0  0  0  0  0  0
  -21.1722  -29.7438   20.6961 C   0  0  0  0  0  0  0  0  0  0  0  0
  -20.2649  -29.7611   21.7553 C   0  0  0  0  0  0  0  0  0  0  0  0
  -28.1326  -12.7268   21.0232 C   0  0  0  0  0  0  0  0  0  0  0  0
  -29.3612  -18.8469   22.0096 C   0  0  0  0  0  0  0  0  0  0  0  0
  -21.8962  -30.8901   23.1342 C   0  0  0  0  0  0  0  0  0  0  0  0
  -28.1846  -20.3156   23.3738 C   0  0  0  0  0  0  0  0  0  0  0  0
  -26.9445  -28.3038   20.3776 C   0  0  0  0  0  0  0  0  0  0  0  0
  -29.2983  -28.0598   21.3304 C   0  0  0  0  0  0  0  0  0  0  0  0
  -24.9527  -21.3355   20.9297 C   0  0  0  0  0  0  0  0  0  0  0  0
  -27.1386  -14.2804   19.4554 C   0  0  0  0  0  0  0  0  0  0  0  0
  -25.4620  -20.0844   20.5262 C   0  0  0  0  0  0  0  0  0  0  0  0
  -27.0184  -13.4590   20.5855 C   0  0  0  0  0  0  0  0  0  0  0  0
  -28.8825  -20.1761   22.1944 C   0  0  0  0  0  0  0  0  0  0  0  0
  -24.5228  -29.6337   19.9912 C   0  0  0  0  0  0  0  0  0  0  0  0
  -29.3456  -12.8007   20.3391 C   0  0  0  0  0  0  0  0  0  0  0  0
  -22.4416  -30.2996   20.8559 C   0  0  0  0  0  0  0  0  0  0  0  0
  -20.6268  -30.3343   22.9744 C   0  0  0  0  0  0  0  0  0  0  0  0
  -22.8036  -30.8728   22.0750 C   0  0  0  0  0  0  0  0  0  0  0  0
  -28.1950  -27.6163   20.5769 C   0  0  0  0  0  0  0  0  0  0  0  0
  -30.2257  -27.0544   21.2058 C   0  0  0  0  0  0  0  0  0  0  0  0
  -29.0109  -18.0209   23.0552 C   0  0  0  0  0  0  0  0  0  0  0  0
  -29.4696  -29.2723   22.0763 C   0  0  0  0  0  0  0  0  0  0  0  0
  -25.3294  -16.3931   20.9941 C   0  0  0  0  0  0  0  0  0  0  0  0
  -30.7831  -14.7415   23.1636 C   0  0  0  0  0  0  0  0  0  0  0  0
  -23.2683  -13.8964   21.1964 C   0  0  0  0  0  0  0  0  0  0  0  0
  -22.8033  -10.5155   21.1908 C   0  0  0  0  0  0  0  0  0  0  0  0
  -29.7769  -21.2041   20.0755 C   0  0  0  0  0  0  0  0  0  0  0  0
  -24.1529  -21.4952   22.1985 C   0  0  0  0  0  0  0  0  0  0  0  0
  -25.9544  -15.0575   18.9492 C   0  0  0  0  0  0  0  0  0  0  0  0
  -25.7257  -13.3463   21.3501 C   0  0  0  0  0  0  0  0  0  0  0  0
  -24.3712  -20.3539   23.1865 C   0  0  0  0  0  0  0  0  0  0  0  0
  -31.6228  -23.6003   18.1972 C   0  0  0  0  0  0  0  0  0  0  0  0
  -24.2163  -19.0164   22.4782 C   0  0  0  0  0  0  0  0  0  0  0  0
  -31.0579  -24.9427   18.6673 C   0  0  0  0  0  0  0  0  0  0  0  0
  -30.5392  -22.5266   18.1147 C   0  0  0  0  0  0  0  0  0  0  0  0
  -29.1814  -23.6919   19.8080 C   0  0  0  0  0  0  0  0  0  0  0  0
  -25.2834  -18.8484   21.3891 C   0  0  1  0  0  0  0  0  0  0  0  0
  -24.9083  -15.3225   20.0276 C   0  0  1  0  0  0  0  0  0  0  0  0
  -30.2472  -24.7881   19.9690 C   0  0  2  0  0  0  0  0  0  0  0  0
  -21.0112   -8.7732   21.4141 C   0  0  0  0  0  0  0  0  0  0  0  0
  -30.4667  -10.3261   22.4060 C   0  0  0  0  0  0  0  0  0  0  0  0
  -23.1868  -14.3698   24.2096 C   0  0  0  0  0  0  0  0  0  0  0  0
  -22.1870  -12.0894   24.4706 C   0  0  0  0  0  0  0  0  0  0  0  0
  -20.9715  -13.8416   23.1763 C   0  0  0  0  0  0  0  0  0  0  0  0
  -23.3325   -9.4571   18.4782 C   0  0  0  0  0  0  0  0  0  0  0  0
  -31.9020  -13.9521   22.4989 C   0  0  0  0  0  0  0  0  0  0  0  0
  -30.3888  -16.0264   22.4641 C   0  0  0  0  0  0  0  0  0  0  0  0
  -31.8043  -12.4400   22.7166 C   0  0  0  0  0  0  0  0  0  0  0  0
  -23.0384  -12.7771   22.1830 C   0  0  1  0  0  0  0  0  0  0  0  0
  -21.8112   -9.6364   20.4510 C   0  0  2  0  0  0  0  0  0  0  0  0
  -30.5044  -11.8313   22.1758 C   0  0  1  0  0  0  0  0  0  1  0  0
  -22.3710  -13.2729   23.4968 C   0  0  0  0  0  0  0  0  0  0  0  0
  -28.4008  -26.4221   20.0151 N   0  0  0  0  0  0  0  0  0  0  0  0
  -29.6442  -26.1068   20.4158 N   0  0  0  0  0  0  0  0  0  0  0  0
  -24.5983  -14.1303   20.8194 N   0  0  0  0  0  0  0  0  0  0  0  0
  -29.8159  -22.4338   19.3848 N   0  0  0  0  0  0  0  0  0  0  0  0
  -31.4736  -26.8973   21.6961 N   0  0  0  0  0  0  0  0  0  0  0  0
  -29.0872  -29.2869   23.4246 N   0  0  0  0  0  0  0  0  0  0  0  0
  -29.0879  -21.2450   21.2872 N   0  0  0  0  0  0  0  0  0  0  0  0
  -29.3208  -16.6748   23.1824 N   0  0  0  0  0  0  0  0  0  0  0  0
  -24.9773  -17.6716   20.6059 N   0  0  0  0  0  0  0  0  0  0  0  0
  -22.2744  -11.7573   21.4725 N   0  0  0  0  0  0  0  0  0  0  0  0
  -22.5240   -8.7400   19.4975 N   0  3  0  0  0  0  0  0  0  0  0  0
  -29.9322  -30.3167   21.5580 O   0  0  0  0  0  0  0  0  0  0  0  0
  -25.9281  -16.0820   22.0171 O   0  0  0  0  0  0  0  0  0  0  0  0
  -30.2577  -14.3758   24.2142 O   0  0  0  0  0  0  0  0  0  0  0  0
  -22.3026  -14.5349   20.7705 O   0  0  0  0  0  0  0  0  0  0  0  0
  -23.9331  -10.1371   21.4922 O   0  0  0  0  0  0  0  0  0  0  0  0
  -30.3383  -20.1962   19.6385 O   0  0  0  0  0  0  0  0  0  0  0  0
  -23.3410  -30.2823   19.8031 O   0  0  0  0  0  0  0  0  0  0  0  0
  -30.4174  -12.0838   20.7740 O   0  0  0  0  0  0  0  0  0  1  0  0
  -19.7548  -30.3523   23.9910 F   0  0  0  0  0  0  0  0  0  0  0  0
  -24.0212  -31.4093   22.2341 F   0  0  0  0  0  0  0  0  0  0  0  0
  -28.1086  -18.8479   24.2527 S   0  0  0  0  0  0  0  0  0  0  0  0
  1  2  1  0  0  0  0
  1  5  2  0  0  0  0
  2  6  2  0  0  0  0
  3  8  2  0  0  0  0
  3 17  1  0  0  0  0
  4  9  1  0  0  0  0
  4 17  2  0  0  0  0
  5 19  1  0  0  0  0
  6 21  1  0  0  0  0
  7 10  2  0  0  0  0
  7 20  1  0  0  0  0
  8 24  1  0  0  0  0
  9 24  2  0  0  0  0
 10 25  1  0  0  0  0
 11 12  2  0  0  0  0
 11 26  1  0  0  0  0
 12 27  1  0  0  0  0
 13 22  1  0  0  0  0
 13 25  2  0  0  0  0
 14 23  1  0  0  0  0
 14 31  2  0  0  0  0
 15 27  2  0  0  0  0
 15 28  1  0  0  0  0
 16 23  2  0  0  0  0
 16 84  1  0  0  0  0
 17 29  1  0  0  0  0
 18 29  1  0  0  0  0
 18 30  2  0  0  0  0
 18 32  1  0  0  0  0
 19 21  2  0  0  0  0
 19 38  1  0  0  0  0
 20 22  2  0  0  0  0
 20 39  1  0  0  0  0
 21 47  1  0  0  0  0
 22 40  1  0  0  0  0
 23 69  1  0  0  0  0
 24 80  1  0  0  0  0
 25 81  1  0  0  0  0
 26 28  2  0  0  0  0
 26 80  1  0  0  0  0
 27 82  1  0  0  0  0
 28 83  1  0  0  0  0
 29 63  2  0  0  0  0
 30 64  1  0  0  0  0
 30 67  1  0  0  0  0
 31 70  1  0  0  0  0
 31 84  1  0  0  0  0
 32 68  1  0  0  0  0
 32 74  2  0  0  0  0
 33 48  1  0  0  0  0
 33 71  1  0  0  0  0
 33 75  2  0  0  0  0
 34 56  1  0  0  0  0
 34 57  1  0  0  0  0
 34 76  2  0  0  0  0
 35 59  1  0  0  0  0
 35 65  1  0  0  0  0
 35 77  2  0  0  0  0
 36 60  1  0  0  0  0
 36 72  1  0  0  0  0
 36 78  2  0  0  0  0
 37 66  1  0  0  0  0
 37 69  1  0  0  0  0
 37 79  2  0  0  0  0
 38 41  1  0  0  0  0
 39 48  1  0  0  0  0
 40 65  1  0  0  0  0
 41 43  1  0  0  0  0
 42 44  1  0  0  0  0
 42 45  1  0  0  0  0
 43 47  1  0  0  0  0
 44 49  1  0  0  0  0
 45 66  1  0  0  0  0
 46 49  1  0  0  0  0
 46 66  1  0  0  0  0
 47 71  1  0  0  0  0
 48 65  1  0  0  0  0
 49 64  1  0  0  0  0
 50 60  1  0  0  0  0
 51 61  1  0  0  0  0
 52 62  1  0  0  0  0
 53 62  1  0  0  0  0
 54 62  1  0  0  0  0
 55 73  1  0  0  0  0
 56 58  1  0  0  0  0
 57 70  1  0  0  0  0
 58 61  1  0  0  0  0
 59 62  1  0  0  0  0
 59 72  1  0  0  0  0
 60 73  1  0  0  0  0
 61 81  1  0  0  0  0
 63 64  1  0  0  0  0
M  CHG  1  73   1
M  ISO  4  37 100  61 101  69 100  81 101
M  END
> <Batch ID>
0144

> <Smiles>
CNC(C)C(=O)NC(C(=O)N1Cc2cc([101O:1][101CH:1](C)CCC(=O)CNc3cc([100NH:0][100C:0](=O)N4CCCC(n5nc(-c6ccc(Oc7ccc(F)cc7F)cc6)c(C(N)=O)c5N)C4)cs3)ccc2CC1C(=O)NC1CCCc2ccccc21)C(C)(C)C

> <Shape>
0.291

> <Color>
0.064

> <Negative vol penalty>
0.000

$$$$

  -OEChem-04052303043D

 92100  0     1  0  0  0  0  0999 V2000
  -26.8908  -18.3161   12.8990 C   0  0  0  0  0  0  0  0  0  0  0  0
  -26.5843  -17.6978   14.1069 C   0  0  0  0  0  0  0  0  0  0  0  0
  -25.8449  -30.6256   20.7776 C   0  0  0  0  0  0  0  0  0  0  0  0
  -24.9084  -28.4809   21.3779 C   0  0  0  0  0  0  0  0  0  0  0  0
  -26.8089  -19.7034   12.7868 C   0  0  0  0  0  0  0  0  0  0  0  0
  -26.1968  -18.4666   15.2038 C   0  0  0  0  0  0  0  0  0  0  0  0
  -22.1988  -16.5190   17.6262 C   0  0  0  0  0  0  0  0  0  0  0  0
  -24.5592  -31.1423   20.6178 C   0  0  0  0  0  0  0  0  0  0  0  0
  -23.6226  -28.9976   21.2182 C   0  0  0  0  0  0  0  0  0  0  0  0
  -22.4332  -15.4385   18.4755 C   0  0  0  0  0  0  0  0  0  0  0  0
  -20.0900  -29.8513   21.3190 C   0  0  0  0  0  0  0  0  0  0  0  0
  -19.1445  -29.5546   22.3005 C   0  0  0  0  0  0  0  0  0  0  0  0
  -30.4653  -21.0700   17.9384 C   0  0  0  0  0  0  0  0  0  0  0  0
  -30.0416  -19.7474   18.2567 C   0  0  0  0  0  0  0  0  0  0  0  0
  -22.3903  -16.9281   20.3725 C   0  0  0  0  0  0  0  0  0  0  0  0
  -20.5305  -30.6312   23.9610 C   0  0  0  0  0  0  0  0  0  0  0  0
  -26.0195  -29.2948   21.1576 C   0  0  0  0  0  0  0  0  0  0  0  0
  -28.1205  -28.7518   22.4986 C   0  0  0  0  0  0  0  0  0  0  0  0
  -26.4109  -20.4888   13.8801 C   0  0  0  0  0  0  0  0  0  0  0  0
  -22.0690  -17.8159   18.1435 C   0  0  0  0  0  0  0  0  0  0  0  0
  -26.1108  -19.8658   15.1065 C   0  0  0  0  0  0  0  0  0  0  0  0
  -22.1517  -18.0230   19.5278 C   0  0  0  0  0  0  0  0  0  0  0  0
  -23.4480  -30.3284   20.8381 C   0  0  0  0  0  0  0  0  0  0  0  0
  -22.5319  -15.6434   19.8486 C   0  0  0  0  0  0  0  0  0  0  0  0
  -21.2559  -30.5378   21.6584 C   0  0  0  0  0  0  0  0  0  0  0  0
  -19.3647  -29.9446   23.6216 C   0  0  0  0  0  0  0  0  0  0  0  0
  -21.4761  -30.9278   22.9794 C   0  0  0  0  0  0  0  0  0  0  0  0
  -27.3474  -28.7603   21.3222 C   0  0  0  0  0  0  0  0  0  0  0  0
  -29.2933  -28.1368   22.1343 C   0  0  0  0  0  0  0  0  0  0  0  0
  -29.7168  -22.0245   18.5912 C   0  0  0  0  0  0  0  0  0  0  0  0
  -28.9853  -19.7414   19.1411 C   0  0  0  0  0  0  0  0  0  0  0  0
  -27.8066  -29.2548   23.8040 C   0  0  0  0  0  0  0  0  0  0  0  0
  -23.6725  -20.5389   17.7999 C   0  0  0  0  0  0  0  0  0  0  0  0
  -28.3873  -16.3403   20.4686 C   0  0  0  0  0  0  0  0  0  0  0  0
  -25.2735  -13.1705   21.2817 C   0  0  0  0  0  0  0  0  0  0  0  0
  -21.2485  -21.7390   19.5907 C   0  0  0  0  0  0  0  0  0  0  0  0
  -18.7698  -21.1684   21.8659 C   0  0  0  0  0  0  0  0  0  0  0  0
  -30.6876  -24.2239   17.8388 C   0  0  0  0  0  0  0  0  0  0  0  0
  -26.3827  -21.9887   13.7244 C   0  0  0  0  0  0  0  0  0  0  0  0
  -21.7897  -18.9670   17.2165 C   0  0  0  0  0  0  0  0  0  0  0  0
  -21.9995  -19.3928   20.1353 C   0  0  0  0  0  0  0  0  0  0  0  0
  -25.6024  -22.7009   14.8262 C   0  0  0  0  0  0  0  0  0  0  0  0
  -32.1346  -27.4378   18.3432 C   0  0  0  0  0  0  0  0  0  0  0  0
  -25.9949  -22.1561   16.1959 C   0  0  0  0  0  0  0  0  0  0  0  0
  -31.1446  -28.1388   19.2763 C   0  0  0  0  0  0  0  0  0  0  0  0
  -31.4229  -26.5425   17.3304 C   0  0  0  0  0  0  0  0  0  0  0  0
  -29.4980  -26.2710   18.8437 C   0  0  0  0  0  0  0  0  0  0  0  0
  -25.6627  -20.6636   16.3119 C   0  0  1  0  0  0  0  0  0  0  0  0
  -22.1863  -20.3177   17.8046 C   0  0  1  0  0  0  0  0  0  0  0  0
  -30.1717  -27.1336   19.9234 C   0  0  2  0  0  0  0  0  0  0  0  0
  -16.9800  -22.3517   23.1675 C   0  0  0  0  0  0  0  0  0  0  0  0
  -25.0159  -13.9880   23.6436 C   0  0  0  0  0  0  0  0  0  0  0  0
  -23.2557  -12.4782   22.6627 C   0  0  0  0  0  0  0  0  0  0  0  0
  -23.3659  -22.8550   21.4831 C   0  0  0  0  0  0  0  0  0  0  0  0
  -21.5677  -23.1725   23.1959 C   0  0  0  0  0  0  0  0  0  0  0  0
  -21.4540  -24.4016   21.0282 C   0  0  0  0  0  0  0  0  0  0  0  0
  -28.1643  -13.6538   22.3904 C   0  0  0  0  0  0  0  0  0  0  0  0
  -28.1218  -12.4609   20.2129 C   0  0  0  0  0  0  0  0  0  0  0  0
  -16.6278  -19.5645   20.6016 C   0  0  0  0  0  0  0  0  0  0  0  0
  -28.7256  -14.8694   20.2395 C   0  0  0  0  0  0  0  0  0  0  0  0
  -28.7008  -17.2684   19.3115 C   0  0  0  0  0  0  0  0  0  0  0  0
  -23.4800  -14.8585   21.8835 C   0  0  0  0  0  0  0  0  0  1  0  0
  -26.2815  -14.2041   20.7591 C   0  0  1  0  0  0  0  0  0  0  0  0
  -20.9971  -21.9153   21.0687 C   0  0  1  0  0  0  0  0  0  0  0  0
  -17.3116  -21.5897   21.8939 C   0  0  2  0  0  0  0  0  0  0  0  0
  -24.2529  -13.6070   22.3650 C   0  0  0  0  0  0  0  0  0  0  0  0
  -21.8510  -23.0604   21.6827 C   0  0  0  0  0  0  0  0  0  0  0  0
  -27.7902  -13.8102   20.9000 C   0  0  0  0  0  0  0  0  0  0  0  0
  -27.9762  -28.1957   20.2879 N   0  0  0  0  0  0  0  0  0  0  0  0
  -29.1568  -27.8267   20.8132 N   0  0  0  0  0  0  0  0  0  0  0  0
  -21.7337  -20.4870   19.1869 N   0  0  0  0  0  0  0  0  0  0  0  0
  -30.5216  -25.6139   18.0160 N   0  0  0  0  0  0  0  0  0  0  0  0
  -30.4178  -27.8365   22.8183 N   0  0  0  0  0  0  0  0  0  0  0  0
  -26.5573  -29.8575   24.0052 N   0  0  0  0  0  0  0  0  0  0  0  0
  -29.7933  -23.4391   18.5660 N   0  0  0  0  0  0  0  0  0  0  0  0
  -28.3416  -18.6227   19.6494 N   0  0  0  0  0  0  0  0  0  0  0  0
  -24.2464  -20.4776   16.5444 N   0  0  0  0  0  0  0  0  0  0  0  0
  -19.5574  -22.0971   21.2190 N   0  0  0  0  0  0  0  0  0  0  0  0
  -25.9338  -14.4885   19.3316 N   0  3  0  0  0  0  0  0  0  0  0  0
  -16.4254  -20.3939   21.8174 N   0  3  0  0  0  0  0  0  0  0  0  0
  -28.6165  -29.1870   24.7595 O   0  0  0  0  0  0  0  0  0  0  0  0
  -24.2551  -20.7510   18.8569 O   0  0  0  0  0  0  0  0  0  0  0  0
  -27.9399  -16.7570   21.5355 O   0  0  0  0  0  0  0  0  0  0  0  0
  -25.2344  -12.0380   20.7937 O   0  0  0  0  0  0  0  0  0  0  0  0
  -21.0160  -22.6751   18.8218 O   0  0  0  0  0  0  0  0  0  0  0  0
  -19.1706  -20.1221   22.3710 O   0  0  0  0  0  0  0  0  0  0  0  0
  -31.5764  -23.7632   17.1179 O   0  0  0  0  0  0  0  0  0  0  0  0
  -22.1933  -30.8323   20.6826 O   0  0  0  0  0  0  0  0  0  0  0  0
  -22.7628  -14.5837   20.6852 O   0  0  0  0  0  0  0  0  0  1  0  0
  -18.4559  -29.6610   24.5638 F   0  0  0  0  0  0  0  0  0  0  0  0
  -22.5936  -31.5886   23.3113 F   0  0  0  0  0  0  0  0  0  0  0  0
  -28.5087  -21.3256   19.5834 S   0  0  0  0  0  0  0  0  0  0  0  0
  1  2  1  0  0  0  0
  1  5  2  0  0  0  0
  2  6  2  0  0  0  0
  3  8  2  0  0  0  0
  3 17  1  0  0  0  0
  4  9  1  0  0  0  0
  4 17  2  0  0  0  0
  5 19  1  0  0  0  0
  6 21  1  0  0  0  0
  7 10  2  0  0  0  0
  7 20  1  0  0  0  0
  8 23  1  0  0  0  0
  9 23  2  0  0  0  0
 10 24  1  0  0  0  0
 11 12  2  0  0  0  0
 11 25  1  0  0  0  0
 12 26  1  0  0  0  0
 13 14  1  0  0  0  0
 13 30  2  0  0  0  0
 14 31  2  0  0  0  0
 15 22  1  0  0  0  0
 15 24  2  0  0  0  0
 16 26  2  0  0  0  0
 16 27  1  0  0  0  0
 17 28  1  0  0  0  0
 18 28  1  0  0  0  0
 18 29  2  0  0  0  0
 18 32  1  0  0  0  0
 19 21  2  0  0  0  0
 19 39  1  0  0  0  0
 20 22  2  0  0  0  0
 20 40  1  0  0  0  0
 21 48  1  0  0  0  0
 22 41  1  0  0  0  0
 23 88  1  0  0  0  0
 24 89  1  0  0  0  0
 25 27  2  0  0  0  0
 25 88  1  0  0  0  0
 26 90  1  0  0  0  0
 27 91  1  0  0  0  0
 28 69  2  0  0  0  0
 29 70  1  0  0  0  0
 29 73  1  0  0  0  0
 30 75  1  0  0  0  0
 30 92  1  0  0  0  0
 31 76  1  0  0  0  0
 31 92  1  0  0  0  0
 32 74  1  0  0  0  0
 32 81  2  0  0  0  0
 33 49  1  0  0  0  0
 33 77  1  0  0  0  0
 33 82  2  0  0  0  0
 34 60  1  0  0  0  0
 34 61  1  0  0  0  0
 34 83  2  0  0  0  0
 35 63  1  0  0  0  0
 35 66  1  0  0  0  0
 35 84  2  0  0  0  0
 36 64  1  0  0  0  0
 36 71  1  0  0  0  0
 36 85  2  0  0  0  0
 37 65  1  0  0  0  0
 37 78  1  0  0  0  0
 37 86  2  0  0  0  0
 38 72  1  0  0  0  0
 38 75  1  0  0  0  0
 38 87  2  0  0  0  0
 39 42  1  0  0  0  0
 40 49  1  0  0  0  0
 41 71  1  0  0  0  0
 42 44  1  0  0  0  0
 43 45  1  0  0  0  0
 43 46  1  0  0  0  0
 44 48  1  0  0  0  0
 45 50  1  0  0  0  0
 46 72  1  0  0  0  0
 47 50  1  0  0  0  0
 47 72  1  0  0  0  0
 48 77  1  0  0  0  0
 49 71  1  0  0  0  0
 50 70  1  0  0  0  0
 51 65  1  0  0  0  0
 52 66  1  0  0  0  0
 53 66  1  0  0  0  0
 54 67  1  0  0  0  0
 55 67  1  0  0  0  0
 56 67  1  0  0  0  0
 57 68  1  0  0  0  0
 58 68  1  0  0  0  0
 59 80  1  0  0  0  0
 60 68  1  0  0  0  0
 61 76  1  0  0  0  0
 62 66  1  0  0  0  0
 62 89  1  0  0  0  0
 63 68  1  0  0  0  0
 63 79  1  0  0  0  0
 64 67  1  0  0  0  0
 64 78  1  0  0  0  0
 65 80  1  0  0  0  0
 69 70  1  0  0  0  0
M  CHG  2  79   1  80   1
M  ISO  4  38 100  62 101  75 100  89 101
M  END
> <Batch ID>
0144

> <Smiles>
CNC(C)C(=O)NC(C(=O)N1Cc2cc([101O:1][101CH2:1]C(C)(C)C(=O)C(N)C(C)(C)CC(=O)CNc3ccc([100NH:0][100C:0](=O)N4CCCC(n5nc(-c6ccc(Oc7ccc(F)cc7F)cc6)c(C(N)=O)c5N)C4)s3)ccc2CC1C(=O)NC1CCCc2ccccc21)C(C)(C)C

> <Shape>
0.223

> <Color>
0.044

> <Negative vol penalty>
0.000

$$$$

  -OEChem-04052303043D

 92100  0     1  0  0  0  0  0999 V2000
  -36.0707  -11.4124   22.7840 C   0  0  0  0  0  0  0  0  0  0  0  0
  -35.4672  -12.6516   22.5956 C   0  0  0  0  0  0  0  0  0  0  0  0
  -22.0393  -28.4494   25.0289 C   0  0  0  0  0  0  0  0  0  0  0  0
  -23.9379  -27.0192   24.5969 C   0  0  0  0  0  0  0  0  0  0  0  0
  -35.5945  -10.2951   22.0992 C   0  0  0  0  0  0  0  0  0  0  0  0
  -34.3879  -12.7746   21.7214 C   0  0  0  0  0  0  0  0  0  0  0  0
  -29.5691  -16.5059   22.3237 C   0  0  0  0  0  0  0  0  0  0  0  0
  -21.2055  -27.5384   24.3805 C   0  0  0  0  0  0  0  0  0  0  0  0
  -23.1041  -26.1082   23.9485 C   0  0  0  0  0  0  0  0  0  0  0  0
  -29.2715  -17.7504   21.7703 C   0  0  0  0  0  0  0  0  0  0  0  0
  -21.6186  -25.8042   20.9266 C   0  0  0  0  0  0  0  0  0  0  0  0
  -22.0552  -25.2777   19.7110 C   0  0  0  0  0  0  0  0  0  0  0  0
  -27.9862  -16.6671   20.0401 C   0  0  0  0  0  0  0  0  0  0  0  0
  -27.3053  -28.3928   20.8563 C   0  0  0  0  0  0  0  0  0  0  0  0
  -25.2677  -29.4636   20.1227 C   0  0  0  0  0  0  0  0  0  0  0  0
  -25.8631  -27.2845   19.2661 C   0  0  0  0  0  0  0  0  0  0  0  0
  -21.9717  -23.0513   20.6454 C   0  0  0  0  0  0  0  0  0  0  0  0
  -23.4055  -28.1898   25.1371 C   0  0  0  0  0  0  0  0  0  0  0  0
  -24.5983  -29.1564   27.1744 C   0  0  0  0  0  0  0  0  0  0  0  0
  -34.5026  -10.4026   21.2235 C   0  0  0  0  0  0  0  0  0  0  0  0
  -29.0856  -15.3299   21.7322 C   0  0  0  0  0  0  0  0  0  0  0  0
  -33.8975  -11.6580   21.0232 C   0  0  0  0  0  0  0  0  0  0  0  0
  -28.2769  -15.4090   20.5894 C   0  0  0  0  0  0  0  0  0  0  0  0
  -26.4276  -29.4762   20.8973 C   0  0  0  0  0  0  0  0  0  0  0  0
  -27.0231  -27.2970   20.0407 C   0  0  0  0  0  0  0  0  0  0  0  0
  -21.7379  -26.3678   23.8403 C   0  0  0  0  0  0  0  0  0  0  0  0
  -28.4824  -17.8311   20.6267 C   0  0  0  0  0  0  0  0  0  0  0  0
  -21.3586  -24.9543   22.0017 C   0  0  0  0  0  0  0  0  0  0  0  0
  -22.2317  -23.9012   19.5703 C   0  0  0  0  0  0  0  0  0  0  0  0
  -24.9854  -28.3678   19.3071 C   0  0  0  0  0  0  0  0  0  0  0  0
  -21.5351  -23.5778   21.8610 C   0  0  0  0  0  0  0  0  0  0  0  0
  -24.2674  -29.1307   25.8064 C   0  0  0  0  0  0  0  0  0  0  0  0
  -25.4403  -30.2337   27.3039 C   0  0  0  0  0  0  0  0  0  0  0  0
  -24.1818  -28.2843   28.2335 C   0  0  0  0  0  0  0  0  0  0  0  0
  -30.4262  -12.7675   20.4130 C   0  0  0  0  0  0  0  0  0  0  0  0
  -28.9843  -23.6360   20.3186 C   0  0  0  0  0  0  0  0  0  0  0  0
  -27.1066  -21.1765   20.4606 C   0  0  0  0  0  0  0  0  0  0  0  0
  -27.3630  -11.7067   20.2960 C   0  0  0  0  0  0  0  0  0  0  0  0
  -24.0357  -12.4627   20.2294 C   0  0  0  0  0  0  0  0  0  0  0  0
  -25.9482  -31.7451   21.8810 C   0  0  0  0  0  0  0  0  0  0  0  0
  -34.0534   -9.1761   20.4695 C   0  0  0  0  0  0  0  0  0  0  0  0
  -29.3934  -13.9967   22.3568 C   0  0  0  0  0  0  0  0  0  0  0  0
  -27.7165  -14.1775   19.9278 C   0  0  0  0  0  0  0  0  0  0  0  0
  -32.6671   -9.3180   19.8463 C   0  0  0  0  0  0  0  0  0  0  0  0
  -24.6137  -33.5778   24.7625 C   0  0  0  0  0  0  0  0  0  0  0  0
  -32.5402  -10.6565   19.1257 C   0  0  0  0  0  0  0  0  0  0  0  0
  -25.6073  -33.2889   25.8807 C   0  0  0  0  0  0  0  0  0  0  0  0
  -25.3070  -33.5846   23.4085 C   0  0  0  0  0  0  0  0  0  0  0  0
  -26.9826  -31.9269   24.2231 C   0  0  0  0  0  0  0  0  0  0  0  0
  -32.7086  -11.8268   20.1022 C   0  0  1  0  0  0  0  0  0  0  0  0
  -29.2740  -12.8351   21.3750 C   0  0  1  0  0  0  0  0  0  0  0  0
  -26.3812  -31.9830   25.6442 C   0  0  2  0  0  0  0  0  0  0  0  0
  -21.7732  -11.3856   20.0945 C   0  0  0  0  0  0  0  0  0  0  0  0
  -26.3128  -21.9882   22.6552 C   0  0  0  0  0  0  0  0  0  0  0  0
  -25.8753  -23.4170   20.6506 C   0  0  0  0  0  0  0  0  0  0  0  0
  -30.9793  -24.6192   21.4969 C   0  0  0  0  0  0  0  0  0  0  0  0
  -27.7830  -11.2035   17.3161 C   0  0  0  0  0  0  0  0  0  0  0  0
  -25.2969  -11.0508   17.0625 C   0  0  0  0  0  0  0  0  0  0  0  0
  -26.5045   -9.4137   18.5062 C   0  0  0  0  0  0  0  0  0  0  0  0
  -23.2271  -13.5631   22.8551 C   0  0  0  0  0  0  0  0  0  0  0  0
  -28.2234  -23.1798   21.5653 C   0  0  0  0  0  0  0  0  0  0  0  0
  -28.1134  -20.1561   20.9643 C   0  0  0  0  0  0  0  0  0  1  0  0
  -29.1169  -26.1519   20.7690 C   0  0  0  0  0  0  0  0  0  0  0  0
  -26.2365  -11.8006   19.2954 C   0  0  1  0  0  0  0  0  0  0  0  0
  -22.8615  -11.9112   21.0177 C   0  0  2  0  0  0  0  0  0  0  0  0
  -26.8804  -22.4527   21.3001 C   0  0  0  0  0  0  0  0  0  0  0  0
  -29.8950  -24.8694   20.4496 C   0  0  2  0  0  0  0  0  0  0  0  0
  -26.4672  -10.8904   18.0562 C   0  0  0  0  0  0  0  0  0  0  0  0
  -24.8515  -30.1138   25.1161 N   0  0  0  0  0  0  0  0  0  0  0  0
  -25.5578  -30.7673   26.0542 N   0  0  0  0  0  0  0  0  0  0  0  0
  -28.0508  -12.8968   20.5725 N   0  0  0  0  0  0  0  0  0  0  0  0
  -26.0563  -32.3512   23.1571 N   0  0  0  0  0  0  0  0  0  0  0  0
  -26.0843  -30.7673   28.3637 N   0  0  0  0  0  0  0  0  0  0  0  0
  -23.3145  -27.2270   27.9263 N   0  0  0  0  0  0  0  0  0  0  0  0
  -26.7144  -30.5897   21.7251 N   0  0  0  0  0  0  0  0  0  0  0  0
  -27.8938  -26.2218   19.9998 N   0  0  0  0  0  0  0  0  0  0  0  0
  -31.4973  -12.0232   20.8694 N   0  0  0  0  0  0  0  0  0  0  0  0
  -25.0113  -11.5086   20.0315 N   0  0  0  0  0  0  0  0  0  0  0  0
  -22.2726  -12.9734   21.8813 N   0  3  0  0  0  0  0  0  0  0  0  0
  -24.5542  -28.4478   29.4201 O   0  0  0  0  0  0  0  0  0  0  0  0
  -30.3486  -13.3464   19.3357 O   0  0  0  0  0  0  0  0  0  0  0  0
  -28.9068  -23.0219   19.2528 O   0  0  0  0  0  0  0  0  0  0  0  0
  -26.5321  -21.0095   19.3818 O   0  0  0  0  0  0  0  0  0  0  0  0
  -27.6185  -10.6189   20.8187 O   0  0  0  0  0  0  0  0  0  0  0  0
  -24.0812  -13.6229   19.8262 O   0  0  0  0  0  0  0  0  0  0  0  0
  -25.2459  -32.2272   20.9886 O   0  0  0  0  0  0  0  0  0  0  0  0
  -30.5730  -25.0433   19.2055 O   0  0  0  0  0  0  0  0  0  0  0  0
  -20.9245  -25.4785   23.2077 O   0  0  0  0  0  0  0  0  0  0  0  0
  -28.1882  -19.0563   20.0789 O   0  0  0  0  0  0  0  0  0  1  0  0
  -22.6494  -23.3956   18.4024 F   0  0  0  0  0  0  0  0  0  0  0  0
  -23.8718  -28.3558   18.5627 F   0  0  0  0  0  0  0  0  0  0  0  0
  -21.2859  -22.7562   22.8899 F   0  0  0  0  0  0  0  0  0  0  0  0
  1  2  1  0  0  0  0
  1  5  2  0  0  0  0
  2  6  2  0  0  0  0
  3  8  2  0  0  0  0
  3 18  1  0  0  0  0
  4  9  1  0  0  0  0
  4 18  2  0  0  0  0
  5 20  1  0  0  0  0
  6 22  1  0  0  0  0
  7 10  2  0  0  0  0
  7 21  1  0  0  0  0
  8 26  1  0  0  0  0
  9 26  2  0  0  0  0
 10 27  1  0  0  0  0
 11 12  2  0  0  0  0
 11 28  1  0  0  0  0
 12 29  1  0  0  0  0
 13 23  1  0  0  0  0
 13 27  2  0  0  0  0
 14 24  1  0  0  0  0
 14 25  2  0  0  0  0
 15 24  2  0  0  0  0
 15 30  1  0  0  0  0
 16 25  1  0  0  0  0
 16 30  2  0  0  0  0
 17 29  2  0  0  0  0
 17 31  1  0  0  0  0
 18 32  1  0  0  0  0
 19 32  1  0  0  0  0
 19 33  2  0  0  0  0
 19 34  1  0  0  0  0
 20 22  2  0  0  0  0
 20 41  1  0  0  0  0
 21 23  2  0  0  0  0
 21 42  1  0  0  0  0
 22 50  1  0  0  0  0
 23 43  1  0  0  0  0
 24 75  1  0  0  0  0
 25 76  1  0  0  0  0
 26 88  1  0  0  0  0
 27 89  1  0  0  0  0
 28 31  2  0  0  0  0
 28 88  1  0  0  0  0
 29 90  1  0  0  0  0
 30 91  1  0  0  0  0
 31 92  1  0  0  0  0
 32 69  2  0  0  0  0
 33 70  1  0  0  0  0
 33 73  1  0  0  0  0
 34 74  1  0  0  0  0
 34 80  2  0  0  0  0
 35 51  1  0  0  0  0
 35 77  1  0  0  0  0
 35 81  2  0  0  0  0
 36 61  1  0  0  0  0
 36 67  1  0  0  0  0
 36 82  2  0  0  0  0
 37 62  1  0  0  0  0
 37 66  1  0  0  0  0
 37 83  2  0  0  0  0
 38 64  1  0  0  0  0
 38 71  1  0  0  0  0
 38 84  2  0  0  0  0
 39 65  1  0  0  0  0
 39 78  1  0  0  0  0
 39 85  2  0  0  0  0
 40 72  1  0  0  0  0
 40 75  1  0  0  0  0
 40 86  2  0  0  0  0
 41 44  1  0  0  0  0
 42 51  1  0  0  0  0
 43 71  1  0  0  0  0
 44 46  1  0  0  0  0
 45 47  1  0  0  0  0
 45 48  1  0  0  0  0
 46 50  1  0  0  0  0
 47 52  1  0  0  0  0
 48 72  1  0  0  0  0
 49 52  1  0  0  0  0
 49 72  1  0  0  0  0
 50 77  1  0  0  0  0
 51 71  1  0  0  0  0
 52 70  1  0  0  0  0
 53 65  1  0  0  0  0
 54 66  1  0  0  0  0
 55 66  1  0  0  0  0
 56 67  1  0  0  0  0
 57 68  1  0  0  0  0
 58 68  1  0  0  0  0
 59 68  1  0  0  0  0
 60 79  1  0  0  0  0
 61 66  1  0  0  0  0
 62 89  1  0  0  0  0
 63 67  1  0  0  0  0
 63 76  1  0  0  0  0
 64 68  1  0  0  0  0
 64 78  1  0  0  0  0
 65 79  1  0  0  0  0
 67 87  1  0  0  0  0
 69 70  1  0  0  0  0
M  CHG  1  79   1
M  ISO  4  40 100  62 101  75 100  89 101
M  END
> <Batch ID>
0144

> <Smiles>
CNC(C)C(=O)NC(C(=O)N1Cc2cc([101O:1][101CH2:1]C(=O)C(C)(C)CC(=O)C(C)(O)CNc3cc(F)cc([100NH:0][100C:0](=O)N4CCCC(n5nc(-c6ccc(Oc7ccc(F)cc7F)cc6)c(C(N)=O)c5N)C4)c3)ccc2CC1C(=O)NC1CCCc2ccccc21)C(C)(C)C

> <Shape>
0.281

> <Color>
0.065

> <Negative vol penalty>
0.000

$$$$

  -OEChem-04052303043D

 88 96  0     1  0  0  0  0  0999 V2000
  -31.9939  -13.3173   21.8254 C   0  0  0  0  0  0  0  0  0  0  0  0
  -31.1572  -14.2741   22.3911 C   0  0  0  0  0  0  0  0  0  0  0  0
  -18.1953  -28.4263   22.1484 C   0  0  0  0  0  0  0  0  0  0  0  0
  -29.3294  -25.4919   19.1864 C   0  0  0  0  0  0  0  0  0  0  0  0
  -27.6554  -24.0598   20.1783 C   0  0  0  0  0  0  0  0  0  0  0  0
  -31.5828  -12.6154   20.6930 C   0  0  0  0  0  0  0  0  0  0  0  0
  -29.9093  -14.5302   21.8241 C   0  0  0  0  0  0  0  0  0  0  0  0
  -23.2418  -16.4303   23.6271 C   0  0  0  0  0  0  0  0  0  0  0  0
  -18.1732  -27.0624   21.8572 C   0  0  0  0  0  0  0  0  0  0  0  0
  -19.2628  -28.9697   22.8632 C   0  0  0  0  0  0  0  0  0  0  0  0
  -30.3176  -24.5635   19.5137 C   0  0  0  0  0  0  0  0  0  0  0  0
  -28.6436  -23.1314   20.5056 C   0  0  0  0  0  0  0  0  0  0  0  0
  -22.2648  -17.3705   23.3026 C   0  0  0  0  0  0  0  0  0  0  0  0
  -30.6763  -20.2187   21.2817 C   0  0  0  0  0  0  0  0  0  0  0  0
  -30.4138  -18.8732   21.0244 C   0  0  0  0  0  0  0  0  0  0  0  0
  -21.6276  -16.0405   21.3936 C   0  0  0  0  0  0  0  0  0  0  0  0
  -20.2860  -26.7851   22.9959 C   0  0  0  0  0  0  0  0  0  0  0  0
  -30.1531  -19.3733   18.6751 C   0  0  0  0  0  0  0  0  0  0  0  0
  -27.9983  -25.2401   19.5187 C   0  0  0  0  0  0  0  0  0  0  0  0
  -26.2240  -26.2563   17.9934 C   0  0  0  0  0  0  0  0  0  0  0  0
  -30.3252  -12.8563   20.1175 C   0  0  0  0  0  0  0  0  0  0  0  0
  -23.4267  -15.2917   22.8297 C   0  0  0  0  0  0  0  0  0  0  0  0
  -29.4815  -13.8318   20.6822 C   0  0  0  0  0  0  0  0  0  0  0  0
  -22.6060  -15.0861   21.7116 C   0  0  0  0  0  0  0  0  0  0  0  0
  -19.2185  -26.2418   22.2810 C   0  0  0  0  0  0  0  0  0  0  0  0
  -20.3081  -28.1491   23.2870 C   0  0  0  0  0  0  0  0  0  0  0  0
  -29.9747  -23.3832   20.1733 C   0  0  0  0  0  0  0  0  0  0  0  0
  -21.4594  -17.1771   22.1841 C   0  0  0  0  0  0  0  0  0  0  0  0
  -30.6771  -21.1416   20.2357 C   0  0  0  0  0  0  0  0  0  0  0  0
  -30.1522  -18.4504   19.7211 C   0  0  0  0  0  0  0  0  0  0  0  0
  -30.4155  -20.7188   18.9325 C   0  0  0  0  0  0  0  0  0  0  0  0
  -26.9772  -26.1990   19.1814 C   0  0  0  0  0  0  0  0  0  0  0  0
  -25.3968  -27.3395   18.1633 C   0  0  0  0  0  0  0  0  0  0  0  0
  -26.2680  -25.4063   16.8396 C   0  0  0  0  0  0  0  0  0  0  0  0
  -25.8216  -14.1388   21.0864 C   0  0  0  0  0  0  0  0  0  0  0  0
  -20.0855  -20.3957   21.2395 C   0  0  0  0  0  0  0  0  0  0  0  0
  -23.8372  -11.5948   20.7507 C   0  0  0  0  0  0  0  0  0  0  0  0
  -20.6465  -10.3846   20.7873 C   0  0  0  0  0  0  0  0  0  0  0  0
  -23.2406  -30.1017   23.0184 C   0  0  0  0  0  0  0  0  0  0  0  0
  -29.9440  -12.1061   18.8659 C   0  0  0  0  0  0  0  0  0  0  0  0
  -24.4671  -14.2736   23.2085 C   0  0  0  0  0  0  0  0  0  0  0  0
  -22.7506  -13.8703   20.8345 C   0  0  0  0  0  0  0  0  0  0  0  0
  -28.4526  -12.1712   18.5472 C   0  0  0  0  0  0  0  0  0  0  0  0
  -25.1672  -31.5607   20.4038 C   0  0  0  0  0  0  0  0  0  0  0  0
  -27.9407  -13.6022   18.6774 C   0  0  0  0  0  0  0  0  0  0  0  0
  -25.7816  -30.3572   19.6868 C   0  0  0  0  0  0  0  0  0  0  0  0
  -25.0815  -31.3359   21.9118 C   0  0  0  0  0  0  0  0  0  0  0  0
  -25.0060  -28.8926   21.5979 C   0  0  0  0  0  0  0  0  0  0  0  0
  -28.1103  -14.1204   20.1107 C   0  0  1  0  0  0  0  0  0  0  0  0
  -24.9120  -13.4084   22.0334 C   0  0  1  0  0  0  0  0  0  0  0  0
  -25.0620  -29.0497   20.0687 C   0  0  2  0  0  0  0  0  0  0  0  0
  -22.1530  -24.2719   19.3731 C   0  0  0  0  0  0  0  0  0  0  0  0
  -19.3365   -8.2728   20.4389 C   0  0  0  0  0  0  0  0  0  0  0  0
  -24.1911  -11.8760   17.7332 C   0  0  0  0  0  0  0  0  0  0  0  0
  -22.1799  -10.4158   17.4315 C   0  0  0  0  0  0  0  0  0  0  0  0
  -24.2100   -9.5196   18.5707 C   0  0  0  0  0  0  0  0  0  0  0  0
  -19.1503  -24.9846   19.4245 C   0  0  0  0  0  0  0  0  0  0  0  0
  -19.6110  -10.4323   23.5593 C   0  0  0  0  0  0  0  0  0  0  0  0
  -19.1945  -24.7630   21.9635 C   0  0  0  0  0  0  0  0  0  0  0  0
  -21.4491  -28.7301   24.0520 C   0  0  0  0  0  0  0  0  0  0  0  0
  -20.3018  -21.8771   21.5118 C   0  0  0  0  0  0  0  0  0  0  0  0
  -20.7464  -19.4456   22.2191 C   0  0  0  0  0  0  0  0  0  1  0  0
  -21.3673  -24.6796   20.6154 C   0  0  0  0  0  0  0  0  0  0  0  0
  -19.6351  -22.7658   20.4570 C   0  0  0  0  0  0  0  0  0  0  0  0
  -22.7565  -11.2038   19.7719 C   0  0  1  0  0  0  0  0  0  0  0  0
  -20.0405   -9.1619   21.4522 C   0  0  2  0  0  0  0  0  0  0  0  0
  -23.3327  -10.7777   18.3920 C   0  0  0  0  0  0  0  0  0  0  0  0
  -19.8566  -24.3041   20.6207 C   0  0  2  0  0  0  0  0  0  0  0  0
  -26.6570  -27.1688   20.0422 N   0  0  0  0  0  0  0  0  0  0  0  0
  -25.6935  -27.8457   19.3945 N   0  0  0  0  0  0  0  0  0  0  0  0
  -23.7863  -12.9068   21.2427 N   0  0  0  0  0  0  0  0  0  0  0  0
  -24.3866  -30.0804   22.2064 N   0  0  0  0  0  0  0  0  0  0  0  0
  -24.4519  -27.8990   17.3780 N   0  0  0  0  0  0  0  0  0  0  0  0
  -27.1765  -24.3391   16.8302 N   0  0  0  0  0  0  0  0  0  0  0  0
  -27.0792  -13.5784   20.9694 N   0  0  0  0  0  0  0  0  0  0  0  0
  -21.9618  -10.1734   20.4314 N   0  0  0  0  0  0  0  0  0  0  0  0
  -22.6392  -28.8694   23.2426 N   0  0  0  0  0  0  0  0  0  0  0  0
  -19.0489   -9.5725   22.4862 N   0  3  0  0  0  0  0  0  0  0  0  0
  -25.5354  -25.5977   15.8396 O   0  0  0  0  0  0  0  0  0  0  0  0
  -25.4122  -15.1362   20.5039 O   0  0  0  0  0  0  0  0  0  0  0  0
  -19.4166  -19.9863   20.2920 O   0  0  0  0  0  0  0  0  0  0  0  0
  -24.6909  -10.7646   21.0726 O   0  0  0  0  0  0  0  0  0  0  0  0
  -20.0150  -11.4221   20.5988 O   0  0  0  0  0  0  0  0  0  0  0  0
  -22.7839  -31.1427   23.5029 O   0  0  0  0  0  0  0  0  0  0  0  0
  -30.9387  -22.4769   20.4927 O   0  0  0  0  0  0  0  0  0  0  0  0
  -20.4956  -18.1030   21.8614 O   0  0  0  0  0  0  0  0  0  1  0  0
  -29.9017  -17.1580   19.4740 F   0  0  0  0  0  0  0  0  0  0  0  0
  -30.4161  -21.6006   17.9233 F   0  0  0  0  0  0  0  0  0  0  0  0
  1  2  1  0  0  0  0
  1  6  2  0  0  0  0
  2  7  2  0  0  0  0
  3  9  2  0  0  0  0
  3 10  1  0  0  0  0
  4 11  2  0  0  0  0
  4 19  1  0  0  0  0
  5 12  1  0  0  0  0
  5 19  2  0  0  0  0
  6 21  1  0  0  0  0
  7 23  1  0  0  0  0
  8 13  2  0  0  0  0
  8 22  1  0  0  0  0
  9 25  1  0  0  0  0
 10 26  2  0  0  0  0
 11 27  1  0  0  0  0
 12 27  2  0  0  0  0
 13 28  1  0  0  0  0
 14 15  2  0  0  0  0
 14 29  1  0  0  0  0
 15 30  1  0  0  0  0
 16 24  1  0  0  0  0
 16 28  2  0  0  0  0
 17 25  2  0  0  0  0
 17 26  1  0  0  0  0
 18 30  2  0  0  0  0
 18 31  1  0  0  0  0
 19 32  1  0  0  0  0
 20 32  1  0  0  0  0
 20 33  2  0  0  0  0
 20 34  1  0  0  0  0
 21 23  2  0  0  0  0
 21 40  1  0  0  0  0
 22 24  2  0  0  0  0
 22 41  1  0  0  0  0
 23 49  1  0  0  0  0
 24 42  1  0  0  0  0
 25 59  1  0  0  0  0
 26 60  1  0  0  0  0
 27 85  1  0  0  0  0
 28 86  1  0  0  0  0
 29 31  2  0  0  0  0
 29 85  1  0  0  0  0
 30 87  1  0  0  0  0
 31 88  1  0  0  0  0
 32 69  2  0  0  0  0
 33 70  1  0  0  0  0
 33 73  1  0  0  0  0
 34 74  1  0  0  0  0
 34 79  2  0  0  0  0
 35 50  1  0  0  0  0
 35 75  1  0  0  0  0
 35 80  2  0  0  0  0
 36 61  1  0  0  0  0
 36 62  1  0  0  0  0
 36 81  2  0  0  0  0
 37 65  1  0  0  0  0
 37 71  1  0  0  0  0
 37 82  2  0  0  0  0
 38 66  1  0  0  0  0
 38 76  1  0  0  0  0
 38 83  2  0  0  0  0
 39 72  1  0  0  0  0
 39 77  1  0  0  0  0
 39 84  2  0  0  0  0
 40 43  1  0  0  0  0
 41 50  1  0  0  0  0
 42 71  1  0  0  0  0
 43 45  1  0  0  0  0
 44 46  1  0  0  0  0
 44 47  1  0  0  0  0
 45 49  1  0  0  0  0
 46 51  1  0  0  0  0
 47 72  1  0  0  0  0
 48 51  1  0  0  0  0
 48 72  1  0  0  0  0
 49 75  1  0  0  0  0
 50 71  1  0  0  0  0
 51 70  1  0  0  0  0
 52 63  1  0  0  0  0
 53 66  1  0  0  0  0
 54 67  1  0  0  0  0
 55 67  1  0  0  0  0
 56 67  1  0  0  0  0
 57 68  1  0  0  0  0
 58 78  1  0  0  0  0
 59 68  1  0  0  0  0
 60 77  1  0  0  0  0
 61 64  1  0  0  0  0
 62 86  1  0  0  0  0
 63 68  1  0  0  0  0
 64 68  1  0  0  0  0
 65 67  1  0  0  0  0
 65 76  1  0  0  0  0
 66 78  1  0  0  0  0
 69 70  1  0  0  0  0
M  CHG  1  78   1
M  ISO  4  39 100  62 101  77 100  86 101
M  END
> <Batch ID>
0144

> <Smiles>
CCC(C)(CCC(=O)[101CH2:1][101O:1]c1ccc2c(c1)CN(C(=O)C(NC(=O)C(C)NC)C(C)(C)C)C(C(=O)NC1CCCc3ccccc31)C2)Cc1cccc(C[100NH:0][100C:0](=O)N2CCCC(n3nc(-c4ccc(Oc5ccc(F)cc5F)cc4)c(C(N)=O)c3N)C2)c1

> <Shape>
0.282

> <Color>
0.072

> <Negative vol penalty>
0.000

$$$$

  -OEChem-04052303043D

 84 93  0     1  0  0  0  0  0999 V2000
  -37.4415  -12.2541   21.2872 C   0  0  0  0  0  0  0  0  0  0  0  0
  -36.7785  -13.4655   21.4549 C   0  0  0  0  0  0  0  0  0  0  0  0
  -22.6396  -10.2781   20.2111 C   0  0  0  0  0  0  0  0  0  0  0  0
  -24.2320   -9.5303   21.8671 C   0  0  0  0  0  0  0  0  0  0  0  0
  -36.7876  -11.0570   21.5761 C   0  0  0  0  0  0  0  0  0  0  0  0
  -35.4607  -13.4806   21.9106 C   0  0  0  0  0  0  0  0  0  0  0  0
  -34.6818  -16.9799   25.4873 C   0  0  0  0  0  0  0  0  0  0  0  0
  -21.8766   -9.1306   20.4267 C   0  0  0  0  0  0  0  0  0  0  0  0
  -23.4689   -8.3828   22.0827 C   0  0  0  0  0  0  0  0  0  0  0  0
  -34.5435  -18.3016   25.0656 C   0  0  0  0  0  0  0  0  0  0  0  0
  -19.3214   -6.5719   20.8002 C   0  0  0  0  0  0  0  0  0  0  0  0
  -17.9403   -6.7249   20.9217 C   0  0  0  0  0  0  0  0  0  0  0  0
  -32.1468  -18.1055   25.2572 C   0  0  0  0  0  0  0  0  0  0  0  0
  -31.4713  -18.0963   21.4063 C   0  0  0  0  0  0  0  0  0  0  0  0
  -18.2679   -8.1646   22.8340 C   0  0  0  0  0  0  0  0  0  0  0  0
  -23.8174  -10.4780   20.9313 C   0  0  0  0  0  0  0  0  0  0  0  0
  -24.2008  -12.9996   20.8840 C   0  0  0  0  0  0  0  0  0  0  0  0
  -35.4644  -11.0579   22.0447 C   0  0  0  0  0  0  0  0  0  0  0  0
  -33.5512  -16.2064   25.7871 C   0  0  0  0  0  0  0  0  0  0  0  0
  -34.7881  -12.2824   22.2047 C   0  0  0  0  0  0  0  0  0  0  0  0
  -32.2736  -16.7751   25.6849 C   0  0  0  0  0  0  0  0  0  0  0  0
  -30.6481  -17.0106   21.5716 C   0  0  0  0  0  0  0  0  0  0  0  0
  -22.2912   -8.1829   21.3624 C   0  0  0  0  0  0  0  0  0  0  0  0
  -33.2758  -18.8637   24.9477 C   0  0  0  0  0  0  0  0  0  0  0  0
  -20.1758   -7.2153   21.6956 C   0  0  0  0  0  0  0  0  0  0  0  0
  -17.4135   -7.5212   21.9386 C   0  0  0  0  0  0  0  0  0  0  0  0
  -19.6491   -8.0116   22.7125 C   0  0  0  0  0  0  0  0  0  0  0  0
  -24.6064  -11.6629   20.7087 C   0  0  0  0  0  0  0  0  0  0  0  0
  -30.8155  -19.1045   22.1216 C   0  0  0  0  0  0  0  0  0  0  0  0
  -29.6003  -17.3848   22.3159 C   0  0  0  0  0  0  0  0  0  0  0  0
  -25.3058  -13.7410   20.5436 C   0  0  0  0  0  0  0  0  0  0  0  0
  -22.9383  -13.5240   21.3159 C   0  0  0  0  0  0  0  0  0  0  0  0
  -31.1658  -20.4690   22.3350 C   0  0  0  0  0  0  0  0  0  0  0  0
  -32.2842  -13.5374   24.6148 C   0  0  0  0  0  0  0  0  0  0  0  0
  -30.2511  -13.8640   27.1212 C   0  0  0  0  0  0  0  0  0  0  0  0
  -28.7741  -15.9266   29.4039 C   0  0  0  0  0  0  0  0  0  0  0  0
  -30.7282  -14.7585   20.6495 C   0  0  0  0  0  0  0  0  0  0  0  0
  -34.7833   -9.7364   22.2986 C   0  0  0  0  0  0  0  0  0  0  0  0
  -33.7186  -14.7906   26.2664 C   0  0  0  0  0  0  0  0  0  0  0  0
  -31.0290  -15.9935   26.0142 C   0  0  0  0  0  0  0  0  0  0  0  0
  -28.9961  -16.0305   22.2545 C   0  0  0  0  0  0  0  0  0  0  0  0
  -33.5114   -9.8573   23.1341 C   0  0  0  0  0  0  0  0  0  0  0  0
  -29.6518  -12.3576   18.3352 C   0  0  0  0  0  0  0  0  0  0  0  0
  -32.6384  -10.9956   22.6157 C   0  0  0  0  0  0  0  0  0  0  0  0
  -28.1998  -12.0845   18.7389 C   0  0  0  0  0  0  0  0  0  0  0  0
  -30.5545  -12.5520   19.5541 C   0  0  0  0  0  0  0  0  0  0  0  0
  -28.6562  -13.2577   20.9257 C   0  0  0  0  0  0  0  0  0  0  0  0
  -33.3666  -12.3411   22.7205 C   0  0  1  0  0  0  0  0  0  0  0  0
  -32.4735  -13.9357   26.0511 C   0  0  1  0  0  0  0  0  0  0  0  0
  -27.6838  -13.1363   19.7417 C   0  0  2  0  0  0  0  0  0  0  0  0
  -27.3866  -16.5917   31.3863 C   0  0  0  0  0  0  0  0  0  0  0  0
  -27.9541  -13.6653   25.1226 C   0  0  0  0  0  0  0  0  0  0  0  0
  -26.4339  -14.5902   26.8838 C   0  0  0  0  0  0  0  0  0  0  0  0
  -27.5916  -12.4123   27.2564 C   0  0  0  0  0  0  0  0  0  0  0  0
  -32.9482  -22.8761   23.4505 C   0  0  0  0  0  0  0  0  0  0  0  0
  -34.6708  -22.2369   21.7691 C   0  0  0  0  0  0  0  0  0  0  0  0
  -31.0596  -15.6078   31.2569 C   0  0  0  0  0  0  0  0  0  0  0  0
  -32.4739  -21.0569   21.7214 C   0  0  0  0  0  0  0  0  0  0  0  0
  -34.1336  -20.6633   23.6510 C   0  0  0  0  0  0  0  0  0  1  0  0
  -28.9280  -14.5568   27.3413 C   0  0  1  0  0  0  0  0  0  0  0  0
  -28.5943  -15.8020   30.9061 C   0  0  2  0  0  0  0  0  0  0  0  0
  -27.7501  -13.8205   26.6429 C   0  0  0  0  0  0  0  0  0  0  0  0
  -33.5341  -21.6892   22.6644 C   0  0  0  0  0  0  0  0  0  0  0  0
  -25.8702  -11.5583   20.2894 N   0  0  0  0  0  0  0  0  0  0  0  0
  -26.2683  -12.8386   20.1983 N   0  0  0  0  0  0  0  0  0  0  0  0
  -30.1901  -15.7404   21.4382 N   0  0  0  0  0  0  0  0  0  0  0  0
  -31.2445  -14.6111   26.4725 N   0  0  0  0  0  0  0  0  0  0  0  0
  -29.9971  -13.5866   20.4324 N   0  0  0  0  0  0  0  0  0  0  0  0
  -25.5381  -15.0704   20.5090 N   0  0  0  0  0  0  0  0  0  0  0  0
  -22.7349  -13.7318   22.6870 N   0  0  0  0  0  0  0  0  0  0  0  0
  -33.3422  -12.8240   24.0846 N   0  0  0  0  0  0  0  0  0  0  0  0
  -28.7745  -14.6942   28.7856 N   0  0  0  0  0  0  0  0  0  0  0  0
  -29.8015  -16.3112   31.6163 N   0  3  0  0  0  0  0  0  0  0  0  0
  -22.0118  -13.7848   20.5114 O   0  0  0  0  0  0  0  0  0  0  0  0
  -30.4251  -21.2364   23.0078 O   0  0  0  0  0  0  0  0  0  0  0  0
  -31.2537  -13.8525   24.0312 O   0  0  0  0  0  0  0  0  0  0  0  0
  -30.4001  -12.7051   27.5168 O   0  0  0  0  0  0  0  0  0  0  0  0
  -28.8978  -17.0092   28.8354 O   0  0  0  0  0  0  0  0  0  0  0  0
  -31.8327  -14.9318   20.1127 O   0  0  0  0  0  0  0  0  0  0  0  0
  -29.6341  -18.6523   22.6934 O   0  0  0  0  0  0  0  0  0  0  0  0
  -21.5467   -7.0631   21.5732 O   0  0  0  0  0  0  0  0  0  0  0  0
  -33.1369  -20.1624   24.5328 O   0  0  0  0  0  0  0  0  0  1  0  0
  -16.0873   -7.6692   22.0542 F   0  0  0  0  0  0  0  0  0  0  0  0
  -20.4649   -8.6332   23.5750 F   0  0  0  0  0  0  0  0  0  0  0  0
  1  2  1  0  0  0  0
  1  5  2  0  0  0  0
  2  6  2  0  0  0  0
  3  8  2  0  0  0  0
  3 16  1  0  0  0  0
  4  9  1  0  0  0  0
  4 16  2  0  0  0  0
  5 18  1  0  0  0  0
  6 20  1  0  0  0  0
  7 10  2  0  0  0  0
  7 19  1  0  0  0  0
  8 23  1  0  0  0  0
  9 23  2  0  0  0  0
 10 24  1  0  0  0  0
 11 12  2  0  0  0  0
 11 25  1  0  0  0  0
 12 26  1  0  0  0  0
 13 21  1  0  0  0  0
 13 24  2  0  0  0  0
 14 22  1  0  0  0  0
 14 29  2  0  0  0  0
 15 26  2  0  0  0  0
 15 27  1  0  0  0  0
 16 28  1  0  0  0  0
 17 28  1  0  0  0  0
 17 31  2  0  0  0  0
 17 32  1  0  0  0  0
 18 20  2  0  0  0  0
 18 38  1  0  0  0  0
 19 21  2  0  0  0  0
 19 39  1  0  0  0  0
 20 48  1  0  0  0  0
 21 40  1  0  0  0  0
 22 30  2  0  0  0  0
 22 66  1  0  0  0  0
 23 81  1  0  0  0  0
 24 82  1  0  0  0  0
 25 27  2  0  0  0  0
 25 81  1  0  0  0  0
 26 83  1  0  0  0  0
 27 84  1  0  0  0  0
 28 64  2  0  0  0  0
 29 33  1  0  0  0  0
 29 80  1  0  0  0  0
 30 41  1  0  0  0  0
 30 80  1  0  0  0  0
 31 65  1  0  0  0  0
 31 69  1  0  0  0  0
 32 70  1  0  0  0  0
 32 74  2  0  0  0  0
 33 58  1  0  0  0  0
 33 75  2  0  0  0  0
 34 49  1  0  0  0  0
 34 71  1  0  0  0  0
 34 76  2  0  0  0  0
 35 60  1  0  0  0  0
 35 67  1  0  0  0  0
 35 77  2  0  0  0  0
 36 61  1  0  0  0  0
 36 72  1  0  0  0  0
 36 78  2  0  0  0  0
 37 66  1  0  0  0  0
 37 68  1  0  0  0  0
 37 79  2  0  0  0  0
 38 42  1  0  0  0  0
 39 49  1  0  0  0  0
 40 67  1  0  0  0  0
 41 66  1  0  0  0  0
 42 44  1  0  0  0  0
 43 45  1  0  0  0  0
 43 46  1  0  0  0  0
 44 48  1  0  0  0  0
 45 50  1  0  0  0  0
 46 68  1  0  0  0  0
 47 50  1  0  0  0  0
 47 68  1  0  0  0  0
 48 71  1  0  0  0  0
 49 67  1  0  0  0  0
 50 65  1  0  0  0  0
 51 61  1  0  0  0  0
 52 62  1  0  0  0  0
 53 62  1  0  0  0  0
 54 62  1  0  0  0  0
 55 63  1  0  0  0  0
 56 63  1  0  0  0  0
 57 73  1  0  0  0  0
 58 63  1  0  0  0  0
 59 63  1  0  0  0  0
 59 82  1  0  0  0  0
 60 62  1  0  0  0  0
 60 72  1  0  0  0  0
 61 73  1  0  0  0  0
 64 65  1  0  0  0  0
M  CHG  1  73   1
M  ISO  4  37 100  59 101  66 100  82 101
M  END
> <Batch ID>
0144

> <Smiles>
CNC(C)C(=O)NC(C(=O)N1Cc2cc([101O:1][101CH2:1]C(C)(C)CC(=O)c3cc4c(o3)C[100N:0]4[100C:0](=O)N3CCCC(n4nc(-c5ccc(Oc6ccc(F)cc6F)cc5)c(C(N)=O)c4N)C3)ccc2CC1C(=O)NC1CCCc2ccccc21)C(C)(C)C

> <Shape>
0.158

> <Color>
0.159

> <Negative vol penalty>
0.000

$$$$

  -OEChem-04052303043D

 91100  0     1  0  0  0  0  0999 V2000
  -26.4565  -32.7468   24.7433 C   0  0  0  0  0  0  0  0  0  0  0  0
  -26.2938  -32.3432   23.4220 C   0  0  0  0  0  0  0  0  0  0  0  0
  -31.3522  -19.0589   20.6309 C   0  0  0  0  0  0  0  0  0  0  0  0
  -23.0717   -9.8804   19.9351 C   0  0  0  0  0  0  0  0  0  0  0  0
  -23.8338   -9.8743   22.2278 C   0  0  0  0  0  0  0  0  0  0  0  0
  -30.6249  -19.8450   21.5245 C   0  0  0  0  0  0  0  0  0  0  0  0
  -27.6784  -32.5507   25.3855 C   0  0  0  0  0  0  0  0  0  0  0  0
  -27.3533  -31.7441   22.7416 C   0  0  0  0  0  0  0  0  0  0  0  0
  -26.7081  -25.1309   19.9595 C   0  0  0  0  0  0  0  0  0  0  0  0
  -31.1782  -17.6749   20.6181 C   0  0  0  0  0  0  0  0  0  0  0  0
  -22.3235   -8.7291   20.1807 C   0  0  0  0  0  0  0  0  0  0  0  0
  -23.0856   -8.7230   22.4734 C   0  0  0  0  0  0  0  0  0  0  0  0
  -26.5935  -23.9554   19.2171 C   0  0  0  0  0  0  0  0  0  0  0  0
  -19.8549   -7.9353   23.0756 C   0  0  0  0  0  0  0  0  0  0  0  0
  -19.0989   -7.8931   24.2470 C   0  0  0  0  0  0  0  0  0  0  0  0
  -29.5497  -17.8633   22.3928 C   0  0  0  0  0  0  0  0  0  0  0  0
  -28.9139  -24.1319   18.5593 C   0  0  0  0  0  0  0  0  0  0  0  0
  -20.3334   -5.9476   24.9737 C   0  0  0  0  0  0  0  0  0  0  0  0
  -23.8269  -10.4530   20.9586 C   0  0  0  0  0  0  0  0  0  0  0  0
  -29.7237  -19.2473   22.4055 C   0  0  0  0  0  0  0  0  0  0  0  0
  -24.1786  -12.9773   20.8494 C   0  0  0  0  0  0  0  0  0  0  0  0
  -28.7505  -31.9402   24.7157 C   0  0  0  0  0  0  0  0  0  0  0  0
  -27.9317  -25.8039   20.0171 C   0  0  0  0  0  0  0  0  0  0  0  0
  -28.5912  -31.5409   23.3750 C   0  0  0  0  0  0  0  0  0  0  0  0
  -29.0380  -25.3031   19.3114 C   0  0  0  0  0  0  0  0  0  0  0  0
  -30.2770  -17.0772   21.4991 C   0  0  0  0  0  0  0  0  0  0  0  0
  -22.3304   -8.1504   21.4498 C   0  0  0  0  0  0  0  0  0  0  0  0
  -27.6936  -23.4573   18.5185 C   0  0  0  0  0  0  0  0  0  0  0  0
  -20.8501   -6.9835   22.8531 C   0  0  0  0  0  0  0  0  0  0  0  0
  -19.3382   -6.8993   25.1961 C   0  0  0  0  0  0  0  0  0  0  0  0
  -21.0894   -5.9897   23.8022 C   0  0  0  0  0  0  0  0  0  0  0  0
  -24.6004  -11.6420   20.7054 C   0  0  0  0  0  0  0  0  0  0  0  0
  -25.2733  -13.7241   20.4884 C   0  0  0  0  0  0  0  0  0  0  0  0
  -28.9544  -20.0772   23.3497 C   0  0  0  0  0  0  0  0  0  0  0  0
  -22.9105  -13.4963   21.2719 C   0  0  0  0  0  0  0  0  0  0  0  0
  -27.7785  -21.0062   20.6227 C   0  0  0  0  0  0  0  0  0  0  0  0
  -29.8734  -28.7165   21.3670 C   0  0  0  0  0  0  0  0  0  0  0  0
  -31.7299  -26.2772   21.4832 C   0  0  0  0  0  0  0  0  0  0  0  0
  -33.3078  -23.2731   21.8335 C   0  0  0  0  0  0  0  0  0  0  0  0
  -30.7438  -14.7473   20.6623 C   0  0  0  0  0  0  0  0  0  0  0  0
  -30.0670  -31.7923   25.4364 C   0  0  0  0  0  0  0  0  0  0  0  0
  -28.0847  -27.1066   20.7542 C   0  0  0  0  0  0  0  0  0  0  0  0
  -30.3251  -26.0792   19.3742 C   0  0  0  0  0  0  0  0  0  0  0  0
  -31.0227  -30.8102   24.7637 C   0  0  0  0  0  0  0  0  0  0  0  0
  -25.8104  -21.8878   22.9119 C   0  0  0  0  0  0  0  0  0  0  0  0
  -29.6176  -12.3484   18.2845 C   0  0  0  0  0  0  0  0  0  0  0  0
  -31.0830  -31.0681   23.2615 C   0  0  0  0  0  0  0  0  0  0  0  0
  -25.6618  -20.7519   21.9078 C   0  0  0  0  0  0  0  0  0  0  0  0
  -28.1772  -12.0606   18.7142 C   0  0  0  0  0  0  0  0  0  0  0  0
  -26.9169  -21.3935   23.8357 C   0  0  0  0  0  0  0  0  0  0  0  0
  -30.5347  -12.5683   19.4863 C   0  0  0  0  0  0  0  0  0  0  0  0
  -28.6320  -13.2941   20.8726 C   0  0  0  0  0  0  0  0  0  0  0  0
  -29.7092  -30.8650   22.6112 C   0  0  1  0  0  0  0  0  0  0  0  0
  -27.0865  -20.2394   21.7269 C   0  0  2  0  0  0  0  0  0  0  0  0
  -29.4692  -27.2721   21.4062 C   0  0  1  0  0  0  0  0  0  0  0  0
  -27.6573  -13.1299   19.6950 C   0  0  2  0  0  0  0  0  0  0  0  0
  -35.0791  -21.6417   22.5394 C   0  0  0  0  0  0  0  0  0  0  0  0
  -29.4369  -21.3001   15.8470 C   0  0  0  0  0  0  0  0  0  0  0  0
  -27.5757  -19.6925   16.2892 C   0  0  0  0  0  0  0  0  0  0  0  0
  -33.1119  -27.2347   18.9381 C   0  0  0  0  0  0  0  0  0  0  0  0
  -34.8512  -25.4714   19.3039 C   0  0  0  0  0  0  0  0  0  0  0  0
  -34.5452  -27.2871   20.9868 C   0  0  0  0  0  0  0  0  0  0  0  0
  -32.0230  -22.8385   24.4640 C   0  0  0  0  0  0  0  0  0  0  0  0
  -27.7272  -20.3763   19.2379 C   0  0  0  0  0  0  0  0  0  0  0  0
  -32.7999  -25.4680   20.7949 C   0  0  1  0  0  0  0  0  0  0  0  0
  -34.0435  -22.6523   23.0073 C   0  0  2  0  0  0  0  0  0  0  0  0
  -28.7844  -20.4038   16.9056 C   0  0  0  0  0  0  0  0  0  0  0  0
  -28.4271  -21.2220   18.1675 C   0  0  1  0  0  0  0  0  0  1  0  0
  -33.7995  -26.3583   20.0040 C   0  0  0  0  0  0  0  0  0  0  0  0
  -25.8645  -11.5430   20.2855 N   0  0  0  0  0  0  0  0  0  0  0  0
  -26.2463  -12.8256   20.1624 N   0  0  0  0  0  0  0  0  0  0  0  0
  -27.7536  -20.5645   22.9770 N   0  0  0  0  0  0  0  0  0  0  0  0
  -30.5666  -26.5411   20.7501 N   0  0  0  0  0  0  0  0  0  0  0  0
  -29.9807  -13.5974   20.3687 N   0  0  0  0  0  0  0  0  0  0  0  0
  -25.4889  -15.0550   20.4210 N   0  0  0  0  0  0  0  0  0  0  0  0
  -21.8954  -12.5896   21.6061 N   0  0  0  0  0  0  0  0  0  0  0  0
  -30.1008  -15.6713   21.4854 N   0  0  0  0  0  0  0  0  0  0  0  0
  -29.4307  -29.4542   22.4484 N   0  0  0  0  0  0  0  0  0  0  0  0
  -33.4200  -24.6474   21.8295 N   0  0  0  0  0  0  0  0  0  0  0  0
  -29.4557  -20.3308   24.5550 N   0  3  0  0  0  0  0  0  0  0  0  0
  -33.0837  -21.9574   23.9112 N   0  3  0  0  0  0  0  0  0  0  0  0
  -22.6792  -14.7275   21.3349 O   0  0  0  0  0  0  0  0  0  0  0  0
  -28.3345  -22.0793   20.8504 O   0  0  0  0  0  0  0  0  0  0  0  0
  -30.5394  -29.1323   20.4261 O   0  0  0  0  0  0  0  0  0  0  0  0
  -31.9201  -26.6708   22.6374 O   0  0  0  0  0  0  0  0  0  0  0  0
  -32.6979  -22.6054   21.0012 O   0  0  0  0  0  0  0  0  0  0  0  0
  -31.8731  -14.9136   20.1943 O   0  0  0  0  0  0  0  0  0  0  0  0
  -21.6003   -7.0271   21.6899 O   0  0  0  0  0  0  0  0  0  0  0  0
  -27.5760  -22.3067   17.7994 O   0  0  0  0  0  0  0  0  0  1  0  0
  -18.6132   -6.8599   26.3217 F   0  0  0  0  0  0  0  0  0  0  0  0
  -22.0449   -5.0733   23.5946 F   0  0  0  0  0  0  0  0  0  0  0  0
  1  2  1  0  0  0  0
  1  7  2  0  0  0  0
  2  8  2  0  0  0  0
  3  6  2  0  0  0  0
  3 10  1  0  0  0  0
  4 11  2  0  0  0  0
  4 19  1  0  0  0  0
  5 12  1  0  0  0  0
  5 19  2  0  0  0  0
  6 20  1  0  0  0  0
  7 22  1  0  0  0  0
  8 24  1  0  0  0  0
  9 13  2  0  0  0  0
  9 23  1  0  0  0  0
 10 26  2  0  0  0  0
 11 27  1  0  0  0  0
 12 27  2  0  0  0  0
 13 28  1  0  0  0  0
 14 15  2  0  0  0  0
 14 29  1  0  0  0  0
 15 30  1  0  0  0  0
 16 20  2  0  0  0  0
 16 26  1  0  0  0  0
 17 25  1  0  0  0  0
 17 28  2  0  0  0  0
 18 30  2  0  0  0  0
 18 31  1  0  0  0  0
 19 32  1  0  0  0  0
 20 34  1  0  0  0  0
 21 32  1  0  0  0  0
 21 33  2  0  0  0  0
 21 35  1  0  0  0  0
 22 24  2  0  0  0  0
 22 41  1  0  0  0  0
 23 25  2  0  0  0  0
 23 42  1  0  0  0  0
 24 53  1  0  0  0  0
 25 43  1  0  0  0  0
 26 77  1  0  0  0  0
 27 88  1  0  0  0  0
 28 89  1  0  0  0  0
 29 31  2  0  0  0  0
 29 88  1  0  0  0  0
 30 90  1  0  0  0  0
 31 91  1  0  0  0  0
 32 70  2  0  0  0  0
 33 71  1  0  0  0  0
 33 75  1  0  0  0  0
 34 72  1  0  0  0  0
 34 80  2  0  0  0  0
 35 76  1  0  0  0  0
 35 82  2  0  0  0  0
 36 54  1  0  0  0  0
 36 64  1  0  0  0  0
 36 83  2  0  0  0  0
 37 55  1  0  0  0  0
 37 78  1  0  0  0  0
 37 84  2  0  0  0  0
 38 65  1  0  0  0  0
 38 73  1  0  0  0  0
 38 85  2  0  0  0  0
 39 66  1  0  0  0  0
 39 79  1  0  0  0  0
 39 86  2  0  0  0  0
 40 74  1  0  0  0  0
 40 77  1  0  0  0  0
 40 87  2  0  0  0  0
 41 44  1  0  0  0  0
 42 55  1  0  0  0  0
 43 73  1  0  0  0  0
 44 47  1  0  0  0  0
 45 48  1  0  0  0  0
 45 50  1  0  0  0  0
 46 49  1  0  0  0  0
 46 51  1  0  0  0  0
 47 53  1  0  0  0  0
 48 54  1  0  0  0  0
 49 56  1  0  0  0  0
 50 72  1  0  0  0  0
 51 74  1  0  0  0  0
 52 56  1  0  0  0  0
 52 74  1  0  0  0  0
 53 78  1  0  0  0  0
 54 72  1  0  0  0  0
 55 73  1  0  0  0  0
 56 71  1  0  0  0  0
 57 66  1  0  0  0  0
 58 67  1  0  0  0  0
 59 67  1  0  0  0  0
 60 69  1  0  0  0  0
 61 69  1  0  0  0  0
 62 69  1  0  0  0  0
 63 81  1  0  0  0  0
 64 68  1  0  0  0  0
 65 69  1  0  0  0  0
 65 79  1  0  0  0  0
 66 81  1  0  0  0  0
 67 68  1  0  0  0  0
 68 89  1  0  0  0  0
 70 71  1  0  0  0  0
M  CHG  2  80   1  81   1
M  ISO  4  40 100  68 101  77 100  89 101
M  END
> <Batch ID>
0144

> <Smiles>
CNC(C)C(=O)NC(C(=O)N1Cc2cc([101O:1][101CH:1](CC(=O)C3CCCN3C(=N)c3cccc([100NH:0][100C:0](=O)N4CCCC(n5nc(-c6ccc(Oc7ccc(F)cc7F)cc6)c(C(N)=O)c5N)C4)c3)C(C)C)ccc2CC1C(=O)NC1CCCc2ccccc21)C(C)(C)C

> <Shape>
0.295

> <Color>
0.181

> <Negative vol penalty>
0.000

$$$$

  -OEChem-04052303043D

 87 96  0     1  0  0  0  0  0999 V2000
  -28.7358  -31.1210   18.6698 C   0  0  0  0  0  0  0  0  0  0  0  0
  -28.4445  -30.3097   19.7617 C   0  0  0  0  0  0  0  0  0  0  0  0
  -24.1825   -9.3970   19.8419 C   0  0  0  0  0  0  0  0  0  0  0  0
  -24.4259   -9.6294   22.2343 C   0  0  0  0  0  0  0  0  0  0  0  0
  -28.7217  -30.5864   17.3821 C   0  0  0  0  0  0  0  0  0  0  0  0
  -28.1377  -28.9635   19.5666 C   0  0  0  0  0  0  0  0  0  0  0  0
  -29.5497  -24.2920   23.2664 C   0  0  0  0  0  0  0  0  0  0  0  0
  -23.7319   -8.0883   20.0148 C   0  0  0  0  0  0  0  0  0  0  0  0
  -23.9752   -8.3208   22.4073 C   0  0  0  0  0  0  0  0  0  0  0  0
  -28.8162  -23.6072   24.2344 C   0  0  0  0  0  0  0  0  0  0  0  0
  -21.0165   -6.6878   22.4168 C   0  0  0  0  0  0  0  0  0  0  0  0
  -20.0725   -6.4560   23.4172 C   0  0  0  0  0  0  0  0  0  0  0  0
  -29.2417  -16.4545   25.3767 C   0  0  0  0  0  0  0  0  0  0  0  0
  -31.0566  -17.0790   26.8440 C   0  0  0  0  0  0  0  0  0  0  0  0
  -28.2620  -21.9141   22.6079 C   0  0  0  0  0  0  0  0  0  0  0  0
  -31.5282  -16.2573   24.6215 C   0  0  0  0  0  0  0  0  0  0  0  0
  -21.5994   -4.9317   24.5046 C   0  0  0  0  0  0  0  0  0  0  0  0
  -24.5296  -10.1675   20.9516 C   0  0  0  0  0  0  0  0  0  0  0  0
  -29.6895  -16.9366   26.6066 C   0  0  0  0  0  0  0  0  0  0  0  0
  -24.2149  -12.6901   20.7394 C   0  0  0  0  0  0  0  0  0  0  0  0
  -28.4240  -29.2307   17.1720 C   0  0  0  0  0  0  0  0  0  0  0  0
  -29.6360  -23.7978   21.9570 C   0  0  0  0  0  0  0  0  0  0  0  0
  -28.1182  -28.4106   18.2748 C   0  0  0  0  0  0  0  0  0  0  0  0
  -28.9994  -22.5931   21.6259 C   0  0  0  0  0  0  0  0  0  0  0  0
  -30.1611  -16.1148   24.3841 C   0  0  0  0  0  0  0  0  0  0  0  0
  -23.6282   -7.5502   21.2975 C   0  0  0  0  0  0  0  0  0  0  0  0
  -28.1699  -22.4196   23.9044 C   0  0  0  0  0  0  0  0  0  0  0  0
  -22.2519   -6.0415   22.4602 C   0  0  0  0  0  0  0  0  0  0  0  0
  -20.3640   -5.5780   24.4611 C   0  0  0  0  0  0  0  0  0  0  0  0
  -31.9760  -16.7394   25.8515 C   0  0  0  0  0  0  0  0  0  0  0  0
  -22.5433   -5.1635   23.5042 C   0  0  0  0  0  0  0  0  0  0  0  0
  -24.9957  -11.5192   20.7735 C   0  0  0  0  0  0  0  0  0  0  0  0
  -25.1230  -13.7029   20.5495 C   0  0  0  0  0  0  0  0  0  0  0  0
  -26.6911  -20.6967   28.0386 C   0  0  0  0  0  0  0  0  0  0  0  0
  -27.5087  -20.6425   26.9725 C   0  0  0  0  0  0  0  0  0  0  0  0
  -28.7187  -17.2944   27.6562 C   0  0  0  0  0  0  0  0  0  0  0  0
  -22.7957  -12.8482   20.8679 C   0  0  0  0  0  0  0  0  0  0  0  0
  -28.7586  -24.8650   19.0943 C   0  0  0  0  0  0  0  0  0  0  0  0
  -30.3288  -22.2221   18.0589 C   0  0  0  0  0  0  0  0  0  0  0  0
  -31.4772  -19.0815   18.7404 C   0  0  0  0  0  0  0  0  0  0  0  0
  -30.4855  -15.2442   22.0426 C   0  0  0  0  0  0  0  0  0  0  0  0
  -28.3747  -28.7091   15.7577 C   0  0  0  0  0  0  0  0  0  0  0  0
  -30.4533  -24.5344   20.9313 C   0  0  0  0  0  0  0  0  0  0  0  0
  -29.0778  -22.0097   20.2396 C   0  0  0  0  0  0  0  0  0  0  0  0
  -26.2756  -19.4871   28.8214 C   0  0  0  0  0  0  0  0  0  0  0  0
  -28.1186  -19.3518   26.4890 C   0  0  0  0  0  0  0  0  0  0  0  0
  -28.4067  -27.1855   15.6689 C   0  0  0  0  0  0  0  0  0  0  0  0
  -29.7470  -13.9561   18.8064 C   0  0  0  0  0  0  0  0  0  0  0  0
  -27.4284  -26.5721   16.6656 C   0  0  0  0  0  0  0  0  0  0  0  0
  -28.3702  -13.3104   18.9787 C   0  0  0  0  0  0  0  0  0  0  0  0
  -26.4862  -18.1947   28.0445 C   0  0  0  0  0  0  0  0  0  0  0  0
  -30.6197  -13.7702   20.0464 C   0  0  0  0  0  0  0  0  0  0  0  0
  -28.6283  -13.5558   21.4807 C   0  0  0  0  0  0  0  0  0  0  0  0
  -27.8050  -26.9397   18.1059 C   0  0  1  0  0  0  0  0  0  0  0  0
  -30.0481  -24.2074   19.4974 C   0  0  1  0  0  0  0  0  0  0  0  0
  -27.6901  -13.7728   20.2822 C   0  0  2  0  0  0  0  0  0  0  0  0
  -32.6896  -17.1550   17.6838 C   0  0  0  0  0  0  0  0  0  0  0  0
  -27.7961  -21.4679   16.5336 C   0  0  0  0  0  0  0  0  0  0  0  0
  -28.7111  -19.1492   16.2996 C   0  0  0  0  0  0  0  0  0  0  0  0
  -29.9244  -21.0758   15.2803 C   0  0  0  0  0  0  0  0  0  0  0  0
  -33.6901  -19.2496   20.6984 C   0  0  0  0  0  0  0  0  0  0  0  0
  -27.8849  -21.8733   26.2014 C   0  0  0  0  0  0  0  0  0  1  0  0
  -29.9452  -20.7866   17.7918 C   0  0  1  0  0  0  0  0  0  0  0  0
  -32.8271  -18.4290   18.5028 C   0  0  2  0  0  0  0  0  0  0  0  0
  -29.0909  -20.6316   16.5020 C   0  0  0  0  0  0  0  0  0  0  0  0
  -26.2995  -11.7641   20.6177 N   0  0  0  0  0  0  0  0  0  0  0  0
  -26.3449  -13.1005   20.4836 N   0  0  0  0  0  0  0  0  0  0  0  0
  -27.8183  -18.2385   27.4165 N   0  0  0  0  0  0  0  0  0  0  0  0
  -29.8837  -22.7702   19.2702 N   0  0  0  0  0  0  0  0  0  0  0  0
  -29.9120  -14.2338   21.2419 N   0  0  0  0  0  0  0  0  0  0  0  0
  -24.9876  -15.0411   20.4339 N   0  0  0  0  0  0  0  0  0  0  0  0
  -22.0105  -11.7030   21.0583 N   0  0  0  0  0  0  0  0  0  0  0  0
  -29.7064  -15.6264   23.1341 N   0  0  0  0  0  0  0  0  0  0  0  0
  -28.9149  -26.1299   18.5605 N   0  0  0  0  0  0  0  0  0  0  0  0
  -31.1906  -20.0270   17.7785 N   0  0  0  0  0  0  0  0  0  0  0  0
  -28.7594  -16.6639   28.8263 N   0  3  0  0  0  0  0  0  0  0  0  0
  -33.4721  -18.0854   19.8016 N   0  3  0  0  0  0  0  0  0  0  0  0
  -22.2387  -13.9700   20.7991 O   0  0  0  0  0  0  0  0  0  0  0  0
  -27.7003  -24.2683   19.2543 O   0  0  0  0  0  0  0  0  0  0  0  0
  -31.0046  -22.8323   17.2267 O   0  0  0  0  0  0  0  0  0  0  0  0
  -30.7481  -18.7797   19.6826 O   0  0  0  0  0  0  0  0  0  0  0  0
  -31.5741  -15.7533   21.7639 O   0  0  0  0  0  0  0  0  0  0  0  0
  -23.1882   -6.2733   21.4667 O   0  0  0  0  0  0  0  0  0  0  0  0
  -27.4527  -21.7496   24.8471 O   0  0  0  0  0  0  0  0  0  1  0  0
  -19.4580   -5.3566   25.4226 F   0  0  0  0  0  0  0  0  0  0  0  0
  -33.2888  -16.8762   26.0795 F   0  0  0  0  0  0  0  0  0  0  0  0
  -23.7288   -4.5406   23.5519 F   0  0  0  0  0  0  0  0  0  0  0  0
  1  2  1  0  0  0  0
  1  5  2  0  0  0  0
  2  6  2  0  0  0  0
  3  8  2  0  0  0  0
  3 18  1  0  0  0  0
  4  9  1  0  0  0  0
  4 18  2  0  0  0  0
  5 21  1  0  0  0  0
  6 23  1  0  0  0  0
  7 10  2  0  0  0  0
  7 22  1  0  0  0  0
  8 26  1  0  0  0  0
  9 26  2  0  0  0  0
 10 27  1  0  0  0  0
 11 12  2  0  0  0  0
 11 28  1  0  0  0  0
 12 29  1  0  0  0  0
 13 19  2  0  0  0  0
 13 25  1  0  0  0  0
 14 19  1  0  0  0  0
 14 30  2  0  0  0  0
 15 24  1  0  0  0  0
 15 27  2  0  0  0  0
 16 25  2  0  0  0  0
 16 30  1  0  0  0  0
 17 29  2  0  0  0  0
 17 31  1  0  0  0  0
 18 32  1  0  0  0  0
 19 36  1  0  0  0  0
 20 32  1  0  0  0  0
 20 33  2  0  0  0  0
 20 37  1  0  0  0  0
 21 23  2  0  0  0  0
 21 42  1  0  0  0  0
 22 24  2  0  0  0  0
 22 43  1  0  0  0  0
 23 54  1  0  0  0  0
 24 44  1  0  0  0  0
 25 73  1  0  0  0  0
 26 83  1  0  0  0  0
 27 84  1  0  0  0  0
 28 31  2  0  0  0  0
 28 83  1  0  0  0  0
 29 85  1  0  0  0  0
 30 86  1  0  0  0  0
 31 87  1  0  0  0  0
 32 66  2  0  0  0  0
 33 67  1  0  0  0  0
 33 71  1  0  0  0  0
 34 35  2  0  0  0  0
 34 45  1  0  0  0  0
 35 46  1  0  0  0  0
 35 62  1  0  0  0  0
 36 68  1  0  0  0  0
 36 76  2  0  0  0  0
 37 72  1  0  0  0  0
 37 78  2  0  0  0  0
 38 55  1  0  0  0  0
 38 74  1  0  0  0  0
 38 79  2  0  0  0  0
 39 63  1  0  0  0  0
 39 69  1  0  0  0  0
 39 80  2  0  0  0  0
 40 64  1  0  0  0  0
 40 75  1  0  0  0  0
 40 81  2  0  0  0  0
 41 70  1  0  0  0  0
 41 73  1  0  0  0  0
 41 82  2  0  0  0  0
 42 47  1  0  0  0  0
 43 55  1  0  0  0  0
 44 69  1  0  0  0  0
 45 51  1  0  0  0  0
 46 68  1  0  0  0  0
 47 49  1  0  0  0  0
 48 50  1  0  0  0  0
 48 52  1  0  0  0  0
 49 54  1  0  0  0  0
 50 56  1  0  0  0  0
 51 68  1  0  0  0  0
 52 70  1  0  0  0  0
 53 56  1  0  0  0  0
 53 70  1  0  0  0  0
 54 74  1  0  0  0  0
 55 69  1  0  0  0  0
 56 67  1  0  0  0  0
 57 64  1  0  0  0  0
 58 65  1  0  0  0  0
 59 65  1  0  0  0  0
 60 65  1  0  0  0  0
 61 77  1  0  0  0  0
 62 84  1  0  0  0  0
 63 65  1  0  0  0  0
 63 75  1  0  0  0  0
 64 77  1  0  0  0  0
 66 67  1  0  0  0  0
M  CHG  2  76   1  77   1
M  ISO  4  41 100  62 101  73 100  84 101
M  END
> <Batch ID>
0144

> <Smiles>
CNC(C)C(=O)NC(C(=O)N1Cc2cc([101O:1][101CH2:1]C3=CCCN(C(=N)c4cc(F)cc([100NH:0][100C:0](=O)N5CCCC(n6nc(-c7ccc(Oc8ccc(F)cc8F)cc7)c(C(N)=O)c6N)C5)c4)C3)ccc2CC1C(=O)NC1CCCc2ccccc21)C(C)(C)C

> <Shape>
0.205

> <Color>
0.115

> <Negative vol penalty>
0.000

$$$$

  -OEChem-04052303043D

 89 98  0     1  0  0  0  0  0999 V2000
  -17.9083  -27.8137   22.3395 C   0  0  0  0  0  0  0  0  0  0  0  0
  -18.6486  -28.1541   21.2118 C   0  0  0  0  0  0  0  0  0  0  0  0
  -25.0231  -10.1414   22.3880 C   0  0  0  0  0  0  0  0  0  0  0  0
  -24.8953  -11.6270   24.2890 C   0  0  0  0  0  0  0  0  0  0  0  0
  -18.4236  -28.0613   23.6111 C   0  0  0  0  0  0  0  0  0  0  0  0
  -19.9043  -28.7433   21.3553 C   0  0  0  0  0  0  0  0  0  0  0  0
  -25.7875  -25.6605   18.5666 C   0  0  0  0  0  0  0  0  0  0  0  0
  -24.7636   -9.0532   23.2210 C   0  0  0  0  0  0  0  0  0  0  0  0
  -24.6357  -10.5388   25.1220 C   0  0  0  0  0  0  0  0  0  0  0  0
  -26.9286  -25.2417   17.8821 C   0  0  0  0  0  0  0  0  0  0  0  0
  -22.0767   -7.6425   24.7121 C   0  0  0  0  0  0  0  0  0  0  0  0
  -21.1439   -6.7011   24.2771 C   0  0  0  0  0  0  0  0  0  0  0  0
  -29.1241  -20.8403   21.0674 C   0  0  0  0  0  0  0  0  0  0  0  0
  -27.6893  -22.7572   21.3897 C   0  0  0  0  0  0  0  0  0  0  0  0
  -28.2026  -27.0347   18.8870 C   0  0  0  0  0  0  0  0  0  0  0  0
  -26.7245  -20.5873   20.9449 C   0  0  0  0  0  0  0  0  0  0  0  0
  -22.8412   -4.9834   24.3550 C   0  0  0  0  0  0  0  0  0  0  0  0
  -25.0890  -11.4284   22.9220 C   0  0  0  0  0  0  0  0  0  0  0  0
  -28.9674  -22.2025   21.3231 C   0  0  0  0  0  0  0  0  0  0  0  0
  -24.4151  -13.3454   21.3797 C   0  0  0  0  0  0  0  0  0  0  0  0
  -19.6903  -28.6450   23.7703 C   0  0  0  0  0  0  0  0  0  0  0  0
  -25.8534  -26.7600   19.4269 C   0  0  0  0  0  0  0  0  0  0  0  0
  -20.4364  -29.0001   22.6303 C   0  0  0  0  0  0  0  0  0  0  0  0
  -27.0658  -27.4513   19.5850 C   0  0  0  0  0  0  0  0  0  0  0  0
  -28.0026  -20.0327   20.8782 C   0  0  0  0  0  0  0  0  0  0  0  0
  -24.5699   -9.2518   24.5880 C   0  0  0  0  0  0  0  0  0  0  0  0
  -28.1330  -25.9272   18.0417 C   0  0  0  0  0  0  0  0  0  0  0  0
  -23.3918   -7.2544   24.9685 C   0  0  0  0  0  0  0  0  0  0  0  0
  -21.5261   -5.3716   24.0986 C   0  0  0  0  0  0  0  0  0  0  0  0
  -26.5678  -21.9495   21.2006 C   0  0  0  0  0  0  0  0  0  0  0  0
  -23.7740   -5.9249   24.7900 C   0  0  0  0  0  0  0  0  0  0  0  0
  -25.3575  -12.5529   22.0621 C   0  0  0  0  0  0  0  0  0  0  0  0
  -25.1707  -14.2738   20.7060 C   0  0  0  0  0  0  0  0  0  0  0  0
  -30.2643  -23.5469   19.1140 C   0  0  0  0  0  0  0  0  0  0  0  0
  -30.1520  -23.0566   21.5217 C   0  0  0  0  0  0  0  0  0  0  0  0
  -22.9847  -13.2509   21.3568 C   0  0  0  0  0  0  0  0  0  0  0  0
  -24.0418  -29.0097   21.8212 C   0  0  0  0  0  0  0  0  0  0  0  0
  -26.8179  -28.4868   23.0169 C   0  0  0  0  0  0  0  0  0  0  0  0
  -29.3064  -26.9803   24.2173 C   0  0  0  0  0  0  0  0  0  0  0  0
  -29.3581  -17.9392   20.5227 C   0  0  0  0  0  0  0  0  0  0  0  0
  -20.1852  -28.9366   25.1648 C   0  0  0  0  0  0  0  0  0  0  0  0
  -24.6347  -27.2838   20.1371 C   0  0  0  0  0  0  0  0  0  0  0  0
  -27.0815  -28.6496   20.4941 C   0  0  0  0  0  0  0  0  0  0  0  0
  -21.6835  -29.2210   25.2324 C   0  0  0  0  0  0  0  0  0  0  0  0
  -30.1675  -14.5219   19.9363 C   0  0  0  0  0  0  0  0  0  0  0  0
  -22.0910  -30.2003   24.1362 C   0  0  0  0  0  0  0  0  0  0  0  0
  -28.9107  -13.7702   20.3809 C   0  0  0  0  0  0  0  0  0  0  0  0
  -32.4155  -24.5384   19.1641 C   0  0  0  0  0  0  0  0  0  0  0  0
  -30.4518  -15.7289   20.8285 C   0  0  0  0  0  0  0  0  0  0  0  0
  -31.8837  -24.5225   20.5935 C   0  0  0  0  0  0  0  0  0  0  0  0
  -28.0708  -15.9079   21.4352 C   0  0  0  0  0  0  0  0  0  0  0  0
  -21.8130  -29.6182   22.7450 C   0  0  1  0  0  0  0  0  0  0  0  0
  -24.9466  -27.8475   21.5350 C   0  0  1  0  0  0  0  0  0  0  0  0
  -27.7071  -14.7217   20.5273 C   0  0  2  0  0  0  0  0  0  0  0  0
  -31.1770  -24.4009   18.2556 C   0  0  1  0  0  0  0  0  0  0  0  0
  -31.5186  -23.7020   16.9437 C   0  0  0  0  0  0  0  0  0  0  0  0
  -31.3029  -26.7679   25.7226 C   0  0  0  0  0  0  0  0  0  0  0  0
  -31.3526  -26.6354   17.0980 C   0  0  0  0  0  0  0  0  0  0  0  0
  -27.7429  -31.2121   22.0066 C   0  0  0  0  0  0  0  0  0  0  0  0
  -29.8396  -30.9167   23.3425 C   0  0  0  0  0  0  0  0  0  0  0  0
  -27.6298  -31.0056   24.4963 C   0  0  0  0  0  0  0  0  0  0  0  0
  -28.1902  -24.5866   25.5527 C   0  0  0  0  0  0  0  0  0  0  0  0
  -28.2450  -28.9539   23.1531 C   0  0  1  0  0  0  0  0  0  0  0  0
  -29.8190  -26.4802   25.5558 C   0  0  2  0  0  0  0  0  0  0  0  0
  -30.5046  -25.7503   17.9987 C   0  0  1  0  0  0  0  0  0  1  0  0
  -28.3568  -30.5028   23.2301 C   0  0  0  0  0  0  0  0  0  0  0  0
  -26.6157  -12.9436   21.8420 N   0  0  0  0  0  0  0  0  0  0  0  0
  -26.4692  -13.9917   21.0137 N   0  0  0  0  0  0  0  0  0  0  0  0
  -30.7075  -23.6487   20.4792 N   0  0  0  0  0  0  0  0  0  0  0  0
  -26.3143  -28.3630   21.7164 N   0  0  0  0  0  0  0  0  0  0  0  0
  -29.2685  -16.5874   20.9169 N   0  0  0  0  0  0  0  0  0  0  0  0
  -24.8444  -15.2956   19.8864 N   0  0  0  0  0  0  0  0  0  0  0  0
  -22.3699  -12.2383   22.1058 N   0  0  0  0  0  0  0  0  0  0  0  0
  -28.1614  -18.6485   20.6199 N   0  0  0  0  0  0  0  0  0  0  0  0
  -22.8322  -28.6549   22.3874 N   0  0  0  0  0  0  0  0  0  0  0  0
  -28.7940  -28.2569   24.3112 N   0  0  0  0  0  0  0  0  0  0  0  0
  -30.6420  -23.2194   22.7471 N   0  3  0  0  0  0  0  0  0  0  0  0
  -29.6091  -25.0096   25.6742 N   0  3  0  0  0  0  0  0  0  0  0  0
  -29.2917  -22.8978   18.7715 O   0  0  0  0  0  0  0  0  0  0  0  0
  -22.2736  -14.0307   20.6788 O   0  0  0  0  0  0  0  0  0  0  0  0
  -24.4131  -30.1457   21.5502 O   0  0  0  0  0  0  0  0  0  0  0  0
  -26.1634  -28.2430   24.0345 O   0  0  0  0  0  0  0  0  0  0  0  0
  -29.3590  -26.3072   23.1903 O   0  0  0  0  0  0  0  0  0  0  0  0
  -30.4117  -18.4242   20.1024 O   0  0  0  0  0  0  0  0  0  0  0  0
  -24.3165   -8.1901   25.4011 O   0  0  0  0  0  0  0  0  0  0  0  0
  -29.2443  -25.5103   17.3739 O   0  0  0  0  0  0  0  0  0  1  0  0
  -20.6299   -4.4673   23.6823 F   0  0  0  0  0  0  0  0  0  0  0  0
  -25.3405  -22.4822   21.2645 F   0  0  0  0  0  0  0  0  0  0  0  0
  -25.0356   -5.5459   25.0358 F   0  0  0  0  0  0  0  0  0  0  0  0
  1  2  1  0  0  0  0
  1  5  2  0  0  0  0
  2  6  2  0  0  0  0
  3  8  2  0  0  0  0
  3 18  1  0  0  0  0
  4  9  1  0  0  0  0
  4 18  2  0  0  0  0
  5 21  1  0  0  0  0
  6 23  1  0  0  0  0
  7 10  2  0  0  0  0
  7 22  1  0  0  0  0
  8 26  1  0  0  0  0
  9 26  2  0  0  0  0
 10 27  1  0  0  0  0
 11 12  2  0  0  0  0
 11 28  1  0  0  0  0
 12 29  1  0  0  0  0
 13 19  2  0  0  0  0
 13 25  1  0  0  0  0
 14 19  1  0  0  0  0
 14 30  2  0  0  0  0
 15 24  1  0  0  0  0
 15 27  2  0  0  0  0
 16 25  2  0  0  0  0
 16 30  1  0  0  0  0
 17 29  2  0  0  0  0
 17 31  1  0  0  0  0
 18 32  1  0  0  0  0
 19 35  1  0  0  0  0
 20 32  1  0  0  0  0
 20 33  2  0  0  0  0
 20 36  1  0  0  0  0
 21 23  2  0  0  0  0
 21 41  1  0  0  0  0
 22 24  2  0  0  0  0
 22 42  1  0  0  0  0
 23 52  1  0  0  0  0
 24 43  1  0  0  0  0
 25 74  1  0  0  0  0
 26 85  1  0  0  0  0
 27 86  1  0  0  0  0
 28 31  2  0  0  0  0
 28 85  1  0  0  0  0
 29 87  1  0  0  0  0
 30 88  1  0  0  0  0
 31 89  1  0  0  0  0
 32 67  2  0  0  0  0
 33 68  1  0  0  0  0
 33 72  1  0  0  0  0
 34 55  1  0  0  0  0
 34 69  1  0  0  0  0
 34 79  2  0  0  0  0
 35 69  1  0  0  0  0
 35 77  2  0  0  0  0
 36 73  1  0  0  0  0
 36 80  2  0  0  0  0
 37 53  1  0  0  0  0
 37 75  1  0  0  0  0
 37 81  2  0  0  0  0
 38 63  1  0  0  0  0
 38 70  1  0  0  0  0
 38 82  2  0  0  0  0
 39 64  1  0  0  0  0
 39 76  1  0  0  0  0
 39 83  2  0  0  0  0
 40 71  1  0  0  0  0
 40 74  1  0  0  0  0
 40 84  2  0  0  0  0
 41 44  1  0  0  0  0
 42 53  1  0  0  0  0
 43 70  1  0  0  0  0
 44 46  1  0  0  0  0
 45 47  1  0  0  0  0
 45 49  1  0  0  0  0
 46 52  1  0  0  0  0
 47 54  1  0  0  0  0
 48 50  1  0  0  0  0
 48 55  1  0  0  0  0
 49 71  1  0  0  0  0
 50 69  1  0  0  0  0
 51 54  1  0  0  0  0
 51 71  1  0  0  0  0
 52 75  1  0  0  0  0
 53 70  1  0  0  0  0
 54 68  1  0  0  0  0
 55 56  1  0  0  0  0
 55 65  1  0  0  0  0
 57 64  1  0  0  0  0
 58 65  1  0  0  0  0
 59 66  1  0  0  0  0
 60 66  1  0  0  0  0
 61 66  1  0  0  0  0
 62 78  1  0  0  0  0
 63 66  1  0  0  0  0
 63 76  1  0  0  0  0
 64 78  1  0  0  0  0
 65 86  1  0  0  0  0
 67 68  1  0  0  0  0
M  CHG  2  77   1  78   1
M  ISO  4  40 100  65 101  74 100  86 101
M  END
> <Batch ID>
0144

> <Smiles>
CNC(C)C(=O)NC(C(=O)N1Cc2cc([101O:1][101CH:1](C)C3(C)CCN(C(=N)c4cc(F)cc([100NH:0][100C:0](=O)N5CCCC(n6nc(-c7ccc(Oc8ccc(F)cc8F)cc7)c(C(N)=O)c6N)C5)c4)C3=O)ccc2CC1C(=O)NC1CCCc2ccccc21)C(C)(C)C

> <Shape>
0.303

> <Color>
0.110

> <Negative vol penalty>
0.000

$$$$

  -OEChem-04052303043D

 86 95  0     1  0  0  0  0  0999 V2000
  -27.5096  -23.4777   17.2102 C   0  0  0  0  0  0  0  0  0  0  0  0
  -26.4197  -23.7331   18.0362 C   0  0  0  0  0  0  0  0  0  0  0  0
  -28.1773  -14.8058   21.1652 C   0  0  0  0  0  0  0  0  0  0  0  0
  -26.0096  -15.6378   20.4973 C   0  0  0  0  0  0  0  0  0  0  0  0
  -28.7407  -24.0747   17.4780 C   0  0  0  0  0  0  0  0  0  0  0  0
  -26.5605  -24.5849   19.1312 C   0  0  0  0  0  0  0  0  0  0  0  0
  -22.7285  -27.8699   19.5427 C   0  0  0  0  0  0  0  0  0  0  0  0
  -23.1790  -22.4016   26.4992 C   0  0  0  0  0  0  0  0  0  0  0  0
  -27.7484  -13.4996   20.9299 C   0  0  0  0  0  0  0  0  0  0  0  0
  -25.5808  -14.3315   20.2620 C   0  0  0  0  0  0  0  0  0  0  0  0
  -21.5339  -27.3908   20.0783 C   0  0  0  0  0  0  0  0  0  0  0  0
  -24.5054  -11.6957   22.0859 C   0  0  0  0  0  0  0  0  0  0  0  0
  -21.8604  -22.7502   26.7917 C   0  0  0  0  0  0  0  0  0  0  0  0
  -23.2465  -11.3311   22.5630 C   0  0  0  0  0  0  0  0  0  0  0  0
  -22.5645  -22.0104   24.1956 C   0  0  0  0  0  0  0  0  0  0  0  0
  -22.1078  -28.3611   22.2109 C   0  0  0  0  0  0  0  0  0  0  0  0
  -22.5381  -10.8275   20.3086 C   0  0  0  0  0  0  0  0  0  0  0  0
  -27.3078  -15.8750   20.9490 C   0  0  0  0  0  0  0  0  0  0  0  0
  -21.2459  -22.3588   24.4882 C   0  0  0  0  0  0  0  0  0  0  0  0
  -28.3670  -18.0955   20.2745 C   0  0  0  0  0  0  0  0  0  0  0  0
  -28.8943  -24.9419   18.5712 C   0  0  0  0  0  0  0  0  0  0  0  0
  -23.6284  -28.5902   20.3414 C   0  0  0  0  0  0  0  0  0  0  0  0
  -27.7952  -25.1931   19.4146 C   0  0  0  0  0  0  0  0  0  0  0  0
  -23.3121  -28.8506   21.6824 C   0  0  0  0  0  0  0  0  0  0  0  0
  -23.5310  -22.0318   25.2011 C   0  0  0  0  0  0  0  0  0  0  0  0
  -26.4502  -13.2624   20.4782 C   0  0  0  0  0  0  0  0  0  0  0  0
  -21.2247  -27.6339   21.4134 C   0  0  0  0  0  0  0  0  0  0  0  0
  -24.7808  -11.6263   20.7202 C   0  0  0  0  0  0  0  0  0  0  0  0
  -22.2628  -10.8970   21.6743 C   0  0  0  0  0  0  0  0  0  0  0  0
  -20.8939  -22.7288   25.7862 C   0  0  0  0  0  0  0  0  0  0  0  0
  -23.7972  -11.1922   19.8316 C   0  0  0  0  0  0  0  0  0  0  0  0
  -27.7501  -17.2245   21.1924 C   0  0  0  0  0  0  0  0  0  0  0  0
  -28.5879  -19.2473   20.9894 C   0  0  0  0  0  0  0  0  0  0  0  0
  -20.2264  -22.3346   23.4241 C   0  0  0  0  0  0  0  0  0  0  0  0
  -28.7097  -17.8826   18.8987 C   0  0  0  0  0  0  0  0  0  0  0  0
  -26.6271  -28.1489   21.2991 C   0  0  0  0  0  0  0  0  0  0  0  0
  -26.2651  -31.1329   22.5186 C   0  0  0  0  0  0  0  0  0  0  0  0
  -24.1544  -33.5611   23.6571 C   0  0  0  0  0  0  0  0  0  0  0  0
  -25.9506  -21.6441   25.7858 C   0  0  0  0  0  0  0  0  0  0  0  0
  -30.2567  -25.5267   18.8482 C   0  0  0  0  0  0  0  0  0  0  0  0
  -24.9006  -29.1232   19.7415 C   0  0  0  0  0  0  0  0  0  0  0  0
  -24.2349  -29.6361   22.5767 C   0  0  0  0  0  0  0  0  0  0  0  0
  -30.2269  -26.7113   19.8104 C   0  0  0  0  0  0  0  0  0  0  0  0
  -29.3907  -20.7893   25.4517 C   0  0  0  0  0  0  0  0  0  0  0  0
  -29.3525  -26.3951   21.0196 C   0  0  0  0  0  0  0  0  0  0  0  0
  -29.4174  -19.8623   24.2343 C   0  0  0  0  0  0  0  0  0  0  0  0
  -28.1363  -20.5785   26.2977 C   0  0  0  0  0  0  0  0  0  0  0  0
  -26.8957  -19.7358   24.3433 C   0  0  0  0  0  0  0  0  0  0  0  0
  -18.5650  -23.7161   22.1506 C   0  0  0  0  0  0  0  0  0  0  0  0
  -19.6697  -24.7700   23.6479 C   0  0  0  0  0  0  0  0  0  0  0  0
  -27.9021  -26.1308   20.5976 C   0  0  1  0  0  0  0  0  0  0  0  0
  -25.9805  -29.4029   20.7821 C   0  0  1  0  0  0  0  0  0  0  0  0
  -28.1089  -19.9568   23.4253 C   0  0  2  0  0  0  0  0  0  0  0  0
  -18.7753  -25.2191   22.4646 C   0  0  0  0  0  0  0  0  0  0  0  0
  -17.5076  -25.9533   22.8835 C   0  0  0  0  0  0  0  0  0  0  0  0
  -24.1549  -35.8770   24.6234 C   0  0  0  0  0  0  0  0  0  0  0  0
  -27.1698  -30.0084   25.2069 C   0  0  0  0  0  0  0  0  0  0  0  0
  -26.2551  -32.0681   26.2975 C   0  0  0  0  0  0  0  0  0  0  0  0
  -28.1141  -32.2549   24.6447 C   0  0  0  0  0  0  0  0  0  0  0  0
  -22.5783  -34.6315   21.3924 C   0  0  0  0  0  0  0  0  0  0  0  0
  -19.5321  -25.9635   21.3818 C   0  0  0  0  0  0  0  0  0  1  0  0
  -25.7850  -31.6997   23.8329 C   0  0  1  0  0  0  0  0  0  0  0  0
  -24.0697  -35.0458   23.3527 C   0  0  2  0  0  0  0  0  0  0  0  0
  -26.8143  -31.4913   24.9794 C   0  0  0  0  0  0  0  0  0  0  0  0
  -27.5895  -17.7757   22.3984 N   0  0  0  0  0  0  0  0  0  0  0  0
  -28.1088  -19.0055   22.2433 N   0  0  0  0  0  0  0  0  0  0  0  0
  -19.5909  -23.4315   23.1212 N   0  0  0  0  0  0  0  0  0  0  0  0
  -25.4695  -30.1307   21.9454 N   0  0  0  0  0  0  0  0  0  0  0  0
  -26.9361  -20.6866   25.4654 N   0  0  0  0  0  0  0  0  0  0  0  0
  -29.1433  -20.4333   20.6615 N   0  0  0  0  0  0  0  0  0  0  0  0
  -28.4121  -16.6410   18.3205 N   0  0  0  0  0  0  0  0  0  0  0  0
  -24.8703  -21.6766   24.9046 N   0  0  0  0  0  0  0  0  0  0  0  0
  -27.2217  -27.3773   20.3190 N   0  0  0  0  0  0  0  0  0  0  0  0
  -25.4502  -33.0964   23.5771 N   0  0  0  0  0  0  0  0  0  0  0  0
  -19.9722  -21.1945   22.7887 N   0  3  0  0  0  0  0  0  0  0  0  0
  -22.7835  -35.3620   22.6696 N   0  3  0  0  0  0  0  0  0  0  0  0
  -29.2782  -18.7614   18.2073 O   0  0  0  0  0  0  0  0  0  0  0  0
  -26.5905  -27.9007   22.4985 O   0  0  0  0  0  0  0  0  0  0  0  0
  -27.3037  -31.5685   22.0155 O   0  0  0  0  0  0  0  0  0  0  0  0
  -23.1702  -32.8821   23.9413 O   0  0  0  0  0  0  0  0  0  0  0  0
  -26.0700  -22.3994   26.7539 O   0  0  0  0  0  0  0  0  0  0  0  0
  -26.0315  -11.9879   20.2483 O   0  0  0  0  0  0  0  0  0  0  0  0
  -20.0596  -27.1667   21.9389 O   0  0  0  0  0  0  0  0  0  1  0  0
  -21.0543  -10.5454   22.1328 F   0  0  0  0  0  0  0  0  0  0  0  0
  -19.6294  -23.0650   26.0769 F   0  0  0  0  0  0  0  0  0  0  0  0
  -24.0562  -11.1223   18.5187 F   0  0  0  0  0  0  0  0  0  0  0  0
  1  2  1  0  0  0  0
  1  5  2  0  0  0  0
  2  6  2  0  0  0  0
  3  9  2  0  0  0  0
  3 18  1  0  0  0  0
  4 10  1  0  0  0  0
  4 18  2  0  0  0  0
  5 21  1  0  0  0  0
  6 23  1  0  0  0  0
  7 11  2  0  0  0  0
  7 22  1  0  0  0  0
  8 13  2  0  0  0  0
  8 25  1  0  0  0  0
  9 26  1  0  0  0  0
 10 26  2  0  0  0  0
 11 27  1  0  0  0  0
 12 14  2  0  0  0  0
 12 28  1  0  0  0  0
 13 30  1  0  0  0  0
 14 29  1  0  0  0  0
 15 19  1  0  0  0  0
 15 25  2  0  0  0  0
 16 24  1  0  0  0  0
 16 27  2  0  0  0  0
 17 29  2  0  0  0  0
 17 31  1  0  0  0  0
 18 32  1  0  0  0  0
 19 30  2  0  0  0  0
 19 34  1  0  0  0  0
 20 32  1  0  0  0  0
 20 33  2  0  0  0  0
 20 35  1  0  0  0  0
 21 23  2  0  0  0  0
 21 40  1  0  0  0  0
 22 24  2  0  0  0  0
 22 41  1  0  0  0  0
 23 51  1  0  0  0  0
 24 42  1  0  0  0  0
 25 72  1  0  0  0  0
 26 82  1  0  0  0  0
 27 83  1  0  0  0  0
 28 31  2  0  0  0  0
 28 82  1  0  0  0  0
 29 84  1  0  0  0  0
 30 85  1  0  0  0  0
 31 86  1  0  0  0  0
 32 65  2  0  0  0  0
 33 66  1  0  0  0  0
 33 70  1  0  0  0  0
 34 67  1  0  0  0  0
 34 75  2  0  0  0  0
 35 71  1  0  0  0  0
 35 77  2  0  0  0  0
 36 52  1  0  0  0  0
 36 73  1  0  0  0  0
 36 78  2  0  0  0  0
 37 62  1  0  0  0  0
 37 68  1  0  0  0  0
 37 79  2  0  0  0  0
 38 63  1  0  0  0  0
 38 74  1  0  0  0  0
 38 80  2  0  0  0  0
 39 69  1  0  0  0  0
 39 72  1  0  0  0  0
 39 81  2  0  0  0  0
 40 43  1  0  0  0  0
 41 52  1  0  0  0  0
 42 68  1  0  0  0  0
 43 45  1  0  0  0  0
 44 46  1  0  0  0  0
 44 47  1  0  0  0  0
 45 51  1  0  0  0  0
 46 53  1  0  0  0  0
 47 69  1  0  0  0  0
 48 53  1  0  0  0  0
 48 69  1  0  0  0  0
 49 54  1  0  0  0  0
 49 67  1  0  0  0  0
 50 54  1  0  0  0  0
 50 67  1  0  0  0  0
 51 73  1  0  0  0  0
 52 68  1  0  0  0  0
 53 66  1  0  0  0  0
 54 55  1  0  0  0  0
 54 61  1  0  0  0  0
 56 63  1  0  0  0  0
 57 64  1  0  0  0  0
 58 64  1  0  0  0  0
 59 64  1  0  0  0  0
 60 76  1  0  0  0  0
 61 83  1  0  0  0  0
 62 64  1  0  0  0  0
 62 74  1  0  0  0  0
 63 76  1  0  0  0  0
 65 66  1  0  0  0  0
M  CHG  2  75   1  76   1
M  ISO  4  39 100  61 101  72 100  83 101
M  END
> <Batch ID>
0144

> <Smiles>
CNC(C)C(=O)NC(C(=O)N1Cc2cc([101O:1][101CH2:1]C3(C)CN(C(=N)c4cc([100NH:0][100C:0](=O)N5CCCC(n6nc(-c7ccc(Oc8ccc(F)cc8F)cc7)c(C(N)=O)c6N)C5)ccc4F)C3)ccc2CC1C(=O)NC1CCCc2ccccc21)C(C)(C)C

> <Shape>
0.282

> <Color>
0.066

> <Negative vol penalty>
0.000

$$$$

  -OEChem-04052303043D

 89 98  0     1  0  0  0  0  0999 V2000
  -24.0362   -8.0575   21.7502 C   0  0  0  0  0  0  0  0  0  0  0  0
  -24.7189   -9.2545   21.9415 C   0  0  0  0  0  0  0  0  0  0  0  0
  -24.6856  -29.6979   19.8030 C   0  0  0  0  0  0  0  0  0  0  0  0
  -25.1565  -29.1031   22.0968 C   0  0  0  0  0  0  0  0  0  0  0  0
  -29.7555  -19.1337   20.6776 C   0  0  0  0  0  0  0  0  0  0  0  0
  -28.1561  -17.8187   19.4327 C   0  0  0  0  0  0  0  0  0  0  0  0
  -22.7781   -8.0622   21.1493 C   0  0  0  0  0  0  0  0  0  0  0  0
  -24.1442  -10.4569   21.5310 C   0  0  0  0  0  0  0  0  0  0  0  0
  -24.6028  -14.1146   25.0032 C   0  0  0  0  0  0  0  0  0  0  0  0
  -28.7413  -20.0170   21.0476 C   0  0  0  0  0  0  0  0  0  0  0  0
  -27.1419  -18.7019   19.8027 C   0  0  0  0  0  0  0  0  0  0  0  0
  -24.2317  -30.9490   20.2206 C   0  0  0  0  0  0  0  0  0  0  0  0
  -24.7027  -30.3542   22.5144 C   0  0  0  0  0  0  0  0  0  0  0  0
  -25.8409  -14.7480   25.1010 C   0  0  0  0  0  0  0  0  0  0  0  0
  -25.8802  -33.5200   22.6241 C   0  0  0  0  0  0  0  0  0  0  0  0
  -26.6492  -34.2061   23.5639 C   0  0  0  0  0  0  0  0  0  0  0  0
  -24.9910  -16.5959   23.8040 C   0  0  0  0  0  0  0  0  0  0  0  0
  -24.7774  -34.2120   25.0914 C   0  0  0  0  0  0  0  0  0  0  0  0
  -25.1480  -28.7749   20.7411 C   0  0  0  0  0  0  0  0  0  0  0  0
  -29.4629  -18.0346   19.8701 C   0  0  0  0  0  0  0  0  0  0  0  0
  -26.9312  -27.1313   19.9497 C   0  0  0  0  0  0  0  0  0  0  0  0
  -22.1835   -9.2662   20.7401 C   0  0  0  0  0  0  0  0  0  0  0  0
  -23.5511  -14.7130   24.2947 C   0  0  0  0  0  0  0  0  0  0  0  0
  -22.8775  -10.4775   20.9229 C   0  0  0  0  0  0  0  0  0  0  0  0
  -23.7398  -15.9692   23.7009 C   0  0  0  0  0  0  0  0  0  0  0  0
  -27.4345  -19.8011   20.6101 C   0  0  0  0  0  0  0  0  0  0  0  0
  -24.2402  -31.2772   21.5763 C   0  0  0  0  0  0  0  0  0  0  0  0
  -26.0361  -15.9876   24.4989 C   0  0  0  0  0  0  0  0  0  0  0  0
  -24.5596  -33.1799   22.9179 C   0  0  0  0  0  0  0  0  0  0  0  0
  -26.0979  -34.5521   24.7976 C   0  0  0  0  0  0  0  0  0  0  0  0
  -24.0083  -33.5258   24.1516 C   0  0  0  0  0  0  0  0  0  0  0  0
  -25.6164  -27.4822   20.3104 C   0  0  0  0  0  0  0  0  0  0  0  0
  -26.8534  -25.7999   19.6213 C   0  0  0  0  0  0  0  0  0  0  0  0
  -28.1744  -16.3529   23.6244 C   0  0  0  0  0  0  0  0  0  1  0  0
  -30.5344  -17.1013   19.4789 C   0  0  0  0  0  0  0  0  0  0  0  0
  -28.1168  -27.9368   19.9147 C   0  0  0  0  0  0  0  0  0  0  0  0
  -29.3916  -16.9085   23.6199 C   0  0  0  0  0  0  0  0  0  0  0  0
  -30.3891  -16.6118   22.5484 C   0  0  0  0  0  0  0  0  0  0  0  0
  -21.8446  -13.9324   21.7290 C   0  0  0  0  0  0  0  0  0  0  0  0
  -20.1493  -16.5787   22.5326 C   0  0  0  0  0  0  0  0  0  0  0  0
  -20.8720  -19.9153   23.6995 C   0  0  0  0  0  0  0  0  0  0  0  0
  -25.0555  -20.6292   20.6383 C   0  0  0  0  0  0  0  0  0  0  0  0
  -20.8422   -9.2164   20.0522 C   0  0  0  0  0  0  0  0  0  0  0  0
  -22.2135  -14.0290   24.2211 C   0  0  0  0  0  0  0  0  0  0  0  0
  -22.6367  -16.6633   22.9461 C   0  0  0  0  0  0  0  0  0  0  0  0
  -20.1410  -10.5707   19.9859 C   0  0  0  0  0  0  0  0  0  0  0  0
  -31.9252  -14.2078   21.2248 C   0  0  0  0  0  0  0  0  0  0  0  0
  -22.8297  -22.8107   18.9166 C   0  0  0  0  0  0  0  0  0  0  0  0
  -21.1128  -11.6530   19.5265 C   0  0  0  0  0  0  0  0  0  0  0  0
  -30.5031  -14.2503   21.7694 C   0  0  0  0  0  0  0  0  0  0  0  0
  -23.4645  -24.1916   19.0961 C   0  0  0  0  0  0  0  0  0  0  0  0
  -31.8398  -15.0561   19.9618 C   0  0  0  0  0  0  0  0  0  0  0  0
  -23.0002  -21.9420   20.1616 C   0  0  0  0  0  0  0  0  0  0  0  0
  -25.0157  -23.1943   20.8240 C   0  0  0  0  0  0  0  0  0  0  0  0
  -22.2765  -11.8047   20.5136 C   0  0  1  0  0  0  0  0  0  0  0  0
  -30.0276  -15.6591   21.4314 C   0  0  2  0  0  0  0  0  0  0  0  0
  -21.3687  -14.4940   23.0390 C   0  0  1  0  0  0  0  0  0  0  0  0
  -24.9263  -24.0824   19.5723 C   0  0  2  0  0  0  0  0  0  0  0  0
  -19.4891  -21.5004   25.0679 C   0  0  0  0  0  0  0  0  0  0  0  0
  -19.2682  -17.6864   19.8295 C   0  0  0  0  0  0  0  0  0  0  0  0
  -19.3301  -19.9814   20.8282 C   0  0  0  0  0  0  0  0  0  0  0  0
  -17.7602  -18.2694   21.7375 C   0  0  0  0  0  0  0  0  0  0  0  0
  -23.0083  -20.2127   25.7260 C   0  0  0  0  0  0  0  0  0  0  0  0
  -20.2367  -18.0476   22.1954 C   0  0  1  0  0  0  0  0  0  0  0  0
  -20.6072  -20.4698   25.0877 C   0  0  2  0  0  0  0  0  0  0  0  0
  -19.1719  -18.4796   21.1480 C   0  0  0  0  0  0  0  0  0  0  0  0
  -24.7657  -26.4565   20.2197 N   0  0  0  0  0  0  0  0  0  0  0  0
  -25.5476  -25.4481   19.7981 N   0  0  0  0  0  0  0  0  0  0  0  0
  -30.8024  -16.0354   20.2603 N   0  0  0  0  0  0  0  0  0  0  0  0
  -21.3490  -15.9512   22.8969 N   0  0  0  0  0  0  0  0  0  0  0  0
  -24.4106  -21.8811   20.5515 N   0  0  0  0  0  0  0  0  0  0  0  0
  -27.7752  -24.9076   19.2014 N   0  0  0  0  0  0  0  0  0  0  0  0
  -28.0194  -29.2854   20.2836 N   0  0  0  0  0  0  0  0  0  0  0  0
  -26.4042  -20.6983   20.9860 N   0  0  0  0  0  0  0  0  0  0  0  0
  -21.8560  -12.5515   21.6798 N   0  0  0  0  0  0  0  0  0  0  0  0
  -20.1519  -18.7632   23.4639 N   0  0  0  0  0  0  0  0  0  0  0  0
  -31.2188  -17.3239   18.3608 N   0  3  0  0  0  0  0  0  0  0  0  0
  -21.8348  -21.1185   25.6291 N   0  3  0  0  0  0  0  0  0  0  0  0
  -29.2263  -27.4784   19.5509 O   0  0  0  0  0  0  0  0  0  0  0  0
  -31.4986  -17.1456   22.5849 O   0  0  0  0  0  0  0  0  0  0  0  0
  -22.1755  -14.6955   20.8291 O   0  0  0  0  0  0  0  0  0  0  0  0
  -19.0555  -16.0106   22.4817 O   0  0  0  0  0  0  0  0  0  0  0  0
  -21.6379  -20.4526   22.9025 O   0  0  0  0  0  0  0  0  0  0  0  0
  -24.4625  -19.5754   20.3938 O   0  0  0  0  0  0  0  0  0  0  0  0
  -29.8003  -17.7883   24.6032 O   0  0  0  0  0  0  0  0  0  0  0  0
  -23.7976  -32.4979   21.9841 O   0  0  0  0  0  0  0  0  0  0  0  0
  -27.2438  -16.6078   24.5922 O   0  0  0  0  0  0  0  0  0  1  0  0
  -26.8370  -35.2096   25.7006 F   0  0  0  0  0  0  0  0  0  0  0  0
  -22.7406  -33.2008   24.4400 F   0  0  0  0  0  0  0  0  0  0  0  0
  1  2  1  0  0  0  0
  1  7  2  0  0  0  0
  2  8  2  0  0  0  0
  3 12  2  0  0  0  0
  3 19  1  0  0  0  0
  4 13  1  0  0  0  0
  4 19  2  0  0  0  0
  5 10  2  0  0  0  0
  5 20  1  0  0  0  0
  6 11  1  0  0  0  0
  6 20  2  0  0  0  0
  7 22  1  0  0  0  0
  8 24  1  0  0  0  0
  9 14  2  0  0  0  0
  9 23  1  0  0  0  0
 10 26  1  0  0  0  0
 11 26  2  0  0  0  0
 12 27  1  0  0  0  0
 13 27  2  0  0  0  0
 14 28  1  0  0  0  0
 15 16  2  0  0  0  0
 15 29  1  0  0  0  0
 16 30  1  0  0  0  0
 17 25  1  0  0  0  0
 17 28  2  0  0  0  0
 18 30  2  0  0  0  0
 18 31  1  0  0  0  0
 19 32  1  0  0  0  0
 20 35  1  0  0  0  0
 21 32  1  0  0  0  0
 21 33  2  0  0  0  0
 21 36  1  0  0  0  0
 22 24  2  0  0  0  0
 22 43  1  0  0  0  0
 23 25  2  0  0  0  0
 23 44  1  0  0  0  0
 24 55  1  0  0  0  0
 25 45  1  0  0  0  0
 26 74  1  0  0  0  0
 27 86  1  0  0  0  0
 28 87  1  0  0  0  0
 29 31  2  0  0  0  0
 29 86  1  0  0  0  0
 30 88  1  0  0  0  0
 31 89  1  0  0  0  0
 32 67  2  0  0  0  0
 33 68  1  0  0  0  0
 33 72  1  0  0  0  0
 34 37  2  0  0  0  0
 34 87  1  0  0  0  0
 35 69  1  0  0  0  0
 35 77  2  0  0  0  0
 36 73  1  0  0  0  0
 36 79  2  0  0  0  0
 37 38  1  0  0  0  0
 37 85  1  0  0  0  0
 38 56  1  0  0  0  0
 38 80  2  0  0  0  0
 39 57  1  0  0  0  0
 39 75  1  0  0  0  0
 39 81  2  0  0  0  0
 40 64  1  0  0  0  0
 40 70  1  0  0  0  0
 40 82  2  0  0  0  0
 41 65  1  0  0  0  0
 41 76  1  0  0  0  0
 41 83  2  0  0  0  0
 42 71  1  0  0  0  0
 42 74  1  0  0  0  0
 42 84  2  0  0  0  0
 43 46  1  0  0  0  0
 44 57  1  0  0  0  0
 45 70  1  0  0  0  0
 46 49  1  0  0  0  0
 47 50  1  0  0  0  0
 47 52  1  0  0  0  0
 48 51  1  0  0  0  0
 48 53  1  0  0  0  0
 49 55  1  0  0  0  0
 50 56  1  0  0  0  0
 51 58  1  0  0  0  0
 52 69  1  0  0  0  0
 53 71  1  0  0  0  0
 54 58  1  0  0  0  0
 54 71  1  0  0  0  0
 55 75  1  0  0  0  0
 56 69  1  0  0  0  0
 57 70  1  0  0  0  0
 58 68  1  0  0  0  0
 59 65  1  0  0  0  0
 60 66  1  0  0  0  0
 61 66  1  0  0  0  0
 62 66  1  0  0  0  0
 63 78  1  0  0  0  0
 64 66  1  0  0  0  0
 64 76  1  0  0  0  0
 65 78  1  0  0  0  0
 67 68  1  0  0  0  0
M  CHG  2  77   1  78   1
M  ISO  4  34 101  42 100  74 100  87 101
M  END
> <Batch ID>
0144

> <Smiles>
CNC(C)C(=O)NC(C(=O)N1Cc2cc([101O:1][101CH2:1]C(=O)C(=O)C3CCCN3C(=N)c3ccc([100NH:0][100C:0](=O)N4CCCC(n5nc(-c6ccc(Oc7ccc(F)cc7F)cc6)c(C(N)=O)c5N)C4)cc3)ccc2CC1C(=O)NC1CCCc2ccccc21)C(C)(C)C

> <Shape>
0.218

> <Color>
0.071

> <Negative vol penalty>
0.000

$$$$

  -OEChem-04052303043D

 90 98  0     1  0  0  0  0  0999 V2000
  -22.4434  -11.8495   18.2788 C   0  0  0  0  0  0  0  0  0  0  0  0
  -22.1184  -13.1649   18.5939 C   0  0  0  0  0  0  0  0  0  0  0  0
  -18.2669  -28.8027   24.1681 C   0  0  0  0  0  0  0  0  0  0  0  0
  -29.9332  -27.6050   19.2050 C   0  0  0  0  0  0  0  0  0  0  0  0
  -29.3048  -26.3045   21.1416 C   0  0  0  0  0  0  0  0  0  0  0  0
  -23.5650  -11.2530   18.8533 C   0  0  0  0  0  0  0  0  0  0  0  0
  -22.9143  -13.8844   19.4846 C   0  0  0  0  0  0  0  0  0  0  0  0
  -24.1605  -19.8774   19.2940 C   0  0  0  0  0  0  0  0  0  0  0  0
  -19.4184  -29.3562   23.6084 C   0  0  0  0  0  0  0  0  0  0  0  0
  -17.8259  -27.5454   23.7553 C   0  0  0  0  0  0  0  0  0  0  0  0
  -31.2676  -27.2477   19.3979 C   0  0  0  0  0  0  0  0  0  0  0  0
  -30.6392  -25.9470   21.3346 C   0  0  0  0  0  0  0  0  0  0  0  0
  -23.6195  -20.9699   19.9704 C   0  0  0  0  0  0  0  0  0  0  0  0
  -33.9263  -24.9834   22.5496 C   0  0  0  0  0  0  0  0  0  0  0  0
  -34.4332  -25.0464   23.8475 C   0  0  0  0  0  0  0  0  0  0  0  0
  -25.3978  -20.8369   21.5950 C   0  0  0  0  0  0  0  0  0  0  0  0
  -19.6878  -27.3953   22.2231 C   0  0  0  0  0  0  0  0  0  0  0  0
  -33.9397  -27.4103   23.9255 C   0  0  0  0  0  0  0  0  0  0  0  0
  -28.9518  -27.1335   20.0769 C   0  0  0  0  0  0  0  0  0  0  0  0
  -26.6126  -26.8200   19.1084 C   0  0  0  0  0  0  0  0  0  0  0  0
  -24.3805  -11.9686   19.7441 C   0  0  0  0  0  0  0  0  0  0  0  0
  -25.3200  -19.2486   19.7700 C   0  0  0  0  0  0  0  0  0  0  0  0
  -24.0471  -13.2964   20.0727 C   0  0  0  0  0  0  0  0  0  0  0  0
  -25.9529  -19.7382   20.9214 C   0  0  0  0  0  0  0  0  0  0  0  0
  -20.1289  -28.6525   22.6359 C   0  0  0  0  0  0  0  0  0  0  0  0
  -18.5363  -26.8417   22.7828 C   0  0  0  0  0  0  0  0  0  0  0  0
  -31.6206  -26.4187   20.4627 C   0  0  0  0  0  0  0  0  0  0  0  0
  -24.2365  -21.4480   21.1227 C   0  0  0  0  0  0  0  0  0  0  0  0
  -33.4262  -26.1339   21.9395 C   0  0  0  0  0  0  0  0  0  0  0  0
  -34.4399  -26.2598   24.5355 C   0  0  0  0  0  0  0  0  0  0  0  0
  -33.4329  -27.3472   22.6275 C   0  0  0  0  0  0  0  0  0  0  0  0
  -27.5732  -27.5028   19.8784 C   0  0  0  0  0  0  0  0  0  0  0  0
  -25.4695  -27.5696   19.2420 C   0  0  0  0  0  0  0  0  0  0  0  0
  -19.1106  -22.1554   22.4966 C   0  0  0  0  0  0  0  0  0  0  0  0
  -26.7420  -25.6157   18.3411 C   0  0  0  0  0  0  0  0  0  0  0  0
  -18.1770  -22.7692   23.2402 C   0  0  0  0  0  0  0  0  0  0  0  0
  -20.3153  -21.4830   23.0678 C   0  0  0  0  0  0  0  0  0  0  0  0
  -26.0201  -16.3304   20.8178 C   0  0  0  0  0  0  0  0  0  0  0  0
  -29.0483  -17.4927   20.8537 C   0  0  0  0  0  0  0  0  0  0  0  0
  -31.1071  -20.2093   21.0217 C   0  0  0  0  0  0  0  0  0  0  0  0
  -21.8717  -30.4513   22.3651 C   0  0  0  0  0  0  0  0  0  0  0  0
  -25.5559  -11.2661   20.3764 C   0  0  0  0  0  0  0  0  0  0  0  0
  -25.9060  -18.0878   19.0138 C   0  0  0  0  0  0  0  0  0  0  0  0
  -27.2110  -19.1112   21.4622 C   0  0  0  0  0  0  0  0  0  0  0  0
  -26.5594  -12.2183   21.0218 C   0  0  0  0  0  0  0  0  0  0  0  0
  -24.7643  -32.1783   21.2130 C   0  0  0  0  0  0  0  0  0  0  0  0
  -25.8374  -13.2585   21.8724 C   0  0  0  0  0  0  0  0  0  0  0  0
  -25.6740  -31.0597   20.6998 C   0  0  0  0  0  0  0  0  0  0  0  0
  -23.9874  -31.7515   22.4572 C   0  0  0  0  0  0  0  0  0  0  0  0
  -24.1424  -29.3808   21.8055 C   0  0  0  0  0  0  0  0  0  0  0  0
  -24.8998  -14.1175   21.0154 C   0  0  1  0  0  0  0  0  0  0  0  0
  -26.8009  -17.2033   19.8766 C   0  0  1  0  0  0  0  0  0  0  0  0
  -24.8969  -29.7414   20.5154 C   0  0  2  0  0  0  0  0  0  0  0  0
  -33.5353  -20.8409   21.0675 C   0  0  0  0  0  0  0  0  0  0  0  0
  -15.6813  -25.5751   22.2596 C   0  0  0  0  0  0  0  0  0  0  0  0
  -29.2235  -16.5984   23.7657 C   0  0  0  0  0  0  0  0  0  0  0  0
  -31.2350  -18.0667   24.0229 C   0  0  0  0  0  0  0  0  0  0  0  0
  -31.2818  -16.1607   22.4143 C   0  0  0  0  0  0  0  0  0  0  0  0
  -23.4416  -21.3473   23.8556 C   0  0  0  0  0  0  0  0  0  0  0  0
  -22.3338  -23.5532   23.4457 C   0  0  0  0  0  0  0  0  0  0  0  0
  -30.8653  -21.7793   18.5246 C   0  0  0  0  0  0  0  0  0  0  0  0
  -16.9720  -23.4395   22.6234 C   0  0  0  0  0  0  0  0  0  0  0  0
  -21.5617  -21.4660   22.1974 C   0  0  0  0  0  0  0  0  0  0  0  0
  -29.9061  -18.2103   21.8678 C   0  0  1  0  0  0  0  0  0  0  0  0
  -32.3129  -20.6121   20.1922 C   0  0  2  0  0  0  0  0  0  0  0  0
  -16.9148  -24.9492   22.9042 C   0  0  1  0  0  0  0  0  0  0  0  0
  -30.3868  -17.2698   23.0088 C   0  0  0  0  0  0  0  0  0  0  0  0
  -22.7503  -22.2269   22.8081 C   0  0  0  0  0  0  0  0  0  1  0  0
  -27.0831  -28.6018   20.4580 N   0  0  0  0  0  0  0  0  0  0  0  0
  -25.8021  -28.6153   20.0520 N   0  0  0  0  0  0  0  0  0  0  0  0
  -27.7418  -17.9749   20.6911 N   0  0  0  0  0  0  0  0  0  0  0  0
  -23.2729  -30.4978   22.2068 N   0  0  0  0  0  0  0  0  0  0  0  0
  -24.2225  -27.4298   18.7443 N   0  0  0  0  0  0  0  0  0  0  0  0
  -27.9869  -24.9725   18.3122 N   0  0  0  0  0  0  0  0  0  0  0  0
  -21.2985  -29.2154   22.0676 N   0  0  0  0  0  0  0  0  0  0  0  0
  -18.0986  -25.5958   22.3735 N   0  0  0  0  0  0  0  0  0  0  0  0
  -25.6542  -15.1107   20.2813 N   0  0  0  0  0  0  0  0  0  0  0  0
  -30.9870  -18.8389   21.1163 N   0  0  0  0  0  0  0  0  0  0  0  0
  -32.0297  -21.8688   19.4428 N   0  3  0  0  0  0  0  0  0  0  0  0
  -25.7865  -25.1336   17.6869 O   0  0  0  0  0  0  0  0  0  0  0  0
  -20.3162  -20.9738   24.1861 O   0  0  0  0  0  0  0  0  0  0  0  0
  -25.7695  -16.7330   21.9478 O   0  0  0  0  0  0  0  0  0  0  0  0
  -29.5223  -16.5439   20.2238 O   0  0  0  0  0  0  0  0  0  0  0  0
  -30.3498  -21.0283   21.5376 O   0  0  0  0  0  0  0  0  0  0  0  0
  -21.2244  -31.4430   22.7110 O   0  0  0  0  0  0  0  0  0  0  0  0
  -18.2456  -22.8085   24.6189 O   0  0  0  0  0  0  0  0  0  0  0  0
  -32.9226  -26.0695   20.6512 O   0  0  0  0  0  0  0  0  0  0  0  0
  -23.7077  -22.5189   21.7884 O   0  0  0  0  0  0  0  0  0  1  0  0
  -34.9253  -26.3199   25.7825 F   0  0  0  0  0  0  0  0  0  0  0  0
  -32.9527  -28.4555   22.0471 F   0  0  0  0  0  0  0  0  0  0  0  0
  1  2  1  0  0  0  0
  1  6  2  0  0  0  0
  2  7  2  0  0  0  0
  3  9  1  0  0  0  0
  3 10  2  0  0  0  0
  4 11  2  0  0  0  0
  4 19  1  0  0  0  0
  5 12  1  0  0  0  0
  5 19  2  0  0  0  0
  6 21  1  0  0  0  0
  7 23  1  0  0  0  0
  8 13  2  0  0  0  0
  8 22  1  0  0  0  0
  9 25  2  0  0  0  0
 10 26  1  0  0  0  0
 11 27  1  0  0  0  0
 12 27  2  0  0  0  0
 13 28  1  0  0  0  0
 14 15  2  0  0  0  0
 14 29  1  0  0  0  0
 15 30  1  0  0  0  0
 16 24  1  0  0  0  0
 16 28  2  0  0  0  0
 17 25  1  0  0  0  0
 17 26  2  0  0  0  0
 18 30  2  0  0  0  0
 18 31  1  0  0  0  0
 19 32  1  0  0  0  0
 20 32  1  0  0  0  0
 20 33  2  0  0  0  0
 20 35  1  0  0  0  0
 21 23  2  0  0  0  0
 21 42  1  0  0  0  0
 22 24  2  0  0  0  0
 22 43  1  0  0  0  0
 23 51  1  0  0  0  0
 24 44  1  0  0  0  0
 25 75  1  0  0  0  0
 26 76  1  0  0  0  0
 27 87  1  0  0  0  0
 28 88  1  0  0  0  0
 29 31  2  0  0  0  0
 29 87  1  0  0  0  0
 30 89  1  0  0  0  0
 31 90  1  0  0  0  0
 32 69  2  0  0  0  0
 33 70  1  0  0  0  0
 33 73  1  0  0  0  0
 34 36  2  0  0  0  0
 34 37  1  0  0  0  0
 35 74  1  0  0  0  0
 35 80  2  0  0  0  0
 36 62  1  0  0  0  0
 36 86  1  0  0  0  0
 37 63  1  0  0  0  0
 37 81  2  0  0  0  0
 38 52  1  0  0  0  0
 38 77  1  0  0  0  0
 38 82  2  0  0  0  0
 39 64  1  0  0  0  0
 39 71  1  0  0  0  0
 39 83  2  0  0  0  0
 40 65  1  0  0  0  0
 40 78  1  0  0  0  0
 40 84  2  0  0  0  0
 41 72  1  0  0  0  0
 41 75  1  0  0  0  0
 41 85  2  0  0  0  0
 42 45  1  0  0  0  0
 43 52  1  0  0  0  0
 44 71  1  0  0  0  0
 45 47  1  0  0  0  0
 46 48  1  0  0  0  0
 46 49  1  0  0  0  0
 47 51  1  0  0  0  0
 48 53  1  0  0  0  0
 49 72  1  0  0  0  0
 50 53  1  0  0  0  0
 50 72  1  0  0  0  0
 51 77  1  0  0  0  0
 52 71  1  0  0  0  0
 53 70  1  0  0  0  0
 54 65  1  0  0  0  0
 55 66  1  0  0  0  0
 56 67  1  0  0  0  0
 57 67  1  0  0  0  0
 58 67  1  0  0  0  0
 59 68  1  0  0  0  0
 60 68  1  0  0  0  0
 61 79  1  0  0  0  0
 62 66  1  0  0  0  0
 63 68  1  0  0  0  0
 64 67  1  0  0  0  0
 64 78  1  0  0  0  0
 65 79  1  0  0  0  0
 66 76  1  0  0  0  0
 68 88  1  0  0  0  0
 69 70  1  0  0  0  0
M  CHG  1  79   1
M  ISO  4  41 100  68 101  75 100  88 101
M  END
> <Batch ID>
0144

> <Smiles>
CNC(C)C(=O)NC(C(=O)N1Cc2cc([101O:1][101C:1](C)(C)CC(=O)CC(=O)CC(C)Nc3cccc([100NH:0][100C:0](=O)N4CCCC(n5nc(-c6ccc(Oc7ccc(F)cc7F)cc6)c(C(N)=O)c5N)C4)c3)ccc2CC1C(=O)NC1CCCc2ccccc21)C(C)(C)C

> <Shape>
0.234

> <Color>
0.085

> <Negative vol penalty>
0.000

$$$$

  -OEChem-04052303043D

 88 96  0     1  0  0  0  0  0999 V2000
  -19.9854   -8.9867   22.3212 C   0  0  0  0  0  0  0  0  0  0  0  0
  -20.8196   -9.3191   21.2587 C   0  0  0  0  0  0  0  0  0  0  0  0
  -25.2737  -30.3899   21.0812 C   0  0  0  0  0  0  0  0  0  0  0  0
  -24.8061  -28.8182   22.8555 C   0  0  0  0  0  0  0  0  0  0  0  0
  -19.5081   -9.9846   23.1699 C   0  0  0  0  0  0  0  0  0  0  0  0
  -21.1763  -10.6499   21.0436 C   0  0  0  0  0  0  0  0  0  0  0  0
  -28.0872  -12.6821   21.0346 C   0  0  0  0  0  0  0  0  0  0  0  0
  -24.5939  -31.3850   21.7834 C   0  0  0  0  0  0  0  0  0  0  0  0
  -24.1263  -29.8134   23.5578 C   0  0  0  0  0  0  0  0  0  0  0  0
  -29.3948  -13.1127   20.8086 C   0  0  0  0  0  0  0  0  0  0  0  0
  -25.2022  -33.4547   24.3871 C   0  0  0  0  0  0  0  0  0  0  0  0
  -25.7999  -34.7122   24.4714 C   0  0  0  0  0  0  0  0  0  0  0  0
  -28.9448  -18.5381   18.5073 C   0  0  0  0  0  0  0  0  0  0  0  0
  -27.8749  -19.3328   18.0310 C   0  0  0  0  0  0  0  0  0  0  0  0
  -28.6072  -15.3787   20.5036 C   0  0  0  0  0  0  0  0  0  0  0  0
  -23.8918  -35.6935   23.3608 C   0  0  0  0  0  0  0  0  0  0  0  0
  -25.3798  -29.1065   21.6172 C   0  0  0  0  0  0  0  0  0  0  0  0
  -27.4511  -27.7632   20.9745 C   0  0  0  0  0  0  0  0  0  0  0  0
  -19.8668  -11.3271   22.9709 C   0  0  0  0  0  0  0  0  0  0  0  0
  -27.0352  -13.6020   21.0112 C   0  0  0  0  0  0  0  0  0  0  0  0
  -20.7022  -11.6669   21.8896 C   0  0  0  0  0  0  0  0  0  0  0  0
  -27.2969  -14.9554   20.7416 C   0  0  0  0  0  0  0  0  0  0  0  0
  -24.0202  -31.0968   23.0217 C   0  0  0  0  0  0  0  0  0  0  0  0
  -29.6540  -14.4576   20.5435 C   0  0  0  0  0  0  0  0  0  0  0  0
  -23.9493  -33.3166   23.7896 C   0  0  0  0  0  0  0  0  0  0  0  0
  -25.1447  -35.8316   23.9582 C   0  0  0  0  0  0  0  0  0  0  0  0
  -23.2941  -34.4360   23.2764 C   0  0  0  0  0  0  0  0  0  0  0  0
  -26.0815  -28.0779   20.8920 C   0  0  0  0  0  0  0  0  0  0  0  0
  -27.6174  -26.7206   20.0960 C   0  0  0  0  0  0  0  0  0  0  0  0
  -29.5234  -19.2507   19.5317 C   0  0  0  0  0  0  0  0  0  0  0  0
  -27.8757  -20.4743   18.7985 C   0  0  0  0  0  0  0  0  0  0  0  0
  -28.4810  -28.3600   21.7739 C   0  0  0  0  0  0  0  0  0  0  0  0
  -23.3495  -14.1949   21.3854 C   0  0  0  0  0  0  0  0  0  0  0  0
  -31.4971  -16.7911   22.7406 C   0  0  0  0  0  0  0  0  0  0  0  0
  -24.7730  -16.5494   22.7418 C   0  0  0  0  0  0  0  0  0  0  0  0
  -31.1402  -19.7505   21.3909 C   0  0  0  0  0  0  0  0  0  0  0  0
  -26.5995  -18.1887   24.7115 C   0  0  0  0  0  0  0  0  0  0  0  0
  -25.9632  -21.8652   17.9301 C   0  0  0  0  0  0  0  0  0  0  0  0
  -19.2879  -12.3766   23.8863 C   0  0  0  0  0  0  0  0  0  0  0  0
  -25.6041  -13.1727   21.1882 C   0  0  0  0  0  0  0  0  0  0  0  0
  -26.1300  -15.9034   20.6920 C   0  0  0  0  0  0  0  0  0  0  0  0
  -20.0150  -13.7168   23.8132 C   0  0  0  0  0  0  0  0  0  0  0  0
  -24.4799  -24.8197   16.6083 C   0  0  0  0  0  0  0  0  0  0  0  0
  -20.2470  -14.1198   22.3604 C   0  0  0  0  0  0  0  0  0  0  0  0
  -24.8770  -25.9049   17.6117 C   0  0  0  0  0  0  0  0  0  0  0  0
  -24.1904  -23.4879   17.2982 C   0  0  0  0  0  0  0  0  0  0  0  0
  -25.6540  -24.0878   19.1870 C   0  0  0  0  0  0  0  0  0  0  0  0
  -21.1315  -13.0961   21.6385 C   0  0  1  0  0  0  0  0  0  0  0  0
  -24.7481  -14.2162   21.9283 C   0  0  1  0  0  0  0  0  0  0  0  0
  -26.0182  -25.4305   18.5326 C   0  0  2  0  0  0  0  0  0  0  0  0
  -27.1960  -20.2028   26.0844 C   0  0  0  0  0  0  0  0  0  0  0  0
  -32.9600  -13.7210   20.8947 C   0  0  0  0  0  0  0  0  0  0  0  0
  -30.8430  -18.7993   24.1151 C   0  0  0  0  0  0  0  0  0  0  0  0
  -33.1941  -18.0088   24.1654 C   0  0  0  0  0  0  0  0  0  0  0  0
  -24.2455  -18.2624   20.2737 C   0  0  0  0  0  0  0  0  0  0  0  0
  -25.0401  -20.2507   21.5712 C   0  0  0  0  0  0  0  0  0  0  0  0
  -23.0248  -18.9921   22.3309 C   0  0  0  0  0  0  0  0  0  0  0  0
  -26.6450  -16.6122   27.2158 C   0  0  0  0  0  0  0  0  0  0  0  0
  -32.4495  -16.0035   21.8410 C   0  0  0  0  0  0  0  0  0  0  0  0
  -32.3345  -19.0993   22.0776 C   0  0  0  0  0  0  0  0  0  0  0  0
  -25.3123  -17.9507   22.6041 C   0  0  1  0  0  0  0  0  0  0  0  0
  -26.5304  -18.8354   26.0831 C   0  0  2  0  0  0  0  0  0  0  0  0
  -31.8683  -14.6613   21.3886 C   0  0  1  0  0  0  0  0  0  1  0  0
  -31.9609  -18.1738   23.2572 C   0  0  0  0  0  0  0  0  0  0  0  0
  -24.4224  -18.8412   21.6917 C   0  0  0  0  0  0  0  0  0  0  0  0
  -25.4244  -27.2985   20.0291 N   0  0  0  0  0  0  0  0  0  0  0  0
  -26.3853  -26.4837   19.5612 N   0  0  0  0  0  0  0  0  0  0  0  0
  -25.1987  -15.6118   21.7931 N   0  0  0  0  0  0  0  0  0  0  0  0
  -25.3167  -23.0998   18.1502 N   0  0  0  0  0  0  0  0  0  0  0  0
  -28.6959  -25.9927   19.7364 N   0  0  0  0  0  0  0  0  0  0  0  0
  -28.1376  -29.4212   22.6224 N   0  0  0  0  0  0  0  0  0  0  0  0
  -30.6241  -18.9597   20.3726 N   0  0  0  0  0  0  0  0  0  0  0  0
  -27.0407  -21.6189   18.7803 N   0  0  0  0  0  0  0  0  0  0  0  0
  -22.5195  -13.2800   22.0047 N   0  0  0  0  0  0  0  0  0  0  0  0
  -25.4750  -18.4607   23.9613 N   0  0  0  0  0  0  0  0  0  0  0  0
  -27.2130  -17.9796   27.0943 N   0  3  0  0  0  0  0  0  0  0  0  0
  -29.6737  -27.9745   21.7246 O   0  0  0  0  0  0  0  0  0  0  0  0
  -23.0441  -14.9533   20.4726 O   0  0  0  0  0  0  0  0  0  0  0  0
  -30.3830  -16.3467   23.0282 O   0  0  0  0  0  0  0  0  0  0  0  0
  -23.9909  -16.2918   23.6612 O   0  0  0  0  0  0  0  0  0  0  0  0
  -30.7394  -20.8522   21.7574 O   0  0  0  0  0  0  0  0  0  0  0  0
  -27.5571  -17.5131   24.3410 O   0  0  0  0  0  0  0  0  0  0  0  0
  -25.6055  -21.0960   17.0343 O   0  0  0  0  0  0  0  0  0  0  0  0
  -28.8775  -20.4321   19.7156 O   0  0  0  0  0  0  0  0  0  0  0  0
  -23.3569  -32.0676   23.7074 O   0  0  0  0  0  0  0  0  0  0  0  0
  -30.9408  -14.8743   20.3270 O   0  0  0  0  0  0  0  0  0  1  0  0
  -25.7181  -37.0393   24.0406 F   0  0  0  0  0  0  0  0  0  0  0  0
  -22.0899  -34.3097   22.7023 F   0  0  0  0  0  0  0  0  0  0  0  0
  1  2  1  0  0  0  0
  1  5  2  0  0  0  0
  2  6  2  0  0  0  0
  3  8  2  0  0  0  0
  3 17  1  0  0  0  0
  4  9  1  0  0  0  0
  4 17  2  0  0  0  0
  5 19  1  0  0  0  0
  6 21  1  0  0  0  0
  7 10  2  0  0  0  0
  7 20  1  0  0  0  0
  8 23  1  0  0  0  0
  9 23  2  0  0  0  0
 10 24  1  0  0  0  0
 11 12  2  0  0  0  0
 11 25  1  0  0  0  0
 12 26  1  0  0  0  0
 13 14  1  0  0  0  0
 13 30  2  0  0  0  0
 14 31  2  0  0  0  0
 15 22  1  0  0  0  0
 15 24  2  0  0  0  0
 16 26  2  0  0  0  0
 16 27  1  0  0  0  0
 17 28  1  0  0  0  0
 18 28  1  0  0  0  0
 18 29  2  0  0  0  0
 18 32  1  0  0  0  0
 19 21  2  0  0  0  0
 19 39  1  0  0  0  0
 20 22  2  0  0  0  0
 20 40  1  0  0  0  0
 21 48  1  0  0  0  0
 22 41  1  0  0  0  0
 23 85  1  0  0  0  0
 24 86  1  0  0  0  0
 25 27  2  0  0  0  0
 25 85  1  0  0  0  0
 26 87  1  0  0  0  0
 27 88  1  0  0  0  0
 28 66  2  0  0  0  0
 29 67  1  0  0  0  0
 29 70  1  0  0  0  0
 30 72  1  0  0  0  0
 30 84  1  0  0  0  0
 31 73  1  0  0  0  0
 31 84  1  0  0  0  0
 32 71  1  0  0  0  0
 32 77  2  0  0  0  0
 33 49  1  0  0  0  0
 33 74  1  0  0  0  0
 33 78  2  0  0  0  0
 34 59  1  0  0  0  0
 34 64  1  0  0  0  0
 34 79  2  0  0  0  0
 35 61  1  0  0  0  0
 35 68  1  0  0  0  0
 35 80  2  0  0  0  0
 36 60  1  0  0  0  0
 36 72  1  0  0  0  0
 36 81  2  0  0  0  0
 37 62  1  0  0  0  0
 37 75  1  0  0  0  0
 37 82  2  0  0  0  0
 38 69  1  0  0  0  0
 38 73  1  0  0  0  0
 38 83  2  0  0  0  0
 39 42  1  0  0  0  0
 40 49  1  0  0  0  0
 41 68  1  0  0  0  0
 42 44  1  0  0  0  0
 43 45  1  0  0  0  0
 43 46  1  0  0  0  0
 44 48  1  0  0  0  0
 45 50  1  0  0  0  0
 46 69  1  0  0  0  0
 47 50  1  0  0  0  0
 47 69  1  0  0  0  0
 48 74  1  0  0  0  0
 49 68  1  0  0  0  0
 50 67  1  0  0  0  0
 51 62  1  0  0  0  0
 52 63  1  0  0  0  0
 53 64  1  0  0  0  0
 54 64  1  0  0  0  0
 55 65  1  0  0  0  0
 56 65  1  0  0  0  0
 57 65  1  0  0  0  0
 58 76  1  0  0  0  0
 59 63  1  0  0  0  0
 60 64  1  0  0  0  0
 61 65  1  0  0  0  0
 61 75  1  0  0  0  0
 62 76  1  0  0  0  0
 63 86  1  0  0  0  0
 66 67  1  0  0  0  0
M  CHG  1  76   1
M  ISO  4  38 100  63 101  73 100  86 101
M  END
> <Batch ID>
0144

> <Smiles>
CNC(C)C(=O)NC(C(=O)N1Cc2cc([101O:1][101CH:1](C)CC(=O)C(C)(C)CC(=O)Nc3ccc([100NH:0][100C:0](=O)N4CCCC(n5nc(-c6ccc(Oc7ccc(F)cc7F)cc6)c(C(N)=O)c5N)C4)o3)ccc2CC1C(=O)NC1CCCc2ccccc21)C(C)(C)C

> <Shape>
0.235

> <Color>
0.079

> <Negative vol penalty>
0.000

$$$$

  -OEChem-04052303043D

 86 94  0     1  0  0  0  0  0999 V2000
  -19.6198  -19.3468   17.9357 C   0  0  0  0  0  0  0  0  0  0  0  0
  -20.8141  -19.5358   18.6236 C   0  0  0  0  0  0  0  0  0  0  0  0
  -24.6038   -9.2362   21.2225 C   0  0  0  0  0  0  0  0  0  0  0  0
  -24.9654  -10.2125   23.4026 C   0  0  0  0  0  0  0  0  0  0  0  0
  -19.0195  -20.4184   17.2760 C   0  0  0  0  0  0  0  0  0  0  0  0
  -21.4095  -20.7964   18.6514 C   0  0  0  0  0  0  0  0  0  0  0  0
  -24.5636  -23.2772   23.2777 C   0  0  0  0  0  0  0  0  0  0  0  0
  -24.3902   -7.9917   21.8152 C   0  0  0  0  0  0  0  0  0  0  0  0
  -24.7518   -8.9681   23.9954 C   0  0  0  0  0  0  0  0  0  0  0  0
  -25.9306  -23.3859   23.5291 C   0  0  0  0  0  0  0  0  0  0  0  0
  -21.8857   -6.4028   23.4387 C   0  0  0  0  0  0  0  0  0  0  0  0
  -20.8015   -5.6486   22.9902 C   0  0  0  0  0  0  0  0  0  0  0  0
  -25.9215  -25.6057   22.5847 C   0  0  0  0  0  0  0  0  0  0  0  0
  -28.9928  -20.1285   20.5094 C   0  0  0  0  0  0  0  0  0  0  0  0
  -22.3062   -3.8766   22.3322 C   0  0  0  0  0  0  0  0  0  0  0  0
  -26.9846  -19.8325   21.4346 C   0  0  0  0  0  0  0  0  0  0  0  0
  -24.8914  -10.3466   22.0162 C   0  0  0  0  0  0  0  0  0  0  0  0
  -24.1472  -12.6175   21.1236 C   0  0  0  0  0  0  0  0  0  0  0  0
  -19.6028  -21.6950   17.3038 C   0  0  0  0  0  0  0  0  0  0  0  0
  -23.8663  -24.3294   22.6670 C   0  0  0  0  0  0  0  0  0  0  0  0
  -20.8172  -21.8859   17.9903 C   0  0  0  0  0  0  0  0  0  0  0  0
  -24.5452  -25.5088   22.3291 C   0  0  0  0  0  0  0  0  0  0  0  0
  -28.0697  -19.1462   20.9410 C   0  0  0  0  0  0  0  0  0  0  0  0
  -24.4642   -7.8577   23.2016 C   0  0  0  0  0  0  0  0  0  0  0  0
  -26.6104  -24.5492   23.1799 C   0  0  0  0  0  0  0  0  0  0  0  0
  -23.1803   -5.8939   23.3339 C   0  0  0  0  0  0  0  0  0  0  0  0
  -21.0117   -4.3856   22.4370 C   0  0  0  0  0  0  0  0  0  0  0  0
  -23.3905   -4.6308   22.7807 C   0  0  0  0  0  0  0  0  0  0  0  0
  -25.1127  -11.6322   21.4045 C   0  0  0  0  0  0  0  0  0  0  0  0
  -24.8589  -13.6414   20.5479 C   0  0  0  0  0  0  0  0  0  0  0  0
  -28.4059  -21.3449   20.7698 C   0  0  0  0  0  0  0  0  0  0  0  0
  -22.7334  -12.6080   21.3618 C   0  0  0  0  0  0  0  0  0  0  0  0
  -22.2475  -24.6707   19.9529 C   0  0  0  0  0  0  0  0  0  0  0  0
  -30.1344  -24.9718   22.4428 C   0  0  0  0  0  0  0  0  0  0  0  0
  -21.5353  -27.5801   21.1982 C   0  0  0  0  0  0  0  0  0  0  0  0
  -30.0603  -23.0741   19.9957 C   0  0  0  0  0  0  0  0  0  0  0  0
  -22.3811  -30.1024   23.3358 C   0  0  0  0  0  0  0  0  0  0  0  0
  -29.2895  -17.0104   20.3965 C   0  0  0  0  0  0  0  0  0  0  0  0
  -18.9415  -22.8122   16.5362 C   0  0  0  0  0  0  0  0  0  0  0  0
  -22.3865  -24.2069   22.4270 C   0  0  0  0  0  0  0  0  0  0  0  0
  -23.8386  -26.6752   21.6898 C   0  0  0  0  0  0  0  0  0  0  0  0
  -19.4422  -24.2000   16.9278 C   0  0  0  0  0  0  0  0  0  0  0  0
  -29.6378  -13.8044   18.8873 C   0  0  0  0  0  0  0  0  0  0  0  0
  -20.9659  -24.2178   16.9974 C   0  0  0  0  0  0  0  0  0  0  0  0
  -28.4122  -13.0345   19.3845 C   0  0  0  0  0  0  0  0  0  0  0  0
  -30.1951  -14.7378   19.9606 C   0  0  0  0  0  0  0  0  0  0  0  0
  -27.9903  -14.8887   21.0492 C   0  0  0  0  0  0  0  0  0  0  0  0
  -21.4808  -23.2439   18.0642 C   0  0  1  0  0  0  0  0  0  0  0  0
  -21.8794  -25.1402   21.3319 C   0  0  1  0  0  0  0  0  0  0  0  0
  -27.3545  -13.9836   19.9814 C   0  0  2  0  0  0  0  0  0  0  0  0
  -21.6257  -32.3680   24.1063 C   0  0  0  0  0  0  0  0  0  0  0  0
  -31.0481  -26.7393   20.8944 C   0  0  0  0  0  0  0  0  0  0  0  0
  -32.3385  -24.6502   21.2665 C   0  0  0  0  0  0  0  0  0  0  0  0
  -22.5717  -28.8056   18.6032 C   0  0  0  0  0  0  0  0  0  0  0  0
  -22.6854  -31.0157   19.7739 C   0  0  0  0  0  0  0  0  0  0  0  0
  -20.4900  -29.8638   19.4981 C   0  0  0  0  0  0  0  0  0  0  0  0
  -22.0567  -29.1731   26.1268 C   0  0  0  0  0  0  0  0  0  0  0  0
  -28.7030  -25.4765   22.5341 C   0  0  0  0  0  0  0  0  0  1  0  0
  -30.1798  -24.5922   19.9289 C   0  0  0  0  0  0  0  0  0  0  0  0
  -22.1711  -28.9485   21.1498 C   0  0  1  0  0  0  0  0  0  0  0  0
  -21.5659  -30.8699   24.3609 C   0  0  2  0  0  0  0  0  0  0  0  0
  -30.9143  -25.2239   21.1334 C   0  0  0  0  0  0  0  0  0  0  0  0
  -21.9936  -29.6358   19.7665 C   0  0  0  0  0  0  0  0  0  0  0  0
  -26.3439  -11.9974   21.0373 N   0  0  0  0  0  0  0  0  0  0  0  0
  -26.1568  -13.2234   20.5197 N   0  0  0  0  0  0  0  0  0  0  0  0
  -22.3929  -26.5046   21.4697 N   0  0  0  0  0  0  0  0  0  0  0  0
  -29.1378  -15.6099   20.4767 N   0  0  0  0  0  0  0  0  0  0  0  0
  -24.4948  -14.8496   20.0680 N   0  0  0  0  0  0  0  0  0  0  0  0
  -22.1646  -11.4764   21.9621 N   0  0  0  0  0  0  0  0  0  0  0  0
  -28.2058  -17.7368   20.8890 N   0  0  0  0  0  0  0  0  0  0  0  0
  -28.8550  -22.6687   20.5530 N   0  0  0  0  0  0  0  0  0  0  0  0
  -21.3245  -23.8129   19.3856 N   0  0  0  0  0  0  0  0  0  0  0  0
  -21.6088  -29.6996   22.2669 N   0  0  0  0  0  0  0  0  0  0  0  0
  -22.0800  -30.6057   25.7345 N   0  3  0  0  0  0  0  0  0  0  0  0
  -21.9938  -13.5676   21.0366 O   0  0  0  0  0  0  0  0  0  0  0  0
  -23.2907  -25.0593   19.4407 O   0  0  0  0  0  0  0  0  0  0  0  0
  -30.6390  -24.3521   23.3824 O   0  0  0  0  0  0  0  0  0  0  0  0
  -20.3213  -27.4704   21.0093 O   0  0  0  0  0  0  0  0  0  0  0  0
  -30.9747  -22.3611   19.5910 O   0  0  0  0  0  0  0  0  0  0  0  0
  -23.5836  -29.8854   23.4681 O   0  0  0  0  0  0  0  0  0  0  0  0
  -30.2941  -17.5270   19.9006 O   0  0  0  0  0  0  0  0  0  0  0  0
  -27.1816  -21.1732   21.3337 O   0  0  0  0  0  0  0  0  0  0  0  0
  -24.2556   -6.6435   23.7804 O   0  0  0  0  0  0  0  0  0  0  0  0
  -27.9448  -24.6577   23.4236 O   0  0  0  0  0  0  0  0  0  1  0  0
  -19.9702   -3.6608   22.0077 F   0  0  0  0  0  0  0  0  0  0  0  0
  -24.6317   -4.1362   22.6784 F   0  0  0  0  0  0  0  0  0  0  0  0
  1  2  1  0  0  0  0
  1  5  2  0  0  0  0
  2  6  2  0  0  0  0
  3  8  2  0  0  0  0
  3 17  1  0  0  0  0
  4  9  1  0  0  0  0
  4 17  2  0  0  0  0
  5 19  1  0  0  0  0
  6 21  1  0  0  0  0
  7 10  2  0  0  0  0
  7 20  1  0  0  0  0
  8 24  1  0  0  0  0
  9 24  2  0  0  0  0
 10 25  1  0  0  0  0
 11 12  2  0  0  0  0
 11 26  1  0  0  0  0
 12 27  1  0  0  0  0
 13 22  1  0  0  0  0
 13 25  2  0  0  0  0
 14 23  1  0  0  0  0
 14 31  2  0  0  0  0
 15 27  2  0  0  0  0
 15 28  1  0  0  0  0
 16 23  2  0  0  0  0
 16 82  1  0  0  0  0
 17 29  1  0  0  0  0
 18 29  1  0  0  0  0
 18 30  2  0  0  0  0
 18 32  1  0  0  0  0
 19 21  2  0  0  0  0
 19 39  1  0  0  0  0
 20 22  2  0  0  0  0
 20 40  1  0  0  0  0
 21 48  1  0  0  0  0
 22 41  1  0  0  0  0
 23 70  1  0  0  0  0
 24 83  1  0  0  0  0
 25 84  1  0  0  0  0
 26 28  2  0  0  0  0
 26 83  1  0  0  0  0
 27 85  1  0  0  0  0
 28 86  1  0  0  0  0
 29 64  2  0  0  0  0
 30 65  1  0  0  0  0
 30 68  1  0  0  0  0
 31 71  1  0  0  0  0
 31 82  1  0  0  0  0
 32 69  1  0  0  0  0
 32 75  2  0  0  0  0
 33 49  1  0  0  0  0
 33 72  1  0  0  0  0
 33 76  2  0  0  0  0
 34 58  1  0  0  0  0
 34 62  1  0  0  0  0
 34 77  2  0  0  0  0
 35 60  1  0  0  0  0
 35 66  1  0  0  0  0
 35 78  2  0  0  0  0
 36 59  1  0  0  0  0
 36 71  1  0  0  0  0
 36 79  2  0  0  0  0
 37 61  1  0  0  0  0
 37 73  1  0  0  0  0
 37 80  2  0  0  0  0
 38 67  1  0  0  0  0
 38 70  1  0  0  0  0
 38 81  2  0  0  0  0
 39 42  1  0  0  0  0
 40 49  1  0  0  0  0
 41 66  1  0  0  0  0
 42 44  1  0  0  0  0
 43 45  1  0  0  0  0
 43 46  1  0  0  0  0
 44 48  1  0  0  0  0
 45 50  1  0  0  0  0
 46 67  1  0  0  0  0
 47 50  1  0  0  0  0
 47 67  1  0  0  0  0
 48 72  1  0  0  0  0
 49 66  1  0  0  0  0
 50 65  1  0  0  0  0
 51 61  1  0  0  0  0
 52 62  1  0  0  0  0
 53 62  1  0  0  0  0
 54 63  1  0  0  0  0
 55 63  1  0  0  0  0
 56 63  1  0  0  0  0
 57 74  1  0  0  0  0
 58 84  1  0  0  0  0
 59 62  1  0  0  0  0
 60 63  1  0  0  0  0
 60 73  1  0  0  0  0
 61 74  1  0  0  0  0
 64 65  1  0  0  0  0
M  CHG  1  74   1
M  ISO  4  38 100  58 101  70 100  84 101
M  END
> <Batch ID>
0144

> <Smiles>
CNC(C)C(=O)NC(C(=O)N1Cc2cc([101O:1][101CH2:1]C(=O)C(C)(C)CC(=O)Nc3cc([100NH:0][100C:0](=O)N4CCCC(n5nc(-c6ccc(Oc7ccc(F)cc7F)cc6)c(C(N)=O)c5N)C4)co3)ccc2CC1C(=O)NC1CCCc2ccccc21)C(C)(C)C

> <Shape>
0.229

> <Color>
0.100

> <Negative vol penalty>
0.000

$$$$

  -OEChem-04052303043D

 92101  0     1  0  0  0  0  0999 V2000
  -31.2915  -33.3743   18.9478 C   0  0  0  0  0  0  0  0  0  0  0  0
  -31.2357  -31.9854   19.0045 C   0  0  0  0  0  0  0  0  0  0  0  0
  -26.6220  -12.6991   21.5825 C   0  0  0  0  0  0  0  0  0  0  0  0
  -26.2841  -13.6652   19.3941 C   0  0  0  0  0  0  0  0  0  0  0  0
  -30.4479  -34.1381   19.7534 C   0  0  0  0  0  0  0  0  0  0  0  0
  -30.3371  -31.3594   19.8677 C   0  0  0  0  0  0  0  0  0  0  0  0
  -25.3427  -26.8132   17.3620 C   0  0  0  0  0  0  0  0  0  0  0  0
  -25.3337  -12.1657   21.5460 C   0  0  0  0  0  0  0  0  0  0  0  0
  -24.9958  -13.1319   19.3575 C   0  0  0  0  0  0  0  0  0  0  0  0
  -24.4962  -25.7704   16.9849 C   0  0  0  0  0  0  0  0  0  0  0  0
  -23.7703   -9.5248   20.1268 C   0  0  0  0  0  0  0  0  0  0  0  0
  -23.6057   -8.1995   20.5296 C   0  0  0  0  0  0  0  0  0  0  0  0
  -29.3120  -20.9575   17.4394 C   0  0  0  0  0  0  0  0  0  0  0  0
  -28.8189  -23.2990   17.1057 C   0  0  0  0  0  0  0  0  0  0  0  0
  -23.6853  -25.5930   19.2562 C   0  0  0  0  0  0  0  0  0  0  0  0
  -29.6324  -22.5289   19.2463 C   0  0  0  0  0  0  0  0  0  0  0  0
  -22.0993   -8.9177   22.2767 C   0  0  0  0  0  0  0  0  0  0  0  0
  -27.0972  -13.4489   20.5066 C   0  0  0  0  0  0  0  0  0  0  0  0
  -28.8764  -21.9947   16.6146 C   0  0  0  0  0  0  0  0  0  0  0  0
  -29.6136  -13.3914   20.0918 C   0  0  0  0  0  0  0  0  0  0  0  0
  -29.5318  -33.5212   20.6198 C   0  0  0  0  0  0  0  0  0  0  0  0
  -25.3525  -27.2606   18.6861 C   0  0  0  0  0  0  0  0  0  0  0  0
  -29.4815  -32.1157   20.6866 C   0  0  0  0  0  0  0  0  0  0  0  0
  -24.5220  -26.6455   19.6372 C   0  0  0  0  0  0  0  0  0  0  0  0
  -29.6899  -21.2246   18.7553 C   0  0  0  0  0  0  0  0  0  0  0  0
  -24.5206  -12.3821   20.4335 C   0  0  0  0  0  0  0  0  0  0  0  0
  -23.6697  -25.1617   17.9298 C   0  0  0  0  0  0  0  0  0  0  0  0
  -23.0995  -10.5465   20.7990 C   0  0  0  0  0  0  0  0  0  0  0  0
  -22.7702   -7.8960   21.6045 C   0  0  0  0  0  0  0  0  0  0  0  0
  -29.1969  -23.5661   18.4216 C   0  0  0  0  0  0  0  0  0  0  0  0
  -22.2640  -10.2430   21.8739 C   0  0  0  0  0  0  0  0  0  0  0  0
  -28.4278  -14.0005   20.5440 C   0  0  0  0  0  0  0  0  0  0  0  0
  -30.5948  -14.3176   20.3483 C   0  0  0  0  0  0  0  0  0  0  0  0
  -23.5308  -21.3608   17.1131 C   0  0  0  0  0  0  0  0  0  0  0  0
  -28.4757  -21.7129   15.2246 C   0  0  0  0  0  0  0  0  0  0  0  0
  -29.8106  -12.1035   19.4933 C   0  0  0  0  0  0  0  0  0  0  0  0
  -23.6746  -21.1123   15.7969 C   0  0  0  0  0  0  0  0  0  0  0  0
  -26.7639  -29.6647   21.1969 C   0  0  0  0  0  0  0  0  0  0  0  0
  -23.7615  -29.4281   21.7798 C   0  0  0  0  0  0  0  0  0  0  0  0
  -20.3573  -29.2115   21.8245 C   0  0  0  0  0  0  0  0  0  0  0  0
  -30.5447  -20.2652   20.9221 C   0  0  0  0  0  0  0  0  0  0  0  0
  -28.6733  -34.3887   21.5059 C   0  0  0  0  0  0  0  0  0  0  0  0
  -26.2928  -28.3396   19.1502 C   0  0  0  0  0  0  0  0  0  0  0  0
  -24.5912  -27.1368   21.0573 C   0  0  0  0  0  0  0  0  0  0  0  0
  -27.4881  -33.6479   22.1197 C   0  0  0  0  0  0  0  0  0  0  0  0
  -31.6718  -17.9025   23.3355 C   0  0  0  0  0  0  0  0  0  0  0  0
  -27.9352  -32.3062   22.6912 C   0  0  0  0  0  0  0  0  0  0  0  0
  -31.0808  -16.5773   22.8490 C   0  0  0  0  0  0  0  0  0  0  0  0
  -25.2096  -21.1202   13.7985 C   0  0  0  0  0  0  0  0  0  0  0  0
  -30.7180  -19.0712   23.0945 C   0  0  0  0  0  0  0  0  0  0  0  0
  -26.7232  -21.1152   13.6083 C   0  0  0  0  0  0  0  0  0  0  0  0
  -29.6411  -17.8766   21.2284 C   0  0  0  0  0  0  0  0  0  0  0  0
  -26.1668  -21.3355   15.9934 C   0  0  0  0  0  0  0  0  0  0  0  0
  -28.5028  -31.3999   21.5921 C   0  0  1  0  0  0  0  0  0  0  0  0
  -25.6871  -29.2391   20.2426 C   0  0  1  0  0  0  0  0  0  0  0  0
  -30.5923  -16.6797   21.3907 C   0  0  2  0  0  0  0  0  0  0  0  0
  -24.9980  -20.6580   15.2543 C   0  0  1  0  0  0  0  0  0  0  0  0
  -22.5993  -21.2512   14.7568 C   0  0  0  0  0  0  0  0  0  0  0  0
  -25.0977  -19.1279   15.3619 C   0  0  0  0  0  0  0  0  0  0  0  0
  -21.9021  -20.7528   18.8867 C   0  0  0  0  0  0  0  0  0  0  0  0
  -18.3460  -30.0553   23.0654 C   0  0  0  0  0  0  0  0  0  0  0  0
  -24.3795  -27.5158   24.0744 C   0  0  0  0  0  0  0  0  0  0  0  0
  -21.9783  -27.6796   24.7638 C   0  0  0  0  0  0  0  0  0  0  0  0
  -23.4200  -29.7153   24.7786 C   0  0  0  0  0  0  0  0  0  0  0  0
  -19.2593  -30.5045   19.3993 C   0  0  0  0  0  0  0  0  0  0  0  0
  -22.5385  -23.1598   18.5382 C   0  0  0  0  0  0  0  0  0  1  0  0
  -22.2903  -21.8115   17.8528 C   0  0  1  0  0  0  0  0  0  0  0  0
  -22.6764  -28.7392   22.5681 C   0  0  1  0  0  0  0  0  0  0  0  0
  -19.2805  -30.2797   21.8868 C   0  0  2  0  0  0  0  0  0  0  0  0
  -23.1205  -28.4040   24.0200 C   0  0  0  0  0  0  0  0  0  0  0  0
  -28.6346  -15.2194   21.0496 N   0  0  0  0  0  0  0  0  0  0  0  0
  -29.9618  -15.3836   20.9167 N   0  0  0  0  0  0  0  0  0  0  0  0
  -27.2174  -21.4112   14.9606 N   0  0  0  0  0  0  0  0  0  0  0  0
  -24.6521  -28.6066   21.0780 N   0  0  0  0  0  0  0  0  0  0  0  0
  -30.3008  -19.1077   21.6912 N   0  0  0  0  0  0  0  0  0  0  0  0
  -31.9288  -14.3161   20.1409 N   0  0  0  0  0  0  0  0  0  0  0  0
  -28.6943  -11.2779   19.3019 N   0  0  0  0  0  0  0  0  0  0  0  0
  -30.1337  -20.1714   19.5928 N   0  0  0  0  0  0  0  0  0  0  0  0
  -27.4307  -30.8137   20.8166 N   0  0  0  0  0  0  0  0  0  0  0  0
  -21.5024  -29.6013   22.4863 N   0  0  0  0  0  0  0  0  0  0  0  0
  -29.3871  -21.7687   14.2578 N   0  3  0  0  0  0  0  0  0  0  0  0
  -18.4701  -30.2719   20.6362 N   0  3  0  0  0  0  0  0  0  0  0  0
  -30.9452  -11.6902   19.1537 O   0  0  0  0  0  0  0  0  0  0  0  0
  -26.9744  -29.0011   22.2053 O   0  0  0  0  0  0  0  0  0  0  0  0
  -23.8236  -30.6607   21.7889 O   0  0  0  0  0  0  0  0  0  0  0  0
  -20.1972  -28.1371   21.2495 O   0  0  0  0  0  0  0  0  0  0  0  0
  -31.1034  -21.2559   21.3998 O   0  0  0  0  0  0  0  0  0  0  0  0
  -23.2634  -11.8616   20.3974 O   0  0  0  0  0  0  0  0  0  0  0  0
  -22.8425  -24.1472   17.5539 O   0  0  0  0  0  0  0  0  0  1  0  0
  -22.6109   -6.6232   21.9902 F   0  0  0  0  0  0  0  0  0  0  0  0
  -29.1416  -24.8186   18.8931 F   0  0  0  0  0  0  0  0  0  0  0  0
  -21.6161  -11.2202   22.5228 F   0  0  0  0  0  0  0  0  0  0  0  0
  1  2  1  0  0  0  0
  1  5  2  0  0  0  0
  2  6  2  0  0  0  0
  3  8  2  0  0  0  0
  3 18  1  0  0  0  0
  4  9  1  0  0  0  0
  4 18  2  0  0  0  0
  5 21  1  0  0  0  0
  6 23  1  0  0  0  0
  7 10  2  0  0  0  0
  7 22  1  0  0  0  0
  8 26  1  0  0  0  0
  9 26  2  0  0  0  0
 10 27  1  0  0  0  0
 11 12  2  0  0  0  0
 11 28  1  0  0  0  0
 12 29  1  0  0  0  0
 13 19  2  0  0  0  0
 13 25  1  0  0  0  0
 14 19  1  0  0  0  0
 14 30  2  0  0  0  0
 15 24  1  0  0  0  0
 15 27  2  0  0  0  0
 16 25  2  0  0  0  0
 16 30  1  0  0  0  0
 17 29  2  0  0  0  0
 17 31  1  0  0  0  0
 18 32  1  0  0  0  0
 19 35  1  0  0  0  0
 20 32  1  0  0  0  0
 20 33  2  0  0  0  0
 20 36  1  0  0  0  0
 21 23  2  0  0  0  0
 21 42  1  0  0  0  0
 22 24  2  0  0  0  0
 22 43  1  0  0  0  0
 23 54  1  0  0  0  0
 24 44  1  0  0  0  0
 25 78  1  0  0  0  0
 26 88  1  0  0  0  0
 27 89  1  0  0  0  0
 28 31  2  0  0  0  0
 28 88  1  0  0  0  0
 29 90  1  0  0  0  0
 30 91  1  0  0  0  0
 31 92  1  0  0  0  0
 32 71  2  0  0  0  0
 33 72  1  0  0  0  0
 33 76  1  0  0  0  0
 34 37  2  0  0  0  0
 34 67  1  0  0  0  0
 35 73  1  0  0  0  0
 35 81  2  0  0  0  0
 36 77  1  0  0  0  0
 36 83  2  0  0  0  0
 37 57  1  0  0  0  0
 37 58  1  0  0  0  0
 38 55  1  0  0  0  0
 38 79  1  0  0  0  0
 38 84  2  0  0  0  0
 39 68  1  0  0  0  0
 39 74  1  0  0  0  0
 39 85  2  0  0  0  0
 40 69  1  0  0  0  0
 40 80  1  0  0  0  0
 40 86  2  0  0  0  0
 41 75  1  0  0  0  0
 41 78  1  0  0  0  0
 41 87  2  0  0  0  0
 42 45  1  0  0  0  0
 43 55  1  0  0  0  0
 44 74  1  0  0  0  0
 45 47  1  0  0  0  0
 46 48  1  0  0  0  0
 46 50  1  0  0  0  0
 47 54  1  0  0  0  0
 48 56  1  0  0  0  0
 49 51  1  0  0  0  0
 49 57  1  0  0  0  0
 50 75  1  0  0  0  0
 51 73  1  0  0  0  0
 52 56  1  0  0  0  0
 52 75  1  0  0  0  0
 53 57  1  0  0  0  0
 53 73  1  0  0  0  0
 54 79  1  0  0  0  0
 55 74  1  0  0  0  0
 56 72  1  0  0  0  0
 57 59  1  0  0  0  0
 60 67  1  0  0  0  0
 61 69  1  0  0  0  0
 62 70  1  0  0  0  0
 63 70  1  0  0  0  0
 64 70  1  0  0  0  0
 65 82  1  0  0  0  0
 66 67  1  0  0  0  0
 66 89  1  0  0  0  0
 68 70  1  0  0  0  0
 68 80  1  0  0  0  0
 69 82  1  0  0  0  0
 71 72  1  0  0  0  0
M  CHG  2  81   1  82   1
M  ISO  4  41 100  66 101  78 100  89 101
M  END
> <Batch ID>
0144

> <Smiles>
CNC(C)C(=O)NC(C(=O)N1Cc2cc([101O:1][101CH2:1]C(C)C=C(C)C3(C)CCN(C(=N)c4cc(F)cc([100NH:0][100C:0](=O)N5CCCC(n6nc(-c7ccc(Oc8ccc(F)cc8F)cc7)c(C(N)=O)c6N)C5)c4)C3)ccc2CC1C(=O)NC1CCCc2ccccc21)C(C)(C)C

> <Shape>
0.258

> <Color>
0.069

> <Negative vol penalty>
0.000

$$$$

  -OEChem-04052303043D

 86 95  0     1  0  0  0  0  0999 V2000
  -24.8222  -25.9813   21.2853 C   0  0  0  0  0  0  0  0  0  0  0  0
  -25.2874  -24.9117   22.0435 C   0  0  0  0  0  0  0  0  0  0  0  0
  -23.2691   -9.7495   19.9437 C   0  0  0  0  0  0  0  0  0  0  0  0
  -23.7308   -9.9267   22.3085 C   0  0  0  0  0  0  0  0  0  0  0  0
  -25.2957  -26.1728   19.9880 C   0  0  0  0  0  0  0  0  0  0  0  0
  -26.2258  -24.0323   21.5044 C   0  0  0  0  0  0  0  0  0  0  0  0
  -29.9611  -22.9493   24.7477 C   0  0  0  0  0  0  0  0  0  0  0  0
  -22.5467   -8.5784   20.1724 C   0  0  0  0  0  0  0  0  0  0  0  0
  -23.0083   -8.7556   22.5373 C   0  0  0  0  0  0  0  0  0  0  0  0
  -29.6830  -22.0246   25.7534 C   0  0  0  0  0  0  0  0  0  0  0  0
  -19.7647   -7.8399   22.7837 C   0  0  0  0  0  0  0  0  0  0  0  0
  -18.8674   -7.8319   23.8516 C   0  0  0  0  0  0  0  0  0  0  0  0
  -33.1608  -13.7532   25.2759 C   0  0  0  0  0  0  0  0  0  0  0  0
  -32.7765  -13.5626   23.9171 C   0  0  0  0  0  0  0  0  0  0  0  0
  -30.7953  -20.3081   24.4745 C   0  0  0  0  0  0  0  0  0  0  0  0
  -20.0825   -6.0026   24.8588 C   0  0  0  0  0  0  0  0  0  0  0  0
  -23.8612  -10.4236   21.0118 C   0  0  0  0  0  0  0  0  0  0  0  0
  -24.1133  -12.9510   20.7741 C   0  0  0  0  0  0  0  0  0  0  0  0
  -26.2475  -25.3009   19.4362 C   0  0  0  0  0  0  0  0  0  0  0  0
  -30.6501  -22.5571   23.5910 C   0  0  0  0  0  0  0  0  0  0  0  0
  -26.7115  -24.2115   20.1980 C   0  0  0  0  0  0  0  0  0  0  0  0
  -31.0832  -21.2303   23.4567 C   0  0  0  0  0  0  0  0  0  0  0  0
  -22.4163   -8.0815   21.4692 C   0  0  0  0  0  0  0  0  0  0  0  0
  -30.0976  -20.7031   25.6156 C   0  0  0  0  0  0  0  0  0  0  0  0
  -20.8208   -6.9292   22.7533 C   0  0  0  0  0  0  0  0  0  0  0  0
  -19.0263   -6.9133   24.8892 C   0  0  0  0  0  0  0  0  0  0  0  0
  -20.9797   -6.0106   23.7909 C   0  0  0  0  0  0  0  0  0  0  0  0
  -24.6081  -11.6330   20.7761 C   0  0  0  0  0  0  0  0  0  0  0  0
  -32.1153  -13.5319   26.1452 C   0  0  0  0  0  0  0  0  0  0  0  0
  -25.2115  -13.7297   20.5023 C   0  0  0  0  0  0  0  0  0  0  0  0
  -31.4519  -13.2027   23.7997 C   0  0  0  0  0  0  0  0  0  0  0  0
  -22.7801  -13.4286   20.9981 C   0  0  0  0  0  0  0  0  0  0  0  0
  -32.2146  -13.6539   27.6106 C   0  0  0  0  0  0  0  0  0  0  0  0
  -29.9629  -22.4804   20.4885 C   0  0  0  0  0  0  0  0  0  0  0  0
  -33.0788  -21.6205   20.2174 C   0  0  0  0  0  0  0  0  0  0  0  0
  -35.8419  -20.2447   21.6733 C   0  0  0  0  0  0  0  0  0  0  0  0
  -31.0778  -12.9423   21.3221 C   0  0  0  0  0  0  0  0  0  0  0  0
  -26.6945  -25.5210   18.0126 C   0  0  0  0  0  0  0  0  0  0  0  0
  -30.9656  -23.5728   22.5274 C   0  0  0  0  0  0  0  0  0  0  0  0
  -31.8438  -20.7633   22.2435 C   0  0  0  0  0  0  0  0  0  0  0  0
  -27.9678  -24.7612   17.6497 C   0  0  0  0  0  0  0  0  0  0  0  0
  -29.4280  -13.5967   18.2355 C   0  0  0  0  0  0  0  0  0  0  0  0
  -27.8829  -23.3163   18.1311 C   0  0  0  0  0  0  0  0  0  0  0  0
  -27.9588  -13.2932   18.5383 C   0  0  0  0  0  0  0  0  0  0  0  0
  -31.4035  -16.4147   29.7964 C   0  0  0  0  0  0  0  0  0  0  0  0
  -30.3670  -12.6345   18.9610 C   0  0  0  0  0  0  0  0  0  0  0  0
  -32.0360  -15.0363   29.6352 C   0  0  0  0  0  0  0  0  0  0  0  0
  -28.6831  -12.2282   20.7127 C   0  0  0  0  0  0  0  0  0  0  0  0
  -31.5834  -16.0270   27.4311 C   0  0  0  0  0  0  0  0  0  0  0  0
  -27.7477  -23.2504   19.6572 C   0  0  1  0  0  0  0  0  0  0  0  0
  -31.2234  -22.9461   21.1605 C   0  0  1  0  0  0  0  0  0  0  0  0
  -27.7012  -13.2120   20.0557 C   0  0  2  0  0  0  0  0  0  0  0  0
  -31.7239  -17.1462   28.4791 C   0  0  2  0  0  0  0  0  0  0  0  0
  -33.1576  -17.7005   28.4915 C   0  0  0  0  0  0  0  0  0  0  0  0
  -38.2295  -19.6420   21.1900 C   0  0  0  0  0  0  0  0  0  0  0  0
  -32.1409  -19.1953   18.6209 C   0  0  0  0  0  0  0  0  0  0  0  0
  -34.3952  -18.1695   18.9874 C   0  0  0  0  0  0  0  0  0  0  0  0
  -34.1912  -20.3082   17.7196 C   0  0  0  0  0  0  0  0  0  0  0  0
  -36.8489  -22.0633   23.7799 C   0  0  0  0  0  0  0  0  0  0  0  0
  -30.7397  -18.2875   28.2194 C   0  0  0  0  0  0  0  0  0  0  0  0
  -30.7530  -18.7257   26.7629 C   0  0  0  0  0  0  0  0  0  1  0  0
  -33.8310  -20.3115   20.2220 C   0  0  1  0  0  0  0  0  0  0  0  0
  -37.2869  -20.7068   21.7288 C   0  0  2  0  0  0  0  0  0  0  0  0
  -33.6236  -19.5042   18.9096 C   0  0  0  0  0  0  0  0  0  0  0  0
  -25.9186  -11.5739   20.5252 N   0  0  0  0  0  0  0  0  0  0  0  0
  -26.2566  -12.8645   20.3630 N   0  0  0  0  0  0  0  0  0  0  0  0
  -31.9633  -14.8170   28.1833 N   0  0  0  0  0  0  0  0  0  0  0  0
  -32.1226  -21.7924   21.2282 N   0  0  0  0  0  0  0  0  0  0  0  0
  -30.0671  -12.6132   20.3943 N   0  0  0  0  0  0  0  0  0  0  0  0
  -25.3755  -15.0632   20.3711 N   0  0  0  0  0  0  0  0  0  0  0  0
  -21.7711  -12.4930   21.2644 N   0  0  0  0  0  0  0  0  0  0  0  0
  -30.6670  -12.9195   22.6545 N   0  0  0  0  0  0  0  0  0  0  0  0
  -29.0296  -23.4796   20.2885 N   0  0  0  0  0  0  0  0  0  0  0  0
  -35.2232  -20.6418   20.5067 N   0  0  0  0  0  0  0  0  0  0  0  0
  -32.5539  -12.5904   28.3332 N   0  3  0  0  0  0  0  0  0  0  0  0
  -37.6788  -21.0143   23.1334 N   0  3  0  0  0  0  0  0  0  0  0  0
  -22.4889  -14.6477   20.9470 O   0  0  0  0  0  0  0  0  0  0  0  0
  -29.8462  -21.3019   20.1733 O   0  0  0  0  0  0  0  0  0  0  0  0
  -33.3355  -22.4623   19.3531 O   0  0  0  0  0  0  0  0  0  0  0  0
  -35.3159  -19.5933   22.5730 O   0  0  0  0  0  0  0  0  0  0  0  0
  -32.2162  -13.2501   20.9597 O   0  0  0  0  0  0  0  0  0  0  0  0
  -21.7112   -6.9389   21.6928 O   0  0  0  0  0  0  0  0  0  0  0  0
  -29.8269  -19.7984   26.5954 O   0  0  0  0  0  0  0  0  0  1  0  0
  -18.1655   -6.9067   25.9154 F   0  0  0  0  0  0  0  0  0  0  0  0
  -21.9931   -5.1340   23.7678 F   0  0  0  0  0  0  0  0  0  0  0  0
  -30.6776  -13.0961   25.3233 S   0  0  0  0  0  0  0  0  0  0  0  0
  1  2  1  0  0  0  0
  1  5  2  0  0  0  0
  2  6  2  0  0  0  0
  3  8  2  0  0  0  0
  3 17  1  0  0  0  0
  4  9  1  0  0  0  0
  4 17  2  0  0  0  0
  5 19  1  0  0  0  0
  6 21  1  0  0  0  0
  7 10  2  0  0  0  0
  7 20  1  0  0  0  0
  8 23  1  0  0  0  0
  9 23  2  0  0  0  0
 10 24  1  0  0  0  0
 11 12  2  0  0  0  0
 11 25  1  0  0  0  0
 12 26  1  0  0  0  0
 13 14  1  0  0  0  0
 13 29  2  0  0  0  0
 14 31  2  0  0  0  0
 15 22  1  0  0  0  0
 15 24  2  0  0  0  0
 16 26  2  0  0  0  0
 16 27  1  0  0  0  0
 17 28  1  0  0  0  0
 18 28  1  0  0  0  0
 18 30  2  0  0  0  0
 18 32  1  0  0  0  0
 19 21  2  0  0  0  0
 19 38  1  0  0  0  0
 20 22  2  0  0  0  0
 20 39  1  0  0  0  0
 21 50  1  0  0  0  0
 22 40  1  0  0  0  0
 23 82  1  0  0  0  0
 24 83  1  0  0  0  0
 25 27  2  0  0  0  0
 25 82  1  0  0  0  0
 26 84  1  0  0  0  0
 27 85  1  0  0  0  0
 28 65  2  0  0  0  0
 29 33  1  0  0  0  0
 29 86  1  0  0  0  0
 30 66  1  0  0  0  0
 30 70  1  0  0  0  0
 31 72  1  0  0  0  0
 31 86  1  0  0  0  0
 32 71  1  0  0  0  0
 32 77  2  0  0  0  0
 33 67  1  0  0  0  0
 33 75  2  0  0  0  0
 34 51  1  0  0  0  0
 34 73  1  0  0  0  0
 34 78  2  0  0  0  0
 35 62  1  0  0  0  0
 35 68  1  0  0  0  0
 35 79  2  0  0  0  0
 36 63  1  0  0  0  0
 36 74  1  0  0  0  0
 36 80  2  0  0  0  0
 37 69  1  0  0  0  0
 37 72  1  0  0  0  0
 37 81  2  0  0  0  0
 38 41  1  0  0  0  0
 39 51  1  0  0  0  0
 40 68  1  0  0  0  0
 41 43  1  0  0  0  0
 42 44  1  0  0  0  0
 42 46  1  0  0  0  0
 43 50  1  0  0  0  0
 44 52  1  0  0  0  0
 45 47  1  0  0  0  0
 45 53  1  0  0  0  0
 46 69  1  0  0  0  0
 47 67  1  0  0  0  0
 48 52  1  0  0  0  0
 48 69  1  0  0  0  0
 49 53  1  0  0  0  0
 49 67  1  0  0  0  0
 50 73  1  0  0  0  0
 51 68  1  0  0  0  0
 52 66  1  0  0  0  0
 53 54  1  0  0  0  0
 53 60  1  0  0  0  0
 55 63  1  0  0  0  0
 56 64  1  0  0  0  0
 57 64  1  0  0  0  0
 58 64  1  0  0  0  0
 59 76  1  0  0  0  0
 60 61  1  0  0  0  0
 61 83  1  0  0  0  0
 62 64  1  0  0  0  0
 62 74  1  0  0  0  0
 63 76  1  0  0  0  0
 65 66  1  0  0  0  0
M  CHG  2  75   1  76   1
M  ISO  4  37 100  61 101  72 100  83 101
M  END
> <Batch ID>
0144

> <Smiles>
CNC(C)C(=O)NC(C(=O)N1Cc2cc([101O:1][101CH2:1]CC3(C)CCN(C(=N)c4ccc([100NH:0][100C:0](=O)N5CCCC(n6nc(-c7ccc(Oc8ccc(F)cc8F)cc7)c(C(N)=O)c6N)C5)s4)C3)ccc2CC1C(=O)NC1CCCc2ccccc21)C(C)(C)C

> <Shape>
0.171

> <Color>
0.178

> <Negative vol penalty>
0.000

$$$$

  -OEChem-04052303043D

 87 95  0     1  0  0  0  0  0999 V2000
  -22.2137  -21.4884   23.5826 C   0  0  0  0  0  0  0  0  0  0  0  0
  -23.5579  -21.6152   23.2473 C   0  0  0  0  0  0  0  0  0  0  0  0
  -23.1112   -9.9362   19.8408 C   0  0  0  0  0  0  0  0  0  0  0  0
  -24.0156   -9.6784   22.0663 C   0  0  0  0  0  0  0  0  0  0  0  0
  -21.2344  -22.0211   22.7453 C   0  0  0  0  0  0  0  0  0  0  0  0
  -23.9236  -22.2739   22.0739 C   0  0  0  0  0  0  0  0  0  0  0  0
  -28.8960  -25.7388   21.1933 C   0  0  0  0  0  0  0  0  0  0  0  0
  -22.4404   -8.7204   19.9725 C   0  0  0  0  0  0  0  0  0  0  0  0
  -23.3447   -8.4626   22.1980 C   0  0  0  0  0  0  0  0  0  0  0  0
  -30.1349  -25.4711   20.6127 C   0  0  0  0  0  0  0  0  0  0  0  0
  -20.2034   -7.4128   22.8691 C   0  0  0  0  0  0  0  0  0  0  0  0
  -19.5259   -7.1744   24.0648 C   0  0  0  0  0  0  0  0  0  0  0  0
  -29.2284  -20.0986   20.5685 C   0  0  0  0  0  0  0  0  0  0  0  0
  -29.3484  -26.3896   18.5254 C   0  0  0  0  0  0  0  0  0  0  0  0
  -20.9025   -5.2279   24.4567 C   0  0  0  0  0  0  0  0  0  0  0  0
  -23.8988  -10.4152   20.8877 C   0  0  0  0  0  0  0  0  0  0  0  0
  -29.1376  -18.9991   21.4702 C   0  0  0  0  0  0  0  0  0  0  0  0
  -24.1121  -12.9488   21.0954 C   0  0  0  0  0  0  0  0  0  0  0  0
  -21.5886  -22.6951   21.5659 C   0  0  0  0  0  0  0  0  0  0  0  0
  -27.8686  -26.3249   20.4400 C   0  0  0  0  0  0  0  0  0  0  0  0
  -22.9480  -22.8149   21.2194 C   0  0  0  0  0  0  0  0  0  0  0  0
  -28.0981  -26.6660   19.0995 C   0  0  0  0  0  0  0  0  0  0  0  0
  -22.5572   -7.9835   21.1511 C   0  0  0  0  0  0  0  0  0  0  0  0
  -30.3603  -25.7939   19.2778 C   0  0  0  0  0  0  0  0  0  0  0  0
  -21.2304   -6.5587   22.4671 C   0  0  0  0  0  0  0  0  0  0  0  0
  -19.8755   -6.0820   24.8587 C   0  0  0  0  0  0  0  0  0  0  0  0
  -21.5800   -5.4663   23.2609 C   0  0  0  0  0  0  0  0  0  0  0  0
  -24.5924  -11.6709   20.7520 C   0  0  0  0  0  0  0  0  0  0  0  0
  -30.3004  -18.2615   21.5056 C   0  0  0  0  0  0  0  0  0  0  0  0
  -25.1419  -13.7998   20.7764 C   0  0  0  0  0  0  0  0  0  0  0  0
  -30.4575  -20.1595   19.9492 C   0  0  0  0  0  0  0  0  0  0  0  0
  -27.9795  -18.6753   22.2630 C   0  0  0  0  0  0  0  0  0  0  0  0
  -22.8481  -13.3323   21.6530 C   0  0  0  0  0  0  0  0  0  0  0  0
  -24.9511  -25.4319   19.5486 C   0  0  0  0  0  0  0  0  0  0  0  0
  -24.7943  -28.4647   18.4084 C   0  0  0  0  0  0  0  0  0  0  0  0
  -30.3233  -22.1737   18.4433 C   0  0  0  0  0  0  0  0  0  0  0  0
  -26.4541  -31.2278   17.2871 C   0  0  0  0  0  0  0  0  0  0  0  0
  -30.5719  -15.0883   20.7888 C   0  0  0  0  0  0  0  0  0  0  0  0
  -20.4925  -23.2129   20.6686 C   0  0  0  0  0  0  0  0  0  0  0  0
  -26.5466  -26.6316   21.0885 C   0  0  0  0  0  0  0  0  0  0  0  0
  -27.0348  -27.3152   18.2531 C   0  0  0  0  0  0  0  0  0  0  0  0
  -20.9795  -24.2234   19.6332 C   0  0  0  0  0  0  0  0  0  0  0  0
  -29.3978  -12.9851   18.1668 C   0  0  0  0  0  0  0  0  0  0  0  0
  -22.2491  -23.7212   18.9531 C   0  0  0  0  0  0  0  0  0  0  0  0
  -28.0067  -12.5565   18.6369 C   0  0  0  0  0  0  0  0  0  0  0  0
  -30.3786  -13.0939   19.3322 C   0  0  0  0  0  0  0  0  0  0  0  0
  -28.5373  -13.5257   20.9123 C   0  0  0  0  0  0  0  0  0  0  0  0
  -23.3853  -23.5442   19.9676 C   0  0  1  0  0  0  0  0  0  0  0  0
  -25.4045  -26.7602   20.0852 C   0  0  1  0  0  0  0  0  0  0  0  0
  -27.4989  -13.4564   19.7795 C   0  0  2  0  0  0  0  0  0  0  0  0
  -27.0815  -19.8055   22.6981 C   0  0  0  0  0  0  0  0  0  0  0  0
  -26.0541  -33.5370   16.3898 C   0  0  0  0  0  0  0  0  0  0  0  0
  -33.6188  -24.9136   19.7899 C   0  0  0  0  0  0  0  0  0  0  0  0
  -23.9991  -27.2769   15.7128 C   0  0  0  0  0  0  0  0  0  0  0  0
  -24.5392  -29.4831   14.6598 C   0  0  0  0  0  0  0  0  0  0  0  0
  -22.7256  -29.3279   16.3654 C   0  0  0  0  0  0  0  0  0  0  0  0
  -27.9074  -32.4807   19.5403 C   0  0  0  0  0  0  0  0  0  0  0  0
  -30.6150  -17.0542   22.3029 C   0  0  0  0  0  0  0  0  0  0  0  0
  -31.2361  -22.8907   17.4560 C   0  0  0  0  0  0  0  0  0  0  0  0
  -32.5330  -23.4122   18.0808 C   0  0  0  0  0  0  0  0  0  0  0  0
  -25.1372  -29.1338   17.0993 C   0  0  1  0  0  0  0  0  0  0  0  0
  -26.3097  -32.6989   17.6328 C   0  0  2  0  0  0  0  0  0  0  0  0
  -32.2982  -24.4166   19.2158 C   0  0  2  0  0  0  0  0  0  1  0  0
  -24.1199  -28.7914   15.9745 C   0  0  0  0  0  0  0  0  0  0  0  0
  -25.8309  -11.7025   20.2529 N   0  0  0  0  0  0  0  0  0  0  0  0
  -26.1375  -13.0106   20.2803 N   0  0  0  0  0  0  0  0  0  0  0  0
  -25.7569  -27.5893   18.9308 N   0  0  0  0  0  0  0  0  0  0  0  0
  -29.8379  -13.9623   20.3808 N   0  0  0  0  0  0  0  0  0  0  0  0
  -25.2838  -15.1387   20.8746 N   0  0  0  0  0  0  0  0  0  0  0  0
  -21.9042  -12.3313   21.9198 N   0  0  0  0  0  0  0  0  0  0  0  0
  -30.9704  -21.0725   18.9971 N   0  0  0  0  0  0  0  0  0  0  0  0
  -23.9660  -24.8262   20.3049 N   0  0  0  0  0  0  0  0  0  0  0  0
  -25.2523  -30.5593   17.3873 N   0  0  0  0  0  0  0  0  0  0  0  0
  -29.9847  -15.8612   21.7830 N   0  0  0  0  0  0  0  0  0  0  0  0
  -27.5492  -33.2004   18.2910 N   0  3  0  0  0  0  0  0  0  0  0  0
  -27.6526  -17.5355   22.6289 O   0  0  0  0  0  0  0  0  0  0  0  0
  -22.5579  -14.5291   21.8918 O   0  0  0  0  0  0  0  0  0  0  0  0
  -25.4566  -24.9901   18.5234 O   0  0  0  0  0  0  0  0  0  0  0  0
  -23.7153  -28.7153   18.9512 O   0  0  0  0  0  0  0  0  0  0  0  0
  -29.1911  -22.5738   18.6929 O   0  0  0  0  0  0  0  0  0  0  0  0
  -27.5250  -30.7230   16.9574 O   0  0  0  0  0  0  0  0  0  0  0  0
  -31.6668  -15.3859   20.2993 O   0  0  0  0  0  0  0  0  0  0  0  0
  -21.9026   -6.7972   21.2801 O   0  0  0  0  0  0  0  0  0  0  0  0
  -31.5685  -25.5331   18.7084 O   0  0  0  0  0  0  0  0  0  1  0  0
  -19.2259   -5.8541   26.0077 F   0  0  0  0  0  0  0  0  0  0  0  0
  -22.5665   -4.6430   22.8805 F   0  0  0  0  0  0  0  0  0  0  0  0
  -31.4951  -18.8947   20.4549 S   0  0  0  0  0  0  0  0  0  0  0  0
  1  2  1  0  0  0  0
  1  5  2  0  0  0  0
  2  6  2  0  0  0  0
  3  8  2  0  0  0  0
  3 16  1  0  0  0  0
  4  9  1  0  0  0  0
  4 16  2  0  0  0  0
  5 19  1  0  0  0  0
  6 21  1  0  0  0  0
  7 10  2  0  0  0  0
  7 20  1  0  0  0  0
  8 23  1  0  0  0  0
  9 23  2  0  0  0  0
 10 24  1  0  0  0  0
 11 12  2  0  0  0  0
 11 25  1  0  0  0  0
 12 26  1  0  0  0  0
 13 17  1  0  0  0  0
 13 31  2  0  0  0  0
 14 22  1  0  0  0  0
 14 24  2  0  0  0  0
 15 26  2  0  0  0  0
 15 27  1  0  0  0  0
 16 28  1  0  0  0  0
 17 29  2  0  0  0  0
 17 32  1  0  0  0  0
 18 28  1  0  0  0  0
 18 30  2  0  0  0  0
 18 33  1  0  0  0  0
 19 21  2  0  0  0  0
 19 39  1  0  0  0  0
 20 22  2  0  0  0  0
 20 40  1  0  0  0  0
 21 48  1  0  0  0  0
 22 41  1  0  0  0  0
 23 83  1  0  0  0  0
 24 84  1  0  0  0  0
 25 27  2  0  0  0  0
 25 83  1  0  0  0  0
 26 85  1  0  0  0  0
 27 86  1  0  0  0  0
 28 65  2  0  0  0  0
 29 58  1  0  0  0  0
 29 87  1  0  0  0  0
 30 66  1  0  0  0  0
 30 69  1  0  0  0  0
 31 71  1  0  0  0  0
 31 87  1  0  0  0  0
 32 51  1  0  0  0  0
 32 76  2  0  0  0  0
 33 70  1  0  0  0  0
 33 77  2  0  0  0  0
 34 49  1  0  0  0  0
 34 72  1  0  0  0  0
 34 78  2  0  0  0  0
 35 61  1  0  0  0  0
 35 67  1  0  0  0  0
 35 79  2  0  0  0  0
 36 59  1  0  0  0  0
 36 71  1  0  0  0  0
 36 80  2  0  0  0  0
 37 62  1  0  0  0  0
 37 73  1  0  0  0  0
 37 81  2  0  0  0  0
 38 68  1  0  0  0  0
 38 74  1  0  0  0  0
 38 82  2  0  0  0  0
 39 42  1  0  0  0  0
 40 49  1  0  0  0  0
 41 67  1  0  0  0  0
 42 44  1  0  0  0  0
 43 45  1  0  0  0  0
 43 46  1  0  0  0  0
 44 48  1  0  0  0  0
 45 50  1  0  0  0  0
 46 68  1  0  0  0  0
 47 50  1  0  0  0  0
 47 68  1  0  0  0  0
 48 72  1  0  0  0  0
 49 67  1  0  0  0  0
 50 66  1  0  0  0  0
 52 62  1  0  0  0  0
 53 63  1  0  0  0  0
 54 64  1  0  0  0  0
 55 64  1  0  0  0  0
 56 64  1  0  0  0  0
 57 75  1  0  0  0  0
 58 74  1  0  0  0  0
 59 60  1  0  0  0  0
 60 63  1  0  0  0  0
 61 64  1  0  0  0  0
 61 73  1  0  0  0  0
 62 75  1  0  0  0  0
 63 84  1  0  0  0  0
 65 66  1  0  0  0  0
M  CHG  1  75   1
M  ISO  4  38 100  63 101  74 100  84 101
M  END
> <Batch ID>
0144

> <Smiles>
CNC(C)C(=O)NC(C(=O)N1Cc2cc([101O:1][101CH:1](C)CCC(=O)Nc3cc(C(C)=O)c(C[100NH:0][100C:0](=O)N4CCCC(n5nc(-c6ccc(Oc7ccc(F)cc7F)cc6)c(C(N)=O)c5N)C4)s3)ccc2CC1C(=O)NC1CCCc2ccccc21)C(C)(C)C

> <Shape>
0.272

> <Color>
0.185

> <Negative vol penalty>
0.000

$$$$

  -OEChem-04052303043D

 86 95  0     1  0  0  0  0  0999 V2000
  -28.8401  -35.5323   22.7691 C   0  0  0  0  0  0  0  0  0  0  0  0
  -29.3298  -34.2769   22.4233 C   0  0  0  0  0  0  0  0  0  0  0  0
  -23.0358   -9.8918   19.9865 C   0  0  0  0  0  0  0  0  0  0  0  0
  -23.7814   -9.9390   22.2841 C   0  0  0  0  0  0  0  0  0  0  0  0
  -27.5728  -35.6525   23.3376 C   0  0  0  0  0  0  0  0  0  0  0  0
  -28.5528  -33.1408   22.6468 C   0  0  0  0  0  0  0  0  0  0  0  0
  -28.3236  -28.0968   19.1810 C   0  0  0  0  0  0  0  0  0  0  0  0
  -22.2604   -8.7654   20.2612 C   0  0  0  0  0  0  0  0  0  0  0  0
  -23.0059   -8.8126   22.5589 C   0  0  0  0  0  0  0  0  0  0  0  0
  -28.9424  -26.8526   19.2936 C   0  0  0  0  0  0  0  0  0  0  0  0
  -19.7542   -8.1153   23.1596 C   0  0  0  0  0  0  0  0  0  0  0  0
  -18.9892   -8.1258   24.3259 C   0  0  0  0  0  0  0  0  0  0  0  0
  -26.9726  -25.9777   20.3769 C   0  0  0  0  0  0  0  0  0  0  0  0
  -31.3094  -17.5230   20.4951 C   0  0  0  0  0  0  0  0  0  0  0  0
  -29.6728  -17.8002   22.2506 C   0  0  0  0  0  0  0  0  0  0  0  0
  -20.1747   -6.1766   25.1211 C   0  0  0  0  0  0  0  0  0  0  0  0
  -23.7964  -10.4786   20.9980 C   0  0  0  0  0  0  0  0  0  0  0  0
  -24.2052  -12.9899   20.8147 C   0  0  0  0  0  0  0  0  0  0  0  0
  -26.7759  -34.5183   23.5594 C   0  0  0  0  0  0  0  0  0  0  0  0
  -27.0266  -28.2942   19.6763 C   0  0  0  0  0  0  0  0  0  0  0  0
  -27.2741  -33.2459   23.2201 C   0  0  0  0  0  0  0  0  0  0  0  0
  -26.3386  -27.2248   20.2672 C   0  0  0  0  0  0  0  0  0  0  0  0
  -31.5135  -18.9026   20.4676 C   0  0  0  0  0  0  0  0  0  0  0  0
  -30.7974  -19.7309   21.3316 C   0  0  0  0  0  0  0  0  0  0  0  0
  -30.3889  -16.9718   21.3866 C   0  0  0  0  0  0  0  0  0  0  0  0
  -29.8770  -19.1798   22.2232 C   0  0  0  0  0  0  0  0  0  0  0  0
  -22.2454   -8.2258   21.5474 C   0  0  0  0  0  0  0  0  0  0  0  0
  -28.2680  -25.7935   19.8942 C   0  0  0  0  0  0  0  0  0  0  0  0
  -20.7294   -7.1354   22.9740 C   0  0  0  0  0  0  0  0  0  0  0  0
  -19.1994   -7.1565   25.3066 C   0  0  0  0  0  0  0  0  0  0  0  0
  -20.9396   -6.1661   23.9547 C   0  0  0  0  0  0  0  0  0  0  0  0
  -24.5981  -11.6418   20.7147 C   0  0  0  0  0  0  0  0  0  0  0  0
  -25.3189  -13.7009   20.4396 C   0  0  0  0  0  0  0  0  0  0  0  0
  -30.7118  -23.3597   20.8889 C   0  0  0  0  0  0  0  0  0  0  0  0
  -30.0357  -24.5002   20.7148 C   0  0  0  0  0  0  0  0  0  1  0  0
  -22.9461  -13.5495   21.2113 C   0  0  0  0  0  0  0  0  0  0  0  0
  -25.7369  -30.1518   21.9100 C   0  0  0  0  0  0  0  0  0  0  0  0
  -22.9563  -28.9415   20.7586 C   0  0  0  0  0  0  0  0  0  0  0  0
  -21.3580  -26.4161   19.1109 C   0  0  0  0  0  0  0  0  0  0  0  0
  -30.8095  -14.6077   20.6248 C   0  0  0  0  0  0  0  0  0  0  0  0
  -25.4315  -34.6936   24.2201 C   0  0  0  0  0  0  0  0  0  0  0  0
  -26.3630  -29.6353   19.5231 C   0  0  0  0  0  0  0  0  0  0  0  0
  -24.9371  -27.3792   20.7966 C   0  0  0  0  0  0  0  0  0  0  0  0
  -31.9895  -23.2254   21.6553 C   0  0  0  0  0  0  0  0  0  0  0  0
  -30.2428  -22.0060   20.4473 C   0  0  0  0  0  0  0  0  0  0  0  0
  -24.5202  -33.4770   24.0789 C   0  0  0  0  0  0  0  0  0  0  0  0
  -29.6468  -12.1626   18.3124 C   0  0  0  0  0  0  0  0  0  0  0  0
  -25.2854  -32.1969   24.3992 C   0  0  0  0  0  0  0  0  0  0  0  0
  -28.1973  -11.9200   18.7395 C   0  0  0  0  0  0  0  0  0  0  0  0
  -31.9091  -21.8033   22.2030 C   0  0  0  0  0  0  0  0  0  0  0  0
  -30.5601  -12.3988   19.5140 C   0  0  0  0  0  0  0  0  0  0  0  0
  -28.6643  -13.2087   20.8628 C   0  0  0  0  0  0  0  0  0  0  0  0
  -26.4512  -31.9924   23.4242 C   0  0  1  0  0  0  0  0  0  0  0  0
  -25.2342  -29.8612   20.5242 C   0  0  1  0  0  0  0  0  0  0  0  0
  -27.6946  -13.0301   19.6832 C   0  0  2  0  0  0  0  0  0  0  0  0
  -32.5061  -19.4639   19.5016 C   0  0  0  0  0  0  0  0  0  0  0  0
  -19.0777  -25.6902   18.3555 C   0  0  0  0  0  0  0  0  0  0  0  0
  -22.2675  -28.1361   23.6199 C   0  0  0  0  0  0  0  0  0  0  0  0
  -20.5028  -26.6203   22.6943 C   0  0  0  0  0  0  0  0  0  0  0  0
  -20.3559  -29.0811   22.3132 C   0  0  0  0  0  0  0  0  0  0  0  0
  -28.6933  -19.5502   24.3882 C   0  0  0  0  0  0  0  0  0  0  0  0
  -22.1677  -26.4352   16.2644 C   0  0  0  0  0  0  0  0  0  0  0  0
  -22.1026  -27.7371   21.0743 C   0  0  1  0  0  0  0  0  0  0  0  0
  -20.3492  -26.4334   17.9766 C   0  0  2  0  0  0  0  0  0  0  0  0
  -21.3343  -27.8909   22.4173 C   0  0  0  0  0  0  0  0  0  0  0  0
  -25.8626  -11.5021   20.3078 N   0  0  0  0  0  0  0  0  0  0  0  0
  -26.2738  -12.7716   20.1487 N   0  0  0  0  0  0  0  0  0  0  0  0
  -31.0022  -21.0965   21.3017 N   0  0  3  0  0  0  0  0  0  0  0  0
  -24.3333  -28.7115   20.6291 N   0  0  0  0  0  0  0  0  0  0  0  0
  -30.0229  -13.4665   20.3604 N   0  0  0  0  0  0  0  0  0  0  0  0
  -25.5646  -15.0240   20.3334 N   0  0  0  0  0  0  0  0  0  0  0  0
  -21.9086  -12.6762   21.5651 N   0  0  0  0  0  0  0  0  0  0  0  0
  -30.1815  -15.5704   21.4144 N   0  0  0  0  0  0  0  0  0  0  0  0
  -29.1403  -19.9993   23.1077 N   0  0  0  0  0  0  0  0  0  0  0  0
  -25.9672  -31.4920   22.1554 N   0  0  0  0  0  0  0  0  0  0  0  0
  -21.2425  -27.5310   19.9141 N   0  0  0  0  0  0  0  0  0  0  0  0
  -20.9250  -25.7907   16.7616 N   0  3  0  0  0  0  0  0  0  0  0  0
  -22.7419  -14.7870   21.2350 O   0  0  0  0  0  0  0  0  0  0  0  0
  -25.9022  -29.2286   22.6987 O   0  0  0  0  0  0  0  0  0  0  0  0
  -22.4203  -30.0443   20.6245 O   0  0  0  0  0  0  0  0  0  0  0  0
  -22.1649  -25.5030   19.2708 O   0  0  0  0  0  0  0  0  0  0  0  0
  -31.9455  -14.7346   20.1607 O   0  0  0  0  0  0  0  0  0  0  0  0
  -21.4886   -7.1268   21.8159 O   0  0  0  0  0  0  0  0  0  0  0  0
  -28.8699  -24.5782   20.0059 O   0  0  0  0  0  0  0  0  0  1  0  0
  -18.4658   -7.1676   26.4273 F   0  0  0  0  0  0  0  0  0  0  0  0
  -21.8759   -5.2229   23.7826 F   0  0  0  0  0  0  0  0  0  0  0  0
  1  2  1  0  0  0  0
  1  5  2  0  0  0  0
  2  6  2  0  0  0  0
  3  8  2  0  0  0  0
  3 17  1  0  0  0  0
  4  9  1  0  0  0  0
  4 17  2  0  0  0  0
  5 19  1  0  0  0  0
  6 21  1  0  0  0  0
  7 10  2  0  0  0  0
  7 20  1  0  0  0  0
  8 27  1  0  0  0  0
  9 27  2  0  0  0  0
 10 28  1  0  0  0  0
 11 12  2  0  0  0  0
 11 29  1  0  0  0  0
 12 30  1  0  0  0  0
 13 22  1  0  0  0  0
 13 28  2  0  0  0  0
 14 23  2  0  0  0  0
 14 25  1  0  0  0  0
 15 25  2  0  0  0  0
 15 26  1  0  0  0  0
 16 30  2  0  0  0  0
 16 31  1  0  0  0  0
 17 32  1  0  0  0  0
 18 32  1  0  0  0  0
 18 33  2  0  0  0  0
 18 36  1  0  0  0  0
 19 21  2  0  0  0  0
 19 41  1  0  0  0  0
 20 22  2  0  0  0  0
 20 42  1  0  0  0  0
 21 53  1  0  0  0  0
 22 43  1  0  0  0  0
 23 24  1  0  0  0  0
 23 56  1  0  0  0  0
 24 26  2  0  0  0  0
 24 68  1  0  0  0  0
 25 73  1  0  0  0  0
 26 74  1  0  0  0  0
 27 83  1  0  0  0  0
 28 84  1  0  0  0  0
 29 31  2  0  0  0  0
 29 83  1  0  0  0  0
 30 85  1  0  0  0  0
 31 86  1  0  0  0  0
 32 66  2  0  0  0  0
 33 67  1  0  0  0  0
 33 71  1  0  0  0  0
 34 35  2  0  0  0  0
 34 44  1  0  0  0  0
 34 45  1  0  0  0  0
 35 84  1  0  0  0  0
 36 72  1  0  0  0  0
 36 78  2  0  0  0  0
 37 54  1  0  0  0  0
 37 75  1  0  0  0  0
 37 79  2  0  0  0  0
 38 63  1  0  0  0  0
 38 69  1  0  0  0  0
 38 80  2  0  0  0  0
 39 64  1  0  0  0  0
 39 76  1  0  0  0  0
 39 81  2  0  0  0  0
 40 70  1  0  0  0  0
 40 73  1  0  0  0  0
 40 82  2  0  0  0  0
 41 46  1  0  0  0  0
 42 54  1  0  0  0  0
 43 69  1  0  0  0  0
 44 50  1  0  0  0  0
 45 68  1  0  0  0  0
 46 48  1  0  0  0  0
 47 49  1  0  0  0  0
 47 51  1  0  0  0  0
 48 53  1  0  0  0  0
 49 55  1  0  0  0  0
 50 68  1  0  0  0  0
 51 70  1  0  0  0  0
 52 55  1  0  0  0  0
 52 70  1  0  0  0  0
 53 75  1  0  0  0  0
 54 69  1  0  0  0  0
 55 67  1  0  0  0  0
 57 64  1  0  0  0  0
 58 65  1  0  0  0  0
 59 65  1  0  0  0  0
 60 65  1  0  0  0  0
 61 74  1  0  0  0  0
 62 77  1  0  0  0  0
 63 65  1  0  0  0  0
 63 76  1  0  0  0  0
 64 77  1  0  0  0  0
 66 67  1  0  0  0  0
M  CHG  1  77   1
M  ISO  4  35 101  40 100  73 100  84 101
M  END
> <Batch ID>
0144

> <Smiles>
CNc1cc([100NH:0][100C:0](=O)N2CCCC(n3nc(-c4ccc(Oc5ccc(F)cc5F)cc4)c(C(N)=O)c3N)C2)cc(C)c1N1CCC(=[101CH:1][101O:1]c2ccc3c(c2)CN(C(=O)C(NC(=O)C(C)NC)C(C)(C)C)C(C(=O)NC2CCCc4ccccc42)C3)C1

> <Shape>
0.362

> <Color>
0.211

> <Negative vol penalty>
0.000

$$$$

  -OEChem-04052303043D

 87 95  0     1  0  0  0  0  0999 V2000
  -18.6270  -32.5375   19.7712 C   0  0  0  0  0  0  0  0  0  0  0  0
  -19.9739  -32.2722   19.5455 C   0  0  0  0  0  0  0  0  0  0  0  0
  -32.8328  -18.1802   21.4446 C   0  0  0  0  0  0  0  0  0  0  0  0
  -23.0347  -10.0467   21.5524 C   0  0  0  0  0  0  0  0  0  0  0  0
  -23.9128  -10.9081   23.6318 C   0  0  0  0  0  0  0  0  0  0  0  0
  -32.0811  -19.2870   21.8390 C   0  0  0  0  0  0  0  0  0  0  0  0
  -18.0229  -32.1134   20.9541 C   0  0  0  0  0  0  0  0  0  0  0  0
  -20.7177  -31.5836   20.5031 C   0  0  0  0  0  0  0  0  0  0  0  0
  -25.2732  -27.6213   19.4761 C   0  0  0  0  0  0  0  0  0  0  0  0
  -32.1922  -17.0337   20.9744 C   0  0  0  0  0  0  0  0  0  0  0  0
  -22.2968   -9.0962   22.2577 C   0  0  0  0  0  0  0  0  0  0  0  0
  -23.1748   -9.9576   24.3372 C   0  0  0  0  0  0  0  0  0  0  0  0
  -26.6602  -27.7603   19.4990 C   0  0  0  0  0  0  0  0  0  0  0  0
  -22.8602   -6.1259   23.7691 C   0  0  0  0  0  0  0  0  0  0  0  0
  -22.8710   -4.8147   23.2935 C   0  0  0  0  0  0  0  0  0  0  0  0
  -30.0483  -18.1009   21.2930 C   0  0  0  0  0  0  0  0  0  0  0  0
  -26.6992  -26.9375   21.7663 C   0  0  0  0  0  0  0  0  0  0  0  0
  -20.4726   -4.8965   23.0137 C   0  0  0  0  0  0  0  0  0  0  0  0
  -23.8428  -10.9527   22.2394 C   0  0  0  0  0  0  0  0  0  0  0  0
  -30.6889  -19.2474   21.7632 C   0  0  0  0  0  0  0  0  0  0  0  0
  -24.1955  -13.2311   21.1476 C   0  0  0  0  0  0  0  0  0  0  0  0
  -18.7573  -31.4108   21.9224 C   0  0  0  0  0  0  0  0  0  0  0  0
  -24.5864  -27.1489   20.6038 C   0  0  0  0  0  0  0  0  0  0  0  0
  -20.1232  -31.1509   21.7006 C   0  0  0  0  0  0  0  0  0  0  0  0
  -25.3037  -26.7910   21.7543 C   0  0  0  0  0  0  0  0  0  0  0  0
  -30.8000  -16.9941   20.8986 C   0  0  0  0  0  0  0  0  0  0  0  0
  -22.3668   -9.0516   23.6501 C   0  0  0  0  0  0  0  0  0  0  0  0
  -27.3732  -27.4211   20.6452 C   0  0  0  0  0  0  0  0  0  0  0  0
  -21.6556   -6.8224   23.8671 C   0  0  0  0  0  0  0  0  0  0  0  0
  -21.6772   -4.2000   22.9158 C   0  0  0  0  0  0  0  0  0  0  0  0
  -20.4619   -6.2077   23.4893 C   0  0  0  0  0  0  0  0  0  0  0  0
  -24.6057  -11.9345   21.5114 C   0  0  0  0  0  0  0  0  0  0  0  0
  -25.2726  -13.7563   20.4763 C   0  0  0  0  0  0  0  0  0  0  0  0
  -29.8918  -20.4194   22.1802 C   0  0  0  0  0  0  0  0  0  0  0  0
  -22.9522  -13.9010   21.3946 C   0  0  0  0  0  0  0  0  0  0  0  0
  -22.3739  -28.3455   22.5472 C   0  0  0  0  0  0  0  0  0  0  0  0
  -22.4055  -25.3503   23.7922 C   0  0  0  0  0  0  0  0  0  0  0  0
  -29.4116  -22.8279   21.7986 C   0  0  0  0  0  0  0  0  0  0  0  0
  -24.1084  -22.4333   24.2801 C   0  0  0  0  0  0  0  0  0  0  0  0
  -30.7476  -14.6451   19.9898 C   0  0  0  0  0  0  0  0  0  0  0  0
  -18.0725  -31.0140   23.2062 C   0  0  0  0  0  0  0  0  0  0  0  0
  -23.0927  -26.9794   20.5539 C   0  0  0  0  0  0  0  0  0  0  0  0
  -24.6157  -26.2599   22.9844 C   0  0  0  0  0  0  0  0  0  0  0  0
  -18.8381  -29.9623   24.0050 C   0  0  0  0  0  0  0  0  0  0  0  0
  -29.4948  -11.5406   18.7777 C   0  0  0  0  0  0  0  0  0  0  0  0
  -20.3153  -30.3317   24.0960 C   0  0  0  0  0  0  0  0  0  0  0  0
  -28.0774  -11.4730   19.3509 C   0  0  0  0  0  0  0  0  0  0  0  0
  -30.4727  -12.1863   19.7577 C   0  0  0  0  0  0  0  0  0  0  0  0
  -28.6452  -13.4329   20.8419 C   0  0  0  0  0  0  0  0  0  0  0  0
  -20.9573  -30.3849   22.7044 C   0  0  1  0  0  0  0  0  0  0  0  0
  -22.4454  -26.9750   21.9353 C   0  0  1  0  0  0  0  0  0  0  0  0
  -27.6113  -12.8491   19.8653 C   0  0  2  0  0  0  0  0  0  0  0  0
  -23.8888  -20.1822   25.3672 C   0  0  0  0  0  0  0  0  0  0  0  0
  -22.8799  -26.6255   26.5233 C   0  0  0  0  0  0  0  0  0  0  0  0
  -23.5885  -24.3791   27.3716 C   0  0  0  0  0  0  0  0  0  0  0  0
  -21.2646  -24.7163   26.5299 C   0  0  0  0  0  0  0  0  0  0  0  0
  -30.9679  -26.8429   20.3743 C   0  0  0  0  0  0  0  0  0  0  0  0
  -29.1491  -26.1475   18.7901 C   0  0  0  0  0  0  0  0  0  0  0  0
  -24.4053  -21.0263   21.6934 C   0  0  0  0  0  0  0  0  0  0  0  0
  -29.8728  -23.9453   20.8914 C   0  0  0  0  0  0  0  0  0  0  0  0
  -29.1443  -25.2563   21.1834 C   0  0  0  0  0  0  0  0  0  0  0  0
  -23.1823  -24.6543   24.8836 C   0  0  1  0  0  0  0  0  0  0  0  0
  -23.6993  -20.9840   24.0889 C   0  0  2  0  0  0  0  0  0  0  0  0
  -22.7419  -25.1056   26.3047 C   0  0  0  0  0  0  0  0  0  0  0  0
  -29.5000  -26.4323   20.2518 C   0  0  0  0  0  0  0  0  0  1  0  0
  -25.8464  -11.6530   21.1046 N   0  0  0  0  0  0  0  0  0  0  0  0
  -26.2251  -12.7801   20.4783 N   0  0  0  0  0  0  0  0  0  0  0  0
  -23.1535  -26.1182   22.8886 N   0  0  0  0  0  0  0  0  0  0  0  0
  -29.9673  -13.4883   20.1986 N   0  0  0  0  0  0  0  0  0  0  0  0
  -25.4882  -14.9531   19.8902 N   0  0  0  0  0  0  0  0  0  0  0  0
  -21.9528  -13.2162   22.0994 N   0  0  0  0  0  0  0  0  0  0  0  0
  -30.1502  -15.8291   20.4208 N   0  0  0  0  0  0  0  0  0  0  0  0
  -30.0896  -21.5788   21.5376 N   0  0  0  0  0  0  0  0  0  0  0  0
  -21.2293  -29.0479   22.2218 N   0  0  0  0  0  0  0  0  0  0  0  0
  -23.0369  -23.2234   24.6392 N   0  0  0  0  0  0  0  0  0  0  0  0
  -29.0215  -20.2552   23.1760 N   0  3  0  0  0  0  0  0  0  0  0  0
  -24.5151  -20.3531   23.0131 N   0  3  0  0  0  0  0  0  0  0  0  0
  -22.7278  -15.0661   20.9877 O   0  0  0  0  0  0  0  0  0  0  0  0
  -23.2889  -28.7361   23.2627 O   0  0  0  0  0  0  0  0  0  0  0  0
  -21.1809  -25.2118   23.7391 O   0  0  0  0  0  0  0  0  0  0  0  0
  -28.5617  -22.9251   22.6717 O   0  0  0  0  0  0  0  0  0  0  0  0
  -25.2637  -22.8247   24.1299 O   0  0  0  0  0  0  0  0  0  0  0  0
  -31.8521  -14.5929   19.4426 O   0  0  0  0  0  0  0  0  0  0  0  0
  -21.6467   -8.1244   24.3387 O   0  0  0  0  0  0  0  0  0  0  0  0
  -28.7270  -27.5564   20.6705 O   0  0  0  0  0  0  0  0  0  1  0  0
  -21.6880   -2.9414   22.4576 F   0  0  0  0  0  0  0  0  0  0  0  0
  -19.3017   -6.8722   23.5801 F   0  0  0  0  0  0  0  0  0  0  0  0
  1  2  1  0  0  0  0
  1  7  2  0  0  0  0
  2  8  2  0  0  0  0
  3  6  2  0  0  0  0
  3 10  1  0  0  0  0
  4 11  2  0  0  0  0
  4 19  1  0  0  0  0
  5 12  1  0  0  0  0
  5 19  2  0  0  0  0
  6 20  1  0  0  0  0
  7 22  1  0  0  0  0
  8 24  1  0  0  0  0
  9 13  2  0  0  0  0
  9 23  1  0  0  0  0
 10 26  2  0  0  0  0
 11 27  1  0  0  0  0
 12 27  2  0  0  0  0
 13 28  1  0  0  0  0
 14 15  2  0  0  0  0
 14 29  1  0  0  0  0
 15 30  1  0  0  0  0
 16 20  2  0  0  0  0
 16 26  1  0  0  0  0
 17 25  1  0  0  0  0
 17 28  2  0  0  0  0
 18 30  2  0  0  0  0
 18 31  1  0  0  0  0
 19 32  1  0  0  0  0
 20 34  1  0  0  0  0
 21 32  1  0  0  0  0
 21 33  2  0  0  0  0
 21 35  1  0  0  0  0
 22 24  2  0  0  0  0
 22 41  1  0  0  0  0
 23 25  2  0  0  0  0
 23 42  1  0  0  0  0
 24 50  1  0  0  0  0
 25 43  1  0  0  0  0
 26 72  1  0  0  0  0
 27 84  1  0  0  0  0
 28 85  1  0  0  0  0
 29 31  2  0  0  0  0
 29 84  1  0  0  0  0
 30 86  1  0  0  0  0
 31 87  1  0  0  0  0
 32 66  2  0  0  0  0
 33 67  1  0  0  0  0
 33 70  1  0  0  0  0
 34 73  1  0  0  0  0
 34 76  2  0  0  0  0
 35 71  1  0  0  0  0
 35 78  2  0  0  0  0
 36 51  1  0  0  0  0
 36 74  1  0  0  0  0
 36 79  2  0  0  0  0
 37 62  1  0  0  0  0
 37 68  1  0  0  0  0
 37 80  2  0  0  0  0
 38 60  1  0  0  0  0
 38 73  1  0  0  0  0
 38 81  2  0  0  0  0
 39 63  1  0  0  0  0
 39 75  1  0  0  0  0
 39 82  2  0  0  0  0
 40 69  1  0  0  0  0
 40 72  1  0  0  0  0
 40 83  2  0  0  0  0
 41 44  1  0  0  0  0
 42 51  1  0  0  0  0
 43 68  1  0  0  0  0
 44 46  1  0  0  0  0
 45 47  1  0  0  0  0
 45 48  1  0  0  0  0
 46 50  1  0  0  0  0
 47 52  1  0  0  0  0
 48 69  1  0  0  0  0
 49 52  1  0  0  0  0
 49 69  1  0  0  0  0
 50 74  1  0  0  0  0
 51 68  1  0  0  0  0
 52 67  1  0  0  0  0
 53 63  1  0  0  0  0
 54 64  1  0  0  0  0
 55 64  1  0  0  0  0
 56 64  1  0  0  0  0
 57 65  1  0  0  0  0
 58 65  1  0  0  0  0
 59 77  1  0  0  0  0
 60 61  1  0  0  0  0
 61 65  1  0  0  0  0
 62 64  1  0  0  0  0
 62 75  1  0  0  0  0
 63 77  1  0  0  0  0
 65 85  1  0  0  0  0
 66 67  1  0  0  0  0
M  CHG  2  76   1  77   1
M  ISO  4  40 100  65 101  72 100  85 101
M  END
> <Batch ID>
0144

> <Smiles>
CNC(C)C(=O)NC(C(=O)N1Cc2cc([101O:1][101C:1](C)(C)CCC(=O)NC(=N)c3cccc([100NH:0][100C:0](=O)N4CCCC(n5nc(-c6ccc(Oc7ccc(F)cc7F)cc6)c(C(N)=O)c5N)C4)c3)ccc2CC1C(=O)NC1CCCc2ccccc21)C(C)(C)C

> <Shape>
0.270

> <Color>
0.195

> <Negative vol penalty>
0.000

$$$$

  -OEChem-04052303043D

 89 97  0     1  0  0  0  0  0999 V2000
  -30.5993  -14.5973   14.5503 C   0  0  0  0  0  0  0  0  0  0  0  0
  -31.2770  -15.2778   15.5567 C   0  0  0  0  0  0  0  0  0  0  0  0
  -23.0749   -9.8679   19.9421 C   0  0  0  0  0  0  0  0  0  0  0  0
  -23.8317   -9.8782   22.2365 C   0  0  0  0  0  0  0  0  0  0  0  0
  -30.2166  -15.2704   13.3908 C   0  0  0  0  0  0  0  0  0  0  0  0
  -31.5735  -16.6317   15.4038 C   0  0  0  0  0  0  0  0  0  0  0  0
  -29.1743  -21.5101   20.1300 C   0  0  0  0  0  0  0  0  0  0  0  0
  -22.3305   -8.7152   20.1928 C   0  0  0  0  0  0  0  0  0  0  0  0
  -23.0873   -8.7255   22.4872 C   0  0  0  0  0  0  0  0  0  0  0  0
  -28.9300  -22.4773   21.1052 C   0  0  0  0  0  0  0  0  0  0  0  0
  -19.9449   -5.9753   20.3221 C   0  0  0  0  0  0  0  0  0  0  0  0
  -18.6398   -5.9267   19.8321 C   0  0  0  0  0  0  0  0  0  0  0  0
  -29.9420  -24.1652   19.7000 C   0  0  0  0  0  0  0  0  0  0  0  0
  -18.0731   -7.8717   21.1486 C   0  0  0  0  0  0  0  0  0  0  0  0
  -31.7859  -17.5802   21.7275 C   0  0  0  0  0  0  0  0  0  0  0  0
  -23.8255  -10.4494   20.9639 C   0  0  0  0  0  0  0  0  0  0  0  0
  -24.1678  -12.9743   20.8406 C   0  0  0  0  0  0  0  0  0  0  0  0
  -30.5000  -16.6356   13.2277 C   0  0  0  0  0  0  0  0  0  0  0  0
  -29.7903  -21.8702   18.9282 C   0  0  0  0  0  0  0  0  0  0  0  0
  -31.1954  -17.3235   14.2405 C   0  0  0  0  0  0  0  0  0  0  0  0
  -30.1781  -23.2032   18.7143 C   0  0  0  0  0  0  0  0  0  0  0  0
  -22.3367   -8.1440   21.4653 C   0  0  0  0  0  0  0  0  0  0  0  0
  -29.3131  -23.8015   20.8908 C   0  0  0  0  0  0  0  0  0  0  0  0
  -20.3141   -6.9720   21.2254 C   0  0  0  0  0  0  0  0  0  0  0  0
  -17.7040   -6.8749   20.2453 C   0  0  0  0  0  0  0  0  0  0  0  0
  -19.3782   -7.9202   21.6387 C   0  0  0  0  0  0  0  0  0  0  0  0
  -24.5951  -11.6398   20.7055 C   0  0  0  0  0  0  0  0  0  0  0  0
  -25.2606  -13.7231   20.4777 C   0  0  0  0  0  0  0  0  0  0  0  0
  -30.5825  -16.9377   21.9305 C   0  0  0  0  0  0  0  0  0  0  0  0
  -30.8242  -19.0782   23.0085 C   0  0  0  0  0  0  0  0  0  0  0  0
  -22.8969  -13.4909   21.2571 C   0  0  0  0  0  0  0  0  0  0  0  0
  -31.0505  -20.7676   15.5709 C   0  0  0  0  0  0  0  0  0  0  0  0
  -30.4551  -23.5651   24.1825 C   0  0  0  0  0  0  0  0  0  0  0  0
  -29.6991  -23.4914   15.1647 C   0  0  0  0  0  0  0  0  0  0  0  0
  -27.7564  -26.2938   15.0679 C   0  0  0  0  0  0  0  0  0  0  0  0
  -30.7267  -14.7682   20.6582 C   0  0  0  0  0  0  0  0  0  0  0  0
  -30.1081  -17.3092   11.9365 C   0  0  0  0  0  0  0  0  0  0  0  0
  -30.1286  -20.8502   17.8752 C   0  0  0  0  0  0  0  0  0  0  0  0
  -30.8690  -23.5381   17.4208 C   0  0  0  0  0  0  0  0  0  0  0  0
  -30.1297  -18.8336   12.0137 C   0  0  0  0  0  0  0  0  0  0  0  0
  -29.6151  -12.3511   18.2919 C   0  0  0  0  0  0  0  0  0  0  0  0
  -31.4131  -19.3161   12.6823 C   0  0  0  0  0  0  0  0  0  0  0  0
  -28.1748  -12.0604   18.7200 C   0  0  0  0  0  0  0  0  0  0  0  0
  -30.5286  -12.5815   19.4944 C   0  0  0  0  0  0  0  0  0  0  0  0
  -28.6200  -13.3082   20.8721 C   0  0  0  0  0  0  0  0  0  0  0  0
  -31.5133  -18.7983   14.1222 C   0  0  1  0  0  0  0  0  0  0  0  0
  -30.0043  -21.3982   16.4422 C   0  0  1  0  0  0  0  0  0  0  0  0
  -27.6487  -13.1334   19.6933 C   0  0  2  0  0  0  0  0  0  0  0  0
  -31.4782  -24.1740   26.3391 C   0  0  0  0  0  0  0  0  0  0  0  0
  -26.8948  -28.0396   13.4844 C   0  0  0  0  0  0  0  0  0  0  0  0
  -32.4419  -24.8259   15.1495 C   0  0  0  0  0  0  0  0  0  0  0  0
  -31.3287  -26.9439   14.4126 C   0  0  0  0  0  0  0  0  0  0  0  0
  -31.2261  -24.9144   12.9658 C   0  0  0  0  0  0  0  0  0  0  0  0
  -30.7462  -19.2690   26.1266 C   0  0  0  0  0  0  0  0  0  0  0  0
  -32.7912  -20.2867   25.1178 C   0  0  0  0  0  0  0  0  0  0  0  0
  -29.6911  -26.4231   23.4317 C   0  0  0  0  0  0  0  0  0  0  0  0
  -30.9197  -26.1768   21.2641 C   0  0  0  0  0  0  0  0  0  0  0  0
  -24.9407  -25.5556   15.6029 C   0  0  0  0  0  0  0  0  0  0  0  0
  -30.5971  -20.3377   23.8140 C   0  0  0  0  0  0  0  0  0  0  0  0
  -31.1120  -24.3914   23.0780 C   0  0  0  0  0  0  0  0  0  0  0  0
  -30.8841  -21.7539   25.9365 C   0  0  0  0  0  0  0  0  0  0  0  0
  -31.3851  -23.0634   25.2902 C   0  0  1  0  0  0  0  0  0  0  0  0
  -29.8657  -24.9883   15.0956 C   0  0  1  0  0  0  0  0  0  0  0  0
  -26.6185  -26.6997   14.1486 C   0  0  2  0  0  0  0  0  0  0  0  0
  -31.2076  -25.4052   14.4299 C   0  0  0  0  0  0  0  0  0  0  0  0
  -31.2579  -20.4118   25.2201 C   0  0  0  0  0  0  0  0  0  0  0  0
  -30.2032  -25.4230   22.3878 C   0  0  0  0  0  0  0  0  0  1  0  0
  -31.9261  -18.8080   22.3445 N   0  0  0  0  0  0  0  0  0  0  0  0
  -25.8605  -11.5431   20.2890 N   0  0  0  0  0  0  0  0  0  0  0  0
  -26.2377  -12.8265   20.1593 N   0  0  0  0  0  0  0  0  0  0  0  0
  -30.2034  -22.8508   16.3031 N   0  0  0  0  0  0  0  0  0  0  0  0
  -29.9686  -13.6137   20.3696 N   0  0  0  0  0  0  0  0  0  0  0  0
  -25.4712  -15.0544   20.4030 N   0  0  0  0  0  0  0  0  0  0  0  0
  -21.8844  -12.5823   21.5943 N   0  0  0  0  0  0  0  0  0  0  0  0
  -30.0784  -15.6945   21.4744 N   0  0  0  0  0  0  0  0  0  0  0  0
  -30.6599  -19.5722   14.9982 N   0  0  0  0  0  0  0  0  0  0  0  0
  -28.6788  -25.5003   14.4192 N   0  0  0  0  0  0  0  0  0  0  0  0
  -25.3461  -26.8093   14.9167 N   0  3  0  0  0  0  0  0  0  0  0  0
  -22.6607  -14.7216   21.3123 O   0  0  0  0  0  0  0  0  0  0  0  0
  -32.1326  -21.3244   15.4267 O   0  0  0  0  0  0  0  0  0  0  0  0
  -29.2404  -23.3731   24.2289 O   0  0  0  0  0  0  0  0  0  0  0  0
  -29.1425  -22.9028   14.2336 O   0  0  0  0  0  0  0  0  0  0  0  0
  -27.8224  -26.6485   16.2428 O   0  0  0  0  0  0  0  0  0  0  0  0
  -31.8564  -14.9360   20.1918 O   0  0  0  0  0  0  0  0  0  0  0  0
  -21.6103   -7.0194   21.7104 O   0  0  0  0  0  0  0  0  0  0  0  0
  -29.0663  -24.7461   21.8499 O   0  0  0  0  0  0  0  0  0  1  0  0
  -16.4512   -6.8291   19.7735 F   0  0  0  0  0  0  0  0  0  0  0  0
  -19.7273   -8.8808   22.5054 F   0  0  0  0  0  0  0  0  0  0  0  0
  -29.5789  -17.8997   22.9347 S   0  0  0  0  0  0  0  0  0  0  0  0
  1  2  1  0  0  0  0
  1  5  2  0  0  0  0
  2  6  2  0  0  0  0
  3  8  2  0  0  0  0
  3 16  1  0  0  0  0
  4  9  1  0  0  0  0
  4 16  2  0  0  0  0
  5 18  1  0  0  0  0
  6 20  1  0  0  0  0
  7 10  2  0  0  0  0
  7 19  1  0  0  0  0
  8 22  1  0  0  0  0
  9 22  2  0  0  0  0
 10 23  1  0  0  0  0
 11 12  2  0  0  0  0
 11 24  1  0  0  0  0
 12 25  1  0  0  0  0
 13 21  1  0  0  0  0
 13 23  2  0  0  0  0
 14 25  2  0  0  0  0
 14 26  1  0  0  0  0
 15 29  2  0  0  0  0
 15 68  1  0  0  0  0
 16 27  1  0  0  0  0
 17 27  1  0  0  0  0
 17 28  2  0  0  0  0
 17 31  1  0  0  0  0
 18 20  2  0  0  0  0
 18 37  1  0  0  0  0
 19 21  2  0  0  0  0
 19 38  1  0  0  0  0
 20 46  1  0  0  0  0
 21 39  1  0  0  0  0
 22 85  1  0  0  0  0
 23 86  1  0  0  0  0
 24 26  2  0  0  0  0
 24 85  1  0  0  0  0
 25 87  1  0  0  0  0
 26 88  1  0  0  0  0
 27 69  2  0  0  0  0
 28 70  1  0  0  0  0
 28 73  1  0  0  0  0
 29 75  1  0  0  0  0
 29 89  1  0  0  0  0
 30 59  1  0  0  0  0
 30 68  2  0  0  0  0
 30 89  1  0  0  0  0
 31 74  1  0  0  0  0
 31 79  2  0  0  0  0
 32 47  1  0  0  0  0
 32 76  1  0  0  0  0
 32 80  2  0  0  0  0
 33 60  1  0  0  0  0
 33 62  1  0  0  0  0
 33 81  2  0  0  0  0
 34 63  1  0  0  0  0
 34 71  1  0  0  0  0
 34 82  2  0  0  0  0
 35 64  1  0  0  0  0
 35 77  1  0  0  0  0
 35 83  2  0  0  0  0
 36 72  1  0  0  0  0
 36 75  1  0  0  0  0
 36 84  2  0  0  0  0
 37 40  1  0  0  0  0
 38 47  1  0  0  0  0
 39 71  1  0  0  0  0
 40 42  1  0  0  0  0
 41 43  1  0  0  0  0
 41 44  1  0  0  0  0
 42 46  1  0  0  0  0
 43 48  1  0  0  0  0
 44 72  1  0  0  0  0
 45 48  1  0  0  0  0
 45 72  1  0  0  0  0
 46 76  1  0  0  0  0
 47 71  1  0  0  0  0
 48 70  1  0  0  0  0
 49 62  1  0  0  0  0
 50 64  1  0  0  0  0
 51 65  1  0  0  0  0
 52 65  1  0  0  0  0
 53 65  1  0  0  0  0
 54 66  1  0  0  0  0
 55 66  1  0  0  0  0
 56 67  1  0  0  0  0
 57 67  1  0  0  0  0
 58 78  1  0  0  0  0
 59 66  1  0  0  0  0
 60 67  1  0  0  0  0
 61 62  1  0  0  0  0
 61 66  1  0  0  0  0
 63 65  1  0  0  0  0
 63 77  1  0  0  0  0
 64 78  1  0  0  0  0
 67 86  1  0  0  0  0
 69 70  1  0  0  0  0
M  CHG  1  78   1
M  ISO  4  36 100  67 101  75 100  86 101
M  END
> <Batch ID>
0144

> <Smiles>
CNC(C)C(=O)NC(C(=O)N1Cc2cc([101O:1][101C:1](C)(C)CC(=O)C(C)CC(C)(C)Cc3ncc([100NH:0][100C:0](=O)N4CCCC(n5nc(-c6ccc(Oc7ccc(F)cc7F)cc6)c(C(N)=O)c5N)C4)s3)ccc2CC1C(=O)NC1CCCc2ccccc21)C(C)(C)C

> <Shape>
0.201

> <Color>
0.176

> <Negative vol penalty>
0.000

$$$$

  -OEChem-04052303043D

 89 98  0     1  0  0  0  0  0999 V2000
  -23.8627  -21.6287   20.6054 C   0  0  0  0  0  0  0  0  0  0  0  0
  -25.0684  -21.3051   21.2194 C   0  0  0  0  0  0  0  0  0  0  0  0
  -29.5943  -19.3304   22.3476 C   0  0  0  0  0  0  0  0  0  0  0  0
  -23.0957   -9.8413   19.9449 C   0  0  0  0  0  0  0  0  0  0  0  0
  -23.8484   -9.8700   22.2405 C   0  0  0  0  0  0  0  0  0  0  0  0
  -30.4897  -19.9343   21.4649 C   0  0  0  0  0  0  0  0  0  0  0  0
  -23.8576  -22.4084   19.4495 C   0  0  0  0  0  0  0  0  0  0  0  0
  -26.2698  -21.7602   20.6773 C   0  0  0  0  0  0  0  0  0  0  0  0
  -31.3021  -23.4156   23.7501 C   0  0  0  0  0  0  0  0  0  0  0  0
  -29.4424  -17.9438   22.3470 C   0  0  0  0  0  0  0  0  0  0  0  0
  -22.3639   -8.6815   20.1994 C   0  0  0  0  0  0  0  0  0  0  0  0
  -23.1165   -8.7102   22.4950 C   0  0  0  0  0  0  0  0  0  0  0  0
  -32.4868  -22.7414   24.0425 C   0  0  0  0  0  0  0  0  0  0  0  0
  -19.8955   -7.8802   23.0923 C   0  0  0  0  0  0  0  0  0  0  0  0
  -19.1354   -7.8387   24.2611 C   0  0  0  0  0  0  0  0  0  0  0  0
  -31.0812  -17.7650   20.5809 C   0  0  0  0  0  0  0  0  0  0  0  0
  -33.5371  -23.7695   22.1296 C   0  0  0  0  0  0  0  0  0  0  0  0
  -20.3959   -5.9194   25.0127 C   0  0  0  0  0  0  0  0  0  0  0  0
  -23.8380  -10.4356   20.9655 C   0  0  0  0  0  0  0  0  0  0  0  0
  -31.2331  -19.1516   20.5815 C   0  0  0  0  0  0  0  0  0  0  0  0
  -24.1523  -12.9636   20.8318 C   0  0  0  0  0  0  0  0  0  0  0  0
  -25.0590  -22.8813   18.8984 C   0  0  0  0  0  0  0  0  0  0  0  0
  -31.2226  -24.2649   22.6370 C   0  0  0  0  0  0  0  0  0  0  0  0
  -26.2809  -22.5459   19.5123 C   0  0  0  0  0  0  0  0  0  0  0  0
  -32.3510  -24.4553   21.8267 C   0  0  0  0  0  0  0  0  0  0  0  0
  -30.1858  -17.1611   21.4637 C   0  0  0  0  0  0  0  0  0  0  0  0
  -22.3743   -8.1159   21.4744 C   0  0  0  0  0  0  0  0  0  0  0  0
  -33.6037  -22.9160   23.2306 C   0  0  0  0  0  0  0  0  0  0  0  0
  -20.9058   -6.9412   22.8836 C   0  0  0  0  0  0  0  0  0  0  0  0
  -19.3856   -6.8583   25.2213 C   0  0  0  0  0  0  0  0  0  0  0  0
  -21.1560   -5.9609   23.8438 C   0  0  0  0  0  0  0  0  0  0  0  0
  -24.5947  -11.6334   20.7032 C   0  0  0  0  0  0  0  0  0  0  0  0
  -25.2372  -13.7231   20.4675 C   0  0  0  0  0  0  0  0  0  0  0  0
  -35.3820  -20.0112   21.2629 C   0  0  0  0  0  0  0  0  0  0  0  0
  -36.1643  -20.2688   22.3158 C   0  0  0  0  0  0  0  0  0  0  0  0
  -32.1798  -19.7887   19.6488 C   0  0  0  0  0  0  0  0  0  0  0  0
  -22.8749  -13.4678   21.2438 C   0  0  0  0  0  0  0  0  0  0  0  0
  -29.4948  -24.3107   19.9693 C   0  0  0  0  0  0  0  0  0  0  0  0
  -30.9435  -27.1815   19.5429 C   0  0  0  0  0  0  0  0  0  0  0  0
  -33.5952  -29.2184   20.2259 C   0  0  0  0  0  0  0  0  0  0  0  0
  -30.6909  -14.8301   20.6527 C   0  0  0  0  0  0  0  0  0  0  0  0
  -25.0063  -23.6814   17.6211 C   0  0  0  0  0  0  0  0  0  0  0  0
  -29.9453  -25.0057   22.3505 C   0  0  0  0  0  0  0  0  0  0  0  0
  -32.3236  -25.3717   20.6317 C   0  0  0  0  0  0  0  0  0  0  0  0
  -35.7664  -20.2245   19.8281 C   0  0  0  0  0  0  0  0  0  0  0  0
  -33.9495  -19.5800   21.3437 C   0  0  0  0  0  0  0  0  0  0  0  0
  -26.2985  -24.4370   17.3219 C   0  0  0  0  0  0  0  0  0  0  0  0
  -29.6107  -12.3904   18.2952 C   0  0  0  0  0  0  0  0  0  0  0  0
  -27.5067  -23.5265   17.5169 C   0  0  0  0  0  0  0  0  0  0  0  0
  -28.1730  -12.0854   18.7221 C   0  0  0  0  0  0  0  0  0  0  0  0
  -34.4487  -20.6093   19.1667 C   0  0  0  0  0  0  0  0  0  0  0  0
  -30.5194  -12.6363   19.4983 C   0  0  0  0  0  0  0  0  0  0  0  0
  -28.6003  -13.3476   20.8695 C   0  0  0  0  0  0  0  0  0  0  0  0
  -27.6033  -23.0414   18.9684 C   0  0  1  0  0  0  0  0  0  0  0  0
  -29.8242  -25.4472   20.8953 C   0  0  1  0  0  0  0  0  0  0  0  0
  -27.6331  -13.1568   19.6897 C   0  0  2  0  0  0  0  0  0  0  0  0
  -34.5184  -31.4925   19.7027 C   0  0  0  0  0  0  0  0  0  0  0  0
  -37.0661  -20.5178   24.6065 C   0  0  0  0  0  0  0  0  0  0  0  0
  -35.5030  -18.6183   24.1686 C   0  0  0  0  0  0  0  0  0  0  0  0
  -31.8169  -26.1914   16.7922 C   0  0  0  0  0  0  0  0  0  0  0  0
  -33.4804  -28.0613   16.7242 C   0  0  0  0  0  0  0  0  0  0  0  0
  -31.0410  -28.5682   16.8474 C   0  0  0  0  0  0  0  0  0  0  0  0
  -33.4943  -30.0407   23.0671 C   0  0  0  0  0  0  0  0  0  0  0  0
  -34.6471  -20.9913   24.1595 C   0  0  0  0  0  0  0  0  0  1  0  0
  -32.2201  -27.6477   18.8856 C   0  0  1  0  0  0  0  0  0  0  0  0
  -33.6637  -30.6725   20.6565 C   0  0  2  0  0  0  0  0  0  0  0  0
  -35.8362  -20.0756   23.7906 C   0  0  0  0  0  0  0  0  0  0  0  0
  -32.1399  -27.5983   17.3337 C   0  0  0  0  0  0  0  0  0  0  0  0
  -25.8618  -11.5492   20.2893 N   0  0  0  0  0  0  0  0  0  0  0  0
  -26.2249  -12.8361   20.1546 N   0  0  0  0  0  0  0  0  0  0  0  0
  -33.4326  -19.9768   20.0234 N   0  0  0  0  0  0  0  0  0  0  0  0
  -31.0497  -26.0688   20.3894 N   0  0  0  0  0  0  0  0  0  0  0  0
  -29.9464  -13.6660   20.3679 N   0  0  0  0  0  0  0  0  0  0  0  0
  -25.4331  -15.0563   20.3873 N   0  0  0  0  0  0  0  0  0  0  0  0
  -21.8720  -12.5494   21.5833 N   0  0  0  0  0  0  0  0  0  0  0  0
  -30.0308  -15.7527   21.4638 N   0  0  0  0  0  0  0  0  0  0  0  0
  -28.1403  -24.0848   19.8153 N   0  0  0  0  0  0  0  0  0  0  0  0
  -32.4979  -28.9733   19.4277 N   0  0  0  0  0  0  0  0  0  0  0  0
  -31.7586  -20.1625   18.4442 N   0  3  0  0  0  0  0  0  0  0  0  0
  -34.2485  -30.7810   22.0230 N   0  3  0  0  0  0  0  0  0  0  0  0
  -22.6249  -14.6960   21.2933 O   0  0  0  0  0  0  0  0  0  0  0  0
  -30.4024  -23.6858   19.4331 O   0  0  0  0  0  0  0  0  0  0  0  0
  -29.8922  -27.7869   19.3194 O   0  0  0  0  0  0  0  0  0  0  0  0
  -34.4335  -28.3843   20.5607 O   0  0  0  0  0  0  0  0  0  0  0  0
  -31.8195  -15.0086   20.1876 O   0  0  0  0  0  0  0  0  0  0  0  0
  -21.6600   -6.9843   21.7231 O   0  0  0  0  0  0  0  0  0  0  0  0
  -34.7612  -22.2585   23.5135 O   0  0  0  0  0  0  0  0  0  1  0  0
  -18.6566   -6.8195   26.3444 F   0  0  0  0  0  0  0  0  0  0  0  0
  -22.1259   -5.0569   23.6494 F   0  0  0  0  0  0  0  0  0  0  0  0
  1  2  1  0  0  0  0
  1  7  2  0  0  0  0
  2  8  2  0  0  0  0
  3  6  2  0  0  0  0
  3 10  1  0  0  0  0
  4 11  2  0  0  0  0
  4 19  1  0  0  0  0
  5 12  1  0  0  0  0
  5 19  2  0  0  0  0
  6 20  1  0  0  0  0
  7 22  1  0  0  0  0
  8 24  1  0  0  0  0
  9 13  2  0  0  0  0
  9 23  1  0  0  0  0
 10 26  2  0  0  0  0
 11 27  1  0  0  0  0
 12 27  2  0  0  0  0
 13 28  1  0  0  0  0
 14 15  2  0  0  0  0
 14 29  1  0  0  0  0
 15 30  1  0  0  0  0
 16 20  2  0  0  0  0
 16 26  1  0  0  0  0
 17 25  1  0  0  0  0
 17 28  2  0  0  0  0
 18 30  2  0  0  0  0
 18 31  1  0  0  0  0
 19 32  1  0  0  0  0
 20 36  1  0  0  0  0
 21 32  1  0  0  0  0
 21 33  2  0  0  0  0
 21 37  1  0  0  0  0
 22 24  2  0  0  0  0
 22 42  1  0  0  0  0
 23 25  2  0  0  0  0
 23 43  1  0  0  0  0
 24 54  1  0  0  0  0
 25 44  1  0  0  0  0
 26 76  1  0  0  0  0
 27 86  1  0  0  0  0
 28 87  1  0  0  0  0
 29 31  2  0  0  0  0
 29 86  1  0  0  0  0
 30 88  1  0  0  0  0
 31 89  1  0  0  0  0
 32 69  2  0  0  0  0
 33 70  1  0  0  0  0
 33 74  1  0  0  0  0
 34 35  2  0  0  0  0
 34 45  1  0  0  0  0
 34 46  1  0  0  0  0
 35 67  1  0  0  0  0
 36 71  1  0  0  0  0
 36 79  2  0  0  0  0
 37 75  1  0  0  0  0
 37 81  2  0  0  0  0
 38 55  1  0  0  0  0
 38 77  1  0  0  0  0
 38 82  2  0  0  0  0
 39 65  1  0  0  0  0
 39 72  1  0  0  0  0
 39 83  2  0  0  0  0
 40 66  1  0  0  0  0
 40 78  1  0  0  0  0
 40 84  2  0  0  0  0
 41 73  1  0  0  0  0
 41 76  1  0  0  0  0
 41 85  2  0  0  0  0
 42 47  1  0  0  0  0
 43 55  1  0  0  0  0
 44 72  1  0  0  0  0
 45 51  1  0  0  0  0
 46 71  1  0  0  0  0
 47 49  1  0  0  0  0
 48 50  1  0  0  0  0
 48 52  1  0  0  0  0
 49 54  1  0  0  0  0
 50 56  1  0  0  0  0
 51 71  1  0  0  0  0
 52 73  1  0  0  0  0
 53 56  1  0  0  0  0
 53 73  1  0  0  0  0
 54 77  1  0  0  0  0
 55 72  1  0  0  0  0
 56 70  1  0  0  0  0
 57 66  1  0  0  0  0
 58 67  1  0  0  0  0
 59 67  1  0  0  0  0
 60 68  1  0  0  0  0
 61 68  1  0  0  0  0
 62 68  1  0  0  0  0
 63 80  1  0  0  0  0
 64 67  1  0  0  0  0
 64 87  1  0  0  0  0
 65 68  1  0  0  0  0
 65 78  1  0  0  0  0
 66 80  1  0  0  0  0
 69 70  1  0  0  0  0
M  CHG  2  79   1  80   1
M  ISO  4  41 100  64 101  76 100  87 101
M  END
> <Batch ID>
0144

> <Smiles>
CNC(C)C(=O)NC(C(=O)N1Cc2cc([101O:1][101CH2:1]C(C)(C)C=C3CCN(C(=N)c4cccc([100NH:0][100C:0](=O)N5CCCC(n6nc(-c7ccc(Oc8ccc(F)cc8F)cc7)c(C(N)=O)c6N)C5)c4)C3)ccc2CC1C(=O)NC1CCCc2ccccc21)C(C)(C)C

> <Shape>
0.223

> <Color>
0.187

> <Negative vol penalty>
0.000

$$$$

  -OEChem-04052303043D

 87 96  0     1  0  0  0  0  0999 V2000
  -27.4561  -32.4664   27.4942 C   0  0  0  0  0  0  0  0  0  0  0  0
  -27.7000  -31.4159   26.6154 C   0  0  0  0  0  0  0  0  0  0  0  0
  -22.5912  -12.6715   23.1249 C   0  0  0  0  0  0  0  0  0  0  0  0
  -23.1797  -14.8890   22.3678 C   0  0  0  0  0  0  0  0  0  0  0  0
  -26.1470  -32.8779   27.7406 C   0  0  0  0  0  0  0  0  0  0  0  0
  -26.6348  -30.7756   25.9832 C   0  0  0  0  0  0  0  0  0  0  0  0
  -27.4843  -30.0006   21.0514 C   0  0  0  0  0  0  0  0  0  0  0  0
  -31.4562  -19.0790   18.4961 C   0  0  0  0  0  0  0  0  0  0  0  0
  -29.2792  -19.2286   17.4592 C   0  0  0  0  0  0  0  0  0  0  0  0
  -31.1571  -17.7904   18.9384 C   0  0  0  0  0  0  0  0  0  0  0  0
  -28.9800  -17.9399   17.9014 C   0  0  0  0  0  0  0  0  0  0  0  0
  -21.6233  -13.2164   23.9686 C   0  0  0  0  0  0  0  0  0  0  0  0
  -22.2118  -15.4340   23.2114 C   0  0  0  0  0  0  0  0  0  0  0  0
  -28.3179  -28.9370   20.7083 C   0  0  0  0  0  0  0  0  0  0  0  0
  -18.4846  -14.4436   23.6934 C   0  0  0  0  0  0  0  0  0  0  0  0
  -17.2297  -13.8354   23.7183 C   0  0  0  0  0  0  0  0  0  0  0  0
  -26.3812  -27.5885   20.2083 C   0  0  0  0  0  0  0  0  0  0  0  0
  -17.4925  -13.3896   26.0782 C   0  0  0  0  0  0  0  0  0  0  0  0
  -23.3694  -13.5078   22.3245 C   0  0  0  0  0  0  0  0  0  0  0  0
  -24.1653  -12.0303   20.4032 C   0  0  0  0  0  0  0  0  0  0  0  0
  -25.0657  -32.2487   27.1037 C   0  0  0  0  0  0  0  0  0  0  0  0
  -26.0904  -29.8624   20.9858 C   0  0  0  0  0  0  0  0  0  0  0  0
  -25.3099  -31.1782   26.2223 C   0  0  0  0  0  0  0  0  0  0  0  0
  -25.5322  -28.6527   20.5486 C   0  0  0  0  0  0  0  0  0  0  0  0
  -30.5173  -19.7981   17.7566 C   0  0  0  0  0  0  0  0  0  0  0  0
  -29.9190  -17.2208   18.6410 C   0  0  0  0  0  0  0  0  0  0  0  0
  -21.4336  -14.5976   24.0119 C   0  0  0  0  0  0  0  0  0  0  0  0
  -27.7663  -27.7298   20.2894 C   0  0  0  0  0  0  0  0  0  0  0  0
  -19.2436  -14.5248   24.8610 C   0  0  0  0  0  0  0  0  0  0  0  0
  -16.7335  -13.3084   24.9107 C   0  0  0  0  0  0  0  0  0  0  0  0
  -18.7475  -13.9978   26.0534 C   0  0  0  0  0  0  0  0  0  0  0  0
  -24.3698  -12.9455   21.4532 C   0  0  0  0  0  0  0  0  0  0  0  0
  -25.4202  -11.8111   19.8895 C   0  0  0  0  0  0  0  0  0  0  0  0
  -22.9498  -11.4318   19.9342 C   0  0  0  0  0  0  0  0  0  0  0  0
  -23.7198  -30.0103   23.0981 C   0  0  0  0  0  0  0  0  0  0  0  0
  -21.8648  -29.7338   20.4514 C   0  0  0  0  0  0  0  0  0  0  0  0
  -21.5752  -28.7018   17.2114 C   0  0  0  0  0  0  0  0  0  0  0  0
  -30.4334  -15.0623   19.8336 C   0  0  0  0  0  0  0  0  0  0  0  0
  -23.6652  -32.6975   27.4379 C   0  0  0  0  0  0  0  0  0  0  0  0
  -25.2055  -31.0279   21.3337 C   0  0  0  0  0  0  0  0  0  0  0  0
  -24.0423  -28.4596   20.4415 C   0  0  0  0  0  0  0  0  0  0  0  0
  -22.6159  -32.2125   26.4408 C   0  0  0  0  0  0  0  0  0  0  0  0
  -30.0362  -11.7838   21.1645 C   0  0  0  0  0  0  0  0  0  0  0  0
  -22.8122  -30.7305   26.1379 C   0  0  0  0  0  0  0  0  0  0  0  0
  -28.5192  -11.6241   21.2883 C   0  0  0  0  0  0  0  0  0  0  0  0
  -28.6069  -22.9348   19.8466 C   0  0  0  0  0  0  0  0  0  0  0  0
  -29.5209  -24.6507   18.2434 C   0  0  0  0  0  0  0  0  0  0  0  0
  -30.4848  -13.2080   21.4872 C   0  0  0  0  0  0  0  0  0  0  0  0
  -28.2776  -14.1025   20.8568 C   0  0  0  0  0  0  0  0  0  0  0  0
  -29.6100  -21.9178   19.3201 C   0  0  0  0  0  0  0  0  0  0  0  0
  -30.5197  -23.6253   17.7252 C   0  0  0  0  0  0  0  0  0  0  0  0
  -24.1823  -30.4748   25.4984 C   0  0  1  0  0  0  0  0  0  0  0  0
  -23.7908  -30.6090   21.7219 C   0  0  1  0  0  0  0  0  0  0  0  0
  -29.1193  -24.3715   19.6960 C   0  0  0  0  0  0  0  0  0  0  0  0
  -27.7712  -12.7011   20.4783 C   0  0  2  0  0  0  0  0  0  0  0  0
  -30.7648  -21.3278   15.7587 C   0  0  0  0  0  0  0  0  0  0  0  0
  -19.9259  -28.5752   15.3243 C   0  0  0  0  0  0  0  0  0  0  0  0
  -27.7507  -25.1934   21.6470 C   0  0  0  0  0  0  0  0  0  0  0  0
  -20.4913  -27.3740   21.8133 C   0  0  0  0  0  0  0  0  0  0  0  0
  -19.5628  -26.7170   19.5830 C   0  0  0  0  0  0  0  0  0  0  0  0
  -18.9478  -28.9150   20.5896 C   0  0  0  0  0  0  0  0  0  0  0  0
  -23.2479  -30.4235   15.4803 C   0  0  0  0  0  0  0  0  0  0  0  0
  -30.8415  -21.1943   17.2775 C   0  0  1  0  0  0  0  0  0  0  0  0
  -21.2797  -28.5812   19.6716 C   0  0  1  0  0  0  0  0  0  0  0  0
  -21.0262  -29.3964   15.9783 C   0  0  2  0  0  0  0  0  0  0  0  0
  -28.0694  -25.3740   20.1706 C   0  0  1  0  0  0  0  0  0  1  0  0
  -20.0985  -27.8995   20.4182 C   0  0  0  0  0  0  0  0  0  0  0  0
  -25.6535  -13.2844   21.5992 N   0  0  0  0  0  0  0  0  0  0  0  0
  -26.2670  -12.5782   20.6342 N   0  0  0  0  0  0  0  0  0  0  0  0
  -23.2189  -29.6266   20.7988 N   0  0  0  0  0  0  0  0  0  0  0  0
  -29.7364  -14.1735   20.6793 N   0  0  0  0  0  0  0  0  0  0  0  0
  -25.8707  -11.0389   18.8781 N   0  0  0  0  0  0  0  0  0  0  0  0
  -21.7493  -11.7671   20.5752 N   0  0  0  0  0  0  0  0  0  0  0  0
  -29.6149  -15.9117   19.0899 N   0  0  0  0  0  0  0  0  0  0  0  0
  -24.1657  -30.8502   24.1008 N   0  0  0  0  0  0  0  0  0  0  0  0
  -20.9299  -29.1125   18.3587 N   0  0  0  0  0  0  0  0  0  0  0  0
  -29.9454  -22.2388   17.8842 N   0  3  0  0  0  0  0  0  0  0  0  0
  -22.1104  -29.6103   14.9784 N   0  3  0  0  0  0  0  0  0  0  0  0
  -22.9310  -10.6112   18.9857 O   0  0  0  0  0  0  0  0  0  0  0  0
  -23.2907  -28.8713   23.2401 O   0  0  0  0  0  0  0  0  0  0  0  0
  -21.1486  -30.6972   20.7356 O   0  0  0  0  0  0  0  0  0  0  0  0
  -22.4829  -27.8748   17.1614 O   0  0  0  0  0  0  0  0  0  0  0  0
  -31.6644  -15.0508   19.7534 O   0  0  0  0  0  0  0  0  0  0  0  0
  -20.4890  -15.1297   24.8348 O   0  0  0  0  0  0  0  0  0  0  0  0
  -28.5776  -26.6898   19.9546 O   0  0  0  0  0  0  0  0  0  1  0  0
  -15.5277  -12.7257   24.9347 F   0  0  0  0  0  0  0  0  0  0  0  0
  -19.4715  -14.0739   27.1784 F   0  0  0  0  0  0  0  0  0  0  0  0
  1  2  1  0  0  0  0
  1  5  2  0  0  0  0
  2  6  2  0  0  0  0
  3 12  2  0  0  0  0
  3 19  1  0  0  0  0
  4 13  1  0  0  0  0
  4 19  2  0  0  0  0
  5 21  1  0  0  0  0
  6 23  1  0  0  0  0
  7 14  2  0  0  0  0
  7 22  1  0  0  0  0
  8 10  2  0  0  0  0
  8 25  1  0  0  0  0
  9 11  1  0  0  0  0
  9 25  2  0  0  0  0
 10 26  1  0  0  0  0
 11 26  2  0  0  0  0
 12 27  1  0  0  0  0
 13 27  2  0  0  0  0
 14 28  1  0  0  0  0
 15 16  2  0  0  0  0
 15 29  1  0  0  0  0
 16 30  1  0  0  0  0
 17 24  1  0  0  0  0
 17 28  2  0  0  0  0
 18 30  2  0  0  0  0
 18 31  1  0  0  0  0
 19 32  1  0  0  0  0
 20 32  1  0  0  0  0
 20 33  2  0  0  0  0
 20 34  1  0  0  0  0
 21 23  2  0  0  0  0
 21 39  1  0  0  0  0
 22 24  2  0  0  0  0
 22 40  1  0  0  0  0
 23 52  1  0  0  0  0
 24 41  1  0  0  0  0
 25 63  1  0  0  0  0
 26 74  1  0  0  0  0
 27 84  1  0  0  0  0
 28 85  1  0  0  0  0
 29 31  2  0  0  0  0
 29 84  1  0  0  0  0
 30 86  1  0  0  0  0
 31 87  1  0  0  0  0
 32 68  2  0  0  0  0
 33 69  1  0  0  0  0
 33 72  1  0  0  0  0
 34 73  1  0  0  0  0
 34 79  2  0  0  0  0
 35 53  1  0  0  0  0
 35 75  1  0  0  0  0
 35 80  2  0  0  0  0
 36 64  1  0  0  0  0
 36 70  1  0  0  0  0
 36 81  2  0  0  0  0
 37 65  1  0  0  0  0
 37 76  1  0  0  0  0
 37 82  2  0  0  0  0
 38 71  1  0  0  0  0
 38 74  1  0  0  0  0
 38 83  2  0  0  0  0
 39 42  1  0  0  0  0
 40 53  1  0  0  0  0
 41 70  1  0  0  0  0
 42 44  1  0  0  0  0
 43 45  1  0  0  0  0
 43 48  1  0  0  0  0
 44 52  1  0  0  0  0
 45 55  1  0  0  0  0
 46 50  1  0  0  0  0
 46 54  1  0  0  0  0
 47 51  1  0  0  0  0
 47 54  1  0  0  0  0
 48 71  1  0  0  0  0
 49 55  1  0  0  0  0
 49 71  1  0  0  0  0
 50 77  1  0  0  0  0
 51 77  1  0  0  0  0
 52 75  1  0  0  0  0
 53 70  1  0  0  0  0
 54 66  1  0  0  0  0
 55 69  1  0  0  0  0
 56 63  1  0  0  0  0
 57 65  1  0  0  0  0
 58 66  1  0  0  0  0
 59 67  1  0  0  0  0
 60 67  1  0  0  0  0
 61 67  1  0  0  0  0
 62 78  1  0  0  0  0
 63 77  1  0  0  0  0
 64 67  1  0  0  0  0
 64 76  1  0  0  0  0
 65 78  1  0  0  0  0
 66 85  1  0  0  0  0
 68 69  1  0  0  0  0
M  CHG  2  77   1  78   1
M  ISO  4  38 100  66 101  74 100  85 101
M  END
> <Batch ID>
0144

> <Smiles>
CNC(C)C(=O)NC(C(=O)N1Cc2cc([101O:1][101CH:1](C)C3CCN(C(C)c4ccc([100NH:0][100C:0](=O)N5CCCC(n6nc(-c7ccc(Oc8ccc(F)cc8F)cc7)c(C(N)=O)c6N)C5)cc4)CC3)ccc2CC1C(=O)NC1CCCc2ccccc21)C(C)(C)C

> <Shape>
0.269

> <Color>
0.097

> <Negative vol penalty>
0.000

$$$$

  -OEChem-04052303043D

 86 95  0     1  0  0  0  0  0999 V2000
  -28.7627  -11.0438   20.9033 C   0  0  0  0  0  0  0  0  0  0  0  0
  -29.0278  -12.3331   20.4531 C   0  0  0  0  0  0  0  0  0  0  0  0
  -19.3443  -28.9426   23.6588 C   0  0  0  0  0  0  0  0  0  0  0  0
  -20.4170  -27.2643   22.2915 C   0  0  0  0  0  0  0  0  0  0  0  0
  -27.4445  -10.6053   21.0219 C   0  0  0  0  0  0  0  0  0  0  0  0
  -27.9748  -13.1845   20.1201 C   0  0  0  0  0  0  0  0  0  0  0  0
  -28.5946  -17.8571   21.9713 C   0  0  0  0  0  0  0  0  0  0  0  0
  -18.1114  -28.6134   23.0956 C   0  0  0  0  0  0  0  0  0  0  0  0
  -19.1841  -26.9350   21.7283 C   0  0  0  0  0  0  0  0  0  0  0  0
  -29.4783  -18.6976   21.2957 C   0  0  0  0  0  0  0  0  0  0  0  0
  -16.2658  -25.4049   20.1920 C   0  0  0  0  0  0  0  0  0  0  0  0
  -15.9517  -24.0521   20.0622 C   0  0  0  0  0  0  0  0  0  0  0  0
  -27.6133  -19.7748   20.2090 C   0  0  0  0  0  0  0  0  0  0  0  0
  -31.1312  -27.5080   19.8831 C   0  0  0  0  0  0  0  0  0  0  0  0
  -29.2991  -27.4981   21.4580 C   0  0  0  0  0  0  0  0  0  0  0  0
  -29.9651  -29.5617   20.3925 C   0  0  0  0  0  0  0  0  0  0  0  0
  -16.1409  -23.7786   22.4552 C   0  0  0  0  0  0  0  0  0  0  0  0
  -20.4971  -28.2680   23.2567 C   0  0  0  0  0  0  0  0  0  0  0  0
  -22.3581  -28.0463   24.9874 C   0  0  0  0  0  0  0  0  0  0  0  0
  -26.3746  -11.4550   20.6994 C   0  0  0  0  0  0  0  0  0  0  0  0
  -27.2120  -17.9621   21.7623 C   0  0  0  0  0  0  0  0  0  0  0  0
  -26.6411  -12.7565   20.2332 C   0  0  0  0  0  0  0  0  0  0  0  0
  -26.7141  -18.9362   20.8852 C   0  0  0  0  0  0  0  0  0  0  0  0
  -30.2985  -26.8169   20.7633 C   0  0  0  0  0  0  0  0  0  0  0  0
  -30.9645  -28.8804   19.6978 C   0  0  0  0  0  0  0  0  0  0  0  0
  -29.1324  -28.8706   21.2726 C   0  0  0  0  0  0  0  0  0  0  0  0
  -18.0313  -27.6097   22.1303 C   0  0  0  0  0  0  0  0  0  0  0  0
  -28.9878  -19.6547   20.4122 C   0  0  0  0  0  0  0  0  0  0  0  0
  -16.5175  -25.9446   21.4534 C   0  0  0  0  0  0  0  0  0  0  0  0
  -15.8893  -23.2389   21.1938 C   0  0  0  0  0  0  0  0  0  0  0  0
  -16.4550  -25.1314   22.5850 C   0  0  0  0  0  0  0  0  0  0  0  0
  -21.7711  -28.6080   23.8377 C   0  0  0  0  0  0  0  0  0  0  0  0
  -23.5564  -28.7049   25.1177 C   0  0  0  0  0  0  0  0  0  0  0  0
  -31.1572  -23.2638   20.6619 C   0  0  0  0  0  0  0  0  0  0  0  0
  -21.8644  -27.0210   25.8595 C   0  0  0  0  0  0  0  0  0  0  0  0
  -31.5243  -22.1684   19.9884 C   0  0  0  0  0  0  0  0  0  0  0  0
  -24.9603  -16.0225   20.6346 C   0  0  0  0  0  0  0  0  0  0  0  0
  -22.9816  -18.4259   21.5460 C   0  0  0  0  0  0  0  0  0  0  0  0
  -22.5802  -21.7440   22.2362 C   0  0  0  0  0  0  0  0  0  0  0  0
  -27.8166  -30.9223   21.9093 C   0  0  0  0  0  0  0  0  0  0  0  0
  -24.9678  -10.9205   20.7987 C   0  0  0  0  0  0  0  0  0  0  0  0
  -26.2705  -17.0658   22.5190 C   0  0  0  0  0  0  0  0  0  0  0  0
  -25.2373  -19.1030   20.6410 C   0  0  0  0  0  0  0  0  0  0  0  0
  -30.2634  -23.2773   21.8613 C   0  0  0  0  0  0  0  0  0  0  0  0
  -31.4840  -24.6705   20.2597 C   0  0  0  0  0  0  0  0  0  0  0  0
  -23.8994  -12.0107   20.7823 C   0  0  0  0  0  0  0  0  0  0  0  0
  -25.3723  -32.9977   23.4571 C   0  0  0  0  0  0  0  0  0  0  0  0
  -24.1793  -13.0157   19.6695 C   0  0  0  0  0  0  0  0  0  0  0  0
  -24.2510  -32.0237   23.8262 C   0  0  0  0  0  0  0  0  0  0  0  0
  -29.5672  -24.6309   21.7513 C   0  0  0  0  0  0  0  0  0  0  0  0
  -26.0260  -32.6317   22.1257 C   0  0  0  0  0  0  0  0  0  0  0  0
  -25.3764  -30.2707   22.3954 C   0  0  0  0  0  0  0  0  0  0  0  0
  -25.5252  -13.7179   19.8859 C   0  0  1  0  0  0  0  0  0  0  0  0
  -24.9121  -16.9173   21.8407 C   0  0  1  0  0  0  0  0  0  0  0  0
  -24.7310  -30.5606   23.7603 C   0  0  2  0  0  0  0  0  0  0  0  0
  -32.4276  -22.2475   18.7916 C   0  0  0  0  0  0  0  0  0  0  0  0
  -20.8392  -23.4176   22.9183 C   0  0  0  0  0  0  0  0  0  0  0  0
  -21.8524  -18.4029   18.7115 C   0  0  0  0  0  0  0  0  0  0  0  0
  -20.8462  -20.6494   19.1688 C   0  0  0  0  0  0  0  0  0  0  0  0
  -20.1401  -18.6711   20.5145 C   0  0  0  0  0  0  0  0  0  0  0  0
  -24.0303  -22.4098   24.7287 C   0  0  0  0  0  0  0  0  0  0  0  0
  -31.0732  -20.7981   20.4082 C   0  0  0  0  0  0  0  0  0  1  0  0
  -22.4336  -19.6680   20.8858 C   0  0  1  0  0  0  0  0  0  0  0  0
  -21.9160  -22.4576   23.3998 C   0  0  2  0  0  0  0  0  0  0  0  0
  -21.3461  -19.3437   19.8231 C   0  0  0  0  0  0  0  0  0  0  0  0
  -22.5335  -29.5509   23.2777 N   0  0  0  0  0  0  0  0  0  0  0  0
  -23.6119  -29.5868   24.0789 N   0  0  0  0  0  0  0  0  0  0  0  0
  -30.4636  -25.4580   20.9469 N   0  0  3  0  0  0  0  0  0  0  0  0
  -24.3574  -18.1987   21.3997 N   0  0  0  0  0  0  0  0  0  0  0  0
  -26.4594  -31.2328   22.1382 N   0  0  0  0  0  0  0  0  0  0  0  0
  -31.8067  -29.5793   18.8081 N   0  0  0  0  0  0  0  0  0  0  0  0
  -24.5573  -28.6098   26.0185 N   0  0  0  0  0  0  0  0  0  0  0  0
  -20.6149  -26.4508   25.5803 N   0  0  0  0  0  0  0  0  0  0  0  0
  -28.1164  -29.5622   21.9778 N   0  0  0  0  0  0  0  0  0  0  0  0
  -25.4037  -14.7413   20.9019 N   0  0  0  0  0  0  0  0  0  0  0  0
  -21.9744  -20.5353   21.9653 N   0  0  0  0  0  0  0  0  0  0  0  0
  -22.9246  -23.2334   24.1755 N   0  3  0  0  0  0  0  0  0  0  0  0
  -22.5048  -26.6336   26.8662 O   0  0  0  0  0  0  0  0  0  0  0  0
  -24.6189  -16.4614   19.5426 O   0  0  0  0  0  0  0  0  0  0  0  0
  -22.2184  -17.6883   22.1745 O   0  0  0  0  0  0  0  0  0  0  0  0
  -23.5382  -22.2136   21.6260 O   0  0  0  0  0  0  0  0  0  0  0  0
  -28.6564  -31.8008   21.6972 O   0  0  0  0  0  0  0  0  0  0  0  0
  -16.8284  -27.2880   21.5807 O   0  0  0  0  0  0  0  0  0  0  0  0
  -29.8482  -20.4760   19.7510 O   0  0  0  0  0  0  0  0  0  1  0  0
  -15.5861  -21.9402   21.0692 F   0  0  0  0  0  0  0  0  0  0  0  0
  -16.6947  -25.6445   23.7996 F   0  0  0  0  0  0  0  0  0  0  0  0
  1  2  1  0  0  0  0
  1  5  2  0  0  0  0
  2  6  2  0  0  0  0
  3  8  2  0  0  0  0
  3 18  1  0  0  0  0
  4  9  1  0  0  0  0
  4 18  2  0  0  0  0
  5 20  1  0  0  0  0
  6 22  1  0  0  0  0
  7 10  2  0  0  0  0
  7 21  1  0  0  0  0
  8 27  1  0  0  0  0
  9 27  2  0  0  0  0
 10 28  1  0  0  0  0
 11 12  2  0  0  0  0
 11 29  1  0  0  0  0
 12 30  1  0  0  0  0
 13 23  1  0  0  0  0
 13 28  2  0  0  0  0
 14 24  1  0  0  0  0
 14 25  2  0  0  0  0
 15 24  2  0  0  0  0
 15 26  1  0  0  0  0
 16 25  1  0  0  0  0
 16 26  2  0  0  0  0
 17 30  2  0  0  0  0
 17 31  1  0  0  0  0
 18 32  1  0  0  0  0
 19 32  1  0  0  0  0
 19 33  2  0  0  0  0
 19 35  1  0  0  0  0
 20 22  2  0  0  0  0
 20 41  1  0  0  0  0
 21 23  2  0  0  0  0
 21 42  1  0  0  0  0
 22 53  1  0  0  0  0
 23 43  1  0  0  0  0
 24 68  1  0  0  0  0
 25 71  1  0  0  0  0
 26 74  1  0  0  0  0
 27 83  1  0  0  0  0
 28 84  1  0  0  0  0
 29 31  2  0  0  0  0
 29 83  1  0  0  0  0
 30 85  1  0  0  0  0
 31 86  1  0  0  0  0
 32 66  2  0  0  0  0
 33 67  1  0  0  0  0
 33 72  1  0  0  0  0
 34 36  2  0  0  0  0
 34 44  1  0  0  0  0
 34 45  1  0  0  0  0
 35 73  1  0  0  0  0
 35 78  2  0  0  0  0
 36 56  1  0  0  0  0
 36 62  1  0  0  0  0
 37 54  1  0  0  0  0
 37 75  1  0  0  0  0
 37 79  2  0  0  0  0
 38 63  1  0  0  0  0
 38 69  1  0  0  0  0
 38 80  2  0  0  0  0
 39 64  1  0  0  0  0
 39 76  1  0  0  0  0
 39 81  2  0  0  0  0
 40 70  1  0  0  0  0
 40 74  1  0  0  0  0
 40 82  2  0  0  0  0
 41 46  1  0  0  0  0
 42 54  1  0  0  0  0
 43 69  1  0  0  0  0
 44 50  1  0  0  0  0
 45 68  1  0  0  0  0
 46 48  1  0  0  0  0
 47 49  1  0  0  0  0
 47 51  1  0  0  0  0
 48 53  1  0  0  0  0
 49 55  1  0  0  0  0
 50 68  1  0  0  0  0
 51 70  1  0  0  0  0
 52 55  1  0  0  0  0
 52 70  1  0  0  0  0
 53 75  1  0  0  0  0
 54 69  1  0  0  0  0
 55 67  1  0  0  0  0
 57 64  1  0  0  0  0
 58 65  1  0  0  0  0
 59 65  1  0  0  0  0
 60 65  1  0  0  0  0
 61 77  1  0  0  0  0
 62 84  1  0  0  0  0
 63 65  1  0  0  0  0
 63 76  1  0  0  0  0
 64 77  1  0  0  0  0
 66 67  1  0  0  0  0
M  CHG  1  77   1
M  ISO  4  40 100  62 101  74 100  84 101
M  END
> <Batch ID>
0144

> <Smiles>
CNC(C)C(=O)NC(C(=O)N1Cc2cc([101O:1][101CH2:1]C(C)=C3CCN(c4cc(N)cc([100NH:0][100C:0](=O)N5CCCC(n6nc(-c7ccc(Oc8ccc(F)cc8F)cc7)c(C(N)=O)c6N)C5)c4)C3)ccc2CC1C(=O)NC1CCCc2ccccc21)C(C)(C)C

> <Shape>
0.227

> <Color>
0.063

> <Negative vol penalty>
0.000

$$$$

  -OEChem-04052303043D

 89 97  0     1  0  0  0  0  0999 V2000
  -28.5411  -32.4294   25.0927 C   0  0  0  0  0  0  0  0  0  0  0  0
  -29.1179  -31.1691   24.9729 C   0  0  0  0  0  0  0  0  0  0  0  0
  -23.0860   -9.8355   20.0148 C   0  0  0  0  0  0  0  0  0  0  0  0
  -23.8109   -9.9411   22.3170 C   0  0  0  0  0  0  0  0  0  0  0  0
  -27.1533  -32.5596   25.1223 C   0  0  0  0  0  0  0  0  0  0  0  0
  -28.3072  -30.0381   24.8837 C   0  0  0  0  0  0  0  0  0  0  0  0
  -29.8361  -26.8315   21.2746 C   0  0  0  0  0  0  0  0  0  0  0  0
  -22.3397   -8.6926   20.3022 C   0  0  0  0  0  0  0  0  0  0  0  0
  -23.0646   -8.7983   22.6045 C   0  0  0  0  0  0  0  0  0  0  0  0
  -30.9284  -26.0165   21.5681 C   0  0  0  0  0  0  0  0  0  0  0  0
  -19.8286   -8.0210   23.1914 C   0  0  0  0  0  0  0  0  0  0  0  0
  -19.0540   -8.0294   24.3513 C   0  0  0  0  0  0  0  0  0  0  0  0
  -29.4287  -24.1872   22.0411 C   0  0  0  0  0  0  0  0  0  0  0  0
  -30.4391  -18.4922   23.8666 C   0  0  0  0  0  0  0  0  0  0  0  0
  -32.0266  -16.6822   22.4571 C   0  0  0  0  0  0  0  0  0  0  0  0
  -20.2863   -6.1272   25.1881 C   0  0  0  0  0  0  0  0  0  0  0  0
  -23.8216  -10.4597   21.0222 C   0  0  0  0  0  0  0  0  0  0  0  0
  -24.1624  -12.9781   20.8002 C   0  0  0  0  0  0  0  0  0  0  0  0
  -26.3250  -31.4305   25.0237 C   0  0  0  0  0  0  0  0  0  0  0  0
  -28.5291  -26.3328   21.3728 C   0  0  0  0  0  0  0  0  0  0  0  0
  -26.9070  -30.1532   24.9133 C   0  0  0  0  0  0  0  0  0  0  0  0
  -28.3216  -24.9972   21.7458 C   0  0  0  0  0  0  0  0  0  0  0  0
  -29.8478  -17.5756   22.9973 C   0  0  0  0  0  0  0  0  0  0  0  0
  -31.8243  -18.5039   24.0312 C   0  0  0  0  0  0  0  0  0  0  0  0
  -30.6415  -16.6706   22.2926 C   0  0  0  0  0  0  0  0  0  0  0  0
  -22.3290   -8.1740   21.5970 C   0  0  0  0  0  0  0  0  0  0  0  0
  -30.7247  -24.6949   21.9542 C   0  0  0  0  0  0  0  0  0  0  0  0
  -20.8320   -7.0656   23.0297 C   0  0  0  0  0  0  0  0  0  0  0  0
  -19.2828   -7.0826   25.3497 C   0  0  0  0  0  0  0  0  0  0  0  0
  -32.6180  -17.5989   23.3265 C   0  0  0  0  0  0  0  0  0  0  0  0
  -21.0609   -6.1187   24.0281 C   0  0  0  0  0  0  0  0  0  0  0  0
  -24.5932  -11.6399   20.7258 C   0  0  0  0  0  0  0  0  0  0  0  0
  -25.2591  -13.7134   20.4221 C   0  0  0  0  0  0  0  0  0  0  0  0
  -22.8851  -13.5089   21.1776 C   0  0  0  0  0  0  0  0  0  0  0  0
  -25.9791  -27.0540   23.1282 C   0  0  0  0  0  0  0  0  0  0  0  0
  -32.8693  -23.1117   24.8726 C   0  0  0  0  0  0  0  0  0  0  0  0
  -24.5345  -24.8563   21.2294 C   0  0  0  0  0  0  0  0  0  0  0  0
  -24.8433  -22.1265   19.2045 C   0  0  0  0  0  0  0  0  0  0  0  0
  -30.7208  -14.7753   20.6349 C   0  0  0  0  0  0  0  0  0  0  0  0
  -24.8307  -31.6168   25.1079 C   0  0  0  0  0  0  0  0  0  0  0  0
  -27.3627  -27.2172   21.0269 C   0  0  0  0  0  0  0  0  0  0  0  0
  -26.9393  -24.4077   21.8468 C   0  0  0  0  0  0  0  0  0  0  0  0
  -24.0377  -30.4027   24.6309 C   0  0  0  0  0  0  0  0  0  0  0  0
  -29.6452  -12.2611   18.3547 C   0  0  0  0  0  0  0  0  0  0  0  0
  -24.6088  -29.1223   25.2320 C   0  0  0  0  0  0  0  0  0  0  0  0
  -28.1996  -11.9855   18.7744 C   0  0  0  0  0  0  0  0  0  0  0  0
  -30.5417  -12.5424   19.5592 C   0  0  0  0  0  0  0  0  0  0  0  0
  -28.6132  -13.3214   20.8795 C   0  0  0  0  0  0  0  0  0  0  0  0
  -26.0607  -28.9048   24.7891 C   0  0  1  0  0  0  0  0  0  0  0  0
  -26.0534  -26.7533   21.6579 C   0  0  1  0  0  0  0  0  0  0  0  0
  -27.6585  -13.0966   19.6955 C   0  0  2  0  0  0  0  0  0  0  0  0
  -27.9253  -18.2544   21.5379 C   0  0  0  0  0  0  0  0  0  0  0  0
  -23.4811  -20.5318   17.8265 C   0  0  0  0  0  0  0  0  0  0  0  0
  -33.3522  -20.3228   27.5517 C   0  0  0  0  0  0  0  0  0  0  0  0
  -23.6186  -23.4436   23.7741 C   0  0  0  0  0  0  0  0  0  0  0  0
  -23.1142  -21.4215   22.3868 C   0  0  0  0  0  0  0  0  0  0  0  0
  -21.8950  -23.5566   21.9655 C   0  0  0  0  0  0  0  0  0  0  0  0
  -26.2379  -22.9059   16.7132 C   0  0  0  0  0  0  0  0  0  0  0  0
  -28.3620  -17.5873   22.8383 C   0  0  0  0  0  0  0  0  0  0  0  0
  -33.6940  -23.5599   23.6735 C   0  0  0  0  0  0  0  0  0  0  0  0
  -33.5538  -22.1222   25.8062 C   0  0  0  0  0  0  0  0  0  0  0  0
  -31.6652  -20.3859   25.6616 C   0  0  0  0  0  0  0  0  0  0  0  0
  -32.9531  -24.5327   22.7692 C   0  0  0  0  0  0  0  0  0  1  0  0
  -24.3241  -23.3627   21.2918 C   0  0  1  0  0  0  0  0  0  0  0  0
  -24.2808  -21.8254   17.8270 C   0  0  2  0  0  0  0  0  0  0  0  0
  -32.5771  -21.2194   26.5797 C   0  0  1  0  0  0  0  0  0  0  0  0
  -23.2641  -22.9574   22.3546 C   0  0  0  0  0  0  0  0  0  0  0  0
  -25.8644  -11.5287   20.3312 N   0  0  0  0  0  0  0  0  0  0  0  0
  -26.2417  -12.8063   20.1542 N   0  0  0  0  0  0  0  0  0  0  0  0
  -25.8308  -25.3142   21.5046 N   0  0  0  0  0  0  0  0  0  0  0  0
  -29.9683  -13.6085   20.3835 N   0  0  0  0  0  0  0  0  0  0  0  0
  -25.4690  -15.0410   20.2958 N   0  0  0  0  0  0  0  0  0  0  0  0
  -21.8692  -12.6131   21.5378 N   0  0  0  0  0  0  0  0  0  0  0  0
  -30.0600  -15.7331   21.4034 N   0  0  0  0  0  0  0  0  0  0  0  0
  -32.4103  -19.4153   24.8946 N   0  0  0  0  0  0  0  0  0  0  0  0
  -26.1052  -28.3953   23.4352 N   0  0  0  0  0  0  0  0  0  0  0  0
  -24.0009  -22.9389   19.9337 N   0  0  0  0  0  0  0  0  0  0  0  0
  -25.3843  -21.6961   16.8338 N   0  3  0  0  0  0  0  0  0  0  0  0
  -22.6466  -14.7405   21.1791 O   0  0  0  0  0  0  0  0  0  0  0  0
  -25.8179  -26.1370   23.9250 O   0  0  0  0  0  0  0  0  0  0  0  0
  -31.7426  -23.5510   25.0966 O   0  0  0  0  0  0  0  0  0  0  0  0
  -23.5854  -25.5891   20.9399 O   0  0  0  0  0  0  0  0  0  0  0  0
  -25.9203  -21.6824   19.5958 O   0  0  0  0  0  0  0  0  0  0  0  0
  -31.8566  -14.9260   20.1777 O   0  0  0  0  0  0  0  0  0  0  0  0
  -21.6007   -7.0590   21.8779 O   0  0  0  0  0  0  0  0  0  0  0  0
  -31.7892  -23.8973   22.2419 O   0  0  0  0  0  0  0  0  0  1  0  0
  -18.5399   -7.0917   26.4642 F   0  0  0  0  0  0  0  0  0  0  0  0
  -33.9503  -17.6016   23.4756 F   0  0  0  0  0  0  0  0  0  0  0  0
  -22.0242   -5.1992   23.8790 F   0  0  0  0  0  0  0  0  0  0  0  0
  1  2  1  0  0  0  0
  1  5  2  0  0  0  0
  2  6  2  0  0  0  0
  3  8  2  0  0  0  0
  3 17  1  0  0  0  0
  4  9  1  0  0  0  0
  4 17  2  0  0  0  0
  5 19  1  0  0  0  0
  6 21  1  0  0  0  0
  7 10  2  0  0  0  0
  7 20  1  0  0  0  0
  8 26  1  0  0  0  0
  9 26  2  0  0  0  0
 10 27  1  0  0  0  0
 11 12  2  0  0  0  0
 11 28  1  0  0  0  0
 12 29  1  0  0  0  0
 13 22  1  0  0  0  0
 13 27  2  0  0  0  0
 14 23  1  0  0  0  0
 14 24  2  0  0  0  0
 15 25  1  0  0  0  0
 15 30  2  0  0  0  0
 16 29  2  0  0  0  0
 16 31  1  0  0  0  0
 17 32  1  0  0  0  0
 18 32  1  0  0  0  0
 18 33  2  0  0  0  0
 18 34  1  0  0  0  0
 19 21  2  0  0  0  0
 19 40  1  0  0  0  0
 20 22  2  0  0  0  0
 20 41  1  0  0  0  0
 21 49  1  0  0  0  0
 22 42  1  0  0  0  0
 23 25  2  0  0  0  0
 23 59  1  0  0  0  0
 24 30  1  0  0  0  0
 24 75  1  0  0  0  0
 25 74  1  0  0  0  0
 26 85  1  0  0  0  0
 27 86  1  0  0  0  0
 28 31  2  0  0  0  0
 28 85  1  0  0  0  0
 29 87  1  0  0  0  0
 30 88  1  0  0  0  0
 31 89  1  0  0  0  0
 32 68  2  0  0  0  0
 33 69  1  0  0  0  0
 33 72  1  0  0  0  0
 34 73  1  0  0  0  0
 34 79  2  0  0  0  0
 35 50  1  0  0  0  0
 35 76  1  0  0  0  0
 35 80  2  0  0  0  0
 36 60  1  0  0  0  0
 36 61  1  0  0  0  0
 36 81  2  0  0  0  0
 37 64  1  0  0  0  0
 37 70  1  0  0  0  0
 37 82  2  0  0  0  0
 38 65  1  0  0  0  0
 38 77  1  0  0  0  0
 38 83  2  0  0  0  0
 39 71  1  0  0  0  0
 39 74  1  0  0  0  0
 39 84  2  0  0  0  0
 40 43  1  0  0  0  0
 41 50  1  0  0  0  0
 42 70  1  0  0  0  0
 43 45  1  0  0  0  0
 44 46  1  0  0  0  0
 44 47  1  0  0  0  0
 45 49  1  0  0  0  0
 46 51  1  0  0  0  0
 47 71  1  0  0  0  0
 48 51  1  0  0  0  0
 48 71  1  0  0  0  0
 49 76  1  0  0  0  0
 50 70  1  0  0  0  0
 51 69  1  0  0  0  0
 52 59  1  0  0  0  0
 53 65  1  0  0  0  0
 54 66  1  0  0  0  0
 55 67  1  0  0  0  0
 56 67  1  0  0  0  0
 57 67  1  0  0  0  0
 58 78  1  0  0  0  0
 60 63  1  0  0  0  0
 61 66  1  0  0  0  0
 62 66  1  0  0  0  0
 62 75  1  0  0  0  0
 63 86  1  0  0  0  0
 64 67  1  0  0  0  0
 64 77  1  0  0  0  0
 65 78  1  0  0  0  0
 68 69  1  0  0  0  0
M  CHG  1  78   1
M  ISO  4  39 100  63 101  74 100  86 101
M  END
> <Batch ID>
0144

> <Smiles>
CCc1cc(NCC(C)CC(=O)C[101CH2:1][101O:1]c2ccc3c(c2)CN(C(=O)C(NC(=O)C(C)NC)C(C)(C)C)C(C(=O)NC2CCCc4ccccc42)C3)c(F)cc1[100NH:0][100C:0](=O)N1CCCC(n2nc(-c3ccc(Oc4ccc(F)cc4F)cc3)c(C(N)=O)c2N)C1

> <Shape>
0.249

> <Color>
0.182

> <Negative vol penalty>
0.000

$$$$

  -OEChem-04052303043D

 85 94  0     1  0  0  0  0  0999 V2000
  -26.3058  -37.7249   20.6890 C   0  0  0  0  0  0  0  0  0  0  0  0
  -26.9402  -36.5386   20.3348 C   0  0  0  0  0  0  0  0  0  0  0  0
  -24.4629  -10.5699   23.2131 C   0  0  0  0  0  0  0  0  0  0  0  0
  -23.2109  -12.6340   23.3084 C   0  0  0  0  0  0  0  0  0  0  0  0
  -25.4463  -37.7537   21.7865 C   0  0  0  0  0  0  0  0  0  0  0  0
  -26.7163  -35.3805   21.0785 C   0  0  0  0  0  0  0  0  0  0  0  0
  -26.4889  -29.6361   18.9675 C   0  0  0  0  0  0  0  0  0  0  0  0
  -23.8437  -10.1401   24.3867 C   0  0  0  0  0  0  0  0  0  0  0  0
  -22.5917  -12.2041   24.4820 C   0  0  0  0  0  0  0  0  0  0  0  0
  -27.4312  -28.6089   18.9398 C   0  0  0  0  0  0  0  0  0  0  0  0
  -20.8666   -8.8169   25.2918 C   0  0  0  0  0  0  0  0  0  0  0  0
  -20.3911   -7.5062   25.3313 C   0  0  0  0  0  0  0  0  0  0  0  0
  -26.4975  -27.7058   20.9725 C   0  0  0  0  0  0  0  0  0  0  0  0
  -28.6172  -20.2425   20.0652 C   0  0  0  0  0  0  0  0  0  0  0  0
  -21.8480   -7.0340   27.1998 C   0  0  0  0  0  0  0  0  0  0  0  0
  -24.1466  -11.8169   22.6740 C   0  0  0  0  0  0  0  0  0  0  0  0
  -24.3438  -12.0545   20.1417 C   0  0  0  0  0  0  0  0  0  0  0  0
  -25.2042  -36.5931   22.5382 C   0  0  0  0  0  0  0  0  0  0  0  0
  -25.5491  -29.7121   20.0055 C   0  0  0  0  0  0  0  0  0  0  0  0
  -25.8537  -35.3941   22.1878 C   0  0  0  0  0  0  0  0  0  0  0  0
  -25.5427  -28.7335   21.0096 C   0  0  0  0  0  0  0  0  0  0  0  0
  -27.9791  -21.5160   20.0325 C   0  0  0  0  0  0  0  0  0  0  0  0
  -22.9081  -10.9571   25.0212 C   0  0  0  0  0  0  0  0  0  0  0  0
  -27.4374  -27.6452   19.9440 C   0  0  0  0  0  0  0  0  0  0  0  0
  -21.8329   -9.2361   26.2063 C   0  0  0  0  0  0  0  0  0  0  0  0
  -20.8817   -6.6148   26.2853 C   0  0  0  0  0  0  0  0  0  0  0  0
  -22.3236   -8.3447   27.1603 C   0  0  0  0  0  0  0  0  0  0  0  0
  -24.7863  -12.2617   21.4620 C   0  0  0  0  0  0  0  0  0  0  0  0
  -26.6358  -21.4294   20.3250 C   0  0  0  0  0  0  0  0  0  0  0  0
  -25.2933  -12.6674   19.3612 C   0  0  0  0  0  0  0  0  0  0  0  0
  -27.7371  -19.2309   20.3817 C   0  0  0  0  0  0  0  0  0  0  0  0
  -23.1786  -11.3693   19.6637 C   0  0  0  0  0  0  0  0  0  0  0  0
  -24.8897  -31.8284   22.2838 C   0  0  0  0  0  0  0  0  0  0  0  0
  -22.3840  -29.8492   22.8552 C   0  0  0  0  0  0  0  0  0  0  0  0
  -21.0510  -26.7172   22.6090 C   0  0  0  0  0  0  0  0  0  0  0  0
  -29.1343  -17.1348   20.3585 C   0  0  0  0  0  0  0  0  0  0  0  0
  -24.3037  -36.6843   23.7446 C   0  0  0  0  0  0  0  0  0  0  0  0
  -24.5222  -30.8112   20.0064 C   0  0  0  0  0  0  0  0  0  0  0  0
  -24.5421  -28.7586   22.1351 C   0  0  0  0  0  0  0  0  0  0  0  0
  -23.8292  -35.3260   24.2545 C   0  0  0  0  0  0  0  0  0  0  0  0
  -29.9408  -13.8223   19.3319 C   0  0  0  0  0  0  0  0  0  0  0  0
  -24.9977  -34.3489   24.3373 C   0  0  0  0  0  0  0  0  0  0  0  0
  -28.6682  -13.0285   19.6358 C   0  0  0  0  0  0  0  0  0  0  0  0
  -30.2132  -24.4396   19.8069 C   0  0  0  0  0  0  0  0  0  0  0  0
  -30.2070  -14.8935   20.3880 C   0  0  0  0  0  0  0  0  0  0  0  0
  -30.0441  -22.9392   20.0361 C   0  0  0  0  0  0  0  0  0  0  0  0
  -28.0027  -23.8481   19.1066 C   0  0  0  0  0  0  0  0  0  0  0  0
  -27.8111  -15.0099   20.9498 C   0  0  0  0  0  0  0  0  0  0  0  0
  -25.6171  -34.1112   22.9548 C   0  0  1  0  0  0  0  0  0  0  0  0
  -23.9393  -31.0832   21.3898 C   0  0  1  0  0  0  0  0  0  0  0  0
  -29.1849  -24.7446   18.7215 C   0  0  1  0  0  0  0  0  0  0  0  0
  -27.4662  -13.9623   19.8788 C   0  0  2  0  0  0  0  0  0  0  0  0
  -25.6253  -22.5100   20.3956 C   0  0  0  0  0  0  0  0  0  0  0  0
  -19.0004  -25.3970   23.2000 C   0  0  0  0  0  0  0  0  0  0  0  0
  -30.0476  -27.0556   18.2917 C   0  0  0  0  0  0  0  0  0  0  0  0
  -27.7061  -26.4453   17.6181 C   0  0  0  0  0  0  0  0  0  0  0  0
  -23.2983  -29.7357   25.7640 C   0  0  0  0  0  0  0  0  0  0  0  0
  -21.8437  -27.7211   26.0699 C   0  0  0  0  0  0  0  0  0  0  0  0
  -20.8230  -29.9126   25.4547 C   0  0  0  0  0  0  0  0  0  0  0  0
  -20.4783  -26.1153   19.7684 C   0  0  0  0  0  0  0  0  0  0  0  0
  -22.1558  -28.6372   23.7259 C   0  0  1  0  0  0  0  0  0  0  0  0
  -19.6914  -26.2354   22.1360 C   0  0  2  0  0  0  0  0  0  0  0  0
  -28.8199  -26.2164   18.6389 C   0  0  0  0  0  0  0  0  0  1  0  0
  -22.0504  -29.0020   25.2336 C   0  0  0  0  0  0  0  0  0  0  0  0
  -25.9282  -12.9522   21.5207 N   0  0  0  0  0  0  0  0  0  0  0  0
  -26.2112  -13.1841   20.2275 N   0  0  0  0  0  0  0  0  0  0  0  0
  -28.6349  -22.6932   19.7407 N   0  0  3  0  0  0  0  0  0  0  0  0
  -23.5622  -29.8567   22.0953 N   0  0  0  0  0  0  0  0  0  0  0  0
  -29.0265  -15.7427   20.5614 N   0  0  0  0  0  0  0  0  0  0  0  0
  -25.4242  -12.8094   18.0251 N   0  0  0  0  0  0  0  0  0  0  0  0
  -22.3082  -10.7972   20.6014 N   0  0  0  0  0  0  0  0  0  0  0  0
  -27.9394  -17.8353   20.5198 N   0  0  0  0  0  0  0  0  0  0  0  0
  -24.7962  -33.2033   22.1826 N   0  0  0  0  0  0  0  0  0  0  0  0
  -20.9769  -27.9656   23.1898 N   0  0  0  0  0  0  0  0  0  0  0  0
  -19.8347  -25.4076   20.9050 N   0  3  0  0  0  0  0  0  0  0  0  0
  -22.9257  -11.2533   18.4405 O   0  0  0  0  0  0  0  0  0  0  0  0
  -25.6503  -31.2023   23.0125 O   0  0  0  0  0  0  0  0  0  0  0  0
  -21.5441  -30.7526   22.8442 O   0  0  0  0  0  0  0  0  0  0  0  0
  -22.0758  -26.0510   22.4799 O   0  0  0  0  0  0  0  0  0  0  0  0
  -30.2018  -17.6629   20.0366 O   0  0  0  0  0  0  0  0  0  0  0  0
  -22.3034  -10.5379   26.1663 O   0  0  0  0  0  0  0  0  0  0  0  0
  -28.3565  -26.6420   19.9198 O   0  0  0  0  0  0  0  0  0  1  0  0
  -20.4239   -5.3566   26.3241 F   0  0  0  0  0  0  0  0  0  0  0  0
  -23.2510   -8.7420   28.0422 F   0  0  0  0  0  0  0  0  0  0  0  0
  -26.1489  -19.8177   20.6375 S   0  0  0  0  0  0  0  0  0  0  0  0
  1  2  1  0  0  0  0
  1  5  2  0  0  0  0
  2  6  2  0  0  0  0
  3  8  2  0  0  0  0
  3 16  1  0  0  0  0
  4  9  1  0  0  0  0
  4 16  2  0  0  0  0
  5 18  1  0  0  0  0
  6 20  1  0  0  0  0
  7 10  2  0  0  0  0
  7 19  1  0  0  0  0
  8 23  1  0  0  0  0
  9 23  2  0  0  0  0
 10 24  1  0  0  0  0
 11 12  2  0  0  0  0
 11 25  1  0  0  0  0
 12 26  1  0  0  0  0
 13 21  1  0  0  0  0
 13 24  2  0  0  0  0
 14 22  1  0  0  0  0
 14 31  2  0  0  0  0
 15 26  2  0  0  0  0
 15 27  1  0  0  0  0
 16 28  1  0  0  0  0
 17 28  1  0  0  0  0
 17 30  2  0  0  0  0
 17 32  1  0  0  0  0
 18 20  2  0  0  0  0
 18 37  1  0  0  0  0
 19 21  2  0  0  0  0
 19 38  1  0  0  0  0
 20 49  1  0  0  0  0
 21 39  1  0  0  0  0
 22 29  2  0  0  0  0
 22 67  1  0  0  0  0
 23 81  1  0  0  0  0
 24 82  1  0  0  0  0
 25 27  2  0  0  0  0
 25 81  1  0  0  0  0
 26 83  1  0  0  0  0
 27 84  1  0  0  0  0
 28 65  2  0  0  0  0
 29 53  1  0  0  0  0
 29 85  1  0  0  0  0
 30 66  1  0  0  0  0
 30 70  1  0  0  0  0
 31 72  1  0  0  0  0
 31 85  1  0  0  0  0
 32 71  1  0  0  0  0
 32 76  2  0  0  0  0
 33 50  1  0  0  0  0
 33 73  1  0  0  0  0
 33 77  2  0  0  0  0
 34 61  1  0  0  0  0
 34 68  1  0  0  0  0
 34 78  2  0  0  0  0
 35 62  1  0  0  0  0
 35 74  1  0  0  0  0
 35 79  2  0  0  0  0
 36 69  1  0  0  0  0
 36 72  1  0  0  0  0
 36 80  2  0  0  0  0
 37 40  1  0  0  0  0
 38 50  1  0  0  0  0
 39 68  1  0  0  0  0
 40 42  1  0  0  0  0
 41 43  1  0  0  0  0
 41 45  1  0  0  0  0
 42 49  1  0  0  0  0
 43 52  1  0  0  0  0
 44 46  1  0  0  0  0
 44 51  1  0  0  0  0
 45 69  1  0  0  0  0
 46 67  1  0  0  0  0
 47 51  1  0  0  0  0
 47 67  1  0  0  0  0
 48 52  1  0  0  0  0
 48 69  1  0  0  0  0
 49 73  1  0  0  0  0
 50 68  1  0  0  0  0
 51 63  1  0  0  0  0
 52 66  1  0  0  0  0
 54 62  1  0  0  0  0
 55 63  1  0  0  0  0
 56 63  1  0  0  0  0
 57 64  1  0  0  0  0
 58 64  1  0  0  0  0
 59 64  1  0  0  0  0
 60 75  1  0  0  0  0
 61 64  1  0  0  0  0
 61 74  1  0  0  0  0
 62 75  1  0  0  0  0
 63 82  1  0  0  0  0
 65 66  1  0  0  0  0
M  CHG  1  75   1
M  ISO  4  36 100  63 101  72 100  82 101
M  END
> <Batch ID>
0144

> <Smiles>
CNC(C)C(=O)NC(C(=O)N1Cc2cc([101O:1][101C:1](C)(C)C3CCN(c4cc([100NH:0][100C:0](=O)N5CCCC(n6nc(-c7ccc(Oc8ccc(F)cc8F)cc7)c(C(N)=O)c6N)C5)sc4C)C3)ccc2CC1C(=O)NC1CCCc2ccccc21)C(C)(C)C

> <Shape>
0.309

> <Color>
0.092

> <Negative vol penalty>
0.000

$$$$

  -OEChem-04052303043D

 83 92  0     1  0  0  0  0  0999 V2000
  -29.6807  -36.2133   19.1775 C   0  0  0  0  0  0  0  0  0  0  0  0
  -29.6731  -34.8451   18.9255 C   0  0  0  0  0  0  0  0  0  0  0  0
  -22.8944  -11.9943   22.9918 C   0  0  0  0  0  0  0  0  0  0  0  0
  -23.7863  -14.2105   23.3521 C   0  0  0  0  0  0  0  0  0  0  0  0
  -29.2298  -36.6975   20.4047 C   0  0  0  0  0  0  0  0  0  0  0  0
  -29.2153  -33.9602   19.9012 C   0  0  0  0  0  0  0  0  0  0  0  0
  -26.1746  -28.7234   18.9867 C   0  0  0  0  0  0  0  0  0  0  0  0
  -22.1421  -12.1069   24.1610 C   0  0  0  0  0  0  0  0  0  0  0  0
  -23.0340  -14.3232   24.5213 C   0  0  0  0  0  0  0  0  0  0  0  0
  -26.5877  -27.3922   18.9550 C   0  0  0  0  0  0  0  0  0  0  0  0
  -19.2671  -13.5933   25.1397 C   0  0  0  0  0  0  0  0  0  0  0  0
  -17.9335  -13.1870   25.0942 C   0  0  0  0  0  0  0  0  0  0  0  0
  -25.9513  -27.1459   21.2688 C   0  0  0  0  0  0  0  0  0  0  0  0
  -29.5724  -18.6389   19.4811 C   0  0  0  0  0  0  0  0  0  0  0  0
  -18.3743  -11.5477   26.8134 C   0  0  0  0  0  0  0  0  0  0  0  0
  -31.6706  -17.6979   19.1428 C   0  0  0  0  0  0  0  0  0  0  0  0
  -23.7165  -13.0461   22.5874 C   0  0  0  0  0  0  0  0  0  0  0  0
  -24.0109  -12.7256   20.0738 C   0  0  0  0  0  0  0  0  0  0  0  0
  -28.7573  -35.8188   21.3923 C   0  0  0  0  0  0  0  0  0  0  0  0
  -25.6561  -29.2799   20.1648 C   0  0  0  0  0  0  0  0  0  0  0  0
  -28.7589  -34.4330   21.1433 C   0  0  0  0  0  0  0  0  0  0  0  0
  -25.5300  -28.4837   21.3121 C   0  0  0  0  0  0  0  0  0  0  0  0
  -30.3656  -17.4556   19.5113 C   0  0  0  0  0  0  0  0  0  0  0  0
  -22.2119  -13.2714   24.9258 C   0  0  0  0  0  0  0  0  0  0  0  0
  -26.4787  -26.6040   20.0969 C   0  0  0  0  0  0  0  0  0  0  0  0
  -20.1543  -12.9767   26.0220 C   0  0  0  0  0  0  0  0  0  0  0  0
  -17.4871  -12.1642   25.9310 C   0  0  0  0  0  0  0  0  0  0  0  0
  -19.7079  -11.9540   26.8588 C   0  0  0  0  0  0  0  0  0  0  0  0
  -24.4943  -12.9301   21.3800 C   0  0  0  0  0  0  0  0  0  0  0  0
  -30.3015  -19.7407   19.0908 C   0  0  0  0  0  0  0  0  0  0  0  0
  -25.1395  -12.6879   19.2920 C   0  0  0  0  0  0  0  0  0  0  0  0
  -22.6622  -12.5826   19.6087 C   0  0  0  0  0  0  0  0  0  0  0  0
  -26.5235  -31.6499   22.0973 C   0  0  0  0  0  0  0  0  0  0  0  0
  -23.6899  -30.9949   23.5339 C   0  0  0  0  0  0  0  0  0  0  0  0
  -21.2113  -28.7328   24.1554 C   0  0  0  0  0  0  0  0  0  0  0  0
  -30.6203  -14.9832   19.9218 C   0  0  0  0  0  0  0  0  0  0  0  0
  -28.3241  -36.3855   22.7211 C   0  0  0  0  0  0  0  0  0  0  0  0
  -25.1901  -30.7100   20.1751 C   0  0  0  0  0  0  0  0  0  0  0  0
  -24.9611  -29.0276   22.5962 C   0  0  0  0  0  0  0  0  0  0  0  0
  -27.5045  -35.4096   23.5614 C   0  0  0  0  0  0  0  0  0  0  0  0
  -29.7876  -11.5500   19.4782 C   0  0  0  0  0  0  0  0  0  0  0  0
  -28.1655  -34.0350   23.5795 C   0  0  0  0  0  0  0  0  0  0  0  0
  -29.3486  -21.7703   20.2653 C   0  0  0  0  0  0  0  0  0  0  0  0
  -28.7522  -21.3084   17.8466 C   0  0  0  0  0  0  0  0  0  0  0  0
  -28.8915  -23.2191   20.0980 C   0  0  0  0  0  0  0  0  0  0  0  0
  -28.2966  -22.7584   17.6853 C   0  0  0  0  0  0  0  0  0  0  0  0
  -28.2904  -11.4967   19.7908 C   0  0  0  0  0  0  0  0  0  0  0  0
  -30.5201  -12.5427   20.3791 C   0  0  0  0  0  0  0  0  0  0  0  0
  -28.4550  -13.8435   20.7142 C   0  0  0  0  0  0  0  0  0  0  0  0
  -28.2467  -33.4433   22.1671 C   0  0  1  0  0  0  0  0  0  0  0  0
  -29.8333  -21.1758   18.9323 C   0  0  0  0  0  0  0  0  0  0  0  0
  -25.1548  -31.3168   21.5743 C   0  0  1  0  0  0  0  0  0  0  0  0
  -27.8130  -23.3522   19.0149 C   0  0  0  0  0  0  0  0  0  0  0  0
  -27.6638  -12.9049   19.7885 C   0  0  2  0  0  0  0  0  0  0  0  0
  -19.0439  -28.4760   25.3940 C   0  0  0  0  0  0  0  0  0  0  0  0
  -25.2236  -30.7337   26.1586 C   0  0  0  0  0  0  0  0  0  0  0  0
  -23.2284  -29.5732   27.1284 C   0  0  0  0  0  0  0  0  0  0  0  0
  -23.0369  -31.9331   26.3431 C   0  0  0  0  0  0  0  0  0  0  0  0
  -19.7121  -28.2093   21.6579 C   0  0  0  0  0  0  0  0  0  0  0  0
  -27.4067  -24.8138   18.8360 C   0  0  0  0  0  0  0  0  0  1  0  0
  -23.2409  -30.0736   24.6423 C   0  0  1  0  0  0  0  0  0  0  0  0
  -19.6997  -28.8467   24.0729 C   0  0  2  0  0  0  0  0  0  0  0  0
  -23.6950  -30.5684   26.0446 C   0  0  0  0  0  0  0  0  0  0  0  0
  -25.8263  -13.0161   21.4293 N   0  0  0  0  0  0  0  0  0  0  0  0
  -26.1894  -12.8648   20.1443 N   0  0  0  0  0  0  0  0  0  0  0  0
  -24.5253  -30.4333   22.5579 N   0  0  0  0  0  0  0  0  0  0  0  0
  -29.8732  -13.8554   20.3229 N   0  0  0  0  0  0  0  0  0  0  0  0
  -25.3263  -12.5208   17.9655 N   0  0  0  0  0  0  0  0  0  0  0  0
  -21.9610  -13.7348   19.2280 N   0  0  0  0  0  0  0  0  0  0  0  0
  -29.8911  -16.1709   19.8749 N   0  0  0  0  0  0  0  0  0  0  0  0
  -26.9597  -32.9181   21.7644 N   0  0  0  0  0  0  0  0  0  0  0  0
  -21.7960  -29.9339   24.4970 N   0  0  0  0  0  0  0  0  0  0  0  0
  -19.1691  -27.9416   23.0145 N   0  3  0  0  0  0  0  0  0  0  0  0
  -22.0901  -11.4678   19.5484 O   0  0  0  0  0  0  0  0  0  0  0  0
  -27.1377  -30.8184   22.7553 O   0  0  0  0  0  0  0  0  0  0  0  0
  -23.3074  -32.1676   23.5301 O   0  0  0  0  0  0  0  0  0  0  0  0
  -21.8128  -27.6825   23.9421 O   0  0  0  0  0  0  0  0  0  0  0  0
  -31.8120  -14.8964   19.6146 O   0  0  0  0  0  0  0  0  0  0  0  0
  -21.4778  -13.3818   26.0666 O   0  0  0  0  0  0  0  0  0  0  0  0
  -26.8818  -25.3045   20.0688 O   0  0  0  0  0  0  0  0  0  1  0  0
  -16.2061  -11.7752   25.8883 F   0  0  0  0  0  0  0  0  0  0  0  0
  -20.5553  -11.3587   27.7094 F   0  0  0  0  0  0  0  0  0  0  0  0
  -31.9353  -19.3465   18.7626 S   0  0  0  0  0  0  0  0  0  0  0  0
  1  2  1  0  0  0  0
  1  5  2  0  0  0  0
  2  6  2  0  0  0  0
  3  8  2  0  0  0  0
  3 17  1  0  0  0  0
  4  9  1  0  0  0  0
  4 17  2  0  0  0  0
  5 19  1  0  0  0  0
  6 21  1  0  0  0  0
  7 10  2  0  0  0  0
  7 20  1  0  0  0  0
  8 24  1  0  0  0  0
  9 24  2  0  0  0  0
 10 25  1  0  0  0  0
 11 12  2  0  0  0  0
 11 26  1  0  0  0  0
 12 27  1  0  0  0  0
 13 22  1  0  0  0  0
 13 25  2  0  0  0  0
 14 23  1  0  0  0  0
 14 30  2  0  0  0  0
 15 27  2  0  0  0  0
 15 28  1  0  0  0  0
 16 23  2  0  0  0  0
 16 83  1  0  0  0  0
 17 29  1  0  0  0  0
 18 29  1  0  0  0  0
 18 31  2  0  0  0  0
 18 32  1  0  0  0  0
 19 21  2  0  0  0  0
 19 37  1  0  0  0  0
 20 22  2  0  0  0  0
 20 38  1  0  0  0  0
 21 50  1  0  0  0  0
 22 39  1  0  0  0  0
 23 70  1  0  0  0  0
 24 79  1  0  0  0  0
 25 80  1  0  0  0  0
 26 28  2  0  0  0  0
 26 79  1  0  0  0  0
 27 81  1  0  0  0  0
 28 82  1  0  0  0  0
 29 64  2  0  0  0  0
 30 51  1  0  0  0  0
 30 83  1  0  0  0  0
 31 65  1  0  0  0  0
 31 68  1  0  0  0  0
 32 69  1  0  0  0  0
 32 74  2  0  0  0  0
 33 52  1  0  0  0  0
 33 71  1  0  0  0  0
 33 75  2  0  0  0  0
 34 61  1  0  0  0  0
 34 66  1  0  0  0  0
 34 76  2  0  0  0  0
 35 62  1  0  0  0  0
 35 72  1  0  0  0  0
 35 77  2  0  0  0  0
 36 67  1  0  0  0  0
 36 70  1  0  0  0  0
 36 78  2  0  0  0  0
 37 40  1  0  0  0  0
 38 52  1  0  0  0  0
 39 66  1  0  0  0  0
 40 42  1  0  0  0  0
 41 47  1  0  0  0  0
 41 48  1  0  0  0  0
 42 50  1  0  0  0  0
 43 45  1  0  0  0  0
 43 51  1  0  0  0  0
 44 46  1  0  0  0  0
 44 51  1  0  0  0  0
 45 53  1  0  0  0  0
 46 53  1  0  0  0  0
 47 54  1  0  0  0  0
 48 67  1  0  0  0  0
 49 54  1  0  0  0  0
 49 67  1  0  0  0  0
 50 71  1  0  0  0  0
 52 66  1  0  0  0  0
 53 60  1  0  0  0  0
 54 65  1  0  0  0  0
 55 62  1  0  0  0  0
 56 63  1  0  0  0  0
 57 63  1  0  0  0  0
 58 63  1  0  0  0  0
 59 73  1  0  0  0  0
 60 80  1  0  0  0  0
 61 63  1  0  0  0  0
 61 72  1  0  0  0  0
 62 73  1  0  0  0  0
 64 65  1  0  0  0  0
M  CHG  1  73   1
M  ISO  4  36 100  60 101  70 100  80 101
M  END
> <Batch ID>
0144

> <Smiles>
CNC(C)C(=O)NC(C(=O)N1Cc2cc([101O:1][101CH2:1]C3CCC(c4cc([100NH:0][100C:0](=O)N5CCCC(n6nc(-c7ccc(Oc8ccc(F)cc8F)cc7)c(C(N)=O)c6N)C5)cs4)CC3)ccc2CC1C(=O)NC1CCCc2ccccc21)C(C)(C)C

> <Shape>
0.240

> <Color>
0.101

> <Negative vol penalty>
0.000

$$$$

  -OEChem-04052303043D

 97105  0     1  0  0  0  0  0999 V2000
  -18.1390  -25.6206   22.4283 C   0  0  0  0  0  0  0  0  0  0  0  0
  -19.3334  -24.9108   22.4981 C   0  0  0  0  0  0  0  0  0  0  0  0
  -24.1659  -13.7047   21.7403 C   0  0  0  0  0  0  0  0  0  0  0  0
  -26.3218  -13.6735   20.6504 C   0  0  0  0  0  0  0  0  0  0  0  0
  -18.1547  -27.0144   22.4621 C   0  0  0  0  0  0  0  0  0  0  0  0
  -20.5444  -25.5944   22.6007 C   0  0  0  0  0  0  0  0  0  0  0  0
  -25.5213  -23.8225   25.6987 C   0  0  0  0  0  0  0  0  0  0  0  0
  -23.8170  -12.5244   21.0841 C   0  0  0  0  0  0  0  0  0  0  0  0
  -25.9729  -12.4931   19.9942 C   0  0  0  0  0  0  0  0  0  0  0  0
  -26.7004  -23.1948   25.2996 C   0  0  0  0  0  0  0  0  0  0  0  0
  -22.4956   -9.3255   19.9723 C   0  0  0  0  0  0  0  0  0  0  0  0
  -21.8808   -8.3235   20.7230 C   0  0  0  0  0  0  0  0  0  0  0  0
  -27.7849  -25.3440   25.1447 C   0  0  0  0  0  0  0  0  0  0  0  0
  -31.3249  -22.5948   17.7144 C   0  0  0  0  0  0  0  0  0  0  0  0
  -30.1584  -20.6852   18.5961 C   0  0  0  0  0  0  0  0  0  0  0  0
  -23.8182   -8.2130   22.1622 C   0  0  0  0  0  0  0  0  0  0  0  0
  -25.4183  -14.2793   21.5234 C   0  0  0  0  0  0  0  0  0  0  0  0
  -26.4134  -15.6211   23.4514 C   0  0  0  0  0  0  0  0  0  0  0  0
  -19.3658  -27.7152   22.5749 C   0  0  0  0  0  0  0  0  0  0  0  0
  -25.4618  -25.2188   25.8134 C   0  0  0  0  0  0  0  0  0  0  0  0
  -20.5765  -26.9989   22.6347 C   0  0  0  0  0  0  0  0  0  0  0  0
  -26.6045  -25.9868   25.5479 C   0  0  0  0  0  0  0  0  0  0  0  0
  -31.2849  -21.2331   17.9926 C   0  0  0  0  0  0  0  0  0  0  0  0
  -24.7205  -11.9185   20.2110 C   0  0  0  0  0  0  0  0  0  0  0  0
  -27.8317  -23.9558   25.0197 C   0  0  0  0  0  0  0  0  0  0  0  0
  -23.7718   -9.7712   20.3165 C   0  0  0  0  0  0  0  0  0  0  0  0
  -22.5421   -7.7672   21.8180 C   0  0  0  0  0  0  0  0  0  0  0  0
  -24.4331   -9.2150   21.4115 C   0  0  0  0  0  0  0  0  0  0  0  0
  -25.7791  -15.4989   22.2006 C   0  0  0  0  0  0  0  0  0  0  0  0
  -30.2212  -23.3593   18.0567 C   0  0  0  0  0  0  0  0  0  0  0  0
  -29.1070  -21.5353   18.8991 C   0  0  0  0  0  0  0  0  0  0  0  0
  -26.5320  -16.9756   23.6454 C   0  0  0  0  0  0  0  0  0  0  0  0
  -26.8559  -14.6014   24.3570 C   0  0  0  0  0  0  0  0  0  0  0  0
  -23.7820  -27.5164   24.3980 C   0  0  0  0  0  0  0  0  0  0  0  0
  -33.0690  -29.4436   19.7832 C   0  0  0  0  0  0  0  0  0  0  0  0
  -25.2387  -29.4008   26.6002 C   0  0  0  0  0  0  0  0  0  0  0  0
  -29.4007  -24.3999   21.7323 C   0  0  0  0  0  0  0  0  0  0  0  0
  -27.8781  -29.8833   28.7091 C   0  0  0  0  0  0  0  0  0  0  0  0
  -26.7988  -21.6272   19.9042 C   0  0  0  0  0  0  0  0  0  0  0  0
  -19.3361  -29.2230   22.5600 C   0  0  0  0  0  0  0  0  0  0  0  0
  -24.1900  -25.8787   26.2709 C   0  0  0  0  0  0  0  0  0  0  0  0
  -26.5987  -27.4875   25.6755 C   0  0  0  0  0  0  0  0  0  0  0  0
  -20.6336  -29.8626   23.0475 C   0  0  0  0  0  0  0  0  0  0  0  0
  -24.4215  -21.1207   22.5059 C   0  0  0  0  0  0  0  0  0  0  0  0
  -21.8379  -29.1893   22.3971 C   0  0  0  0  0  0  0  0  0  0  0  0
  -24.5619  -19.6341   22.8409 C   0  0  0  0  0  0  0  0  0  0  0  0
  -24.5869  -21.3831   21.0101 C   0  0  0  0  0  0  0  0  0  0  0  0
  -25.9540  -19.3501   20.7508 C   0  0  0  0  0  0  0  0  0  0  0  0
  -21.9085  -27.7040   22.7716 C   0  0  1  0  0  0  0  0  0  0  0  0
  -24.0950  -27.3442   25.8575 C   0  0  1  0  0  0  0  0  0  0  0  0
  -25.8596  -19.0444   22.2546 C   0  0  2  0  0  0  0  0  0  0  0  0
  -31.9941  -30.4993   19.8987 C   0  0  0  0  0  0  0  0  0  0  0  0
  -33.4605  -20.2683   18.7817 C   0  0  0  0  0  0  0  0  0  0  0  0
  -28.8109  -31.5356   30.3514 C   0  0  0  0  0  0  0  0  0  0  0  0
  -29.2725  -21.1234   23.7700 C   0  0  0  0  0  0  0  0  0  0  0  0
  -33.5305  -29.1440   22.2357 C   0  0  0  0  0  0  0  0  0  0  0  0
  -34.3979  -27.4704   20.6138 C   0  0  0  0  0  0  0  0  0  0  0  0
  -26.1609  -31.1706   24.2921 C   0  0  0  0  0  0  0  0  0  0  0  0
  -27.8257  -32.2104   25.8463 C   0  0  0  0  0  0  0  0  0  0  0  0
  -25.3846  -32.4169   26.3166 C   0  0  0  0  0  0  0  0  0  0  0  0
  -27.7265  -27.9351   30.9319 C   0  0  0  0  0  0  0  0  0  0  0  0
  -32.4453  -20.3638   17.6454 C   0  0  0  0  0  0  0  0  0  0  0  0
  -30.2294  -24.8446   17.7699 C   0  0  0  0  0  0  0  0  0  0  0  0
  -29.9221  -23.1487   22.4239 C   0  0  0  0  0  0  0  0  0  0  0  0
  -31.4353  -26.8482   19.8375 C   0  0  0  0  0  0  0  0  0  0  0  0
  -31.9044  -27.6004   21.0960 C   0  0  0  0  0  0  0  0  0  0  0  0
  -26.5269  -30.1863   26.6507 C   0  0  1  0  0  0  0  0  0  0  0  0
  -27.9392  -30.3033   30.1666 C   0  0  2  0  0  0  0  0  0  0  0  0
  -30.1043  -26.1078   20.0602 C   0  0  1  0  0  0  0  0  0  0  0  0
  -28.9296  -22.5680   23.4308 C   0  0  2  0  0  0  0  0  0  1  0  0
  -29.4068  -25.7157   18.7397 C   0  0  1  0  0  0  0  0  0  0  0  0
  -33.2153  -28.4087   20.9204 C   0  0  0  0  0  0  0  0  0  0  0  0
  -26.4744  -31.4679   25.7720 C   0  0  0  0  0  0  0  0  0  0  0  0
  -25.5131  -16.6815   21.6396 N   0  0  0  0  0  0  0  0  0  0  0  0
  -29.1093  -22.8629   18.6440 N   0  0  0  0  0  0  0  0  0  0  0  0
  -25.9826  -17.5597   22.5421 N   0  0  0  0  0  0  0  0  0  0  0  0
  -25.3295  -28.0867   26.1200 N   0  0  0  0  0  0  0  0  0  0  0  0
  -25.8399  -20.7997   20.5257 N   0  0  0  0  0  0  0  0  0  0  0  0
  -27.0515  -17.7122   24.6503 N   0  0  0  0  0  0  0  0  0  0  0  0
  -26.6562  -13.2602   24.0022 N   0  0  0  0  0  0  0  0  0  0  0  0
  -27.9638  -20.9674   19.5143 N   0  0  0  0  0  0  0  0  0  0  0  0
  -22.4304  -27.5449   24.1120 N   0  0  0  0  0  0  0  0  0  0  0  0
  -26.7951  -30.4400   28.0621 N   0  0  0  0  0  0  0  0  0  0  0  0
  -30.3380  -24.9152   20.8537 N   0  0  0  0  0  0  0  0  0  0  0  0
  -28.4994  -29.2020   30.9999 N   0  3  0  0  0  0  0  0  0  0  0  0
  -27.3971  -14.8717   25.4559 O   0  0  0  0  0  0  0  0  0  0  0  0
  -24.6990  -27.6175   23.5914 O   0  0  0  0  0  0  0  0  0  0  0  0
  -33.7990  -29.4255   18.7891 O   0  0  0  0  0  0  0  0  0  0  0  0
  -24.1917  -29.9313   26.9797 O   0  0  0  0  0  0  0  0  0  0  0  0
  -28.2877  -24.8731   21.9440 O   0  0  0  0  0  0  0  0  0  0  0  0
  -28.7101  -29.1390   28.1949 O   0  0  0  0  0  0  0  0  0  0  0  0
  -26.6124  -22.8376   19.7550 O   0  0  0  0  0  0  0  0  0  0  0  0
  -29.0134  -26.9011   18.0403 O   0  0  0  0  0  0  0  0  0  0  0  0
  -24.3805  -10.7666   19.5707 O   0  0  0  0  0  0  0  0  0  0  0  0
  -28.9902  -23.3423   24.6271 O   0  0  0  0  0  0  0  0  0  1  0  0
  -21.9509   -6.8061   22.5398 F   0  0  0  0  0  0  0  0  0  0  0  0
  -25.6587   -9.6399   21.7477 F   0  0  0  0  0  0  0  0  0  0  0  0
  1  2  1  0  0  0  0
  1  5  2  0  0  0  0
  2  6  2  0  0  0  0
  3  8  2  0  0  0  0
  3 17  1  0  0  0  0
  4  9  1  0  0  0  0
  4 17  2  0  0  0  0
  5 19  1  0  0  0  0
  6 21  1  0  0  0  0
  7 10  2  0  0  0  0
  7 20  1  0  0  0  0
  8 24  1  0  0  0  0
  9 24  2  0  0  0  0
 10 25  1  0  0  0  0
 11 12  2  0  0  0  0
 11 26  1  0  0  0  0
 12 27  1  0  0  0  0
 13 22  1  0  0  0  0
 13 25  2  0  0  0  0
 14 23  1  0  0  0  0
 14 30  2  0  0  0  0
 15 23  2  0  0  0  0
 15 31  1  0  0  0  0
 16 27  2  0  0  0  0
 16 28  1  0  0  0  0
 17 29  1  0  0  0  0
 18 29  1  0  0  0  0
 18 32  2  0  0  0  0
 18 33  1  0  0  0  0
 19 21  2  0  0  0  0
 19 40  1  0  0  0  0
 20 22  2  0  0  0  0
 20 41  1  0  0  0  0
 21 49  1  0  0  0  0
 22 42  1  0  0  0  0
 23 62  1  0  0  0  0
 24 94  1  0  0  0  0
 25 95  1  0  0  0  0
 26 28  2  0  0  0  0
 26 94  1  0  0  0  0
 27 96  1  0  0  0  0
 28 97  1  0  0  0  0
 29 74  2  0  0  0  0
 30 63  1  0  0  0  0
 30 75  1  0  0  0  0
 31 75  2  0  0  0  0
 31 81  1  0  0  0  0
 32 76  1  0  0  0  0
 32 79  1  0  0  0  0
 33 80  1  0  0  0  0
 33 86  2  0  0  0  0
 34 50  1  0  0  0  0
 34 82  1  0  0  0  0
 34 87  2  0  0  0  0
 35 52  1  0  0  0  0
 35 72  1  0  0  0  0
 35 88  2  0  0  0  0
 36 67  1  0  0  0  0
 36 77  1  0  0  0  0
 36 89  2  0  0  0  0
 37 64  1  0  0  0  0
 37 84  1  0  0  0  0
 37 90  2  0  0  0  0
 38 68  1  0  0  0  0
 38 83  1  0  0  0  0
 38 91  2  0  0  0  0
 39 78  1  0  0  0  0
 39 81  1  0  0  0  0
 39 92  2  0  0  0  0
 40 43  1  0  0  0  0
 41 50  1  0  0  0  0
 42 77  1  0  0  0  0
 43 45  1  0  0  0  0
 44 46  1  0  0  0  0
 44 47  1  0  0  0  0
 45 49  1  0  0  0  0
 46 51  1  0  0  0  0
 47 78  1  0  0  0  0
 48 51  1  0  0  0  0
 48 78  1  0  0  0  0
 49 82  1  0  0  0  0
 50 77  1  0  0  0  0
 51 76  1  0  0  0  0
 53 62  1  0  0  0  0
 54 68  1  0  0  0  0
 55 70  1  0  0  0  0
 56 72  1  0  0  0  0
 57 72  1  0  0  0  0
 58 73  1  0  0  0  0
 59 73  1  0  0  0  0
 60 73  1  0  0  0  0
 61 85  1  0  0  0  0
 63 71  1  0  0  0  0
 64 70  1  0  0  0  0
 65 66  1  0  0  0  0
 65 69  1  0  0  0  0
 66 72  1  0  0  0  0
 67 73  1  0  0  0  0
 67 83  1  0  0  0  0
 68 85  1  0  0  0  0
 69 71  1  0  0  0  0
 69 84  1  0  0  0  0
 70 95  1  0  0  0  0
 71 93  1  0  0  0  0
 74 76  1  0  0  0  0
M  CHG  1  85   1
M  ISO  4  39 100  70 101  81 100  95 101
M  END
> <Batch ID>
0144

> <Smiles>
CCc1cc(CC(O)C(CCC(C)(C)C(C)=O)NC(=O)C[101CH:1](C)[101O:1]c2ccc3c(c2)CN(C(=O)C(NC(=O)C(C)NC)C(C)(C)C)C(C(=O)NC2CCCc4ccccc42)C3)nc([100NH:0][100C:0](=O)N2CCCC(n3nc(-c4ccc(Oc5ccc(F)cc5F)cc4)c(C(N)=O)c3N)C2)c1

> <Shape>
0.229

> <Color>
0.063

> <Negative vol penalty>
0.000

$$$$

  -OEChem-04052303043D

 91 99  0     1  0  0  0  0  0999 V2000
  -28.7189  -21.3759   14.9444 C   0  0  0  0  0  0  0  0  0  0  0  0
  -28.2476  -21.2950   16.2508 C   0  0  0  0  0  0  0  0  0  0  0  0
  -28.6854  -17.1254   18.8972 C   0  0  0  0  0  0  0  0  0  0  0  0
  -28.1033  -17.2716   21.2375 C   0  0  0  0  0  0  0  0  0  0  0  0
  -29.3030  -22.5565   14.4871 C   0  0  0  0  0  0  0  0  0  0  0  0
  -28.3611  -22.3943   17.1011 C   0  0  0  0  0  0  0  0  0  0  0  0
  -24.1182  -23.2681   19.7240 C   0  0  0  0  0  0  0  0  0  0  0  0
  -29.0597  -18.4690   18.9064 C   0  0  0  0  0  0  0  0  0  0  0  0
  -28.4777  -18.6152   21.2467 C   0  0  0  0  0  0  0  0  0  0  0  0
  -23.8711  -22.4504   20.8259 C   0  0  0  0  0  0  0  0  0  0  0  0
  -31.3442  -20.3996   21.3880 C   0  0  0  0  0  0  0  0  0  0  0  0
  -32.1231  -20.8465   22.4553 C   0  0  0  0  0  0  0  0  0  0  0  0
  -24.6926  -24.1838   22.2887 C   0  0  0  0  0  0  0  0  0  0  0  0
  -20.4179  -14.7068   23.6753 C   0  0  0  0  0  0  0  0  0  0  0  0
  -30.4012  -22.4347   23.0468 C   0  0  0  0  0  0  0  0  0  0  0  0
  -18.0960  -14.6358   23.5967 C   0  0  0  0  0  0  0  0  0  0  0  0
  -28.2071  -16.5266   20.0628 C   0  0  0  0  0  0  0  0  0  0  0  0
  -28.6377  -14.0261   20.3270 C   0  0  0  0  0  0  0  0  0  0  0  0
  -29.4150  -23.6740   15.3293 C   0  0  0  0  0  0  0  0  0  0  0  0
  -24.6655  -24.5477   19.8957 C   0  0  0  0  0  0  0  0  0  0  0  0
  -28.9485  -23.5905   16.6551 C   0  0  0  0  0  0  0  0  0  0  0  0
  -24.9434  -25.0167   21.1876 C   0  0  0  0  0  0  0  0  0  0  0  0
  -19.1984  -15.4254   23.8392 C   0  0  0  0  0  0  0  0  0  0  0  0
  -28.9559  -19.2139   20.0811 C   0  0  0  0  0  0  0  0  0  0  0  0
  -24.1610  -22.9071   22.1082 C   0  0  0  0  0  0  0  0  0  0  0  0
  -30.0938  -20.9703   21.1500 C   0  0  0  0  0  0  0  0  0  0  0  0
  -31.6516  -21.8641   23.2847 C   0  0  0  0  0  0  0  0  0  0  0  0
  -29.6223  -21.9879   21.9794 C   0  0  0  0  0  0  0  0  0  0  0  0
  -27.8197  -15.1389   20.0539 C   0  0  0  0  0  0  0  0  0  0  0  0
  -20.2010  -13.3952   23.3140 C   0  0  0  0  0  0  0  0  0  0  0  0
  -27.8031  -12.9442   20.1879 C   0  0  0  0  0  0  0  0  0  0  0  0
  -30.0275  -13.9752   20.6754 C   0  0  0  0  0  0  0  0  0  0  0  0
  -27.3454  -25.9841   18.9689 C   0  0  0  0  0  0  0  0  0  0  0  0
  -19.5463  -19.2437   23.4598 C   0  0  0  0  0  0  0  0  0  0  0  0
  -23.0320  -20.1485   21.9394 C   0  0  0  0  0  0  0  0  0  0  0  0
  -25.9379  -28.5964   20.2793 C   0  0  0  0  0  0  0  0  0  0  0  0
  -23.6717  -29.8613   22.4955 C   0  0  0  0  0  0  0  0  0  0  0  0
  -21.8714  -12.2821   20.6641 C   0  0  0  0  0  0  0  0  0  0  0  0
  -30.0967  -24.9129   14.8047 C   0  0  0  0  0  0  0  0  0  0  0  0
  -24.9013  -25.4277   18.6988 C   0  0  0  0  0  0  0  0  0  0  0  0
  -25.5129  -26.3902   21.4272 C   0  0  0  0  0  0  0  0  0  0  0  0
  -29.8400  -26.1552   15.6538 C   0  0  0  0  0  0  0  0  0  0  0  0
  -23.8914  -11.5103   17.8356 C   0  0  0  0  0  0  0  0  0  0  0  0
  -30.0276  -25.8381   17.1341 C   0  0  0  0  0  0  0  0  0  0  0  0
  -25.2011  -12.2524   18.1080 C   0  0  0  0  0  0  0  0  0  0  0  0
  -22.6812  -12.3039   18.3231 C   0  0  0  0  0  0  0  0  0  0  0  0
  -24.0539  -13.4662   20.0078 C   0  0  0  0  0  0  0  0  0  0  0  0
  -29.0312  -24.7696   17.6000 C   0  0  1  0  0  0  0  0  0  0  0  0
  -25.9401  -26.5157   18.9525 C   0  0  1  0  0  0  0  0  0  0  0  0
  -25.3065  -12.6802   19.5842 C   0  0  2  0  0  0  0  0  0  0  0  0
  -17.7451  -17.8932   22.3829 C   0  0  0  0  0  0  0  0  0  0  0  0
  -22.7732  -32.0353   23.3693 C   0  0  0  0  0  0  0  0  0  0  0  0
  -21.1786  -21.8139   22.2065 C   0  0  0  0  0  0  0  0  0  0  0  0
  -20.7849  -19.7682   20.8528 C   0  0  0  0  0  0  0  0  0  0  0  0
  -23.7295  -20.0348   24.3499 C   0  0  0  0  0  0  0  0  0  0  0  0
  -25.4469  -20.3937   22.5688 C   0  0  0  0  0  0  0  0  0  0  0  0
  -28.4694  -28.9721   21.9407 C   0  0  0  0  0  0  0  0  0  0  0  0
  -27.1805  -30.5206   23.4270 C   0  0  0  0  0  0  0  0  0  0  0  0
  -27.5031  -31.0866   21.0190 C   0  0  0  0  0  0  0  0  0  0  0  0
  -20.9334  -29.2383   21.5615 C   0  0  0  0  0  0  0  0  0  0  0  0
  -19.1250  -16.8813   24.2324 C   0  0  0  0  0  0  0  0  0  0  0  0
  -21.1987  -12.3353   23.0523 C   0  0  0  0  0  0  0  0  0  0  0  0
  -21.0270  -19.5926   23.3955 C   0  0  0  0  0  0  0  0  0  0  0  0
  -19.1303  -17.8373   23.0275 C   0  0  2  0  0  0  0  0  0  0  0  0
  -25.9160  -29.2233   21.6524 C   0  0  1  0  0  0  0  0  0  0  0  0
  -22.6004  -30.9260   22.3435 C   0  0  2  0  0  0  0  0  0  0  0  0
  -21.4915  -20.3011   22.1079 C   0  0  0  0  0  0  0  0  0  0  0  0
  -24.0128  -20.7069   22.9988 C   0  0  0  0  0  0  0  0  0  1  0  0
  -27.2583  -29.9240   22.0055 C   0  0  0  0  0  0  0  0  0  0  0  0
  -26.5621  -14.7954   19.7631 N   0  0  0  0  0  0  0  0  0  0  0  0
  -26.5837  -13.4546   19.8527 N   0  0  0  0  0  0  0  0  0  0  0  0
  -25.7317  -27.2106   20.2245 N   0  0  0  0  0  0  0  0  0  0  0  0
  -22.8434  -12.6774   19.7303 N   0  0  0  0  0  0  0  0  0  0  0  0
  -28.0009  -11.6154   20.3209 N   0  0  0  0  0  0  0  0  0  0  0  0
  -30.7359  -15.1804   20.7755 N   0  0  0  0  0  0  0  0  0  0  0  0
  -27.7215  -25.3523   17.7989 N   0  0  0  0  0  0  0  0  0  0  0  0
  -24.7555  -30.1070   21.6792 N   0  0  0  0  0  0  0  0  0  0  0  0
  -22.1050  -12.6720   21.9771 N   0  0  0  0  0  0  0  0  0  0  0  0
  -21.2470  -30.3281   22.5212 N   0  3  0  0  0  0  0  0  0  0  0  0
  -30.6276  -12.8919   20.8755 O   0  0  0  0  0  0  0  0  0  0  0  0
  -28.0376  -26.1371   19.9684 O   0  0  0  0  0  0  0  0  0  0  0  0
  -18.7235  -20.0622   23.8742 O   0  0  0  0  0  0  0  0  0  0  0  0
  -23.4966  -19.5956   20.9339 O   0  0  0  0  0  0  0  0  0  0  0  0
  -26.1238  -29.3110   19.2912 O   0  0  0  0  0  0  0  0  0  0  0  0
  -23.5600  -28.9090   23.2644 O   0  0  0  0  0  0  0  0  0  0  0  0
  -20.8722  -11.6255   20.3517 O   0  0  0  0  0  0  0  0  0  0  0  0
  -29.3214  -20.5250   20.0904 O   0  0  0  0  0  0  0  0  0  0  0  0
  -23.9189  -22.1029   23.1962 O   0  0  0  0  0  0  0  0  0  1  0  0
  -32.3990  -22.2920   24.3106 F   0  0  0  0  0  0  0  0  0  0  0  0
  -28.4214  -22.5391   21.7565 F   0  0  0  0  0  0  0  0  0  0  0  0
  -18.5328  -13.0350   23.1735 S   0  0  0  0  0  0  0  0  0  0  0  0
  1  2  1  0  0  0  0
  1  5  2  0  0  0  0
  2  6  2  0  0  0  0
  3  8  2  0  0  0  0
  3 17  1  0  0  0  0
  4  9  1  0  0  0  0
  4 17  2  0  0  0  0
  5 19  1  0  0  0  0
  6 21  1  0  0  0  0
  7 10  2  0  0  0  0
  7 20  1  0  0  0  0
  8 24  1  0  0  0  0
  9 24  2  0  0  0  0
 10 25  1  0  0  0  0
 11 12  2  0  0  0  0
 11 26  1  0  0  0  0
 12 27  1  0  0  0  0
 13 22  1  0  0  0  0
 13 25  2  0  0  0  0
 14 23  1  0  0  0  0
 14 30  2  0  0  0  0
 15 27  2  0  0  0  0
 15 28  1  0  0  0  0
 16 23  2  0  0  0  0
 16 91  1  0  0  0  0
 17 29  1  0  0  0  0
 18 29  1  0  0  0  0
 18 31  2  0  0  0  0
 18 32  1  0  0  0  0
 19 21  2  0  0  0  0
 19 39  1  0  0  0  0
 20 22  2  0  0  0  0
 20 40  1  0  0  0  0
 21 48  1  0  0  0  0
 22 41  1  0  0  0  0
 23 61  1  0  0  0  0
 24 87  1  0  0  0  0
 25 88  1  0  0  0  0
 26 28  2  0  0  0  0
 26 87  1  0  0  0  0
 27 89  1  0  0  0  0
 28 90  1  0  0  0  0
 29 70  2  0  0  0  0
 30 62  1  0  0  0  0
 30 91  1  0  0  0  0
 31 71  1  0  0  0  0
 31 74  1  0  0  0  0
 32 75  1  0  0  0  0
 32 80  2  0  0  0  0
 33 49  1  0  0  0  0
 33 76  1  0  0  0  0
 33 81  2  0  0  0  0
 34 63  1  0  0  0  0
 34 64  1  0  0  0  0
 34 82  2  0  0  0  0
 35 67  1  0  0  0  0
 35 68  1  0  0  0  0
 35 83  2  0  0  0  0
 36 65  1  0  0  0  0
 36 72  1  0  0  0  0
 36 84  2  0  0  0  0
 37 66  1  0  0  0  0
 37 77  1  0  0  0  0
 37 85  2  0  0  0  0
 38 73  1  0  0  0  0
 38 78  1  0  0  0  0
 38 86  2  0  0  0  0
 39 42  1  0  0  0  0
 40 49  1  0  0  0  0
 41 72  1  0  0  0  0
 42 44  1  0  0  0  0
 43 45  1  0  0  0  0
 43 46  1  0  0  0  0
 44 48  1  0  0  0  0
 45 50  1  0  0  0  0
 46 73  1  0  0  0  0
 47 50  1  0  0  0  0
 47 73  1  0  0  0  0
 48 76  1  0  0  0  0
 49 72  1  0  0  0  0
 50 71  1  0  0  0  0
 51 64  1  0  0  0  0
 52 66  1  0  0  0  0
 53 67  1  0  0  0  0
 54 67  1  0  0  0  0
 55 68  1  0  0  0  0
 56 68  1  0  0  0  0
 57 69  1  0  0  0  0
 58 69  1  0  0  0  0
 59 69  1  0  0  0  0
 60 79  1  0  0  0  0
 61 64  1  0  0  0  0
 62 78  1  0  0  0  0
 63 67  1  0  0  0  0
 65 69  1  0  0  0  0
 65 77  1  0  0  0  0
 66 79  1  0  0  0  0
 68 88  1  0  0  0  0
 70 71  1  0  0  0  0
M  CHG  1  79   1
M  ISO  4  38 100  68 101  78 100  88 101
M  END
> <Batch ID>
0144

> <Smiles>
CNC(C)C(=O)NC(C(=O)N1Cc2cc([101O:1][101C:1](C)(C)C(=O)C(C)(C)CC(=O)C(C)Cc3csc(C[100NH:0][100C:0](=O)N4CCCC(n5nc(-c6ccc(Oc7ccc(F)cc7F)cc6)c(C(N)=O)c5N)C4)c3)ccc2CC1C(=O)NC1CCCc2ccccc21)C(C)(C)C

> <Shape>
0.210

> <Color>
0.074

> <Negative vol penalty>
0.000

$$$$

  -OEChem-04052303043D

 88 96  0     1  0  0  0  0  0999 V2000
  -22.9191   -8.5459   21.7090 C   0  0  0  0  0  0  0  0  0  0  0  0
  -24.0601   -9.2720   22.0350 C   0  0  0  0  0  0  0  0  0  0  0  0
  -22.4927  -27.6804   20.9644 C   0  0  0  0  0  0  0  0  0  0  0  0
  -23.2932  -26.2075   22.7041 C   0  0  0  0  0  0  0  0  0  0  0  0
  -21.9069   -9.1408   20.9571 C   0  0  0  0  0  0  0  0  0  0  0  0
  -24.1901  -10.5932   21.6083 C   0  0  0  0  0  0  0  0  0  0  0  0
  -25.8891  -13.6573   25.2647 C   0  0  0  0  0  0  0  0  0  0  0  0
  -21.1826  -27.4841   21.4009 C   0  0  0  0  0  0  0  0  0  0  0  0
  -21.9830  -26.0112   23.1407 C   0  0  0  0  0  0  0  0  0  0  0  0
  -27.2548  -13.6205   25.5428 C   0  0  0  0  0  0  0  0  0  0  0  0
  -17.6601  -27.6551   22.2828 C   0  0  0  0  0  0  0  0  0  0  0  0
  -16.8393  -28.7772   22.3963 C   0  0  0  0  0  0  0  0  0  0  0  0
  -27.5698  -15.6202   24.2309 C   0  0  0  0  0  0  0  0  0  0  0  0
  -29.9799  -19.5176   21.3915 C   0  0  0  0  0  0  0  0  0  0  0  0
  -18.3688  -29.7335   24.0035 C   0  0  0  0  0  0  0  0  0  0  0  0
  -23.5480  -27.0421   21.6160 C   0  0  0  0  0  0  0  0  0  0  0  0
  -25.8009  -28.2387   21.5938 C   0  0  0  0  0  0  0  0  0  0  0  0
  -22.0201  -10.4730   20.5292 C   0  0  0  0  0  0  0  0  0  0  0  0
  -25.3543  -14.6714   24.4572 C   0  0  0  0  0  0  0  0  0  0  0  0
  -23.1790  -11.2060   20.8489 C   0  0  0  0  0  0  0  0  0  0  0  0
  -26.1966  -15.6691   23.9461 C   0  0  0  0  0  0  0  0  0  0  0  0
  -29.6035  -20.8917   21.3721 C   0  0  0  0  0  0  0  0  0  0  0  0
  -20.9277  -26.6495   22.4891 C   0  0  0  0  0  0  0  0  0  0  0  0
  -28.0958  -14.6003   25.0236 C   0  0  0  0  0  0  0  0  0  0  0  0
  -18.8352  -27.5722   23.0298 C   0  0  0  0  0  0  0  0  0  0  0  0
  -17.1936  -29.8164   23.2566 C   0  0  0  0  0  0  0  0  0  0  0  0
  -19.1896  -28.6114   23.8901 C   0  0  0  0  0  0  0  0  0  0  0  0
  -24.9016  -27.2440   21.1652 C   0  0  0  0  0  0  0  0  0  0  0  0
  -30.2013  -19.0238   20.1247 C   0  0  0  0  0  0  0  0  0  0  0  0
  -26.9440  -28.0032   20.8697 C   0  0  0  0  0  0  0  0  0  0  0  0
  -29.5518  -21.3959   20.0910 C   0  0  0  0  0  0  0  0  0  0  0  0
  -30.1875  -16.7743   20.5277 C   0  0  0  0  0  0  0  0  0  0  0  0
  -25.6192  -29.2821   22.5602 C   0  0  0  0  0  0  0  0  0  0  0  0
  -23.8317  -14.7494   21.6681 C   0  0  0  0  0  0  0  0  0  0  0  0
  -23.5224  -17.9018   22.3676 C   0  0  0  0  0  0  0  0  0  0  0  0
  -24.6903  -20.6203   24.0684 C   0  0  0  0  0  0  0  0  0  0  0  0
  -29.2021  -23.1136   18.2817 C   0  0  0  0  0  0  0  0  0  0  0  0
  -20.9209  -11.0581   19.6784 C   0  0  0  0  0  0  0  0  0  0  0  0
  -23.8749  -14.7123   24.1886 C   0  0  0  0  0  0  0  0  0  0  0  0
  -25.6691  -16.7908   23.0905 C   0  0  0  0  0  0  0  0  0  0  0  0
  -20.9690  -12.5809   19.5837 C   0  0  0  0  0  0  0  0  0  0  0  0
  -28.4222  -26.1998   16.6868 C   0  0  0  0  0  0  0  0  0  0  0  0
  -22.3906  -13.0532   19.2957 C   0  0  0  0  0  0  0  0  0  0  0  0
  -27.5177  -26.9110   17.6958 C   0  0  0  0  0  0  0  0  0  0  0  0
  -28.1715  -24.6931   16.6637 C   0  0  0  0  0  0  0  0  0  0  0  0
  -27.3390  -24.7427   18.9818 C   0  0  0  0  0  0  0  0  0  0  0  0
  -23.3456  -12.6493   20.4255 C   0  0  1  0  0  0  0  0  0  0  0  0
  -23.5174  -15.4994   22.9316 C   0  0  1  0  0  0  0  0  0  0  0  0
  -27.6004  -26.2540   19.0877 C   0  0  2  0  0  0  0  0  0  0  0  0
  -29.3054  -21.6762   22.5944 C   0  0  0  0  0  0  0  0  0  0  0  0
  -24.7479  -22.9720   24.9421 C   0  0  0  0  0  0  0  0  0  0  0  0
  -32.7681  -15.3467   21.3546 C   0  0  0  0  0  0  0  0  0  0  0  0
  -30.6359  -12.6646   26.1126 C   0  0  0  0  0  0  0  0  0  0  0  0
  -24.7515  -18.4995   19.6396 C   0  0  0  0  0  0  0  0  0  0  0  0
  -25.1620  -20.8440   20.4159 C   0  0  0  0  0  0  0  0  0  0  0  0
  -22.8295  -19.9730   20.2632 C   0  0  0  0  0  0  0  0  0  0  0  0
  -31.9416  -12.5045   23.3003 C   0  0  0  0  0  0  0  0  0  0  0  0
  -32.3446  -14.6540   24.4689 C   0  0  0  0  0  0  0  0  0  0  0  0
  -23.0753  -19.9013   26.4420 C   0  0  0  0  0  0  0  0  0  0  0  0
  -30.5153  -15.3377   20.2114 C   0  0  0  0  0  0  0  0  0  0  0  0
  -30.6511  -14.6186   22.6436 C   0  0  0  0  0  0  0  0  0  0  0  0
  -24.3453  -19.1404   22.1074 C   0  0  1  0  0  0  0  0  0  0  0  0
  -23.9795  -21.6599   24.9160 C   0  0  2  0  0  0  0  0  0  0  0  0
  -31.3991  -14.6702   21.2876 C   0  0  2  0  0  0  0  0  0  0  0  0
  -30.1431  -13.4003   24.8674 C   0  0  2  0  0  0  0  0  0  1  0  0
  -24.2826  -19.5921   20.6210 C   0  0  0  0  0  0  0  0  0  0  0  0
  -31.2402  -13.7748   23.8251 C   0  0  0  0  0  0  0  0  0  0  0  0
  -25.4280  -26.4369   20.2403 N   0  0  0  0  0  0  0  0  0  0  0  0
  -30.5839  -17.7259   19.7469 N   0  0  0  0  0  0  0  0  0  0  0  0
  -26.6704  -26.9241   20.0818 N   0  0  0  0  0  0  0  0  0  0  0  0
  -24.2165  -16.7836   22.8510 N   0  0  0  0  0  0  0  0  0  0  0  0
  -28.2703  -24.1392   18.0158 N   0  0  0  0  0  0  0  0  0  0  0  0
  -28.1463  -28.6160   20.8364 N   0  0  0  0  0  0  0  0  0  0  0  0
  -24.3824  -29.3812   23.2120 N   0  0  0  0  0  0  0  0  0  0  0  0
  -29.2288  -22.6888   19.6097 N   0  0  0  0  0  0  0  0  0  0  0  0
  -23.1868  -13.5320   21.5613 N   0  0  0  0  0  0  0  0  0  0  0  0
  -23.8815  -20.1456   23.0576 N   0  0  0  0  0  0  0  0  0  0  0  0
  -23.8323  -21.1734   26.3169 N   0  3  0  0  0  0  0  0  0  0  0  0
  -26.5213  -30.1125   22.8255 O   0  0  0  0  0  0  0  0  0  0  0  0
  -24.6011  -15.2397   20.8500 O   0  0  0  0  0  0  0  0  0  0  0  0
  -22.3073  -17.9277   22.1567 O   0  0  0  0  0  0  0  0  0  0  0  0
  -25.8485  -20.2674   24.2795 O   0  0  0  0  0  0  0  0  0  0  0  0
  -29.9424  -22.6654   17.4024 O   0  0  0  0  0  0  0  0  0  0  0  0
  -19.6494  -26.4579   22.9155 O   0  0  0  0  0  0  0  0  0  0  0  0
  -29.4355  -14.5662   25.2942 O   0  0  0  0  0  0  0  0  0  1  0  0
  -16.4061  -30.8945   23.3642 F   0  0  0  0  0  0  0  0  0  0  0  0
  -20.3179  -28.5379   24.6094 F   0  0  0  0  0  0  0  0  0  0  0  0
  -29.9557  -20.2146   18.9189 S   0  0  0  0  0  0  0  0  0  0  0  0
  1  2  1  0  0  0  0
  1  5  2  0  0  0  0
  2  6  2  0  0  0  0
  3  8  2  0  0  0  0
  3 16  1  0  0  0  0
  4  9  1  0  0  0  0
  4 16  2  0  0  0  0
  5 18  1  0  0  0  0
  6 20  1  0  0  0  0
  7 10  2  0  0  0  0
  7 19  1  0  0  0  0
  8 23  1  0  0  0  0
  9 23  2  0  0  0  0
 10 24  1  0  0  0  0
 11 12  2  0  0  0  0
 11 25  1  0  0  0  0
 12 26  1  0  0  0  0
 13 21  1  0  0  0  0
 13 24  2  0  0  0  0
 14 22  1  0  0  0  0
 14 29  2  0  0  0  0
 15 26  2  0  0  0  0
 15 27  1  0  0  0  0
 16 28  1  0  0  0  0
 17 28  1  0  0  0  0
 17 30  2  0  0  0  0
 17 33  1  0  0  0  0
 18 20  2  0  0  0  0
 18 38  1  0  0  0  0
 19 21  2  0  0  0  0
 19 39  1  0  0  0  0
 20 47  1  0  0  0  0
 21 40  1  0  0  0  0
 22 31  2  0  0  0  0
 22 50  1  0  0  0  0
 23 84  1  0  0  0  0
 24 85  1  0  0  0  0
 25 27  2  0  0  0  0
 25 84  1  0  0  0  0
 26 86  1  0  0  0  0
 27 87  1  0  0  0  0
 28 68  2  0  0  0  0
 29 69  1  0  0  0  0
 29 88  1  0  0  0  0
 30 70  1  0  0  0  0
 30 73  1  0  0  0  0
 31 75  1  0  0  0  0
 31 88  1  0  0  0  0
 32 60  1  0  0  0  0
 32 69  2  0  0  0  0
 33 74  1  0  0  0  0
 33 79  2  0  0  0  0
 34 48  1  0  0  0  0
 34 76  1  0  0  0  0
 34 80  2  0  0  0  0
 35 62  1  0  0  0  0
 35 71  1  0  0  0  0
 35 81  2  0  0  0  0
 36 63  1  0  0  0  0
 36 77  1  0  0  0  0
 36 82  2  0  0  0  0
 37 72  1  0  0  0  0
 37 75  1  0  0  0  0
 37 83  2  0  0  0  0
 38 41  1  0  0  0  0
 39 48  1  0  0  0  0
 40 71  1  0  0  0  0
 41 43  1  0  0  0  0
 42 44  1  0  0  0  0
 42 45  1  0  0  0  0
 43 47  1  0  0  0  0
 44 49  1  0  0  0  0
 45 72  1  0  0  0  0
 46 49  1  0  0  0  0
 46 72  1  0  0  0  0
 47 76  1  0  0  0  0
 48 71  1  0  0  0  0
 49 70  1  0  0  0  0
 51 63  1  0  0  0  0
 52 64  1  0  0  0  0
 53 65  1  0  0  0  0
 54 66  1  0  0  0  0
 55 66  1  0  0  0  0
 56 66  1  0  0  0  0
 57 67  1  0  0  0  0
 58 67  1  0  0  0  0
 59 78  1  0  0  0  0
 60 64  1  0  0  0  0
 61 64  1  0  0  0  0
 61 67  1  0  0  0  0
 62 66  1  0  0  0  0
 62 77  1  0  0  0  0
 63 78  1  0  0  0  0
 65 67  1  0  0  0  0
 65 85  1  0  0  0  0
 68 70  1  0  0  0  0
M  CHG  1  78   1
M  ISO  4  37 100  65 101  75 100  85 101
M  END
> <Batch ID>
0144

> <Smiles>
CNC(C)C(=O)NC(C(=O)N1Cc2cc([101O:1][101CH:1](C)C(C)(C)CC(C)C=CNc3cc(C)c([100NH:0][100C:0](=O)N4CCCC(n5nc(-c6ccc(Oc7ccc(F)cc7F)cc6)c(C(N)=O)c5N)C4)s3)ccc2CC1C(=O)NC1CCCc2ccccc21)C(C)(C)C

> <Shape>
0.226

> <Color>
0.055

> <Negative vol penalty>
0.000

$$$$

  -OEChem-04052303042D

  0  0  0     0  0  0  0  0  0999 V2000
M  END
$$$$

  -OEChem-04052303043D

 87 96  0     1  0  0  0  0  0999 V2000
  -30.1059  -35.3380   24.3667 C   0  0  0  0  0  0  0  0  0  0  0  0
  -30.1433  -34.1019   23.7294 C   0  0  0  0  0  0  0  0  0  0  0  0
  -24.0821   -8.5983   20.6798 C   0  0  0  0  0  0  0  0  0  0  0  0
  -23.2149  -10.7765   21.2633 C   0  0  0  0  0  0  0  0  0  0  0  0
  -27.8681  -18.8810   20.3012 C   0  0  0  0  0  0  0  0  0  0  0  0
  -28.9975  -35.6914   25.1352 C   0  0  0  0  0  0  0  0  0  0  0  0
  -29.0728  -33.2181   23.8611 C   0  0  0  0  0  0  0  0  0  0  0  0
  -26.9583  -29.3389   19.6202 C   0  0  0  0  0  0  0  0  0  0  0  0
  -27.9366  -17.5205   20.6007 C   0  0  0  0  0  0  0  0  0  0  0  0
  -23.2277   -8.0085   21.6114 C   0  0  0  0  0  0  0  0  0  0  0  0
  -22.3604  -10.1867   22.1949 C   0  0  0  0  0  0  0  0  0  0  0  0
  -27.1629  -27.9758   19.4104 C   0  0  0  0  0  0  0  0  0  0  0  0
  -19.9621   -7.1535   21.8047 C   0  0  0  0  0  0  0  0  0  0  0  0
  -19.2619   -6.0131   21.4111 C   0  0  0  0  0  0  0  0  0  0  0  0
  -25.1253  -27.4918   20.6075 C   0  0  0  0  0  0  0  0  0  0  0  0
  -30.1612  -17.4261   19.6629 C   0  0  0  0  0  0  0  0  0  0  0  0
  -20.3153   -4.7545   23.1841 C   0  0  0  0  0  0  0  0  0  0  0  0
  -24.0757   -9.9823   20.5058 C   0  0  0  0  0  0  0  0  0  0  0  0
  -28.9461  -19.5141   19.6824 C   0  0  0  0  0  0  0  0  0  0  0  0
  -24.6894  -10.8489   18.1864 C   0  0  0  0  0  0  0  0  0  0  0  0
  -27.9087  -34.8155   25.2685 C   0  0  0  0  0  0  0  0  0  0  0  0
  -25.8394  -29.7888   20.3358 C   0  0  0  0  0  0  0  0  0  0  0  0
  -27.9495  -33.5596   24.6332 C   0  0  0  0  0  0  0  0  0  0  0  0
  -24.9074  -28.8612   20.8228 C   0  0  0  0  0  0  0  0  0  0  0  0
  -29.0832  -16.7930   20.2816 C   0  0  0  0  0  0  0  0  0  0  0  0
  -22.3668   -8.8027   22.3689 C   0  0  0  0  0  0  0  0  0  0  0  0
  -26.2479  -27.0519   19.9066 C   0  0  0  0  0  0  0  0  0  0  0  0
  -20.8390   -7.0944   22.8879 C   0  0  0  0  0  0  0  0  0  0  0  0
  -19.4385   -4.8136   22.1008 C   0  0  0  0  0  0  0  0  0  0  0  0
  -30.0927  -18.7867   19.3633 C   0  0  0  0  0  0  0  0  0  0  0  0
  -21.0155   -5.8949   23.5776 C   0  0  0  0  0  0  0  0  0  0  0  0
  -24.9585  -10.5921   19.5441 C   0  0  0  0  0  0  0  0  0  0  0  0
  -25.8385  -11.4341   17.7133 C   0  0  0  0  0  0  0  0  0  0  0  0
  -28.8704  -20.9518   19.3667 C   0  0  0  0  0  0  0  0  0  0  0  0
  -23.5066  -10.5824   17.4212 C   0  0  0  0  0  0  0  0  0  0  0  0
  -25.4066  -31.4047   23.0386 C   0  0  0  0  0  0  0  0  0  0  0  0
  -22.2940  -31.3299   22.1283 C   0  0  0  0  0  0  0  0  0  0  0  0
  -19.8411  -29.7966   20.3176 C   0  0  0  0  0  0  0  0  0  0  0  0
  -30.2150  -14.5430   20.3373 C   0  0  0  0  0  0  0  0  0  0  0  0
  -26.7532  -35.2223   26.1482 C   0  0  0  0  0  0  0  0  0  0  0  0
  -25.6190  -31.2639   20.5304 C   0  0  0  0  0  0  0  0  0  0  0  0
  -23.6794  -29.2939   21.5799 C   0  0  0  0  0  0  0  0  0  0  0  0
  -25.4974  -34.3819   25.9316 C   0  0  0  0  0  0  0  0  0  0  0  0
  -30.5680  -11.5392   18.4586 C   0  0  0  0  0  0  0  0  0  0  0  0
  -29.9336  -22.7875   22.3013 C   0  0  0  0  0  0  0  0  0  0  0  0
  -25.8480  -32.8978   25.8948 C   0  0  0  0  0  0  0  0  0  0  0  0
  -29.1440  -10.9819   18.3950 C   0  0  0  0  0  0  0  0  0  0  0  0
  -30.1822  -23.7904   21.1794 C   0  0  0  0  0  0  0  0  0  0  0  0
  -29.8225  -21.4527   21.5755 C   0  0  0  0  0  0  0  0  0  0  0  0
  -30.8578  -12.2027   19.8038 C   0  0  0  0  0  0  0  0  0  0  0  0
  -28.4635  -12.6688   20.1496 C   0  0  0  0  0  0  0  0  0  0  0  0
  -26.7970  -32.5839   24.7319 C   0  0  1  0  0  0  0  0  0  0  0  0
  -24.7141  -31.5814   21.7169 C   0  0  1  0  0  0  0  0  0  0  0  0
  -28.1034  -12.0482   18.7899 C   0  0  2  0  0  0  0  0  0  0  0  0
  -29.2974  -23.2949   20.0315 C   0  0  2  0  0  0  0  0  0  0  0  0
  -17.3894  -29.9425   19.8025 C   0  0  0  0  0  0  0  0  0  0  0  0
  -21.6506  -30.1529   24.8688 C   0  0  0  0  0  0  0  0  0  0  0  0
  -19.4230  -29.4509   23.9671 C   0  0  0  0  0  0  0  0  0  0  0  0
  -20.0216  -31.8707   24.0627 C   0  0  0  0  0  0  0  0  0  0  0  0
  -20.3533  -30.2025   17.4311 C   0  0  0  0  0  0  0  0  0  0  0  0
  -27.8773  -23.8369   20.0964 C   0  0  0  0  0  0  0  0  0  0  0  0
  -27.7966  -25.2730   19.6018 C   0  0  0  0  0  0  0  0  0  1  0  0
  -21.1380  -30.3844   22.3490 C   0  0  1  0  0  0  0  0  0  0  0  0
  -18.7899  -30.3514   19.3733 C   0  0  2  0  0  0  0  0  0  0  0  0
  -20.5824  -30.4562   23.7994 C   0  0  0  0  0  0  0  0  0  0  0  0
  -26.1825  -10.9820   19.9099 N   0  0  0  0  0  0  0  0  0  0  0  0
  -26.6928  -11.4897   18.7751 N   0  0  0  0  0  0  0  0  0  0  0  0
  -29.2824  -21.8352   20.2594 N   0  0  0  0  0  0  0  0  0  0  0  0
  -23.5116  -30.7466   21.7499 N   0  0  0  0  0  0  0  0  0  0  0  0
  -29.8335  -13.2039   20.1095 N   0  0  0  0  0  0  0  0  0  0  0  0
  -26.1914  -11.9012   16.4969 N   0  0  0  0  0  0  0  0  0  0  0  0
  -22.4180   -9.9763   18.0631 N   0  0  0  0  0  0  0  0  0  0  0  0
  -29.1523  -15.4109   20.5863 N   0  0  0  0  0  0  0  0  0  0  0  0
  -26.0670  -32.5341   23.4832 N   0  0  0  0  0  0  0  0  0  0  0  0
  -20.1548  -30.6938   21.3165 N   0  0  0  0  0  0  0  0  0  0  0  0
  -28.3905  -21.3375   18.1880 N   0  3  0  0  0  0  0  0  0  0  0  0
  -19.0218  -29.8515   17.9886 N   0  3  0  0  0  0  0  0  0  0  0  0
  -23.4235  -10.8583   16.2003 O   0  0  0  0  0  0  0  0  0  0  0  0
  -25.3449  -30.3241   23.6133 O   0  0  0  0  0  0  0  0  0  0  0  0
  -22.1212  -32.5420   22.2789 O   0  0  0  0  0  0  0  0  0  0  0  0
  -20.3318  -28.6776   20.1846 O   0  0  0  0  0  0  0  0  0  0  0  0
  -31.3950  -14.8993   20.2865 O   0  0  0  0  0  0  0  0  0  0  0  0
  -21.5328   -8.2276   23.2778 O   0  0  0  0  0  0  0  0  0  0  0  0
  -26.4456  -25.7208   19.7038 O   0  0  0  0  0  0  0  0  0  1  0  0
  -18.7648   -3.7190   21.7238 F   0  0  0  0  0  0  0  0  0  0  0  0
  -31.1329  -19.3858   18.7670 F   0  0  0  0  0  0  0  0  0  0  0  0
  -21.8557   -5.8322   24.6197 F   0  0  0  0  0  0  0  0  0  0  0  0
  1  2  1  0  0  0  0
  1  6  2  0  0  0  0
  2  7  2  0  0  0  0
  3 10  2  0  0  0  0
  3 18  1  0  0  0  0
  4 11  1  0  0  0  0
  4 18  2  0  0  0  0
  5  9  2  0  0  0  0
  5 19  1  0  0  0  0
  6 21  1  0  0  0  0
  7 23  1  0  0  0  0
  8 12  2  0  0  0  0
  8 22  1  0  0  0  0
  9 25  1  0  0  0  0
 10 26  1  0  0  0  0
 11 26  2  0  0  0  0
 12 27  1  0  0  0  0
 13 14  2  0  0  0  0
 13 28  1  0  0  0  0
 14 29  1  0  0  0  0
 15 24  1  0  0  0  0
 15 27  2  0  0  0  0
 16 25  2  0  0  0  0
 16 30  1  0  0  0  0
 17 29  2  0  0  0  0
 17 31  1  0  0  0  0
 18 32  1  0  0  0  0
 19 30  2  0  0  0  0
 19 34  1  0  0  0  0
 20 32  1  0  0  0  0
 20 33  2  0  0  0  0
 20 35  1  0  0  0  0
 21 23  2  0  0  0  0
 21 40  1  0  0  0  0
 22 24  2  0  0  0  0
 22 41  1  0  0  0  0
 23 52  1  0  0  0  0
 24 42  1  0  0  0  0
 25 73  1  0  0  0  0
 26 83  1  0  0  0  0
 27 84  1  0  0  0  0
 28 31  2  0  0  0  0
 28 83  1  0  0  0  0
 29 85  1  0  0  0  0
 30 86  1  0  0  0  0
 31 87  1  0  0  0  0
 32 66  2  0  0  0  0
 33 67  1  0  0  0  0
 33 71  1  0  0  0  0
 34 68  1  0  0  0  0
 34 76  2  0  0  0  0
 35 72  1  0  0  0  0
 35 78  2  0  0  0  0
 36 53  1  0  0  0  0
 36 74  1  0  0  0  0
 36 79  2  0  0  0  0
 37 63  1  0  0  0  0
 37 69  1  0  0  0  0
 37 80  2  0  0  0  0
 38 64  1  0  0  0  0
 38 75  1  0  0  0  0
 38 81  2  0  0  0  0
 39 70  1  0  0  0  0
 39 73  1  0  0  0  0
 39 82  2  0  0  0  0
 40 43  1  0  0  0  0
 41 53  1  0  0  0  0
 42 69  1  0  0  0  0
 43 46  1  0  0  0  0
 44 47  1  0  0  0  0
 44 50  1  0  0  0  0
 45 48  1  0  0  0  0
 45 49  1  0  0  0  0
 46 52  1  0  0  0  0
 47 54  1  0  0  0  0
 48 55  1  0  0  0  0
 49 68  1  0  0  0  0
 50 70  1  0  0  0  0
 51 54  1  0  0  0  0
 51 70  1  0  0  0  0
 52 74  1  0  0  0  0
 53 69  1  0  0  0  0
 54 67  1  0  0  0  0
 55 61  1  0  0  0  0
 55 68  1  0  0  0  0
 56 64  1  0  0  0  0
 57 65  1  0  0  0  0
 58 65  1  0  0  0  0
 59 65  1  0  0  0  0
 60 77  1  0  0  0  0
 61 62  1  0  0  0  0
 62 84  1  0  0  0  0
 63 65  1  0  0  0  0
 63 75  1  0  0  0  0
 64 77  1  0  0  0  0
 66 67  1  0  0  0  0
M  CHG  2  76   1  77   1
M  ISO  4  39 100  62 101  73 100  84 101
M  END
> <Batch ID>
0144

> <Smiles>
CNC(C)C(=O)NC(C(=O)N1Cc2cc([101O:1][101CH2:1]CC3CCCN3C(=N)c3ccc([100NH:0][100C:0](=O)N4CCCC(n5nc(-c6ccc(Oc7ccc(F)cc7F)cc6)c(C(N)=O)c5N)C4)cc3F)ccc2CC1C(=O)NC1CCCc2ccccc21)C(C)(C)C

> <Shape>
0.314

> <Color>
0.088

> <Negative vol penalty>
0.000

$$$$

  -OEChem-04052303043D

 88 96  0     1  0  0  0  0  0999 V2000
  -28.1793  -37.5078   22.5253 C   0  0  0  0  0  0  0  0  0  0  0  0
  -28.2052  -36.1169   22.5115 C   0  0  0  0  0  0  0  0  0  0  0  0
  -23.2411   -9.6052   21.5472 C   0  0  0  0  0  0  0  0  0  0  0  0
  -23.7055  -10.9019   23.5321 C   0  0  0  0  0  0  0  0  0  0  0  0
  -27.1220  -38.1781   23.1390 C   0  0  0  0  0  0  0  0  0  0  0  0
  -27.1743  -35.3955   23.1126 C   0  0  0  0  0  0  0  0  0  0  0  0
  -25.5692  -31.5435   20.2437 C   0  0  0  0  0  0  0  0  0  0  0  0
  -22.5471   -8.6730   22.3185 C   0  0  0  0  0  0  0  0  0  0  0  0
  -23.0114   -9.9698   24.3035 C   0  0  0  0  0  0  0  0  0  0  0  0
  -26.3551  -30.3920   20.2262 C   0  0  0  0  0  0  0  0  0  0  0  0
  -23.2895   -6.0940   24.3732 C   0  0  0  0  0  0  0  0  0  0  0  0
  -23.5392   -4.7425   24.1352 C   0  0  0  0  0  0  0  0  0  0  0  0
  -31.0865  -19.4855   19.4678 C   0  0  0  0  0  0  0  0  0  0  0  0
  -31.1622  -18.0666   19.5732 C   0  0  0  0  0  0  0  0  0  0  0  0
  -24.8581  -29.3537   21.8075 C   0  0  0  0  0  0  0  0  0  0  0  0
  -21.2119   -4.4107   23.5779 C   0  0  0  0  0  0  0  0  0  0  0  0
  -23.8204  -10.7196   22.1540 C   0  0  0  0  0  0  0  0  0  0  0  0
  -24.0124  -12.8289   20.7321 C   0  0  0  0  0  0  0  0  0  0  0  0
  -26.0728  -37.4646   23.7395 C   0  0  0  0  0  0  0  0  0  0  0  0
  -24.4261  -31.6128   21.0528 C   0  0  0  0  0  0  0  0  0  0  0  0
  -26.1027  -36.0570   23.7362 C   0  0  0  0  0  0  0  0  0  0  0  0
  -24.0581  -30.5063   21.8314 C   0  0  0  0  0  0  0  0  0  0  0  0
  -22.4322   -8.8553   23.6966 C   0  0  0  0  0  0  0  0  0  0  0  0
  -26.0012  -29.2979   21.0104 C   0  0  0  0  0  0  0  0  0  0  0  0
  -22.0010   -6.6039   24.2137 C   0  0  0  0  0  0  0  0  0  0  0  0
  -22.5004   -3.9008   23.7375 C   0  0  0  0  0  0  0  0  0  0  0  0
  -20.9622   -5.7622   23.8160 C   0  0  0  0  0  0  0  0  0  0  0  0
  -24.5380  -11.6826   21.3578 C   0  0  0  0  0  0  0  0  0  0  0  0
  -25.0913  -13.4032   20.1055 C   0  0  0  0  0  0  0  0  0  0  0  0
  -29.8439  -19.9649   19.8193 C   0  0  0  0  0  0  0  0  0  0  0  0
  -29.9744  -17.5155   20.0016 C   0  0  0  0  0  0  0  0  0  0  0  0
  -22.6690  -13.3298   20.7186 C   0  0  0  0  0  0  0  0  0  0  0  0
  -23.5117  -33.4339   23.4924 C   0  0  0  0  0  0  0  0  0  0  0  0
  -20.7151  -31.8295   23.1360 C   0  0  0  0  0  0  0  0  0  0  0  0
  -30.0104  -22.4590   19.5398 C   0  0  0  0  0  0  0  0  0  0  0  0
  -19.0990  -29.0345   22.0302 C   0  0  0  0  0  0  0  0  0  0  0  0
  -30.4143  -15.0367   20.0912 C   0  0  0  0  0  0  0  0  0  0  0  0
  -24.9753  -38.2331   24.4320 C   0  0  0  0  0  0  0  0  0  0  0  0
  -23.5741  -32.8524   21.0401 C   0  0  0  0  0  0  0  0  0  0  0  0
  -22.8291  -30.5226   22.7019 C   0  0  0  0  0  0  0  0  0  0  0  0
  -23.7321  -37.3949   24.7187 C   0  0  0  0  0  0  0  0  0  0  0  0
  -29.7622  -11.6271   19.2997 C   0  0  0  0  0  0  0  0  0  0  0  0
  -24.1228  -36.0509   25.3254 C   0  0  0  0  0  0  0  0  0  0  0  0
  -28.3017  -11.4319   19.7131 C   0  0  0  0  0  0  0  0  0  0  0  0
  -30.5029  -12.5588   20.2572 C   0  0  0  0  0  0  0  0  0  0  0  0
  -28.3955  -13.6622   20.8979 C   0  0  0  0  0  0  0  0  0  0  0  0
  -24.9903  -35.2392   24.3558 C   0  0  1  0  0  0  0  0  0  0  0  0
  -22.7167  -33.0011   22.2931 C   0  0  1  0  0  0  0  0  0  0  0  0
  -27.5911  -12.7828   19.9268 C   0  0  2  0  0  0  0  0  0  0  0  0
  -16.8183  -27.9944   21.9127 C   0  0  0  0  0  0  0  0  0  0  0  0
  -20.8875  -31.1226   26.0991 C   0  0  0  0  0  0  0  0  0  0  0  0
  -19.1621  -29.3517   25.7056 C   0  0  0  0  0  0  0  0  0  0  0  0
  -18.5995  -31.7491   25.3076 C   0  0  0  0  0  0  0  0  0  0  0  0
  -30.5717  -24.7490   21.4910 C   0  0  0  0  0  0  0  0  0  0  0  0
  -28.6732  -23.3036   22.1894 C   0  0  0  0  0  0  0  0  0  0  0  0
  -26.8352  -26.0553   19.0272 C   0  0  0  0  0  0  0  0  0  0  0  0
  -26.0025  -24.4739   20.7811 C   0  0  0  0  0  0  0  0  0  0  0  0
  -19.1500  -28.9778   19.0716 C   0  0  0  0  0  0  0  0  0  0  0  0
  -29.1271  -23.6921   19.7086 C   0  0  0  0  0  0  0  0  0  0  0  0
  -28.2640  -25.6320   21.1548 C   0  0  0  0  0  0  0  0  0  0  0  0
  -26.1034  -26.9324   21.2328 C   0  0  0  0  0  0  0  0  0  1  0  0
  -20.1363  -30.5525   23.6957 C   0  0  1  0  0  0  0  0  0  0  0  0
  -17.8423  -28.8610   21.1965 C   0  0  2  0  0  0  0  0  0  0  0  0
  -19.7206  -30.6941   25.1872 C   0  0  0  0  0  0  0  0  0  0  0  0
  -29.1241  -24.3184   21.1310 C   0  0  0  0  0  0  0  0  0  0  0  0
  -26.8329  -25.7497   20.5298 C   0  0  0  0  0  0  0  0  0  0  0  0
  -25.8488  -11.5357   21.1477 N   0  0  0  0  0  0  0  0  0  0  0  0
  -26.1560  -12.5972   20.3829 N   0  0  0  0  0  0  0  0  0  0  0  0
  -22.0321  -31.7598   22.6600 N   0  0  0  0  0  0  0  0  0  0  0  0
  -29.7736  -13.8200   20.4074 N   0  0  0  0  0  0  0  0  0  0  0  0
  -25.2236  -14.5140   19.3498 N   0  0  0  0  0  0  0  0  0  0  0  0
  -21.6831  -12.6169   21.4142 N   0  0  0  0  0  0  0  0  0  0  0  0
  -29.3392  -21.2862   19.8598 N   0  0  0  0  0  0  0  0  0  0  0  0
  -29.6117  -16.1670   20.2417 N   0  0  0  0  0  0  0  0  0  0  0  0
  -24.1701  -34.6374   23.3265 N   0  0  0  0  0  0  0  0  0  0  0  0
  -19.0449  -30.1740   22.8046 N   0  0  0  0  0  0  0  0  0  0  0  0
  -18.1706  -28.2196   19.8919 N   0  3  0  0  0  0  0  0  0  0  0  0
  -22.3492  -14.3697   20.0942 O   0  0  0  0  0  0  0  0  0  0  0  0
  -23.5255  -32.7289   24.4946 O   0  0  0  0  0  0  0  0  0  0  0  0
  -20.0217  -32.8495   23.1150 O   0  0  0  0  0  0  0  0  0  0  0  0
  -31.1726  -22.5754   19.1603 O   0  0  0  0  0  0  0  0  0  0  0  0
  -20.0335  -28.2367   22.0004 O   0  0  0  0  0  0  0  0  0  0  0  0
  -31.5800  -15.0708   19.6887 O   0  0  0  0  0  0  0  0  0  0  0  0
  -21.7548   -7.9460   24.4496 O   0  0  0  0  0  0  0  0  0  0  0  0
  -26.7721  -28.1653   20.9956 O   0  0  0  0  0  0  0  0  0  1  0  0
  -22.7407   -2.6033   23.5075 F   0  0  0  0  0  0  0  0  0  0  0  0
  -19.7225   -6.2465   23.6598 F   0  0  0  0  0  0  0  0  0  0  0  0
  -28.7750  -18.7068   20.2743 S   0  0  0  0  0  0  0  0  0  0  0  0
  1  2  1  0  0  0  0
  1  5  2  0  0  0  0
  2  6  2  0  0  0  0
  3  8  2  0  0  0  0
  3 17  1  0  0  0  0
  4  9  1  0  0  0  0
  4 17  2  0  0  0  0
  5 19  1  0  0  0  0
  6 21  1  0  0  0  0
  7 10  2  0  0  0  0
  7 20  1  0  0  0  0
  8 23  1  0  0  0  0
  9 23  2  0  0  0  0
 10 24  1  0  0  0  0
 11 12  2  0  0  0  0
 11 25  1  0  0  0  0
 12 26  1  0  0  0  0
 13 14  1  0  0  0  0
 13 30  2  0  0  0  0
 14 31  2  0  0  0  0
 15 22  1  0  0  0  0
 15 24  2  0  0  0  0
 16 26  2  0  0  0  0
 16 27  1  0  0  0  0
 17 28  1  0  0  0  0
 18 28  1  0  0  0  0
 18 29  2  0  0  0  0
 18 32  1  0  0  0  0
 19 21  2  0  0  0  0
 19 38  1  0  0  0  0
 20 22  2  0  0  0  0
 20 39  1  0  0  0  0
 21 47  1  0  0  0  0
 22 40  1  0  0  0  0
 23 84  1  0  0  0  0
 24 85  1  0  0  0  0
 25 27  2  0  0  0  0
 25 84  1  0  0  0  0
 26 86  1  0  0  0  0
 27 87  1  0  0  0  0
 28 67  2  0  0  0  0
 29 68  1  0  0  0  0
 29 71  1  0  0  0  0
 30 73  1  0  0  0  0
 30 88  1  0  0  0  0
 31 74  1  0  0  0  0
 31 88  1  0  0  0  0
 32 72  1  0  0  0  0
 32 78  2  0  0  0  0
 33 48  1  0  0  0  0
 33 75  1  0  0  0  0
 33 79  2  0  0  0  0
 34 62  1  0  0  0  0
 34 69  1  0  0  0  0
 34 80  2  0  0  0  0
 35 59  1  0  0  0  0
 35 73  1  0  0  0  0
 35 81  2  0  0  0  0
 36 63  1  0  0  0  0
 36 76  1  0  0  0  0
 36 82  2  0  0  0  0
 37 70  1  0  0  0  0
 37 74  1  0  0  0  0
 37 83  2  0  0  0  0
 38 41  1  0  0  0  0
 39 48  1  0  0  0  0
 40 69  1  0  0  0  0
 41 43  1  0  0  0  0
 42 44  1  0  0  0  0
 42 45  1  0  0  0  0
 43 47  1  0  0  0  0
 44 49  1  0  0  0  0
 45 70  1  0  0  0  0
 46 49  1  0  0  0  0
 46 70  1  0  0  0  0
 47 75  1  0  0  0  0
 48 69  1  0  0  0  0
 49 68  1  0  0  0  0
 50 63  1  0  0  0  0
 51 64  1  0  0  0  0
 52 64  1  0  0  0  0
 53 64  1  0  0  0  0
 54 65  1  0  0  0  0
 55 65  1  0  0  0  0
 56 66  1  0  0  0  0
 57 66  1  0  0  0  0
 58 77  1  0  0  0  0
 59 65  1  0  0  0  0
 60 65  1  0  0  0  0
 60 66  1  0  0  0  0
 61 66  1  0  0  0  0
 61 85  1  0  0  0  0
 62 64  1  0  0  0  0
 62 76  1  0  0  0  0
 63 77  1  0  0  0  0
 67 68  1  0  0  0  0
M  CHG  1  77   1
M  ISO  4  37 100  61 101  74 100  85 101
M  END
> <Batch ID>
0144

> <Smiles>
CNC(C)C(=O)NC(C(=O)N1Cc2cc([101O:1][101CH2:1]C(C)(C)CC(C)(C)CC(=O)Nc3ccc([100NH:0][100C:0](=O)N4CCCC(n5nc(-c6ccc(Oc7ccc(F)cc7F)cc6)c(C(N)=O)c5N)C4)s3)ccc2CC1C(=O)NC1CCCc2ccccc21)C(C)(C)C

> <Shape>
0.346

> <Color>
0.127

> <Negative vol penalty>
0.000

$$$$

  -OEChem-04052303043D

 89 98  0     1  0  0  0  0  0999 V2000
  -32.7383  -31.8246   15.7367 C   0  0  0  0  0  0  0  0  0  0  0  0
  -33.1041  -30.9797   16.7797 C   0  0  0  0  0  0  0  0  0  0  0  0
  -23.0874   -9.8054   19.9424 C   0  0  0  0  0  0  0  0  0  0  0  0
  -23.8361   -9.8370   22.2393 C   0  0  0  0  0  0  0  0  0  0  0  0
  -31.3897  -32.0568   15.4695 C   0  0  0  0  0  0  0  0  0  0  0  0
  -32.1215  -30.3673   17.5568 C   0  0  0  0  0  0  0  0  0  0  0  0
  -33.0753  -25.4632   18.3845 C   0  0  0  0  0  0  0  0  0  0  0  0
  -22.3550   -8.6460   20.1971 C   0  0  0  0  0  0  0  0  0  0  0  0
  -23.1036   -8.6776   22.4940 C   0  0  0  0  0  0  0  0  0  0  0  0
  -34.0260  -25.1547   19.3564 C   0  0  0  0  0  0  0  0  0  0  0  0
  -19.4086   -7.8275   21.6399 C   0  0  0  0  0  0  0  0  0  0  0  0
  -18.1047   -7.7635   21.1488 C   0  0  0  0  0  0  0  0  0  0  0  0
  -32.2578  -24.6962   20.9319 C   0  0  0  0  0  0  0  0  0  0  0  0
  -30.9123  -18.9716   22.8128 C   0  0  0  0  0  0  0  0  0  0  0  0
  -18.6920   -5.8173   19.8432 C   0  0  0  0  0  0  0  0  0  0  0  0
  -23.8280  -10.4009   20.9635 C   0  0  0  0  0  0  0  0  0  0  0  0
  -24.1428  -12.9287   20.8270 C   0  0  0  0  0  0  0  0  0  0  0  0
  -30.3900  -31.4394   16.2377 C   0  0  0  0  0  0  0  0  0  0  0  0
  -31.7065  -25.4010   18.6827 C   0  0  0  0  0  0  0  0  0  0  0  0
  -30.7583  -30.5926   17.3005 C   0  0  0  0  0  0  0  0  0  0  0  0
  -31.2916  -25.0020   19.9613 C   0  0  0  0  0  0  0  0  0  0  0  0
  -29.9457  -17.9432   22.7070 C   0  0  0  0  0  0  0  0  0  0  0  0
  -22.3630   -8.0821   21.4728 C   0  0  0  0  0  0  0  0  0  0  0  0
  -33.6174  -24.7739   20.6312 C   0  0  0  0  0  0  0  0  0  0  0  0
  -20.3543   -6.8864   21.2326 C   0  0  0  0  0  0  0  0  0  0  0  0
  -17.7464   -6.7584   20.2504 C   0  0  0  0  0  0  0  0  0  0  0  0
  -19.9960   -5.8813   20.3343 C   0  0  0  0  0  0  0  0  0  0  0  0
  -24.5853  -11.5983   20.7009 C   0  0  0  0  0  0  0  0  0  0  0  0
  -25.2285  -13.6875   20.4636 C   0  0  0  0  0  0  0  0  0  0  0  0
  -31.9979  -18.5525   22.0796 C   0  0  0  0  0  0  0  0  0  0  0  0
  -30.5095  -16.9690   21.9164 C   0  0  0  0  0  0  0  0  0  0  0  0
  -35.0586  -20.6107   21.7488 C   0  0  0  0  0  0  0  0  0  0  0  0
  -33.6877  -20.4172   22.2921 C   0  0  0  0  0  0  0  0  0  0  0  0
  -22.8648  -13.4336   21.2361 C   0  0  0  0  0  0  0  0  0  0  0  0
  -35.8326  -21.6420   22.0952 C   0  0  0  0  0  0  0  0  0  0  0  0
  -29.3252  -27.5058   18.7396 C   0  0  0  0  0  0  0  0  0  0  0  0
  -27.5254  -24.8678   19.3088 C   0  0  0  0  0  0  0  0  0  0  0  0
  -27.3693  -21.6619   20.4684 C   0  0  0  0  0  0  0  0  0  0  0  0
  -30.6821  -14.7940   20.6569 C   0  0  0  0  0  0  0  0  0  0  0  0
  -28.9460  -31.7581   15.9411 C   0  0  0  0  0  0  0  0  0  0  0  0
  -30.6931  -25.7111   17.6153 C   0  0  0  0  0  0  0  0  0  0  0  0
  -29.8339  -24.8999   20.3261 C   0  0  0  0  0  0  0  0  0  0  0  0
  -35.4075  -19.4998   20.8213 C   0  0  0  0  0  0  0  0  0  0  0  0
  -27.9632  -30.7761   16.5736 C   0  0  0  0  0  0  0  0  0  0  0  0
  -29.6055  -12.3515   18.3006 C   0  0  0  0  0  0  0  0  0  0  0  0
  -28.3283  -30.5204   18.0324 C   0  0  0  0  0  0  0  0  0  0  0  0
  -28.1671  -12.0472   18.7254 C   0  0  0  0  0  0  0  0  0  0  0  0
  -34.2985  -18.4886   21.0605 C   0  0  0  0  0  0  0  0  0  0  0  0
  -30.5123  -12.5988   19.5050 C   0  0  0  0  0  0  0  0  0  0  0  0
  -28.5909  -13.3121   20.8719 C   0  0  0  0  0  0  0  0  0  0  0  0
  -29.7214  -29.8904   18.1502 C   0  0  1  0  0  0  0  0  0  0  0  0
  -29.3337  -26.1113   18.1803 C   0  0  1  0  0  0  0  0  0  0  0  0
  -27.6257  -13.1199   19.6907 C   0  0  2  0  0  0  0  0  0  0  0  0
  -28.6059  -17.9283   23.3228 C   0  0  0  0  0  0  0  0  0  0  0  0
  -37.2096  -21.7359   21.4783 C   0  0  0  0  0  0  0  0  0  0  0  0
  -25.7535  -19.7785   20.8413 C   0  0  0  0  0  0  0  0  0  0  0  0
  -35.0813  -22.2060   24.5029 C   0  0  0  0  0  0  0  0  0  0  0  0
  -36.5719  -23.7559   23.2568 C   0  0  0  0  0  0  0  0  0  0  0  0
  -26.4237  -26.3028   21.7658 C   0  0  0  0  0  0  0  0  0  0  0  0
  -25.5858  -24.0937   22.5941 C   0  0  0  0  0  0  0  0  0  0  0  0
  -24.7201  -25.0297   20.4500 C   0  0  0  0  0  0  0  0  0  0  0  0
  -28.8427  -19.8783   18.6225 C   0  0  0  0  0  0  0  0  0  0  0  0
  -34.1705  -23.5142   22.5711 C   0  0  0  0  0  0  0  0  0  1  0  0
  -27.0789  -24.1245   20.5445 C   0  0  1  0  0  0  0  0  0  0  0  0
  -26.7502  -20.4069   19.8799 C   0  0  2  0  0  0  0  0  0  0  0  0
  -35.4132  -22.7487   23.0900 C   0  0  0  0  0  0  0  0  0  0  0  0
  -25.9797  -24.8914   21.3326 C   0  0  0  0  0  0  0  0  0  0  0  0
  -25.8531  -11.5133   20.2894 N   0  0  0  0  0  0  0  0  0  0  0  0
  -26.2166  -12.8000   20.1536 N   0  0  0  0  0  0  0  0  0  0  0  0
  -33.2613  -19.1690   21.8201 N   0  0  0  0  0  0  0  0  0  0  0  0
  -28.8814  -25.2194   19.2500 N   0  0  0  0  0  0  0  0  0  0  0  0
  -29.9378  -13.6296   20.3723 N   0  0  0  0  0  0  0  0  0  0  0  0
  -25.4247  -15.0207   20.3820 N   0  0  0  0  0  0  0  0  0  0  0  0
  -21.8612  -12.5158   21.5751 N   0  0  0  0  0  0  0  0  0  0  0  0
  -30.0207  -15.7177   21.4657 N   0  0  0  0  0  0  0  0  0  0  0  0
  -29.6682  -28.4816   17.8233 N   0  0  0  0  0  0  0  0  0  0  0  0
  -26.6765  -22.7951   20.0981 N   0  0  0  0  0  0  0  0  0  0  0  0
  -27.8074  -19.4016   19.5754 N   0  3  0  0  0  0  0  0  0  0  0  0
  -33.1286  -21.2338   23.0052 O   0  0  0  0  0  0  0  0  0  0  0  0
  -22.6148  -14.6619   21.2835 O   0  0  0  0  0  0  0  0  0  0  0  0
  -29.0280  -27.6835   19.9151 O   0  0  0  0  0  0  0  0  0  0  0  0
  -26.7029  -25.1207   18.4249 O   0  0  0  0  0  0  0  0  0  0  0  0
  -28.3656  -21.6389   21.1877 O   0  0  0  0  0  0  0  0  0  0  0  0
  -31.8115  -14.9718   20.1935 O   0  0  0  0  0  0  0  0  0  0  0  0
  -31.7604  -17.3328   21.5297 O   0  0  0  0  0  0  0  0  0  0  0  0
  -21.6482   -6.9509   21.7218 O   0  0  0  0  0  0  0  0  0  0  0  0
  -34.5433  -24.4729   21.5819 O   0  0  0  0  0  0  0  0  0  1  0  0
  -16.4937   -6.6961   19.7801 F   0  0  0  0  0  0  0  0  0  0  0  0
  -20.8998   -4.9738   19.9403 F   0  0  0  0  0  0  0  0  0  0  0  0
  1  2  1  0  0  0  0
  1  5  2  0  0  0  0
  2  6  2  0  0  0  0
  3  8  2  0  0  0  0
  3 16  1  0  0  0  0
  4  9  1  0  0  0  0
  4 16  2  0  0  0  0
  5 18  1  0  0  0  0
  6 20  1  0  0  0  0
  7 10  2  0  0  0  0
  7 19  1  0  0  0  0
  8 23  1  0  0  0  0
  9 23  2  0  0  0  0
 10 24  1  0  0  0  0
 11 12  2  0  0  0  0
 11 25  1  0  0  0  0
 12 26  1  0  0  0  0
 13 21  1  0  0  0  0
 13 24  2  0  0  0  0
 14 22  1  0  0  0  0
 14 30  2  0  0  0  0
 15 26  2  0  0  0  0
 15 27  1  0  0  0  0
 16 28  1  0  0  0  0
 17 28  1  0  0  0  0
 17 29  2  0  0  0  0
 17 34  1  0  0  0  0
 18 20  2  0  0  0  0
 18 40  1  0  0  0  0
 19 21  2  0  0  0  0
 19 41  1  0  0  0  0
 20 51  1  0  0  0  0
 21 42  1  0  0  0  0
 22 31  2  0  0  0  0
 22 54  1  0  0  0  0
 23 86  1  0  0  0  0
 24 87  1  0  0  0  0
 25 27  2  0  0  0  0
 25 86  1  0  0  0  0
 26 88  1  0  0  0  0
 27 89  1  0  0  0  0
 28 68  2  0  0  0  0
 29 69  1  0  0  0  0
 29 73  1  0  0  0  0
 30 70  1  0  0  0  0
 30 85  1  0  0  0  0
 31 75  1  0  0  0  0
 31 85  1  0  0  0  0
 32 33  1  0  0  0  0
 32 35  2  0  0  0  0
 32 43  1  0  0  0  0
 33 70  1  0  0  0  0
 33 79  2  0  0  0  0
 34 74  1  0  0  0  0
 34 80  2  0  0  0  0
 35 55  1  0  0  0  0
 35 66  1  0  0  0  0
 36 52  1  0  0  0  0
 36 76  1  0  0  0  0
 36 81  2  0  0  0  0
 37 64  1  0  0  0  0
 37 71  1  0  0  0  0
 37 82  2  0  0  0  0
 38 65  1  0  0  0  0
 38 77  1  0  0  0  0
 38 83  2  0  0  0  0
 39 72  1  0  0  0  0
 39 75  1  0  0  0  0
 39 84  2  0  0  0  0
 40 44  1  0  0  0  0
 41 52  1  0  0  0  0
 42 71  1  0  0  0  0
 43 48  1  0  0  0  0
 44 46  1  0  0  0  0
 45 47  1  0  0  0  0
 45 49  1  0  0  0  0
 46 51  1  0  0  0  0
 47 53  1  0  0  0  0
 48 70  1  0  0  0  0
 49 72  1  0  0  0  0
 50 53  1  0  0  0  0
 50 72  1  0  0  0  0
 51 76  1  0  0  0  0
 52 71  1  0  0  0  0
 53 69  1  0  0  0  0
 56 65  1  0  0  0  0
 57 66  1  0  0  0  0
 58 66  1  0  0  0  0
 59 67  1  0  0  0  0
 60 67  1  0  0  0  0
 61 67  1  0  0  0  0
 62 78  1  0  0  0  0
 63 66  1  0  0  0  0
 63 87  1  0  0  0  0
 64 67  1  0  0  0  0
 64 77  1  0  0  0  0
 65 78  1  0  0  0  0
 68 69  1  0  0  0  0
M  CHG  1  78   1
M  ISO  4  39 100  63 101  75 100  87 101
M  END
> <Batch ID>
0144

> <Smiles>
CNC(C)C(=O)NC(C(=O)N1Cc2cc([101O:1][101CH2:1]C(C)(C)C(C)=C3CCN(c4cc(C)c([100NH:0][100C:0](=O)N5CCCC(n6nc(-c7ccc(Oc8ccc(F)cc8F)cc7)c(C(N)=O)c6N)C5)o4)C3=O)ccc2CC1C(=O)NC1CCCc2ccccc21)C(C)(C)C

> <Shape>
0.221

> <Color>
0.186

> <Negative vol penalty>
0.000

$$$$

  -OEChem-04052303043D

 86 95  0     1  0  0  0  0  0999 V2000
  -26.2181  -34.9094   26.0359 C   0  0  0  0  0  0  0  0  0  0  0  0
  -27.2987  -34.8536   25.1614 C   0  0  0  0  0  0  0  0  0  0  0  0
  -23.0059   -9.8813   19.9849 C   0  0  0  0  0  0  0  0  0  0  0  0
  -23.7196   -9.9518   22.2920 C   0  0  0  0  0  0  0  0  0  0  0  0
  -25.8927  -33.7977   26.8118 C   0  0  0  0  0  0  0  0  0  0  0  0
  -28.0551  -33.6863   25.0631 C   0  0  0  0  0  0  0  0  0  0  0  0
  -31.3669  -18.9974   20.5234 C   0  0  0  0  0  0  0  0  0  0  0  0
  -29.7035  -19.2653   22.2551 C   0  0  0  0  0  0  0  0  0  0  0  0
  -31.8067  -29.8476   20.3190 C   0  0  0  0  0  0  0  0  0  0  0  0
  -31.1790  -17.6157   20.5567 C   0  0  0  0  0  0  0  0  0  0  0  0
  -29.5156  -17.8835   22.2883 C   0  0  0  0  0  0  0  0  0  0  0  0
  -22.2405   -8.7473   20.2563 C   0  0  0  0  0  0  0  0  0  0  0  0
  -22.9541   -8.8177   22.5635 C   0  0  0  0  0  0  0  0  0  0  0  0
  -33.0640  -29.2676   20.1563 C   0  0  0  0  0  0  0  0  0  0  0  0
  -23.2078   -5.4758   22.1188 C   0  0  0  0  0  0  0  0  0  0  0  0
  -23.7938   -4.4657   22.8816 C   0  0  0  0  0  0  0  0  0  0  0  0
  -32.3605  -27.3830   21.4876 C   0  0  0  0  0  0  0  0  0  0  0  0
  -22.0611   -4.7179   24.5464 C   0  0  0  0  0  0  0  0  0  0  0  0
  -23.7456  -10.4835   21.0028 C   0  0  0  0  0  0  0  0  0  0  0  0
  -24.1265  -12.9985   20.8091 C   0  0  0  0  0  0  0  0  0  0  0  0
  -30.6292  -19.8222   21.3727 C   0  0  0  0  0  0  0  0  0  0  0  0
  -26.6396  -32.6130   26.7159 C   0  0  0  0  0  0  0  0  0  0  0  0
  -30.8187  -29.2036   21.0777 C   0  0  0  0  0  0  0  0  0  0  0  0
  -27.7402  -32.5581   25.8395 C   0  0  0  0  0  0  0  0  0  0  0  0
  -31.0906  -27.9557   21.6564 C   0  0  0  0  0  0  0  0  0  0  0  0
  -30.2534  -17.0587   21.4390 C   0  0  0  0  0  0  0  0  0  0  0  0
  -22.2146   -8.2155   21.5456 C   0  0  0  0  0  0  0  0  0  0  0  0
  -33.3420  -28.0366   20.7430 C   0  0  0  0  0  0  0  0  0  0  0  0
  -22.0485   -6.1070   22.5697 C   0  0  0  0  0  0  0  0  0  0  0  0
  -23.2204   -4.0868   24.0954 C   0  0  0  0  0  0  0  0  0  0  0  0
  -21.4752   -5.7281   23.7835 C   0  0  0  0  0  0  0  0  0  0  0  0
  -24.5369  -11.6547   20.7229 C   0  0  0  0  0  0  0  0  0  0  0  0
  -25.2365  -13.7206   20.4446 C   0  0  0  0  0  0  0  0  0  0  0  0
  -22.8555  -13.5452   21.1851 C   0  0  0  0  0  0  0  0  0  0  0  0
  -29.2131  -29.9065   23.7295 C   0  0  0  0  0  0  0  0  0  0  0  0
  -27.5932  -27.1917   23.0028 C   0  0  0  0  0  0  0  0  0  0  0  0
  -27.5608  -24.1776   21.4025 C   0  0  0  0  0  0  0  0  0  0  0  0
  -30.7127  -14.6952   20.6980 C   0  0  0  0  0  0  0  0  0  0  0  0
  -26.2786  -31.4529   27.6095 C   0  0  0  0  0  0  0  0  0  0  0  0
  -29.4587  -29.8299   21.2215 C   0  0  0  0  0  0  0  0  0  0  0  0
  -30.0577  -27.2139   22.4634 C   0  0  0  0  0  0  0  0  0  0  0  0
  -26.9014  -30.1298   27.1716 C   0  0  0  0  0  0  0  0  0  0  0  0
  -29.6111  -12.2219   18.3858 C   0  0  0  0  0  0  0  0  0  0  0  0
  -28.3800  -30.3173   26.8471 C   0  0  0  0  0  0  0  0  0  0  0  0
  -28.1590  -11.9644   18.7948 C   0  0  0  0  0  0  0  0  0  0  0  0
  -31.1610  -22.0233   22.6189 C   0  0  0  0  0  0  0  0  0  0  0  0
  -30.5051  -12.4767   19.5980 C   0  0  0  0  0  0  0  0  0  0  0  0
  -28.5815  -13.2718   20.9159 C   0  0  0  0  0  0  0  0  0  0  0  0
  -30.8289  -21.2911   21.3375 C   0  0  1  0  0  0  0  0  0  0  0  0
  -28.5696  -31.3017   25.6866 C   0  0  1  0  0  0  0  0  0  0  0  0
  -28.6956  -29.3273   22.4432 C   0  0  1  0  0  0  0  0  0  0  0  0
  -27.6301  -13.0741   19.7245 C   0  0  2  0  0  0  0  0  0  0  0  0
  -32.2147  -21.8539   21.5676 C   0  0  1  0  0  0  0  0  0  0  0  0
  -26.1117  -22.1643   21.0229 C   0  0  0  0  0  0  0  0  0  0  0  0
  -28.2203  -26.2115   25.8234 C   0  0  0  0  0  0  0  0  0  0  0  0
  -27.6070  -23.9003   25.0815 C   0  0  0  0  0  0  0  0  0  0  0  0
  -25.8976  -25.7166   25.0393 C   0  0  0  0  0  0  0  0  0  0  0  0
  -34.5832  -26.3743   22.7225 C   0  0  0  0  0  0  0  0  0  0  0  0
  -36.2261  -25.7751   20.9240 C   0  0  0  0  0  0  0  0  0  0  0  0
  -27.5113  -24.6208   18.4768 C   0  0  0  0  0  0  0  0  0  0  0  0
  -33.8049  -25.1853   20.6023 C   0  0  0  0  0  0  0  0  0  0  0  0
  -33.5098  -23.9887   21.5025 C   0  0  0  0  0  0  0  0  0  0  0  0
  -27.7600  -25.7273   23.3295 C   0  0  1  0  0  0  0  0  0  0  0  0
  -26.5293  -23.5288   20.4972 C   0  0  2  0  0  0  0  0  0  0  0  0
  -27.3915  -25.4035   24.8049 C   0  0  0  0  0  0  0  0  0  0  0  0
  -34.7849  -26.2058   21.2148 C   0  0  0  0  0  0  0  0  0  1  0  0
  -25.8084  -11.5278   20.3340 N   0  0  0  0  0  0  0  0  0  0  0  0
  -26.2064  -12.8012   20.1725 N   0  0  0  0  0  0  0  0  0  0  0  0
  -28.7451  -27.8703   22.5806 N   0  0  0  0  0  0  0  0  0  0  0  0
  -29.9437  -13.5429   20.4303 N   0  0  0  0  0  0  0  0  0  0  0  0
  -25.4677  -15.0460   20.3333 N   0  0  0  0  0  0  0  0  0  0  0  0
  -21.8238  -12.6615   21.5304 N   0  0  0  0  0  0  0  0  0  0  0  0
  -30.0625  -15.6551   21.4729 N   0  0  0  0  0  0  0  0  0  0  0  0
  -28.2824  -30.6556   24.4238 N   0  0  0  0  0  0  0  0  0  0  0  0
  -26.9721  -24.9966   22.3427 N   0  0  0  0  0  0  0  0  0  0  0  0
  -32.6073  -23.0552   20.7824 N   0  3  0  0  0  0  0  0  0  0  0  0
  -27.0818  -23.3545   19.1241 N   0  3  0  0  0  0  0  0  0  0  0  0
  -22.6360  -14.7802   21.1982 O   0  0  0  0  0  0  0  0  0  0  0  0
  -30.3706  -29.6886   24.0677 O   0  0  0  0  0  0  0  0  0  0  0  0
  -26.4802  -27.7125   23.1112 O   0  0  0  0  0  0  0  0  0  0  0  0
  -28.7677  -23.9749   21.2896 O   0  0  0  0  0  0  0  0  0  0  0  0
  -31.8533  -14.8330   20.2485 O   0  0  0  0  0  0  0  0  0  0  0  0
  -21.4675   -7.1091   21.8108 O   0  0  0  0  0  0  0  0  0  0  0  0
  -34.5687  -27.4686   20.5862 O   0  0  0  0  0  0  0  0  0  1  0  0
  -23.7824   -3.1157   24.8272 F   0  0  0  0  0  0  0  0  0  0  0  0
  -20.3608   -6.3300   24.2214 F   0  0  0  0  0  0  0  0  0  0  0  0
  1  2  1  0  0  0  0
  1  5  2  0  0  0  0
  2  6  2  0  0  0  0
  3 12  2  0  0  0  0
  3 19  1  0  0  0  0
  4 13  1  0  0  0  0
  4 19  2  0  0  0  0
  5 22  1  0  0  0  0
  6 24  1  0  0  0  0
  7 10  2  0  0  0  0
  7 21  1  0  0  0  0
  8 11  1  0  0  0  0
  8 21  2  0  0  0  0
  9 14  2  0  0  0  0
  9 23  1  0  0  0  0
 10 26  1  0  0  0  0
 11 26  2  0  0  0  0
 12 27  1  0  0  0  0
 13 27  2  0  0  0  0
 14 28  1  0  0  0  0
 15 16  2  0  0  0  0
 15 29  1  0  0  0  0
 16 30  1  0  0  0  0
 17 25  1  0  0  0  0
 17 28  2  0  0  0  0
 18 30  2  0  0  0  0
 18 31  1  0  0  0  0
 19 32  1  0  0  0  0
 20 32  1  0  0  0  0
 20 33  2  0  0  0  0
 20 34  1  0  0  0  0
 21 49  1  0  0  0  0
 22 24  2  0  0  0  0
 22 39  1  0  0  0  0
 23 25  2  0  0  0  0
 23 40  1  0  0  0  0
 24 50  1  0  0  0  0
 25 41  1  0  0  0  0
 26 73  1  0  0  0  0
 27 83  1  0  0  0  0
 28 84  1  0  0  0  0
 29 31  2  0  0  0  0
 29 83  1  0  0  0  0
 30 85  1  0  0  0  0
 31 86  1  0  0  0  0
 32 67  2  0  0  0  0
 33 68  1  0  0  0  0
 33 71  1  0  0  0  0
 34 72  1  0  0  0  0
 34 78  2  0  0  0  0
 35 51  1  0  0  0  0
 35 74  1  0  0  0  0
 35 79  2  0  0  0  0
 36 63  1  0  0  0  0
 36 69  1  0  0  0  0
 36 80  2  0  0  0  0
 37 64  1  0  0  0  0
 37 75  1  0  0  0  0
 37 81  2  0  0  0  0
 38 70  1  0  0  0  0
 38 73  1  0  0  0  0
 38 82  2  0  0  0  0
 39 42  1  0  0  0  0
 40 51  1  0  0  0  0
 41 69  1  0  0  0  0
 42 44  1  0  0  0  0
 43 45  1  0  0  0  0
 43 47  1  0  0  0  0
 44 50  1  0  0  0  0
 45 52  1  0  0  0  0
 46 49  1  0  0  0  0
 46 53  1  0  0  0  0
 47 70  1  0  0  0  0
 48 52  1  0  0  0  0
 48 70  1  0  0  0  0
 49 53  1  0  0  0  0
 50 74  1  0  0  0  0
 51 69  1  0  0  0  0
 52 68  1  0  0  0  0
 53 76  1  0  0  0  0
 54 64  1  0  0  0  0
 55 65  1  0  0  0  0
 56 65  1  0  0  0  0
 57 65  1  0  0  0  0
 58 66  1  0  0  0  0
 59 66  1  0  0  0  0
 60 77  1  0  0  0  0
 61 62  1  0  0  0  0
 61 66  1  0  0  0  0
 62 76  1  0  0  0  0
 63 65  1  0  0  0  0
 63 75  1  0  0  0  0
 64 77  1  0  0  0  0
 66 84  1  0  0  0  0
 67 68  1  0  0  0  0
M  CHG  2  76   1  77   1
M  ISO  4  38 100  66 101  73 100  84 101
M  END
> <Batch ID>
0144

> <Smiles>
CNC(C)C(=O)NC(C(=O)N1Cc2cc([101O:1][101C:1](C)(C)CCNC3CC3c3ccc([100NH:0][100C:0](=O)N4CCCC(n5nc(-c6ccc(Oc7ccc(F)cc7F)cc6)c(C(N)=O)c5N)C4)cc3)ccc2CC1C(=O)NC1CCCc2ccccc21)C(C)(C)C

> <Shape>
0.257

> <Color>
0.193

> <Negative vol penalty>
0.000

$$$$

  -OEChem-04052303043D

 87 96  0     1  0  0  0  0  0999 V2000
  -27.5813  -35.8038   24.3736 C   0  0  0  0  0  0  0  0  0  0  0  0
  -27.8072  -34.4313   24.3487 C   0  0  0  0  0  0  0  0  0  0  0  0
  -25.8965  -20.6904   18.4995 C   0  0  0  0  0  0  0  0  0  0  0  0
  -24.6353   -9.2271   21.6984 C   0  0  0  0  0  0  0  0  0  0  0  0
  -23.6700  -11.0141   23.0069 C   0  0  0  0  0  0  0  0  0  0  0  0
  -26.8001  -21.6697   18.9117 C   0  0  0  0  0  0  0  0  0  0  0  0
  -26.2794  -36.2964   24.2947 C   0  0  0  0  0  0  0  0  0  0  0  0
  -26.7311  -33.5505   24.2459 C   0  0  0  0  0  0  0  0  0  0  0  0
  -27.5655  -29.8466   20.8947 C   0  0  0  0  0  0  0  0  0  0  0  0
  -26.2156  -19.3405   18.6468 C   0  0  0  0  0  0  0  0  0  0  0  0
  -24.1194   -8.2917   22.5953 C   0  0  0  0  0  0  0  0  0  0  0  0
  -23.1541  -10.0786   23.9038 C   0  0  0  0  0  0  0  0  0  0  0  0
  -28.3809  -28.7915   21.3018 C   0  0  0  0  0  0  0  0  0  0  0  0
  -21.1383   -6.8257   23.2255 C   0  0  0  0  0  0  0  0  0  0  0  0
  -20.5131   -5.6967   22.6965 C   0  0  0  0  0  0  0  0  0  0  0  0
  -28.3422  -19.9493   19.6184 C   0  0  0  0  0  0  0  0  0  0  0  0
  -26.4216  -27.4531   21.7365 C   0  0  0  0  0  0  0  0  0  0  0  0
  -22.1226   -4.2823   23.8127 C   0  0  0  0  0  0  0  0  0  0  0  0
  -24.4107  -10.5883   21.9042 C   0  0  0  0  0  0  0  0  0  0  0  0
  -28.0230  -21.2992   19.4711 C   0  0  0  0  0  0  0  0  0  0  0  0
  -24.3174  -12.0622   19.8242 C   0  0  0  0  0  0  0  0  0  0  0  0
  -25.1875  -35.4215   24.1811 C   0  0  0  0  0  0  0  0  0  0  0  0
  -26.1694  -29.7164   20.9159 C   0  0  0  0  0  0  0  0  0  0  0  0
  -25.4132  -34.0318   24.1667 C   0  0  0  0  0  0  0  0  0  0  0  0
  -25.5908  -28.5071   21.3268 C   0  0  0  0  0  0  0  0  0  0  0  0
  -27.4385  -18.9700   19.2062 C   0  0  0  0  0  0  0  0  0  0  0  0
  -23.3788   -8.7174   23.6980 C   0  0  0  0  0  0  0  0  0  0  0  0
  -27.8089  -27.5955   21.7255 C   0  0  0  0  0  0  0  0  0  0  0  0
  -22.2558   -6.6831   24.0481 C   0  0  0  0  0  0  0  0  0  0  0  0
  -21.0052   -4.4250   22.9900 C   0  0  0  0  0  0  0  0  0  0  0  0
  -22.7479   -5.4113   24.3417 C   0  0  0  0  0  0  0  0  0  0  0  0
  -24.9438  -11.5551   20.9784 C   0  0  0  0  0  0  0  0  0  0  0  0
  -25.2302  -12.9426   19.2968 C   0  0  0  0  0  0  0  0  0  0  0  0
  -28.9783  -22.3332   19.9074 C   0  0  0  0  0  0  0  0  0  0  0  0
  -23.0258  -11.7641   19.2776 C   0  0  0  0  0  0  0  0  0  0  0  0
  -23.8025  -31.1862   22.4459 C   0  0  0  0  0  0  0  0  0  0  0  0
  -21.9420  -29.3381   20.5366 C   0  0  0  0  0  0  0  0  0  0  0  0
  -21.6338  -26.5085   18.6538 C   0  0  0  0  0  0  0  0  0  0  0  0
  -28.9315  -17.0597   19.8906 C   0  0  0  0  0  0  0  0  0  0  0  0
  -23.7948  -35.9994   24.1463 C   0  0  0  0  0  0  0  0  0  0  0  0
  -25.3044  -30.8547   20.4484 C   0  0  0  0  0  0  0  0  0  0  0  0
  -24.0979  -28.3095   21.3489 C   0  0  0  0  0  0  0  0  0  0  0  0
  -22.7372  -35.0109   23.6619 C   0  0  0  0  0  0  0  0  0  0  0  0
  -30.0900  -13.7423   20.4648 C   0  0  0  0  0  0  0  0  0  0  0  0
  -22.9084  -33.6633   24.3556 C   0  0  0  0  0  0  0  0  0  0  0  0
  -28.8029  -12.9193   20.5547 C   0  0  0  0  0  0  0  0  0  0  0  0
  -28.3396  -23.0217   23.4104 C   0  0  0  0  0  0  0  0  0  0  0  0
  -29.9242  -15.1249   21.0931 C   0  0  0  0  0  0  0  0  0  0  0  0
  -27.9328  -22.3067   22.1264 C   0  0  0  0  0  0  0  0  0  0  0  0
  -27.4955  -15.0783   20.6826 C   0  0  0  0  0  0  0  0  0  0  0  0
  -24.2737  -33.0452   24.0311 C   0  0  1  0  0  0  0  0  0  0  0  0
  -23.8830  -30.7901   20.9988 C   0  0  1  0  0  0  0  0  0  0  0  0
  -27.5941  -13.7017   20.0050 C   0  0  2  0  0  0  0  0  0  0  0  0
  -29.7932  -23.8679   21.6730 C   0  0  1  0  0  0  0  0  0  0  0  0
  -29.0159  -24.3251   22.9383 C   0  0  2  0  0  0  0  0  0  0  0  0
  -31.1792  -23.2806   21.9198 C   0  0  0  0  0  0  0  0  0  0  0  0
  -29.8935  -24.9206   24.0429 C   0  0  0  0  0  0  0  0  0  0  0  0
  -19.9819  -25.2501   17.2449 C   0  0  0  0  0  0  0  0  0  0  0  0
  -20.5296  -28.3697   23.0620 C   0  0  0  0  0  0  0  0  0  0  0  0
  -19.5893  -26.4733   21.7250 C   0  0  0  0  0  0  0  0  0  0  0  0
  -19.0118  -28.8253   21.1272 C   0  0  0  0  0  0  0  0  0  0  0  0
  -23.3345  -26.7441   16.2432 C   0  0  0  0  0  0  0  0  0  0  0  0
  -27.9495  -25.3677   22.5457 C   0  0  0  0  0  0  0  0  0  1  0  0
  -21.3374  -27.9590   20.6443 C   0  0  1  0  0  0  0  0  0  0  0  0
  -21.0961  -26.2850   17.2518 C   0  0  2  0  0  0  0  0  0  0  0  0
  -20.1451  -27.9109   21.6412 C   0  0  0  0  0  0  0  0  0  0  0  0
  -26.1606  -12.0703   21.1733 N   0  0  0  0  0  0  0  0  0  0  0  0
  -26.3061  -12.9103   20.1343 N   0  0  0  0  0  0  0  0  0  0  0  0
  -28.9204  -22.7895   21.1470 N   0  0  0  0  0  0  0  0  0  0  0  0
  -23.2943  -29.4539   20.8884 N   0  0  0  0  0  0  0  0  0  0  0  0
  -28.7624  -15.8087   20.5208 N   0  0  0  0  0  0  0  0  0  0  0  0
  -25.2095  -13.7333   18.2029 N   0  0  0  0  0  0  0  0  0  0  0  0
  -22.2155  -10.8361   19.9459 N   0  0  0  0  0  0  0  0  0  0  0  0
  -27.7619  -17.5985   19.3554 N   0  0  0  0  0  0  0  0  0  0  0  0
  -24.2629  -32.4628   22.7063 N   0  0  0  0  0  0  0  0  0  0  0  0
  -20.9960  -27.5556   19.2845 N   0  0  0  0  0  0  0  0  0  0  0  0
  -29.8846  -22.7898   19.0481 N   0  3  0  0  0  0  0  0  0  0  0  0
  -22.1834  -25.8111   16.3495 N   0  3  0  0  0  0  0  0  0  0  0  0
  -22.6095  -12.2924   18.2188 O   0  0  0  0  0  0  0  0  0  0  0  0
  -23.3543  -30.3929   23.2654 O   0  0  0  0  0  0  0  0  0  0  0  0
  -21.2423  -30.2765   20.1476 O   0  0  0  0  0  0  0  0  0  0  0  0
  -22.5275  -25.8203   19.1419 O   0  0  0  0  0  0  0  0  0  0  0  0
  -30.0375  -17.5996   19.8062 O   0  0  0  0  0  0  0  0  0  0  0  0
  -22.8750   -7.8049   24.5732 O   0  0  0  0  0  0  0  0  0  0  0  0
  -28.6025  -26.5643   22.1239 O   0  0  0  0  0  0  0  0  0  1  0  0
  -20.4037   -3.3408   22.4832 F   0  0  0  0  0  0  0  0  0  0  0  0
  -23.8204   -5.2679   25.1323 F   0  0  0  0  0  0  0  0  0  0  0  0
  1  2  1  0  0  0  0
  1  7  2  0  0  0  0
  2  8  2  0  0  0  0
  3  6  2  0  0  0  0
  3 10  1  0  0  0  0
  4 11  2  0  0  0  0
  4 19  1  0  0  0  0
  5 12  1  0  0  0  0
  5 19  2  0  0  0  0
  6 20  1  0  0  0  0
  7 22  1  0  0  0  0
  8 24  1  0  0  0  0
  9 13  2  0  0  0  0
  9 23  1  0  0  0  0
 10 26  2  0  0  0  0
 11 27  1  0  0  0  0
 12 27  2  0  0  0  0
 13 28  1  0  0  0  0
 14 15  2  0  0  0  0
 14 29  1  0  0  0  0
 15 30  1  0  0  0  0
 16 20  2  0  0  0  0
 16 26  1  0  0  0  0
 17 25  1  0  0  0  0
 17 28  2  0  0  0  0
 18 30  2  0  0  0  0
 18 31  1  0  0  0  0
 19 32  1  0  0  0  0
 20 34  1  0  0  0  0
 21 32  1  0  0  0  0
 21 33  2  0  0  0  0
 21 35  1  0  0  0  0
 22 24  2  0  0  0  0
 22 40  1  0  0  0  0
 23 25  2  0  0  0  0
 23 41  1  0  0  0  0
 24 51  1  0  0  0  0
 25 42  1  0  0  0  0
 26 74  1  0  0  0  0
 27 84  1  0  0  0  0
 28 85  1  0  0  0  0
 29 31  2  0  0  0  0
 29 84  1  0  0  0  0
 30 86  1  0  0  0  0
 31 87  1  0  0  0  0
 32 67  2  0  0  0  0
 33 68  1  0  0  0  0
 33 72  1  0  0  0  0
 34 69  1  0  0  0  0
 34 77  2  0  0  0  0
 35 73  1  0  0  0  0
 35 79  2  0  0  0  0
 36 52  1  0  0  0  0
 36 75  1  0  0  0  0
 36 80  2  0  0  0  0
 37 64  1  0  0  0  0
 37 70  1  0  0  0  0
 37 81  2  0  0  0  0
 38 65  1  0  0  0  0
 38 76  1  0  0  0  0
 38 82  2  0  0  0  0
 39 71  1  0  0  0  0
 39 74  1  0  0  0  0
 39 83  2  0  0  0  0
 40 43  1  0  0  0  0
 41 52  1  0  0  0  0
 42 70  1  0  0  0  0
 43 45  1  0  0  0  0
 44 46  1  0  0  0  0
 44 48  1  0  0  0  0
 45 51  1  0  0  0  0
 46 53  1  0  0  0  0
 47 49  1  0  0  0  0
 47 55  1  0  0  0  0
 48 71  1  0  0  0  0
 49 69  1  0  0  0  0
 50 53  1  0  0  0  0
 50 71  1  0  0  0  0
 51 75  1  0  0  0  0
 52 70  1  0  0  0  0
 53 68  1  0  0  0  0
 54 55  1  0  0  0  0
 54 56  1  0  0  0  0
 54 69  1  0  0  0  0
 55 57  1  0  0  0  0
 55 63  1  0  0  0  0
 58 65  1  0  0  0  0
 59 66  1  0  0  0  0
 60 66  1  0  0  0  0
 61 66  1  0  0  0  0
 62 78  1  0  0  0  0
 63 85  1  0  0  0  0
 64 66  1  0  0  0  0
 64 76  1  0  0  0  0
 65 78  1  0  0  0  0
 67 68  1  0  0  0  0
M  CHG  2  77   1  78   1
M  ISO  4  39 100  63 101  74 100  85 101
M  END
> <Batch ID>
0144

> <Smiles>
CNC(C)C(=O)NC(C(=O)N1Cc2cc([101O:1][101CH2:1]C3(C)CCN(C(=N)c4cccc([100NH:0][100C:0](=O)N5CCCC(n6nc(-c7ccc(Oc8ccc(F)cc8F)cc7)c(C(N)=O)c6N)C5)c4)C3C)ccc2CC1C(=O)NC1CCCc2ccccc21)C(C)(C)C

> <Shape>
0.326

> <Color>
0.078

> <Negative vol penalty>
0.000

$$$$

  -OEChem-04052303043D

 82 90  0     1  0  0  0  0  0999 V2000
  -28.5766  -25.9517   15.6192 C   0  0  0  0  0  0  0  0  0  0  0  0
  -27.3843  -25.9419   16.3361 C   0  0  0  0  0  0  0  0  0  0  0  0
  -27.6173  -13.2287   18.6842 C   0  0  0  0  0  0  0  0  0  0  0  0
  -28.3069  -12.3822   20.8394 C   0  0  0  0  0  0  0  0  0  0  0  0
  -29.7354  -26.4619   16.2029 C   0  0  0  0  0  0  0  0  0  0  0  0
  -27.3505  -26.4413   17.6376 C   0  0  0  0  0  0  0  0  0  0  0  0
  -23.3368  -29.4138   18.4740 C   0  0  0  0  0  0  0  0  0  0  0  0
  -28.8556  -12.8744   18.1488 C   0  0  0  0  0  0  0  0  0  0  0  0
  -29.5452  -12.0277   20.3040 C   0  0  0  0  0  0  0  0  0  0  0  0
  -22.1123  -28.7838   18.6916 C   0  0  0  0  0  0  0  0  0  0  0  0
  -32.4387  -13.5721   19.4835 C   0  0  0  0  0  0  0  0  0  0  0  0
  -33.5788  -13.8903   20.2214 C   0  0  0  0  0  0  0  0  0  0  0  0
  -22.3780  -29.1015   21.0681 C   0  0  0  0  0  0  0  0  0  0  0  0
  -20.3825  -23.0991   21.7028 C   0  0  0  0  0  0  0  0  0  0  0  0
  -34.1611  -11.5481   20.3317 C   0  0  0  0  0  0  0  0  0  0  0  0
  -21.0660  -24.0003   23.6256 C   0  0  0  0  0  0  0  0  0  0  0  0
  -27.3430  -12.9827   20.0295 C   0  0  0  0  0  0  0  0  0  0  0  0
  -24.9041  -12.5538   20.6424 C   0  0  0  0  0  0  0  0  0  0  0  0
  -29.7136  -26.9767   17.5088 C   0  0  0  0  0  0  0  0  0  0  0  0
  -24.0976  -29.8834   19.5544 C   0  0  0  0  0  0  0  0  0  0  0  0
  -28.5104  -26.9576   18.2398 C   0  0  0  0  0  0  0  0  0  0  0  0
  -23.6106  -29.7394   20.8614 C   0  0  0  0  0  0  0  0  0  0  0  0
  -20.1513  -24.1599   22.6108 C   0  0  0  0  0  0  0  0  0  0  0  0
  -29.8195  -12.2738   18.9586 C   0  0  0  0  0  0  0  0  0  0  0  0
  -21.6340  -28.6250   19.9890 C   0  0  0  0  0  0  0  0  0  0  0  0
  -32.1597  -12.2419   19.1698 C   0  0  0  0  0  0  0  0  0  0  0  0
  -34.4401  -12.8783   20.6454 C   0  0  0  0  0  0  0  0  0  0  0  0
  -33.0210  -11.2299   19.5938 C   0  0  0  0  0  0  0  0  0  0  0  0
  -26.0642  -13.3490   20.5833 C   0  0  0  0  0  0  0  0  0  0  0  0
  -21.4222  -22.3670   22.2274 C   0  0  0  0  0  0  0  0  0  0  0  0
  -23.9708  -13.3531   21.2559 C   0  0  0  0  0  0  0  0  0  0  0  0
  -22.0157  -21.2065   21.6793 C   0  0  0  0  0  0  0  0  0  0  0  0
  -23.0405  -20.4703   22.2228 C   0  0  0  0  0  0  0  0  0  0  0  0
  -24.6893  -11.2125   20.1837 C   0  0  0  0  0  0  0  0  0  0  0  0
  -23.5476  -19.2691   21.5294 C   0  0  0  0  0  0  0  0  0  0  0  0
  -26.9787  -29.2238   20.7240 C   0  0  0  0  0  0  0  0  0  0  0  0
  -19.3429  -26.1229   21.2557 C   0  0  0  0  0  0  0  0  0  0  0  0
  -26.3243  -31.7205   22.6887 C   0  0  0  0  0  0  0  0  0  0  0  0
  -23.9737  -33.6854   24.1922 C   0  0  0  0  0  0  0  0  0  0  0  0
  -31.0021  -27.4743   18.1145 C   0  0  0  0  0  0  0  0  0  0  0  0
  -25.4039  -30.5846   19.3011 C   0  0  0  0  0  0  0  0  0  0  0  0
  -24.3794  -30.2440   22.0542 C   0  0  0  0  0  0  0  0  0  0  0  0
  -30.7981  -28.3284   19.3632 C   0  0  0  0  0  0  0  0  0  0  0  0
  -23.5686  -16.9480   24.3656 C   0  0  0  0  0  0  0  0  0  0  0  0
  -29.8025  -27.6633   20.3082 C   0  0  0  0  0  0  0  0  0  0  0  0
  -24.1554  -15.6971   23.7170 C   0  0  0  0  0  0  0  0  0  0  0  0
  -24.1609  -18.2281   23.7781 C   0  0  0  0  0  0  0  0  0  0  0  0
  -24.6331  -17.0597   21.6445 C   0  0  0  0  0  0  0  0  0  0  0  0
  -28.4280  -27.5132   19.6450 C   0  0  1  0  0  0  0  0  0  0  0  0
  -26.3365  -30.5650   20.5084 C   0  0  1  0  0  0  0  0  0  0  0  0
  -24.0170  -15.7610   22.1877 C   0  0  1  0  0  0  0  0  0  0  0  0
  -17.6650  -24.7398   22.4839 C   0  0  0  0  0  0  0  0  0  0  0  0
  -23.7425  -35.6213   25.7722 C   0  0  0  0  0  0  0  0  0  0  0  0
  -26.9567  -29.8769   25.0363 C   0  0  0  0  0  0  0  0  0  0  0  0
  -25.8161  -31.5192   26.5431 C   0  0  0  0  0  0  0  0  0  0  0  0
  -27.8475  -32.2024   25.2667 C   0  0  0  0  0  0  0  0  0  0  0  0
  -22.6277  -35.3455   22.1449 C   0  0  0  0  0  0  0  0  0  0  0  0
  -20.2871  -27.2983   21.4317 C   0  0  0  0  0  0  0  0  0  1  0  0
  -19.1053  -25.2546   22.4909 C   0  0  1  0  0  0  0  0  0  0  0  0
  -25.6629  -31.8752   24.0369 C   0  0  1  0  0  0  0  0  0  0  0  0
  -23.8516  -35.1934   24.3169 C   0  0  2  0  0  0  0  0  0  0  0  0
  -26.5570  -31.3571   25.1986 C   0  0  0  0  0  0  0  0  0  0  0  0
  -25.8865  -14.5607   21.1167 N   0  0  0  0  0  0  0  0  0  0  0  0
  -24.6038  -14.5327   21.5166 N   0  0  0  0  0  0  0  0  0  0  0  0
  -24.0693  -18.2393   22.3104 N   0  0  0  0  0  0  0  0  0  0  0  0
  -25.6543  -30.9171   21.7553 N   0  0  0  0  0  0  0  0  0  0  0  0
  -22.6785  -13.1551   21.5924 N   0  0  0  0  0  0  0  0  0  0  0  0
  -25.7554  -10.5355   19.5759 N   0  0  0  0  0  0  0  0  0  0  0  0
  -27.7241  -28.7777   19.6493 N   0  0  0  0  0  0  0  0  0  0  0  0
  -25.2914  -33.2815   24.1504 N   0  0  0  0  0  0  0  0  0  0  0  0
  -22.6419  -35.6768   23.5930 N   0  3  0  0  0  0  0  0  0  0  0  0
  -23.5801  -10.6373   20.2944 O   0  0  0  0  0  0  0  0  0  0  0  0
  -23.4827  -19.2530   20.2989 O   0  0  0  0  0  0  0  0  0  0  0  0
  -26.8116  -28.6378   21.7871 O   0  0  0  0  0  0  0  0  0  0  0  0
  -18.7892  -25.8993   20.1789 O   0  0  0  0  0  0  0  0  0  0  0  0
  -27.3925  -32.2973   22.4694 O   0  0  0  0  0  0  0  0  0  0  0  0
  -22.9978  -32.9401   24.1411 O   0  0  0  0  0  0  0  0  0  0  0  0
  -21.8445  -22.9098   23.3993 O   0  0  0  0  0  0  0  0  0  0  0  0
  -31.0278  -11.9277   18.4364 O   0  0  0  0  0  0  0  0  0  0  0  0
  -20.4394  -28.0099   20.2042 O   0  0  0  0  0  0  0  0  0  1  0  0
  -35.5357  -13.1842   21.3527 F   0  0  0  0  0  0  0  0  0  0  0  0
  -32.7588   -9.9503   19.2944 F   0  0  0  0  0  0  0  0  0  0  0  0
  1  2  1  0  0  0  0
  1  5  2  0  0  0  0
  2  6  2  0  0  0  0
  3  8  2  0  0  0  0
  3 17  1  0  0  0  0
  4  9  1  0  0  0  0
  4 17  2  0  0  0  0
  5 19  1  0  0  0  0
  6 21  1  0  0  0  0
  7 10  2  0  0  0  0
  7 20  1  0  0  0  0
  8 24  1  0  0  0  0
  9 24  2  0  0  0  0
 10 25  1  0  0  0  0
 11 12  2  0  0  0  0
 11 26  1  0  0  0  0
 12 27  1  0  0  0  0
 13 22  1  0  0  0  0
 13 25  2  0  0  0  0
 14 23  1  0  0  0  0
 14 30  2  0  0  0  0
 15 27  2  0  0  0  0
 15 28  1  0  0  0  0
 16 23  2  0  0  0  0
 16 78  1  0  0  0  0
 17 29  1  0  0  0  0
 18 29  1  0  0  0  0
 18 31  2  0  0  0  0
 18 34  1  0  0  0  0
 19 21  2  0  0  0  0
 19 40  1  0  0  0  0
 20 22  2  0  0  0  0
 20 41  1  0  0  0  0
 21 49  1  0  0  0  0
 22 42  1  0  0  0  0
 23 59  1  0  0  0  0
 24 79  1  0  0  0  0
 25 80  1  0  0  0  0
 26 28  2  0  0  0  0
 26 79  1  0  0  0  0
 27 81  1  0  0  0  0
 28 82  1  0  0  0  0
 29 63  2  0  0  0  0
 30 32  1  0  0  0  0
 30 78  1  0  0  0  0
 31 64  1  0  0  0  0
 31 67  1  0  0  0  0
 32 33  2  0  0  0  0
 33 35  1  0  0  0  0
 34 68  1  0  0  0  0
 34 72  2  0  0  0  0
 35 65  1  0  0  0  0
 35 73  2  0  0  0  0
 36 50  1  0  0  0  0
 36 69  1  0  0  0  0
 36 74  2  0  0  0  0
 37 58  1  0  0  0  0
 37 59  1  0  0  0  0
 37 75  2  0  0  0  0
 38 60  1  0  0  0  0
 38 66  1  0  0  0  0
 38 76  2  0  0  0  0
 39 61  1  0  0  0  0
 39 70  1  0  0  0  0
 39 77  2  0  0  0  0
 40 43  1  0  0  0  0
 41 50  1  0  0  0  0
 42 66  1  0  0  0  0
 43 45  1  0  0  0  0
 44 46  1  0  0  0  0
 44 47  1  0  0  0  0
 45 49  1  0  0  0  0
 46 51  1  0  0  0  0
 47 65  1  0  0  0  0
 48 51  1  0  0  0  0
 48 65  1  0  0  0  0
 49 69  1  0  0  0  0
 50 66  1  0  0  0  0
 51 64  1  0  0  0  0
 52 59  1  0  0  0  0
 53 61  1  0  0  0  0
 54 62  1  0  0  0  0
 55 62  1  0  0  0  0
 56 62  1  0  0  0  0
 57 71  1  0  0  0  0
 58 80  1  0  0  0  0
 60 62  1  0  0  0  0
 60 70  1  0  0  0  0
 61 71  1  0  0  0  0
 63 64  1  0  0  0  0
M  CHG  1  71   1
M  ISO  4  33 100  35 100  58 101  80 101
M  END
> <Batch ID>
0144

> <Smiles>
CNC(C)C(=O)NC(C(=O)N1Cc2cc([101O:1][101CH2:1]C(=O)C(C)c3coc(C=[100CH:0][100C:0](=O)N4CCCC(n5nc(-c6ccc(Oc7ccc(F)cc7F)cc6)c(C(N)=O)c5N)C4)c3)ccc2CC1C(=O)NC1CCCc2ccccc21)C(C)(C)C

> <Shape>
0.275

> <Color>
0.092

> <Negative vol penalty>
0.000

$$$$
