
  -OEChem-04052303073D

 83 92  0     1  0  0  0  0  0999 V2000
  -31.6336  -37.6955   20.3742 C   0  0  0  0  0  0  0  0  0  0  0  0
  -31.5149  -36.6718   19.4396 C   0  0  0  0  0  0  0  0  0  0  0  0
  -24.6585   -8.7336   20.9908 C   0  0  0  0  0  0  0  0  0  0  0  0
  -22.8619  -10.2642   20.4744 C   0  0  0  0  0  0  0  0  0  0  0  0
  -31.4333  -37.4286   21.7279 C   0  0  0  0  0  0  0  0  0  0  0  0
  -31.1970  -35.3803   19.8585 C   0  0  0  0  0  0  0  0  0  0  0  0
  -27.6708  -29.5251   17.7139 C   0  0  0  0  0  0  0  0  0  0  0  0
  -23.7266   -7.7343   21.2708 C   0  0  0  0  0  0  0  0  0  0  0  0
  -21.9300   -9.2648   20.7544 C   0  0  0  0  0  0  0  0  0  0  0  0
  -27.8592  -28.1532   17.5520 C   0  0  0  0  0  0  0  0  0  0  0  0
  -21.6725   -6.8875   23.8180 C   0  0  0  0  0  0  0  0  0  0  0  0
  -21.8665   -6.1261   24.9705 C   0  0  0  0  0  0  0  0  0  0  0  0
  -27.4574  -27.8262   19.9080 C   0  0  0  0  0  0  0  0  0  0  0  0
  -28.4645  -19.8121   19.9636 C   0  0  0  0  0  0  0  0  0  0  0  0
  -22.0049   -4.1244   23.6247 C   0  0  0  0  0  0  0  0  0  0  0  0
  -27.5553  -18.8024   18.1680 C   0  0  0  0  0  0  0  0  0  0  0  0
  -24.2261   -9.9987   20.5926 C   0  0  0  0  0  0  0  0  0  0  0  0
  -25.7855  -11.3135   19.0605 C   0  0  0  0  0  0  0  0  0  0  0  0
  -31.1032  -36.1353   22.1625 C   0  0  0  0  0  0  0  0  0  0  0  0
  -27.3846  -30.0600   18.9782 C   0  0  0  0  0  0  0  0  0  0  0  0
  -30.9934  -35.0956   21.2194 C   0  0  0  0  0  0  0  0  0  0  0  0
  -27.2633  -29.2049   20.0828 C   0  0  0  0  0  0  0  0  0  0  0  0
  -27.7883  -18.6500   19.5170 C   0  0  0  0  0  0  0  0  0  0  0  0
  -22.3624   -7.9998   21.1526 C   0  0  0  0  0  0  0  0  0  0  0  0
  -27.7554  -27.3038   18.6497 C   0  0  0  0  0  0  0  0  0  0  0  0
  -21.6447   -6.2674   22.5689 C   0  0  0  0  0  0  0  0  0  0  0  0
  -22.0327   -4.7446   24.8739 C   0  0  0  0  0  0  0  0  0  0  0  0
  -21.8109   -4.8858   22.4722 C   0  0  0  0  0  0  0  0  0  0  0  0
  -25.1883  -11.0316   20.3038 C   0  0  0  0  0  0  0  0  0  0  0  0
  -28.6240  -20.6394   18.8739 C   0  0  0  0  0  0  0  0  0  0  0  0
  -26.6177  -12.3767   19.3125 C   0  0  0  0  0  0  0  0  0  0  0  0
  -29.5010  -24.1705   18.5081 C   0  0  0  0  0  0  0  0  0  0  0  0
  -29.2045  -25.4679   18.6385 C   0  0  0  0  0  0  0  0  0  1  0  0
  -25.6042  -10.6717   17.7913 C   0  0  0  0  0  0  0  0  0  0  0  0
  -28.8331  -32.1123   20.9258 C   0  0  0  0  0  0  0  0  0  0  0  0
  -26.1121  -31.7848   22.6611 C   0  0  0  0  0  0  0  0  0  0  0  0
  -23.3898  -29.8835   23.4493 C   0  0  0  0  0  0  0  0  0  0  0  0
  -27.6229  -17.3271   21.6546 C   0  0  0  0  0  0  0  0  0  0  0  0
  -30.9425  -35.8852   23.6412 C   0  0  0  0  0  0  0  0  0  0  0  0
  -27.1578  -31.5390   19.1313 C   0  0  0  0  0  0  0  0  0  0  0  0
  -26.9378  -29.7267   21.4577 C   0  0  0  0  0  0  0  0  0  0  0  0
  -30.8680  -23.5812   18.6563 C   0  0  0  0  0  0  0  0  0  0  0  0
  -28.4973  -23.0748   18.3094 C   0  0  0  0  0  0  0  0  0  0  0  0
  -30.2404  -34.5687   23.9635 C   0  0  0  0  0  0  0  0  0  0  0  0
  -28.0851  -14.4449   23.6933 C   0  0  0  0  0  0  0  0  0  0  0  0
  -30.8269  -33.4331   23.1310 C   0  0  0  0  0  0  0  0  0  0  0  0
  -27.4217  -13.3232   22.8909 C   0  0  0  0  0  0  0  0  0  0  0  0
  -30.5781  -22.1800   19.1867 C   0  0  0  0  0  0  0  0  0  0  0  0
  -27.3237  -15.7628   23.5620 C   0  0  0  0  0  0  0  0  0  0  0  0
  -26.4073  -15.0771   21.3804 C   0  0  0  0  0  0  0  0  0  0  0  0
  -30.6255  -33.6869   21.6321 C   0  0  1  0  0  0  0  0  0  0  0  0
  -27.3785  -32.0329   20.5577 C   0  0  1  0  0  0  0  0  0  0  0  0
  -27.1747  -13.7458   21.4295 C   0  0  2  0  0  0  0  0  0  0  0  0
  -21.3636  -29.8626   24.9296 C   0  0  0  0  0  0  0  0  0  0  0  0
  -27.8713  -31.0894   25.0552 C   0  0  0  0  0  0  0  0  0  0  0  0
  -25.8387  -30.1729   26.1940 C   0  0  0  0  0  0  0  0  0  0  0  0
  -25.9397  -32.5886   25.5804 C   0  0  0  0  0  0  0  0  0  0  0  0
  -28.0162  -20.5344   16.4378 C   0  0  0  0  0  0  0  0  0  0  0  0
  -21.5535  -29.7906   21.1303 C   0  0  0  0  0  0  0  0  0  0  0  0
  -25.6498  -30.8585   23.7598 C   0  0  1  0  0  0  0  0  0  0  0  0
  -21.9165  -30.2316   23.5618 C   0  0  2  0  0  0  0  0  0  0  0  0
  -26.3329  -31.1674   25.1219 C   0  0  0  0  0  0  0  0  0  0  0  0
  -25.6057  -11.8496   21.2736 N   0  0  0  0  0  0  0  0  0  0  0  0
  -28.0673  -20.0156   17.7880 N   0  0  0  0  0  0  0  0  0  0  0  0
  -26.4742  -12.6559   20.6398 N   0  0  0  0  0  0  0  0  0  0  0  0
  -29.2131  -21.8833   18.7588 N   0  0  3  0  0  0  0  0  0  0  0  0
  -26.7311  -31.1810   21.5574 N   0  0  0  0  0  0  0  0  0  0  0  0
  -27.1305  -16.1014   22.1503 N   0  0  0  0  0  0  0  0  0  0  0  0
  -27.4509  -13.0905   18.5261 N   0  0  0  0  0  0  0  0  0  0  0  0
  -24.7112   -9.5945   17.7088 N   0  0  0  0  0  0  0  0  0  0  0  0
  -27.4092  -17.5251   20.2908 N   0  0  0  0  0  0  0  0  0  0  0  0
  -29.2634  -33.3856   21.2470 N   0  0  0  0  0  0  0  0  0  0  0  0
  -24.1942  -30.9515   23.7867 N   0  0  0  0  0  0  0  0  0  0  0  0
  -21.1316  -29.5032   22.5254 N   0  3  0  0  0  0  0  0  0  0  0  0
  -26.2281  -11.0319   16.7645 O   0  0  0  0  0  0  0  0  0  0  0  0
  -29.5143  -31.0937   20.9203 O   0  0  0  0  0  0  0  0  0  0  0  0
  -25.9244  -32.9986   22.7746 O   0  0  0  0  0  0  0  0  0  0  0  0
  -23.7874  -28.7740   23.1010 O   0  0  0  0  0  0  0  0  0  0  0  0
  -28.2163  -18.1292   22.3802 O   0  0  0  0  0  0  0  0  0  0  0  0
  -21.4528   -7.0248   21.4255 O   0  0  0  0  0  0  0  0  0  0  0  0
  -27.9394  -25.9645   18.4946 O   0  0  0  0  0  0  0  0  0  1  0  0
  -22.2205   -4.0137   25.9806 F   0  0  0  0  0  0  0  0  0  0  0  0
  -21.7863   -4.2846   21.2749 F   0  0  0  0  0  0  0  0  0  0  0  0
  1  2  1  0  0  0  0
  1  5  2  0  0  0  0
  2  6  2  0  0  0  0
  3  8  2  0  0  0  0
  3 17  1  0  0  0  0
  4  9  1  0  0  0  0
  4 17  2  0  0  0  0
  5 19  1  0  0  0  0
  6 21  1  0  0  0  0
  7 10  2  0  0  0  0
  7 20  1  0  0  0  0
  8 24  1  0  0  0  0
  9 24  2  0  0  0  0
 10 25  1  0  0  0  0
 11 12  2  0  0  0  0
 11 26  1  0  0  0  0
 12 27  1  0  0  0  0
 13 22  1  0  0  0  0
 13 25  2  0  0  0  0
 14 23  1  0  0  0  0
 14 30  2  0  0  0  0
 15 27  2  0  0  0  0
 15 28  1  0  0  0  0
 16 23  2  0  0  0  0
 16 64  1  0  0  0  0
 17 29  1  0  0  0  0
 18 29  1  0  0  0  0
 18 31  2  0  0  0  0
 18 34  1  0  0  0  0
 19 21  2  0  0  0  0
 19 39  1  0  0  0  0
 20 22  2  0  0  0  0
 20 40  1  0  0  0  0
 21 51  1  0  0  0  0
 22 41  1  0  0  0  0
 23 71  1  0  0  0  0
 24 80  1  0  0  0  0
 25 81  1  0  0  0  0
 26 28  2  0  0  0  0
 26 80  1  0  0  0  0
 27 82  1  0  0  0  0
 28 83  1  0  0  0  0
 29 63  2  0  0  0  0
 30 64  1  0  0  0  0
 30 66  1  0  0  0  0
 31 65  1  0  0  0  0
 31 69  1  0  0  0  0
 32 33  2  0  0  0  0
 32 42  1  0  0  0  0
 32 43  1  0  0  0  0
 33 81  1  0  0  0  0
 34 70  1  0  0  0  0
 34 75  2  0  0  0  0
 35 52  1  0  0  0  0
 35 72  1  0  0  0  0
 35 76  2  0  0  0  0
 36 60  1  0  0  0  0
 36 67  1  0  0  0  0
 36 77  2  0  0  0  0
 37 61  1  0  0  0  0
 37 73  1  0  0  0  0
 37 78  2  0  0  0  0
 38 68  1  0  0  0  0
 38 71  1  0  0  0  0
 38 79  2  0  0  0  0
 39 44  1  0  0  0  0
 40 52  1  0  0  0  0
 41 67  1  0  0  0  0
 42 48  1  0  0  0  0
 43 66  1  0  0  0  0
 44 46  1  0  0  0  0
 45 47  1  0  0  0  0
 45 49  1  0  0  0  0
 46 51  1  0  0  0  0
 47 53  1  0  0  0  0
 48 66  1  0  0  0  0
 49 68  1  0  0  0  0
 50 53  1  0  0  0  0
 50 68  1  0  0  0  0
 51 72  1  0  0  0  0
 52 67  1  0  0  0  0
 53 65  1  0  0  0  0
 54 61  1  0  0  0  0
 55 62  1  0  0  0  0
 56 62  1  0  0  0  0
 57 62  1  0  0  0  0
 58 64  1  0  0  0  0
 59 74  1  0  0  0  0
 60 62  1  0  0  0  0
 60 73  1  0  0  0  0
 61 74  1  0  0  0  0
 63 65  1  0  0  0  0
M  CHG  1  74   1
M  ISO  4  33 101  38 100  71 100  81 101
M  END
> <Batch ID>
0145

> <Smiles>
CNC(C)C(=O)NC(C(=O)N1Cc2cc([101O:1][101CH:1]=C3CCN(c4cc([100NH:0][100C:0](=O)N5CCCC(n6nc(-c7ccc(Oc8ccc(F)cc8F)cc7)c(C(N)=O)c6N)C5)cn4C)C3)ccc2CC1C(=O)NC1CCCc2ccccc21)C(C)(C)C

> <Shape>
0.278

> <Color>
0.127

> <Negative vol penalty>
0.000

$$$$

  -OEChem-04052303073D

 89 98  0     1  0  0  0  0  0999 V2000
  -30.9161  -17.2361   17.5634 C   0  0  0  0  0  0  0  0  0  0  0  0
  -30.3239  -17.8658   18.6535 C   0  0  0  0  0  0  0  0  0  0  0  0
  -23.0759   -9.8646   19.9445 C   0  0  0  0  0  0  0  0  0  0  0  0
  -23.8319   -9.8790   22.2391 C   0  0  0  0  0  0  0  0  0  0  0  0
  -32.1676  -17.6545   17.1135 C   0  0  0  0  0  0  0  0  0  0  0  0
  -30.9835  -18.9136   19.2949 C   0  0  0  0  0  0  0  0  0  0  0  0
  -32.6678  -17.4888   23.4414 C   0  0  0  0  0  0  0  0  0  0  0  0
  -27.9190  -22.8215   20.2858 C   0  0  0  0  0  0  0  0  0  0  0  0
  -32.0638  -16.6115   22.5417 C   0  0  0  0  0  0  0  0  0  0  0  0
  -22.3322   -8.7118   20.1967 C   0  0  0  0  0  0  0  0  0  0  0  0
  -23.0881   -8.7263   22.4914 C   0  0  0  0  0  0  0  0  0  0  0  0
  -27.0644  -22.6989   21.3805 C   0  0  0  0  0  0  0  0  0  0  0  0
  -19.3819   -7.9183   21.6455 C   0  0  0  0  0  0  0  0  0  0  0  0
  -18.0758   -7.8699   21.1581 C   0  0  0  0  0  0  0  0  0  0  0  0
  -28.5798  -24.0289   22.7048 C   0  0  0  0  0  0  0  0  0  0  0  0
  -29.8604  -17.4644   23.1309 C   0  0  0  0  0  0  0  0  0  0  0  0
  -18.6387   -5.9230   19.8428 C   0  0  0  0  0  0  0  0  0  0  0  0
  -23.8259  -10.4481   20.9656 C   0  0  0  0  0  0  0  0  0  0  0  0
  -24.1667  -12.9731   20.8384 C   0  0  0  0  0  0  0  0  0  0  0  0
  -32.8386  -18.7143   17.7437 C   0  0  0  0  0  0  0  0  0  0  0  0
  -29.1177  -23.5408   20.3957 C   0  0  0  0  0  0  0  0  0  0  0  0
  -32.2458  -19.3457   18.8538 C   0  0  0  0  0  0  0  0  0  0  0  0
  -31.8530  -18.3446   24.1630 C   0  0  0  0  0  0  0  0  0  0  0  0
  -29.4466  -24.1613   21.6093 C   0  0  0  0  0  0  0  0  0  0  0  0
  -30.4594  -18.3418   24.0217 C   0  0  0  0  0  0  0  0  0  0  0  0
  -30.6699  -16.5994   22.3873 C   0  0  0  0  0  0  0  0  0  0  0  0
  -22.3383   -8.1427   21.4702 C   0  0  0  0  0  0  0  0  0  0  0  0
  -27.3961  -23.3002   22.5911 C   0  0  0  0  0  0  0  0  0  0  0  0
  -20.3164   -6.9691   21.2314 C   0  0  0  0  0  0  0  0  0  0  0  0
  -17.7042   -6.8723   20.2569 C   0  0  0  0  0  0  0  0  0  0  0  0
  -19.9448   -5.9715   20.3302 C   0  0  0  0  0  0  0  0  0  0  0  0
  -24.5948  -11.6386   20.7055 C   0  0  0  0  0  0  0  0  0  0  0  0
  -25.2591  -13.7220   20.4747 C   0  0  0  0  0  0  0  0  0  0  0  0
  -22.8952  -13.4896   21.2536 C   0  0  0  0  0  0  0  0  0  0  0  0
  -32.2004  -22.8200   20.1107 C   0  0  0  0  0  0  0  0  0  0  0  0
  -26.5928  -20.8942   25.8306 C   0  0  0  0  0  0  0  0  0  0  0  0
  -32.5806  -26.0233   20.4520 C   0  0  0  0  0  0  0  0  0  0  0  0
  -31.3323  -28.9823   21.6065 C   0  0  0  0  0  0  0  0  0  0  0  0
  -30.7245  -14.7708   20.6554 C   0  0  0  0  0  0  0  0  0  0  0  0
  -34.2108  -19.1001   17.2509 C   0  0  0  0  0  0  0  0  0  0  0  0
  -30.0158  -23.6862   19.1979 C   0  0  0  0  0  0  0  0  0  0  0  0
  -32.2457  -19.3455   25.2015 C   0  0  0  0  0  0  0  0  0  0  0  0
  -30.7120  -24.9616   21.7735 C   0  0  0  0  0  0  0  0  0  0  0  0
  -34.6766  -20.4647   17.7522 C   0  0  0  0  0  0  0  0  0  0  0  0
  -29.6152  -12.3491   18.2927 C   0  0  0  0  0  0  0  0  0  0  0  0
  -34.4171  -20.6005   19.2492 C   0  0  0  0  0  0  0  0  0  0  0  0
  -28.1750  -12.0581   18.7208 C   0  0  0  0  0  0  0  0  0  0  0  0
  -30.9276  -20.1261   25.3795 C   0  0  0  0  0  0  0  0  0  0  0  0
  -30.5282  -12.5821   19.4952 C   0  0  0  0  0  0  0  0  0  0  0  0
  -28.6185  -13.3098   20.8710 C   0  0  0  0  0  0  0  0  0  0  0  0
  -32.9188  -20.5023   19.5605 C   0  0  1  0  0  0  0  0  0  0  0  0
  -31.4596  -24.0099   19.5694 C   0  0  1  0  0  0  0  0  0  0  0  0
  -27.6478  -13.1325   19.6921 C   0  0  2  0  0  0  0  0  0  0  0  0
  -28.0611  -19.4349   27.2148 C   0  0  0  0  0  0  0  0  0  0  0  0
  -31.8877  -31.4239   21.7722 C   0  0  0  0  0  0  0  0  0  0  0  0
  -24.8219  -22.6905   25.7303 C   0  0  0  0  0  0  0  0  0  0  0  0
  -26.7189  -22.8605   27.3850 C   0  0  0  0  0  0  0  0  0  0  0  0
  -34.5268  -25.4240   22.7243 C   0  0  0  0  0  0  0  0  0  0  0  0
  -34.3060  -27.8101   23.4496 C   0  0  0  0  0  0  0  0  0  0  0  0
  -35.2407  -27.2736   21.1999 C   0  0  0  0  0  0  0  0  0  0  0  0
  -28.9721  -29.7475   19.9932 C   0  0  0  0  0  0  0  0  0  0  0  0
  -28.5010  -19.7245   24.7278 C   0  0  0  0  0  0  0  0  0  0  0  0
  -27.1641  -23.2017   24.9559 C   0  0  0  0  0  0  0  0  0  1  0  0
  -28.0260  -20.3911   26.0229 C   0  0  1  0  0  0  0  0  0  0  0  0
  -32.7678  -26.9591   21.6218 C   0  0  1  0  0  0  0  0  0  0  0  0
  -31.2007  -30.3447   20.9500 C   0  0  2  0  0  0  0  0  0  0  0  0
  -26.3120  -22.4083   25.9742 C   0  0  0  0  0  0  0  0  0  0  0  0
  -34.1873  -26.8500   22.2467 C   0  0  0  0  0  0  0  0  0  0  0  0
  -25.8604  -11.5421   20.2897 N   0  0  0  0  0  0  0  0  0  0  0  0
  -26.2369  -12.8254   20.1580 N   0  0  0  0  0  0  0  0  0  0  0  0
  -29.8619  -19.2709   24.8616 N   0  0  1  0  0  0  0  0  0  0  0  0
  -31.5605  -25.0694   20.5751 N   0  0  0  0  0  0  0  0  0  0  0  0
  -29.9672  -13.6153   20.3685 N   0  0  0  0  0  0  0  0  0  0  0  0
  -25.4690  -15.0533   20.3979 N   0  0  0  0  0  0  0  0  0  0  0  0
  -21.8832  -12.5809   21.5919 N   0  0  0  0  0  0  0  0  0  0  0  0
  -30.0752  -15.6980   21.4699 N   0  0  0  0  0  0  0  0  0  0  0  0
  -32.2536  -21.7472   19.2413 N   0  0  0  0  0  0  0  0  0  0  0  0
  -32.4296  -28.2925   21.1360 N   0  0  0  0  0  0  0  0  0  0  0  0
  -29.7639  -30.7110   20.8005 N   0  3  0  0  0  0  0  0  0  0  0  0
  -22.6583  -14.7202   21.3067 O   0  0  0  0  0  0  0  0  0  0  0  0
  -32.6889  -22.8719   21.2333 O   0  0  0  0  0  0  0  0  0  0  0  0
  -25.6936  -20.0937   25.5575 O   0  0  0  0  0  0  0  0  0  0  0  0
  -33.3079  -26.1393   19.4624 O   0  0  0  0  0  0  0  0  0  0  0  0
  -30.5430  -28.5726   22.4548 O   0  0  0  0  0  0  0  0  0  0  0  0
  -31.8543  -14.9386   20.1892 O   0  0  0  0  0  0  0  0  0  0  0  0
  -21.6124   -7.0180   21.7168 O   0  0  0  0  0  0  0  0  0  0  0  0
  -26.5641  -23.1815   23.6613 O   0  0  0  0  0  0  0  0  0  1  0  0
  -16.4496   -6.8250   19.7902 F   0  0  0  0  0  0  0  0  0  0  0  0
  -20.8379   -5.0561   19.9297 F   0  0  0  0  0  0  0  0  0  0  0  0
  1  2  1  0  0  0  0
  1  5  2  0  0  0  0
  2  6  2  0  0  0  0
  3 10  2  0  0  0  0
  3 18  1  0  0  0  0
  4 11  1  0  0  0  0
  4 18  2  0  0  0  0
  5 20  1  0  0  0  0
  6 22  1  0  0  0  0
  7  9  2  0  0  0  0
  7 23  1  0  0  0  0
  8 12  2  0  0  0  0
  8 21  1  0  0  0  0
  9 26  1  0  0  0  0
 10 27  1  0  0  0  0
 11 27  2  0  0  0  0
 12 28  1  0  0  0  0
 13 14  2  0  0  0  0
 13 29  1  0  0  0  0
 14 30  1  0  0  0  0
 15 24  1  0  0  0  0
 15 28  2  0  0  0  0
 16 25  1  0  0  0  0
 16 26  2  0  0  0  0
 17 30  2  0  0  0  0
 17 31  1  0  0  0  0
 18 32  1  0  0  0  0
 19 32  1  0  0  0  0
 19 33  2  0  0  0  0
 19 34  1  0  0  0  0
 20 22  2  0  0  0  0
 20 40  1  0  0  0  0
 21 24  2  0  0  0  0
 21 41  1  0  0  0  0
 22 51  1  0  0  0  0
 23 25  2  0  0  0  0
 23 42  1  0  0  0  0
 24 43  1  0  0  0  0
 25 71  1  0  0  0  0
 26 76  1  0  0  0  0
 27 86  1  0  0  0  0
 28 87  1  0  0  0  0
 29 31  2  0  0  0  0
 29 86  1  0  0  0  0
 30 88  1  0  0  0  0
 31 89  1  0  0  0  0
 32 69  2  0  0  0  0
 33 70  1  0  0  0  0
 33 74  1  0  0  0  0
 34 75  1  0  0  0  0
 34 80  2  0  0  0  0
 35 52  1  0  0  0  0
 35 77  1  0  0  0  0
 35 81  2  0  0  0  0
 36 64  1  0  0  0  0
 36 67  1  0  0  0  0
 36 82  2  0  0  0  0
 37 65  1  0  0  0  0
 37 72  1  0  0  0  0
 37 83  2  0  0  0  0
 38 66  1  0  0  0  0
 38 78  1  0  0  0  0
 38 84  2  0  0  0  0
 39 73  1  0  0  0  0
 39 76  1  0  0  0  0
 39 85  2  0  0  0  0
 40 44  1  0  0  0  0
 41 52  1  0  0  0  0
 42 48  1  0  0  0  0
 43 72  1  0  0  0  0
 44 46  1  0  0  0  0
 45 47  1  0  0  0  0
 45 49  1  0  0  0  0
 46 51  1  0  0  0  0
 47 53  1  0  0  0  0
 48 71  1  0  0  0  0
 49 73  1  0  0  0  0
 50 53  1  0  0  0  0
 50 73  1  0  0  0  0
 51 77  1  0  0  0  0
 52 72  1  0  0  0  0
 53 70  1  0  0  0  0
 54 64  1  0  0  0  0
 55 66  1  0  0  0  0
 56 67  1  0  0  0  0
 57 67  1  0  0  0  0
 58 68  1  0  0  0  0
 59 68  1  0  0  0  0
 60 68  1  0  0  0  0
 61 79  1  0  0  0  0
 62 64  1  0  0  0  0
 62 71  1  0  0  0  0
 63 67  1  0  0  0  0
 63 87  1  0  0  0  0
 65 68  1  0  0  0  0
 65 78  1  0  0  0  0
 66 79  1  0  0  0  0
 69 70  1  0  0  0  0
M  CHG  1  79   1
M  ISO  4  39 100  63 101  76 100  87 101
M  END
> <Batch ID>
0145

> <Smiles>
CNC(C)C(=O)NC(C(=O)N1Cc2cc([101O:1][101CH2:1]C(C)(C)C(=O)C(C)CN3CCc4ccc([100NH:0][100C:0](=O)N5CCCC(n6nc(-c7ccc(Oc8ccc(F)cc8F)cc7)c(C(N)=O)c6N)C5)cc43)ccc2CC1C(=O)NC1CCCc2ccccc21)C(C)(C)C

> <Shape>
0.194

> <Color>
0.184

> <Negative vol penalty>
0.000

$$$$

  -OEChem-04052303073D

 85 94  0     1  0  0  0  0  0999 V2000
  -26.0599  -26.7575   14.4717 C   0  0  0  0  0  0  0  0  0  0  0  0
  -26.8975  -25.9869   15.2718 C   0  0  0  0  0  0  0  0  0  0  0  0
  -23.1079   -9.8250   20.0000 C   0  0  0  0  0  0  0  0  0  0  0  0
  -23.8263   -9.9376   22.3040 C   0  0  0  0  0  0  0  0  0  0  0  0
  -25.5943  -27.9877   14.9338 C   0  0  0  0  0  0  0  0  0  0  0  0
  -27.2708  -26.4468   16.5342 C   0  0  0  0  0  0  0  0  0  0  0  0
  -32.5249  -17.7134   23.3566 C   0  0  0  0  0  0  0  0  0  0  0  0
  -30.3201  -18.5573   23.8705 C   0  0  0  0  0  0  0  0  0  0  0  0
  -28.2255  -23.0655   21.5502 C   0  0  0  0  0  0  0  0  0  0  0  0
  -31.9649  -16.7843   22.4798 C   0  0  0  0  0  0  0  0  0  0  0  0
  -29.7601  -17.6282   22.9936 C   0  0  0  0  0  0  0  0  0  0  0  0
  -22.3736   -8.6739   20.2852 C   0  0  0  0  0  0  0  0  0  0  0  0
  -23.0919   -8.7865   22.5892 C   0  0  0  0  0  0  0  0  0  0  0  0
  -29.3879  -22.5755   22.1438 C   0  0  0  0  0  0  0  0  0  0  0  0
  -19.8633   -7.9734   23.1683 C   0  0  0  0  0  0  0  0  0  0  0  0
  -19.0860   -7.9729   24.3264 C   0  0  0  0  0  0  0  0  0  0  0  0
  -29.4171  -24.4702   23.6367 C   0  0  0  0  0  0  0  0  0  0  0  0
  -20.3371   -6.0839   25.1653 C   0  0  0  0  0  0  0  0  0  0  0  0
  -23.8343  -10.4568   21.0094 C   0  0  0  0  0  0  0  0  0  0  0  0
  -24.1479  -12.9789   20.7893 C   0  0  0  0  0  0  0  0  0  0  0  0
  -31.7025  -18.5998   24.0520 C   0  0  0  0  0  0  0  0  0  0  0  0
  -25.9543  -28.4585   16.2063 C   0  0  0  0  0  0  0  0  0  0  0  0
  -27.6553  -24.2692   21.9888 C   0  0  0  0  0  0  0  0  0  0  0  0
  -26.8106  -27.6852   17.0132 C   0  0  0  0  0  0  0  0  0  0  0  0
  -28.2460  -24.9720   23.0487 C   0  0  0  0  0  0  0  0  0  0  0  0
  -30.5826  -16.7417   22.2983 C   0  0  0  0  0  0  0  0  0  0  0  0
  -22.3656   -8.1547   21.5798 C   0  0  0  0  0  0  0  0  0  0  0  0
  -29.9856  -23.2793   23.1853 C   0  0  0  0  0  0  0  0  0  0  0  0
  -20.8775   -7.0292   23.0086 C   0  0  0  0  0  0  0  0  0  0  0  0
  -19.3229   -7.0281   25.3249 C   0  0  0  0  0  0  0  0  0  0  0  0
  -21.1144   -6.0845   24.0071 C   0  0  0  0  0  0  0  0  0  0  0  0
  -24.5936  -11.6456   20.7153 C   0  0  0  0  0  0  0  0  0  0  0  0
  -25.2373  -13.7264   20.4140 C   0  0  0  0  0  0  0  0  0  0  0  0
  -22.8640  -13.4955   21.1639 C   0  0  0  0  0  0  0  0  0  0  0  0
  -27.0700  -27.0926   20.6511 C   0  0  0  0  0  0  0  0  0  0  0  0
  -25.5825  -27.6839   23.4725 C   0  0  0  0  0  0  0  0  0  0  0  0
  -25.2738  -26.9582   26.7928 C   0  0  0  0  0  0  0  0  0  0  0  0
  -30.6865  -14.8481   20.6400 C   0  0  0  0  0  0  0  0  0  0  0  0
  -25.4642  -29.8162   16.6435 C   0  0  0  0  0  0  0  0  0  0  0  0
  -26.3863  -24.7706   21.3559 C   0  0  0  0  0  0  0  0  0  0  0  0
  -27.6621  -26.2587   23.5701 C   0  0  0  0  0  0  0  0  0  0  0  0
  -25.6044  -30.0603   18.1439 C   0  0  0  0  0  0  0  0  0  0  0  0
  -29.6440  -12.3233   18.3562 C   0  0  0  0  0  0  0  0  0  0  0  0
  -26.9882  -29.6375   18.6265 C   0  0  0  0  0  0  0  0  0  0  0  0
  -28.2004  -12.0316   18.7725 C   0  0  0  0  0  0  0  0  0  0  0  0
  -33.4727  -21.7562   25.1520 C   0  0  0  0  0  0  0  0  0  0  0  0
  -33.2888  -20.5461   24.2539 C   0  0  0  0  0  0  0  0  0  0  0  0
  -30.5345  -12.6138   19.5630 C   0  0  0  0  0  0  0  0  0  0  0  0
  -28.5944  -13.3710   20.8790 C   0  0  0  0  0  0  0  0  0  0  0  0
  -27.2179  -28.1386   18.3984 C   0  0  1  0  0  0  0  0  0  0  0  0
  -26.1793  -26.2709   21.5394 C   0  0  1  0  0  0  0  0  0  0  0  0
  -27.6451  -13.1363   19.6927 C   0  0  2  0  0  0  0  0  0  0  0  0
  -32.1123  -21.9896   25.7970 C   0  0  1  0  0  0  0  0  0  0  0  0
  -32.3177  -19.6202   25.0152 C   0  0  2  0  0  0  0  0  0  0  0  0
  -33.0366  -18.8919   26.1722 C   0  0  0  0  0  0  0  0  0  0  0  0
  -23.9999  -27.6336   28.8467 C   0  0  0  0  0  0  0  0  0  0  0  0
  -27.2957  -30.1980   23.7055 C   0  0  0  0  0  0  0  0  0  0  0  0
  -26.6925  -30.2998   26.1332 C   0  0  0  0  0  0  0  0  0  0  0  0
  -24.9108  -30.4929   24.3981 C   0  0  0  0  0  0  0  0  0  0  0  0
  -30.5508  -20.2826   26.8231 C   0  0  0  0  0  0  0  0  0  0  0  0
  -24.1111  -24.2542   27.1020 C   0  0  0  0  0  0  0  0  0  0  0  0
  -31.3269  -23.1182   25.1425 C   0  0  0  0  0  0  0  0  0  1  0  0
  -26.0058  -28.2509   24.8060 C   0  0  1  0  0  0  0  0  0  0  0  0
  -24.0544  -26.6891   27.6560 C   0  0  2  0  0  0  0  0  0  0  0  0
  -26.2385  -29.7872   24.7498 C   0  0  0  0  0  0  0  0  0  0  0  0
  -25.8668  -11.5485   20.3236 N   0  0  0  0  0  0  0  0  0  0  0  0
  -26.2305  -12.8303   20.1480 N   0  0  0  0  0  0  0  0  0  0  0  0
  -26.4240  -26.7112   22.9143 N   0  0  0  0  0  0  0  0  0  0  0  0
  -29.9475  -13.6733   20.3864 N   0  0  0  0  0  0  0  0  0  0  0  0
  -25.4330  -15.0562   20.2887 N   0  0  0  0  0  0  0  0  0  0  0  0
  -21.8571  -12.5884   21.5214 N   0  0  0  0  0  0  0  0  0  0  0  0
  -30.0134  -15.7982   21.4074 N   0  0  0  0  0  0  0  0  0  0  0  0
  -26.5303  -27.3625   19.4080 N   0  0  0  0  0  0  0  0  0  0  0  0
  -24.9902  -27.8351   25.7673 N   0  0  0  0  0  0  0  0  0  0  0  0
  -31.3452  -20.6773   25.6084 N   0  3  1  0  0  0  0  0  0  0  0  0
  -24.0802  -25.2895   28.1671 N   0  3  0  0  0  0  0  0  0  0  0  0
  -22.6119  -14.7243   21.1653 O   0  0  0  0  0  0  0  0  0  0  0  0
  -28.1652  -27.4562   21.0636 O   0  0  0  0  0  0  0  0  0  0  0  0
  -24.5397  -28.0840   22.9488 O   0  0  0  0  0  0  0  0  0  0  0  0
  -26.3694  -26.4449   27.0091 O   0  0  0  0  0  0  0  0  0  0  0  0
  -31.8217  -15.0115   20.1855 O   0  0  0  0  0  0  0  0  0  0  0  0
  -21.6489   -7.0316   21.8585 O   0  0  0  0  0  0  0  0  0  0  0  0
  -31.1206  -22.8035   23.7660 O   0  0  0  0  0  0  0  0  0  1  0  0
  -18.5773   -7.0287   26.4377 F   0  0  0  0  0  0  0  0  0  0  0  0
  -22.0882   -5.1756   23.8598 F   0  0  0  0  0  0  0  0  0  0  0  0
  1  2  1  0  0  0  0
  1  5  2  0  0  0  0
  2  6  2  0  0  0  0
  3 12  2  0  0  0  0
  3 19  1  0  0  0  0
  4 13  1  0  0  0  0
  4 19  2  0  0  0  0
  5 22  1  0  0  0  0
  6 24  1  0  0  0  0
  7 10  2  0  0  0  0
  7 21  1  0  0  0  0
  8 11  1  0  0  0  0
  8 21  2  0  0  0  0
  9 14  2  0  0  0  0
  9 23  1  0  0  0  0
 10 26  1  0  0  0  0
 11 26  2  0  0  0  0
 12 27  1  0  0  0  0
 13 27  2  0  0  0  0
 14 28  1  0  0  0  0
 15 16  2  0  0  0  0
 15 29  1  0  0  0  0
 16 30  1  0  0  0  0
 17 25  1  0  0  0  0
 17 28  2  0  0  0  0
 18 30  2  0  0  0  0
 18 31  1  0  0  0  0
 19 32  1  0  0  0  0
 20 32  1  0  0  0  0
 20 33  2  0  0  0  0
 20 34  1  0  0  0  0
 21 54  1  0  0  0  0
 22 24  2  0  0  0  0
 22 39  1  0  0  0  0
 23 25  2  0  0  0  0
 23 40  1  0  0  0  0
 24 50  1  0  0  0  0
 25 41  1  0  0  0  0
 26 72  1  0  0  0  0
 27 82  1  0  0  0  0
 28 83  1  0  0  0  0
 29 31  2  0  0  0  0
 29 82  1  0  0  0  0
 30 84  1  0  0  0  0
 31 85  1  0  0  0  0
 32 66  2  0  0  0  0
 33 67  1  0  0  0  0
 33 70  1  0  0  0  0
 34 71  1  0  0  0  0
 34 77  2  0  0  0  0
 35 51  1  0  0  0  0
 35 73  1  0  0  0  0
 35 78  2  0  0  0  0
 36 63  1  0  0  0  0
 36 68  1  0  0  0  0
 36 79  2  0  0  0  0
 37 64  1  0  0  0  0
 37 74  1  0  0  0  0
 37 80  2  0  0  0  0
 38 69  1  0  0  0  0
 38 72  1  0  0  0  0
 38 81  2  0  0  0  0
 39 42  1  0  0  0  0
 40 51  1  0  0  0  0
 41 68  1  0  0  0  0
 42 44  1  0  0  0  0
 43 45  1  0  0  0  0
 43 48  1  0  0  0  0
 44 50  1  0  0  0  0
 45 52  1  0  0  0  0
 46 47  1  0  0  0  0
 46 53  1  0  0  0  0
 47 54  1  0  0  0  0
 48 69  1  0  0  0  0
 49 52  1  0  0  0  0
 49 69  1  0  0  0  0
 50 73  1  0  0  0  0
 51 68  1  0  0  0  0
 52 67  1  0  0  0  0
 53 62  1  0  0  0  0
 53 75  1  0  0  0  0
 54 55  1  0  0  0  0
 54 75  1  0  0  0  0
 56 64  1  0  0  0  0
 57 65  1  0  0  0  0
 58 65  1  0  0  0  0
 59 65  1  0  0  0  0
 60 75  1  0  0  0  0
 61 76  1  0  0  0  0
 62 83  1  0  0  0  0
 63 65  1  0  0  0  0
 63 74  1  0  0  0  0
 64 76  1  0  0  0  0
 66 67  1  0  0  0  0
M  CHG  2  75   1  76   1
M  ISO  4  38 100  62 101  72 100  83 101
M  END
> <Batch ID>
0145

> <Smiles>
CNC(C)C(=O)NC(C(=O)N1Cc2cc([101O:1][101CH2:1]C3CCC(C)(c4ccc([100NH:0][100C:0](=O)N5CCCC(n6nc(-c7ccc(Oc8ccc(F)cc8F)cc7)c(C(N)=O)c6N)C5)cc4)N3C)ccc2CC1C(=O)NC1CCCc2ccccc21)C(C)(C)C

> <Shape>
0.225

> <Color>
0.197

> <Negative vol penalty>
0.000

$$$$

  -OEChem-04052303073D

 83 92  0     1  0  0  0  0  0999 V2000
  -30.9971  -31.3270   15.6135 C   0  0  0  0  0  0  0  0  0  0  0  0
  -30.9667  -30.3973   16.6479 C   0  0  0  0  0  0  0  0  0  0  0  0
  -22.8925  -10.6883   19.6921 C   0  0  0  0  0  0  0  0  0  0  0  0
  -23.6251   -9.7935   21.8134 C   0  0  0  0  0  0  0  0  0  0  0  0
  -30.0814  -32.3782   15.5953 C   0  0  0  0  0  0  0  0  0  0  0  0
  -30.0211  -30.5189   17.6656 C   0  0  0  0  0  0  0  0  0  0  0  0
  -27.8201  -26.1041   18.8103 C   0  0  0  0  0  0  0  0  0  0  0  0
  -21.9734   -9.6463   19.5699 C   0  0  0  0  0  0  0  0  0  0  0  0
  -22.7059   -8.7515   21.6912 C   0  0  0  0  0  0  0  0  0  0  0  0
  -28.5474  -25.2165   19.6020 C   0  0  0  0  0  0  0  0  0  0  0  0
  -22.4717   -5.8186   20.0256 C   0  0  0  0  0  0  0  0  0  0  0  0
  -22.9112   -4.5286   20.3230 C   0  0  0  0  0  0  0  0  0  0  0  0
  -27.2908  -25.9220   21.5366 C   0  0  0  0  0  0  0  0  0  0  0  0
  -30.1072  -19.9749   19.2720 C   0  0  0  0  0  0  0  0  0  0  0  0
  -21.2448   -4.3625   22.0645 C   0  0  0  0  0  0  0  0  0  0  0  0
  -23.7184  -10.7619   20.8138 C   0  0  0  0  0  0  0  0  0  0  0  0
  -24.4568  -13.0924   21.5429 C   0  0  0  0  0  0  0  0  0  0  0  0
  -29.1179  -32.5073   16.6081 C   0  0  0  0  0  0  0  0  0  0  0  0
  -26.8285  -26.9166   19.3786 C   0  0  0  0  0  0  0  0  0  0  0  0
  -29.0925  -31.5736   17.6617 C   0  0  0  0  0  0  0  0  0  0  0  0
  -26.5506  -26.8172   20.7494 C   0  0  0  0  0  0  0  0  0  0  0  0
  -29.8519  -18.6070   19.0478 C   0  0  0  0  0  0  0  0  0  0  0  0
  -21.8801   -8.6779   20.5694 C   0  0  0  0  0  0  0  0  0  0  0  0
  -28.2848  -25.1274   20.9659 C   0  0  0  0  0  0  0  0  0  0  0  0
  -21.4188   -6.3805   20.7477 C   0  0  0  0  0  0  0  0  0  0  0  0
  -22.2977   -3.8005   21.3424 C   0  0  0  0  0  0  0  0  0  0  0  0
  -20.8053   -5.6525   21.7670 C   0  0  0  0  0  0  0  0  0  0  0  0
  -24.6685  -11.8378   20.9403 C   0  0  0  0  0  0  0  0  0  0  0  0
  -29.2574  -18.0095   20.1207 C   0  0  0  0  0  0  0  0  0  0  0  0
  -25.6568  -13.7463   21.4053 C   0  0  0  0  0  0  0  0  0  0  0  0
  -29.6783  -20.3491   20.5359 C   0  0  0  0  0  0  0  0  0  0  0  0
  -23.2806  -13.6195   22.1709 C   0  0  0  0  0  0  0  0  0  0  0  0
  -26.3973  -30.0514   19.6795 C   0  0  0  0  0  0  0  0  0  0  0  0
  -23.5202  -29.1473   20.8741 C   0  0  0  0  0  0  0  0  0  0  0  0
  -21.6380  -26.7311   22.3795 C   0  0  0  0  0  0  0  0  0  0  0  0
  -29.9055  -15.1513   17.9856 C   0  0  0  0  0  0  0  0  0  0  0  0
  -28.1792  -33.6872   16.5709 C   0  0  0  0  0  0  0  0  0  0  0  0
  -26.0345  -27.8497   18.5061 C   0  0  0  0  0  0  0  0  0  0  0  0
  -25.4824  -27.6528   21.4046 C   0  0  0  0  0  0  0  0  0  0  0  0
  -30.0692  -17.6449   17.9526 C   0  0  0  0  0  0  0  0  0  0  0  0
  -28.9641  -16.5800   19.9175 C   0  0  0  0  0  0  0  0  0  0  0  0
  -26.9684  -33.5314   17.4874 C   0  0  0  0  0  0  0  0  0  0  0  0
  -30.1948  -12.0563   19.9408 C   0  0  0  0  0  0  0  0  0  0  0  0
  -27.4010  -33.0363   18.8638 C   0  0  0  0  0  0  0  0  0  0  0  0
  -28.7511  -11.8081   20.3834 C   0  0  0  0  0  0  0  0  0  0  0  0
  -30.2665  -12.7875   18.6018 C   0  0  0  0  0  0  0  0  0  0  0  0
  -28.0394  -13.7720   18.9743 C   0  0  0  0  0  0  0  0  0  0  0  0
  -28.0659  -31.6577   18.7704 C   0  0  1  0  0  0  0  0  0  0  0  0
  -25.4004  -28.9995   19.2828 C   0  0  1  0  0  0  0  0  0  0  0  0
  -27.9264  -13.1094   20.3535 C   0  0  1  0  0  0  0  0  0  0  0  0
  -19.3304  -26.2982   23.2655 C   0  0  0  0  0  0  0  0  0  0  0  0
  -24.1484  -30.8429   23.3319 C   0  0  0  0  0  0  0  0  0  0  0  0
  -22.3147  -29.6427   24.5424 C   0  0  0  0  0  0  0  0  0  0  0  0
  -21.7875  -31.0109   22.5243 C   0  0  0  0  0  0  0  0  0  0  0  0
  -31.1372  -23.6796   22.6020 C   0  0  0  0  0  0  0  0  0  0  0  0
  -30.9058  -25.2314   20.6503 C   0  0  0  0  0  0  0  0  0  0  0  0
  -21.2013  -24.5030   20.4811 C   0  0  0  0  0  0  0  0  0  0  0  0
  -30.3399  -22.7519   20.4142 C   0  0  0  0  0  0  0  0  0  0  0  0
  -22.9920  -28.8055   22.2464 C   0  0  1  0  0  0  0  0  0  0  0  0
  -20.2560  -26.1882   22.0638 C   0  0  2  0  0  0  0  0  0  0  0  0
  -22.8322  -30.0610   23.1496 C   0  0  0  0  0  0  0  0  0  0  0  0
  -30.3377  -23.9840   21.3323 C   0  0  0  0  0  0  0  0  0  1  0  0
  -25.9056  -11.7007   20.4558 N   0  0  0  0  0  0  0  0  0  0  0  0
  -26.4820  -12.8776   20.7537 N   0  0  0  0  0  0  0  0  0  0  0  0
  -24.7377  -28.5547   20.5104 N   0  0  0  0  0  0  0  0  0  0  0  0
  -29.5522  -16.3799   18.5546 N   0  0  0  0  0  0  0  0  0  0  0  0
  -29.4451  -13.9966   18.6258 N   0  0  0  0  0  0  0  0  0  0  0  0
  -26.0759  -14.9738   21.7791 N   0  0  0  0  0  0  0  0  0  0  0  0
  -22.1347  -12.8144   22.2261 N   0  0  0  0  0  0  0  0  0  0  0  0
  -29.7664  -21.5877   21.0830 N   0  0  0  0  0  0  0  0  0  0  0  0
  -27.0656  -30.6236   18.6139 N   0  0  0  0  0  0  0  0  0  0  0  0
  -21.7556  -28.0608   22.0342 N   0  0  0  0  0  0  0  0  0  0  0  0
  -20.3410  -24.7546   21.6658 N   0  3  0  0  0  0  0  0  0  0  0  0
  -23.2417  -14.7766   22.6538 O   0  0  0  0  0  0  0  0  0  0  0  0
  -26.5479  -30.3248   20.8645 O   0  0  0  0  0  0  0  0  0  0  0  0
  -22.8726  -29.9063   20.1487 O   0  0  0  0  0  0  0  0  0  0  0  0
  -22.5235  -26.0452   22.8855 O   0  0  0  0  0  0  0  0  0  0  0  0
  -30.6394  -15.0881   16.9913 O   0  0  0  0  0  0  0  0  0  0  0  0
  -20.9832   -7.6610   20.4506 O   0  0  0  0  0  0  0  0  0  0  0  0
  -28.9969  -24.2583   21.7447 O   0  0  0  0  0  0  0  0  0  1  0  0
  -22.7188   -2.5612   21.6269 F   0  0  0  0  0  0  0  0  0  0  0  0
  -19.7926   -6.1866   22.4634 F   0  0  0  0  0  0  0  0  0  0  0  0
  -28.9812  -19.0306   21.4147 S   0  0  0  0  0  0  0  0  0  0  0  0
  1  2  1  0  0  0  0
  1  5  2  0  0  0  0
  2  6  2  0  0  0  0
  3  8  2  0  0  0  0
  3 16  1  0  0  0  0
  4  9  1  0  0  0  0
  4 16  2  0  0  0  0
  5 18  1  0  0  0  0
  6 20  1  0  0  0  0
  7 10  2  0  0  0  0
  7 19  1  0  0  0  0
  8 23  1  0  0  0  0
  9 23  2  0  0  0  0
 10 24  1  0  0  0  0
 11 12  2  0  0  0  0
 11 25  1  0  0  0  0
 12 26  1  0  0  0  0
 13 21  1  0  0  0  0
 13 24  2  0  0  0  0
 14 22  1  0  0  0  0
 14 31  2  0  0  0  0
 15 26  2  0  0  0  0
 15 27  1  0  0  0  0
 16 28  1  0  0  0  0
 17 28  1  0  0  0  0
 17 30  2  0  0  0  0
 17 32  1  0  0  0  0
 18 20  2  0  0  0  0
 18 37  1  0  0  0  0
 19 21  2  0  0  0  0
 19 38  1  0  0  0  0
 20 48  1  0  0  0  0
 21 39  1  0  0  0  0
 22 29  2  0  0  0  0
 22 40  1  0  0  0  0
 23 79  1  0  0  0  0
 24 80  1  0  0  0  0
 25 27  2  0  0  0  0
 25 79  1  0  0  0  0
 26 81  1  0  0  0  0
 27 82  1  0  0  0  0
 28 63  2  0  0  0  0
 29 41  1  0  0  0  0
 29 83  1  0  0  0  0
 30 64  1  0  0  0  0
 30 68  1  0  0  0  0
 31 70  1  0  0  0  0
 31 83  1  0  0  0  0
 32 69  1  0  0  0  0
 32 74  2  0  0  0  0
 33 49  1  0  0  0  0
 33 71  1  0  0  0  0
 33 75  2  0  0  0  0
 34 59  1  0  0  0  0
 34 65  1  0  0  0  0
 34 76  2  0  0  0  0
 35 60  1  0  0  0  0
 35 72  1  0  0  0  0
 35 77  2  0  0  0  0
 36 66  1  0  0  0  0
 36 67  1  0  0  0  0
 36 78  2  0  0  0  0
 37 42  1  0  0  0  0
 38 49  1  0  0  0  0
 39 65  1  0  0  0  0
 40 66  1  0  0  0  0
 41 66  1  0  0  0  0
 42 44  1  0  0  0  0
 43 45  1  0  0  0  0
 43 46  1  0  0  0  0
 44 48  1  0  0  0  0
 45 50  1  0  0  0  0
 46 67  1  0  0  0  0
 47 50  1  0  0  0  0
 47 67  1  0  0  0  0
 48 71  1  0  0  0  0
 49 65  1  0  0  0  0
 50 64  1  0  0  0  0
 51 60  1  0  0  0  0
 52 61  1  0  0  0  0
 53 61  1  0  0  0  0
 54 61  1  0  0  0  0
 55 62  1  0  0  0  0
 56 62  1  0  0  0  0
 57 73  1  0  0  0  0
 58 62  1  0  0  0  0
 58 70  1  0  0  0  0
 59 61  1  0  0  0  0
 59 72  1  0  0  0  0
 60 73  1  0  0  0  0
 62 80  1  0  0  0  0
 63 64  1  0  0  0  0
M  CHG  1  73   1
M  ISO  4  36 100  62 101  66 100  80 101
M  END
> <Batch ID>
0145

> <Smiles>
CNC(C)C(=O)NC(C(=O)N1Cc2cc([101O:1][101C:1](C)(C)CNc3cc4c(s3)C[100N:0]([100C:0](=O)N3CCCC(n5nc(-c6ccc(Oc7ccc(F)cc7F)cc6)c(C(N)=O)c5N)C3)C4)ccc2CC1C(=O)NC1CCCc2ccccc21)C(C)(C)C

> <Shape>
0.296

> <Color>
0.109

> <Negative vol penalty>
0.000

$$$$

  -OEChem-04052303073D

 86 94  0     1  0  0  0  0  0999 V2000
  -30.4964  -20.9401   16.3138 C   0  0  0  0  0  0  0  0  0  0  0  0
  -30.1429  -21.2448   17.6243 C   0  0  0  0  0  0  0  0  0  0  0  0
  -23.0079   -9.8705   19.9878 C   0  0  0  0  0  0  0  0  0  0  0  0
  -23.7263   -9.9434   22.2934 C   0  0  0  0  0  0  0  0  0  0  0  0
  -31.3979  -21.7539   15.6290 C   0  0  0  0  0  0  0  0  0  0  0  0
  -30.6915  -22.3630   18.2512 C   0  0  0  0  0  0  0  0  0  0  0  0
  -27.2332  -25.0668   20.7761 C   0  0  0  0  0  0  0  0  0  0  0  0
  -22.2462   -8.7345   20.2610 C   0  0  0  0  0  0  0  0  0  0  0  0
  -22.9644   -8.8073   22.5666 C   0  0  0  0  0  0  0  0  0  0  0  0
  -26.8261  -24.5795   22.0173 C   0  0  0  0  0  0  0  0  0  0  0  0
  -23.2262   -5.4660   22.1221 C   0  0  0  0  0  0  0  0  0  0  0  0
  -23.8165   -4.4577   22.8839 C   0  0  0  0  0  0  0  0  0  0  0  0
  -28.3049  -26.1419   23.1088 C   0  0  0  0  0  0  0  0  0  0  0  0
  -31.7853  -17.5106   21.6667 C   0  0  0  0  0  0  0  0  0  0  0  0
  -22.0867   -4.7056   24.5523 C   0  0  0  0  0  0  0  0  0  0  0  0
  -23.7481  -10.4750   21.0039 C   0  0  0  0  0  0  0  0  0  0  0  0
  -24.1218  -12.9909   20.8089 C   0  0  0  0  0  0  0  0  0  0  0  0
  -31.9504  -22.8881   16.2446 C   0  0  0  0  0  0  0  0  0  0  0  0
  -28.1889  -26.0895   20.6915 C   0  0  0  0  0  0  0  0  0  0  0  0
  -31.6022  -23.1921   17.5745 C   0  0  0  0  0  0  0  0  0  0  0  0
  -28.7205  -26.6421   21.8654 C   0  0  0  0  0  0  0  0  0  0  0  0
  -31.8762  -18.7898   22.2877 C   0  0  0  0  0  0  0  0  0  0  0  0
  -22.2244   -8.2029   21.5504 C   0  0  0  0  0  0  0  0  0  0  0  0
  -27.3641  -25.1151   23.1839 C   0  0  0  0  0  0  0  0  0  0  0  0
  -22.0662   -6.0942   22.5753 C   0  0  0  0  0  0  0  0  0  0  0  0
  -23.2467   -4.0774   24.0990 C   0  0  0  0  0  0  0  0  0  0  0  0
  -21.4964   -5.7139   23.7904 C   0  0  0  0  0  0  0  0  0  0  0  0
  -24.5357  -11.6482   20.7222 C   0  0  0  0  0  0  0  0  0  0  0  0
  -25.2291  -13.7159   20.4419 C   0  0  0  0  0  0  0  0  0  0  0  0
  -30.5630  -16.9146   21.8860 C   0  0  0  0  0  0  0  0  0  0  0  0
  -30.7195  -19.1228   22.9579 C   0  0  0  0  0  0  0  0  0  0  0  0
  -22.8501  -13.5342   21.1875 C   0  0  0  0  0  0  0  0  0  0  0  0
  -31.1010  -26.3405   19.4425 C   0  0  0  0  0  0  0  0  0  0  0  0
  -30.7675  -29.4567   20.2791 C   0  0  0  0  0  0  0  0  0  0  0  0
  -29.1733  -20.5345   24.3522 C   0  0  0  0  0  0  0  0  0  0  0  0
  -29.2589  -31.7740   22.2793 C   0  0  0  0  0  0  0  0  0  0  0  0
  -30.7032  -14.7053   20.6837 C   0  0  0  0  0  0  0  0  0  0  0  0
  -32.9570  -23.7111   15.4802 C   0  0  0  0  0  0  0  0  0  0  0  0
  -28.5976  -26.6224   19.3456 C   0  0  0  0  0  0  0  0  0  0  0  0
  -29.7344  -27.7553   21.8293 C   0  0  0  0  0  0  0  0  0  0  0  0
  -33.2057  -25.0887   16.0891 C   0  0  0  0  0  0  0  0  0  0  0  0
  -29.6033  -12.2287   18.3741 C   0  0  0  0  0  0  0  0  0  0  0  0
  -33.4072  -24.9774   17.5970 C   0  0  0  0  0  0  0  0  0  0  0  0
  -28.1528  -11.9674   18.7863 C   0  0  0  0  0  0  0  0  0  0  0  0
  -30.4992  -12.4860   19.5845 C   0  0  0  0  0  0  0  0  0  0  0  0
  -28.5763  -13.2762   20.9063 C   0  0  0  0  0  0  0  0  0  0  0  0
  -32.1569  -24.4104   18.2803 C   0  0  1  0  0  0  0  0  0  0  0  0
  -29.9580  -27.3126   19.3643 C   0  0  1  0  0  0  0  0  0  0  0  0
  -27.6229  -13.0758   19.7170 C   0  0  2  0  0  0  0  0  0  0  0  0
  -33.0796  -19.6526   22.2145 C   0  0  0  0  0  0  0  0  0  0  0  0
  -29.2181  -34.2375   22.7555 C   0  0  0  0  0  0  0  0  0  0  0  0
  -33.4160  -29.2091   21.7738 C   0  0  0  0  0  0  0  0  0  0  0  0
  -32.8545  -31.3309   22.9785 C   0  0  0  0  0  0  0  0  0  0  0  0
  -33.1327  -31.3423   20.4996 C   0  0  0  0  0  0  0  0  0  0  0  0
  -26.2956  -23.6116   27.0413 C   0  0  0  0  0  0  0  0  0  0  0  0
  -28.7308  -23.6637   27.5937 C   0  0  0  0  0  0  0  0  0  0  0  0
  -26.3982  -31.9853   21.5506 C   0  0  0  0  0  0  0  0  0  0  0  0
  -29.1867  -21.8873   25.0441 C   0  0  0  0  0  0  0  0  0  0  0  0
  -27.8525  -22.1417   25.7502 C   0  0  0  0  0  0  0  0  0  0  0  0
  -27.9226  -24.6941   25.4569 C   0  0  0  0  0  0  0  0  0  1  0  0
  -31.0777  -30.2720   21.5112 C   0  0  1  0  0  0  0  0  0  0  0  0
  -28.5950  -33.1013   21.9596 C   0  0  2  0  0  0  0  0  0  0  0  0
  -32.6026  -30.5163   21.6918 C   0  0  0  0  0  0  0  0  0  0  0  0
  -27.7168  -23.5253   26.4442 C   0  0  0  0  0  0  0  0  0  0  0  0
  -25.8067  -11.5247   20.3306 N   0  0  0  0  0  0  0  0  0  0  0  0
  -26.2009  -12.7991   20.1680 N   0  0  0  0  0  0  0  0  0  0  0  0
  -30.1068  -28.2380   20.4893 N   0  0  0  0  0  0  0  0  0  0  0  0
  -29.9367  -13.5509   20.4178 N   0  0  0  0  0  0  0  0  0  0  0  0
  -25.4564  -15.0419   20.3299 N   0  0  0  0  0  0  0  0  0  0  0  0
  -21.8216  -12.6479   21.5352 N   0  0  0  0  0  0  0  0  0  0  0  0
  -30.3734  -20.2757   23.7016 N   0  0  0  0  0  0  0  0  0  0  0  0
  -30.0521  -15.6635   21.4598 N   0  0  0  0  0  0  0  0  0  0  0  0
  -31.1397  -25.4326   18.4014 N   0  0  0  0  0  0  0  0  0  0  0  0
  -30.2857  -31.4924   21.4033 N   0  0  0  0  0  0  0  0  0  0  0  0
  -27.1411  -33.0441   22.2815 N   0  3  0  0  0  0  0  0  0  0  0  0
  -22.6274  -14.7686   21.2008 O   0  0  0  0  0  0  0  0  0  0  0  0
  -31.8904  -26.4099   20.3772 O   0  0  0  0  0  0  0  0  0  0  0  0
  -31.0928  -29.8887   19.1704 O   0  0  0  0  0  0  0  0  0  0  0  0
  -28.1744  -19.8224   24.3989 O   0  0  0  0  0  0  0  0  0  0  0  0
  -28.9045  -31.0603   23.2151 O   0  0  0  0  0  0  0  0  0  0  0  0
  -31.8425  -14.8461   20.2318 O   0  0  0  0  0  0  0  0  0  0  0  0
  -21.4809   -7.0945   21.8174 O   0  0  0  0  0  0  0  0  0  0  0  0
  -26.9690  -24.6409   24.3967 O   0  0  0  0  0  0  0  0  0  1  0  0
  -23.8128   -3.1081   24.8298 F   0  0  0  0  0  0  0  0  0  0  0  0
  -20.3814   -6.3130   24.2305 F   0  0  0  0  0  0  0  0  0  0  0  0
  -29.5311  -17.8959   22.8371 S   0  0  0  0  0  0  0  0  0  0  0  0
  1  2  1  0  0  0  0
  1  5  2  0  0  0  0
  2  6  2  0  0  0  0
  3  8  2  0  0  0  0
  3 16  1  0  0  0  0
  4  9  1  0  0  0  0
  4 16  2  0  0  0  0
  5 18  1  0  0  0  0
  6 20  1  0  0  0  0
  7 10  2  0  0  0  0
  7 19  1  0  0  0  0
  8 23  1  0  0  0  0
  9 23  2  0  0  0  0
 10 24  1  0  0  0  0
 11 12  2  0  0  0  0
 11 25  1  0  0  0  0
 12 26  1  0  0  0  0
 13 21  1  0  0  0  0
 13 24  2  0  0  0  0
 14 22  1  0  0  0  0
 14 30  2  0  0  0  0
 15 26  2  0  0  0  0
 15 27  1  0  0  0  0
 16 28  1  0  0  0  0
 17 28  1  0  0  0  0
 17 29  2  0  0  0  0
 17 32  1  0  0  0  0
 18 20  2  0  0  0  0
 18 38  1  0  0  0  0
 19 21  2  0  0  0  0
 19 39  1  0  0  0  0
 20 47  1  0  0  0  0
 21 40  1  0  0  0  0
 22 31  2  0  0  0  0
 22 50  1  0  0  0  0
 23 82  1  0  0  0  0
 24 83  1  0  0  0  0
 25 27  2  0  0  0  0
 25 82  1  0  0  0  0
 26 84  1  0  0  0  0
 27 85  1  0  0  0  0
 28 65  2  0  0  0  0
 29 66  1  0  0  0  0
 29 69  1  0  0  0  0
 30 72  1  0  0  0  0
 30 86  1  0  0  0  0
 31 71  1  0  0  0  0
 31 86  1  0  0  0  0
 32 70  1  0  0  0  0
 32 76  2  0  0  0  0
 33 48  1  0  0  0  0
 33 73  1  0  0  0  0
 33 77  2  0  0  0  0
 34 61  1  0  0  0  0
 34 67  1  0  0  0  0
 34 78  2  0  0  0  0
 35 58  1  0  0  0  0
 35 71  1  0  0  0  0
 35 79  2  0  0  0  0
 36 62  1  0  0  0  0
 36 74  1  0  0  0  0
 36 80  2  0  0  0  0
 37 68  1  0  0  0  0
 37 72  1  0  0  0  0
 37 81  2  0  0  0  0
 38 41  1  0  0  0  0
 39 48  1  0  0  0  0
 40 67  1  0  0  0  0
 41 43  1  0  0  0  0
 42 44  1  0  0  0  0
 42 45  1  0  0  0  0
 43 47  1  0  0  0  0
 44 49  1  0  0  0  0
 45 68  1  0  0  0  0
 46 49  1  0  0  0  0
 46 68  1  0  0  0  0
 47 73  1  0  0  0  0
 48 67  1  0  0  0  0
 49 66  1  0  0  0  0
 51 62  1  0  0  0  0
 52 63  1  0  0  0  0
 53 63  1  0  0  0  0
 54 63  1  0  0  0  0
 55 64  1  0  0  0  0
 56 64  1  0  0  0  0
 57 75  1  0  0  0  0
 58 59  1  0  0  0  0
 59 64  1  0  0  0  0
 60 64  1  0  0  0  0
 60 83  1  0  0  0  0
 61 63  1  0  0  0  0
 61 74  1  0  0  0  0
 62 75  1  0  0  0  0
 65 66  1  0  0  0  0
M  CHG  1  75   1
M  ISO  4  37 100  60 101  72 100  83 101
M  END
> <Batch ID>
0145

> <Smiles>
CNC(C)C(=O)NC(C(=O)N1Cc2cc([101O:1][101CH2:1]C(C)(C)CCC(=O)Nc3sc([100NH:0][100C:0](=O)N4CCCC(n5nc(-c6ccc(Oc7ccc(F)cc7F)cc6)c(C(N)=O)c5N)C4)cc3C)ccc2CC1C(=O)NC1CCCc2ccccc21)C(C)(C)C

> <Shape>
0.251

> <Color>
0.194

> <Negative vol penalty>
0.000

$$$$

  -OEChem-04052303073D

 84 93  0     1  0  0  0  0  0999 V2000
  -21.5081  -32.0470   24.2898 C   0  0  0  0  0  0  0  0  0  0  0  0
  -22.1139  -31.0257   25.0146 C   0  0  0  0  0  0  0  0  0  0  0  0
  -23.0839   -9.8436   20.0141 C   0  0  0  0  0  0  0  0  0  0  0  0
  -23.8272   -9.9442   22.3108 C   0  0  0  0  0  0  0  0  0  0  0  0
  -21.4302  -31.9626   22.9003 C   0  0  0  0  0  0  0  0  0  0  0  0
  -22.6412  -29.9188   24.3504 C   0  0  0  0  0  0  0  0  0  0  0  0
  -27.6237  -26.7180   25.9110 C   0  0  0  0  0  0  0  0  0  0  0  0
  -22.3375   -8.7019   20.3056 C   0  0  0  0  0  0  0  0  0  0  0  0
  -23.0807   -8.8025   22.6023 C   0  0  0  0  0  0  0  0  0  0  0  0
  -27.7895  -25.5177   26.6005 C   0  0  0  0  0  0  0  0  0  0  0  0
  -19.8477   -8.0313   23.2135 C   0  0  0  0  0  0  0  0  0  0  0  0
  -19.0823   -8.0396   24.3795 C   0  0  0  0  0  0  0  0  0  0  0  0
  -27.9101  -24.3353   24.5013 C   0  0  0  0  0  0  0  0  0  0  0  0
  -29.8919  -17.5623   22.9562 C   0  0  0  0  0  0  0  0  0  0  0  0
  -20.3170   -6.1335   25.2037 C   0  0  0  0  0  0  0  0  0  0  0  0
  -31.8805  -18.4301   23.9304 C   0  0  0  0  0  0  0  0  0  0  0  0
  -32.0447  -16.7022   22.4252 C   0  0  0  0  0  0  0  0  0  0  0  0
  -23.8288  -10.4647   21.0167 C   0  0  0  0  0  0  0  0  0  0  0  0
  -24.1732  -12.9827   20.7959 C   0  0  0  0  0  0  0  0  0  0  0  0
  -21.9654  -30.8587   22.2179 C   0  0  0  0  0  0  0  0  0  0  0  0
  -27.5888  -26.7346   24.5092 C   0  0  0  0  0  0  0  0  0  0  0  0
  -22.5692  -29.8190   22.9505 C   0  0  0  0  0  0  0  0  0  0  0  0
  -27.7462  -25.5375   23.7963 C   0  0  0  0  0  0  0  0  0  0  0  0
  -30.5000  -18.4681   23.8182 C   0  0  0  0  0  0  0  0  0  0  0  0
  -30.6719  -16.6590   22.2427 C   0  0  0  0  0  0  0  0  0  0  0  0
  -22.3358   -8.1814   21.5997 C   0  0  0  0  0  0  0  0  0  0  0  0
  -27.9298  -24.3257   25.8958 C   0  0  0  0  0  0  0  0  0  0  0  0
  -20.8478   -7.0740   23.0425 C   0  0  0  0  0  0  0  0  0  0  0  0
  -19.3169   -7.0907   25.3746 C   0  0  0  0  0  0  0  0  0  0  0  0
  -21.0824   -6.1251   24.0376 C   0  0  0  0  0  0  0  0  0  0  0  0
  -24.6006  -11.6438   20.7160 C   0  0  0  0  0  0  0  0  0  0  0  0
  -25.2685  -13.7163   20.4102 C   0  0  0  0  0  0  0  0  0  0  0  0
  -29.1578  -21.1897   25.8585 C   0  0  0  0  0  0  0  0  0  0  0  0
  -22.9001  -13.5157   21.1841 C   0  0  0  0  0  0  0  0  0  0  0  0
  -29.2319  -22.4345   26.3414 C   0  0  0  0  0  0  0  0  0  1  0  0
  -25.4301  -27.5648   22.3287 C   0  0  0  0  0  0  0  0  0  0  0  0
  -27.8696  -27.0032   20.2658 C   0  0  0  0  0  0  0  0  0  0  0  0
  -30.8188  -25.4072   19.6321 C   0  0  0  0  0  0  0  0  0  0  0  0
  -30.7340  -14.7661   20.5816 C   0  0  0  0  0  0  0  0  0  0  0  0
  -21.8153  -30.7895   20.7188 C   0  0  0  0  0  0  0  0  0  0  0  0
  -27.4360  -28.0411   23.7797 C   0  0  0  0  0  0  0  0  0  0  0  0
  -27.7362  -25.5040   22.2906 C   0  0  0  0  0  0  0  0  0  0  0  0
  -27.8893  -20.4705   25.5246 C   0  0  0  0  0  0  0  0  0  0  0  0
  -30.3344  -20.3506   25.4597 C   0  0  0  0  0  0  0  0  0  0  0  0
  -22.7317  -29.7605   20.0618 C   0  0  0  0  0  0  0  0  0  0  0  0
  -29.6351  -12.2577   18.3061 C   0  0  0  0  0  0  0  0  0  0  0  0
  -22.6827  -28.4392   20.8224 C   0  0  0  0  0  0  0  0  0  0  0  0
  -28.1922  -11.9845   18.7368 C   0  0  0  0  0  0  0  0  0  0  0  0
  -28.3100  -19.5538   24.3793 C   0  0  0  0  0  0  0  0  0  0  0  0
  -30.5417  -12.5352   19.5040 C   0  0  0  0  0  0  0  0  0  0  0  0
  -28.6252  -13.3163   20.8406 C   0  0  0  0  0  0  0  0  0  0  0  0
  -23.1749  -28.6140   22.2641 C   0  0  1  0  0  0  0  0  0  0  0  0
  -26.9001  -27.8743   22.3612 C   0  0  1  0  0  0  0  0  0  0  0  0
  -27.6609  -13.0954   19.6638 C   0  0  2  0  0  0  0  0  0  0  0  0
  -30.5195  -23.1219   26.6639 C   0  0  0  0  0  0  0  0  0  0  0  0
  -32.5556  -25.1140   17.8447 C   0  0  0  0  0  0  0  0  0  0  0  0
  -25.9950  -25.1285   18.7553 C   0  0  0  0  0  0  0  0  0  0  0  0
  -27.9985  -24.1676   17.6017 C   0  0  0  0  0  0  0  0  0  0  0  0
  -27.4213  -26.5752   17.2969 C   0  0  0  0  0  0  0  0  0  0  0  0
  -32.9425  -26.5539   21.3451 C   0  0  0  0  0  0  0  0  0  0  0  0
  -28.3723  -25.7988   19.5071 C   0  0  1  0  0  0  0  0  0  0  0  0
  -32.1362  -25.9107   19.0703 C   0  0  2  0  0  0  0  0  0  0  0  0
  -27.4451  -25.4176   18.3186 C   0  0  0  0  0  0  0  0  0  0  0  0
  -32.6714  -17.5674   23.2537 N   0  0  0  0  0  0  0  0  0  0  0  0
  -25.8684  -11.5304   20.3112 N   0  0  0  0  0  0  0  0  0  0  0  0
  -26.2471  -12.8075   20.1332 N   0  0  0  0  0  0  0  0  0  0  0  0
  -29.7512  -19.3767   24.5402 N   0  0  3  0  0  0  0  0  0  0  0  0
  -27.5776  -26.8065   21.6229 N   0  0  0  0  0  0  0  0  0  0  0  0
  -29.9770  -13.6013   20.3344 N   0  0  0  0  0  0  0  0  0  0  0  0
  -25.4803  -15.0436   20.2842 N   0  0  0  0  0  0  0  0  0  0  0  0
  -21.8851  -12.6215   21.5509 N   0  0  0  0  0  0  0  0  0  0  0  0
  -30.0813  -15.7241   21.3568 N   0  0  0  0  0  0  0  0  0  0  0  0
  -24.6200  -28.6839   22.2998 N   0  0  0  0  0  0  0  0  0  0  0  0
  -29.7453  -26.1043   19.1196 N   0  0  0  0  0  0  0  0  0  0  0  0
  -33.2128  -25.7987   20.0947 N   0  3  0  0  0  0  0  0  0  0  0  0
  -22.6643  -14.7477   21.1893 O   0  0  0  0  0  0  0  0  0  0  0  0
  -25.0584  -26.3970   22.3284 O   0  0  0  0  0  0  0  0  0  0  0  0
  -27.7474  -28.0807   19.6777 O   0  0  0  0  0  0  0  0  0  0  0  0
  -30.7489  -24.4851   20.4417 O   0  0  0  0  0  0  0  0  0  0  0  0
  -31.8665  -14.9151   20.1157 O   0  0  0  0  0  0  0  0  0  0  0  0
  -21.6074   -7.0675   21.8846 O   0  0  0  0  0  0  0  0  0  0  0  0
  -28.0912  -23.1527   26.5664 O   0  0  0  0  0  0  0  0  0  1  0  0
  -18.5828   -7.0998   26.4950 F   0  0  0  0  0  0  0  0  0  0  0  0
  -22.0426   -5.2037   23.8795 F   0  0  0  0  0  0  0  0  0  0  0  0
  1  2  1  0  0  0  0
  1  5  2  0  0  0  0
  2  6  2  0  0  0  0
  3  8  2  0  0  0  0
  3 18  1  0  0  0  0
  4  9  1  0  0  0  0
  4 18  2  0  0  0  0
  5 20  1  0  0  0  0
  6 22  1  0  0  0  0
  7 10  2  0  0  0  0
  7 21  1  0  0  0  0
  8 26  1  0  0  0  0
  9 26  2  0  0  0  0
 10 27  1  0  0  0  0
 11 12  2  0  0  0  0
 11 28  1  0  0  0  0
 12 29  1  0  0  0  0
 13 23  1  0  0  0  0
 13 27  2  0  0  0  0
 14 24  2  0  0  0  0
 14 25  1  0  0  0  0
 15 29  2  0  0  0  0
 15 30  1  0  0  0  0
 16 24  1  0  0  0  0
 16 64  2  0  0  0  0
 17 25  2  0  0  0  0
 17 64  1  0  0  0  0
 18 31  1  0  0  0  0
 19 31  1  0  0  0  0
 19 32  2  0  0  0  0
 19 34  1  0  0  0  0
 20 22  2  0  0  0  0
 20 40  1  0  0  0  0
 21 23  2  0  0  0  0
 21 41  1  0  0  0  0
 22 52  1  0  0  0  0
 23 42  1  0  0  0  0
 24 67  1  0  0  0  0
 25 72  1  0  0  0  0
 26 81  1  0  0  0  0
 27 82  1  0  0  0  0
 28 30  2  0  0  0  0
 28 81  1  0  0  0  0
 29 83  1  0  0  0  0
 30 84  1  0  0  0  0
 31 65  2  0  0  0  0
 32 66  1  0  0  0  0
 32 70  1  0  0  0  0
 33 35  2  0  0  0  0
 33 43  1  0  0  0  0
 33 44  1  0  0  0  0
 34 71  1  0  0  0  0
 34 76  2  0  0  0  0
 35 55  1  0  0  0  0
 35 82  1  0  0  0  0
 36 53  1  0  0  0  0
 36 73  1  0  0  0  0
 36 77  2  0  0  0  0
 37 61  1  0  0  0  0
 37 68  1  0  0  0  0
 37 78  2  0  0  0  0
 38 62  1  0  0  0  0
 38 74  1  0  0  0  0
 38 79  2  0  0  0  0
 39 69  1  0  0  0  0
 39 72  1  0  0  0  0
 39 80  2  0  0  0  0
 40 45  1  0  0  0  0
 41 53  1  0  0  0  0
 42 68  1  0  0  0  0
 43 49  1  0  0  0  0
 44 67  1  0  0  0  0
 45 47  1  0  0  0  0
 46 48  1  0  0  0  0
 46 50  1  0  0  0  0
 47 52  1  0  0  0  0
 48 54  1  0  0  0  0
 49 67  1  0  0  0  0
 50 69  1  0  0  0  0
 51 54  1  0  0  0  0
 51 69  1  0  0  0  0
 52 73  1  0  0  0  0
 53 68  1  0  0  0  0
 54 66  1  0  0  0  0
 56 62  1  0  0  0  0
 57 63  1  0  0  0  0
 58 63  1  0  0  0  0
 59 63  1  0  0  0  0
 60 75  1  0  0  0  0
 61 63  1  0  0  0  0
 61 74  1  0  0  0  0
 62 75  1  0  0  0  0
 65 66  1  0  0  0  0
M  CHG  1  75   1
M  ISO  4  35 101  39 100  72 100  82 101
M  END
> <Batch ID>
0145

> <Smiles>
CNC(C)C(=O)NC(C(=O)N1Cc2cc([101O:1][101C:1](C)=C3CCN(c4cncc([100NH:0][100C:0](=O)N5CCCC(n6nc(-c7ccc(Oc8ccc(F)cc8F)cc7)c(C(N)=O)c6N)C5)c4)C3)ccc2CC1C(=O)NC1CCCc2ccccc21)C(C)(C)C

> <Shape>
0.261

> <Color>
0.197

> <Negative vol penalty>
0.000

$$$$

  -OEChem-04052303073D

 85 94  0     1  0  0  0  0  0999 V2000
  -24.4150  -30.1473   24.7632 C   0  0  0  0  0  0  0  0  0  0  0  0
  -25.5835  -29.4003   24.8732 C   0  0  0  0  0  0  0  0  0  0  0  0
  -23.4298   -9.8893   21.4852 C   0  0  0  0  0  0  0  0  0  0  0  0
  -24.2412  -10.8188   23.5623 C   0  0  0  0  0  0  0  0  0  0  0  0
  -23.1982  -29.5063   24.5343 C   0  0  0  0  0  0  0  0  0  0  0  0
  -25.5356  -28.0116   24.7554 C   0  0  0  0  0  0  0  0  0  0  0  0
  -29.2273  -26.1834   21.8103 C   0  0  0  0  0  0  0  0  0  0  0  0
  -22.8202   -8.8502   22.1882 C   0  0  0  0  0  0  0  0  0  0  0  0
  -23.6316   -9.7797   24.2654 C   0  0  0  0  0  0  0  0  0  0  0  0
  -30.4997  -26.0846   22.3716 C   0  0  0  0  0  0  0  0  0  0  0  0
  -20.5234   -8.9759   25.3209 C   0  0  0  0  0  0  0  0  0  0  0  0
  -19.8044   -9.3069   26.4693 C   0  0  0  0  0  0  0  0  0  0  0  0
  -30.1424  -23.7295   22.7523 C   0  0  0  0  0  0  0  0  0  0  0  0
  -32.2822  -20.0324   21.3696 C   0  0  0  0  0  0  0  0  0  0  0  0
  -21.2642   -7.9039   27.7876 C   0  0  0  0  0  0  0  0  0  0  0  0
  -24.1403  -10.8736   22.1722 C   0  0  0  0  0  0  0  0  0  0  0  0
  -24.2065  -13.1920   21.1100 C   0  0  0  0  0  0  0  0  0  0  0  0
  -23.1368  -28.1099   24.4040 C   0  0  0  0  0  0  0  0  0  0  0  0
  -28.3974  -25.0562   21.7255 C   0  0  0  0  0  0  0  0  0  0  0  0
  -24.3166  -27.3513   24.5259 C   0  0  0  0  0  0  0  0  0  0  0  0
  -28.8610  -23.8160   22.1871 C   0  0  0  0  0  0  0  0  0  0  0  0
  -31.9883  -18.6763   21.6191 C   0  0  0  0  0  0  0  0  0  0  0  0
  -22.9211   -8.7954   23.5783 C   0  0  0  0  0  0  0  0  0  0  0  0
  -30.9563  -24.8582   22.8454 C   0  0  0  0  0  0  0  0  0  0  0  0
  -21.6128   -8.1088   25.4057 C   0  0  0  0  0  0  0  0  0  0  0  0
  -20.1748   -8.7709   27.7027 C   0  0  0  0  0  0  0  0  0  0  0  0
  -21.9832   -7.5729   26.6391 C   0  0  0  0  0  0  0  0  0  0  0  0
  -24.7707  -11.9469   21.4465 C   0  0  0  0  0  0  0  0  0  0  0  0
  -31.9532  -18.3933   22.9552 C   0  0  0  0  0  0  0  0  0  0  0  0
  -25.2027  -13.8475   20.4285 C   0  0  0  0  0  0  0  0  0  0  0  0
  -32.4572  -20.7204   22.5602 C   0  0  0  0  0  0  0  0  0  0  0  0
  -22.8988  -13.7097   21.3886 C   0  0  0  0  0  0  0  0  0  0  0  0
  -25.5614  -24.2637   22.9226 C   0  0  0  0  0  0  0  0  0  0  0  0
  -30.9864  -14.3848   20.5135 C   0  0  0  0  0  0  0  0  0  0  0  0
  -25.9250  -21.6566   21.0271 C   0  0  0  0  0  0  0  0  0  0  0  0
  -28.0392  -19.5511   19.3705 C   0  0  0  0  0  0  0  0  0  0  0  0
  -32.9633  -23.0885   21.8668 C   0  0  0  0  0  0  0  0  0  0  0  0
  -21.7915  -27.4579   24.2042 C   0  0  0  0  0  0  0  0  0  0  0  0
  -27.0378  -25.1738   21.0929 C   0  0  0  0  0  0  0  0  0  0  0  0
  -28.0167  -22.5718   22.1008 C   0  0  0  0  0  0  0  0  0  0  0  0
  -31.7051  -17.4793   20.7980 C   0  0  0  0  0  0  0  0  0  0  0  0
  -31.6508  -16.9841   23.2584 C   0  0  0  0  0  0  0  0  0  0  0  0
  -21.8808  -26.0136   23.7181 C   0  0  0  0  0  0  0  0  0  0  0  0
  -29.2801  -12.4633   18.0162 C   0  0  0  0  0  0  0  0  0  0  0  0
  -22.9095  -25.2381   24.5350 C   0  0  0  0  0  0  0  0  0  0  0  0
  -27.8989  -12.2275   18.6262 C   0  0  0  0  0  0  0  0  0  0  0  0
  -30.3694  -12.4637   19.0841 C   0  0  0  0  0  0  0  0  0  0  0  0
  -28.7523  -13.2034   20.8044 C   0  0  0  0  0  0  0  0  0  0  0  0
  -24.3090  -25.8451   24.3792 C   0  0  1  0  0  0  0  0  0  0  0  0
  -26.0797  -24.0684   21.5259 C   0  0  1  0  0  0  0  0  0  0  0  0
  -27.6191  -13.2260   19.7634 C   0  0  2  0  0  0  0  0  0  0  0  0
  -28.0448  -17.4896   17.9396 C   0  0  0  0  0  0  0  0  0  0  0  0
  -34.5400  -24.3815   23.3654 C   0  0  0  0  0  0  0  0  0  0  0  0
  -33.3685  -25.5637   21.4689 C   0  0  0  0  0  0  0  0  0  0  0  0
  -25.4075  -19.9430   23.4981 C   0  0  0  0  0  0  0  0  0  0  0  0
  -26.3478  -17.9857   22.2519 C   0  0  0  0  0  0  0  0  0  0  0  0
  -24.2955  -19.1278   21.4116 C   0  0  0  0  0  0  0  0  0  0  0  0
  -29.2762  -20.9902   17.0994 C   0  0  0  0  0  0  0  0  0  0  0  0
  -30.5902  -15.3238   21.6250 C   0  0  0  0  0  0  0  0  0  0  0  0
  -26.5330  -20.2856   21.1998 C   0  0  1  0  0  0  0  0  0  0  0  0
  -28.0151  -19.0101   17.9524 C   0  0  2  0  0  0  0  0  0  0  0  0
  -33.2754  -24.4505   22.5116 C   0  0  0  0  0  0  0  0  0  1  0  0
  -25.6614  -19.3592   22.0939 C   0  0  0  0  0  0  0  0  0  0  0  0
  -26.0278  -11.8168   21.0142 N   0  0  0  0  0  0  0  0  0  0  0  0
  -26.2617  -12.9885   20.3991 N   0  0  0  0  0  0  0  0  0  0  0  0
  -26.6924  -22.7392   21.4798 N   0  0  0  0  0  0  0  0  0  0  0  0
  -30.0557  -13.4086   20.1574 N   0  0  0  0  0  0  0  0  0  0  0  0
  -25.2673  -15.0690   19.8575 N   0  0  0  0  0  0  0  0  0  0  0  0
  -21.9988  -12.9043   22.0996 N   0  0  0  0  0  0  0  0  0  0  0  0
  -32.7611  -22.0814   22.8043 N   0  0  0  0  0  0  0  0  0  0  0  0
  -24.8902  -25.4566   23.1120 N   0  0  0  0  0  0  0  0  0  0  0  0
  -26.7671  -19.7705   19.8551 N   0  0  0  0  0  0  0  0  0  0  0  0
  -31.6737  -16.3258   21.8508 N   0  3  1  0  0  0  0  0  0  0  0  0
  -29.1925  -19.5096   17.1874 N   0  3  0  0  0  0  0  0  0  0  0  0
  -22.5335  -14.8464   21.0036 O   0  0  0  0  0  0  0  0  0  0  0  0
  -25.7549  -23.3957   23.7657 O   0  0  0  0  0  0  0  0  0  0  0  0
  -32.0893  -14.5185   19.9769 O   0  0  0  0  0  0  0  0  0  0  0  0
  -24.8134  -21.7635   20.5031 O   0  0  0  0  0  0  0  0  0  0  0  0
  -29.0821  -19.7550   19.9881 O   0  0  0  0  0  0  0  0  0  0  0  0
  -32.9135  -22.9698   20.6442 O   0  0  0  0  0  0  0  0  0  0  0  0
  -22.3262   -7.7818   24.2647 O   0  0  0  0  0  0  0  0  0  0  0  0
  -32.1976  -24.7592   23.3944 O   0  0  0  0  0  0  0  0  0  1  0  0
  -19.4851   -9.0901   28.8057 F   0  0  0  0  0  0  0  0  0  0  0  0
  -23.0296   -6.7403   26.7271 F   0  0  0  0  0  0  0  0  0  0  0  0
  -32.2608  -19.7032   23.9467 S   0  0  0  0  0  0  0  0  0  0  0  0
  1  2  1  0  0  0  0
  1  5  2  0  0  0  0
  2  6  2  0  0  0  0
  3  8  2  0  0  0  0
  3 16  1  0  0  0  0
  4  9  1  0  0  0  0
  4 16  2  0  0  0  0
  5 18  1  0  0  0  0
  6 20  1  0  0  0  0
  7 10  2  0  0  0  0
  7 19  1  0  0  0  0
  8 23  1  0  0  0  0
  9 23  2  0  0  0  0
 10 24  1  0  0  0  0
 11 12  2  0  0  0  0
 11 25  1  0  0  0  0
 12 26  1  0  0  0  0
 13 21  1  0  0  0  0
 13 24  2  0  0  0  0
 14 22  1  0  0  0  0
 14 31  2  0  0  0  0
 15 26  2  0  0  0  0
 15 27  1  0  0  0  0
 16 28  1  0  0  0  0
 17 28  1  0  0  0  0
 17 30  2  0  0  0  0
 17 32  1  0  0  0  0
 18 20  2  0  0  0  0
 18 38  1  0  0  0  0
 19 21  2  0  0  0  0
 19 39  1  0  0  0  0
 20 49  1  0  0  0  0
 21 40  1  0  0  0  0
 22 29  2  0  0  0  0
 22 41  1  0  0  0  0
 23 81  1  0  0  0  0
 24 82  1  0  0  0  0
 25 27  2  0  0  0  0
 25 81  1  0  0  0  0
 26 83  1  0  0  0  0
 27 84  1  0  0  0  0
 28 64  2  0  0  0  0
 29 42  1  0  0  0  0
 29 85  1  0  0  0  0
 30 65  1  0  0  0  0
 30 68  1  0  0  0  0
 31 70  1  0  0  0  0
 31 85  1  0  0  0  0
 32 69  1  0  0  0  0
 32 75  2  0  0  0  0
 33 50  1  0  0  0  0
 33 71  1  0  0  0  0
 33 76  2  0  0  0  0
 34 59  1  0  0  0  0
 34 67  1  0  0  0  0
 34 77  2  0  0  0  0
 35 60  1  0  0  0  0
 35 66  1  0  0  0  0
 35 78  2  0  0  0  0
 36 61  1  0  0  0  0
 36 72  1  0  0  0  0
 36 79  2  0  0  0  0
 37 62  1  0  0  0  0
 37 70  1  0  0  0  0
 37 80  2  0  0  0  0
 38 43  1  0  0  0  0
 39 50  1  0  0  0  0
 40 66  1  0  0  0  0
 41 73  1  0  0  0  0
 42 73  1  0  0  0  0
 43 45  1  0  0  0  0
 44 46  1  0  0  0  0
 44 47  1  0  0  0  0
 45 49  1  0  0  0  0
 46 51  1  0  0  0  0
 47 67  1  0  0  0  0
 48 51  1  0  0  0  0
 48 67  1  0  0  0  0
 49 71  1  0  0  0  0
 50 66  1  0  0  0  0
 51 65  1  0  0  0  0
 52 61  1  0  0  0  0
 53 62  1  0  0  0  0
 54 62  1  0  0  0  0
 55 63  1  0  0  0  0
 56 63  1  0  0  0  0
 57 63  1  0  0  0  0
 58 74  1  0  0  0  0
 59 73  1  0  0  0  0
 60 63  1  0  0  0  0
 60 72  1  0  0  0  0
 61 74  1  0  0  0  0
 62 82  1  0  0  0  0
 64 65  1  0  0  0  0
M  CHG  2  73   1  74   1
M  ISO  4  34 100  59 100  62 101  82 101
M  END
> <Batch ID>
0145

> <Smiles>
CNC(C)C(=O)NC(C(=O)N1Cc2cc([101O:1][101C:1](C)(C)C(=O)Nc3cc4c(s3)CN([100CH2:0][100C:0](=O)N3CCCC(n5nc(-c6ccc(Oc7ccc(F)cc7F)cc6)c(C(N)=O)c5N)C3)C4)ccc2CC1C(=O)NC1CCCc2ccccc21)C(C)(C)C

> <Shape>
0.187

> <Color>
0.144

> <Negative vol penalty>
0.000

$$$$

  -OEChem-04052303073D

 89 97  0     1  0  0  0  0  0999 V2000
  -23.9239  -31.4981   19.6216 C   0  0  0  0  0  0  0  0  0  0  0  0
  -25.0795  -30.7236   19.6155 C   0  0  0  0  0  0  0  0  0  0  0  0
  -29.7672  -19.2659   22.1689 C   0  0  0  0  0  0  0  0  0  0  0  0
  -23.0703   -9.8569   20.0032 C   0  0  0  0  0  0  0  0  0  0  0  0
  -23.8455   -9.9135   22.2907 C   0  0  0  0  0  0  0  0  0  0  0  0
  -30.6654  -19.8360   21.2669 C   0  0  0  0  0  0  0  0  0  0  0  0
  -23.3214  -31.8397   20.8316 C   0  0  0  0  0  0  0  0  0  0  0  0
  -25.6340  -30.2911   20.8196 C   0  0  0  0  0  0  0  0  0  0  0  0
  -27.0006  -25.4166   20.6893 C   0  0  0  0  0  0  0  0  0  0  0  0
  -29.5890  -17.8827   22.1957 C   0  0  0  0  0  0  0  0  0  0  0  0
  -22.3197   -8.7158   20.2858 C   0  0  0  0  0  0  0  0  0  0  0  0
  -23.0948   -8.7724   22.5734 C   0  0  0  0  0  0  0  0  0  0  0  0
  -28.1933  -25.1070   20.0372 C   0  0  0  0  0  0  0  0  0  0  0  0
  -21.0987   -6.0834   23.9887 C   0  0  0  0  0  0  0  0  0  0  0  0
  -20.3500   -6.0738   25.1655 C   0  0  0  0  0  0  0  0  0  0  0  0
  -31.2071  -17.6398   20.4181 C   0  0  0  0  0  0  0  0  0  0  0  0
  -29.3186  -24.9827   22.1673 C   0  0  0  0  0  0  0  0  0  0  0  0
  -19.1149   -8.0022   24.3954 C   0  0  0  0  0  0  0  0  0  0  0  0
  -23.8333  -10.4558   21.0056 C   0  0  0  0  0  0  0  0  0  0  0  0
  -31.3853  -19.0230   20.3915 C   0  0  0  0  0  0  0  0  0  0  0  0
  -24.1930  -12.9747   20.8224 C   0  0  0  0  0  0  0  0  0  0  0  0
  -23.8633  -31.4031   22.0508 C   0  0  0  0  0  0  0  0  0  0  0  0
  -26.9602  -25.5225   22.0870 C   0  0  0  0  0  0  0  0  0  0  0  0
  -25.0389  -30.6283   22.0472 C   0  0  0  0  0  0  0  0  0  0  0  0
  -28.1235  -25.2913   22.8349 C   0  0  0  0  0  0  0  0  0  0  0  0
  -30.3089  -17.0697   21.3203 C   0  0  0  0  0  0  0  0  0  0  0  0
  -22.3319   -8.1735   21.5709 C   0  0  0  0  0  0  0  0  0  0  0  0
  -29.3532  -24.8928   20.7760 C   0  0  0  0  0  0  0  0  0  0  0  0
  -20.8556   -7.0524   23.0152 C   0  0  0  0  0  0  0  0  0  0  0  0
  -19.3581   -7.0332   25.3688 C   0  0  0  0  0  0  0  0  0  0  0  0
  -19.8637   -8.0118   23.2186 C   0  0  0  0  0  0  0  0  0  0  0  0
  -24.6094  -11.6343   20.7142 C   0  0  0  0  0  0  0  0  0  0  0  0
  -25.2882  -13.7069   20.4340 C   0  0  0  0  0  0  0  0  0  0  0  0
  -32.3352  -19.6276   19.4377 C   0  0  0  0  0  0  0  0  0  0  0  0
  -22.9291  -13.5100   21.2369 C   0  0  0  0  0  0  0  0  0  0  0  0
  -26.2926  -27.8543   24.1415 C   0  0  0  0  0  0  0  0  0  0  0  0
  -26.5848  -25.4791   26.3314 C   0  0  0  0  0  0  0  0  0  0  0  0
  -27.8869  -22.4307   27.1429 C   0  0  0  0  0  0  0  0  0  0  0  0
  -30.7630  -14.7152   20.5478 C   0  0  0  0  0  0  0  0  0  0  0  0
  -23.2033  -31.8373   23.3355 C   0  0  0  0  0  0  0  0  0  0  0  0
  -25.6598  -25.8310   22.7770 C   0  0  0  0  0  0  0  0  0  0  0  0
  -28.1288  -25.3731   24.3388 C   0  0  0  0  0  0  0  0  0  0  0  0
  -23.6429  -31.0250   24.5509 C   0  0  0  0  0  0  0  0  0  0  0  0
  -29.6150  -12.2534   18.2459 C   0  0  0  0  0  0  0  0  0  0  0  0
  -25.1607  -30.8736   24.5712 C   0  0  0  0  0  0  0  0  0  0  0  0
  -28.1761  -11.9831   18.6917 C   0  0  0  0  0  0  0  0  0  0  0  0
  -30.5398  -12.5042   19.4357 C   0  0  0  0  0  0  0  0  0  0  0  0
  -28.6475  -13.2762   20.8114 C   0  0  0  0  0  0  0  0  0  0  0  0
  -25.6565  -30.1193   23.3316 C   0  0  1  0  0  0  0  0  0  0  0  0
  -25.8484  -26.4192   24.1719 C   0  0  1  0  0  0  0  0  0  0  0  0
  -27.6655  -13.0819   19.6445 C   0  0  2  0  0  0  0  0  0  0  0  0
  -33.6499  -19.8342   16.6642 C   0  0  0  0  0  0  0  0  0  0  0  0
  -34.0875  -24.8377   19.6476 C   0  0  0  0  0  0  0  0  0  0  0  0
  -27.9827  -20.7655   29.0178 C   0  0  0  0  0  0  0  0  0  0  0  0
  -30.7408  -20.0568   17.4861 C   0  0  0  0  0  0  0  0  0  0  0  0
  -28.5963  -27.2461   27.7948 C   0  0  0  0  0  0  0  0  0  0  0  0
  -29.3442  -25.2226   29.0654 C   0  0  0  0  0  0  0  0  0  0  0  0
  -26.9953  -26.0333   29.2848 C   0  0  0  0  0  0  0  0  0  0  0  0
  -33.2704  -22.0919   20.8239 C   0  0  0  0  0  0  0  0  0  0  0  0
  -26.5808  -20.3390   25.5065 C   0  0  0  0  0  0  0  0  0  0  0  0
  -33.0393  -20.9995   17.4364 C   0  0  0  0  0  0  0  0  0  0  0  0
  -33.1827  -23.8192   18.9602 C   0  0  0  0  0  0  0  0  0  0  0  0
  -31.3753  -21.9760   19.0878 C   0  0  0  0  0  0  0  0  0  0  0  0
  -31.4507  -23.7742   20.8486 C   0  0  0  0  0  0  0  0  0  1  0  0
  -27.7223  -24.9061   27.1417 C   0  0  1  0  0  0  0  0  0  0  0  0
  -27.2523  -21.1949   27.7549 C   0  0  2  0  0  0  0  0  0  0  0  0
  -31.8408  -20.6510   18.3821 C   0  0  2  0  0  0  0  0  0  0  0  0
  -28.1652  -25.8523   28.2932 C   0  0  0  0  0  0  0  0  0  0  0  0
  -32.3450  -22.9148   19.9006 C   0  0  1  0  0  0  0  0  0  0  0  0
  -25.8707  -11.5188   20.2901 N   0  0  0  0  0  0  0  0  0  0  0  0
  -26.2562  -12.7961   20.1283 N   0  0  0  0  0  0  0  0  0  0  0  0
  -26.8340  -25.6839   24.9669 N   0  0  0  0  0  0  0  0  0  0  0  0
  -29.9943  -13.5601   20.2915 N   0  0  0  0  0  0  0  0  0  0  0  0
  -25.5079  -15.0346   20.3274 N   0  0  0  0  0  0  0  0  0  0  0  0
  -21.9128  -12.6169   21.6027 N   0  0  0  0  0  0  0  0  0  0  0  0
  -30.1279  -15.6646   21.3478 N   0  0  0  0  0  0  0  0  0  0  0  0
  -25.4231  -28.6985   23.4776 N   0  0  0  0  0  0  0  0  0  0  0  0
  -27.2830  -23.5881   27.5869 N   0  0  0  0  0  0  0  0  0  0  0  0
  -27.2833  -20.0630   26.7861 N   0  3  0  0  0  0  0  0  0  0  0  0
  -33.4999  -19.2401   19.5132 O   0  0  0  0  0  0  0  0  0  0  0  0
  -22.7024  -14.7434   21.2660 O   0  0  0  0  0  0  0  0  0  0  0  0
  -27.3456  -28.1724   24.6817 O   0  0  0  0  0  0  0  0  0  0  0  0
  -25.5123  -25.7290   26.8871 O   0  0  0  0  0  0  0  0  0  0  0  0
  -28.8270  -22.3752   26.3532 O   0  0  0  0  0  0  0  0  0  0  0  0
  -31.8901  -14.8641   20.0689 O   0  0  0  0  0  0  0  0  0  0  0  0
  -21.5993   -7.0602   21.8471 O   0  0  0  0  0  0  0  0  0  0  0  0
  -30.5270  -24.5890   20.1376 O   0  0  0  0  0  0  0  0  0  1  0  0
  -18.6381   -7.0229   26.4983 F   0  0  0  0  0  0  0  0  0  0  0  0
  -19.6248   -8.9445   22.2865 F   0  0  0  0  0  0  0  0  0  0  0  0
  1  2  1  0  0  0  0
  1  7  2  0  0  0  0
  2  8  2  0  0  0  0
  3  6  2  0  0  0  0
  3 10  1  0  0  0  0
  4 11  2  0  0  0  0
  4 19  1  0  0  0  0
  5 12  1  0  0  0  0
  5 19  2  0  0  0  0
  6 20  1  0  0  0  0
  7 22  1  0  0  0  0
  8 24  1  0  0  0  0
  9 13  2  0  0  0  0
  9 23  1  0  0  0  0
 10 26  2  0  0  0  0
 11 27  1  0  0  0  0
 12 27  2  0  0  0  0
 13 28  1  0  0  0  0
 14 15  2  0  0  0  0
 14 29  1  0  0  0  0
 15 30  1  0  0  0  0
 16 20  2  0  0  0  0
 16 26  1  0  0  0  0
 17 25  1  0  0  0  0
 17 28  2  0  0  0  0
 18 30  2  0  0  0  0
 18 31  1  0  0  0  0
 19 32  1  0  0  0  0
 20 34  1  0  0  0  0
 21 32  1  0  0  0  0
 21 33  2  0  0  0  0
 21 35  1  0  0  0  0
 22 24  2  0  0  0  0
 22 40  1  0  0  0  0
 23 25  2  0  0  0  0
 23 41  1  0  0  0  0
 24 49  1  0  0  0  0
 25 42  1  0  0  0  0
 26 76  1  0  0  0  0
 27 86  1  0  0  0  0
 28 87  1  0  0  0  0
 29 31  2  0  0  0  0
 29 86  1  0  0  0  0
 30 88  1  0  0  0  0
 31 89  1  0  0  0  0
 32 70  2  0  0  0  0
 33 71  1  0  0  0  0
 33 74  1  0  0  0  0
 34 67  1  0  0  0  0
 34 80  2  0  0  0  0
 35 75  1  0  0  0  0
 35 81  2  0  0  0  0
 36 50  1  0  0  0  0
 36 77  1  0  0  0  0
 36 82  2  0  0  0  0
 37 65  1  0  0  0  0
 37 72  1  0  0  0  0
 37 83  2  0  0  0  0
 38 66  1  0  0  0  0
 38 78  1  0  0  0  0
 38 84  2  0  0  0  0
 39 73  1  0  0  0  0
 39 76  1  0  0  0  0
 39 85  2  0  0  0  0
 40 43  1  0  0  0  0
 41 50  1  0  0  0  0
 42 72  1  0  0  0  0
 43 45  1  0  0  0  0
 44 46  1  0  0  0  0
 44 47  1  0  0  0  0
 45 49  1  0  0  0  0
 46 51  1  0  0  0  0
 47 73  1  0  0  0  0
 48 51  1  0  0  0  0
 48 73  1  0  0  0  0
 49 77  1  0  0  0  0
 50 72  1  0  0  0  0
 51 71  1  0  0  0  0
 52 61  1  0  0  0  0
 53 62  1  0  0  0  0
 54 66  1  0  0  0  0
 55 67  1  0  0  0  0
 56 68  1  0  0  0  0
 57 68  1  0  0  0  0
 58 68  1  0  0  0  0
 59 69  1  0  0  0  0
 60 79  1  0  0  0  0
 61 67  1  0  0  0  0
 62 69  1  0  0  0  0
 63 67  1  0  0  0  0
 63 69  1  0  0  0  0
 64 69  1  0  0  0  0
 64 87  1  0  0  0  0
 65 68  1  0  0  0  0
 65 78  1  0  0  0  0
 66 79  1  0  0  0  0
 70 71  1  0  0  0  0
M  CHG  1  79   1
M  ISO  4  39 100  64 101  76 100  87 101
M  END
> <Batch ID>
0145

> <Smiles>
CCC(C)(CC(C)(CC)[101CH2:1][101O:1]c1ccc2c(c1)CN(C(=O)C(NC(=O)C(C)NC)C(C)(C)C)C(C(=O)NC1CCCc3ccccc31)C2)C(=O)c1cccc([100NH:0][100C:0](=O)N2CCCC(n3nc(-c4ccc(Oc5ccc(F)cc5F)cc4)c(C(N)=O)c3N)C2)c1

> <Shape>
0.245

> <Color>
0.192

> <Negative vol penalty>
0.000

$$$$

  -OEChem-04052303073D

 86 95  0     1  0  0  0  0  0999 V2000
  -20.9308  -25.8539   25.8601 C   0  0  0  0  0  0  0  0  0  0  0  0
  -21.8890  -25.5977   24.8846 C   0  0  0  0  0  0  0  0  0  0  0  0
  -23.5788   -9.7302   20.2575 C   0  0  0  0  0  0  0  0  0  0  0  0
  -23.0837  -11.3935   21.9383 C   0  0  0  0  0  0  0  0  0  0  0  0
  -19.8221  -26.6428   25.5563 C   0  0  0  0  0  0  0  0  0  0  0  0
  -21.7385  -26.1294   23.6044 C   0  0  0  0  0  0  0  0  0  0  0  0
  -26.0346  -28.1224   21.8109 C   0  0  0  0  0  0  0  0  0  0  0  0
  -22.5278   -8.9426   20.7272 C   0  0  0  0  0  0  0  0  0  0  0  0
  -22.0326  -10.6060   22.4080 C   0  0  0  0  0  0  0  0  0  0  0  0
  -26.9926  -27.2352   21.3220 C   0  0  0  0  0  0  0  0  0  0  0  0
  -21.9598   -6.8238   23.2987 C   0  0  0  0  0  0  0  0  0  0  0  0
  -22.1972   -5.4593   23.4642 C   0  0  0  0  0  0  0  0  0  0  0  0
  -26.2688  -27.7045   19.0693 C   0  0  0  0  0  0  0  0  0  0  0  0
  -30.7098  -19.1548   20.2783 C   0  0  0  0  0  0  0  0  0  0  0  0
  -20.4406   -4.9618   21.8818 C   0  0  0  0  0  0  0  0  0  0  0  0
  -23.8568  -10.9556   20.8630 C   0  0  0  0  0  0  0  0  0  0  0  0
  -25.0920  -12.3058   19.0856 C   0  0  0  0  0  0  0  0  0  0  0  0
  -19.6628  -27.1924   24.2744 C   0  0  0  0  0  0  0  0  0  0  0  0
  -25.1778  -28.8002   20.9318 C   0  0  0  0  0  0  0  0  0  0  0  0
  -20.6259  -26.9253   23.2827 C   0  0  0  0  0  0  0  0  0  0  0  0
  -25.3025  -28.6017   19.5494 C   0  0  0  0  0  0  0  0  0  0  0  0
  -30.7649  -20.2846   19.4117 C   0  0  0  0  0  0  0  0  0  0  0  0
  -21.7547   -9.3805   21.8025 C   0  0  0  0  0  0  0  0  0  0  0  0
  -27.1079  -27.0240   19.9512 C   0  0  0  0  0  0  0  0  0  0  0  0
  -20.9628   -7.2573   22.4248 C   0  0  0  0  0  0  0  0  0  0  0  0
  -21.4376   -4.5283   22.7557 C   0  0  0  0  0  0  0  0  0  0  0  0
  -20.2032   -6.3263   21.7163 C   0  0  0  0  0  0  0  0  0  0  0  0
  -24.9428  -11.7694   20.3786 C   0  0  0  0  0  0  0  0  0  0  0  0
  -26.2789  -12.9951   19.1347 C   0  0  0  0  0  0  0  0  0  0  0  0
  -29.6976  -20.3218   18.5417 C   0  0  0  0  0  0  0  0  0  0  0  0
  -29.6023  -18.3717   20.0375 C   0  0  0  0  0  0  0  0  0  0  0  0
  -24.2343  -12.1912   17.9424 C   0  0  0  0  0  0  0  0  0  0  0  0
  -28.3822  -24.1140   18.2227 C   0  0  0  0  0  0  0  0  0  0  0  0
  -22.0327  -28.8759   20.4776 C   0  0  0  0  0  0  0  0  0  0  0  0
  -22.7849  -31.2324   18.3792 C   0  0  0  0  0  0  0  0  0  0  0  0
  -25.3305  -31.8313   15.8935 C   0  0  0  0  0  0  0  0  0  0  0  0
  -29.7836  -16.4831   21.6949 C   0  0  0  0  0  0  0  0  0  0  0  0
  -18.4236  -27.9999   23.9797 C   0  0  0  0  0  0  0  0  0  0  0  0
  -24.1675  -29.7740   21.4735 C   0  0  0  0  0  0  0  0  0  0  0  0
  -24.4204  -29.3201   18.5623 C   0  0  0  0  0  0  0  0  0  0  0  0
  -18.5292  -28.8347   22.7060 C   0  0  0  0  0  0  0  0  0  0  0  0
  -30.5300  -23.0051   16.2287 C   0  0  0  0  0  0  0  0  0  0  0  0
  -29.9074  -13.0592   22.6635 C   0  0  0  0  0  0  0  0  0  0  0  0
  -19.0951  -27.9968   21.5639 C   0  0  0  0  0  0  0  0  0  0  0  0
  -29.1649  -23.6174   15.9200 C   0  0  0  0  0  0  0  0  0  0  0  0
  -28.6391  -12.4625   22.0490 C   0  0  0  0  0  0  0  0  0  0  0  0
  -30.4126  -21.5100   16.5010 C   0  0  0  0  0  0  0  0  0  0  0  0
  -29.6781  -14.4834   23.1662 C   0  0  0  0  0  0  0  0  0  0  0  0
  -28.0948  -21.7936   17.3482 C   0  0  0  0  0  0  0  0  0  0  0  0
  -27.8354  -14.8089   21.5639 C   0  0  0  0  0  0  0  0  0  0  0  0
  -20.5105  -27.5046   21.8895 C   0  0  1  0  0  0  0  0  0  0  0  0
  -28.1294  -23.2850   16.9954 C   0  0  1  0  0  0  0  0  0  0  0  0
  -23.0042  -30.0214   20.5181 C   0  0  1  0  0  0  0  0  0  0  0  0
  -28.0343  -13.3988   20.9845 C   0  0  2  0  0  0  0  0  0  0  0  0
  -31.8529  -21.2921   19.4568 C   0  0  0  0  0  0  0  0  0  0  0  0
  -26.2699  -33.9823   15.0057 C   0  0  0  0  0  0  0  0  0  0  0  0
  -20.6853  -30.9086   16.1891 C   0  0  0  0  0  0  0  0  0  0  0  0
  -22.3611  -31.7866   14.5493 C   0  0  0  0  0  0  0  0  0  0  0  0
  -21.5888  -33.2277   16.4333 C   0  0  0  0  0  0  0  0  0  0  0  0
  -28.1002  -31.0343   16.5663 C   0  0  0  0  0  0  0  0  0  0  0  0
  -27.7352  -25.4823   18.2525 C   0  0  0  0  0  0  0  0  0  1  0  0
  -23.1351  -31.2855   16.9117 C   0  0  1  0  0  0  0  0  0  0  0  0
  -26.4684  -32.8324   15.9809 C   0  0  2  0  0  0  0  0  0  0  0  0
  -21.9485  -31.7792   16.0367 C   0  0  0  0  0  0  0  0  0  0  0  0
  -25.9542  -12.0903   21.1898 N   0  0  0  0  0  0  0  0  0  0  0  0
  -26.7503  -12.8356   20.4046 N   0  0  0  0  0  0  0  0  0  0  0  0
  -29.4481  -21.2742   17.5796 N   0  0  1  0  0  0  0  0  0  0  0  0
  -23.4438  -30.2573   19.1414 N   0  0  0  0  0  0  0  0  0  0  0  0
  -29.1079  -15.3136   22.1030 N   0  0  0  0  0  0  0  0  0  0  0  0
  -26.9550  -13.7160   18.2151 N   0  0  0  0  0  0  0  0  0  0  0  0
  -23.0535  -11.4462   18.0650 N   0  0  0  0  0  0  0  0  0  0  0  0
  -29.1634  -17.1738   20.6542 N   0  0  0  0  0  0  0  0  0  0  0  0
  -21.4716  -28.5704   21.7029 N   0  0  0  0  0  0  0  0  0  0  0  0
  -24.3362  -32.1071   16.8082 N   0  0  0  0  0  0  0  0  0  0  0  0
  -27.7663  -32.1699   15.6686 N   0  3  0  0  0  0  0  0  0  0  0  0
  -24.5150  -12.7197   16.8400 O   0  0  0  0  0  0  0  0  0  0  0  0
  -29.0784  -23.6937   19.1456 O   0  0  0  0  0  0  0  0  0  0  0  0
  -21.8076  -28.3119   19.4132 O   0  0  0  0  0  0  0  0  0  0  0  0
  -21.9625  -32.0315   18.8339 O   0  0  0  0  0  0  0  0  0  0  0  0
  -25.3227  -30.9001   15.0914 O   0  0  0  0  0  0  0  0  0  0  0  0
  -30.8490  -16.8306   22.2107 O   0  0  0  0  0  0  0  0  0  0  0  0
  -20.7289   -8.6124   22.2610 O   0  0  0  0  0  0  0  0  0  0  0  0
  -28.0416  -26.1581   19.4714 O   0  0  0  0  0  0  0  0  0  1  0  0
  -21.6666   -3.2180   22.9136 F   0  0  0  0  0  0  0  0  0  0  0  0
  -19.2448   -6.7368   20.8744 F   0  0  0  0  0  0  0  0  0  0  0  0
  -28.6351  -18.9986   18.7712 S   0  0  0  0  0  0  0  0  0  0  0  0
  1  2  1  0  0  0  0
  1  5  2  0  0  0  0
  2  6  2  0  0  0  0
  3  8  2  0  0  0  0
  3 16  1  0  0  0  0
  4  9  1  0  0  0  0
  4 16  2  0  0  0  0
  5 18  1  0  0  0  0
  6 20  1  0  0  0  0
  7 10  2  0  0  0  0
  7 19  1  0  0  0  0
  8 23  1  0  0  0  0
  9 23  2  0  0  0  0
 10 24  1  0  0  0  0
 11 12  2  0  0  0  0
 11 25  1  0  0  0  0
 12 26  1  0  0  0  0
 13 21  1  0  0  0  0
 13 24  2  0  0  0  0
 14 22  1  0  0  0  0
 14 31  2  0  0  0  0
 15 26  2  0  0  0  0
 15 27  1  0  0  0  0
 16 28  1  0  0  0  0
 17 28  1  0  0  0  0
 17 29  2  0  0  0  0
 17 32  1  0  0  0  0
 18 20  2  0  0  0  0
 18 38  1  0  0  0  0
 19 21  2  0  0  0  0
 19 39  1  0  0  0  0
 20 51  1  0  0  0  0
 21 40  1  0  0  0  0
 22 30  2  0  0  0  0
 22 55  1  0  0  0  0
 23 82  1  0  0  0  0
 24 83  1  0  0  0  0
 25 27  2  0  0  0  0
 25 82  1  0  0  0  0
 26 84  1  0  0  0  0
 27 85  1  0  0  0  0
 28 65  2  0  0  0  0
 29 66  1  0  0  0  0
 29 70  1  0  0  0  0
 30 67  1  0  0  0  0
 30 86  1  0  0  0  0
 31 72  1  0  0  0  0
 31 86  1  0  0  0  0
 32 71  1  0  0  0  0
 32 76  2  0  0  0  0
 33 52  1  0  0  0  0
 33 61  1  0  0  0  0
 33 77  2  0  0  0  0
 34 53  1  0  0  0  0
 34 73  1  0  0  0  0
 34 78  2  0  0  0  0
 35 62  1  0  0  0  0
 35 68  1  0  0  0  0
 35 79  2  0  0  0  0
 36 63  1  0  0  0  0
 36 74  1  0  0  0  0
 36 80  2  0  0  0  0
 37 69  1  0  0  0  0
 37 72  1  0  0  0  0
 37 81  2  0  0  0  0
 38 41  1  0  0  0  0
 39 53  1  0  0  0  0
 40 68  1  0  0  0  0
 41 44  1  0  0  0  0
 42 45  1  0  0  0  0
 42 47  1  0  0  0  0
 43 46  1  0  0  0  0
 43 48  1  0  0  0  0
 44 51  1  0  0  0  0
 45 52  1  0  0  0  0
 46 54  1  0  0  0  0
 47 67  1  0  0  0  0
 48 69  1  0  0  0  0
 49 52  1  0  0  0  0
 49 67  1  0  0  0  0
 50 54  1  0  0  0  0
 50 69  1  0  0  0  0
 51 73  1  0  0  0  0
 53 68  1  0  0  0  0
 54 66  1  0  0  0  0
 56 63  1  0  0  0  0
 57 64  1  0  0  0  0
 58 64  1  0  0  0  0
 59 64  1  0  0  0  0
 60 75  1  0  0  0  0
 61 83  1  0  0  0  0
 62 64  1  0  0  0  0
 62 74  1  0  0  0  0
 63 75  1  0  0  0  0
 65 66  1  0  0  0  0
M  CHG  1  75   1
M  ISO  4  37 100  61 101  72 100  83 101
M  END
> <Batch ID>
0145

> <Smiles>
CNC(C)C(=O)NC(C(=O)N1Cc2cc([101O:1][101CH2:1]C(=O)C3CCCN(c4sc([100NH:0][100C:0](=O)N5CCCC(n6nc(-c7ccc(Oc8ccc(F)cc8F)cc7)c(C(N)=O)c6N)C5)cc4C)C3)ccc2CC1C(=O)NC1CCCc2ccccc21)C(C)(C)C

> <Shape>
0.260

> <Color>
0.095

> <Negative vol penalty>
0.000

$$$$

  -OEChem-04052303073D

 85 94  0     1  0  0  0  0  0999 V2000
  -18.6705  -25.4177   20.4901 C   0  0  0  0  0  0  0  0  0  0  0  0
  -20.0238  -25.2260   20.7491 C   0  0  0  0  0  0  0  0  0  0  0  0
  -23.2850   -9.6303   20.3664 C   0  0  0  0  0  0  0  0  0  0  0  0
  -23.8675  -10.1276   22.6578 C   0  0  0  0  0  0  0  0  0  0  0  0
  -18.1756  -26.7059   20.2914 C   0  0  0  0  0  0  0  0  0  0  0  0
  -20.8833  -26.3224   20.8087 C   0  0  0  0  0  0  0  0  0  0  0  0
  -24.0535  -26.0939   24.7511 C   0  0  0  0  0  0  0  0  0  0  0  0
  -22.6026   -8.4890   20.7875 C   0  0  0  0  0  0  0  0  0  0  0  0
  -23.1851   -8.9863   23.0789 C   0  0  0  0  0  0  0  0  0  0  0  0
  -25.1544  -25.2464   24.6346 C   0  0  0  0  0  0  0  0  0  0  0  0
  -19.9808   -8.0614   23.6243 C   0  0  0  0  0  0  0  0  0  0  0  0
  -19.1420   -8.1816   24.7323 C   0  0  0  0  0  0  0  0  0  0  0  0
  -26.5481  -27.1405   24.0969 C   0  0  0  0  0  0  0  0  0  0  0  0
  -31.3185  -18.1785   21.1524 C   0  0  0  0  0  0  0  0  0  0  0  0
  -20.4502   -6.5216   25.9028 C   0  0  0  0  0  0  0  0  0  0  0  0
  -23.9175  -10.4496   21.3015 C   0  0  0  0  0  0  0  0  0  0  0  0
  -24.0990  -12.9265   20.7187 C   0  0  0  0  0  0  0  0  0  0  0  0
  -19.0277  -27.8195   20.3581 C   0  0  0  0  0  0  0  0  0  0  0  0
  -24.1897  -27.4720   24.5303 C   0  0  0  0  0  0  0  0  0  0  0  0
  -20.3996  -27.6266   20.6094 C   0  0  0  0  0  0  0  0  0  0  0  0
  -25.4479  -28.0037   24.2137 C   0  0  0  0  0  0  0  0  0  0  0  0
  -31.2728  -19.5429   21.5604 C   0  0  0  0  0  0  0  0  0  0  0  0
  -22.5526   -8.1670   22.1438 C   0  0  0  0  0  0  0  0  0  0  0  0
  -26.4013  -25.7692   24.3046 C   0  0  0  0  0  0  0  0  0  0  0  0
  -21.0543   -7.1712   23.6556 C   0  0  0  0  0  0  0  0  0  0  0  0
  -19.3767   -7.4117   25.8715 C   0  0  0  0  0  0  0  0  0  0  0  0
  -21.2890   -6.4014   24.7949 C   0  0  0  0  0  0  0  0  0  0  0  0
  -24.6231  -11.6284   20.8670 C   0  0  0  0  0  0  0  0  0  0  0  0
  -25.1633  -13.6791   20.2857 C   0  0  0  0  0  0  0  0  0  0  0  0
  -30.0583  -19.8757   22.1187 C   0  0  0  0  0  0  0  0  0  0  0  0
  -30.1370  -17.5204   21.4146 C   0  0  0  0  0  0  0  0  0  0  0  0
  -22.7691  -13.4090   20.9516 C   0  0  0  0  0  0  0  0  0  0  0  0
  -22.9672  -29.5421   22.4509 C   0  0  0  0  0  0  0  0  0  0  0  0
  -24.5212  -31.7136   24.2927 C   0  0  0  0  0  0  0  0  0  0  0  0
  -27.0453  -32.3676   26.4945 C   0  0  0  0  0  0  0  0  0  0  0  0
  -30.5192  -15.1703   20.5914 C   0  0  0  0  0  0  0  0  0  0  0  0
  -18.4552  -29.1888   20.0898 C   0  0  0  0  0  0  0  0  0  0  0  0
  -22.9979  -28.3763   24.6861 C   0  0  0  0  0  0  0  0  0  0  0  0
  -25.6512  -29.4787   23.9866 C   0  0  0  0  0  0  0  0  0  0  0  0
  -19.3652  -30.3285   20.5406 C   0  0  0  0  0  0  0  0  0  0  0  0
  -29.7494  -12.2746   18.6681 C   0  0  0  0  0  0  0  0  0  0  0  0
  -20.7995  -30.0784   20.0854 C   0  0  0  0  0  0  0  0  0  0  0  0
  -28.3039  -11.9551   19.0565 C   0  0  0  0  0  0  0  0  0  0  0  0
  -29.7121  -23.1169   23.8453 C   0  0  0  0  0  0  0  0  0  0  0  0
  -30.5540  -12.7966   19.8572 C   0  0  0  0  0  0  0  0  0  0  0  0
  -30.6158  -22.0631   23.2060 C   0  0  0  0  0  0  0  0  0  0  0  0
  -28.5044  -13.6131   20.9534 C   0  0  0  0  0  0  0  0  0  0  0  0
  -28.3056  -21.5965   22.6398 C   0  0  0  0  0  0  0  0  0  0  0  0
  -21.3591  -28.7928   20.7064 C   0  0  1  0  0  0  0  0  0  0  0  0
  -23.1467  -29.6957   23.9348 C   0  0  1  0  0  0  0  0  0  0  0  0
  -27.6368  -13.1453   19.7734 C   0  0  2  0  0  0  0  0  0  0  0  0
  -28.4394  -23.0936   22.9863 C   0  0  2  0  0  0  0  0  0  0  0  0
  -28.6186  -23.9363   21.7121 C   0  0  0  0  0  0  0  0  0  0  0  0
  -32.2171  -21.4397   20.2198 C   0  0  0  0  0  0  0  0  0  0  0  0
  -28.0887  -34.2435   27.7945 C   0  0  0  0  0  0  0  0  0  0  0  0
  -25.8535  -32.7350   21.7448 C   0  0  0  0  0  0  0  0  0  0  0  0
  -27.5364  -33.9096   23.1787 C   0  0  0  0  0  0  0  0  0  0  0  0
  -25.1240  -34.5259   23.3305 C   0  0  0  0  0  0  0  0  0  0  0  0
  -26.4537  -31.0583   29.0819 C   0  0  0  0  0  0  0  0  0  0  0  0
  -32.4110  -20.4801   21.3949 C   0  0  0  0  0  0  0  0  0  0  0  0
  -27.2265  -23.6049   23.7656 C   0  0  0  0  0  0  0  0  0  1  0  0
  -25.9030  -32.3216   24.2928 C   0  0  1  0  0  0  0  0  0  0  0  0
  -27.0625  -33.1213   27.8122 C   0  0  2  0  0  0  0  0  0  0  0  0
  -26.1003  -33.3449   23.1390 C   0  0  0  0  0  0  0  0  0  0  0  0
  -25.9195  -11.5568   20.5535 N   0  0  0  0  0  0  0  0  0  0  0  0
  -26.2189  -12.8194   20.2038 N   0  0  0  0  0  0  0  0  0  0  0  0
  -29.6842  -21.1071   22.6148 N   0  0  3  0  0  0  0  0  0  0  0  0
  -24.4541  -30.3210   24.1443 N   0  0  0  0  0  0  0  0  0  0  0  0
  -29.8632  -13.9258   20.4837 N   0  0  0  0  0  0  0  0  0  0  0  0
  -25.2897  -14.9857   19.9708 N   0  0  0  0  0  0  0  0  0  0  0  0
  -21.7972  -12.5016   21.3948 N   0  0  0  0  0  0  0  0  0  0  0  0
  -29.7519  -16.1779   21.1751 N   0  0  0  0  0  0  0  0  0  0  0  0
  -21.7411  -29.0214   22.0834 N   0  0  0  0  0  0  0  0  0  0  0  0
  -26.1038  -32.8785   25.6263 N   0  0  0  0  0  0  0  0  0  0  0  0
  -27.3957  -32.1974   28.9330 N   0  3  0  0  0  0  0  0  0  0  0  0
  -22.4480  -14.6058   20.7563 O   0  0  0  0  0  0  0  0  0  0  0  0
  -23.8734  -29.8731   21.6953 O   0  0  0  0  0  0  0  0  0  0  0  0
  -23.5381  -32.4464   24.4266 O   0  0  0  0  0  0  0  0  0  0  0  0
  -27.7948  -31.4228   26.2577 O   0  0  0  0  0  0  0  0  0  0  0  0
  -31.6666  -15.3377   20.1703 O   0  0  0  0  0  0  0  0  0  0  0  0
  -21.8867   -7.0536   22.5551 O   0  0  0  0  0  0  0  0  0  0  0  0
  -27.4773  -24.9441   24.1896 O   0  0  0  0  0  0  0  0  0  1  0  0
  -18.5720   -7.5284   26.9360 F   0  0  0  0  0  0  0  0  0  0  0  0
  -22.3194   -5.5454   24.8312 F   0  0  0  0  0  0  0  0  0  0  0  0
  -28.9795  -18.5462   22.1495 S   0  0  0  0  0  0  0  0  0  0  0  0
  1  2  1  0  0  0  0
  1  5  2  0  0  0  0
  2  6  2  0  0  0  0
  3  8  2  0  0  0  0
  3 16  1  0  0  0  0
  4  9  1  0  0  0  0
  4 16  2  0  0  0  0
  5 18  1  0  0  0  0
  6 20  1  0  0  0  0
  7 10  2  0  0  0  0
  7 19  1  0  0  0  0
  8 23  1  0  0  0  0
  9 23  2  0  0  0  0
 10 24  1  0  0  0  0
 11 12  2  0  0  0  0
 11 25  1  0  0  0  0
 12 26  1  0  0  0  0
 13 21  1  0  0  0  0
 13 24  2  0  0  0  0
 14 22  1  0  0  0  0
 14 31  2  0  0  0  0
 15 26  2  0  0  0  0
 15 27  1  0  0  0  0
 16 28  1  0  0  0  0
 17 28  1  0  0  0  0
 17 29  2  0  0  0  0
 17 32  1  0  0  0  0
 18 20  2  0  0  0  0
 18 37  1  0  0  0  0
 19 21  2  0  0  0  0
 19 38  1  0  0  0  0
 20 49  1  0  0  0  0
 21 39  1  0  0  0  0
 22 30  2  0  0  0  0
 22 60  1  0  0  0  0
 23 81  1  0  0  0  0
 24 82  1  0  0  0  0
 25 27  2  0  0  0  0
 25 81  1  0  0  0  0
 26 83  1  0  0  0  0
 27 84  1  0  0  0  0
 28 65  2  0  0  0  0
 29 66  1  0  0  0  0
 29 70  1  0  0  0  0
 30 67  1  0  0  0  0
 30 85  1  0  0  0  0
 31 72  1  0  0  0  0
 31 85  1  0  0  0  0
 32 71  1  0  0  0  0
 32 76  2  0  0  0  0
 33 50  1  0  0  0  0
 33 73  1  0  0  0  0
 33 77  2  0  0  0  0
 34 62  1  0  0  0  0
 34 68  1  0  0  0  0
 34 78  2  0  0  0  0
 35 63  1  0  0  0  0
 35 74  1  0  0  0  0
 35 79  2  0  0  0  0
 36 69  1  0  0  0  0
 36 72  1  0  0  0  0
 36 80  2  0  0  0  0
 37 40  1  0  0  0  0
 38 50  1  0  0  0  0
 39 68  1  0  0  0  0
 40 42  1  0  0  0  0
 41 43  1  0  0  0  0
 41 45  1  0  0  0  0
 42 49  1  0  0  0  0
 43 51  1  0  0  0  0
 44 46  1  0  0  0  0
 44 52  1  0  0  0  0
 45 69  1  0  0  0  0
 46 67  1  0  0  0  0
 47 51  1  0  0  0  0
 47 69  1  0  0  0  0
 48 52  1  0  0  0  0
 48 67  1  0  0  0  0
 49 73  1  0  0  0  0
 50 68  1  0  0  0  0
 51 66  1  0  0  0  0
 52 53  1  0  0  0  0
 52 61  1  0  0  0  0
 54 60  1  0  0  0  0
 55 63  1  0  0  0  0
 56 64  1  0  0  0  0
 57 64  1  0  0  0  0
 58 64  1  0  0  0  0
 59 75  1  0  0  0  0
 61 82  1  0  0  0  0
 62 64  1  0  0  0  0
 62 74  1  0  0  0  0
 63 75  1  0  0  0  0
 65 66  1  0  0  0  0
M  CHG  1  75   1
M  ISO  4  36 100  61 101  72 100  82 101
M  END
> <Batch ID>
0145

> <Smiles>
CCc1cc([100NH:0][100C:0](=O)N2CCCC(n3nc(-c4ccc(Oc5ccc(F)cc5F)cc4)c(C(N)=O)c3N)C2)sc1N1CCC(C)([101CH2:1][101O:1]c2ccc3c(c2)CN(C(=O)C(NC(=O)C(C)NC)C(C)(C)C)C(C(=O)NC2CCCc4ccccc42)C3)C1

> <Shape>
0.300

> <Color>
0.193

> <Negative vol penalty>
0.000

$$$$

  -OEChem-04052303073D

 85 94  0     1  0  0  0  0  0999 V2000
  -30.1775  -25.1474   17.5407 C   0  0  0  0  0  0  0  0  0  0  0  0
  -28.7894  -25.1986   17.6191 C   0  0  0  0  0  0  0  0  0  0  0  0
  -24.7908  -12.5913   21.9236 C   0  0  0  0  0  0  0  0  0  0  0  0
  -26.0316  -14.0658   20.4665 C   0  0  0  0  0  0  0  0  0  0  0  0
  -30.9522  -25.6185   18.5999 C   0  0  0  0  0  0  0  0  0  0  0  0
  -28.1753  -25.7200   18.7572 C   0  0  0  0  0  0  0  0  0  0  0  0
  -24.3552  -23.8848   19.6871 C   0  0  0  0  0  0  0  0  0  0  0  0
  -22.9618  -28.9251   18.9860 C   0  0  0  0  0  0  0  0  0  0  0  0
  -23.0825  -24.4613   19.6748 C   0  0  0  0  0  0  0  0  0  0  0  0
  -24.5354  -11.7422   20.8468 C   0  0  0  0  0  0  0  0  0  0  0  0
  -25.7763  -13.2167   19.3897 C   0  0  0  0  0  0  0  0  0  0  0  0
  -21.6497  -28.5617   19.2862 C   0  0  0  0  0  0  0  0  0  0  0  0
  -26.9709  -10.2930   18.1875 C   0  0  0  0  0  0  0  0  0  0  0  0
  -28.0342   -9.9890   17.3375 C   0  0  0  0  0  0  0  0  0  0  0  0
  -22.6773  -23.7367   21.9671 C   0  0  0  0  0  0  0  0  0  0  0  0
  -21.9785  -29.2800   21.5655 C   0  0  0  0  0  0  0  0  0  0  0  0
  -26.8234  -10.9484   15.4798 C   0  0  0  0  0  0  0  0  0  0  0  0
  -25.5389  -13.7532   21.7334 C   0  0  0  0  0  0  0  0  0  0  0  0
  -26.8987  -14.5802   23.7270 C   0  0  0  0  0  0  0  0  0  0  0  0
  -30.3473  -26.1548   19.7475 C   0  0  0  0  0  0  0  0  0  0  0  0
  -24.7478  -23.2516   20.8428 C   0  0  0  0  0  0  0  0  0  0  0  0
  -23.7969  -29.4595   19.9777 C   0  0  0  0  0  0  0  0  0  0  0  0
  -28.9426  -26.1974   19.8333 C   0  0  0  0  0  0  0  0  0  0  0  0
  -23.9345  -23.1790   21.9479 C   0  0  0  0  0  0  0  0  0  0  0  0
  -23.3000  -29.6517   21.2747 C   0  0  0  0  0  0  0  0  0  0  0  0
  -22.2488  -24.3875   20.8075 C   0  0  0  0  0  0  0  0  0  0  0  0
  -25.0281  -12.0548   19.5799 C   0  0  0  0  0  0  0  0  0  0  0  0
  -21.1588  -28.7364   20.5767 C   0  0  0  0  0  0  0  0  0  0  0  0
  -25.8338  -10.9246   17.6837 C   0  0  0  0  0  0  0  0  0  0  0  0
  -27.9605  -10.3167   15.9836 C   0  0  0  0  0  0  0  0  0  0  0  0
  -25.7601  -11.2523   16.3299 C   0  0  0  0  0  0  0  0  0  0  0  0
  -25.8025  -14.6310   22.8451 C   0  0  0  0  0  0  0  0  0  0  0  0
  -26.6869  -15.6207   24.5982 C   0  0  0  0  0  0  0  0  0  0  0  0
  -28.0091  -13.6737   23.7560 C   0  0  0  0  0  0  0  0  0  0  0  0
  -26.5318  -28.5651   21.3284 C   0  0  0  0  0  0  0  0  0  0  0  0
  -26.3194  -31.4655   22.7653 C   0  0  0  0  0  0  0  0  0  0  0  0
  -20.0117  -25.0077   21.7839 C   0  0  0  0  0  0  0  0  0  0  0  0
  -24.3427  -34.0460   23.8048 C   0  0  0  0  0  0  0  0  0  0  0  0
  -23.6665  -20.7637   24.1634 C   0  0  0  0  0  0  0  0  0  0  0  0
  -31.2258  -26.6082   20.8866 C   0  0  0  0  0  0  0  0  0  0  0  0
  -25.8624  -22.4850   21.4918 C   0  0  0  0  0  0  0  0  0  0  0  0
  -25.2015  -29.8713   19.6313 C   0  0  0  0  0  0  0  0  0  0  0  0
  -24.1496  -30.2402   22.3703 C   0  0  0  0  0  0  0  0  0  0  0  0
  -30.5016  -27.4902   21.9005 C   0  0  0  0  0  0  0  0  0  0  0  0
  -23.1680  -18.1981   26.5678 C   0  0  0  0  0  0  0  0  0  0  0  0
  -29.1520  -26.8823   22.2691 C   0  0  0  0  0  0  0  0  0  0  0  0
  -23.8889  -16.9887   25.9699 C   0  0  0  0  0  0  0  0  0  0  0  0
  -22.4870  -19.0387   25.4898 C   0  0  0  0  0  0  0  0  0  0  0  0
  -24.0870  -18.2556   23.7890 C   0  0  0  0  0  0  0  0  0  0  0  0
  -28.2397  -26.7787   21.0409 C   0  0  1  0  0  0  0  0  0  0  0  0
  -24.9414  -22.4147   22.7644 C   0  0  2  0  0  0  0  0  0  0  0  0
  -26.1241  -29.9281   20.8450 C   0  0  1  0  0  0  0  0  0  0  0  0
  -24.8375  -17.4076   24.8303 C   0  0  2  0  0  0  0  0  0  0  0  0
  -24.4504  -36.2596   24.9820 C   0  0  0  0  0  0  0  0  0  0  0  0
  -26.6446  -30.0266   25.4363 C   0  0  0  0  0  0  0  0  0  0  0  0
  -25.8061  -32.0939   26.5727 C   0  0  0  0  0  0  0  0  0  0  0  0
  -27.9165  -32.1714   25.2451 C   0  0  0  0  0  0  0  0  0  0  0  0
  -23.2848  -35.4838   21.4442 C   0  0  0  0  0  0  0  0  0  0  0  0
  -18.7649  -25.7513   21.3254 C   0  0  0  0  0  0  0  0  0  0  0  0
  -18.4558  -26.9687   22.1898 C   0  0  0  0  0  0  0  0  0  0  0  0
  -19.6153  -27.9541   22.2082 C   0  0  0  0  0  0  0  0  0  1  0  0
  -25.7012  -31.9837   24.0414 C   0  0  1  0  0  0  0  0  0  0  0  0
  -24.4776  -35.5488   23.6378 C   0  0  2  0  0  0  0  0  0  0  0  0
  -26.5014  -31.5560   25.3039 C   0  0  0  0  0  0  0  0  0  0  0  0
  -24.9571  -15.6250   23.1301 N   0  0  0  0  0  0  0  0  0  0  0  0
  -25.5220  -16.2084   24.2009 N   0  0  0  0  0  0  0  0  0  0  0  0
  -25.5181  -30.6213   21.9836 N   0  0  0  0  0  0  0  0  0  0  0  0
  -23.4444  -19.4062   24.4435 N   0  0  0  0  0  0  0  0  0  0  0  0
  -27.3854  -16.0811   25.6577 N   0  0  0  0  0  0  0  0  0  0  0  0
  -28.0716  -12.6627   22.7873 N   0  0  0  0  0  0  0  0  0  0  0  0
  -20.9647  -24.9810   20.7695 N   0  0  0  0  0  0  0  0  0  0  0  0
  -27.6715  -28.0711   20.7229 N   0  0  0  0  0  0  0  0  0  0  0  0
  -25.5730  -33.4275   23.8759 N   0  0  0  0  0  0  0  0  0  0  0  0
  -24.5954  -21.0352   23.1642 N   0  0  0  0  0  0  0  0  0  0  0  0
  -23.3628  -36.0793   22.8030 N   0  3  0  0  0  0  0  0  0  0  0  0
  -28.9103  -13.7476   24.6253 O   0  0  0  0  0  0  0  0  0  0  0  0
  -25.8629  -28.0039   22.1881 O   0  0  0  0  0  0  0  0  0  0  0  0
  -27.4683  -31.8032   22.4694 O   0  0  0  0  0  0  0  0  0  0  0  0
  -20.1038  -24.5207   22.9058 O   0  0  0  0  0  0  0  0  0  0  0  0
  -23.2547  -33.4780   23.8698 O   0  0  0  0  0  0  0  0  0  0  0  0
  -23.0872  -21.6758   24.7632 O   0  0  0  0  0  0  0  0  0  0  0  0
  -24.7793  -11.2264   18.5291 O   0  0  0  0  0  0  0  0  0  0  0  0
  -19.8786  -28.3819   20.8725 O   0  0  0  0  0  0  0  0  0  1  0  0
  -28.9823  -10.0262   15.1678 F   0  0  0  0  0  0  0  0  0  0  0  0
  -24.6708  -11.8602   15.8404 F   0  0  0  0  0  0  0  0  0  0  0  0
  1  2  1  0  0  0  0
  1  5  2  0  0  0  0
  2  6  2  0  0  0  0
  3 10  2  0  0  0  0
  3 18  1  0  0  0  0
  4 11  1  0  0  0  0
  4 18  2  0  0  0  0
  5 20  1  0  0  0  0
  6 23  1  0  0  0  0
  7  9  2  0  0  0  0
  7 21  1  0  0  0  0
  8 12  2  0  0  0  0
  8 22  1  0  0  0  0
  9 26  1  0  0  0  0
 10 27  1  0  0  0  0
 11 27  2  0  0  0  0
 12 28  1  0  0  0  0
 13 14  2  0  0  0  0
 13 29  1  0  0  0  0
 14 30  1  0  0  0  0
 15 24  1  0  0  0  0
 15 26  2  0  0  0  0
 16 25  1  0  0  0  0
 16 28  2  0  0  0  0
 17 30  2  0  0  0  0
 17 31  1  0  0  0  0
 18 32  1  0  0  0  0
 19 32  1  0  0  0  0
 19 33  2  0  0  0  0
 19 34  1  0  0  0  0
 20 23  2  0  0  0  0
 20 40  1  0  0  0  0
 21 24  2  0  0  0  0
 21 41  1  0  0  0  0
 22 25  2  0  0  0  0
 22 42  1  0  0  0  0
 23 50  1  0  0  0  0
 24 51  1  0  0  0  0
 25 43  1  0  0  0  0
 26 71  1  0  0  0  0
 27 82  1  0  0  0  0
 28 83  1  0  0  0  0
 29 31  2  0  0  0  0
 29 82  1  0  0  0  0
 30 84  1  0  0  0  0
 31 85  1  0  0  0  0
 32 65  2  0  0  0  0
 33 66  1  0  0  0  0
 33 69  1  0  0  0  0
 34 70  1  0  0  0  0
 34 76  2  0  0  0  0
 35 52  1  0  0  0  0
 35 72  1  0  0  0  0
 35 77  2  0  0  0  0
 36 62  1  0  0  0  0
 36 67  1  0  0  0  0
 36 78  2  0  0  0  0
 37 59  1  0  0  0  0
 37 71  1  0  0  0  0
 37 79  2  0  0  0  0
 38 63  1  0  0  0  0
 38 73  1  0  0  0  0
 38 80  2  0  0  0  0
 39 68  1  0  0  0  0
 39 74  1  0  0  0  0
 39 81  2  0  0  0  0
 40 44  1  0  0  0  0
 41 51  1  0  0  0  0
 42 52  1  0  0  0  0
 43 67  1  0  0  0  0
 44 46  1  0  0  0  0
 45 47  1  0  0  0  0
 45 48  1  0  0  0  0
 46 50  1  0  0  0  0
 47 53  1  0  0  0  0
 48 68  1  0  0  0  0
 49 53  1  0  0  0  0
 49 68  1  0  0  0  0
 50 72  1  0  0  0  0
 51 74  1  0  0  0  0
 52 67  1  0  0  0  0
 53 66  1  0  0  0  0
 54 63  1  0  0  0  0
 55 64  1  0  0  0  0
 56 64  1  0  0  0  0
 57 64  1  0  0  0  0
 58 75  1  0  0  0  0
 59 60  1  0  0  0  0
 60 61  1  0  0  0  0
 61 83  1  0  0  0  0
 62 64  1  0  0  0  0
 62 73  1  0  0  0  0
 63 75  1  0  0  0  0
 65 66  1  0  0  0  0
M  CHG  1  75   1
M  ISO  4  39 100  61 101  74 100  83 101
M  END
> <Batch ID>
0145

> <Smiles>
CNC(C)C(=O)NC(C(=O)N1Cc2cc([101O:1][101CH2:1]CCC(=O)Nc3ccc4c(c3)C([100NH:0][100C:0](=O)N3CCCC(n5nc(-c6ccc(Oc7ccc(F)cc7F)cc6)c(C(N)=O)c5N)C3)C4)ccc2CC1C(=O)NC1CCCc2ccccc21)C(C)(C)C

> <Shape>
0.237

> <Color>
0.070

> <Negative vol penalty>
0.000

$$$$

  -OEChem-04052303073D

 86 95  0     1  0  0  0  0  0999 V2000
  -26.0702  -36.1282   18.6489 C   0  0  0  0  0  0  0  0  0  0  0  0
  -26.6917  -34.9353   19.0043 C   0  0  0  0  0  0  0  0  0  0  0  0
  -23.2838  -10.9189   23.0527 C   0  0  0  0  0  0  0  0  0  0  0  0
  -22.5976  -13.1833   22.5638 C   0  0  0  0  0  0  0  0  0  0  0  0
  -24.9329  -36.5517   19.3352 C   0  0  0  0  0  0  0  0  0  0  0  0
  -26.1768  -34.1658   20.0470 C   0  0  0  0  0  0  0  0  0  0  0  0
  -25.9808  -29.2351   18.9095 C   0  0  0  0  0  0  0  0  0  0  0  0
  -22.2386  -10.7999   23.9687 C   0  0  0  0  0  0  0  0  0  0  0  0
  -21.5524  -13.0643   23.4798 C   0  0  0  0  0  0  0  0  0  0  0  0
  -27.1742  -28.5176   18.9790 C   0  0  0  0  0  0  0  0  0  0  0  0
  -18.9035  -10.2492   23.8849 C   0  0  0  0  0  0  0  0  0  0  0  0
  -18.1421   -9.0811   23.8514 C   0  0  0  0  0  0  0  0  0  0  0  0
  -26.5292  -27.6659   21.1418 C   0  0  0  0  0  0  0  0  0  0  0  0
  -26.0276  -21.6005   18.4931 C   0  0  0  0  0  0  0  0  0  0  0  0
  -25.6735  -19.2115   18.4292 C   0  0  0  0  0  0  0  0  0  0  0  0
  -27.6900  -20.1079   19.4126 C   0  0  0  0  0  0  0  0  0  0  0  0
  -18.7690   -8.6069   26.1360 C   0  0  0  0  0  0  0  0  0  0  0  0
  -23.4633  -12.1106   22.3503 C   0  0  0  0  0  0  0  0  0  0  0  0
  -24.7588  -11.4529   20.2535 C   0  0  0  0  0  0  0  0  0  0  0  0
  -24.3981  -35.7822   20.3805 C   0  0  0  0  0  0  0  0  0  0  0  0
  -25.0560  -29.1818   19.9622 C   0  0  0  0  0  0  0  0  0  0  0  0
  -25.0320  -34.5802   20.7488 C   0  0  0  0  0  0  0  0  0  0  0  0
  -25.3237  -28.3816   21.0821 C   0  0  0  0  0  0  0  0  0  0  0  0
  -25.2374  -20.5053   18.1440 C   0  0  0  0  0  0  0  0  0  0  0  0
  -27.2539  -21.4018   19.1274 C   0  0  0  0  0  0  0  0  0  0  0  0
  -26.8998  -19.0127   19.0635 C   0  0  0  0  0  0  0  0  0  0  0  0
  -21.3729  -11.8726   24.1822 C   0  0  0  0  0  0  0  0  0  0  0  0
  -27.4499  -27.7352   20.0965 C   0  0  0  0  0  0  0  0  0  0  0  0
  -19.5978  -10.5962   25.0439 C   0  0  0  0  0  0  0  0  0  0  0  0
  -18.0748   -8.2599   24.9769 C   0  0  0  0  0  0  0  0  0  0  0  0
  -19.5305   -9.7751   26.1694 C   0  0  0  0  0  0  0  0  0  0  0  0
  -24.5431  -12.2344   21.4044 C   0  0  0  0  0  0  0  0  0  0  0  0
  -25.9073  -11.9649   19.7010 C   0  0  0  0  0  0  0  0  0  0  0  0
  -23.9897  -10.3617   19.7305 C   0  0  0  0  0  0  0  0  0  0  0  0
  -23.8237  -31.3108   21.9753 C   0  0  0  0  0  0  0  0  0  0  0  0
  -21.9756  -28.8040   22.8822 C   0  0  0  0  0  0  0  0  0  0  0  0
  -22.4374  -25.2792   23.4989 C   0  0  0  0  0  0  0  0  0  0  0  0
  -28.5322  -17.3258   19.9778 C   0  0  0  0  0  0  0  0  0  0  0  0
  -23.1945  -36.3046   21.1243 C   0  0  0  0  0  0  0  0  0  0  0  0
  -23.7612  -29.9405   19.8601 C   0  0  0  0  0  0  0  0  0  0  0  0
  -24.3546  -28.2744   22.2301 C   0  0  0  0  0  0  0  0  0  0  0  0
  -22.4941  -35.2445   21.9703 C   0  0  0  0  0  0  0  0  0  0  0  0
  -29.9672  -14.2018   20.9045 C   0  0  0  0  0  0  0  0  0  0  0  0
  -23.5130  -34.4477   22.7788 C   0  0  0  0  0  0  0  0  0  0  0  0
  -28.7593  -13.2701   21.0271 C   0  0  0  0  0  0  0  0  0  0  0  0
  -29.6379  -23.5086   21.0756 C   0  0  0  0  0  0  0  0  0  0  0  0
  -29.2722  -24.5414   18.8243 C   0  0  0  0  0  0  0  0  0  0  0  0
  -29.6465  -15.6134   21.3925 C   0  0  0  0  0  0  0  0  0  0  0  0
  -28.3661  -22.6780   20.9000 C   0  0  0  0  0  0  0  0  0  0  0  0
  -28.0001  -23.7104   18.6495 C   0  0  0  0  0  0  0  0  0  0  0  0
  -27.2529  -15.2956   20.9038 C   0  0  0  0  0  0  0  0  0  0  0  0
  -24.4891  -33.7055   21.8580 C   0  0  1  0  0  0  0  0  0  0  0  0
  -23.1231  -30.2188   21.2175 C   0  0  1  0  0  0  0  0  0  0  0  0
  -27.5083  -13.8790   20.3638 C   0  0  2  0  0  0  0  0  0  0  0  0
  -29.6147  -24.8385   20.2970 C   0  0  0  0  0  0  0  0  0  0  0  0
  -23.9263  -20.7180   17.4658 C   0  0  0  0  0  0  0  0  0  0  0  0
  -31.0067  -25.4920   20.3710 C   0  0  0  0  0  0  0  0  0  0  0  0
  -20.8173  -23.3693   23.3408 C   0  0  0  0  0  0  0  0  0  0  0  0
  -21.5508  -29.2968   25.8633 C   0  0  0  0  0  0  0  0  0  0  0  0
  -21.4062  -26.8177   26.1815 C   0  0  0  0  0  0  0  0  0  0  0  0
  -19.7310  -27.9897   24.7523 C   0  0  0  0  0  0  0  0  0  0  0  0
  -24.1925  -23.7928   21.6364 C   0  0  0  0  0  0  0  0  0  0  0  0
  -28.5952  -25.8164   20.9104 C   0  0  0  0  0  0  0  0  0  1  0  0
  -22.0965  -27.7023   23.9073 C   0  0  1  0  0  0  0  0  0  0  0  0
  -21.9315  -24.1328   22.6420 C   0  0  2  0  0  0  0  0  0  0  0  0
  -21.2191  -27.9634   25.1641 C   0  0  0  0  0  0  0  0  0  0  0  0
  -25.4795  -13.1715   21.5742 N   0  0  0  0  0  0  0  0  0  0  0  0
  -26.2948  -12.9821   20.5228 N   0  0  0  0  0  0  0  0  0  0  0  0
  -28.0475  -22.5022   19.4779 N   0  0  0  0  0  0  0  0  0  0  0  0
  -23.1053  -29.0400   22.0861 N   0  0  0  0  0  0  0  0  0  0  0  0
  -28.4524  -16.1270   20.7177 N   0  0  0  0  0  0  0  0  0  0  0  0
  -26.6135  -11.6397   18.5974 N   0  0  0  0  0  0  0  0  0  0  0  0
  -22.9594  -10.6447   18.8234 N   0  0  0  0  0  0  0  0  0  0  0  0
  -27.3422  -17.6982   19.3535 N   0  0  0  0  0  0  0  0  0  0  0  0
  -23.8646  -32.5208   21.3092 N   0  0  0  0  0  0  0  0  0  0  0  0
  -21.7858  -26.4594   23.2093 N   0  0  0  0  0  0  0  0  0  0  0  0
  -23.0388  -23.1807   22.3445 N   0  3  0  0  0  0  0  0  0  0  0  0
  -24.1989   -9.1725   20.0705 O   0  0  0  0  0  0  0  0  0  0  0  0
  -24.2912  -31.0736   23.0829 O   0  0  0  0  0  0  0  0  0  0  0  0
  -20.9154  -29.4272   22.7864 O   0  0  0  0  0  0  0  0  0  0  0  0
  -23.3194  -25.1407   24.3435 O   0  0  0  0  0  0  0  0  0  0  0  0
  -29.5860  -17.9598   19.8812 O   0  0  0  0  0  0  0  0  0  0  0  0
  -20.3527  -11.7567   25.0758 O   0  0  0  0  0  0  0  0  0  0  0  0
  -28.6143  -27.0345   20.1672 O   0  0  0  0  0  0  0  0  0  1  0  0
  -17.3423   -7.1389   24.9451 F   0  0  0  0  0  0  0  0  0  0  0  0
  -20.1944  -10.1039   27.2861 F   0  0  0  0  0  0  0  0  0  0  0  0
  1  2  1  0  0  0  0
  1  5  2  0  0  0  0
  2  6  2  0  0  0  0
  3  8  2  0  0  0  0
  3 18  1  0  0  0  0
  4  9  1  0  0  0  0
  4 18  2  0  0  0  0
  5 20  1  0  0  0  0
  6 22  1  0  0  0  0
  7 10  2  0  0  0  0
  7 21  1  0  0  0  0
  8 27  1  0  0  0  0
  9 27  2  0  0  0  0
 10 28  1  0  0  0  0
 11 12  2  0  0  0  0
 11 29  1  0  0  0  0
 12 30  1  0  0  0  0
 13 23  1  0  0  0  0
 13 28  2  0  0  0  0
 14 24  2  0  0  0  0
 14 25  1  0  0  0  0
 15 24  1  0  0  0  0
 15 26  2  0  0  0  0
 16 25  2  0  0  0  0
 16 26  1  0  0  0  0
 17 30  2  0  0  0  0
 17 31  1  0  0  0  0
 18 32  1  0  0  0  0
 19 32  1  0  0  0  0
 19 33  2  0  0  0  0
 19 34  1  0  0  0  0
 20 22  2  0  0  0  0
 20 39  1  0  0  0  0
 21 23  2  0  0  0  0
 21 40  1  0  0  0  0
 22 52  1  0  0  0  0
 23 41  1  0  0  0  0
 24 56  1  0  0  0  0
 25 69  1  0  0  0  0
 26 74  1  0  0  0  0
 27 83  1  0  0  0  0
 28 84  1  0  0  0  0
 29 31  2  0  0  0  0
 29 83  1  0  0  0  0
 30 85  1  0  0  0  0
 31 86  1  0  0  0  0
 32 67  2  0  0  0  0
 33 68  1  0  0  0  0
 33 72  1  0  0  0  0
 34 73  1  0  0  0  0
 34 78  2  0  0  0  0
 35 53  1  0  0  0  0
 35 75  1  0  0  0  0
 35 79  2  0  0  0  0
 36 64  1  0  0  0  0
 36 70  1  0  0  0  0
 36 80  2  0  0  0  0
 37 65  1  0  0  0  0
 37 76  1  0  0  0  0
 37 81  2  0  0  0  0
 38 71  1  0  0  0  0
 38 74  1  0  0  0  0
 38 82  2  0  0  0  0
 39 42  1  0  0  0  0
 40 53  1  0  0  0  0
 41 70  1  0  0  0  0
 42 44  1  0  0  0  0
 43 45  1  0  0  0  0
 43 48  1  0  0  0  0
 44 52  1  0  0  0  0
 45 54  1  0  0  0  0
 46 49  1  0  0  0  0
 46 55  1  0  0  0  0
 47 50  1  0  0  0  0
 47 55  1  0  0  0  0
 48 71  1  0  0  0  0
 49 69  1  0  0  0  0
 50 69  1  0  0  0  0
 51 54  1  0  0  0  0
 51 71  1  0  0  0  0
 52 75  1  0  0  0  0
 53 70  1  0  0  0  0
 54 68  1  0  0  0  0
 55 57  1  0  0  0  0
 55 63  1  0  0  0  0
 58 65  1  0  0  0  0
 59 66  1  0  0  0  0
 60 66  1  0  0  0  0
 61 66  1  0  0  0  0
 62 77  1  0  0  0  0
 63 84  1  0  0  0  0
 64 66  1  0  0  0  0
 64 76  1  0  0  0  0
 65 77  1  0  0  0  0
 67 68  1  0  0  0  0
M  CHG  1  77   1
M  ISO  4  38 100  63 101  74 100  84 101
M  END
> <Batch ID>
0145

> <Smiles>
CNC(C)C(=O)NC(C(=O)N1Cc2cc([101O:1][101CH2:1]C3(C)CCN(c4cc(C)cc([100NH:0][100C:0](=O)N5CCCC(n6nc(-c7ccc(Oc8ccc(F)cc8F)cc7)c(C(N)=O)c6N)C5)c4)CC3)ccc2CC1C(=O)NC1CCCc2ccccc21)C(C)(C)C

> <Shape>
0.231

> <Color>
0.071

> <Negative vol penalty>
0.000

$$$$

  -OEChem-04052303073D

 86 95  0     1  0  0  0  0  0999 V2000
  -27.6188  -38.2972   23.2709 C   0  0  0  0  0  0  0  0  0  0  0  0
  -28.1330  -37.1535   22.6683 C   0  0  0  0  0  0  0  0  0  0  0  0
  -24.9992  -18.5690   17.0518 C   0  0  0  0  0  0  0  0  0  0  0  0
  -23.6824   -9.1556   19.7091 C   0  0  0  0  0  0  0  0  0  0  0  0
  -24.4517   -9.0426   21.9966 C   0  0  0  0  0  0  0  0  0  0  0  0
  -25.5491  -19.8263   17.3020 C   0  0  0  0  0  0  0  0  0  0  0  0
  -26.6963  -38.1816   24.3099 C   0  0  0  0  0  0  0  0  0  0  0  0
  -27.7257  -35.8935   23.1052 C   0  0  0  0  0  0  0  0  0  0  0  0
  -26.9729  -30.8743   19.6778 C   0  0  0  0  0  0  0  0  0  0  0  0
  -25.3458  -17.4836   17.8564 C   0  0  0  0  0  0  0  0  0  0  0  0
  -22.5212   -8.4702   20.0658 C   0  0  0  0  0  0  0  0  0  0  0  0
  -23.2904   -8.3572   22.3533 C   0  0  0  0  0  0  0  0  0  0  0  0
  -27.7887  -29.7685   19.4419 C   0  0  0  0  0  0  0  0  0  0  0  0
  -22.0899   -5.2045   22.1290 C   0  0  0  0  0  0  0  0  0  0  0  0
  -22.2245   -4.0847   22.9496 C   0  0  0  0  0  0  0  0  0  0  0  0
  -26.7923  -18.9126   19.1612 C   0  0  0  0  0  0  0  0  0  0  0  0
  -26.6207  -28.5472   21.1634 C   0  0  0  0  0  0  0  0  0  0  0  0
  -20.8296   -5.1388   24.6170 C   0  0  0  0  0  0  0  0  0  0  0  0
  -24.6478   -9.4418   20.6745 C   0  0  0  0  0  0  0  0  0  0  0  0
  -26.4456  -19.9980   18.3567 C   0  0  0  0  0  0  0  0  0  0  0  0
  -26.8177   -9.7476   19.3686 C   0  0  0  0  0  0  0  0  0  0  0  0
  -26.2702  -36.9197   24.7533 C   0  0  0  0  0  0  0  0  0  0  0  0
  -25.9804  -30.8284   20.6674 C   0  0  0  0  0  0  0  0  0  0  0  0
  -26.7976  -35.7609   24.1520 C   0  0  0  0  0  0  0  0  0  0  0  0
  -25.7920  -29.6528   21.4081 C   0  0  0  0  0  0  0  0  0  0  0  0
  -26.2423  -17.6553   18.9111 C   0  0  0  0  0  0  0  0  0  0  0  0
  -22.3251   -8.0710   21.3879 C   0  0  0  0  0  0  0  0  0  0  0  0
  -27.6145  -28.6058   20.1867 C   0  0  0  0  0  0  0  0  0  0  0  0
  -21.3252   -6.2916   22.5524 C   0  0  0  0  0  0  0  0  0  0  0  0
  -21.5943   -4.0518   24.1935 C   0  0  0  0  0  0  0  0  0  0  0  0
  -20.6951   -6.2587   23.7964 C   0  0  0  0  0  0  0  0  0  0  0  0
  -25.8479  -10.1492   20.3066 C   0  0  0  0  0  0  0  0  0  0  0  0
  -27.7497  -10.7564   19.3850 C   0  0  0  0  0  0  0  0  0  0  0  0
  -27.0352  -21.3485   18.6241 C   0  0  0  0  0  0  0  0  0  0  0  0
  -26.8714   -8.5681   18.5552 C   0  0  0  0  0  0  0  0  0  0  0  0
  -28.4727  -25.1966   19.3055 C   0  0  0  0  0  0  0  0  0  0  0  0
  -25.4199  -32.4256   23.3578 C   0  0  0  0  0  0  0  0  0  0  0  0
  -22.6675  -30.7091   23.3447 C   0  0  0  0  0  0  0  0  0  0  0  0
  -21.6841  -27.3152   22.6153 C   0  0  0  0  0  0  0  0  0  0  0  0
  -27.4682  -16.5513   20.8150 C   0  0  0  0  0  0  0  0  0  0  0  0
  -25.3070  -36.8443   25.9114 C   0  0  0  0  0  0  0  0  0  0  0  0
  -25.0911  -32.0206   20.8913 C   0  0  0  0  0  0  0  0  0  0  0  0
  -24.7274  -29.5455   22.4681 C   0  0  0  0  0  0  0  0  0  0  0  0
  -28.4295  -21.4024   19.2364 C   0  0  0  0  0  0  0  0  0  0  0  0
  -24.6439  -35.4778   26.0641 C   0  0  0  0  0  0  0  0  0  0  0  0
  -29.0407  -22.7839   19.0978 C   0  0  0  0  0  0  0  0  0  0  0  0
  -29.5992  -14.0995   22.2725 C   0  0  0  0  0  0  0  0  0  0  0  0
  -25.6821  -34.3655   25.9560 C   0  0  0  0  0  0  0  0  0  0  0  0
  -28.9708  -12.7717   21.8433 C   0  0  0  0  0  0  0  0  0  0  0  0
  -28.5392  -15.1580   22.5719 C   0  0  0  0  0  0  0  0  0  0  0  0
  -26.9315  -14.0488   21.0705 C   0  0  0  0  0  0  0  0  0  0  0  0
  -26.3616  -34.3768   24.5813 C   0  0  1  0  0  0  0  0  0  0  0  0
  -27.9790  -23.7961   19.4693 C   0  0  2  0  0  0  0  0  0  0  0  0
  -24.4517  -32.0374   22.2763 C   0  0  1  0  0  0  0  0  0  0  0  0
  -27.9615  -12.9708   20.6956 C   0  0  2  0  0  0  0  0  0  0  0  0
  -19.4919  -26.3864   21.8223 C   0  0  0  0  0  0  0  0  0  0  0  0
  -22.1151  -30.2595   26.3117 C   0  0  0  0  0  0  0  0  0  0  0  0
  -21.0061  -28.0980   25.7063 C   0  0  0  0  0  0  0  0  0  0  0  0
  -20.0795  -30.2535   24.8589 C   0  0  0  0  0  0  0  0  0  0  0  0
  -22.9504  -26.0054   20.2830 C   0  0  0  0  0  0  0  0  0  0  0  0
  -27.8439  -26.2387   20.2058 C   0  0  0  0  0  0  0  0  0  1  0  0
  -22.2412  -29.3682   23.8918 C   0  0  1  0  0  0  0  0  0  0  0  0
  -20.8858  -26.8383   21.4154 C   0  0  2  0  0  0  0  0  0  0  0  0
  -21.3874  -29.4999   25.1845 C   0  0  0  0  0  0  0  0  0  0  0  0
  -26.1370  -11.3217   20.8774 N   0  0  0  0  0  0  0  0  0  0  0  0
  -26.3267  -22.4003   18.3305 N   0  0  0  0  0  0  0  0  0  0  0  0
  -27.2991  -11.6654   20.2966 N   0  0  0  0  0  0  0  0  0  0  0  0
  -26.8383  -23.6271   18.5800 N   0  0  0  0  0  0  0  0  0  0  0  0
  -23.8873  -30.7402   22.6541 N   0  0  0  0  0  0  0  0  0  0  0  0
  -27.6215  -15.2951   21.4388 N   0  0  0  0  0  0  0  0  0  0  0  0
  -28.9025  -10.9456   18.7085 N   0  0  0  0  0  0  0  0  0  0  0  0
  -25.8317   -7.6344   18.6628 N   0  0  0  0  0  0  0  0  0  0  0  0
  -26.5940  -16.5526   19.7285 N   0  0  0  0  0  0  0  0  0  0  0  0
  -25.4945  -33.7868   23.5841 N   0  0  0  0  0  0  0  0  0  0  0  0
  -21.5669  -28.6768   22.7982 N   0  0  0  0  0  0  0  0  0  0  0  0
  -21.5766  -25.6947   20.7551 N   0  3  0  0  0  0  0  0  0  0  0  0
  -27.8216   -8.3409   17.7685 O   0  0  0  0  0  0  0  0  0  0  0  0
  -29.3420  -25.4754   18.4811 O   0  0  0  0  0  0  0  0  0  0  0  0
  -26.0513  -31.5546   23.9447 O   0  0  0  0  0  0  0  0  0  0  0  0
  -21.9414  -31.6912   23.5174 O   0  0  0  0  0  0  0  0  0  0  0  0
  -22.3426  -26.5553   23.3220 O   0  0  0  0  0  0  0  0  0  0  0  0
  -28.0889  -17.5462   21.1982 O   0  0  0  0  0  0  0  0  0  0  0  0
  -21.1919   -7.4024   21.7363 O   0  0  0  0  0  0  0  0  0  0  0  0
  -28.4098  -27.5252   19.9589 O   0  0  0  0  0  0  0  0  0  1  0  0
  -21.7224   -2.9757   24.9808 F   0  0  0  0  0  0  0  0  0  0  0  0
  -19.9582   -7.2996   24.2081 F   0  0  0  0  0  0  0  0  0  0  0  0
  1  2  1  0  0  0  0
  1  7  2  0  0  0  0
  2  8  2  0  0  0  0
  3  6  2  0  0  0  0
  3 10  1  0  0  0  0
  4 11  2  0  0  0  0
  4 19  1  0  0  0  0
  5 12  1  0  0  0  0
  5 19  2  0  0  0  0
  6 20  1  0  0  0  0
  7 22  1  0  0  0  0
  8 24  1  0  0  0  0
  9 13  2  0  0  0  0
  9 23  1  0  0  0  0
 10 26  2  0  0  0  0
 11 27  1  0  0  0  0
 12 27  2  0  0  0  0
 13 28  1  0  0  0  0
 14 15  2  0  0  0  0
 14 29  1  0  0  0  0
 15 30  1  0  0  0  0
 16 20  2  0  0  0  0
 16 26  1  0  0  0  0
 17 25  1  0  0  0  0
 17 28  2  0  0  0  0
 18 30  2  0  0  0  0
 18 31  1  0  0  0  0
 19 32  1  0  0  0  0
 20 34  1  0  0  0  0
 21 32  1  0  0  0  0
 21 33  2  0  0  0  0
 21 35  1  0  0  0  0
 22 24  2  0  0  0  0
 22 41  1  0  0  0  0
 23 25  2  0  0  0  0
 23 42  1  0  0  0  0
 24 52  1  0  0  0  0
 25 43  1  0  0  0  0
 26 73  1  0  0  0  0
 27 83  1  0  0  0  0
 28 84  1  0  0  0  0
 29 31  2  0  0  0  0
 29 83  1  0  0  0  0
 30 85  1  0  0  0  0
 31 86  1  0  0  0  0
 32 65  2  0  0  0  0
 33 67  1  0  0  0  0
 33 71  1  0  0  0  0
 34 44  1  0  0  0  0
 34 66  2  0  0  0  0
 35 72  1  0  0  0  0
 35 77  2  0  0  0  0
 36 53  1  0  0  0  0
 36 61  1  0  0  0  0
 36 78  2  0  0  0  0
 37 54  1  0  0  0  0
 37 74  1  0  0  0  0
 37 79  2  0  0  0  0
 38 62  1  0  0  0  0
 38 69  1  0  0  0  0
 38 80  2  0  0  0  0
 39 63  1  0  0  0  0
 39 75  1  0  0  0  0
 39 81  2  0  0  0  0
 40 70  1  0  0  0  0
 40 73  1  0  0  0  0
 40 82  2  0  0  0  0
 41 45  1  0  0  0  0
 42 54  1  0  0  0  0
 43 69  1  0  0  0  0
 44 46  1  0  0  0  0
 45 48  1  0  0  0  0
 46 53  1  0  0  0  0
 47 49  1  0  0  0  0
 47 50  1  0  0  0  0
 48 52  1  0  0  0  0
 49 55  1  0  0  0  0
 50 70  1  0  0  0  0
 51 55  1  0  0  0  0
 51 70  1  0  0  0  0
 52 74  1  0  0  0  0
 53 68  1  0  0  0  0
 54 69  1  0  0  0  0
 55 67  1  0  0  0  0
 56 63  1  0  0  0  0
 57 64  1  0  0  0  0
 58 64  1  0  0  0  0
 59 64  1  0  0  0  0
 60 76  1  0  0  0  0
 61 84  1  0  0  0  0
 62 64  1  0  0  0  0
 62 75  1  0  0  0  0
 63 76  1  0  0  0  0
 65 67  1  0  0  0  0
 66 68  1  0  0  0  0
M  CHG  1  76   1
M  ISO  4  40 100  61 101  73 100  84 101
M  END
> <Batch ID>
0145

> <Smiles>
CNC(C)C(=O)NC(C(=O)N1Cc2cc([101O:1][101CH2:1]C(=O)C3CCC(c4cccc([100NH:0][100C:0](=O)N5CCCC(n6nc(-c7ccc(Oc8ccc(F)cc8F)cc7)c(C(N)=O)c6N)C5)c4)=NN3)ccc2CC1C(=O)NC1CCCc2ccccc21)C(C)(C)C

> <Shape>
0.313

> <Color>
0.100

> <Negative vol penalty>
0.000

$$$$

  -OEChem-04052303073D

 85 94  0     1  0  0  0  0  0999 V2000
  -25.9169  -22.6511   18.2449 C   0  0  0  0  0  0  0  0  0  0  0  0
  -26.3848  -21.6185   19.0514 C   0  0  0  0  0  0  0  0  0  0  0  0
  -23.0818   -9.8950   19.9717 C   0  0  0  0  0  0  0  0  0  0  0  0
  -23.9696   -9.8896   22.2186 C   0  0  0  0  0  0  0  0  0  0  0  0
  -26.4825  -23.9217   18.3431 C   0  0  0  0  0  0  0  0  0  0  0  0
  -27.4193  -21.8558   19.9557 C   0  0  0  0  0  0  0  0  0  0  0  0
  -29.7780  -19.8085   26.4026 C   0  0  0  0  0  0  0  0  0  0  0  0
  -22.3756   -8.7242   20.2479 C   0  0  0  0  0  0  0  0  0  0  0  0
  -23.2635   -8.7188   22.4949 C   0  0  0  0  0  0  0  0  0  0  0  0
  -30.9305  -19.3332   27.0268 C   0  0  0  0  0  0  0  0  0  0  0  0
  -21.4104   -5.9266   23.9049 C   0  0  0  0  0  0  0  0  0  0  0  0
  -20.7225   -5.8538   25.1160 C   0  0  0  0  0  0  0  0  0  0  0  0
  -31.7776  -21.5876   27.1658 C   0  0  0  0  0  0  0  0  0  0  0  0
  -31.9688  -16.9347   22.6153 C   0  0  0  0  0  0  0  0  0  0  0  0
  -19.4014   -7.7744   24.4811 C   0  0  0  0  0  0  0  0  0  0  0  0
  -23.8788  -10.4776   20.9570 C   0  0  0  0  0  0  0  0  0  0  0  0
  -24.1645  -13.0104   20.8512 C   0  0  0  0  0  0  0  0  0  0  0  0
  -27.5180  -24.1770   19.2559 C   0  0  0  0  0  0  0  0  0  0  0  0
  -29.6212  -21.1780   26.1451 C   0  0  0  0  0  0  0  0  0  0  0  0
  -28.0002  -23.1306   20.0653 C   0  0  0  0  0  0  0  0  0  0  0  0
  -30.6211  -22.0780   26.5405 C   0  0  0  0  0  0  0  0  0  0  0  0
  -30.8778  -16.9084   21.7238 C   0  0  0  0  0  0  0  0  0  0  0  0
  -22.4665   -8.1362   21.5095 C   0  0  0  0  0  0  0  0  0  0  0  0
  -31.9318  -20.2224   27.4059 C   0  0  0  0  0  0  0  0  0  0  0  0
  -21.0940   -6.9234   22.9818 C   0  0  0  0  0  0  0  0  0  0  0  0
  -19.7179   -6.7777   25.4042 C   0  0  0  0  0  0  0  0  0  0  0  0
  -20.0894   -7.8472   23.2699 C   0  0  0  0  0  0  0  0  0  0  0  0
  -24.6090  -11.6867   20.6721 C   0  0  0  0  0  0  0  0  0  0  0  0
  -30.2855  -18.1304   21.5847 C   0  0  0  0  0  0  0  0  0  0  0  0
  -25.2197  -13.7859   20.4370 C   0  0  0  0  0  0  0  0  0  0  0  0
  -32.1394  -18.2106   23.1310 C   0  0  0  0  0  0  0  0  0  0  0  0
  -22.9099  -13.4956   21.3476 C   0  0  0  0  0  0  0  0  0  0  0  0
  -29.2898  -22.9438   23.5229 C   0  0  0  0  0  0  0  0  0  0  0  0
  -28.8180  -25.3350   25.6634 C   0  0  0  0  0  0  0  0  0  0  0  0
  -34.1133  -18.0156   24.6828 C   0  0  0  0  0  0  0  0  0  0  0  0
  -29.3134  -26.5391   28.8180 C   0  0  0  0  0  0  0  0  0  0  0  0
  -30.7692  -14.7154   20.6595 C   0  0  0  0  0  0  0  0  0  0  0  0
  -28.1300  -25.5549   19.2927 C   0  0  0  0  0  0  0  0  0  0  0  0
  -28.3602  -21.6777   25.4950 C   0  0  0  0  0  0  0  0  0  0  0  0
  -30.4923  -23.5600   26.3050 C   0  0  0  0  0  0  0  0  0  0  0  0
  -29.1631  -18.1624   20.6186 C   0  0  0  0  0  0  0  0  0  0  0  0
  -28.9685  -25.8159   20.5413 C   0  0  0  0  0  0  0  0  0  0  0  0
  -29.4724  -12.5493   17.9894 C   0  0  0  0  0  0  0  0  0  0  0  0
  -29.8999  -24.6391   20.8144 C   0  0  0  0  0  0  0  0  0  0  0  0
  -28.0681  -12.2084   18.4931 C   0  0  0  0  0  0  0  0  0  0  0  0
  -29.0849  -16.6578   20.2169 C   0  0  0  0  0  0  0  0  0  0  0  0
  -30.4497  -12.7931   19.1374 C   0  0  0  0  0  0  0  0  0  0  0  0
  -28.5984  -13.4311   20.6321 C   0  0  0  0  0  0  0  0  0  0  0  0
  -29.1040  -23.3547   21.0759 C   0  0  1  0  0  0  0  0  0  0  0  0
  -28.5339  -23.0340   24.8183 C   0  0  1  0  0  0  0  0  0  0  0  0
  -27.5689  -13.2551   19.5081 C   0  0  2  0  0  0  0  0  0  0  0  0
  -28.8426  -28.5382   30.2600 C   0  0  0  0  0  0  0  0  0  0  0  0
  -33.4616  -17.5757   28.9286 C   0  0  0  0  0  0  0  0  0  0  0  0
  -31.0162  -26.8871   24.2250 C   0  0  0  0  0  0  0  0  0  0  0  0
  -31.1581  -28.3963   26.2176 C   0  0  0  0  0  0  0  0  0  0  0  0
  -29.0413  -28.2629   24.9045 C   0  0  0  0  0  0  0  0  0  0  0  0
  -27.7436  -24.9275   30.7408 C   0  0  0  0  0  0  0  0  0  0  0  0
  -34.9035  -18.9376   25.6034 C   0  0  0  0  0  0  0  0  0  0  0  0
  -34.8921  -18.5021   27.0712 C   0  0  0  0  0  0  0  0  0  0  0  0
  -29.7098  -26.3208   26.3788 C   0  0  1  0  0  0  0  0  0  0  0  0
  -28.3590  -27.1656   29.8184 C   0  0  2  0  0  0  0  0  0  0  0  0
  -33.4834  -18.4403   27.6745 C   0  0  2  0  0  0  0  0  0  1  0  0
  -30.2349  -27.4387   25.4343 C   0  0  0  0  0  0  0  0  0  0  0  0
  -25.8498  -11.6213   20.1822 N   0  0  0  0  0  0  0  0  0  0  0  0
  -26.1940  -12.9136   20.0498 N   0  0  0  0  0  0  0  0  0  0  0  0
  -30.2300  -15.9756   20.9155 N   0  0  0  0  0  0  0  0  0  0  0  0
  -29.2436  -23.9991   25.6604 N   0  0  0  0  0  0  0  0  0  0  0  0
  -29.9105  -13.7741   20.0775 N   0  0  0  0  0  0  0  0  0  0  0  0
  -25.3998  -15.1221   20.3697 N   0  0  0  0  0  0  0  0  0  0  0  0
  -21.9364  -12.5623   21.7292 N   0  0  0  0  0  0  0  0  0  0  0  0
  -33.0546  -18.6975   24.0233 N   0  0  0  0  0  0  0  0  0  0  0  0
  -28.5673  -23.3575   22.4200 N   0  0  0  0  0  0  0  0  0  0  0  0
  -28.9430  -26.8126   27.5183 N   0  0  0  0  0  0  0  0  0  0  0  0
  -28.2329  -26.3010   31.0257 N   0  3  0  0  0  0  0  0  0  0  0  0
  -22.6535  -14.7204   21.4342 O   0  0  0  0  0  0  0  0  0  0  0  0
  -30.4435  -22.5308   23.5240 O   0  0  0  0  0  0  0  0  0  0  0  0
  -27.7783  -25.7343   25.1330 O   0  0  0  0  0  0  0  0  0  0  0  0
  -34.4051  -16.8330   24.5380 O   0  0  0  0  0  0  0  0  0  0  0  0
  -30.2920  -25.8766   29.1557 O   0  0  0  0  0  0  0  0  0  0  0  0
  -31.9601  -14.4481   20.8617 O   0  0  0  0  0  0  0  0  0  0  0  0
  -21.7773   -6.9939   21.7794 O   0  0  0  0  0  0  0  0  0  0  0  0
  -33.0647  -19.7584   28.0184 O   0  0  0  0  0  0  0  0  0  1  0  0
  -19.0563   -6.7067   26.5666 F   0  0  0  0  0  0  0  0  0  0  0  0
  -19.7801   -8.8063   22.3866 F   0  0  0  0  0  0  0  0  0  0  0  0
  -30.9832  -19.3383   22.5086 S   0  0  0  0  0  0  0  0  0  0  0  0
  1  2  1  0  0  0  0
  1  5  2  0  0  0  0
  2  6  2  0  0  0  0
  3  8  2  0  0  0  0
  3 16  1  0  0  0  0
  4  9  1  0  0  0  0
  4 16  2  0  0  0  0
  5 18  1  0  0  0  0
  6 20  1  0  0  0  0
  7 10  2  0  0  0  0
  7 19  1  0  0  0  0
  8 23  1  0  0  0  0
  9 23  2  0  0  0  0
 10 24  1  0  0  0  0
 11 12  2  0  0  0  0
 11 25  1  0  0  0  0
 12 26  1  0  0  0  0
 13 21  1  0  0  0  0
 13 24  2  0  0  0  0
 14 22  1  0  0  0  0
 14 31  2  0  0  0  0
 15 26  2  0  0  0  0
 15 27  1  0  0  0  0
 16 28  1  0  0  0  0
 17 28  1  0  0  0  0
 17 30  2  0  0  0  0
 17 32  1  0  0  0  0
 18 20  2  0  0  0  0
 18 38  1  0  0  0  0
 19 21  2  0  0  0  0
 19 39  1  0  0  0  0
 20 49  1  0  0  0  0
 21 40  1  0  0  0  0
 22 29  2  0  0  0  0
 22 66  1  0  0  0  0
 23 81  1  0  0  0  0
 24 82  1  0  0  0  0
 25 27  2  0  0  0  0
 25 81  1  0  0  0  0
 26 83  1  0  0  0  0
 27 84  1  0  0  0  0
 28 64  2  0  0  0  0
 29 41  1  0  0  0  0
 29 85  1  0  0  0  0
 30 65  1  0  0  0  0
 30 69  1  0  0  0  0
 31 71  1  0  0  0  0
 31 85  1  0  0  0  0
 32 70  1  0  0  0  0
 32 75  2  0  0  0  0
 33 50  1  0  0  0  0
 33 72  1  0  0  0  0
 33 76  2  0  0  0  0
 34 60  1  0  0  0  0
 34 67  1  0  0  0  0
 34 77  2  0  0  0  0
 35 58  1  0  0  0  0
 35 71  1  0  0  0  0
 35 78  2  0  0  0  0
 36 61  1  0  0  0  0
 36 73  1  0  0  0  0
 36 79  2  0  0  0  0
 37 66  1  0  0  0  0
 37 68  1  0  0  0  0
 37 80  2  0  0  0  0
 38 42  1  0  0  0  0
 39 50  1  0  0  0  0
 40 67  1  0  0  0  0
 41 46  1  0  0  0  0
 42 44  1  0  0  0  0
 43 45  1  0  0  0  0
 43 47  1  0  0  0  0
 44 49  1  0  0  0  0
 45 51  1  0  0  0  0
 46 66  1  0  0  0  0
 47 68  1  0  0  0  0
 48 51  1  0  0  0  0
 48 68  1  0  0  0  0
 49 72  1  0  0  0  0
 50 67  1  0  0  0  0
 51 65  1  0  0  0  0
 52 61  1  0  0  0  0
 53 62  1  0  0  0  0
 54 63  1  0  0  0  0
 55 63  1  0  0  0  0
 56 63  1  0  0  0  0
 57 74  1  0  0  0  0
 58 59  1  0  0  0  0
 59 62  1  0  0  0  0
 60 63  1  0  0  0  0
 60 73  1  0  0  0  0
 61 74  1  0  0  0  0
 62 82  1  0  0  0  0
 64 65  1  0  0  0  0
M  CHG  1  74   1
M  ISO  4  37 100  62 101  66 100  82 101
M  END
> <Batch ID>
0145

> <Smiles>
CNC(C)C(=O)NC(C(=O)N1Cc2cc([101O:1][101CH:1](C)CCC(=O)Nc3cc4c(s3)CC[100N:0]4[100C:0](=O)N3CCCC(n4nc(-c5ccc(Oc6ccc(F)cc6F)cc5)c(C(N)=O)c4N)C3)ccc2CC1C(=O)NC1CCCc2ccccc21)C(C)(C)C

> <Shape>
0.210

> <Color>
0.176

> <Negative vol penalty>
0.000

$$$$

  -OEChem-04052303073D

 86 95  0     1  0  0  0  0  0999 V2000
  -19.3818   -9.1041   20.9582 C   0  0  0  0  0  0  0  0  0  0  0  0
  -19.5876  -10.3233   21.5958 C   0  0  0  0  0  0  0  0  0  0  0  0
  -24.6657  -29.9389   23.0098 C   0  0  0  0  0  0  0  0  0  0  0  0
  -23.9825  -30.9967   20.9479 C   0  0  0  0  0  0  0  0  0  0  0  0
  -20.4718   -8.3045   20.6169 C   0  0  0  0  0  0  0  0  0  0  0  0
  -20.8836  -10.7432   21.8935 C   0  0  0  0  0  0  0  0  0  0  0  0
  -21.6633  -15.6106   20.7337 C   0  0  0  0  0  0  0  0  0  0  0  0
  -24.8365  -31.1928   23.5965 C   0  0  0  0  0  0  0  0  0  0  0  0
  -24.1532  -32.2506   21.5347 C   0  0  0  0  0  0  0  0  0  0  0  0
  -21.1592  -16.5643   21.6170 C   0  0  0  0  0  0  0  0  0  0  0  0
  -27.1471  -33.6595   23.5730 C   0  0  0  0  0  0  0  0  0  0  0  0
  -28.3051  -33.8719   24.3211 C   0  0  0  0  0  0  0  0  0  0  0  0
  -23.3558  -16.8251   22.5794 C   0  0  0  0  0  0  0  0  0  0  0  0
  -25.8399  -23.2729   22.5606 C   0  0  0  0  0  0  0  0  0  0  0  0
  -26.9590  -34.3337   26.2735 C   0  0  0  0  0  0  0  0  0  0  0  0
  -25.7817  -22.5554   24.7706 C   0  0  0  0  0  0  0  0  0  0  0  0
  -24.2388  -29.8409   21.6855 C   0  0  0  0  0  0  0  0  0  0  0  0
  -22.8914  -27.7652   21.0660 C   0  0  0  0  0  0  0  0  0  0  0  0
  -21.7823   -8.7192   20.9019 C   0  0  0  0  0  0  0  0  0  0  0  0
  -23.0174  -15.2485   20.7740 C   0  0  0  0  0  0  0  0  0  0  0  0
  -21.9921   -9.9478   21.5568 C   0  0  0  0  0  0  0  0  0  0  0  0
  -23.8751  -15.8684   21.6939 C   0  0  0  0  0  0  0  0  0  0  0  0
  -25.0890  -23.1997   23.7693 C   0  0  0  0  0  0  0  0  0  0  0  0
  -24.5802  -32.3487   22.8590 C   0  0  0  0  0  0  0  0  0  0  0  0
  -22.0048  -17.1695   22.5420 C   0  0  0  0  0  0  0  0  0  0  0  0
  -25.8951  -33.7843   24.1751 C   0  0  0  0  0  0  0  0  0  0  0  0
  -28.2110  -34.2089   25.6713 C   0  0  0  0  0  0  0  0  0  0  0  0
  -25.8010  -34.1213   25.5254 C   0  0  0  0  0  0  0  0  0  0  0  0
  -24.0627  -28.5459   21.0787 C   0  0  0  0  0  0  0  0  0  0  0  0
  -27.0782  -22.6820   22.6843 C   0  0  0  0  0  0  0  0  0  0  0  0
  -23.2402  -26.6341   20.3692 C   0  0  0  0  0  0  0  0  0  0  0  0
  -21.6032  -28.0380   21.6334 C   0  0  0  0  0  0  0  0  0  0  0  0
  -24.6027  -12.5546   21.3515 C   0  0  0  0  0  0  0  0  0  0  0  0
  -21.6664  -20.4117   24.1068 C   0  0  0  0  0  0  0  0  0  0  0  0
  -27.1719  -14.3417   20.4986 C   0  0  0  0  0  0  0  0  0  0  0  0
  -28.5700  -17.4387   20.1807 C   0  0  0  0  0  0  0  0  0  0  0  0
  -28.4217  -23.8766   19.4687 C   0  0  0  0  0  0  0  0  0  0  0  0
  -22.9262   -7.7991   20.5562 C   0  0  0  0  0  0  0  0  0  0  0  0
  -23.5512  -14.2375   19.7965 C   0  0  0  0  0  0  0  0  0  0  0  0
  -25.3409  -15.5296   21.7643 C   0  0  0  0  0  0  0  0  0  0  0  0
  -24.2881   -8.4886   20.5701 C   0  0  0  0  0  0  0  0  0  0  0  0
  -26.2129  -25.0843   16.9526 C   0  0  0  0  0  0  0  0  0  0  0  0
  -24.4424   -9.3403   21.8261 C   0  0  0  0  0  0  0  0  0  0  0  0
  -25.3089  -26.0546   17.7164 C   0  0  0  0  0  0  0  0  0  0  0  0
  -27.6509  -25.1348   17.4630 C   0  0  0  0  0  0  0  0  0  0  0  0
  -29.4057  -23.2980   21.6717 C   0  0  0  0  0  0  0  0  0  0  0  0
  -26.8870  -25.8988   19.6884 C   0  0  0  0  0  0  0  0  0  0  0  0
  -23.3842  -10.4491   21.8742 C   0  0  1  0  0  0  0  0  0  0  0  0
  -28.0943  -22.6033   21.5755 C   0  0  2  0  0  0  0  0  0  0  0  0
  -24.8390  -13.5706   20.2701 C   0  0  1  0  0  0  0  0  0  0  0  0
  -25.4180  -25.8354   19.2370 C   0  0  1  0  0  0  0  0  0  0  0  0
  -30.6974  -18.5785   19.4932 C   0  0  0  0  0  0  0  0  0  0  0  0
  -28.4624  -13.5201   23.1386 C   0  0  0  0  0  0  0  0  0  0  0  0
  -30.1019  -15.3884   22.8384 C   0  0  0  0  0  0  0  0  0  0  0  0
  -30.0141  -13.5294   21.1773 C   0  0  0  0  0  0  0  0  0  0  0  0
  -22.5740  -22.3490   22.1325 C   0  0  0  0  0  0  0  0  0  0  0  0
  -21.2083  -23.6389   23.7779 C   0  0  0  0  0  0  0  0  0  0  0  0
  -27.2141  -18.9078   17.9985 C   0  0  0  0  0  0  0  0  0  0  0  0
  -23.6962  -23.7639   23.9320 C   0  0  0  0  0  0  0  0  0  0  0  0
  -22.4988  -21.6004   24.5635 C   0  0  0  0  0  0  0  0  0  0  0  0
  -22.4140  -19.1205   23.8390 C   0  0  0  0  0  0  0  0  0  1  0  0
  -28.1459  -15.2320   21.2320 C   0  0  1  0  0  0  0  0  0  0  0  0
  -29.3315  -18.0877   19.0391 C   0  0  2  0  0  0  0  0  0  0  0  0
  -29.1531  -14.4227   22.0968 C   0  0  0  0  0  0  0  0  0  0  0  0
  -22.5014  -22.8130   23.5998 C   0  0  0  0  0  0  0  0  0  0  0  0
  -25.0796  -27.9604   20.4407 N   0  0  0  0  0  0  0  0  0  0  0  0
  -24.5483  -26.7996   20.0207 N   0  0  0  0  0  0  0  0  0  0  0  0
  -25.8139  -14.5306   20.7918 N   0  0  0  0  0  0  0  0  0  0  0  0
  -27.6922  -24.9451   18.9127 N   0  0  0  0  0  0  0  0  0  0  0  0
  -28.3569  -23.8248   20.8599 N   0  0  0  0  0  0  0  0  0  0  0  0
  -22.5524  -25.5241   20.0268 N   0  0  0  0  0  0  0  0  0  0  0  0
  -21.4166  -29.2474   22.3166 N   0  0  0  0  0  0  0  0  0  0  0  0
  -23.7470  -11.5329   20.9863 N   0  0  0  0  0  0  0  0  0  0  0  0
  -28.7710  -16.0751   20.2186 N   0  0  0  0  0  0  0  0  0  0  0  0
  -28.5689  -19.2503   18.5026 N   0  3  0  0  0  0  0  0  0  0  0  0
  -20.6507  -27.2258   21.5515 O   0  0  0  0  0  0  0  0  0  0  0  0
  -25.1569  -12.6869   22.4364 O   0  0  0  0  0  0  0  0  0  0  0  0
  -20.4482  -20.5011   23.9573 O   0  0  0  0  0  0  0  0  0  0  0  0
  -27.5998  -13.5143   19.6900 O   0  0  0  0  0  0  0  0  0  0  0  0
  -27.8701  -18.0779   20.9631 O   0  0  0  0  0  0  0  0  0  0  0  0
  -29.0515  -23.0598   18.7914 O   0  0  0  0  0  0  0  0  0  0  0  0
  -24.7464  -33.5723   23.4312 O   0  0  0  0  0  0  0  0  0  0  0  0
  -21.5153  -18.1002   23.4057 O   0  0  0  0  0  0  0  0  0  1  0  0
  -29.3231  -34.4113   26.3900 F   0  0  0  0  0  0  0  0  0  0  0  0
  -24.6010  -34.2415   26.1096 F   0  0  0  0  0  0  0  0  0  0  0  0
  -27.3310  -22.0422   24.2524 S   0  0  0  0  0  0  0  0  0  0  0  0
  1  2  1  0  0  0  0
  1  5  2  0  0  0  0
  2  6  2  0  0  0  0
  3  8  2  0  0  0  0
  3 17  1  0  0  0  0
  4  9  1  0  0  0  0
  4 17  2  0  0  0  0
  5 19  1  0  0  0  0
  6 21  1  0  0  0  0
  7 10  2  0  0  0  0
  7 20  1  0  0  0  0
  8 24  1  0  0  0  0
  9 24  2  0  0  0  0
 10 25  1  0  0  0  0
 11 12  2  0  0  0  0
 11 26  1  0  0  0  0
 12 27  1  0  0  0  0
 13 22  1  0  0  0  0
 13 25  2  0  0  0  0
 14 23  1  0  0  0  0
 14 30  2  0  0  0  0
 15 27  2  0  0  0  0
 15 28  1  0  0  0  0
 16 23  2  0  0  0  0
 16 86  1  0  0  0  0
 17 29  1  0  0  0  0
 18 29  1  0  0  0  0
 18 31  2  0  0  0  0
 18 32  1  0  0  0  0
 19 21  2  0  0  0  0
 19 38  1  0  0  0  0
 20 22  2  0  0  0  0
 20 39  1  0  0  0  0
 21 48  1  0  0  0  0
 22 40  1  0  0  0  0
 23 59  1  0  0  0  0
 24 82  1  0  0  0  0
 25 83  1  0  0  0  0
 26 28  2  0  0  0  0
 26 82  1  0  0  0  0
 27 84  1  0  0  0  0
 28 85  1  0  0  0  0
 29 66  2  0  0  0  0
 30 49  1  0  0  0  0
 30 86  1  0  0  0  0
 31 67  1  0  0  0  0
 31 71  1  0  0  0  0
 32 72  1  0  0  0  0
 32 76  2  0  0  0  0
 33 50  1  0  0  0  0
 33 73  1  0  0  0  0
 33 77  2  0  0  0  0
 34 60  1  0  0  0  0
 34 61  1  0  0  0  0
 34 78  2  0  0  0  0
 35 62  1  0  0  0  0
 35 68  1  0  0  0  0
 35 79  2  0  0  0  0
 36 63  1  0  0  0  0
 36 74  1  0  0  0  0
 36 80  2  0  0  0  0
 37 69  1  0  0  0  0
 37 70  1  0  0  0  0
 37 81  2  0  0  0  0
 38 41  1  0  0  0  0
 39 50  1  0  0  0  0
 40 68  1  0  0  0  0
 41 43  1  0  0  0  0
 42 44  1  0  0  0  0
 42 45  1  0  0  0  0
 43 48  1  0  0  0  0
 44 51  1  0  0  0  0
 45 69  1  0  0  0  0
 46 49  1  0  0  0  0
 46 70  1  0  0  0  0
 47 51  1  0  0  0  0
 47 69  1  0  0  0  0
 48 73  1  0  0  0  0
 49 70  1  0  0  0  0
 50 68  1  0  0  0  0
 51 67  1  0  0  0  0
 52 63  1  0  0  0  0
 53 64  1  0  0  0  0
 54 64  1  0  0  0  0
 55 64  1  0  0  0  0
 56 65  1  0  0  0  0
 57 65  1  0  0  0  0
 58 75  1  0  0  0  0
 59 65  1  0  0  0  0
 60 65  1  0  0  0  0
 61 83  1  0  0  0  0
 62 64  1  0  0  0  0
 62 74  1  0  0  0  0
 63 75  1  0  0  0  0
 66 67  1  0  0  0  0
M  CHG  1  75   1
M  ISO  4  37 100  61 101  70 100  83 101
M  END
> <Batch ID>
0145

> <Smiles>
CNC(C)C(=O)NC(C(=O)N1Cc2cc([101O:1][101CH2:1]C(=O)CC(C)(C)Cc3csc(C4C[100N:0]4[100C:0](=O)N4CCCC(n5nc(-c6ccc(Oc7ccc(F)cc7F)cc6)c(C(N)=O)c5N)C4)c3)ccc2CC1C(=O)NC1CCCc2ccccc21)C(C)(C)C

> <Shape>
0.250

> <Color>
0.059

> <Negative vol penalty>
0.000

$$$$

  -OEChem-04052303073D

 84 92  0     1  0  0  0  0  0999 V2000
  -25.8706  -34.1730   25.8167 C   0  0  0  0  0  0  0  0  0  0  0  0
  -26.4480  -33.1145   25.1228 C   0  0  0  0  0  0  0  0  0  0  0  0
  -24.4347  -11.9699   19.9461 C   0  0  0  0  0  0  0  0  0  0  0  0
  -25.2526  -12.3177   22.1927 C   0  0  0  0  0  0  0  0  0  0  0  0
  -24.5647  -34.0634   26.2925 C   0  0  0  0  0  0  0  0  0  0  0  0
  -25.7201  -31.9452   24.9052 C   0  0  0  0  0  0  0  0  0  0  0  0
  -26.1601  -30.2379   20.1579 C   0  0  0  0  0  0  0  0  0  0  0  0
  -24.6332  -10.5964   20.0865 C   0  0  0  0  0  0  0  0  0  0  0  0
  -25.4510  -10.9442   22.3331 C   0  0  0  0  0  0  0  0  0  0  0  0
  -27.3335  -29.5595   19.8315 C   0  0  0  0  0  0  0  0  0  0  0  0
  -24.5854   -6.9630   19.9822 C   0  0  0  0  0  0  0  0  0  0  0  0
  -23.5705   -6.1129   19.5430 C   0  0  0  0  0  0  0  0  0  0  0  0
  -26.1816  -27.4557   20.0883 C   0  0  0  0  0  0  0  0  0  0  0  0
  -30.4122  -20.7616   22.7067 C   0  0  0  0  0  0  0  0  0  0  0  0
  -22.0375   -7.1359   21.1053 C   0  0  0  0  0  0  0  0  0  0  0  0
  -29.5352  -19.2329   24.2221 C   0  0  0  0  0  0  0  0  0  0  0  0
  -24.7445  -12.8306   20.9992 C   0  0  0  0  0  0  0  0  0  0  0  0
  -23.3759  -14.9769   21.1661 C   0  0  0  0  0  0  0  0  0  0  0  0
  -23.8170  -32.8959   26.0722 C   0  0  0  0  0  0  0  0  0  0  0  0
  -24.9894  -29.5288   20.4632 C   0  0  0  0  0  0  0  0  0  0  0  0
  -24.4033  -31.8194   25.3796 C   0  0  0  0  0  0  0  0  0  0  0  0
  -24.9939  -28.1275   20.4158 C   0  0  0  0  0  0  0  0  0  0  0  0
  -29.5798  -19.6217   22.9014 C   0  0  0  0  0  0  0  0  0  0  0  0
  -25.1413  -10.0836   21.2800 C   0  0  0  0  0  0  0  0  0  0  0  0
  -27.3452  -28.1681   19.7994 C   0  0  0  0  0  0  0  0  0  0  0  0
  -24.3264   -7.8995   20.9830 C   0  0  0  0  0  0  0  0  0  0  0  0
  -22.2965   -6.1994   20.1045 C   0  0  0  0  0  0  0  0  0  0  0  0
  -23.0525   -7.9860   21.5445 C   0  0  0  0  0  0  0  0  0  0  0  0
  -24.5403  -14.2496   20.8546 C   0  0  0  0  0  0  0  0  0  0  0  0
  -23.6888  -16.2769   20.8519 C   0  0  0  0  0  0  0  0  0  0  0  0
  -30.9721  -21.2008   23.8864 C   0  0  0  0  0  0  0  0  0  0  0  0
  -22.1235  -14.5185   21.6926 C   0  0  0  0  0  0  0  0  0  0  0  0
  -23.1214  -29.2788   23.0228 C   0  0  0  0  0  0  0  0  0  0  0  0
  -31.1776  -24.1281   22.6154 C   0  0  0  0  0  0  0  0  0  0  0  0
  -21.2626  -27.5375   21.0140 C   0  0  0  0  0  0  0  0  0  0  0  0
  -21.0459  -25.6148   18.2027 C   0  0  0  0  0  0  0  0  0  0  0  0
  -28.8517  -19.2663   20.5160 C   0  0  0  0  0  0  0  0  0  0  0  0
  -22.4254  -32.8059   26.6467 C   0  0  0  0  0  0  0  0  0  0  0  0
  -23.7249  -30.2760   20.7873 C   0  0  0  0  0  0  0  0  0  0  0  0
  -23.7584  -27.3199   20.7155 C   0  0  0  0  0  0  0  0  0  0  0  0
  -21.5915  -31.6758   26.0486 C   0  0  0  0  0  0  0  0  0  0  0  0
  -26.4545  -18.8579   17.9153 C   0  0  0  0  0  0  0  0  0  0  0  0
  -22.4017  -30.3844   25.9963 C   0  0  0  0  0  0  0  0  0  0  0  0
  -25.5819  -17.7000   18.4051 C   0  0  0  0  0  0  0  0  0  0  0  0
  -27.9217  -18.6613   18.2924 C   0  0  0  0  0  0  0  0  0  0  0  0
  -27.2945  -17.2427   20.2064 C   0  0  0  0  0  0  0  0  0  0  0  0
  -23.6372  -30.5442   25.1021 C   0  0  1  0  0  0  0  0  0  0  0  0
  -22.7252  -29.4420   21.5826 C   0  0  1  0  0  0  0  0  0  0  0  0
  -25.7979  -17.4275   19.9066 C   0  0  2  0  0  0  0  0  0  0  0  0
  -19.4012  -24.3008   16.8368 C   0  0  0  0  0  0  0  0  0  0  0  0
  -21.3182  -25.3080   23.0963 C   0  0  0  0  0  0  0  0  0  0  0  0
  -20.5038  -23.7323   21.3294 C   0  0  0  0  0  0  0  0  0  0  0  0
  -19.0922  -25.6711   22.0159 C   0  0  0  0  0  0  0  0  0  0  0  0
  -21.4959  -27.3093   15.8183 C   0  0  0  0  0  0  0  0  0  0  0  0
  -31.5101  -25.0882   21.4817 C   0  0  0  0  0  0  0  0  0  0  0  0
  -32.2602  -23.1242   22.9554 C   0  0  0  0  0  0  0  0  0  0  0  0
  -30.4256  -26.1319   21.2162 C   0  0  0  0  0  0  0  0  0  0  0  0
  -30.7956  -27.0779   20.0669 C   0  0  0  0  0  0  0  0  0  0  0  0
  -29.7230  -28.1335   19.8246 C   0  0  0  0  0  0  0  0  0  1  0  0
  -21.1714  -26.0787   20.6365 C   0  0  1  0  0  0  0  0  0  0  0  0
  -20.0801  -25.6475   17.0320 C   0  0  2  0  0  0  0  0  0  0  0  0
  -20.5453  -25.2124   21.7657 C   0  0  0  0  0  0  0  0  0  0  0  0
  -25.5197  -15.0232   20.3789 N   0  0  0  0  0  0  0  0  0  0  0  0
  -24.9714  -16.2501   20.3890 N   0  0  0  0  0  0  0  0  0  0  0  0
  -22.5485  -28.0961   21.0333 N   0  0  0  0  0  0  0  0  0  0  0  0
  -28.0495  -18.4122   19.7300 N   0  0  0  0  0  0  0  0  0  0  0  0
  -22.9891  -17.4288   20.9291 N   0  0  0  0  0  0  0  0  0  0  0  0
  -21.9712  -13.1510   21.9589 N   0  0  0  0  0  0  0  0  0  0  0  0
  -28.8710  -18.9506   21.8742 N   0  0  0  0  0  0  0  0  0  0  0  0
  -31.8264  -22.2830   24.0415 N   0  0  0  0  0  0  0  0  0  0  0  0
  -23.2634  -30.4715   23.7059 N   0  0  0  0  0  0  0  0  0  0  0  0
  -20.4447  -26.0287   19.3725 N   0  0  0  0  0  0  0  0  0  0  0  0
  -20.8011  -25.9969   15.7753 N   0  3  0  0  0  0  0  0  0  0  0  0
  -21.1623  -15.2961   21.9046 O   0  0  0  0  0  0  0  0  0  0  0  0
  -23.2846  -28.1539   23.4808 O   0  0  0  0  0  0  0  0  0  0  0  0
  -30.1136  -24.1835   23.2306 O   0  0  0  0  0  0  0  0  0  0  0  0
  -20.2303  -28.1603   21.2749 O   0  0  0  0  0  0  0  0  0  0  0  0
  -22.2156  -25.2543   18.0914 O   0  0  0  0  0  0  0  0  0  0  0  0
  -29.4538  -20.2246   20.0251 O   0  0  0  0  0  0  0  0  0  0  0  0
  -25.3348   -8.7433   21.4174 O   0  0  0  0  0  0  0  0  0  0  0  0
  -28.4894  -27.5035   19.4817 O   0  0  0  0  0  0  0  0  0  1  0  0
  -21.3216   -5.3840   19.6816 F   0  0  0  0  0  0  0  0  0  0  0  0
  -22.7974   -8.8845   22.5054 F   0  0  0  0  0  0  0  0  0  0  0  0
  -30.4942  -20.2403   25.2211 S   0  0  0  0  0  0  0  0  0  0  0  0
  1  2  1  0  0  0  0
  1  5  2  0  0  0  0
  2  6  2  0  0  0  0
  3  8  2  0  0  0  0
  3 17  1  0  0  0  0
  4  9  1  0  0  0  0
  4 17  2  0  0  0  0
  5 19  1  0  0  0  0
  6 21  1  0  0  0  0
  7 10  2  0  0  0  0
  7 20  1  0  0  0  0
  8 24  1  0  0  0  0
  9 24  2  0  0  0  0
 10 25  1  0  0  0  0
 11 12  2  0  0  0  0
 11 26  1  0  0  0  0
 12 27  1  0  0  0  0
 13 22  1  0  0  0  0
 13 25  2  0  0  0  0
 14 23  1  0  0  0  0
 14 31  2  0  0  0  0
 15 27  2  0  0  0  0
 15 28  1  0  0  0  0
 16 23  2  0  0  0  0
 16 84  1  0  0  0  0
 17 29  1  0  0  0  0
 18 29  1  0  0  0  0
 18 30  2  0  0  0  0
 18 32  1  0  0  0  0
 19 21  2  0  0  0  0
 19 38  1  0  0  0  0
 20 22  2  0  0  0  0
 20 39  1  0  0  0  0
 21 47  1  0  0  0  0
 22 40  1  0  0  0  0
 23 69  1  0  0  0  0
 24 80  1  0  0  0  0
 25 81  1  0  0  0  0
 26 28  2  0  0  0  0
 26 80  1  0  0  0  0
 27 82  1  0  0  0  0
 28 83  1  0  0  0  0
 29 63  2  0  0  0  0
 30 64  1  0  0  0  0
 30 67  1  0  0  0  0
 31 70  1  0  0  0  0
 31 84  1  0  0  0  0
 32 68  1  0  0  0  0
 32 74  2  0  0  0  0
 33 48  1  0  0  0  0
 33 71  1  0  0  0  0
 33 75  2  0  0  0  0
 34 55  1  0  0  0  0
 34 56  1  0  0  0  0
 34 76  2  0  0  0  0
 35 60  1  0  0  0  0
 35 65  1  0  0  0  0
 35 77  2  0  0  0  0
 36 61  1  0  0  0  0
 36 72  1  0  0  0  0
 36 78  2  0  0  0  0
 37 66  1  0  0  0  0
 37 69  1  0  0  0  0
 37 79  2  0  0  0  0
 38 41  1  0  0  0  0
 39 48  1  0  0  0  0
 40 65  1  0  0  0  0
 41 43  1  0  0  0  0
 42 44  1  0  0  0  0
 42 45  1  0  0  0  0
 43 47  1  0  0  0  0
 44 49  1  0  0  0  0
 45 66  1  0  0  0  0
 46 49  1  0  0  0  0
 46 66  1  0  0  0  0
 47 71  1  0  0  0  0
 48 65  1  0  0  0  0
 49 64  1  0  0  0  0
 50 61  1  0  0  0  0
 51 62  1  0  0  0  0
 52 62  1  0  0  0  0
 53 62  1  0  0  0  0
 54 73  1  0  0  0  0
 55 57  1  0  0  0  0
 56 70  1  0  0  0  0
 57 58  1  0  0  0  0
 58 59  1  0  0  0  0
 59 81  1  0  0  0  0
 60 62  1  0  0  0  0
 60 72  1  0  0  0  0
 61 73  1  0  0  0  0
 63 64  1  0  0  0  0
M  CHG  1  73   1
M  ISO  4  37 100  59 101  69 100  81 101
M  END
> <Batch ID>
0145

> <Smiles>
CNC(C)C(=O)NC(C(=O)N1Cc2cc([101O:1][101CH2:1]CCCC(=O)CNc3cc([100NH:0][100C:0](=O)N4CCCC(n5nc(-c6ccc(Oc7ccc(F)cc7F)cc6)c(C(N)=O)c5N)C4)cs3)ccc2CC1C(=O)NC1CCCc2ccccc21)C(C)(C)C

> <Shape>
0.242

> <Color>
0.093

> <Negative vol penalty>
0.000

$$$$

  -OEChem-04052303073D

 88 97  0     1  0  0  0  0  0999 V2000
  -29.8146  -36.5144   22.7811 C   0  0  0  0  0  0  0  0  0  0  0  0
  -29.9206  -35.3389   22.0447 C   0  0  0  0  0  0  0  0  0  0  0  0
  -21.9555  -13.6089   21.7596 C   0  0  0  0  0  0  0  0  0  0  0  0
  -22.9942  -11.9631   23.1912 C   0  0  0  0  0  0  0  0  0  0  0  0
  -29.0356  -36.5436   23.9371 C   0  0  0  0  0  0  0  0  0  0  0  0
  -29.2485  -34.1915   22.4644 C   0  0  0  0  0  0  0  0  0  0  0  0
  -26.7415  -29.8840   18.9055 C   0  0  0  0  0  0  0  0  0  0  0  0
  -20.8075  -13.5727   22.5509 C   0  0  0  0  0  0  0  0  0  0  0  0
  -21.8461  -11.9269   23.9826 C   0  0  0  0  0  0  0  0  0  0  0  0
  -27.1925  -28.6324   18.4886 C   0  0  0  0  0  0  0  0  0  0  0  0
  -20.4377  -13.8062   26.4126 C   0  0  0  0  0  0  0  0  0  0  0  0
  -20.6056  -13.8344   27.7970 C   0  0  0  0  0  0  0  0  0  0  0  0
  -25.9686  -27.5976   20.2915 C   0  0  0  0  0  0  0  0  0  0  0  0
  -30.6296  -19.1178   21.4087 C   0  0  0  0  0  0  0  0  0  0  0  0
  -19.4939  -11.6968   27.9754 C   0  0  0  0  0  0  0  0  0  0  0  0
  -23.0489  -12.8040   22.0797 C   0  0  0  0  0  0  0  0  0  0  0  0
  -24.3328  -12.5331   19.8920 C   0  0  0  0  0  0  0  0  0  0  0  0
  -28.3458  -35.3986   24.3659 C   0  0  0  0  0  0  0  0  0  0  0  0
  -25.9081  -30.0030   20.0270 C   0  0  0  0  0  0  0  0  0  0  0  0
  -28.4606  -34.2050   23.6279 C   0  0  0  0  0  0  0  0  0  0  0  0
  -25.5064  -28.8516   20.7191 C   0  0  0  0  0  0  0  0  0  0  0  0
  -30.5050  -20.4907   21.0487 C   0  0  0  0  0  0  0  0  0  0  0  0
  -20.7528  -12.7318   23.6624 C   0  0  0  0  0  0  0  0  0  0  0  0
  -26.8084  -27.4892   19.1833 C   0  0  0  0  0  0  0  0  0  0  0  0
  -19.7979  -12.7233   25.8096 C   0  0  0  0  0  0  0  0  0  0  0  0
  -20.1337  -12.7797   28.5784 C   0  0  0  0  0  0  0  0  0  0  0  0
  -19.3260  -11.6686   26.5909 C   0  0  0  0  0  0  0  0  0  0  0  0
  -24.2349  -12.8405   21.2623 C   0  0  0  0  0  0  0  0  0  0  0  0
  -29.2099  -20.8234   20.7179 C   0  0  0  0  0  0  0  0  0  0  0  0
  -25.6599  -12.7205   19.5920 C   0  0  0  0  0  0  0  0  0  0  0  0
  -29.4247  -18.4534   21.3395 C   0  0  0  0  0  0  0  0  0  0  0  0
  -23.3150  -12.1155   18.9725 C   0  0  0  0  0  0  0  0  0  0  0  0
  -26.1464  -31.4295   22.8575 C   0  0  0  0  0  0  0  0  0  0  0  0
  -23.0553  -30.4917   23.1544 C   0  0  0  0  0  0  0  0  0  0  0  0
  -21.1100  -27.5518   22.3862 C   0  0  0  0  0  0  0  0  0  0  0  0
  -29.9580  -16.0873   22.0203 C   0  0  0  0  0  0  0  0  0  0  0  0
  -27.5539  -35.4657   25.6477 C   0  0  0  0  0  0  0  0  0  0  0  0
  -25.4085  -31.3579   20.4479 C   0  0  0  0  0  0  0  0  0  0  0  0
  -24.5965  -28.9235   21.9172 C   0  0  0  0  0  0  0  0  0  0  0  0
  -26.5726  -34.3090   25.8187 C   0  0  0  0  0  0  0  0  0  0  0  0
  -30.0102  -12.5536   21.5874 C   0  0  0  0  0  0  0  0  0  0  0  0
  -27.2505  -32.9815   25.4946 C   0  0  0  0  0  0  0  0  0  0  0  0
  -27.2042  -22.3671   20.7585 C   0  0  0  0  0  0  0  0  0  0  0  0
  -28.7634  -22.3658   18.7614 C   0  0  0  0  0  0  0  0  0  0  0  0
  -26.6568  -23.7271   20.3263 C   0  0  0  0  0  0  0  0  0  0  0  0
  -28.2121  -23.7258   18.3342 C   0  0  0  0  0  0  0  0  0  0  0  0
  -28.5449  -12.1989   21.3241 C   0  0  0  0  0  0  0  0  0  0  0  0
  -30.1461  -13.6806   22.6097 C   0  0  0  0  0  0  0  0  0  0  0  0
  -27.9064  -14.5361   22.0430 C   0  0  0  0  0  0  0  0  0  0  0  0
  -27.7267  -32.9465   24.0374 C   0  0  1  0  0  0  0  0  0  0  0  0
  -28.6528  -22.1665   20.2824 C   0  0  0  0  0  0  0  0  0  0  0  0
  -24.9796  -31.4085   21.9110 C   0  0  1  0  0  0  0  0  0  0  0  0
  -26.7670  -23.9266   18.8091 C   0  0  0  0  0  0  0  0  0  0  0  0
  -27.7168  -13.4501   20.9714 C   0  0  2  0  0  0  0  0  0  0  0  0
  -31.6433  -21.4401   21.0356 C   0  0  0  0  0  0  0  0  0  0  0  0
  -18.6661  -27.3002   21.8750 C   0  0  0  0  0  0  0  0  0  0  0  0
  -22.7859  -29.9221   26.1398 C   0  0  0  0  0  0  0  0  0  0  0  0
  -21.0682  -28.1878   25.5830 C   0  0  0  0  0  0  0  0  0  0  0  0
  -20.6555  -30.5795   25.0068 C   0  0  0  0  0  0  0  0  0  0  0  0
  -24.8108  -26.5394   16.6822 C   0  0  0  0  0  0  0  0  0  0  0  0
  -27.1542  -25.8766   16.0922 C   0  0  0  0  0  0  0  0  0  0  0  0
  -25.3838  -24.1342   16.3492 C   0  0  0  0  0  0  0  0  0  0  0  0
  -21.6685  -26.1854   19.8210 C   0  0  0  0  0  0  0  0  0  0  0  0
  -22.3573  -29.2611   23.6811 C   0  0  1  0  0  0  0  0  0  0  0  0
  -20.0664  -27.4128   21.2925 C   0  0  2  0  0  0  0  0  0  0  0  0
  -26.2557  -25.3095   18.4091 C   0  0  2  0  0  0  0  0  0  1  0  0
  -21.7428  -29.4863   25.0915 C   0  0  0  0  0  0  0  0  0  0  0  0
  -25.9061  -25.4786   16.9008 C   0  0  0  0  0  0  0  0  0  0  0  0
  -25.4066  -13.1961   21.7959 N   0  0  0  0  0  0  0  0  0  0  0  0
  -26.2533  -13.1132   20.7555 N   0  0  0  0  0  0  0  0  0  0  0  0
  -24.1399  -30.2715   22.2935 N   0  0  0  0  0  0  0  0  0  0  0  0
  -29.3379  -14.8338   22.2075 N   0  0  0  0  0  0  0  0  0  0  0  0
  -26.3656  -12.5860   18.4490 N   0  0  0  0  0  0  0  0  0  0  0  0
  -23.0704  -10.7434   18.8246 N   0  0  0  0  0  0  0  0  0  0  0  0
  -29.0950  -17.1015   21.6066 N   0  0  0  0  0  0  0  0  0  0  0  0
  -26.6129  -32.6975   23.1476 N   0  0  0  0  0  0  0  0  0  0  0  0
  -21.3880  -28.8739   22.6619 N   0  0  0  0  0  0  0  0  0  0  0  0
  -20.3337  -26.1972   20.4729 N   0  3  0  0  0  0  0  0  0  0  0  0
  -22.6537  -12.9341   18.2898 O   0  0  0  0  0  0  0  0  0  0  0  0
  -26.5896  -30.3735   23.2936 O   0  0  0  0  0  0  0  0  0  0  0  0
  -22.6486  -31.6073   23.4886 O   0  0  0  0  0  0  0  0  0  0  0  0
  -21.6243  -26.5843   22.9429 O   0  0  0  0  0  0  0  0  0  0  0  0
  -31.1705  -16.2427   22.1865 O   0  0  0  0  0  0  0  0  0  0  0  0
  -19.6327  -12.6964   24.4349 O   0  0  0  0  0  0  0  0  0  0  0  0
  -27.2477  -26.2664   18.7789 O   0  0  0  0  0  0  0  0  0  1  0  0
  -20.2963  -12.8062   29.9077 F   0  0  0  0  0  0  0  0  0  0  0  0
  -18.7116  -10.6250   26.0172 F   0  0  0  0  0  0  0  0  0  0  0  0
  -28.1507  -19.4836   20.8420 S   0  0  0  0  0  0  0  0  0  0  0  0
  1  2  1  0  0  0  0
  1  5  2  0  0  0  0
  2  6  2  0  0  0  0
  3  8  2  0  0  0  0
  3 16  1  0  0  0  0
  4  9  1  0  0  0  0
  4 16  2  0  0  0  0
  5 18  1  0  0  0  0
  6 20  1  0  0  0  0
  7 10  2  0  0  0  0
  7 19  1  0  0  0  0
  8 23  1  0  0  0  0
  9 23  2  0  0  0  0
 10 24  1  0  0  0  0
 11 12  2  0  0  0  0
 11 25  1  0  0  0  0
 12 26  1  0  0  0  0
 13 21  1  0  0  0  0
 13 24  2  0  0  0  0
 14 22  1  0  0  0  0
 14 31  2  0  0  0  0
 15 26  2  0  0  0  0
 15 27  1  0  0  0  0
 16 28  1  0  0  0  0
 17 28  1  0  0  0  0
 17 30  2  0  0  0  0
 17 32  1  0  0  0  0
 18 20  2  0  0  0  0
 18 37  1  0  0  0  0
 19 21  2  0  0  0  0
 19 38  1  0  0  0  0
 20 50  1  0  0  0  0
 21 39  1  0  0  0  0
 22 29  2  0  0  0  0
 22 55  1  0  0  0  0
 23 84  1  0  0  0  0
 24 85  1  0  0  0  0
 25 27  2  0  0  0  0
 25 84  1  0  0  0  0
 26 86  1  0  0  0  0
 27 87  1  0  0  0  0
 28 69  2  0  0  0  0
 29 51  1  0  0  0  0
 29 88  1  0  0  0  0
 30 70  1  0  0  0  0
 30 73  1  0  0  0  0
 31 75  1  0  0  0  0
 31 88  1  0  0  0  0
 32 74  1  0  0  0  0
 32 79  2  0  0  0  0
 33 52  1  0  0  0  0
 33 76  1  0  0  0  0
 33 80  2  0  0  0  0
 34 64  1  0  0  0  0
 34 71  1  0  0  0  0
 34 81  2  0  0  0  0
 35 65  1  0  0  0  0
 35 77  1  0  0  0  0
 35 82  2  0  0  0  0
 36 72  1  0  0  0  0
 36 75  1  0  0  0  0
 36 83  2  0  0  0  0
 37 40  1  0  0  0  0
 38 52  1  0  0  0  0
 39 71  1  0  0  0  0
 40 42  1  0  0  0  0
 41 47  1  0  0  0  0
 41 48  1  0  0  0  0
 42 50  1  0  0  0  0
 43 45  1  0  0  0  0
 43 51  1  0  0  0  0
 44 46  1  0  0  0  0
 44 51  1  0  0  0  0
 45 53  1  0  0  0  0
 46 53  1  0  0  0  0
 47 54  1  0  0  0  0
 48 72  1  0  0  0  0
 49 54  1  0  0  0  0
 49 72  1  0  0  0  0
 50 76  1  0  0  0  0
 52 71  1  0  0  0  0
 53 66  1  0  0  0  0
 54 70  1  0  0  0  0
 56 65  1  0  0  0  0
 57 67  1  0  0  0  0
 58 67  1  0  0  0  0
 59 67  1  0  0  0  0
 60 68  1  0  0  0  0
 61 68  1  0  0  0  0
 62 68  1  0  0  0  0
 63 78  1  0  0  0  0
 64 67  1  0  0  0  0
 64 77  1  0  0  0  0
 65 78  1  0  0  0  0
 66 68  1  0  0  0  0
 66 85  1  0  0  0  0
 69 70  1  0  0  0  0
M  CHG  1  78   1
M  ISO  4  36 100  66 101  75 100  85 101
M  END
> <Batch ID>
0145

> <Smiles>
CNC(C)C(=O)NC(C(=O)N1Cc2cc([101O:1][101CH:1](C3CCC(c4sc([100NH:0][100C:0](=O)N5CCCC(n6nc(-c7ccc(Oc8ccc(F)cc8F)cc7)c(C(N)=O)c6N)C5)cc4C)CC3)C(C)(C)C)ccc2CC1C(=O)NC1CCCc2ccccc21)C(C)(C)C

> <Shape>
0.275

> <Color>
0.066

> <Negative vol penalty>
0.000

$$$$

  -OEChem-04052303073D

 84 92  0     1  0  0  0  0  0999 V2000
  -26.4571  -18.1008   29.1164 C   0  0  0  0  0  0  0  0  0  0  0  0
  -26.6519  -17.7547   27.7831 C   0  0  0  0  0  0  0  0  0  0  0  0
  -19.9127  -27.2712   22.2624 C   0  0  0  0  0  0  0  0  0  0  0  0
  -21.4204  -26.6539   20.4783 C   0  0  0  0  0  0  0  0  0  0  0  0
  -25.9679  -19.3649   29.4429 C   0  0  0  0  0  0  0  0  0  0  0  0
  -26.3565  -18.6722   26.7754 C   0  0  0  0  0  0  0  0  0  0  0  0
  -29.9647  -18.8915   23.2289 C   0  0  0  0  0  0  0  0  0  0  0  0
  -20.3891  -28.5812   22.2117 C   0  0  0  0  0  0  0  0  0  0  0  0
  -21.8967  -27.9639   20.4276 C   0  0  0  0  0  0  0  0  0  0  0  0
  -29.9889  -17.8693   22.2811 C   0  0  0  0  0  0  0  0  0  0  0  0
  -23.7657  -31.0607   20.0719 C   0  0  0  0  0  0  0  0  0  0  0  0
  -25.1457  -31.2461   19.9895 C   0  0  0  0  0  0  0  0  0  0  0  0
  -28.8693  -19.3123   20.7052 C   0  0  0  0  0  0  0  0  0  0  0  0
  -23.9050  -15.6463   21.6908 C   0  0  0  0  0  0  0  0  0  0  0  0
  -25.4266  -30.0892   22.0918 C   0  0  0  0  0  0  0  0  0  0  0  0
  -23.4001  -14.1285   20.1359 C   0  0  0  0  0  0  0  0  0  0  0  0
  -20.4284  -26.3075   21.3957 C   0  0  0  0  0  0  0  0  0  0  0  0
  -18.8584  -24.4126   20.7235 C   0  0  0  0  0  0  0  0  0  0  0  0
  -25.6755  -20.3018   28.4392 C   0  0  0  0  0  0  0  0  0  0  0  0
  -29.3820  -20.1302   22.9251 C   0  0  0  0  0  0  0  0  0  0  0  0
  -25.8617  -19.9496   27.0888 C   0  0  0  0  0  0  0  0  0  0  0  0
  -28.8413  -20.3494   21.6500 C   0  0  0  0  0  0  0  0  0  0  0  0
  -24.4531  -14.8353   20.6685 C   0  0  0  0  0  0  0  0  0  0  0  0
  -21.3810  -28.9276   21.2943 C   0  0  0  0  0  0  0  0  0  0  0  0
  -29.4386  -18.0786   21.0200 C   0  0  0  0  0  0  0  0  0  0  0  0
  -23.2161  -30.3897   21.1644 C   0  0  0  0  0  0  0  0  0  0  0  0
  -25.9762  -30.7603   20.9994 C   0  0  0  0  0  0  0  0  0  0  0  0
  -24.0466  -29.9039   22.1743 C   0  0  0  0  0  0  0  0  0  0  0  0
  -19.9372  -24.9540   21.4480 C   0  0  0  0  0  0  0  0  0  0  0  0
  -22.5561  -15.3774   21.7099 C   0  0  0  0  0  0  0  0  0  0  0  0
  -18.7986  -23.1006   21.1257 C   0  0  0  0  0  0  0  0  0  0  0  0
  -17.9882  -25.0395   19.7719 C   0  0  0  0  0  0  0  0  0  0  0  0
  -26.9351  -21.8008   24.0765 C   0  0  0  0  0  0  0  0  0  0  0  0
  -28.0203  -24.0661   22.0240 C   0  0  0  0  0  0  0  0  0  0  0  0
  -26.8959  -15.4416   20.7666 C   0  0  0  0  0  0  0  0  0  0  0  0
  -29.7732  -24.8087   19.1916 C   0  0  0  0  0  0  0  0  0  0  0  0
  -21.2668  -18.3321   22.1822 C   0  0  0  0  0  0  0  0  0  0  0  0
  -25.1040  -21.6392   28.8387 C   0  0  0  0  0  0  0  0  0  0  0  0
  -29.3878  -21.2315   23.9496 C   0  0  0  0  0  0  0  0  0  0  0  0
  -28.2220  -21.6678   21.2672 C   0  0  0  0  0  0  0  0  0  0  0  0
  -25.1699  -22.6857   27.7293 C   0  0  0  0  0  0  0  0  0  0  0  0
  -21.1475  -20.7052   24.9119 C   0  0  0  0  0  0  0  0  0  0  0  0
  -24.6864  -22.0948   26.4087 C   0  0  0  0  0  0  0  0  0  0  0  0
  -20.7296  -21.9845   24.1848 C   0  0  0  0  0  0  0  0  0  0  0  0
  -22.1005  -19.8715   24.0604 C   0  0  0  0  0  0  0  0  0  0  0  0
  -21.1571  -20.7999   21.9816 C   0  0  0  0  0  0  0  0  0  0  0  0
  -25.5763  -20.9262   25.9685 C   0  0  1  0  0  0  0  0  0  0  0  0
  -28.3090  -22.2818   23.7039 C   0  0  1  0  0  0  0  0  0  0  0  0
  -20.1754  -21.6757   22.7813 C   0  0  2  0  0  0  0  0  0  0  0  0
  -31.9587  -15.7044   20.6394 C   0  0  0  0  0  0  0  0  0  0  0  0
  -30.4536  -26.7443   17.7466 C   0  0  0  0  0  0  0  0  0  0  0  0
  -25.1990  -24.1924   20.8687 C   0  0  0  0  0  0  0  0  0  0  0  0
  -26.1421  -25.3843   18.8792 C   0  0  0  0  0  0  0  0  0  0  0  0
  -26.3136  -26.4140   21.1448 C   0  0  0  0  0  0  0  0  0  0  0  0
  -32.6504  -24.2932   19.6552 C   0  0  0  0  0  0  0  0  0  0  0  0
  -21.4420  -15.8809   22.5254 C   0  0  0  0  0  0  0  0  0  0  0  0
  -28.1725  -15.0457   20.0314 C   0  0  0  0  0  0  0  0  0  0  0  0
  -30.6964  -15.0066   20.1502 C   0  0  0  0  0  0  0  0  0  0  0  0
  -27.7549  -24.4153   20.5795 C   0  0  1  0  0  0  0  0  0  0  0  0
  -30.8429  -25.8491   18.9127 C   0  0  2  0  0  0  0  0  0  0  0  0
  -29.4213  -15.7415   20.5800 C   0  0  1  0  0  0  0  0  0  1  0  0
  -26.3623  -25.0759   20.3756 C   0  0  0  0  0  0  0  0  0  0  0  0
  -20.5206  -24.0592   22.2499 N   0  0  0  0  0  0  0  0  0  0  0  0
  -19.8057  -22.9423   22.0317 N   0  0  0  0  0  0  0  0  0  0  0  0
  -28.2463  -22.7113   22.3055 N   0  0  0  0  0  0  0  0  0  0  0  0
  -21.5056  -19.5969   22.7448 N   0  0  0  0  0  0  0  0  0  0  0  0
  -17.9833  -22.0787   20.7894 N   0  0  0  0  0  0  0  0  0  0  0  0
  -18.1891  -26.3941   19.4740 N   0  0  0  0  0  0  0  0  0  0  0  0
  -25.8035  -14.7464   20.2547 N   0  0  0  0  0  0  0  0  0  0  0  0
  -26.8122  -21.4186   25.3988 N   0  0  0  0  0  0  0  0  0  0  0  0
  -28.8771  -25.2408   20.1463 N   0  0  0  0  0  0  0  0  0  0  0  0
  -21.6317  -17.2448   22.9666 N   0  0  0  0  0  0  0  0  0  0  0  0
  -32.1369  -25.1864   18.5849 N   0  3  0  0  0  0  0  0  0  0  0  0
  -17.0497  -24.4210   19.2149 O   0  0  0  0  0  0  0  0  0  0  0  0
  -26.0516  -21.7794   23.2276 O   0  0  0  0  0  0  0  0  0  0  0  0
  -28.0338  -24.9634   22.8704 O   0  0  0  0  0  0  0  0  0  0  0  0
  -26.8939  -16.2642   21.6763 O   0  0  0  0  0  0  0  0  0  0  0  0
  -29.7341  -23.7229   18.6171 O   0  0  0  0  0  0  0  0  0  0  0  0
  -20.7605  -18.1825   21.0649 O   0  0  0  0  0  0  0  0  0  0  0  0
  -22.2403  -14.4533   20.7651 O   0  0  0  0  0  0  0  0  0  0  0  0
  -21.8459  -30.2058   21.2444 O   0  0  0  0  0  0  0  0  0  0  0  0
  -29.4602  -17.0824   20.0933 O   0  0  0  0  0  0  0  0  0  1  0  0
  -27.3015  -30.9370   20.9193 F   0  0  0  0  0  0  0  0  0  0  0  0
  -23.5246  -29.2575   23.2256 F   0  0  0  0  0  0  0  0  0  0  0  0
  1  2  1  0  0  0  0
  1  5  2  0  0  0  0
  2  6  2  0  0  0  0
  3  8  2  0  0  0  0
  3 17  1  0  0  0  0
  4  9  1  0  0  0  0
  4 17  2  0  0  0  0
  5 19  1  0  0  0  0
  6 21  1  0  0  0  0
  7 10  2  0  0  0  0
  7 20  1  0  0  0  0
  8 24  1  0  0  0  0
  9 24  2  0  0  0  0
 10 25  1  0  0  0  0
 11 12  2  0  0  0  0
 11 26  1  0  0  0  0
 12 27  1  0  0  0  0
 13 22  1  0  0  0  0
 13 25  2  0  0  0  0
 14 23  1  0  0  0  0
 14 30  2  0  0  0  0
 15 27  2  0  0  0  0
 15 28  1  0  0  0  0
 16 23  2  0  0  0  0
 16 80  1  0  0  0  0
 17 29  1  0  0  0  0
 18 29  1  0  0  0  0
 18 31  2  0  0  0  0
 18 32  1  0  0  0  0
 19 21  2  0  0  0  0
 19 38  1  0  0  0  0
 20 22  2  0  0  0  0
 20 39  1  0  0  0  0
 21 47  1  0  0  0  0
 22 40  1  0  0  0  0
 23 69  1  0  0  0  0
 24 81  1  0  0  0  0
 25 82  1  0  0  0  0
 26 28  2  0  0  0  0
 26 81  1  0  0  0  0
 27 83  1  0  0  0  0
 28 84  1  0  0  0  0
 29 63  2  0  0  0  0
 30 56  1  0  0  0  0
 30 80  1  0  0  0  0
 31 64  1  0  0  0  0
 31 67  1  0  0  0  0
 32 68  1  0  0  0  0
 32 74  2  0  0  0  0
 33 48  1  0  0  0  0
 33 70  1  0  0  0  0
 33 75  2  0  0  0  0
 34 59  1  0  0  0  0
 34 65  1  0  0  0  0
 34 76  2  0  0  0  0
 35 57  1  0  0  0  0
 35 69  1  0  0  0  0
 35 77  2  0  0  0  0
 36 60  1  0  0  0  0
 36 71  1  0  0  0  0
 36 78  2  0  0  0  0
 37 66  1  0  0  0  0
 37 72  1  0  0  0  0
 37 79  2  0  0  0  0
 38 41  1  0  0  0  0
 39 48  1  0  0  0  0
 40 65  1  0  0  0  0
 41 43  1  0  0  0  0
 42 44  1  0  0  0  0
 42 45  1  0  0  0  0
 43 47  1  0  0  0  0
 44 49  1  0  0  0  0
 45 66  1  0  0  0  0
 46 49  1  0  0  0  0
 46 66  1  0  0  0  0
 47 70  1  0  0  0  0
 48 65  1  0  0  0  0
 49 64  1  0  0  0  0
 50 58  1  0  0  0  0
 51 60  1  0  0  0  0
 52 62  1  0  0  0  0
 53 62  1  0  0  0  0
 54 62  1  0  0  0  0
 55 73  1  0  0  0  0
 56 72  1  0  0  0  0
 57 61  1  0  0  0  0
 58 61  1  0  0  0  0
 59 62  1  0  0  0  0
 59 71  1  0  0  0  0
 60 73  1  0  0  0  0
 61 82  1  0  0  0  0
 63 64  1  0  0  0  0
M  CHG  1  73   1
M  ISO  4  37 100  61 101  72 100  82 101
M  END
> <Batch ID>
0145

> <Smiles>
CC[101CH:1](CC(=O)Nc1coc(C[100NH:0][100C:0](=O)N2CCCC(n3nc(-c4ccc(Oc5ccc(F)cc5F)cc4)c(C(N)=O)c3N)C2)c1)[101O:1]c1ccc2c(c1)CN(C(=O)C(NC(=O)C(C)NC)C(C)(C)C)C(C(=O)NC1CCCc3ccccc31)C2

> <Shape>
0.190

> <Color>
0.057

> <Negative vol penalty>
0.000

$$$$

  -OEChem-04052303073D

 94102  0     1  0  0  0  0  0999 V2000
  -16.5195  -29.2422   23.0542 C   0  0  0  0  0  0  0  0  0  0  0  0
  -17.2403  -28.0527   23.0858 C   0  0  0  0  0  0  0  0  0  0  0  0
  -31.6698  -21.7790   20.5308 C   0  0  0  0  0  0  0  0  0  0  0  0
  -29.3083  -21.3649   20.2332 C   0  0  0  0  0  0  0  0  0  0  0  0
  -17.1923  -30.4625   23.0084 C   0  0  0  0  0  0  0  0  0  0  0  0
  -18.6343  -28.0828   23.0705 C   0  0  0  0  0  0  0  0  0  0  0  0
  -22.4317  -24.2232   25.9322 C   0  0  0  0  0  0  0  0  0  0  0  0
  -31.4683  -23.1303   20.2499 C   0  0  0  0  0  0  0  0  0  0  0  0
  -29.1067  -22.7162   19.9523 C   0  0  0  0  0  0  0  0  0  0  0  0
  -23.1383  -23.1044   25.4930 C   0  0  0  0  0  0  0  0  0  0  0  0
  -28.8377  -25.6055   21.6844 C   0  0  0  0  0  0  0  0  0  0  0  0
  -27.7561  -26.2388   22.2965 C   0  0  0  0  0  0  0  0  0  0  0  0
  -25.0895  -24.4801   25.1468 C   0  0  0  0  0  0  0  0  0  0  0  0
  -24.2233  -12.2781   21.1996 C   0  0  0  0  0  0  0  0  0  0  0  0
  -26.1191  -12.3819   19.7057 C   0  0  0  0  0  0  0  0  0  0  0  0
  -25.1304  -14.4198   20.5460 C   0  0  0  0  0  0  0  0  0  0  0  0
  -26.8301  -26.7556   20.1256 C   0  0  0  0  0  0  0  0  0  0  0  0
  -30.5898  -20.8963   20.5224 C   0  0  0  0  0  0  0  0  0  0  0  0
  -31.3191  -18.9460   21.9962 C   0  0  0  0  0  0  0  0  0  0  0  0
  -18.5953  -30.5080   23.0023 C   0  0  0  0  0  0  0  0  0  0  0  0
  -23.0465  -25.4829   25.9717 C   0  0  0  0  0  0  0  0  0  0  0  0
  -19.3264  -29.3049   23.0232 C   0  0  0  0  0  0  0  0  0  0  0  0
  -24.3893  -25.6128   25.5893 C   0  0  0  0  0  0  0  0  0  0  0  0
  -25.1847  -11.6334   20.4215 C   0  0  0  0  0  0  0  0  0  0  0  0
  -24.1960  -13.6714   21.2618 C   0  0  0  0  0  0  0  0  0  0  0  0
  -26.0919  -13.7751   19.7679 C   0  0  0  0  0  0  0  0  0  0  0  0
  -30.1867  -23.5989   19.9607 C   0  0  0  0  0  0  0  0  0  0  0  0
  -24.4665  -23.2333   25.0975 C   0  0  0  0  0  0  0  0  0  0  0  0
  -28.9156  -25.5473   20.2929 C   0  0  0  0  0  0  0  0  0  0  0  0
  -26.7523  -26.8138   21.5171 C   0  0  0  0  0  0  0  0  0  0  0  0
  -27.9118  -26.1223   19.5135 C   0  0  0  0  0  0  0  0  0  0  0  0
  -30.7975  -19.5001   20.8119 C   0  0  0  0  0  0  0  0  0  0  0  0
  -31.3133  -17.5908   21.7728 C   0  0  0  0  0  0  0  0  0  0  0  0
  -31.7687  -19.5979   23.1914 C   0  0  0  0  0  0  0  0  0  0  0  0
  -22.5337  -28.2751   24.5417 C   0  0  0  0  0  0  0  0  0  0  0  0
  -24.8853  -29.2856   26.5345 C   0  0  0  0  0  0  0  0  0  0  0  0
  -27.6079  -28.4996   28.4362 C   0  0  0  0  0  0  0  0  0  0  0  0
  -28.0612  -14.0529   18.2215 C   0  0  0  0  0  0  0  0  0  0  0  0
  -19.2777  -31.8494   22.9044 C   0  0  0  0  0  0  0  0  0  0  0  0
  -22.2786  -26.6751   26.4733 C   0  0  0  0  0  0  0  0  0  0  0  0
  -25.1013  -26.9393   25.6323 C   0  0  0  0  0  0  0  0  0  0  0  0
  -20.7594  -31.8070   23.2694 C   0  0  0  0  0  0  0  0  0  0  0  0
  -31.6068  -14.3776   18.2340 C   0  0  0  0  0  0  0  0  0  0  0  0
  -21.4454  -30.6314   22.5808 C   0  0  0  0  0  0  0  0  0  0  0  0
  -31.8494  -15.6744   19.0095 C   0  0  0  0  0  0  0  0  0  0  0  0
  -30.3559  -14.4642   17.3613 C   0  0  0  0  0  0  0  0  0  0  0  0
  -29.3777  -16.1739   18.8409 C   0  0  0  0  0  0  0  0  0  0  0  0
  -20.8397  -29.2972   23.0330 C   0  0  1  0  0  0  0  0  0  0  0  0
  -22.8502  -28.0026   25.9851 C   0  0  1  0  0  0  0  0  0  0  0  0
  -30.5905  -16.1120   19.7837 C   0  0  2  0  0  0  0  0  0  0  0  0
  -25.2136  -10.1438   20.3549 C   0  0  0  0  0  0  0  0  0  0  0  0
  -29.3431  -29.5434   29.9184 C   0  0  0  0  0  0  0  0  0  0  0  0
  -22.3476  -17.2824   26.3128 C   0  0  0  0  0  0  0  0  0  0  0  0
  -24.6618  -14.2256   24.1791 C   0  0  0  0  0  0  0  0  0  0  0  0
  -22.2947  -15.2811   21.1963 C   0  0  0  0  0  0  0  0  0  0  0  0
  -26.3342  -30.3636   24.0751 C   0  0  0  0  0  0  0  0  0  0  0  0
  -28.4165  -30.5196   25.4564 C   0  0  0  0  0  0  0  0  0  0  0  0
  -26.4094  -31.8667   26.0725 C   0  0  0  0  0  0  0  0  0  0  0  0
  -24.9405  -18.5363   27.2336 C   0  0  0  0  0  0  0  0  0  0  0  0
  -26.6454  -17.4022   25.8294 C   0  0  0  0  0  0  0  0  0  0  0  0
  -27.1014  -20.4425   26.0967 C   0  0  0  0  0  0  0  0  0  0  0  0
  -26.5188  -19.7486   23.7881 C   0  0  0  0  0  0  0  0  0  0  0  0
  -26.7448  -26.8978   30.7703 C   0  0  0  0  0  0  0  0  0  0  0  0
  -22.7913  -15.8940   24.2443 C   0  0  0  0  0  0  0  0  0  0  0  0
  -24.3550  -17.8071   24.8442 C   0  0  0  0  0  0  0  0  0  0  0  0
  -24.7846  -20.8797   25.2212 C   0  0  0  0  0  0  0  0  0  1  0  0
  -26.3907  -29.3678   26.4566 C   0  0  1  0  0  0  0  0  0  0  0  0
  -27.9819  -28.8678   29.8606 C   0  0  2  0  0  0  0  0  0  0  0  0
  -23.4420  -16.6813   25.4150 C   0  0  1  0  0  0  0  0  0  0  0  0
  -23.8024  -15.1662   23.3103 C   0  0  2  0  0  0  0  0  0  0  0  0
  -23.1364  -14.3817   22.1195 C   0  0  2  0  0  0  0  0  0  0  0  0
  -26.8740  -30.5046   25.5124 C   0  0  0  0  0  0  0  0  0  0  0  0
  -25.4656  -18.4108   25.7847 C   0  0  0  0  0  0  0  0  0  0  0  0
  -25.9574  -19.8507   25.2303 C   0  0  0  0  0  0  0  0  0  0  0  0
  -30.4833  -18.5728   19.9035 N   0  0  0  0  0  0  0  0  0  0  0  0
  -30.8085  -17.4222   20.5171 N   0  0  0  0  0  0  0  0  0  0  0  0
  -24.3060  -28.0764   26.1242 N   0  0  0  0  0  0  0  0  0  0  0  0
  -29.2029  -14.8798   18.1630 N   0  0  0  0  0  0  0  0  0  0  0  0
  -31.6909  -16.5389   22.5300 N   0  0  0  0  0  0  0  0  0  0  0  0
  -30.8405  -19.8295   24.2157 N   0  0  0  0  0  0  0  0  0  0  0  0
  -27.0412  -14.5355   19.0409 N   0  0  0  0  0  0  0  0  0  0  0  0
  -21.3360  -28.9351   24.3433 N   0  0  0  0  0  0  0  0  0  0  0  0
  -26.8645  -29.4906   27.8309 N   0  0  0  0  0  0  0  0  0  0  0  0
  -28.0256  -27.6485   30.7163 N   0  3  0  0  0  0  0  0  0  0  0  0
  -32.9545  -19.9790   23.3399 O   0  0  0  0  0  0  0  0  0  0  0  0
  -23.3187  -27.9145   23.6725 O   0  0  0  0  0  0  0  0  0  0  0  0
  -24.2474  -30.2557   26.9509 O   0  0  0  0  0  0  0  0  0  0  0  0
  -27.9450  -27.4405   27.9116 O   0  0  0  0  0  0  0  0  0  0  0  0
  -28.0040  -12.9814   17.6128 O   0  0  0  0  0  0  0  0  0  0  0  0
  -22.2355  -13.4055   22.6638 O   0  0  0  0  0  0  0  0  0  0  0  0
  -29.9896  -24.9175   19.6867 O   0  0  0  0  0  0  0  0  0  0  0  0
  -25.1623  -22.1366   24.6653 O   0  0  0  0  0  0  0  0  0  1  0  0
  -25.7129  -27.4205   22.1051 F   0  0  0  0  0  0  0  0  0  0  0  0
  -27.9805  -26.0685   18.1763 F   0  0  0  0  0  0  0  0  0  0  0  0
  1  2  1  0  0  0  0
  1  5  2  0  0  0  0
  2  6  2  0  0  0  0
  3  8  2  0  0  0  0
  3 18  1  0  0  0  0
  4  9  1  0  0  0  0
  4 18  2  0  0  0  0
  5 20  1  0  0  0  0
  6 22  1  0  0  0  0
  7 10  2  0  0  0  0
  7 21  1  0  0  0  0
  8 27  1  0  0  0  0
  9 27  2  0  0  0  0
 10 28  1  0  0  0  0
 11 12  2  0  0  0  0
 11 29  1  0  0  0  0
 12 30  1  0  0  0  0
 13 23  1  0  0  0  0
 13 28  2  0  0  0  0
 14 24  2  0  0  0  0
 14 25  1  0  0  0  0
 15 24  1  0  0  0  0
 15 26  2  0  0  0  0
 16 25  2  0  0  0  0
 16 26  1  0  0  0  0
 17 30  2  0  0  0  0
 17 31  1  0  0  0  0
 18 32  1  0  0  0  0
 19 32  1  0  0  0  0
 19 33  2  0  0  0  0
 19 34  1  0  0  0  0
 20 22  2  0  0  0  0
 20 39  1  0  0  0  0
 21 23  2  0  0  0  0
 21 40  1  0  0  0  0
 22 48  1  0  0  0  0
 23 41  1  0  0  0  0
 24 51  1  0  0  0  0
 25 71  1  0  0  0  0
 26 81  1  0  0  0  0
 27 91  1  0  0  0  0
 28 92  1  0  0  0  0
 29 31  2  0  0  0  0
 29 91  1  0  0  0  0
 30 93  1  0  0  0  0
 31 94  1  0  0  0  0
 32 75  2  0  0  0  0
 33 76  1  0  0  0  0
 33 79  1  0  0  0  0
 34 80  1  0  0  0  0
 34 85  2  0  0  0  0
 35 49  1  0  0  0  0
 35 82  1  0  0  0  0
 35 86  2  0  0  0  0
 36 67  1  0  0  0  0
 36 77  1  0  0  0  0
 36 87  2  0  0  0  0
 37 68  1  0  0  0  0
 37 83  1  0  0  0  0
 37 88  2  0  0  0  0
 38 78  1  0  0  0  0
 38 81  1  0  0  0  0
 38 89  2  0  0  0  0
 39 42  1  0  0  0  0
 40 49  1  0  0  0  0
 41 77  1  0  0  0  0
 42 44  1  0  0  0  0
 43 45  1  0  0  0  0
 43 46  1  0  0  0  0
 44 48  1  0  0  0  0
 45 50  1  0  0  0  0
 46 78  1  0  0  0  0
 47 50  1  0  0  0  0
 47 78  1  0  0  0  0
 48 82  1  0  0  0  0
 49 77  1  0  0  0  0
 50 76  1  0  0  0  0
 52 68  1  0  0  0  0
 53 69  1  0  0  0  0
 54 70  1  0  0  0  0
 55 71  1  0  0  0  0
 56 72  1  0  0  0  0
 57 72  1  0  0  0  0
 58 72  1  0  0  0  0
 59 73  1  0  0  0  0
 60 73  1  0  0  0  0
 61 74  1  0  0  0  0
 62 74  1  0  0  0  0
 63 84  1  0  0  0  0
 64 69  1  0  0  0  0
 64 70  1  0  0  0  0
 65 69  1  0  0  0  0
 65 73  1  0  0  0  0
 66 74  1  0  0  0  0
 66 92  1  0  0  0  0
 67 72  1  0  0  0  0
 67 83  1  0  0  0  0
 68 84  1  0  0  0  0
 70 71  1  0  0  0  0
 71 90  1  0  0  0  0
 73 74  1  0  0  0  0
 75 76  1  0  0  0  0
M  CHG  1  84   1
M  ISO  4  38 100  66 101  81 100  92 101
M  END
> <Batch ID>
0145

> <Smiles>
CNC(C)C(=O)NC(C(=O)N1Cc2cc([101O:1][101CH2:1]C(C)(C)C(C)(C)CC(C)CC(C)C(C)(O)c3cc(C)cc([100NH:0][100C:0](=O)N4CCCC(n5nc(-c6ccc(Oc7ccc(F)cc7F)cc6)c(C(N)=O)c5N)C4)c3)ccc2CC1C(=O)NC1CCCc2ccccc21)C(C)(C)C

> <Shape>
0.215

> <Color>
0.068

> <Negative vol penalty>
0.000

$$$$

  -OEChem-04052303073D

 86 95  0     1  0  0  0  0  0999 V2000
  -25.9086  -34.7240   17.4918 C   0  0  0  0  0  0  0  0  0  0  0  0
  -26.7946  -33.6591   17.3634 C   0  0  0  0  0  0  0  0  0  0  0  0
  -23.1607   -9.9105   19.9250 C   0  0  0  0  0  0  0  0  0  0  0  0
  -23.9478   -9.9021   22.2092 C   0  0  0  0  0  0  0  0  0  0  0  0
  -25.2319  -34.9252   18.6940 C   0  0  0  0  0  0  0  0  0  0  0  0
  -27.0053  -32.7955   18.4377 C   0  0  0  0  0  0  0  0  0  0  0  0
  -28.1056  -26.7773   18.1622 C   0  0  0  0  0  0  0  0  0  0  0  0
  -22.4743   -8.7187   20.1571 C   0  0  0  0  0  0  0  0  0  0  0  0
  -23.2614   -8.7102   22.4413 C   0  0  0  0  0  0  0  0  0  0  0  0
  -29.2842  -26.0353   18.2263 C   0  0  0  0  0  0  0  0  0  0  0  0
  -19.5844   -7.7533   21.6232 C   0  0  0  0  0  0  0  0  0  0  0  0
  -18.2752   -7.6569   21.1518 C   0  0  0  0  0  0  0  0  0  0  0  0
  -28.9234  -25.6771   20.5844 C   0  0  0  0  0  0  0  0  0  0  0  0
  -31.5297  -17.9640   21.7771 C   0  0  0  0  0  0  0  0  0  0  0  0
  -18.9081   -5.7719   19.7795 C   0  0  0  0  0  0  0  0  0  0  0  0
  -30.1873  -19.1249   23.1286 C   0  0  0  0  0  0  0  0  0  0  0  0
  -23.8975  -10.5022   20.9510 C   0  0  0  0  0  0  0  0  0  0  0  0
  -24.1203  -13.0426   20.8846 C   0  0  0  0  0  0  0  0  0  0  0  0
  -25.4271  -34.0579   19.7805 C   0  0  0  0  0  0  0  0  0  0  0  0
  -27.3314  -26.9842   19.3129 C   0  0  0  0  0  0  0  0  0  0  0  0
  -26.3316  -32.9861   19.6561 C   0  0  0  0  0  0  0  0  0  0  0  0
  -27.7340  -26.4199   20.5317 C   0  0  0  0  0  0  0  0  0  0  0  0
  -31.4188  -19.1652   22.5175 C   0  0  0  0  0  0  0  0  0  0  0  0
  -22.5246   -8.1185   21.4152 C   0  0  0  0  0  0  0  0  0  0  0  0
  -29.6948  -25.4875   19.4381 C   0  0  0  0  0  0  0  0  0  0  0  0
  -20.5555   -6.8591   21.1726 C   0  0  0  0  0  0  0  0  0  0  0  0
  -17.9370   -6.6662   20.2300 C   0  0  0  0  0  0  0  0  0  0  0  0
  -20.2173   -5.8684   20.2508 C   0  0  0  0  0  0  0  0  0  0  0  0
  -24.6073  -11.7331   20.7117 C   0  0  0  0  0  0  0  0  0  0  0  0
  -25.1719  -13.8501   20.5261 C   0  0  0  0  0  0  0  0  0  0  0  0
  -30.3581  -17.2752   21.9888 C   0  0  0  0  0  0  0  0  0  0  0  0
  -22.8325  -13.4892   21.3295 C   0  0  0  0  0  0  0  0  0  0  0  0
  -26.4225  -29.5361   20.9760 C   0  0  0  0  0  0  0  0  0  0  0  0
  -24.6695  -27.3570   22.6195 C   0  0  0  0  0  0  0  0  0  0  0  0
  -24.2424  -24.1090   23.5758 C   0  0  0  0  0  0  0  0  0  0  0  0
  -30.5855  -15.1455   20.6627 C   0  0  0  0  0  0  0  0  0  0  0  0
  -24.7088  -34.3435   21.0755 C   0  0  0  0  0  0  0  0  0  0  0  0
  -26.0487  -27.7645   19.2217 C   0  0  0  0  0  0  0  0  0  0  0  0
  -26.9280  -26.5958   21.7918 C   0  0  0  0  0  0  0  0  0  0  0  0
  -24.7054  -33.1629   22.0433 C   0  0  0  0  0  0  0  0  0  0  0  0
  -29.5550  -12.7356   18.2528 C   0  0  0  0  0  0  0  0  0  0  0  0
  -26.1001  -32.5538   22.1471 C   0  0  0  0  0  0  0  0  0  0  0  0
  -28.1358  -12.3677   18.6919 C   0  0  0  0  0  0  0  0  0  0  0  0
  -32.3805  -22.3443   19.5708 C   0  0  0  0  0  0  0  0  0  0  0  0
  -30.4733  -12.9801   19.4489 C   0  0  0  0  0  0  0  0  0  0  0  0
  -28.5521  -13.5838   20.8678 C   0  0  0  0  0  0  0  0  0  0  0  0
  -31.7954  -21.1758   20.3518 C   0  0  0  0  0  0  0  0  0  0  0  0
  -26.5682  -32.0130   20.7907 C   0  0  1  0  0  0  0  0  0  0  0  0
  -25.6058  -28.3450   20.5611 C   0  0  1  0  0  0  0  0  0  0  0  0
  -27.5738  -13.3916   19.6975 C   0  0  2  0  0  0  0  0  0  0  0  0
  -32.5623  -23.4816   20.5906 C   0  0  1  0  0  0  0  0  0  0  0  0
  -33.0081  -22.7018   21.8722 C   0  0  0  0  0  0  0  0  0  0  0  0
  -33.5946  -24.5009   20.0864 C   0  0  0  0  0  0  0  0  0  0  0  0
  -34.4774  -22.2358   21.8351 C   0  0  0  0  0  0  0  0  0  0  0  0
  -32.7519  -23.4520   23.1862 C   0  0  0  0  0  0  0  0  0  0  0  0
  -22.7409  -22.6413   24.9501 C   0  0  0  0  0  0  0  0  0  0  0  0
  -25.9640  -28.4235   25.1683 C   0  0  0  0  0  0  0  0  0  0  0  0
  -25.1843  -26.3565   26.3462 C   0  0  0  0  0  0  0  0  0  0  0  0
  -23.5194  -27.9344   25.3658 C   0  0  0  0  0  0  0  0  0  0  0  0
  -23.4814  -22.4852   21.2214 C   0  0  0  0  0  0  0  0  0  0  0  0
  -32.4370  -20.2627   22.6160 C   0  0  0  0  0  0  0  0  0  0  0  0
  -31.2180  -24.2278   20.7605 C   0  0  0  0  0  0  0  0  0  1  0  0
  -24.9084  -26.4853   23.8286 C   0  0  1  0  0  0  0  0  0  0  0  0
  -23.0201  -23.2088   23.5671 C   0  0  2  0  0  0  0  0  0  0  0  0
  -24.9104  -27.2981   25.1541 C   0  0  0  0  0  0  0  0  0  0  0  0
  -25.8699  -11.7057   20.2771 N   0  0  0  0  0  0  0  0  0  0  0  0
  -26.1853  -13.0080   20.1737 N   0  0  0  0  0  0  0  0  0  0  0  0
  -25.6848  -27.3721   21.6527 N   0  0  0  0  0  0  0  0  0  0  0  0
  -29.8780  -13.9639   20.3558 N   0  0  0  0  0  0  0  0  0  0  0  0
  -25.3194  -15.1913   20.4810 N   0  0  0  0  0  0  0  0  0  0  0  0
  -21.8681  -12.5265   21.6575 N   0  0  0  0  0  0  0  0  0  0  0  0
  -29.9061  -16.0209   21.5092 N   0  0  0  0  0  0  0  0  0  0  0  0
  -25.9365  -30.7420   20.5080 N   0  0  0  0  0  0  0  0  0  0  0  0
  -23.9023  -25.4301   23.7763 N   0  0  0  0  0  0  0  0  0  0  0  0
  -32.0725  -21.4756   21.8146 N   0  3  2  0  0  0  0  0  0  0  0  0
  -23.2206  -22.0721   22.6244 N   0  3  0  0  0  0  0  0  0  0  0  0
  -22.5401  -14.7058   21.4175 O   0  0  0  0  0  0  0  0  0  0  0  0
  -27.4189  -29.3732   21.6705 O   0  0  0  0  0  0  0  0  0  0  0  0
  -23.6175  -27.9954   22.5325 O   0  0  0  0  0  0  0  0  0  0  0  0
  -25.3850  -23.6823   23.4239 O   0  0  0  0  0  0  0  0  0  0  0  0
  -31.6996  -15.3771   20.1862 O   0  0  0  0  0  0  0  0  0  0  0  0
  -29.5344  -17.9760   22.8116 O   0  0  0  0  0  0  0  0  0  0  0  0
  -21.8547   -6.9556   21.6421 O   0  0  0  0  0  0  0  0  0  0  0  0
  -30.8581  -24.7553   19.5043 O   0  0  0  0  0  0  0  0  0  1  0  0
  -16.6793   -6.5728   19.7787 F   0  0  0  0  0  0  0  0  0  0  0  0
  -21.1457   -5.0056   19.8152 F   0  0  0  0  0  0  0  0  0  0  0  0
  1  2  1  0  0  0  0
  1  5  2  0  0  0  0
  2  6  2  0  0  0  0
  3  8  2  0  0  0  0
  3 17  1  0  0  0  0
  4  9  1  0  0  0  0
  4 17  2  0  0  0  0
  5 19  1  0  0  0  0
  6 21  1  0  0  0  0
  7 10  2  0  0  0  0
  7 20  1  0  0  0  0
  8 24  1  0  0  0  0
  9 24  2  0  0  0  0
 10 25  1  0  0  0  0
 11 12  2  0  0  0  0
 11 26  1  0  0  0  0
 12 27  1  0  0  0  0
 13 22  1  0  0  0  0
 13 25  2  0  0  0  0
 14 23  1  0  0  0  0
 14 31  2  0  0  0  0
 15 27  2  0  0  0  0
 15 28  1  0  0  0  0
 16 23  2  0  0  0  0
 16 82  1  0  0  0  0
 17 29  1  0  0  0  0
 18 29  1  0  0  0  0
 18 30  2  0  0  0  0
 18 32  1  0  0  0  0
 19 21  2  0  0  0  0
 19 37  1  0  0  0  0
 20 22  2  0  0  0  0
 20 38  1  0  0  0  0
 21 48  1  0  0  0  0
 22 39  1  0  0  0  0
 23 61  1  0  0  0  0
 24 83  1  0  0  0  0
 25 84  1  0  0  0  0
 26 28  2  0  0  0  0
 26 83  1  0  0  0  0
 27 85  1  0  0  0  0
 28 86  1  0  0  0  0
 29 66  2  0  0  0  0
 30 67  1  0  0  0  0
 30 70  1  0  0  0  0
 31 72  1  0  0  0  0
 31 82  1  0  0  0  0
 32 71  1  0  0  0  0
 32 77  2  0  0  0  0
 33 49  1  0  0  0  0
 33 73  1  0  0  0  0
 33 78  2  0  0  0  0
 34 63  1  0  0  0  0
 34 68  1  0  0  0  0
 34 79  2  0  0  0  0
 35 64  1  0  0  0  0
 35 74  1  0  0  0  0
 35 80  2  0  0  0  0
 36 69  1  0  0  0  0
 36 72  1  0  0  0  0
 36 81  2  0  0  0  0
 37 40  1  0  0  0  0
 38 49  1  0  0  0  0
 39 68  1  0  0  0  0
 40 42  1  0  0  0  0
 41 43  1  0  0  0  0
 41 45  1  0  0  0  0
 42 48  1  0  0  0  0
 43 50  1  0  0  0  0
 44 47  1  0  0  0  0
 44 51  1  0  0  0  0
 45 69  1  0  0  0  0
 46 50  1  0  0  0  0
 46 69  1  0  0  0  0
 47 75  1  0  0  0  0
 48 73  1  0  0  0  0
 49 68  1  0  0  0  0
 50 67  1  0  0  0  0
 51 52  1  0  0  0  0
 51 53  1  0  0  0  0
 51 62  1  0  0  0  0
 52 54  1  0  0  0  0
 52 55  1  0  0  0  0
 52 75  1  0  0  0  0
 56 64  1  0  0  0  0
 57 65  1  0  0  0  0
 58 65  1  0  0  0  0
 59 65  1  0  0  0  0
 60 76  1  0  0  0  0
 61 75  1  0  0  0  0
 62 84  1  0  0  0  0
 63 65  1  0  0  0  0
 63 74  1  0  0  0  0
 64 76  1  0  0  0  0
 66 67  1  0  0  0  0
M  CHG  2  75   1  76   1
M  ISO  4  36 100  62 101  72 100  84 101
M  END
> <Batch ID>
0145

> <Smiles>
CNC(C)C(=O)NC(C(=O)N1Cc2cc([101O:1][101CH2:1]C3(C)CCN(Cc4coc([100NH:0][100C:0](=O)N5CCCC(n6nc(-c7ccc(Oc8ccc(F)cc8F)cc7)c(C(N)=O)c6N)C5)c4)C3(C)C)ccc2CC1C(=O)NC1CCCc2ccccc21)C(C)(C)C

> <Shape>
0.238

> <Color>
0.199

> <Negative vol penalty>
0.000

$$$$

  -OEChem-04052303073D

 91 99  0     1  0  0  0  0  0999 V2000
  -34.5097  -31.3955   24.4129 C   0  0  0  0  0  0  0  0  0  0  0  0
  -35.1125  -30.1570   24.2173 C   0  0  0  0  0  0  0  0  0  0  0  0
  -23.0698   -9.8504   19.9426 C   0  0  0  0  0  0  0  0  0  0  0  0
  -23.8114   -9.8631   22.2419 C   0  0  0  0  0  0  0  0  0  0  0  0
  -33.1380  -31.4721   24.6506 C   0  0  0  0  0  0  0  0  0  0  0  0
  -34.3440  -28.9942   24.2605 C   0  0  0  0  0  0  0  0  0  0  0  0
  -35.1494  -23.9232   20.9226 C   0  0  0  0  0  0  0  0  0  0  0  0
  -31.8817  -18.3106   24.2303 C   0  0  0  0  0  0  0  0  0  0  0  0
  -30.4955  -18.3122   24.0752 C   0  0  0  0  0  0  0  0  0  0  0  0
  -22.3194   -8.7011   20.1910 C   0  0  0  0  0  0  0  0  0  0  0  0
  -23.0610   -8.7137   22.4903 C   0  0  0  0  0  0  0  0  0  0  0  0
  -35.7640  -22.7035   21.2029 C   0  0  0  0  0  0  0  0  0  0  0  0
  -19.9226   -5.9706   20.3106 C   0  0  0  0  0  0  0  0  0  0  0  0
  -18.6206   -5.9258   19.8121 C   0  0  0  0  0  0  0  0  0  0  0  0
  -33.6195  -21.7629   21.7822 C   0  0  0  0  0  0  0  0  0  0  0  0
  -32.0639  -16.5520   22.5838 C   0  0  0  0  0  0  0  0  0  0  0  0
  -18.0526   -7.8758   21.1205 C   0  0  0  0  0  0  0  0  0  0  0  0
  -23.8158  -10.4314   20.9681 C   0  0  0  0  0  0  0  0  0  0  0  0
  -24.1685  -12.9547   20.8414 C   0  0  0  0  0  0  0  0  0  0  0  0
  -32.3507  -30.3104   24.6871 C   0  0  0  0  0  0  0  0  0  0  0  0
  -33.7644  -24.0752   21.0808 C   0  0  0  0  0  0  0  0  0  0  0  0
  -32.9607  -29.0553   24.5002 C   0  0  0  0  0  0  0  0  0  0  0  0
  -32.9894  -22.9847   21.5008 C   0  0  0  0  0  0  0  0  0  0  0  0
  -32.6659  -17.4305   23.4846 C   0  0  0  0  0  0  0  0  0  0  0  0
  -29.8935  -17.4337   23.1744 C   0  0  0  0  0  0  0  0  0  0  0  0
  -30.6777  -16.5535   22.4287 C   0  0  0  0  0  0  0  0  0  0  0  0
  -22.3150   -8.1328   21.4648 C   0  0  0  0  0  0  0  0  0  0  0  0
  -34.9995  -21.6240   21.6355 C   0  0  0  0  0  0  0  0  0  0  0  0
  -20.2896   -6.9679   21.2141 C   0  0  0  0  0  0  0  0  0  0  0  0
  -17.6857   -6.8784   20.2170 C   0  0  0  0  0  0  0  0  0  0  0  0
  -19.3546   -7.9205   21.6190 C   0  0  0  0  0  0  0  0  0  0  0  0
  -24.5916  -11.6183   20.7121 C   0  0  0  0  0  0  0  0  0  0  0  0
  -25.2665  -13.6985   20.4841 C   0  0  0  0  0  0  0  0  0  0  0  0
  -22.8968  -13.4770   21.2483 C   0  0  0  0  0  0  0  0  0  0  0  0
  -31.9011  -25.8977   22.9002 C   0  0  0  0  0  0  0  0  0  0  0  0
  -37.0165  -17.9536   22.7209 C   0  0  0  0  0  0  0  0  0  0  0  0
  -29.5331  -24.5773   21.1194 C   0  0  0  0  0  0  0  0  0  0  0  0
  -28.4777  -21.9838   19.1685 C   0  0  0  0  0  0  0  0  0  0  0  0
  -30.7351  -14.7235   20.6983 C   0  0  0  0  0  0  0  0  0  0  0  0
  -30.8798  -30.4397   24.9943 C   0  0  0  0  0  0  0  0  0  0  0  0
  -33.1130  -25.3897   20.7487 C   0  0  0  0  0  0  0  0  0  0  0  0
  -31.4962  -23.0903   21.6671 C   0  0  0  0  0  0  0  0  0  0  0  0
  -30.0739  -29.1892   24.6522 C   0  0  0  0  0  0  0  0  0  0  0  0
  -29.6301  -12.3052   18.3303 C   0  0  0  0  0  0  0  0  0  0  0  0
  -30.7804  -27.9404   25.1703 C   0  0  0  0  0  0  0  0  0  0  0  0
  -28.1860  -12.0208   18.7495 C   0  0  0  0  0  0  0  0  0  0  0  0
  -30.5365  -12.5349   19.5383 C   0  0  0  0  0  0  0  0  0  0  0  0
  -28.6215  -13.2720   20.9017 C   0  0  0  0  0  0  0  0  0  0  0  0
  -32.1567  -27.7733   24.5151 C   0  0  1  0  0  0  0  0  0  0  0  0
  -31.7654  -25.5797   21.4380 C   0  0  1  0  0  0  0  0  0  0  0  0
  -27.6574  -13.0981   19.7168 C   0  0  2  0  0  0  0  0  0  0  0  0
  -27.9606  -18.1779   21.7614 C   0  0  0  0  0  0  0  0  0  0  0  0
  -26.4800  -21.1685   17.8870 C   0  0  0  0  0  0  0  0  0  0  0  0
  -38.7173  -16.7684   24.1050 C   0  0  0  0  0  0  0  0  0  0  0  0
  -37.1577  -15.4354   22.7242 C   0  0  0  0  0  0  0  0  0  0  0  0
  -28.1892  -23.7652   23.7356 C   0  0  0  0  0  0  0  0  0  0  0  0
  -26.7602  -22.1788   22.4282 C   0  0  0  0  0  0  0  0  0  0  0  0
  -26.6268  -24.6300   21.9849 C   0  0  0  0  0  0  0  0  0  0  0  0
  -34.2012  -16.8466   26.1313 C   0  0  0  0  0  0  0  0  0  0  0  0
  -34.3736  -15.0128   24.4677 C   0  0  0  0  0  0  0  0  0  0  0  0
  -29.9621  -22.0148   16.6083 C   0  0  0  0  0  0  0  0  0  0  0  0
  -34.1696  -17.4296   23.6534 C   0  0  0  0  0  0  0  0  0  0  0  0
  -28.4064  -17.4568   23.0296 C   0  0  0  0  0  0  0  0  0  0  0  0
  -37.2133  -19.3325   23.3527 C   0  0  0  0  0  0  0  0  0  0  0  0
  -36.3243  -16.6339   24.8446 C   0  0  0  0  0  0  0  0  0  0  0  0
  -36.9440  -20.4734   22.3777 C   0  0  0  0  0  0  0  0  0  1  0  0
  -28.6700  -23.3441   21.2341 C   0  0  1  0  0  0  0  0  0  0  0  0
  -27.7793  -21.9562   17.8209 C   0  0  2  0  0  0  0  0  0  0  0  0
  -37.2572  -16.6970   23.5978 C   0  0  0  0  0  0  0  0  0  0  0  0
  -27.5899  -23.4778   22.3445 C   0  0  0  0  0  0  0  0  0  0  0  0
  -34.7639  -16.4820   24.7319 C   0  0  0  0  0  0  0  0  0  0  0  0
  -25.8594  -11.5159   20.3042 N   0  0  0  0  0  0  0  0  0  0  0  0
  -26.2423  -12.7975   20.1741 N   0  0  0  0  0  0  0  0  0  0  0  0
  -30.9067  -24.3980   21.3359 N   0  0  0  0  0  0  0  0  0  0  0  0
  -29.9747  -13.5712   20.4074 N   0  0  0  0  0  0  0  0  0  0  0  0
  -25.4827  -15.0289   20.4077 N   0  0  0  0  0  0  0  0  0  0  0  0
  -21.8787  -12.5731   21.5809 N   0  0  0  0  0  0  0  0  0  0  0  0
  -30.0849  -15.6541   21.5081 N   0  0  0  0  0  0  0  0  0  0  0  0
  -32.0175  -27.2471   23.1741 N   0  0  0  0  0  0  0  0  0  0  0  0
  -28.1296  -23.0986   19.9014 N   0  0  0  0  0  0  0  0  0  0  0  0
  -28.6583  -21.3276   16.7947 N   0  3  0  0  0  0  0  0  0  0  0  0
  -22.6649  -14.7088   21.2992 O   0  0  0  0  0  0  0  0  0  0  0  0
  -31.8989  -24.9864   23.7195 O   0  0  0  0  0  0  0  0  0  0  0  0
  -36.7005  -17.8472   21.5326 O   0  0  0  0  0  0  0  0  0  0  0  0
  -29.0088  -25.6586   20.8407 O   0  0  0  0  0  0  0  0  0  0  0  0
  -29.2515  -21.1024   19.5358 O   0  0  0  0  0  0  0  0  0  0  0  0
  -31.8686  -14.8861   20.2391 O   0  0  0  0  0  0  0  0  0  0  0  0
  -21.5828   -7.0115   21.7075 O   0  0  0  0  0  0  0  0  0  0  0  0
  -35.6011  -20.4243   21.9123 O   0  0  0  0  0  0  0  0  0  1  0  0
  -16.4359   -6.8363   19.7370 F   0  0  0  0  0  0  0  0  0  0  0  0
  -19.7016   -8.8818   22.4859 F   0  0  0  0  0  0  0  0  0  0  0  0
  1  2  1  0  0  0  0
  1  5  2  0  0  0  0
  2  6  2  0  0  0  0
  3 10  2  0  0  0  0
  3 18  1  0  0  0  0
  4 11  1  0  0  0  0
  4 18  2  0  0  0  0
  5 20  1  0  0  0  0
  6 22  1  0  0  0  0
  7 12  2  0  0  0  0
  7 21  1  0  0  0  0
  8  9  2  0  0  0  0
  8 24  1  0  0  0  0
  9 25  1  0  0  0  0
 10 27  1  0  0  0  0
 11 27  2  0  0  0  0
 12 28  1  0  0  0  0
 13 14  2  0  0  0  0
 13 29  1  0  0  0  0
 14 30  1  0  0  0  0
 15 23  1  0  0  0  0
 15 28  2  0  0  0  0
 16 24  2  0  0  0  0
 16 26  1  0  0  0  0
 17 30  2  0  0  0  0
 17 31  1  0  0  0  0
 18 32  1  0  0  0  0
 19 32  1  0  0  0  0
 19 33  2  0  0  0  0
 19 34  1  0  0  0  0
 20 22  2  0  0  0  0
 20 40  1  0  0  0  0
 21 23  2  0  0  0  0
 21 41  1  0  0  0  0
 22 49  1  0  0  0  0
 23 42  1  0  0  0  0
 24 62  1  0  0  0  0
 25 26  2  0  0  0  0
 25 63  1  0  0  0  0
 26 78  1  0  0  0  0
 27 88  1  0  0  0  0
 28 89  1  0  0  0  0
 29 31  2  0  0  0  0
 29 88  1  0  0  0  0
 30 90  1  0  0  0  0
 31 91  1  0  0  0  0
 32 72  2  0  0  0  0
 33 73  1  0  0  0  0
 33 76  1  0  0  0  0
 34 77  1  0  0  0  0
 34 82  2  0  0  0  0
 35 50  1  0  0  0  0
 35 79  1  0  0  0  0
 35 83  2  0  0  0  0
 36 64  1  0  0  0  0
 36 69  1  0  0  0  0
 36 84  2  0  0  0  0
 37 67  1  0  0  0  0
 37 74  1  0  0  0  0
 37 85  2  0  0  0  0
 38 68  1  0  0  0  0
 38 80  1  0  0  0  0
 38 86  2  0  0  0  0
 39 75  1  0  0  0  0
 39 78  1  0  0  0  0
 39 87  2  0  0  0  0
 40 43  1  0  0  0  0
 41 50  1  0  0  0  0
 42 74  1  0  0  0  0
 43 45  1  0  0  0  0
 44 46  1  0  0  0  0
 44 47  1  0  0  0  0
 45 49  1  0  0  0  0
 46 51  1  0  0  0  0
 47 75  1  0  0  0  0
 48 51  1  0  0  0  0
 48 75  1  0  0  0  0
 49 79  1  0  0  0  0
 50 74  1  0  0  0  0
 51 73  1  0  0  0  0
 52 63  1  0  0  0  0
 53 68  1  0  0  0  0
 54 69  1  0  0  0  0
 55 69  1  0  0  0  0
 56 70  1  0  0  0  0
 57 70  1  0  0  0  0
 58 70  1  0  0  0  0
 59 71  1  0  0  0  0
 60 71  1  0  0  0  0
 61 81  1  0  0  0  0
 62 71  1  0  0  0  0
 64 66  1  0  0  0  0
 65 69  1  0  0  0  0
 65 71  1  0  0  0  0
 66 89  1  0  0  0  0
 67 70  1  0  0  0  0
 67 80  1  0  0  0  0
 68 81  1  0  0  0  0
 72 73  1  0  0  0  0
M  CHG  1  81   1
M  ISO  4  39 100  66 101  78 100  89 101
M  END
> <Batch ID>
0145

> <Smiles>
CCc1ccc(CC(C)(C)CC(C)(C)C(=O)C[101CH2:1][101O:1]c2ccc3c(c2)CN(C(=O)C(NC(=O)C(C)NC)C(C)(C)C)C(C(=O)NC2CCCc4ccccc42)C3)cc1[100NH:0][100C:0](=O)N1CCCC(n2nc(-c3ccc(Oc4ccc(F)cc4F)cc3)c(C(N)=O)c2N)C1

> <Shape>
0.184

> <Color>
0.195

> <Negative vol penalty>
0.000

$$$$

  -OEChem-04052303073D

 86 94  0     1  0  0  0  0  0999 V2000
  -23.8225  -31.3058   20.8838 C   0  0  0  0  0  0  0  0  0  0  0  0
  -23.1306  -30.2471   20.3042 C   0  0  0  0  0  0  0  0  0  0  0  0
  -26.4216  -12.8660   21.3680 C   0  0  0  0  0  0  0  0  0  0  0  0
  -26.2496  -13.3067   18.9988 C   0  0  0  0  0  0  0  0  0  0  0  0
  -25.1266  -31.1183   21.3398 C   0  0  0  0  0  0  0  0  0  0  0  0
  -23.7429  -29.0006   20.1793 C   0  0  0  0  0  0  0  0  0  0  0  0
  -22.2223  -22.0007   20.2587 C   0  0  0  0  0  0  0  0  0  0  0  0
  -25.1597  -12.2722   21.3493 C   0  0  0  0  0  0  0  0  0  0  0  0
  -24.9876  -12.7129   18.9800 C   0  0  0  0  0  0  0  0  0  0  0  0
  -22.4077  -20.8495   19.4944 C   0  0  0  0  0  0  0  0  0  0  0  0
  -23.8156   -9.3063   20.4383 C   0  0  0  0  0  0  0  0  0  0  0  0
  -23.6586   -8.0960   21.1136 C   0  0  0  0  0  0  0  0  0  0  0  0
  -24.6361  -20.6215   20.3897 C   0  0  0  0  0  0  0  0  0  0  0  0
  -28.0152  -20.1256   15.4859 C   0  0  0  0  0  0  0  0  0  0  0  0
  -21.9797   -9.1036   22.5291 C   0  0  0  0  0  0  0  0  0  0  0  0
  -26.9666  -13.3833   20.1928 C   0  0  0  0  0  0  0  0  0  0  0  0
  -29.5106  -13.3653   20.0038 C   0  0  0  0  0  0  0  0  0  0  0  0
  -25.7518  -29.8663   21.2292 C   0  0  0  0  0  0  0  0  0  0  0  0
  -23.2480  -22.4779   21.0873 C   0  0  0  0  0  0  0  0  0  0  0  0
  -25.0571  -28.7965   20.6330 C   0  0  0  0  0  0  0  0  0  0  0  0
  -24.4602  -21.7775   21.1654 C   0  0  0  0  0  0  0  0  0  0  0  0
  -28.7983  -21.0935   16.1590 C   0  0  0  0  0  0  0  0  0  0  0  0
  -24.4426  -12.1956   20.1552 C   0  0  0  0  0  0  0  0  0  0  0  0
  -23.6158  -20.1613   19.5576 C   0  0  0  0  0  0  0  0  0  0  0  0
  -23.0548  -10.4153   20.8084 C   0  0  0  0  0  0  0  0  0  0  0  0
  -22.7406   -7.9946   22.1590 C   0  0  0  0  0  0  0  0  0  0  0  0
  -22.1368  -10.3139   21.8538 C   0  0  0  0  0  0  0  0  0  0  0  0
  -28.2700  -13.9974   20.2117 C   0  0  0  0  0  0  0  0  0  0  0  0
  -28.1865  -22.3044   15.9327 C   0  0  0  0  0  0  0  0  0  0  0  0
  -26.9805  -20.8140   14.8964 C   0  0  0  0  0  0  0  0  0  0  0  0
  -30.4344  -14.3745   20.1236 C   0  0  0  0  0  0  0  0  0  0  0  0
  -29.8018  -11.9889   19.7271 C   0  0  0  0  0  0  0  0  0  0  0  0
  -24.9651  -25.1495   21.2194 C   0  0  0  0  0  0  0  0  0  0  0  0
  -24.8151  -19.9546   14.6808 C   0  0  0  0  0  0  0  0  0  0  0  0
  -26.1055  -23.8197   23.9495 C   0  0  0  0  0  0  0  0  0  0  0  0
  -26.6872  -20.9938   25.7724 C   0  0  0  0  0  0  0  0  0  0  0  0
  -30.1163  -20.3051   19.3631 C   0  0  0  0  0  0  0  0  0  0  0  0
  -27.1797  -29.7243   21.6936 C   0  0  0  0  0  0  0  0  0  0  0  0
  -23.0225  -23.7061   21.9257 C   0  0  0  0  0  0  0  0  0  0  0  0
  -25.5856  -22.2369   22.0548 C   0  0  0  0  0  0  0  0  0  0  0  0
  -27.6232  -28.2737   21.8644 C   0  0  0  0  0  0  0  0  0  0  0  0
  -31.1293  -18.5753   22.3056 C   0  0  0  0  0  0  0  0  0  0  0  0
  -27.2040  -27.4415   20.6567 C   0  0  0  0  0  0  0  0  0  0  0  0
  -30.6233  -17.1489   22.0839 C   0  0  0  0  0  0  0  0  0  0  0  0
  -30.1606  -19.6120   21.7409 C   0  0  0  0  0  0  0  0  0  0  0  0
  -29.2922  -17.9879   20.1033 C   0  0  0  0  0  0  0  0  0  0  0  0
  -25.6784  -27.4228   20.5024 C   0  0  1  0  0  0  0  0  0  0  0  0
  -24.3202  -24.3903   22.3443 C   0  0  1  0  0  0  0  0  0  0  0  0
  -30.2624  -16.9053   20.6061 C   0  0  2  0  0  0  0  0  0  0  0  0
  -23.6079  -19.4104   13.9500 C   0  0  0  0  0  0  0  0  0  0  0  0
  -28.1110  -23.9699   17.8053 C   0  0  0  0  0  0  0  0  0  0  0  0
  -27.6667  -20.2210   27.9497 C   0  0  0  0  0  0  0  0  0  0  0  0
  -25.5614  -17.4164   18.9791 C   0  0  0  0  0  0  0  0  0  0  0  0
  -28.9137  -24.2349   22.8307 C   0  0  0  0  0  0  0  0  0  0  0  0
  -29.7622  -22.6285   24.5534 C   0  0  0  0  0  0  0  0  0  0  0  0
  -28.6727  -24.7569   25.2646 C   0  0  0  0  0  0  0  0  0  0  0  0
  -24.1059  -19.8513   26.6615 C   0  0  0  0  0  0  0  0  0  0  0  0
  -30.0223  -20.8484   16.9433 C   0  0  0  0  0  0  0  0  0  0  0  0
  -28.4905  -23.6823   16.3465 C   0  0  0  0  0  0  0  0  0  0  0  0
  -24.7445  -20.0282   16.1959 C   0  0  0  0  0  0  0  0  0  0  0  0
  -25.1735  -18.7147   16.8537 C   0  0  0  0  0  0  0  0  0  0  0  0
  -27.2546  -22.9029   24.2932 C   0  0  1  0  0  0  0  0  0  0  0  0
  -26.4025  -20.6556   27.2247 C   0  0  2  0  0  0  0  0  0  0  0  0
  -25.1312  -18.7519   18.3859 C   0  0  1  0  0  0  0  0  0  1  0  0
  -28.6305  -23.6230   24.2172 C   0  0  0  0  0  0  0  0  0  0  0  0
  -28.3912  -15.3067   20.4459 N   0  0  0  0  0  0  0  0  0  0  0  0
  -25.9250  -20.3228   14.1130 N   0  0  0  0  0  0  0  0  0  0  0  0
  -29.7190  -15.5056   20.3860 N   0  0  0  0  0  0  0  0  0  0  0  0
  -25.3190  -23.4466   22.8503 N   0  0  0  0  0  0  0  0  0  0  0  0
  -29.8606  -19.3248   20.3361 N   0  0  0  0  0  0  0  0  0  0  0  0
  -31.7809  -14.3959   20.0291 N   0  0  0  0  0  0  0  0  0  0  0  0
  -28.7343  -11.0851   19.6373 N   0  0  0  0  0  0  0  0  0  0  0  0
  -25.0855  -26.5062   21.4525 N   0  0  0  0  0  0  0  0  0  0  0  0
  -26.9478  -22.3371   25.6025 N   0  0  0  0  0  0  0  0  0  0  0  0
  -29.8093  -19.9491   18.0555 N   0  0  0  0  0  0  0  0  0  0  0  0
  -25.4064  -19.5507   27.3135 N   0  3  0  0  0  0  0  0  0  0  0  0
  -30.9750  -11.5699   19.5807 O   0  0  0  0  0  0  0  0  0  0  0  0
  -25.3281  -24.5486   20.2149 O   0  0  0  0  0  0  0  0  0  0  0  0
  -25.9086  -24.8258   24.6354 O   0  0  0  0  0  0  0  0  0  0  0  0
  -26.6827  -20.1501   24.8787 O   0  0  0  0  0  0  0  0  0  0  0  0
  -30.5885  -21.4133   19.6386 O   0  0  0  0  0  0  0  0  0  0  0  0
  -27.0777  -22.1428   15.1640 O   0  0  0  0  0  0  0  0  0  0  0  0
  -23.2113  -11.6160   20.1365 O   0  0  0  0  0  0  0  0  0  0  0  0
  -23.7997  -19.0378   18.8122 O   0  0  0  0  0  0  0  0  0  1  0  0
  -22.5888   -6.8318   22.8064 F   0  0  0  0  0  0  0  0  0  0  0  0
  -21.4022  -11.3756   22.2131 F   0  0  0  0  0  0  0  0  0  0  0  0
  1  2  1  0  0  0  0
  1  5  2  0  0  0  0
  2  6  2  0  0  0  0
  3  8  2  0  0  0  0
  3 16  1  0  0  0  0
  4  9  1  0  0  0  0
  4 16  2  0  0  0  0
  5 18  1  0  0  0  0
  6 20  1  0  0  0  0
  7 10  2  0  0  0  0
  7 19  1  0  0  0  0
  8 23  1  0  0  0  0
  9 23  2  0  0  0  0
 10 24  1  0  0  0  0
 11 12  2  0  0  0  0
 11 25  1  0  0  0  0
 12 26  1  0  0  0  0
 13 21  1  0  0  0  0
 13 24  2  0  0  0  0
 14 22  1  0  0  0  0
 14 30  2  0  0  0  0
 15 26  2  0  0  0  0
 15 27  1  0  0  0  0
 16 28  1  0  0  0  0
 17 28  1  0  0  0  0
 17 31  2  0  0  0  0
 17 32  1  0  0  0  0
 18 20  2  0  0  0  0
 18 38  1  0  0  0  0
 19 21  2  0  0  0  0
 19 39  1  0  0  0  0
 20 47  1  0  0  0  0
 21 40  1  0  0  0  0
 22 29  2  0  0  0  0
 22 58  1  0  0  0  0
 23 83  1  0  0  0  0
 24 84  1  0  0  0  0
 25 27  2  0  0  0  0
 25 83  1  0  0  0  0
 26 85  1  0  0  0  0
 27 86  1  0  0  0  0
 28 66  2  0  0  0  0
 29 59  1  0  0  0  0
 29 82  1  0  0  0  0
 30 67  1  0  0  0  0
 30 82  1  0  0  0  0
 31 68  1  0  0  0  0
 31 71  1  0  0  0  0
 32 72  1  0  0  0  0
 32 77  2  0  0  0  0
 33 48  1  0  0  0  0
 33 73  1  0  0  0  0
 33 78  2  0  0  0  0
 34 50  1  0  0  0  0
 34 60  1  0  0  0  0
 34 67  2  0  0  0  0
 35 62  1  0  0  0  0
 35 69  1  0  0  0  0
 35 79  2  0  0  0  0
 36 63  1  0  0  0  0
 36 74  1  0  0  0  0
 36 80  2  0  0  0  0
 37 70  1  0  0  0  0
 37 75  1  0  0  0  0
 37 81  2  0  0  0  0
 38 41  1  0  0  0  0
 39 48  1  0  0  0  0
 40 69  1  0  0  0  0
 41 43  1  0  0  0  0
 42 44  1  0  0  0  0
 42 45  1  0  0  0  0
 43 47  1  0  0  0  0
 44 49  1  0  0  0  0
 45 70  1  0  0  0  0
 46 49  1  0  0  0  0
 46 70  1  0  0  0  0
 47 73  1  0  0  0  0
 48 69  1  0  0  0  0
 49 68  1  0  0  0  0
 51 59  1  0  0  0  0
 52 63  1  0  0  0  0
 53 64  1  0  0  0  0
 54 65  1  0  0  0  0
 55 65  1  0  0  0  0
 56 65  1  0  0  0  0
 57 76  1  0  0  0  0
 58 75  1  0  0  0  0
 60 61  1  0  0  0  0
 61 64  1  0  0  0  0
 62 65  1  0  0  0  0
 62 74  1  0  0  0  0
 63 76  1  0  0  0  0
 64 84  1  0  0  0  0
 66 68  1  0  0  0  0
M  CHG  1  76   1
M  ISO  4  37 100  64 101  75 100  84 101
M  END
> <Batch ID>
0145

> <Smiles>
CCc1oc(NC(C)=CC[101CH:1](C)[101O:1]c2ccc3c(c2)CN(C(=O)C(NC(=O)C(C)NC)C(C)(C)C)C(C(=O)NC2CCCc4ccccc42)C3)cc1C[100NH:0][100C:0](=O)N1CCCC(n2nc(-c3ccc(Oc4ccc(F)cc4F)cc3)c(C(N)=O)c2N)C1

> <Shape>
0.200

> <Color>
0.069

> <Negative vol penalty>
0.000

$$$$

  -OEChem-04052303073D

 86 94  0     1  0  0  0  0  0999 V2000
  -30.4418  -24.0195   19.0311 C   0  0  0  0  0  0  0  0  0  0  0  0
  -29.2451  -24.6424   18.6952 C   0  0  0  0  0  0  0  0  0  0  0  0
  -20.8440  -21.4017   26.1745 C   0  0  0  0  0  0  0  0  0  0  0  0
  -25.1383  -16.0708   19.1874 C   0  0  0  0  0  0  0  0  0  0  0  0
  -24.2245  -15.6496   21.3840 C   0  0  0  0  0  0  0  0  0  0  0  0
  -22.2239  -21.4465   25.9759 C   0  0  0  0  0  0  0  0  0  0  0  0
  -30.9465  -24.1392   20.3242 C   0  0  0  0  0  0  0  0  0  0  0  0
  -28.5588  -25.3949   19.6489 C   0  0  0  0  0  0  0  0  0  0  0  0
  -23.1644  -28.2114   19.3398 C   0  0  0  0  0  0  0  0  0  0  0  0
  -20.0012  -22.1950   25.3960 C   0  0  0  0  0  0  0  0  0  0  0  0
  -25.7904  -14.8383   19.2224 C   0  0  0  0  0  0  0  0  0  0  0  0
  -24.8766  -14.4171   21.4189 C   0  0  0  0  0  0  0  0  0  0  0  0
  -21.8314  -27.9156   19.6219 C   0  0  0  0  0  0  0  0  0  0  0  0
  -27.9863  -11.9594   18.8854 C   0  0  0  0  0  0  0  0  0  0  0  0
  -29.3172  -11.9161   18.4700 C   0  0  0  0  0  0  0  0  0  0  0  0
  -21.9182  -23.0780   24.2203 C   0  0  0  0  0  0  0  0  0  0  0  0
  -22.0584  -28.9760   21.7767 C   0  0  0  0  0  0  0  0  0  0  0  0
  -29.9099  -13.4887   20.2058 C   0  0  0  0  0  0  0  0  0  0  0  0
  -24.3553  -16.4765   20.2682 C   0  0  0  0  0  0  0  0  0  0  0  0
  -22.7610  -22.2846   24.9988 C   0  0  0  0  0  0  0  0  0  0  0  0
  -22.3879  -18.0138   19.7455 C   0  0  0  0  0  0  0  0  0  0  0  0
  -30.2591  -24.8835   21.2970 C   0  0  0  0  0  0  0  0  0  0  0  0
  -23.9588  -28.8832   20.2801 C   0  0  0  0  0  0  0  0  0  0  0  0
  -29.0641  -25.5475   20.9527 C   0  0  0  0  0  0  0  0  0  0  0  0
  -23.4004  -29.2813   21.5031 C   0  0  0  0  0  0  0  0  0  0  0  0
  -20.5383  -23.0331   24.4189 C   0  0  0  0  0  0  0  0  0  0  0  0
  -25.6596  -14.0114   20.3381 C   0  0  0  0  0  0  0  0  0  0  0  0
  -21.2791  -28.2954   20.8416 C   0  0  0  0  0  0  0  0  0  0  0  0
  -27.6172  -12.7673   19.9609 C   0  0  0  0  0  0  0  0  0  0  0  0
  -30.2790  -12.6808   19.1302 C   0  0  0  0  0  0  0  0  0  0  0  0
  -28.5790  -13.5320   20.6211 C   0  0  0  0  0  0  0  0  0  0  0  0
  -23.6819  -17.7498   20.2330 C   0  0  0  0  0  0  0  0  0  0  0  0
  -22.2185  -19.3636   19.9347 C   0  0  0  0  0  0  0  0  0  0  0  0
  -24.1998  -22.3303   24.7928 C   0  0  0  0  0  0  0  0  0  0  0  0
  -21.4251  -17.1190   19.1729 C   0  0  0  0  0  0  0  0  0  0  0  0
  -24.8041  -23.2084   23.7647 C   0  0  0  0  0  0  0  0  0  0  0  0
  -26.6021  -28.1759   21.8976 C   0  0  0  0  0  0  0  0  0  0  0  0
  -26.3768  -31.2671   22.8545 C   0  0  0  0  0  0  0  0  0  0  0  0
  -20.0452  -24.7214   22.6208 C   0  0  0  0  0  0  0  0  0  0  0  0
  -24.4036  -34.0026   23.3742 C   0  0  0  0  0  0  0  0  0  0  0  0
  -30.8546  -24.9865   22.6790 C   0  0  0  0  0  0  0  0  0  0  0  0
  -25.3874  -29.2184   19.9499 C   0  0  0  0  0  0  0  0  0  0  0  0
  -24.2051  -30.0226   22.5383 C   0  0  0  0  0  0  0  0  0  0  0  0
  -29.8424  -25.4279   23.7312 C   0  0  0  0  0  0  0  0  0  0  0  0
  -24.6663  -23.4564   20.1904 C   0  0  0  0  0  0  0  0  0  0  0  0
  -29.0933  -26.6603   23.2469 C   0  0  0  0  0  0  0  0  0  0  0  0
  -24.3182  -22.0347   19.7509 C   0  0  0  0  0  0  0  0  0  0  0  0
  -25.5534  -23.4559   21.4311 C   0  0  0  0  0  0  0  0  0  0  0  0
  -24.6272  -21.2703   22.1479 C   0  0  0  0  0  0  0  0  0  0  0  0
  -28.2846  -26.3459   21.9819 C   0  0  1  0  0  0  0  0  0  0  0  0
  -26.2478  -29.4519   21.1878 C   0  0  1  0  0  0  0  0  0  0  0  0
  -23.7093  -21.2309   20.9136 C   0  0  2  0  0  0  0  0  0  0  0  0
  -24.4970  -36.3711   24.1983 C   0  0  0  0  0  0  0  0  0  0  0  0
  -26.5355  -30.2579   25.7296 C   0  0  0  0  0  0  0  0  0  0  0  0
  -25.6831  -32.4873   26.4855 C   0  0  0  0  0  0  0  0  0  0  0  0
  -27.8597  -32.3306   25.2770 C   0  0  0  0  0  0  0  0  0  0  0  0
  -17.2445  -27.3254   21.8767 C   0  0  0  0  0  0  0  0  0  0  0  0
  -18.1186  -26.6396   24.1121 C   0  0  0  0  0  0  0  0  0  0  0  0
  -23.4975  -35.0684   20.7661 C   0  0  0  0  0  0  0  0  0  0  0  0
  -18.8362  -25.4081   21.9983 C   0  0  0  0  0  0  0  0  0  0  0  0
  -19.6385  -27.7963   22.4894 C   0  0  0  0  0  0  0  0  0  1  0  0
  -25.7052  -31.9855   23.9998 C   0  0  1  0  0  0  0  0  0  0  0  0
  -24.5779  -35.4592   22.9839 C   0  0  2  0  0  0  0  0  0  0  0  0
  -26.4310  -31.7497   25.3545 C   0  0  0  0  0  0  0  0  0  0  0  0
  -18.4818  -26.7817   22.6235 C   0  0  0  0  0  0  0  0  0  0  0  0
  -24.2914  -18.8440   20.6968 N   0  0  0  0  0  0  0  0  0  0  0  0
  -25.0461  -21.6171   25.4859 N   0  0  0  0  0  0  0  0  0  0  0  0
  -23.3763  -19.8088   20.5016 N   0  0  0  0  0  0  0  0  0  0  0  0
  -24.9638  -22.6549   22.5020 N   0  0  0  0  0  0  0  0  0  0  0  0
  -25.5991  -30.3216   22.1712 N   0  0  0  0  0  0  0  0  0  0  0  0
  -21.1936  -20.2014   19.6697 N   0  0  0  0  0  0  0  0  0  0  0  0
  -21.7615  -15.7638   19.0521 N   0  0  0  0  0  0  0  0  0  0  0  0
  -19.6831  -23.8376   23.6291 N   0  0  0  0  0  0  0  0  0  0  0  0
  -27.7606  -27.5793   21.4379 N   0  0  0  0  0  0  0  0  0  0  0  0
  -25.6156  -33.3874   23.6061 N   0  0  0  0  0  0  0  0  0  0  0  0
  -23.5185  -35.8672   22.0185 N   0  3  0  0  0  0  0  0  0  0  0  0
  -20.3060  -17.5124   18.7648 O   0  0  0  0  0  0  0  0  0  0  0  0
  -25.1002  -24.3348   24.1412 O   0  0  0  0  0  0  0  0  0  0  0  0
  -25.8787  -27.7638   22.7968 O   0  0  0  0  0  0  0  0  0  0  0  0
  -27.5461  -31.5402   22.5718 O   0  0  0  0  0  0  0  0  0  0  0  0
  -21.1784  -24.9795   22.2243 O   0  0  0  0  0  0  0  0  0  0  0  0
  -23.3021  -33.4654   23.4680 O   0  0  0  0  0  0  0  0  0  0  0  0
  -26.2957  -12.8086   20.3725 O   0  0  0  0  0  0  0  0  0  0  0  0
  -19.9784  -28.0074   21.1197 O   0  0  0  0  0  0  0  0  0  1  0  0
  -31.5573  -12.6379   18.7323 F   0  0  0  0  0  0  0  0  0  0  0  0
  -28.2307  -14.3092   21.6557 F   0  0  0  0  0  0  0  0  0  0  0  0
  1  2  1  0  0  0  0
  1  7  2  0  0  0  0
  2  8  2  0  0  0  0
  3  6  1  0  0  0  0
  3 10  2  0  0  0  0
  4 11  2  0  0  0  0
  4 19  1  0  0  0  0
  5 12  1  0  0  0  0
  5 19  2  0  0  0  0
  6 20  2  0  0  0  0
  7 22  1  0  0  0  0
  8 24  1  0  0  0  0
  9 13  2  0  0  0  0
  9 23  1  0  0  0  0
 10 26  1  0  0  0  0
 11 27  1  0  0  0  0
 12 27  2  0  0  0  0
 13 28  1  0  0  0  0
 14 15  2  0  0  0  0
 14 29  1  0  0  0  0
 15 30  1  0  0  0  0
 16 20  1  0  0  0  0
 16 26  2  0  0  0  0
 17 25  1  0  0  0  0
 17 28  2  0  0  0  0
 18 30  2  0  0  0  0
 18 31  1  0  0  0  0
 19 32  1  0  0  0  0
 20 34  1  0  0  0  0
 21 32  1  0  0  0  0
 21 33  2  0  0  0  0
 21 35  1  0  0  0  0
 22 24  2  0  0  0  0
 22 41  1  0  0  0  0
 23 25  2  0  0  0  0
 23 42  1  0  0  0  0
 24 50  1  0  0  0  0
 25 43  1  0  0  0  0
 26 73  1  0  0  0  0
 27 83  1  0  0  0  0
 28 84  1  0  0  0  0
 29 31  2  0  0  0  0
 29 83  1  0  0  0  0
 30 85  1  0  0  0  0
 31 86  1  0  0  0  0
 32 66  2  0  0  0  0
 33 68  1  0  0  0  0
 33 71  1  0  0  0  0
 34 36  1  0  0  0  0
 34 67  2  0  0  0  0
 35 72  1  0  0  0  0
 35 77  2  0  0  0  0
 36 69  1  0  0  0  0
 36 78  2  0  0  0  0
 37 51  1  0  0  0  0
 37 74  1  0  0  0  0
 37 79  2  0  0  0  0
 38 62  1  0  0  0  0
 38 70  1  0  0  0  0
 38 80  2  0  0  0  0
 39 60  1  0  0  0  0
 39 73  1  0  0  0  0
 39 81  2  0  0  0  0
 40 63  1  0  0  0  0
 40 75  1  0  0  0  0
 40 82  2  0  0  0  0
 41 44  1  0  0  0  0
 42 51  1  0  0  0  0
 43 70  1  0  0  0  0
 44 46  1  0  0  0  0
 45 47  1  0  0  0  0
 45 48  1  0  0  0  0
 46 50  1  0  0  0  0
 47 52  1  0  0  0  0
 48 69  1  0  0  0  0
 49 52  1  0  0  0  0
 49 69  1  0  0  0  0
 50 74  1  0  0  0  0
 51 70  1  0  0  0  0
 52 68  1  0  0  0  0
 53 63  1  0  0  0  0
 54 64  1  0  0  0  0
 55 64  1  0  0  0  0
 56 64  1  0  0  0  0
 57 65  1  0  0  0  0
 58 65  1  0  0  0  0
 59 76  1  0  0  0  0
 60 65  1  0  0  0  0
 61 65  1  0  0  0  0
 61 84  1  0  0  0  0
 62 64  1  0  0  0  0
 62 75  1  0  0  0  0
 63 76  1  0  0  0  0
 66 68  1  0  0  0  0
M  CHG  1  76   1
M  ISO  4  34 100  36 100  61 101  84 101
M  END
> <Batch ID>
0145

> <Smiles>
CNC(C)C(=O)NC(C(=O)N1Cc2cc([101O:1][101CH2:1]C(C)(C)CC(=O)Nc3cccc([100C:0](=N)[100C:0](=O)N4CCCC(n5nc(-c6ccc(Oc7ccc(F)cc7F)cc6)c(C(N)=O)c5N)C4)c3)ccc2CC1C(=O)NC1CCCc2ccccc21)C(C)(C)C

> <Shape>
0.263

> <Color>
0.062

> <Negative vol penalty>
0.000

$$$$

  -OEChem-04052303073D

 84 92  0     1  0  0  0  0  0999 V2000
  -17.1298  -30.3161   23.8099 C   0  0  0  0  0  0  0  0  0  0  0  0
  -18.1023  -30.1439   24.7897 C   0  0  0  0  0  0  0  0  0  0  0  0
  -25.8454  -14.4418   21.1866 C   0  0  0  0  0  0  0  0  0  0  0  0
  -25.7798  -14.7634   18.7930 C   0  0  0  0  0  0  0  0  0  0  0  0
  -17.1648  -29.5420   22.6509 C   0  0  0  0  0  0  0  0  0  0  0  0
  -19.1099  -29.1965   24.6114 C   0  0  0  0  0  0  0  0  0  0  0  0
  -26.0079  -28.0263   26.1488 C   0  0  0  0  0  0  0  0  0  0  0  0
  -24.8194  -13.5019   21.0885 C   0  0  0  0  0  0  0  0  0  0  0  0
  -24.7538  -13.8235   18.6949 C   0  0  0  0  0  0  0  0  0  0  0  0
  -26.8348  -27.0621   26.7236 C   0  0  0  0  0  0  0  0  0  0  0  0
  -22.4644  -10.7532   21.4259 C   0  0  0  0  0  0  0  0  0  0  0  0
  -22.6015   -9.5660   22.1451 C   0  0  0  0  0  0  0  0  0  0  0  0
  -26.8406  -25.8370   24.6456 C   0  0  0  0  0  0  0  0  0  0  0  0
  -24.6292   -9.0646   20.9310 C   0  0  0  0  0  0  0  0  0  0  0  0
  -26.3256  -15.0726   20.0389 C   0  0  0  0  0  0  0  0  0  0  0  0
  -28.7700  -15.8017   20.0690 C   0  0  0  0  0  0  0  0  0  0  0  0
  -18.1788  -28.5914   22.4540 C   0  0  0  0  0  0  0  0  0  0  0  0
  -25.5817  -27.8973   24.8192 C   0  0  0  0  0  0  0  0  0  0  0  0
  -19.1577  -28.4080   23.4492 C   0  0  0  0  0  0  0  0  0  0  0  0
  -26.0105  -26.8023   24.0555 C   0  0  0  0  0  0  0  0  0  0  0  0
  -24.2736  -13.1928   19.8426 C   0  0  0  0  0  0  0  0  0  0  0  0
  -27.2489  -25.9657   25.9729 C   0  0  0  0  0  0  0  0  0  0  0  0
  -23.4097  -11.0961   20.4591 C   0  0  0  0  0  0  0  0  0  0  0  0
  -23.6839   -8.7217   21.8977 C   0  0  0  0  0  0  0  0  0  0  0  0
  -24.4921  -10.2519   20.2117 C   0  0  0  0  0  0  0  0  0  0  0  0
  -27.3850  -16.0439   20.1397 C   0  0  0  0  0  0  0  0  0  0  0  0
  -29.3433  -17.0408   20.2189 C   0  0  0  0  0  0  0  0  0  0  0  0
  -33.1067  -22.8368   22.7645 C   0  0  0  0  0  0  0  0  0  0  0  0
  -32.6388  -21.9420   21.8879 C   0  0  0  0  0  0  0  0  0  0  0  0
  -32.4994  -22.8921   24.1161 C   0  0  0  0  0  0  0  0  0  0  0  0
  -29.4751  -14.5671   19.8843 C   0  0  0  0  0  0  0  0  0  0  0  0
  -22.7602  -27.5888   23.3880 C   0  0  0  0  0  0  0  0  0  0  0  0
  -32.1954  -23.7478   26.2103 C   0  0  0  0  0  0  0  0  0  0  0  0
  -24.5376  -27.8602   20.6880 C   0  0  0  0  0  0  0  0  0  0  0  0
  -27.5782  -27.5248   19.1751 C   0  0  0  0  0  0  0  0  0  0  0  0
  -29.3691  -21.8589   23.2305 C   0  0  0  0  0  0  0  0  0  0  0  0
  -18.1480  -27.7450   21.2061 C   0  0  0  0  0  0  0  0  0  0  0  0
  -24.7116  -28.9598   24.2057 C   0  0  0  0  0  0  0  0  0  0  0  0
  -25.5974  -26.6278   22.6176 C   0  0  0  0  0  0  0  0  0  0  0  0
  -31.4878  -21.0155   22.1437 C   0  0  0  0  0  0  0  0  0  0  0  0
  -19.4646  -27.0250   20.9258 C   0  0  0  0  0  0  0  0  0  0  0  0
  -27.3073  -21.6608   20.1628 C   0  0  0  0  0  0  0  0  0  0  0  0
  -19.9925  -26.3644   22.1953 C   0  0  0  0  0  0  0  0  0  0  0  0
  -27.2037  -20.1547   19.9279 C   0  0  0  0  0  0  0  0  0  0  0  0
  -27.4827  -21.9937   21.6414 C   0  0  0  0  0  0  0  0  0  0  0  0
  -28.5257  -19.7879   22.0485 C   0  0  0  0  0  0  0  0  0  0  0  0
  -20.2810  -27.4079   23.2813 C   0  0  1  0  0  0  0  0  0  0  0  0
  -31.4918  -21.8232   24.5113 C   0  0  2  0  0  0  0  0  0  0  0  0
  -23.9202  -28.4617   23.0003 C   0  0  1  0  0  0  0  0  0  0  0  0
  -28.3950  -19.4174   20.5636 C   0  0  1  0  0  0  0  0  0  0  0  0
  -31.2140  -19.5721   25.5624 C   0  0  0  0  0  0  0  0  0  0  0  0
  -28.7114  -27.7855   16.9513 C   0  0  0  0  0  0  0  0  0  0  0  0
  -23.2562  -25.2610   19.7330 C   0  0  0  0  0  0  0  0  0  0  0  0
  -25.0705  -25.0784   18.0174 C   0  0  0  0  0  0  0  0  0  0  0  0
  -23.4988  -27.0149   17.9668 C   0  0  0  0  0  0  0  0  0  0  0  0
  -29.4302  -29.5785   20.2292 C   0  0  0  0  0  0  0  0  0  0  0  0
  -30.9186  -24.5745   26.2129 C   0  0  0  0  0  0  0  0  0  0  0  0
  -32.1905  -20.6201   25.1377 C   0  0  0  0  0  0  0  0  0  0  0  0
  -30.1822  -24.5572   27.5490 C   0  0  0  0  0  0  0  0  0  0  0  0
  -28.9510  -25.4553   27.5535 C   0  0  0  0  0  0  0  0  0  1  0  0
  -25.2568  -26.8924   19.7798 C   0  0  1  0  0  0  0  0  0  0  0  0
  -28.3611  -28.4582   18.2694 C   0  0  2  0  0  0  0  0  0  0  0  0
  -24.2769  -26.0637   18.9019 C   0  0  0  0  0  0  0  0  0  0  0  0
  -27.0960  -17.3353   20.3206 N   0  0  0  0  0  0  0  0  0  0  0  0
  -32.8242  -23.7932   24.9867 N   0  0  0  0  0  0  0  0  0  0  0  0
  -28.3073  -17.9157   20.3650 N   0  0  0  0  0  0  0  0  0  0  0  0
  -24.7411  -27.6902   22.0648 N   0  0  0  0  0  0  0  0  0  0  0  0
  -30.7187  -21.4645   23.3158 N   0  0  0  0  0  0  0  0  0  0  0  0
  -28.5927  -21.2455   22.2320 N   0  0  0  0  0  0  0  0  0  0  0  0
  -30.6276  -17.4563   20.2389 N   0  0  0  0  0  0  0  0  0  0  0  0
  -28.7315  -13.3870   19.7468 N   0  0  0  0  0  0  0  0  0  0  0  0
  -21.5288  -28.0886   23.0093 N   0  0  0  0  0  0  0  0  0  0  0  0
  -26.2174  -27.6838   19.0187 N   0  0  0  0  0  0  0  0  0  0  0  0
  -29.6270  -28.8817   18.9320 N   0  3  0  0  0  0  0  0  0  0  0  0
  -30.7280  -14.5098   19.8587 O   0  0  0  0  0  0  0  0  0  0  0  0
  -22.9672  -26.5389   23.9851 O   0  0  0  0  0  0  0  0  0  0  0  0
  -32.5914  -23.1636   27.2167 O   0  0  0  0  0  0  0  0  0  0  0  0
  -23.8272  -28.7393   20.1939 O   0  0  0  0  0  0  0  0  0  0  0  0
  -28.1195  -26.7312   19.9417 O   0  0  0  0  0  0  0  0  0  0  0  0
  -28.8874  -22.7037   23.9954 O   0  0  0  0  0  0  0  0  0  0  0  0
  -23.2726  -12.2755   19.7465 O   0  0  0  0  0  0  0  0  0  0  0  0
  -28.0612  -25.0160   26.5357 O   0  0  0  0  0  0  0  0  0  1  0  0
  -23.8163   -7.5824   22.5896 F   0  0  0  0  0  0  0  0  0  0  0  0
  -25.4041  -10.5765   19.2851 F   0  0  0  0  0  0  0  0  0  0  0  0
  1  2  1  0  0  0  0
  1  5  2  0  0  0  0
  2  6  2  0  0  0  0
  3  8  2  0  0  0  0
  3 15  1  0  0  0  0
  4  9  1  0  0  0  0
  4 15  2  0  0  0  0
  5 17  1  0  0  0  0
  6 19  1  0  0  0  0
  7 10  2  0  0  0  0
  7 18  1  0  0  0  0
  8 21  1  0  0  0  0
  9 21  2  0  0  0  0
 10 22  1  0  0  0  0
 11 12  2  0  0  0  0
 11 23  1  0  0  0  0
 12 24  1  0  0  0  0
 13 20  1  0  0  0  0
 13 22  2  0  0  0  0
 14 24  2  0  0  0  0
 14 25  1  0  0  0  0
 15 26  1  0  0  0  0
 16 26  1  0  0  0  0
 16 27  2  0  0  0  0
 16 31  1  0  0  0  0
 17 19  2  0  0  0  0
 17 37  1  0  0  0  0
 18 20  2  0  0  0  0
 18 38  1  0  0  0  0
 19 47  1  0  0  0  0
 20 39  1  0  0  0  0
 21 81  1  0  0  0  0
 22 82  1  0  0  0  0
 23 25  2  0  0  0  0
 23 81  1  0  0  0  0
 24 83  1  0  0  0  0
 25 84  1  0  0  0  0
 26 64  2  0  0  0  0
 27 66  1  0  0  0  0
 27 70  1  0  0  0  0
 28 29  2  0  0  0  0
 28 30  1  0  0  0  0
 29 40  1  0  0  0  0
 30 48  1  0  0  0  0
 30 65  2  0  0  0  0
 31 71  1  0  0  0  0
 31 75  2  0  0  0  0
 32 49  1  0  0  0  0
 32 72  1  0  0  0  0
 32 76  2  0  0  0  0
 33 57  1  0  0  0  0
 33 65  1  0  0  0  0
 33 77  2  0  0  0  0
 34 61  1  0  0  0  0
 34 67  1  0  0  0  0
 34 78  2  0  0  0  0
 35 62  1  0  0  0  0
 35 73  1  0  0  0  0
 35 79  2  0  0  0  0
 36 68  1  0  0  0  0
 36 69  1  0  0  0  0
 36 80  2  0  0  0  0
 37 41  1  0  0  0  0
 38 49  1  0  0  0  0
 39 67  1  0  0  0  0
 40 68  1  0  0  0  0
 41 43  1  0  0  0  0
 42 44  1  0  0  0  0
 42 45  1  0  0  0  0
 43 47  1  0  0  0  0
 44 50  1  0  0  0  0
 45 69  1  0  0  0  0
 46 50  1  0  0  0  0
 46 69  1  0  0  0  0
 47 72  1  0  0  0  0
 48 58  1  0  0  0  0
 48 68  1  0  0  0  0
 49 67  1  0  0  0  0
 50 66  1  0  0  0  0
 51 58  1  0  0  0  0
 52 62  1  0  0  0  0
 53 63  1  0  0  0  0
 54 63  1  0  0  0  0
 55 63  1  0  0  0  0
 56 74  1  0  0  0  0
 57 59  1  0  0  0  0
 59 60  1  0  0  0  0
 60 82  1  0  0  0  0
 61 63  1  0  0  0  0
 61 73  1  0  0  0  0
 62 74  1  0  0  0  0
 64 66  1  0  0  0  0
M  CHG  1  74   1
M  ISO  4  36 100  60 101  68 100  82 101
M  END
> <Batch ID>
0145

> <Smiles>
CCC1=C(NC(=O)CC[101CH2:1][101O:1]c2ccc3c(c2)CN(C(=O)C(NC(=O)C(C)NC)C(C)(C)C)C(C(=O)NC2CCCc4ccccc42)C3)C=CC[100N:0]1[100C:0](=O)N1CCCC(n2nc(-c3ccc(Oc4ccc(F)cc4F)cc3)c(C(N)=O)c2N)C1

> <Shape>
0.224

> <Color>
0.087

> <Negative vol penalty>
0.000

$$$$

  -OEChem-04052303073D

 87 96  0     1  0  0  0  0  0999 V2000
  -22.1297  -29.5813   13.6863 C   0  0  0  0  0  0  0  0  0  0  0  0
  -23.2783  -29.2699   14.4069 C   0  0  0  0  0  0  0  0  0  0  0  0
  -24.1610  -10.2951   23.4451 C   0  0  0  0  0  0  0  0  0  0  0  0
  -24.8991  -12.4728   24.1867 C   0  0  0  0  0  0  0  0  0  0  0  0
  -28.9085  -19.9021   21.2097 C   0  0  0  0  0  0  0  0  0  0  0  0
  -31.1860  -19.4267   20.5586 C   0  0  0  0  0  0  0  0  0  0  0  0
  -21.4070  -30.7336   13.9926 C   0  0  0  0  0  0  0  0  0  0  0  0
  -23.7055  -30.1114   15.4335 C   0  0  0  0  0  0  0  0  0  0  0  0
  -25.0683  -27.5644   19.5929 C   0  0  0  0  0  0  0  0  0  0  0  0
  -28.5163  -18.6422   20.7578 C   0  0  0  0  0  0  0  0  0  0  0  0
  -30.7938  -18.1667   20.1066 C   0  0  0  0  0  0  0  0  0  0  0  0
  -23.8870   -9.9383   24.7654 C   0  0  0  0  0  0  0  0  0  0  0  0
  -24.6250  -12.1160   25.5071 C   0  0  0  0  0  0  0  0  0  0  0  0
  -26.3210  -26.9525   19.5830 C   0  0  0  0  0  0  0  0  0  0  0  0
  -21.4454  -10.4886   27.0389 C   0  0  0  0  0  0  0  0  0  0  0  0
  -20.2367   -9.8427   27.2984 C   0  0  0  0  0  0  0  0  0  0  0  0
  -27.2217  -28.7893   20.8612 C   0  0  0  0  0  0  0  0  0  0  0  0
  -21.4414   -7.9360   28.1645 C   0  0  0  0  0  0  0  0  0  0  0  0
  -24.6671  -11.5623   23.1557 C   0  0  0  0  0  0  0  0  0  0  0  0
  -30.2434  -20.2944   21.1101 C   0  0  0  0  0  0  0  0  0  0  0  0
  -24.0417  -11.9828   20.7186 C   0  0  0  0  0  0  0  0  0  0  0  0
  -21.8202  -31.5846   15.0298 C   0  0  0  0  0  0  0  0  0  0  0  0
  -24.8851  -28.8007   20.2288 C   0  0  0  0  0  0  0  0  0  0  0  0
  -22.9884  -31.2769   15.7530 C   0  0  0  0  0  0  0  0  0  0  0  0
  -25.9651  -29.4136   20.8800 C   0  0  0  0  0  0  0  0  0  0  0  0
  -29.4589  -17.7745   20.2063 C   0  0  0  0  0  0  0  0  0  0  0  0
  -24.1189  -10.8488   25.7964 C   0  0  0  0  0  0  0  0  0  0  0  0
  -27.3986  -27.5663   20.2147 C   0  0  0  0  0  0  0  0  0  0  0  0
  -22.6522   -9.8582   27.3422 C   0  0  0  0  0  0  0  0  0  0  0  0
  -20.2346   -8.5665   27.8612 C   0  0  0  0  0  0  0  0  0  0  0  0
  -22.6502   -8.5819   27.9051 C   0  0  0  0  0  0  0  0  0  0  0  0
  -24.9509  -11.9313   21.7921 C   0  0  0  0  0  0  0  0  0  0  0  0
  -24.7992  -12.3859   19.6461 C   0  0  0  0  0  0  0  0  0  0  0  0
  -30.6580  -21.6258   21.5874 C   0  0  0  0  0  0  0  0  0  0  0  0
  -22.6379  -11.6925   20.6931 C   0  0  0  0  0  0  0  0  0  0  0  0
  -24.0151  -31.7059   19.2764 C   0  0  0  0  0  0  0  0  0  0  0  0
  -24.0764  -32.3420   22.4567 C   0  0  0  0  0  0  0  0  0  0  0  0
  -25.2823  -31.5445   25.5481 C   0  0  0  0  0  0  0  0  0  0  0  0
  -29.8690  -15.5132   19.1745 C   0  0  0  0  0  0  0  0  0  0  0  0
  -21.0328  -32.8437   15.2929 C   0  0  0  0  0  0  0  0  0  0  0  0
  -23.5214  -29.4349   20.2535 C   0  0  0  0  0  0  0  0  0  0  0  0
  -25.8163  -30.7313   21.5942 C   0  0  0  0  0  0  0  0  0  0  0  0
  -21.3439  -33.4858   16.6424 C   0  0  0  0  0  0  0  0  0  0  0  0
  -29.2750  -12.2228   17.9505 C   0  0  0  0  0  0  0  0  0  0  0  0
  -22.8512  -33.5546   16.8661 C   0  0  0  0  0  0  0  0  0  0  0  0
  -28.0125  -11.7817   18.6945 C   0  0  0  0  0  0  0  0  0  0  0  0
  -30.3477  -23.8601   18.9097 C   0  0  0  0  0  0  0  0  0  0  0  0
  -30.6296  -25.0923   21.0985 C   0  0  0  0  0  0  0  0  0  0  0  0
  -30.1866  -13.0722   18.8344 C   0  0  0  0  0  0  0  0  0  0  0  0
  -29.6602  -22.7142   19.6451 C   0  0  0  0  0  0  0  0  0  0  0  0
  -29.9413  -23.9453   21.8312 C   0  0  0  0  0  0  0  0  0  0  0  0
  -28.2739  -13.7840   20.2142 C   0  0  0  0  0  0  0  0  0  0  0  0
  -23.4700  -32.1517   16.8900 C   0  0  1  0  0  0  0  0  0  0  0  0
  -23.5672  -30.9413   20.4899 C   0  0  1  0  0  0  0  0  0  0  0  0
  -27.2936  -12.9802   19.3444 C   0  0  2  0  0  0  0  0  0  0  0  0
  -30.1872  -25.2248   19.6215 C   0  0  0  0  0  0  0  0  0  0  0  0
  -31.0850  -26.2623   18.9216 C   0  0  0  0  0  0  0  0  0  0  0  0
  -25.1820  -32.2686   27.9487 C   0  0  0  0  0  0  0  0  0  0  0  0
  -25.9309  -34.6814   21.8259 C   0  0  0  0  0  0  0  0  0  0  0  0
  -26.5405  -34.7621   24.2529 C   0  0  0  0  0  0  0  0  0  0  0  0
  -24.1831  -35.1702   23.5465 C   0  0  0  0  0  0  0  0  0  0  0  0
  -24.1466  -28.9491   26.4044 C   0  0  0  0  0  0  0  0  0  0  0  0
  -28.7312  -25.7190   19.5307 C   0  0  0  0  0  0  0  0  0  1  0  0
  -25.1237  -32.8264   23.4301 C   0  0  1  0  0  0  0  0  0  0  0  0
  -24.5858  -31.3606   26.8843 C   0  0  2  0  0  0  0  0  0  0  0  0
  -25.4481  -34.3361   23.2488 C   0  0  0  0  0  0  0  0  0  0  0  0
  -26.1913  -12.2740   21.4343 N   0  0  0  0  0  0  0  0  0  0  0  0
  -26.0668  -12.5447   20.1238 N   0  0  0  0  0  0  0  0  0  0  0  0
  -30.1170  -22.7092   21.0470 N   0  0  0  0  0  0  0  0  0  0  0  0
  -24.4646  -31.3146   21.5851 N   0  0  0  0  0  0  0  0  0  0  0  0
  -29.4384  -14.1907   19.4122 N   0  0  0  0  0  0  0  0  0  0  0  0
  -24.4981  -12.6163   18.3505 N   0  0  0  0  0  0  0  0  0  0  0  0
  -22.0168  -11.2915   21.8839 N   0  0  0  0  0  0  0  0  0  0  0  0
  -29.0606  -16.4945   19.7472 N   0  0  0  0  0  0  0  0  0  0  0  0
  -23.2200  -31.5107   18.1633 N   0  0  0  0  0  0  0  0  0  0  0  0
  -24.6384  -32.4750   24.7602 N   0  0  0  0  0  0  0  0  0  0  0  0
  -31.5666  -21.7196   22.5538 N   0  3  0  0  0  0  0  0  0  0  0  0
  -24.7137  -29.9492   27.3453 N   0  3  0  0  0  0  0  0  0  0  0  0
  -21.9578  -11.7699   19.6419 O   0  0  0  0  0  0  0  0  0  0  0  0
  -25.0078  -32.4211   19.3454 O   0  0  0  0  0  0  0  0  0  0  0  0
  -22.9531  -32.8513   22.4740 O   0  0  0  0  0  0  0  0  0  0  0  0
  -26.2982  -30.9272   25.2360 O   0  0  0  0  0  0  0  0  0  0  0  0
  -30.8650  -15.7580   18.4889 O   0  0  0  0  0  0  0  0  0  0  0  0
  -23.8514  -10.5010   27.0848 O   0  0  0  0  0  0  0  0  0  0  0  0
  -28.6225  -26.9715   20.2059 O   0  0  0  0  0  0  0  0  0  1  0  0
  -19.0737   -7.9470   28.1117 F   0  0  0  0  0  0  0  0  0  0  0  0
  -23.8063   -7.9717   28.1997 F   0  0  0  0  0  0  0  0  0  0  0  0
  1  2  1  0  0  0  0
  1  7  2  0  0  0  0
  2  8  2  0  0  0  0
  3 12  2  0  0  0  0
  3 19  1  0  0  0  0
  4 13  1  0  0  0  0
  4 19  2  0  0  0  0
  5 10  2  0  0  0  0
  5 20  1  0  0  0  0
  6 11  1  0  0  0  0
  6 20  2  0  0  0  0
  7 22  1  0  0  0  0
  8 24  1  0  0  0  0
  9 14  2  0  0  0  0
  9 23  1  0  0  0  0
 10 26  1  0  0  0  0
 11 26  2  0  0  0  0
 12 27  1  0  0  0  0
 13 27  2  0  0  0  0
 14 28  1  0  0  0  0
 15 16  2  0  0  0  0
 15 29  1  0  0  0  0
 16 30  1  0  0  0  0
 17 25  1  0  0  0  0
 17 28  2  0  0  0  0
 18 30  2  0  0  0  0
 18 31  1  0  0  0  0
 19 32  1  0  0  0  0
 20 34  1  0  0  0  0
 21 32  1  0  0  0  0
 21 33  2  0  0  0  0
 21 35  1  0  0  0  0
 22 24  2  0  0  0  0
 22 40  1  0  0  0  0
 23 25  2  0  0  0  0
 23 41  1  0  0  0  0
 24 53  1  0  0  0  0
 25 42  1  0  0  0  0
 26 74  1  0  0  0  0
 27 84  1  0  0  0  0
 28 85  1  0  0  0  0
 29 31  2  0  0  0  0
 29 84  1  0  0  0  0
 30 86  1  0  0  0  0
 31 87  1  0  0  0  0
 32 67  2  0  0  0  0
 33 68  1  0  0  0  0
 33 72  1  0  0  0  0
 34 69  1  0  0  0  0
 34 77  2  0  0  0  0
 35 73  1  0  0  0  0
 35 79  2  0  0  0  0
 36 54  1  0  0  0  0
 36 75  1  0  0  0  0
 36 80  2  0  0  0  0
 37 64  1  0  0  0  0
 37 70  1  0  0  0  0
 37 81  2  0  0  0  0
 38 65  1  0  0  0  0
 38 76  1  0  0  0  0
 38 82  2  0  0  0  0
 39 71  1  0  0  0  0
 39 74  1  0  0  0  0
 39 83  2  0  0  0  0
 40 43  1  0  0  0  0
 41 54  1  0  0  0  0
 42 70  1  0  0  0  0
 43 45  1  0  0  0  0
 44 46  1  0  0  0  0
 44 49  1  0  0  0  0
 45 53  1  0  0  0  0
 46 55  1  0  0  0  0
 47 50  1  0  0  0  0
 47 56  1  0  0  0  0
 48 51  1  0  0  0  0
 48 56  1  0  0  0  0
 49 71  1  0  0  0  0
 50 69  1  0  0  0  0
 51 69  1  0  0  0  0
 52 55  1  0  0  0  0
 52 71  1  0  0  0  0
 53 75  1  0  0  0  0
 54 70  1  0  0  0  0
 55 68  1  0  0  0  0
 56 57  1  0  0  0  0
 56 63  1  0  0  0  0
 58 65  1  0  0  0  0
 59 66  1  0  0  0  0
 60 66  1  0  0  0  0
 61 66  1  0  0  0  0
 62 78  1  0  0  0  0
 63 85  1  0  0  0  0
 64 66  1  0  0  0  0
 64 76  1  0  0  0  0
 65 78  1  0  0  0  0
 67 68  1  0  0  0  0
M  CHG  2  77   1  78   1
M  ISO  4  39 100  63 101  74 100  85 101
M  END
> <Batch ID>
0145

> <Smiles>
CNC(C)C(=O)NC(C(=O)N1Cc2cc([101O:1][101CH2:1]C3(C)CCN(C(=N)c4ccc([100NH:0][100C:0](=O)N5CCCC(n6nc(-c7ccc(Oc8ccc(F)cc8F)cc7)c(C(N)=O)c6N)C5)cc4)CC3)ccc2CC1C(=O)NC1CCCc2ccccc21)C(C)(C)C

> <Shape>
0.278

> <Color>
0.093

> <Negative vol penalty>
0.000

$$$$

  -OEChem-04052303073D

 88 96  0     1  0  0  0  0  0999 V2000
  -27.6392  -35.1991   23.6451 C   0  0  0  0  0  0  0  0  0  0  0  0
  -28.3510  -34.1522   23.0682 C   0  0  0  0  0  0  0  0  0  0  0  0
  -23.0334   -9.9655   20.0282 C   0  0  0  0  0  0  0  0  0  0  0  0
  -23.7460  -10.0709   22.3343 C   0  0  0  0  0  0  0  0  0  0  0  0
  -26.4608  -34.9380   24.3432 C   0  0  0  0  0  0  0  0  0  0  0  0
  -27.8855  -32.8435   23.1900 C   0  0  0  0  0  0  0  0  0  0  0  0
  -28.3584  -28.3665   19.0381 C   0  0  0  0  0  0  0  0  0  0  0  0
  -22.2404   -8.8568   20.3238 C   0  0  0  0  0  0  0  0  0  0  0  0
  -22.9529   -8.9622   22.6300 C   0  0  0  0  0  0  0  0  0  0  0  0
  -29.2511  -27.3043   18.9016 C   0  0  0  0  0  0  0  0  0  0  0  0
  -19.6846   -8.3210   23.2022 C   0  0  0  0  0  0  0  0  0  0  0  0
  -18.9029   -8.3745   24.3562 C   0  0  0  0  0  0  0  0  0  0  0  0
  -30.0228  -17.7443   22.5506 C   0  0  0  0  0  0  0  0  0  0  0  0
  -27.6847  -25.8517   20.0223 C   0  0  0  0  0  0  0  0  0  0  0  0
  -20.0529   -6.4355   25.2251 C   0  0  0  0  0  0  0  0  0  0  0  0
  -32.0605  -17.2066   21.4481 C   0  0  0  0  0  0  0  0  0  0  0  0
  -23.7863  -10.5726   21.0334 C   0  0  0  0  0  0  0  0  0  0  0  0
  -30.5827  -18.9600   22.9272 C   0  0  0  0  0  0  0  0  0  0  0  0
  -24.2282  -13.0726   20.7835 C   0  0  0  0  0  0  0  0  0  0  0  0
  -25.9755  -33.6264   24.4653 C   0  0  0  0  0  0  0  0  0  0  0  0
  -27.1247  -28.1815   19.6785 C   0  0  0  0  0  0  0  0  0  0  0  0
  -26.7003  -32.5644   23.8915 C   0  0  0  0  0  0  0  0  0  0  0  0
  -26.7771  -26.9126   20.1633 C   0  0  0  0  0  0  0  0  0  0  0  0
  -30.7691  -16.8453   21.7969 C   0  0  0  0  0  0  0  0  0  0  0  0
  -22.2001   -8.3551   21.6247 C   0  0  0  0  0  0  0  0  0  0  0  0
  -28.9155  -26.0474   19.3963 C   0  0  0  0  0  0  0  0  0  0  0  0
  -20.6504   -7.3247   23.0596 C   0  0  0  0  0  0  0  0  0  0  0  0
  -19.0871   -7.4318   25.3676 C   0  0  0  0  0  0  0  0  0  0  0  0
  -20.8346   -6.3820   24.0711 C   0  0  0  0  0  0  0  0  0  0  0  0
  -24.6061  -11.7176   20.7284 C   0  0  0  0  0  0  0  0  0  0  0  0
  -31.8825  -19.2266   22.5280 C   0  0  0  0  0  0  0  0  0  0  0  0
  -25.3558  -13.7591   20.4045 C   0  0  0  0  0  0  0  0  0  0  0  0
  -29.8018  -19.9008   23.7166 C   0  0  0  0  0  0  0  0  0  0  0  0
  -22.9704  -13.6582   21.1449 C   0  0  0  0  0  0  0  0  0  0  0  0
  -25.7460  -29.3792   22.2801 C   0  0  0  0  0  0  0  0  0  0  0  0
  -23.1862  -27.6871   21.2282 C   0  0  0  0  0  0  0  0  0  0  0  0
  -22.0013  -25.0766   19.3766 C   0  0  0  0  0  0  0  0  0  0  0  0
  -30.8538  -14.6064   20.6451 C   0  0  0  0  0  0  0  0  0  0  0  0
  -24.7222  -33.3882   25.2697 C   0  0  0  0  0  0  0  0  0  0  0  0
  -26.1616  -29.3312   19.7940 C   0  0  0  0  0  0  0  0  0  0  0  0
  -25.4564  -26.6569   20.8408 C   0  0  0  0  0  0  0  0  0  0  0  0
  -24.0984  -32.0151   25.0332 C   0  0  0  0  0  0  0  0  0  0  0  0
  -29.6951  -12.1087   18.3875 C   0  0  0  0  0  0  0  0  0  0  0  0
  -25.1671  -30.9278   25.0817 C   0  0  0  0  0  0  0  0  0  0  0  0
  -28.2368  -11.8958   18.7998 C   0  0  0  0  0  0  0  0  0  0  0  0
  -30.5937  -12.3692   19.5952 C   0  0  0  0  0  0  0  0  0  0  0  0
  -28.6885  -13.2403   20.8916 C   0  0  0  0  0  0  0  0  0  0  0  0
  -26.2144  -31.1340   23.9807 C   0  0  1  0  0  0  0  0  0  0  0  0
  -25.1486  -29.1512   20.9204 C   0  0  1  0  0  0  0  0  0  0  0  0
  -27.7339  -13.0388   19.7033 C   0  0  2  0  0  0  0  0  0  0  0  0
  -27.6517  -21.2742   23.8086 C   0  0  0  0  0  0  0  0  0  0  0  0
  -19.8661  -23.9220   18.7401 C   0  0  0  0  0  0  0  0  0  0  0  0
  -23.0688  -26.3887   23.9869 C   0  0  0  0  0  0  0  0  0  0  0  0
  -21.5880  -24.6195   23.0145 C   0  0  0  0  0  0  0  0  0  0  0  0
  -20.8423  -27.0000   23.0260 C   0  0  0  0  0  0  0  0  0  0  0  0
  -22.4147  -25.6457   16.5018 C   0  0  0  0  0  0  0  0  0  0  0  0
  -28.2765  -19.9129   23.5457 C   0  0  0  0  0  0  0  0  0  0  0  0
  -31.1349  -23.3845   20.4020 C   0  0  0  0  0  0  0  0  0  0  0  0
  -29.7501  -24.0007   20.2741 C   0  0  0  0  0  0  0  0  0  1  0  0
  -31.1729  -22.3097   21.4743 C   0  0  0  0  0  0  0  0  0  0  0  0
  -22.6738  -26.2826   21.4376 C   0  0  1  0  0  0  0  0  0  0  0  0
  -20.8780  -24.9914   18.3591 C   0  0  2  0  0  0  0  0  0  0  0  0
  -22.0690  -26.0776   22.8553 C   0  0  0  0  0  0  0  0  0  0  0  0
  -32.6385  -18.3783   21.7954 N   0  0  0  0  0  0  0  0  0  0  0  0
  -25.8745  -11.5512   20.3446 N   0  0  0  0  0  0  0  0  0  0  0  0
  -26.3035  -12.8106   20.1550 N   0  0  0  0  0  0  0  0  0  0  0  0
  -24.5514  -27.8143   20.9351 N   0  0  0  0  0  0  0  0  0  0  0  0
  -30.0573  -13.4673   20.4022 N   0  0  0  0  0  0  0  0  0  0  0  0
  -25.6192  -15.0757   20.2637 N   0  0  0  0  0  0  0  0  0  0  0  0
  -21.9173  -12.8078   21.5083 N   0  0  0  0  0  0  0  0  0  0  0  0
  -30.2262  -15.5991   21.3970 N   0  0  0  0  0  0  0  0  0  0  0  0
  -32.5210  -20.4661   22.8830 N   0  0  0  0  0  0  0  0  0  0  0  0
  -25.6974  -30.6940   22.7026 N   0  0  0  0  0  0  0  0  0  0  0  0
  -21.7411  -26.0214   20.3466 N   0  0  0  0  0  0  0  0  0  0  0  0
  -21.4235  -24.6634   17.0116 N   0  3  0  0  0  0  0  0  0  0  0  0
  -30.3152  -20.6951   24.5219 O   0  0  0  0  0  0  0  0  0  0  0  0
  -22.7810  -14.8981   21.1296 O   0  0  0  0  0  0  0  0  0  0  0  0
  -26.2148  -28.4322   22.9006 O   0  0  0  0  0  0  0  0  0  0  0  0
  -22.4025  -28.6358   21.3142 O   0  0  0  0  0  0  0  0  0  0  0  0
  -23.0071  -24.3727   19.3190 O   0  0  0  0  0  0  0  0  0  0  0  0
  -31.9979  -14.7063   20.1945 O   0  0  0  0  0  0  0  0  0  0  0  0
  -33.6575  -22.6552   22.1632 O   0  0  0  0  0  0  0  0  0  0  0  0
  -33.1269  -20.9529   20.3840 O   0  0  0  0  0  0  0  0  0  0  0  0
  -21.4262   -7.2734   21.9137 O   0  0  0  0  0  0  0  0  0  0  0  0
  -29.7853  -25.0090   19.2649 O   0  0  0  0  0  0  0  0  0  1  0  0
  -18.3374   -7.4842   26.4764 F   0  0  0  0  0  0  0  0  0  0  0  0
  -21.7617   -5.4232   23.9403 F   0  0  0  0  0  0  0  0  0  0  0  0
  -32.7877  -21.6162   21.6326 S   0  0  0  0  0  0  0  0  0  0  0  0
  1  2  1  0  0  0  0
  1  5  2  0  0  0  0
  2  6  2  0  0  0  0
  3  8  2  0  0  0  0
  3 17  1  0  0  0  0
  4  9  1  0  0  0  0
  4 17  2  0  0  0  0
  5 20  1  0  0  0  0
  6 22  1  0  0  0  0
  7 10  2  0  0  0  0
  7 21  1  0  0  0  0
  8 25  1  0  0  0  0
  9 25  2  0  0  0  0
 10 26  1  0  0  0  0
 11 12  2  0  0  0  0
 11 27  1  0  0  0  0
 12 28  1  0  0  0  0
 13 18  1  0  0  0  0
 13 24  2  0  0  0  0
 14 23  1  0  0  0  0
 14 26  2  0  0  0  0
 15 28  2  0  0  0  0
 15 29  1  0  0  0  0
 16 24  1  0  0  0  0
 16 64  2  0  0  0  0
 17 30  1  0  0  0  0
 18 31  2  0  0  0  0
 18 33  1  0  0  0  0
 19 30  1  0  0  0  0
 19 32  2  0  0  0  0
 19 34  1  0  0  0  0
 20 22  2  0  0  0  0
 20 39  1  0  0  0  0
 21 23  2  0  0  0  0
 21 40  1  0  0  0  0
 22 48  1  0  0  0  0
 23 41  1  0  0  0  0
 24 71  1  0  0  0  0
 25 84  1  0  0  0  0
 26 85  1  0  0  0  0
 27 29  2  0  0  0  0
 27 84  1  0  0  0  0
 28 86  1  0  0  0  0
 29 87  1  0  0  0  0
 30 65  2  0  0  0  0
 31 64  1  0  0  0  0
 31 72  1  0  0  0  0
 32 66  1  0  0  0  0
 32 69  1  0  0  0  0
 33 57  1  0  0  0  0
 33 76  2  0  0  0  0
 34 70  1  0  0  0  0
 34 77  2  0  0  0  0
 35 49  1  0  0  0  0
 35 73  1  0  0  0  0
 35 78  2  0  0  0  0
 36 61  1  0  0  0  0
 36 67  1  0  0  0  0
 36 79  2  0  0  0  0
 37 62  1  0  0  0  0
 37 74  1  0  0  0  0
 37 80  2  0  0  0  0
 38 68  1  0  0  0  0
 38 71  1  0  0  0  0
 38 81  2  0  0  0  0
 39 42  1  0  0  0  0
 40 49  1  0  0  0  0
 41 67  1  0  0  0  0
 42 44  1  0  0  0  0
 43 45  1  0  0  0  0
 43 46  1  0  0  0  0
 44 48  1  0  0  0  0
 45 50  1  0  0  0  0
 46 68  1  0  0  0  0
 47 50  1  0  0  0  0
 47 68  1  0  0  0  0
 48 73  1  0  0  0  0
 49 67  1  0  0  0  0
 50 66  1  0  0  0  0
 51 57  1  0  0  0  0
 52 62  1  0  0  0  0
 53 63  1  0  0  0  0
 54 63  1  0  0  0  0
 55 63  1  0  0  0  0
 56 75  1  0  0  0  0
 58 59  1  0  0  0  0
 58 60  1  0  0  0  0
 59 85  1  0  0  0  0
 60 88  1  0  0  0  0
 61 63  1  0  0  0  0
 61 74  1  0  0  0  0
 62 75  1  0  0  0  0
 65 66  1  0  0  0  0
 72 88  1  0  0  0  0
 82 88  2  0  0  0  0
 83 88  2  0  0  0  0
M  CHG  1  75   1
M  ISO  4  38 100  59 101  71 100  85 101
M  END
> <Batch ID>
0145

> <Smiles>
CCC(=O)c1cc([100NH:0][100C:0](=O)N2CCCC(n3nc(-c4ccc(Oc5ccc(F)cc5F)cc4)c(C(N)=O)c3N)C2)cnc1NS(=O)(=O)CC[101CH2:1][101O:1]c1ccc2c(c1)CN(C(=O)C(NC(=O)C(C)NC)C(C)(C)C)C(C(=O)NC1CCCc3ccccc31)C2

> <Shape>
0.323

> <Color>
0.195

> <Negative vol penalty>
0.000

$$$$

  -OEChem-04052303073D

 83 92  0     1  0  0  0  0  0999 V2000
  -23.3517  -36.1895   16.3047 C   0  0  0  0  0  0  0  0  0  0  0  0
  -23.7831  -34.8809   16.1128 C   0  0  0  0  0  0  0  0  0  0  0  0
  -24.2954   -9.8585   21.9605 C   0  0  0  0  0  0  0  0  0  0  0  0
  -23.0541  -11.8205   22.6289 C   0  0  0  0  0  0  0  0  0  0  0  0
  -23.6402  -36.8494   17.4985 C   0  0  0  0  0  0  0  0  0  0  0  0
  -24.5042  -34.2317   17.1143 C   0  0  0  0  0  0  0  0  0  0  0  0
  -24.2826  -28.2804   18.5419 C   0  0  0  0  0  0  0  0  0  0  0  0
  -23.5333   -9.0797   22.8313 C   0  0  0  0  0  0  0  0  0  0  0  0
  -22.2920  -11.0417   23.4997 C   0  0  0  0  0  0  0  0  0  0  0  0
  -25.1047  -27.2047   18.2092 C   0  0  0  0  0  0  0  0  0  0  0  0
  -20.4591   -7.6725   22.8724 C   0  0  0  0  0  0  0  0  0  0  0  0
  -19.9741   -6.4542   22.3968 C   0  0  0  0  0  0  0  0  0  0  0  0
  -26.2901  -27.4740   20.2929 C   0  0  0  0  0  0  0  0  0  0  0  0
  -29.3314  -19.7449   18.1254 C   0  0  0  0  0  0  0  0  0  0  0  0
  -21.1862   -5.2933   24.1347 C   0  0  0  0  0  0  0  0  0  0  0  0
  -27.2044  -19.1911   17.3694 C   0  0  0  0  0  0  0  0  0  0  0  0
  -24.0558  -11.2289   21.8593 C   0  0  0  0  0  0  0  0  0  0  0  0
  -24.5656  -12.3189   19.6099 C   0  0  0  0  0  0  0  0  0  0  0  0
  -24.3569  -36.2047   18.5190 C   0  0  0  0  0  0  0  0  0  0  0  0
  -24.4653  -28.9690   19.7498 C   0  0  0  0  0  0  0  0  0  0  0  0
  -24.8037  -34.8840   18.3224 C   0  0  0  0  0  0  0  0  0  0  0  0
  -25.4673  -28.5565   20.6397 C   0  0  0  0  0  0  0  0  0  0  0  0
  -28.2178  -18.8639   18.2432 C   0  0  0  0  0  0  0  0  0  0  0  0
  -22.5316   -9.6713   23.6009 C   0  0  0  0  0  0  0  0  0  0  0  0
  -26.1106  -26.8032   19.0834 C   0  0  0  0  0  0  0  0  0  0  0  0
  -21.3077   -7.7012   23.9791 C   0  0  0  0  0  0  0  0  0  0  0  0
  -20.3377   -5.2646   23.0279 C   0  0  0  0  0  0  0  0  0  0  0  0
  -21.6712   -6.5116   24.6102 C   0  0  0  0  0  0  0  0  0  0  0  0
  -24.8431  -12.0341   20.9604 C   0  0  0  0  0  0  0  0  0  0  0  0
  -29.1269  -20.7118   17.1657 C   0  0  0  0  0  0  0  0  0  0  0  0
  -25.6080  -13.1169   19.2061 C   0  0  0  0  0  0  0  0  0  0  0  0
  -29.1410  -25.0254   18.3517 C   0  0  0  0  0  0  0  0  0  0  0  0
  -28.2591  -25.9804   18.6619 C   0  0  0  0  0  0  0  0  0  1  0  0
  -23.4641  -11.8996   18.7935 C   0  0  0  0  0  0  0  0  0  0  0  0
  -25.2155  -31.9556   20.5377 C   0  0  0  0  0  0  0  0  0  0  0  0
  -24.6284  -30.8960   23.5469 C   0  0  0  0  0  0  0  0  0  0  0  0
  -24.4461  -28.2593   25.7060 C   0  0  0  0  0  0  0  0  0  0  0  0
  -29.1063  -17.3635   20.0614 C   0  0  0  0  0  0  0  0  0  0  0  0
  -24.6856  -36.9749   19.7734 C   0  0  0  0  0  0  0  0  0  0  0  0
  -23.5528  -30.1104   20.1060 C   0  0  0  0  0  0  0  0  0  0  0  0
  -25.6915  -29.2496   21.9580 C   0  0  0  0  0  0  0  0  0  0  0  0
  -30.6235  -25.2160   18.2295 C   0  0  0  0  0  0  0  0  0  0  0  0
  -28.7948  -23.6104   18.0129 C   0  0  0  0  0  0  0  0  0  0  0  0
  -25.1310  -36.0882   20.9334 C   0  0  0  0  0  0  0  0  0  0  0  0
  -29.9861  -14.2243   21.4927 C   0  0  0  0  0  0  0  0  0  0  0  0
  -26.1609  -35.0673   20.4602 C   0  0  0  0  0  0  0  0  0  0  0  0
  -28.7037  -13.3981   21.3707 C   0  0  0  0  0  0  0  0  0  0  0  0
  -29.6889  -15.6902   21.8036 C   0  0  0  0  0  0  0  0  0  0  0  0
  -27.4624  -15.5142   20.7639 C   0  0  0  0  0  0  0  0  0  0  0  0
  -31.0585  -24.0530   17.3477 C   0  0  0  0  0  0  0  0  0  0  0  0
  -25.5670  -34.1377   19.3950 C   0  0  1  0  0  0  0  0  0  0  0  0
  -24.1607  -31.0642   21.1297 C   0  0  1  0  0  0  0  0  0  0  0  0
  -27.7084  -14.0442   20.3870 C   0  0  2  0  0  0  0  0  0  0  0  0
  -23.9799  -27.7104   28.1099 C   0  0  0  0  0  0  0  0  0  0  0  0
  -27.3918  -31.9351   24.3176 C   0  0  0  0  0  0  0  0  0  0  0  0
  -27.2570  -30.5473   26.3970 C   0  0  0  0  0  0  0  0  0  0  0  0
  -25.6030  -32.3740   26.0093 C   0  0  0  0  0  0  0  0  0  0  0  0
  -22.1287  -26.5635   24.9900 C   0  0  0  0  0  0  0  0  0  0  0  0
  -30.0491  -21.8167   16.7417 C   0  0  0  0  0  0  0  0  0  0  0  0
  -25.4559  -30.2566   24.6356 C   0  0  1  0  0  0  0  0  0  0  0  0
  -23.3876  -27.8565   26.7168 C   0  0  2  0  0  0  0  0  0  0  0  0
  -26.4242  -31.2662   25.3142 C   0  0  0  0  0  0  0  0  0  0  0  0
  -25.9732  -12.6046   21.3860 N   0  0  0  0  0  0  0  0  0  0  0  0
  -26.4152  -13.2559   20.2967 N   0  0  0  0  0  0  0  0  0  0  0  0
  -24.7775  -30.3640   22.2582 N   0  0  0  0  0  0  0  0  0  0  0  0
  -28.7427  -16.2364   20.8284 N   0  0  0  0  0  0  0  0  0  0  0  0
  -25.9038  -13.7062   18.0282 N   0  0  0  0  0  0  0  0  0  0  0  0
  -22.4810  -11.0815   19.3667 N   0  0  0  0  0  0  0  0  0  0  0  0
  -28.1390  -17.7731   19.1442 N   0  0  0  0  0  0  0  0  0  0  0  0
  -24.7247  -33.1354   20.0117 N   0  0  0  0  0  0  0  0  0  0  0  0
  -24.5100  -29.6280   25.5514 N   0  0  0  0  0  0  0  0  0  0  0  0
  -30.1167  -22.9334   17.7294 N   0  3  2  0  0  0  0  0  0  0  0  0
  -22.7701  -26.5565   26.3299 N   0  3  0  0  0  0  0  0  0  0  0  0
  -23.3634  -12.2269   17.5867 O   0  0  0  0  0  0  0  0  0  0  0  0
  -26.3880  -31.6001   20.5581 O   0  0  0  0  0  0  0  0  0  0  0  0
  -23.8720  -31.8282   23.8306 O   0  0  0  0  0  0  0  0  0  0  0  0
  -25.1487  -27.4419   25.1155 O   0  0  0  0  0  0  0  0  0  0  0  0
  -30.2063  -17.9075   20.1883 O   0  0  0  0  0  0  0  0  0  0  0  0
  -21.7877   -8.9116   24.4506 O   0  0  0  0  0  0  0  0  0  0  0  0
  -26.9149  -25.7540   18.7608 O   0  0  0  0  0  0  0  0  0  1  0  0
  -19.8707   -4.0949   22.5720 F   0  0  0  0  0  0  0  0  0  0  0  0
  -22.4852   -6.5329   25.6746 F   0  0  0  0  0  0  0  0  0  0  0  0
  -27.5973  -20.5555   16.4119 S   0  0  0  0  0  0  0  0  0  0  0  0
  1  2  1  0  0  0  0
  1  5  2  0  0  0  0
  2  6  2  0  0  0  0
  3  8  2  0  0  0  0
  3 17  1  0  0  0  0
  4  9  1  0  0  0  0
  4 17  2  0  0  0  0
  5 19  1  0  0  0  0
  6 21  1  0  0  0  0
  7 10  2  0  0  0  0
  7 20  1  0  0  0  0
  8 24  1  0  0  0  0
  9 24  2  0  0  0  0
 10 25  1  0  0  0  0
 11 12  2  0  0  0  0
 11 26  1  0  0  0  0
 12 27  1  0  0  0  0
 13 22  1  0  0  0  0
 13 25  2  0  0  0  0
 14 23  1  0  0  0  0
 14 30  2  0  0  0  0
 15 27  2  0  0  0  0
 15 28  1  0  0  0  0
 16 23  2  0  0  0  0
 16 83  1  0  0  0  0
 17 29  1  0  0  0  0
 18 29  1  0  0  0  0
 18 31  2  0  0  0  0
 18 34  1  0  0  0  0
 19 21  2  0  0  0  0
 19 39  1  0  0  0  0
 20 22  2  0  0  0  0
 20 40  1  0  0  0  0
 21 51  1  0  0  0  0
 22 41  1  0  0  0  0
 23 69  1  0  0  0  0
 24 79  1  0  0  0  0
 25 80  1  0  0  0  0
 26 28  2  0  0  0  0
 26 79  1  0  0  0  0
 27 81  1  0  0  0  0
 28 82  1  0  0  0  0
 29 63  2  0  0  0  0
 30 59  1  0  0  0  0
 30 83  1  0  0  0  0
 31 64  1  0  0  0  0
 31 67  1  0  0  0  0
 32 33  2  0  0  0  0
 32 42  1  0  0  0  0
 32 43  1  0  0  0  0
 33 80  1  0  0  0  0
 34 68  1  0  0  0  0
 34 74  2  0  0  0  0
 35 52  1  0  0  0  0
 35 70  1  0  0  0  0
 35 75  2  0  0  0  0
 36 60  1  0  0  0  0
 36 65  1  0  0  0  0
 36 76  2  0  0  0  0
 37 61  1  0  0  0  0
 37 71  1  0  0  0  0
 37 77  2  0  0  0  0
 38 66  1  0  0  0  0
 38 69  1  0  0  0  0
 38 78  2  0  0  0  0
 39 44  1  0  0  0  0
 40 52  1  0  0  0  0
 41 65  1  0  0  0  0
 42 50  1  0  0  0  0
 43 72  1  0  0  0  0
 44 46  1  0  0  0  0
 45 47  1  0  0  0  0
 45 48  1  0  0  0  0
 46 51  1  0  0  0  0
 47 53  1  0  0  0  0
 48 66  1  0  0  0  0
 49 53  1  0  0  0  0
 49 66  1  0  0  0  0
 50 72  1  0  0  0  0
 51 70  1  0  0  0  0
 52 65  1  0  0  0  0
 53 64  1  0  0  0  0
 54 61  1  0  0  0  0
 55 62  1  0  0  0  0
 56 62  1  0  0  0  0
 57 62  1  0  0  0  0
 58 73  1  0  0  0  0
 59 72  1  0  0  0  0
 60 62  1  0  0  0  0
 60 71  1  0  0  0  0
 61 73  1  0  0  0  0
 63 64  1  0  0  0  0
M  CHG  2  72   1  73   1
M  ISO  4  33 101  38 100  69 100  80 101
M  END
> <Batch ID>
0145

> <Smiles>
CNC(C)C(=O)NC(C(=O)N1Cc2cc([101O:1][101CH:1]=C3CCN(Cc4cc([100NH:0][100C:0](=O)N5CCCC(n6nc(-c7ccc(Oc8ccc(F)cc8F)cc7)c(C(N)=O)c6N)C5)cs4)C3)ccc2CC1C(=O)NC1CCCc2ccccc21)C(C)(C)C

> <Shape>
0.275

> <Color>
0.096

> <Negative vol penalty>
0.000

$$$$

  -OEChem-04052303073D

 86 95  0     1  0  0  0  0  0999 V2000
  -16.6654  -30.0510   23.8987 C   0  0  0  0  0  0  0  0  0  0  0  0
  -17.8089  -30.6229   24.4472 C   0  0  0  0  0  0  0  0  0  0  0  0
  -31.8492  -23.3239   18.0687 C   0  0  0  0  0  0  0  0  0  0  0  0
  -28.4202  -13.1966   23.4471 C   0  0  0  0  0  0  0  0  0  0  0  0
  -27.1226  -14.1758   21.6598 C   0  0  0  0  0  0  0  0  0  0  0  0
  -16.7719  -28.9187   23.0922 C   0  0  0  0  0  0  0  0  0  0  0  0
  -19.0595  -30.0622   24.1902 C   0  0  0  0  0  0  0  0  0  0  0  0
  -25.9262  -31.9003   23.3031 C   0  0  0  0  0  0  0  0  0  0  0  0
  -31.4754  -24.6516   18.2760 C   0  0  0  0  0  0  0  0  0  0  0  0
  -31.6842  -22.3856   19.0875 C   0  0  0  0  0  0  0  0  0  0  0  0
  -27.4957  -12.1570   23.5487 C   0  0  0  0  0  0  0  0  0  0  0  0
  -26.1982  -13.1362   21.7613 C   0  0  0  0  0  0  0  0  0  0  0  0
  -27.1966  -31.5826   23.7814 C   0  0  0  0  0  0  0  0  0  0  0  0
  -26.7743   -9.2951   21.8990 C   0  0  0  0  0  0  0  0  0  0  0  0
  -27.2695   -7.9955   22.0060 C   0  0  0  0  0  0  0  0  0  0  0  0
  -27.2669  -29.6731   22.3090 C   0  0  0  0  0  0  0  0  0  0  0  0
  -30.7715  -24.1029   20.5211 C   0  0  0  0  0  0  0  0  0  0  0  0
  -26.1641   -7.7501   24.1402 C   0  0  0  0  0  0  0  0  0  0  0  0
  -28.2336  -14.2060   22.5027 C   0  0  0  0  0  0  0  0  0  0  0  0
  -30.3368  -15.3206   21.5852 C   0  0  0  0  0  0  0  0  0  0  0  0
  -18.0254  -28.3495   22.8174 C   0  0  0  0  0  0  0  0  0  0  0  0
  -25.3110  -31.0991   22.3304 C   0  0  0  0  0  0  0  0  0  0  0  0
  -19.1827  -28.9205   23.3804 C   0  0  0  0  0  0  0  0  0  0  0  0
  -25.9897  -29.9842   21.8182 C   0  0  0  0  0  0  0  0  0  0  0  0
  -30.9366  -25.0412   19.5022 C   0  0  0  0  0  0  0  0  0  0  0  0
  -31.1454  -22.7751   20.3138 C   0  0  0  0  0  0  0  0  0  0  0  0
  -26.3848  -12.1268   22.7058 C   0  0  0  0  0  0  0  0  0  0  0  0
  -27.8660  -30.4672   23.2865 C   0  0  0  0  0  0  0  0  0  0  0  0
  -25.9741   -9.8223   22.9126 C   0  0  0  0  0  0  0  0  0  0  0  0
  -26.9643   -7.2230   23.1266 C   0  0  0  0  0  0  0  0  0  0  0  0
  -25.6690   -9.0498   24.0332 C   0  0  0  0  0  0  0  0  0  0  0  0
  -29.1878  -15.2805   22.3976 C   0  0  0  0  0  0  0  0  0  0  0  0
  -30.8997  -16.5459   21.8467 C   0  0  0  0  0  0  0  0  0  0  0  0
  -29.9188  -28.3272   20.7423 C   0  0  0  0  0  0  0  0  0  0  0  0
  -29.8616  -29.2428   21.7153 C   0  0  0  0  0  0  0  0  0  0  0  0
  -30.8495  -14.3381   20.6754 C   0  0  0  0  0  0  0  0  0  0  0  0
  -22.6645  -29.3421   22.2175 C   0  0  0  0  0  0  0  0  0  0  0  0
  -23.4852  -29.0088   19.0970 C   0  0  0  0  0  0  0  0  0  0  0  0
  -25.8705  -28.5305   16.4325 C   0  0  0  0  0  0  0  0  0  0  0  0
  -30.4602  -22.0418   22.6244 C   0  0  0  0  0  0  0  0  0  0  0  0
  -18.0860  -27.0976   21.9785 C   0  0  0  0  0  0  0  0  0  0  0  0
  -23.9512  -31.4706   21.8054 C   0  0  0  0  0  0  0  0  0  0  0  0
  -25.3814  -29.1033   20.7586 C   0  0  0  0  0  0  0  0  0  0  0  0
  -30.0356  -28.6296   19.2819 C   0  0  0  0  0  0  0  0  0  0  0  0
  -29.9950  -26.8457   20.9591 C   0  0  0  0  0  0  0  0  0  0  0  0
  -19.4836  -26.7859   21.4496 C   0  0  0  0  0  0  0  0  0  0  0  0
  -29.8530  -19.9516   25.4422 C   0  0  0  0  0  0  0  0  0  0  0  0
  -20.5181  -26.9221   22.5623 C   0  0  0  0  0  0  0  0  0  0  0  0
  -29.7203  -18.5533   24.8344 C   0  0  0  0  0  0  0  0  0  0  0  0
  -30.8127  -27.4297   18.7477 C   0  0  0  0  0  0  0  0  0  0  0  0
  -29.2458  -21.0229   24.5380 C   0  0  0  0  0  0  0  0  0  0  0  0
  -29.6020  -19.6184   22.5456 C   0  0  0  0  0  0  0  0  0  0  0  0
  -20.5595  -28.3559   23.1046 C   0  0  1  0  0  0  0  0  0  0  0  0
  -23.2070  -30.2913   21.1868 C   0  0  1  0  0  0  0  0  0  0  0  0
  -30.2571  -18.5133   23.3902 C   0  0  2  0  0  0  0  0  0  0  0  0
  -25.5460  -28.4625   13.9450 C   0  0  0  0  0  0  0  0  0  0  0  0
  -31.1316  -28.8802   23.8185 C   0  0  0  0  0  0  0  0  0  0  0  0
  -28.8870  -27.7815   23.5916 C   0  0  0  0  0  0  0  0  0  0  0  0
  -23.2867  -25.9904   19.4967 C   0  0  0  0  0  0  0  0  0  0  0  0
  -24.5598  -25.6940   17.3613 C   0  0  0  0  0  0  0  0  0  0  0  0
  -22.3348  -26.8218   17.3386 C   0  0  0  0  0  0  0  0  0  0  0  0
  -27.8677  -30.6707   15.9968 C   0  0  0  0  0  0  0  0  0  0  0  0
  -24.3288  -28.0338   18.3116 C   0  0  1  0  0  0  0  0  0  0  0  0
  -25.9542  -29.3156   15.1360 C   0  0  2  0  0  0  0  0  0  0  0  0
  -29.7340  -28.9978   23.2009 C   0  0  0  0  0  0  0  0  0  1  0  0
  -23.6385  -26.6503   18.1484 C   0  0  0  0  0  0  0  0  0  0  0  0
  -29.0289  -16.3919   23.1212 N   0  0  0  0  0  0  0  0  0  0  0  0
  -30.0855  -17.1418   22.7644 N   0  0  0  0  0  0  0  0  0  0  0  0
  -30.5659  -26.3557   19.7070 N   0  0  3  0  0  0  0  0  0  0  0  0
  -24.0474  -29.5044   20.2819 N   0  0  0  0  0  0  0  0  0  0  0  0
  -29.8044  -20.9267   23.1877 N   0  0  0  0  0  0  0  0  0  0  0  0
  -32.0067  -17.1608   21.3790 N   0  0  0  0  0  0  0  0  0  0  0  0
  -30.1473  -13.1343   20.5267 N   0  0  0  0  0  0  0  0  0  0  0  0
  -30.9790  -21.8219   21.3488 N   0  0  0  0  0  0  0  0  0  0  0  0
  -21.2884  -29.2179   22.1991 N   0  0  0  0  0  0  0  0  0  0  0  0
  -24.6489  -28.6943   17.0508 N   0  0  0  0  0  0  0  0  0  0  0  0
  -27.3458  -29.7996   14.9124 N   0  3  0  0  0  0  0  0  0  0  0  0
  -31.9081  -14.5156   20.0263 O   0  0  0  0  0  0  0  0  0  0  0  0
  -23.4374  -28.7639   22.9725 O   0  0  0  0  0  0  0  0  0  0  0  0
  -22.3715  -29.3247   18.6709 O   0  0  0  0  0  0  0  0  0  0  0  0
  -26.7948  -27.8381   16.8528 O   0  0  0  0  0  0  0  0  0  0  0  0
  -30.5785  -23.1043   23.2400 O   0  0  0  0  0  0  0  0  0  0  0  0
  -25.4827  -11.1124   22.8045 O   0  0  0  0  0  0  0  0  0  0  0  0
  -29.1059  -30.1545   23.7521 O   0  0  0  0  0  0  0  0  0  1  0  0
  -27.4386   -5.9745   23.2285 F   0  0  0  0  0  0  0  0  0  0  0  0
  -24.8997   -9.5503   25.0097 F   0  0  0  0  0  0  0  0  0  0  0  0
  1  2  1  0  0  0  0
  1  6  2  0  0  0  0
  2  7  2  0  0  0  0
  3  9  2  0  0  0  0
  3 10  1  0  0  0  0
  4 11  2  0  0  0  0
  4 19  1  0  0  0  0
  5 12  1  0  0  0  0
  5 19  2  0  0  0  0
  6 21  1  0  0  0  0
  7 23  1  0  0  0  0
  8 13  2  0  0  0  0
  8 22  1  0  0  0  0
  9 25  1  0  0  0  0
 10 26  2  0  0  0  0
 11 27  1  0  0  0  0
 12 27  2  0  0  0  0
 13 28  1  0  0  0  0
 14 15  2  0  0  0  0
 14 29  1  0  0  0  0
 15 30  1  0  0  0  0
 16 24  1  0  0  0  0
 16 28  2  0  0  0  0
 17 25  2  0  0  0  0
 17 26  1  0  0  0  0
 18 30  2  0  0  0  0
 18 31  1  0  0  0  0
 19 32  1  0  0  0  0
 20 32  1  0  0  0  0
 20 33  2  0  0  0  0
 20 36  1  0  0  0  0
 21 23  2  0  0  0  0
 21 41  1  0  0  0  0
 22 24  2  0  0  0  0
 22 42  1  0  0  0  0
 23 53  1  0  0  0  0
 24 43  1  0  0  0  0
 25 69  1  0  0  0  0
 26 74  1  0  0  0  0
 27 83  1  0  0  0  0
 28 84  1  0  0  0  0
 29 31  2  0  0  0  0
 29 83  1  0  0  0  0
 30 85  1  0  0  0  0
 31 86  1  0  0  0  0
 32 67  2  0  0  0  0
 33 68  1  0  0  0  0
 33 72  1  0  0  0  0
 34 35  2  0  0  0  0
 34 44  1  0  0  0  0
 34 45  1  0  0  0  0
 35 65  1  0  0  0  0
 36 73  1  0  0  0  0
 36 78  2  0  0  0  0
 37 54  1  0  0  0  0
 37 75  1  0  0  0  0
 37 79  2  0  0  0  0
 38 63  1  0  0  0  0
 38 70  1  0  0  0  0
 38 80  2  0  0  0  0
 39 64  1  0  0  0  0
 39 76  1  0  0  0  0
 39 81  2  0  0  0  0
 40 71  1  0  0  0  0
 40 74  1  0  0  0  0
 40 82  2  0  0  0  0
 41 46  1  0  0  0  0
 42 54  1  0  0  0  0
 43 70  1  0  0  0  0
 44 50  1  0  0  0  0
 45 69  1  0  0  0  0
 46 48  1  0  0  0  0
 47 49  1  0  0  0  0
 47 51  1  0  0  0  0
 48 53  1  0  0  0  0
 49 55  1  0  0  0  0
 50 69  1  0  0  0  0
 51 71  1  0  0  0  0
 52 55  1  0  0  0  0
 52 71  1  0  0  0  0
 53 75  1  0  0  0  0
 54 70  1  0  0  0  0
 55 68  1  0  0  0  0
 56 64  1  0  0  0  0
 57 65  1  0  0  0  0
 58 65  1  0  0  0  0
 59 66  1  0  0  0  0
 60 66  1  0  0  0  0
 61 66  1  0  0  0  0
 62 77  1  0  0  0  0
 63 66  1  0  0  0  0
 63 76  1  0  0  0  0
 64 77  1  0  0  0  0
 65 84  1  0  0  0  0
 67 68  1  0  0  0  0
M  CHG  1  77   1
M  ISO  4  40 100  65 101  74 100  84 101
M  END
> <Batch ID>
0145

> <Smiles>
CNC(C)C(=O)NC(C(=O)N1Cc2cc([101O:1][101C:1](C)(C)C=C3CCN(c4cccc([100NH:0][100C:0](=O)N5CCCC(n6nc(-c7ccc(Oc8ccc(F)cc8F)cc7)c(C(N)=O)c6N)C5)c4)C3)ccc2CC1C(=O)NC1CCCc2ccccc21)C(C)(C)C

> <Shape>
0.266

> <Color>
0.111

> <Negative vol penalty>
0.000

$$$$

  -OEChem-04052303073D

 88 97  0     1  0  0  0  0  0999 V2000
  -17.5434  -27.1634   23.0659 C   0  0  0  0  0  0  0  0  0  0  0  0
  -18.5931  -26.3591   23.4979 C   0  0  0  0  0  0  0  0  0  0  0  0
  -21.8711  -10.7296   20.8848 C   0  0  0  0  0  0  0  0  0  0  0  0
  -23.1155  -10.2840   22.9072 C   0  0  0  0  0  0  0  0  0  0  0  0
  -17.7933  -28.2308   22.2045 C   0  0  0  0  0  0  0  0  0  0  0  0
  -19.8934  -26.6211   23.0676 C   0  0  0  0  0  0  0  0  0  0  0  0
  -28.9020  -21.9889   18.3179 C   0  0  0  0  0  0  0  0  0  0  0  0
  -26.6939  -26.2224   25.2834 C   0  0  0  0  0  0  0  0  0  0  0  0
  -29.2242  -23.1752   18.9761 C   0  0  0  0  0  0  0  0  0  0  0  0
  -21.7421   -9.3587   20.6622 C   0  0  0  0  0  0  0  0  0  0  0  0
  -22.9865   -8.9131   22.6846 C   0  0  0  0  0  0  0  0  0  0  0  0
  -27.9288  -25.7132   24.8839 C   0  0  0  0  0  0  0  0  0  0  0  0
  -20.6163   -6.5381   23.0873 C   0  0  0  0  0  0  0  0  0  0  0  0
  -20.2610   -5.7374   24.1727 C   0  0  0  0  0  0  0  0  0  0  0  0
  -27.2810  -22.9195   20.3842 C   0  0  0  0  0  0  0  0  0  0  0  0
  -28.2525  -27.6324   23.4588 C   0  0  0  0  0  0  0  0  0  0  0  0
  -22.3175   -4.4933   23.9281 C   0  0  0  0  0  0  0  0  0  0  0  0
  -22.5579  -11.1923   22.0074 C   0  0  0  0  0  0  0  0  0  0  0  0
  -21.8148  -13.4388   22.9606 C   0  0  0  0  0  0  0  0  0  0  0  0
  -19.0986  -28.5118   21.7711 C   0  0  0  0  0  0  0  0  0  0  0  0
  -27.7602  -21.2608   18.6816 C   0  0  0  0  0  0  0  0  0  0  0  0
  -26.2234  -27.4372   24.7644 C   0  0  0  0  0  0  0  0  0  0  0  0
  -20.1608  -27.6924   22.1985 C   0  0  0  0  0  0  0  0  0  0  0  0
  -26.9509  -21.7208   19.7354 C   0  0  0  0  0  0  0  0  0  0  0  0
  -27.0125  -28.1562   23.8553 C   0  0  0  0  0  0  0  0  0  0  0  0
  -28.4129  -23.6416   20.0068 C   0  0  0  0  0  0  0  0  0  0  0  0
  -22.2998   -8.4505   21.5620 C   0  0  0  0  0  0  0  0  0  0  0  0
  -28.7070  -26.4167   23.9693 C   0  0  0  0  0  0  0  0  0  0  0  0
  -21.8222   -6.3164   22.4222 C   0  0  0  0  0  0  0  0  0  0  0  0
  -21.1116   -4.7150   24.5932 C   0  0  0  0  0  0  0  0  0  0  0  0
  -22.6728   -5.2940   22.8426 C   0  0  0  0  0  0  0  0  0  0  0  0
  -22.6920  -12.6083   22.2376 C   0  0  0  0  0  0  0  0  0  0  0  0
  -22.3840  -14.6866   22.8863 C   0  0  0  0  0  0  0  0  0  0  0  0
  -20.5947  -13.1116   23.6387 C   0  0  0  0  0  0  0  0  0  0  0  0
  -23.7078  -28.3108   23.0289 C   0  0  0  0  0  0  0  0  0  0  0  0
  -24.8437  -31.2958   23.5959 C   0  0  0  0  0  0  0  0  0  0  0  0
  -29.8130  -25.6885   20.4242 C   0  0  0  0  0  0  0  0  0  0  0  0
  -26.6784  -34.0898   24.2845 C   0  0  0  0  0  0  0  0  0  0  0  0
  -24.7670  -18.7007   20.2200 C   0  0  0  0  0  0  0  0  0  0  0  0
  -19.3131  -29.6477   20.8024 C   0  0  0  0  0  0  0  0  0  0  0  0
  -27.4478  -19.9675   17.9738 C   0  0  0  0  0  0  0  0  0  0  0  0
  -24.9012  -27.9862   25.2257 C   0  0  0  0  0  0  0  0  0  0  0  0
  -25.7114  -20.9749   20.1570 C   0  0  0  0  0  0  0  0  0  0  0  0
  -26.5619  -29.4749   23.2839 C   0  0  0  0  0  0  0  0  0  0  0  0
  -20.7711  -30.0860   20.6908 C   0  0  0  0  0  0  0  0  0  0  0  0
  -26.9428  -16.1463   21.2767 C   0  0  0  0  0  0  0  0  0  0  0  0
  -21.6837  -28.8724   20.5450 C   0  0  0  0  0  0  0  0  0  0  0  0
  -25.9546  -15.0528   21.6803 C   0  0  0  0  0  0  0  0  0  0  0  0
  -26.0020  -19.5269   18.1767 C   0  0  0  0  0  0  0  0  0  0  0  0
  -26.5065  -16.8715   20.0026 C   0  0  0  0  0  0  0  0  0  0  0  0
  -24.1407  -16.3172   20.4647 C   0  0  0  0  0  0  0  0  0  0  0  0
  -21.5884  -27.9597   21.7735 C   0  0  1  0  0  0  0  0  0  0  0  0
  -24.2905  -28.9793   24.2418 C   0  0  1  0  0  0  0  0  0  0  0  0
  -24.5233  -15.6102   21.7742 C   0  0  1  0  0  0  0  0  0  0  0  0
  -31.7627  -27.9639   24.6125 C   0  0  0  0  0  0  0  0  0  0  0  0
  -26.7068  -36.5705   23.9063 C   0  0  0  0  0  0  0  0  0  0  0  0
  -25.7506  -30.8443   20.7178 C   0  0  0  0  0  0  0  0  0  0  0  0
  -26.6516  -33.1801   20.7088 C   0  0  0  0  0  0  0  0  0  0  0  0
  -24.2094  -32.7885   21.0331 C   0  0  0  0  0  0  0  0  0  0  0  0
  -31.9590  -25.9483   22.3508 C   0  0  0  0  0  0  0  0  0  0  0  0
  -26.5592  -34.6507   27.1879 C   0  0  0  0  0  0  0  0  0  0  0  0
  -29.8188  -26.8984   21.3511 C   0  0  0  0  0  0  0  0  0  0  0  0
  -31.0050  -28.0591   23.2926 C   0  0  0  0  0  0  0  0  0  0  0  0
  -25.8148  -32.2199   22.9017 C   0  0  1  0  0  0  0  0  0  0  0  0
  -26.2791  -35.4463   24.8369 C   0  0  2  0  0  0  0  0  0  0  0  0
  -25.6153  -32.2394   21.3599 C   0  0  0  0  0  0  0  0  0  0  0  0
  -30.6537  -26.7037   22.6337 C   0  0  2  0  0  0  0  0  0  1  0  0
  -23.7387  -13.2725   21.7405 N   0  0  0  0  0  0  0  0  0  0  0  0
  -23.5229  -14.5337   22.1517 N   0  0  0  0  0  0  0  0  0  0  0  0
  -25.2589  -29.9669   23.7612 N   0  0  0  0  0  0  0  0  0  0  0  0
  -25.6084  -19.6312   19.5861 N   0  0  0  0  0  0  0  0  0  0  0  0
  -25.1226  -17.3480   20.1209 N   0  0  0  0  0  0  0  0  0  0  0  0
  -22.0163  -15.8888   23.3782 N   0  0  0  0  0  0  0  0  0  0  0  0
  -20.1537  -11.7814   23.6161 N   0  0  0  0  0  0  0  0  0  0  0  0
  -28.7305  -24.8323   20.6608 N   0  0  0  0  0  0  0  0  0  0  0  0
  -22.3495  -28.5119   22.8736 N   0  0  0  0  0  0  0  0  0  0  0  0
  -25.6654  -33.5232   23.5401 N   0  0  0  0  0  0  0  0  0  0  0  0
  -26.9124  -35.6706   26.1671 N   0  3  0  0  0  0  0  0  0  0  0  0
  -19.9071  -13.9763   24.2328 O   0  0  0  0  0  0  0  0  0  0  0  0
  -24.4368  -27.6618   22.2878 O   0  0  0  0  0  0  0  0  0  0  0  0
  -23.7597  -31.7385   23.9839 O   0  0  0  0  0  0  0  0  0  0  0  0
  -30.6992  -25.5455   19.5862 O   0  0  0  0  0  0  0  0  0  0  0  0
  -27.7801  -33.5852   24.4895 O   0  0  0  0  0  0  0  0  0  0  0  0
  -23.7562  -19.0614   20.8363 O   0  0  0  0  0  0  0  0  0  0  0  0
  -22.1738   -7.1127   21.3452 O   0  0  0  0  0  0  0  0  0  0  0  0
  -29.9178  -25.9193   23.5755 O   0  0  0  0  0  0  0  0  0  1  0  0
  -20.7710   -3.9472   25.6365 F   0  0  0  0  0  0  0  0  0  0  0  0
  -23.8331   -5.0769   22.2083 F   0  0  0  0  0  0  0  0  0  0  0  0
  1  2  1  0  0  0  0
  1  5  2  0  0  0  0
  2  6  2  0  0  0  0
  3 10  2  0  0  0  0
  3 18  1  0  0  0  0
  4 11  1  0  0  0  0
  4 18  2  0  0  0  0
  5 20  1  0  0  0  0
  6 23  1  0  0  0  0
  7  9  2  0  0  0  0
  7 21  1  0  0  0  0
  8 12  2  0  0  0  0
  8 22  1  0  0  0  0
  9 26  1  0  0  0  0
 10 27  1  0  0  0  0
 11 27  2  0  0  0  0
 12 28  1  0  0  0  0
 13 14  2  0  0  0  0
 13 29  1  0  0  0  0
 14 30  1  0  0  0  0
 15 24  1  0  0  0  0
 15 26  2  0  0  0  0
 16 25  1  0  0  0  0
 16 28  2  0  0  0  0
 17 30  2  0  0  0  0
 17 31  1  0  0  0  0
 18 32  1  0  0  0  0
 19 32  1  0  0  0  0
 19 33  2  0  0  0  0
 19 34  1  0  0  0  0
 20 23  2  0  0  0  0
 20 40  1  0  0  0  0
 21 24  2  0  0  0  0
 21 41  1  0  0  0  0
 22 25  2  0  0  0  0
 22 42  1  0  0  0  0
 23 52  1  0  0  0  0
 24 43  1  0  0  0  0
 25 44  1  0  0  0  0
 26 75  1  0  0  0  0
 27 85  1  0  0  0  0
 28 86  1  0  0  0  0
 29 31  2  0  0  0  0
 29 85  1  0  0  0  0
 30 87  1  0  0  0  0
 31 88  1  0  0  0  0
 32 68  2  0  0  0  0
 33 69  1  0  0  0  0
 33 73  1  0  0  0  0
 34 74  1  0  0  0  0
 34 79  2  0  0  0  0
 35 53  1  0  0  0  0
 35 76  1  0  0  0  0
 35 80  2  0  0  0  0
 36 64  1  0  0  0  0
 36 70  1  0  0  0  0
 36 81  2  0  0  0  0
 37 62  1  0  0  0  0
 37 75  1  0  0  0  0
 37 82  2  0  0  0  0
 38 65  1  0  0  0  0
 38 77  1  0  0  0  0
 38 83  2  0  0  0  0
 39 71  1  0  0  0  0
 39 72  1  0  0  0  0
 39 84  2  0  0  0  0
 40 45  1  0  0  0  0
 41 49  1  0  0  0  0
 42 53  1  0  0  0  0
 43 71  1  0  0  0  0
 44 70  1  0  0  0  0
 45 47  1  0  0  0  0
 46 48  1  0  0  0  0
 46 50  1  0  0  0  0
 47 52  1  0  0  0  0
 48 54  1  0  0  0  0
 49 71  1  0  0  0  0
 50 72  1  0  0  0  0
 51 54  1  0  0  0  0
 51 72  1  0  0  0  0
 52 76  1  0  0  0  0
 53 70  1  0  0  0  0
 54 69  1  0  0  0  0
 55 63  1  0  0  0  0
 56 65  1  0  0  0  0
 57 66  1  0  0  0  0
 58 66  1  0  0  0  0
 59 66  1  0  0  0  0
 60 67  1  0  0  0  0
 61 78  1  0  0  0  0
 62 67  1  0  0  0  0
 63 67  1  0  0  0  0
 64 66  1  0  0  0  0
 64 77  1  0  0  0  0
 65 78  1  0  0  0  0
 67 86  1  0  0  0  0
 68 69  1  0  0  0  0
M  CHG  1  78   1
M  ISO  4  39 100  67 101  71 100  86 101
M  END
> <Batch ID>
0145

> <Smiles>
CC[101C:1](C)(CC(=O)Nc1ccc2c(c1)C[100N:0]([100C:0](=O)N1CCCC(n3nc(-c4ccc(Oc5ccc(F)cc5F)cc4)c(C(N)=O)c3N)C1)CC2)[101O:1]c1ccc2c(c1)CN(C(=O)C(NC(=O)C(C)NC)C(C)(C)C)C(C(=O)NC1CCCc3ccccc31)C2

> <Shape>
0.265

> <Color>
0.098

> <Negative vol penalty>
0.000

$$$$

  -OEChem-04052303073D

 87 95  0     1  0  0  0  0  0999 V2000
  -16.5819  -27.8810   23.0900 C   0  0  0  0  0  0  0  0  0  0  0  0
  -17.3182  -27.6047   21.9424 C   0  0  0  0  0  0  0  0  0  0  0  0
  -30.2116   -9.9158   18.4446 C   0  0  0  0  0  0  0  0  0  0  0  0
  -29.7475  -11.3862   16.5847 C   0  0  0  0  0  0  0  0  0  0  0  0
  -17.0892  -28.7578   24.0480 C   0  0  0  0  0  0  0  0  0  0  0  0
  -18.5618  -28.2060   21.7517 C   0  0  0  0  0  0  0  0  0  0  0  0
  -22.0705  -24.9377   20.1229 C   0  0  0  0  0  0  0  0  0  0  0  0
  -30.6598   -8.9363   17.5585 C   0  0  0  0  0  0  0  0  0  0  0  0
  -30.1956  -10.4067   15.6985 C   0  0  0  0  0  0  0  0  0  0  0  0
  -22.0394  -24.5905   18.7730 C   0  0  0  0  0  0  0  0  0  0  0  0
  -29.0035   -7.5570   14.3240 C   0  0  0  0  0  0  0  0  0  0  0  0
  -28.2331   -7.3096   13.1878 C   0  0  0  0  0  0  0  0  0  0  0  0
  -23.8242  -26.1534   18.3361 C   0  0  0  0  0  0  0  0  0  0  0  0
  -21.6641  -16.8168   18.2577 C   0  0  0  0  0  0  0  0  0  0  0  0
  -30.1068   -7.9115   11.7864 C   0  0  0  0  0  0  0  0  0  0  0  0
  -29.7554  -11.1407   17.9577 C   0  0  0  0  0  0  0  0  0  0  0  0
  -30.0588  -13.1646   19.4808 C   0  0  0  0  0  0  0  0  0  0  0  0
  -18.3439  -29.3626   23.8735 C   0  0  0  0  0  0  0  0  0  0  0  0
  -22.9728  -25.9050   20.5885 C   0  0  0  0  0  0  0  0  0  0  0  0
  -19.0858  -29.0927   22.7076 C   0  0  0  0  0  0  0  0  0  0  0  0
  -23.8665  -26.5093   19.6928 C   0  0  0  0  0  0  0  0  0  0  0  0
  -21.3011  -17.7564   17.2500 C   0  0  0  0  0  0  0  0  0  0  0  0
  -30.6518   -9.1817   16.1854 C   0  0  0  0  0  0  0  0  0  0  0  0
  -22.9144  -25.2005   17.8789 C   0  0  0  0  0  0  0  0  0  0  0  0
  -30.3255   -7.9817   14.1914 C   0  0  0  0  0  0  0  0  0  0  0  0
  -28.7848   -7.4869   11.9190 C   0  0  0  0  0  0  0  0  0  0  0  0
  -30.8772   -8.1590   12.9226 C   0  0  0  0  0  0  0  0  0  0  0  0
  -29.2918  -12.1528   18.8726 C   0  0  0  0  0  0  0  0  0  0  0  0
  -29.1601  -13.8592   20.2531 C   0  0  0  0  0  0  0  0  0  0  0  0
  -22.8822  -16.2271   18.0006 C   0  0  0  0  0  0  0  0  0  0  0  0
  -22.2558  -17.8492   16.2611 C   0  0  0  0  0  0  0  0  0  0  0  0
  -31.4583  -13.4510   19.3586 C   0  0  0  0  0  0  0  0  0  0  0  0
  -22.6922  -28.7487   21.9807 C   0  0  0  0  0  0  0  0  0  0  0  0
  -25.9186  -28.5153   22.2213 C   0  0  0  0  0  0  0  0  0  0  0  0
  -23.3185  -18.6748   14.1358 C   0  0  0  0  0  0  0  0  0  0  0  0
  -28.8209  -27.1583   21.0458 C   0  0  0  0  0  0  0  0  0  0  0  0
  -23.2454  -14.6432   19.9256 C   0  0  0  0  0  0  0  0  0  0  0  0
  -18.8296  -30.3402   24.9143 C   0  0  0  0  0  0  0  0  0  0  0  0
  -23.0120  -26.2490   22.0522 C   0  0  0  0  0  0  0  0  0  0  0  0
  -24.8682  -27.5389   20.1456 C   0  0  0  0  0  0  0  0  0  0  0  0
  -20.3219  -30.6455   24.8137 C   0  0  0  0  0  0  0  0  0  0  0  0
  -25.0645  -13.2816   22.6669 C   0  0  0  0  0  0  0  0  0  0  0  0
  -20.7129  -30.9269   23.3664 C   0  0  0  0  0  0  0  0  0  0  0  0
  -26.4268  -12.9353   22.0617 C   0  0  0  0  0  0  0  0  0  0  0  0
  -23.9247  -13.0230   21.6831 C   0  0  0  0  0  0  0  0  0  0  0  0
  -25.4429  -13.3161   19.7652 C   0  0  0  0  0  0  0  0  0  0  0  0
  -20.4497  -29.7061   22.4765 C   0  0  1  0  0  0  0  0  0  0  0  0
  -23.6215  -27.6201   22.3277 C   0  0  1  0  0  0  0  0  0  0  0  0
  -26.6277  -13.6213   20.6962 C   0  0  2  0  0  0  0  0  0  0  0  0
  -20.0409  -18.5371   17.2732 C   0  0  0  0  0  0  0  0  0  0  0  0
  -31.3021  -27.1863   21.4205 C   0  0  0  0  0  0  0  0  0  0  0  0
  -26.0922  -31.2366   20.8523 C   0  0  0  0  0  0  0  0  0  0  0  0
  -28.5123  -30.7784   20.4032 C   0  0  0  0  0  0  0  0  0  0  0  0
  -27.6868  -30.9213   22.7528 C   0  0  0  0  0  0  0  0  0  0  0  0
  -23.0870  -21.9506   12.0382 C   0  0  0  0  0  0  0  0  0  0  0  0
  -25.0150  -21.1645   13.4187 C   0  0  0  0  0  0  0  0  0  0  0  0
  -28.8759  -24.2663   21.6721 C   0  0  0  0  0  0  0  0  0  0  0  0
  -23.0141  -19.6593   13.0127 C   0  0  0  0  0  0  0  0  0  0  0  0
  -23.1702  -23.1131   14.9417 C   0  0  0  0  0  0  0  0  0  0  0  0
  -22.7928  -21.6801   14.5521 C   0  0  0  0  0  0  0  0  0  0  0  0
  -22.4876  -23.5318   16.2390 C   0  0  0  0  0  0  0  0  0  1  0  0
  -27.0868  -28.9063   21.3488 C   0  0  1  0  0  0  0  0  0  0  0  0
  -29.9877  -26.5012   21.7608 C   0  0  2  0  0  0  0  0  0  0  0  0
  -27.3245  -30.4427   21.3301 C   0  0  0  0  0  0  0  0  0  0  0  0
  -23.4819  -21.1182   13.2764 C   0  0  0  0  0  0  0  0  0  0  0  0
  -28.0051  -12.1970   19.2280 N   0  0  0  0  0  0  0  0  0  0  0  0
  -27.9565  -13.2449   20.0680 N   0  0  0  0  0  0  0  0  0  0  0  0
  -24.8633  -27.8461   21.5854 N   0  0  0  0  0  0  0  0  0  0  0  0
  -24.1816  -13.7073   20.4140 N   0  0  0  0  0  0  0  0  0  0  0  0
  -29.2900  -14.9293   21.0658 N   0  0  0  0  0  0  0  0  0  0  0  0
  -32.2361  -12.6381   18.5228 N   0  0  0  0  0  0  0  0  0  0  0  0
  -22.3092  -18.6413   15.0896 N   0  0  0  0  0  0  0  0  0  0  0  0
  -23.6125  -15.2541   18.7270 N   0  0  0  0  0  0  0  0  0  0  0  0
  -21.4884  -28.7148   22.6584 N   0  0  0  0  0  0  0  0  0  0  0  0
  -28.2280  -28.1308   21.8229 N   0  0  0  0  0  0  0  0  0  0  0  0
  -30.0914  -25.0661   21.3725 N   0  3  0  0  0  0  0  0  0  0  0  0
  -32.0061  -14.3895   19.9850 O   0  0  0  0  0  0  0  0  0  0  0  0
  -23.0420  -29.5889   21.1601 O   0  0  0  0  0  0  0  0  0  0  0  0
  -25.9447  -28.7871   23.4243 O   0  0  0  0  0  0  0  0  0  0  0  0
  -24.3617  -18.0269   14.1285 O   0  0  0  0  0  0  0  0  0  0  0  0
  -28.4728  -26.8431   19.9100 O   0  0  0  0  0  0  0  0  0  0  0  0
  -22.2082  -14.9048   20.5402 O   0  0  0  0  0  0  0  0  0  0  0  0
  -31.0892   -8.2262   15.3204 O   0  0  0  0  0  0  0  0  0  0  0  0
  -22.8857  -24.8639   16.5607 O   0  0  0  0  0  0  0  0  0  1  0  0
  -28.0454   -7.2478   10.8280 F   0  0  0  0  0  0  0  0  0  0  0  0
  -32.1470   -8.5657   12.7889 F   0  0  0  0  0  0  0  0  0  0  0  0
  -23.5829  -16.8062   16.5494 S   0  0  0  0  0  0  0  0  0  0  0  0
  1  2  1  0  0  0  0
  1  5  2  0  0  0  0
  2  6  2  0  0  0  0
  3  8  2  0  0  0  0
  3 16  1  0  0  0  0
  4  9  1  0  0  0  0
  4 16  2  0  0  0  0
  5 18  1  0  0  0  0
  6 20  1  0  0  0  0
  7 10  2  0  0  0  0
  7 19  1  0  0  0  0
  8 23  1  0  0  0  0
  9 23  2  0  0  0  0
 10 24  1  0  0  0  0
 11 12  2  0  0  0  0
 11 25  1  0  0  0  0
 12 26  1  0  0  0  0
 13 21  1  0  0  0  0
 13 24  2  0  0  0  0
 14 22  1  0  0  0  0
 14 30  2  0  0  0  0
 15 26  2  0  0  0  0
 15 27  1  0  0  0  0
 16 28  1  0  0  0  0
 17 28  1  0  0  0  0
 17 29  2  0  0  0  0
 17 32  1  0  0  0  0
 18 20  2  0  0  0  0
 18 38  1  0  0  0  0
 19 21  2  0  0  0  0
 19 39  1  0  0  0  0
 20 47  1  0  0  0  0
 21 40  1  0  0  0  0
 22 31  2  0  0  0  0
 22 50  1  0  0  0  0
 23 83  1  0  0  0  0
 24 84  1  0  0  0  0
 25 27  2  0  0  0  0
 25 83  1  0  0  0  0
 26 85  1  0  0  0  0
 27 86  1  0  0  0  0
 28 66  2  0  0  0  0
 29 67  1  0  0  0  0
 29 70  1  0  0  0  0
 30 73  1  0  0  0  0
 30 87  1  0  0  0  0
 31 72  1  0  0  0  0
 31 87  1  0  0  0  0
 32 71  1  0  0  0  0
 32 77  2  0  0  0  0
 33 48  1  0  0  0  0
 33 74  1  0  0  0  0
 33 78  2  0  0  0  0
 34 62  1  0  0  0  0
 34 68  1  0  0  0  0
 34 79  2  0  0  0  0
 35 58  1  0  0  0  0
 35 72  1  0  0  0  0
 35 80  2  0  0  0  0
 36 63  1  0  0  0  0
 36 75  1  0  0  0  0
 36 81  2  0  0  0  0
 37 69  1  0  0  0  0
 37 73  1  0  0  0  0
 37 82  2  0  0  0  0
 38 41  1  0  0  0  0
 39 48  1  0  0  0  0
 40 68  1  0  0  0  0
 41 43  1  0  0  0  0
 42 44  1  0  0  0  0
 42 45  1  0  0  0  0
 43 47  1  0  0  0  0
 44 49  1  0  0  0  0
 45 69  1  0  0  0  0
 46 49  1  0  0  0  0
 46 69  1  0  0  0  0
 47 74  1  0  0  0  0
 48 68  1  0  0  0  0
 49 67  1  0  0  0  0
 51 63  1  0  0  0  0
 52 64  1  0  0  0  0
 53 64  1  0  0  0  0
 54 64  1  0  0  0  0
 55 65  1  0  0  0  0
 56 65  1  0  0  0  0
 57 76  1  0  0  0  0
 58 65  1  0  0  0  0
 59 60  1  0  0  0  0
 59 61  1  0  0  0  0
 60 65  1  0  0  0  0
 61 84  1  0  0  0  0
 62 64  1  0  0  0  0
 62 75  1  0  0  0  0
 63 76  1  0  0  0  0
 66 67  1  0  0  0  0
M  CHG  1  76   1
M  ISO  4  37 100  61 101  73 100  84 101
M  END
> <Batch ID>
0145

> <Smiles>
CNC(C)C(=O)NC(C(=O)N1Cc2cc([101O:1][101CH2:1]CCC(C)(C)CC(=O)Nc3sc([100NH:0][100C:0](=O)N4CCCC(n5nc(-c6ccc(Oc7ccc(F)cc7F)cc6)c(C(N)=O)c5N)C4)cc3C)ccc2CC1C(=O)NC1CCCc2ccccc21)C(C)(C)C

> <Shape>
0.209

> <Color>
0.096

> <Negative vol penalty>
0.000

$$$$

  -OEChem-04052303073D

 91100  0     1  0  0  0  0  0999 V2000
  -18.5522  -33.6644   23.1699 C   0  0  0  0  0  0  0  0  0  0  0  0
  -19.8163  -33.3233   23.6401 C   0  0  0  0  0  0  0  0  0  0  0  0
  -25.5267  -13.5089   21.9049 C   0  0  0  0  0  0  0  0  0  0  0  0
  -25.8540  -14.0003   19.5622 C   0  0  0  0  0  0  0  0  0  0  0  0
  -17.6271  -32.6646   22.8725 C   0  0  0  0  0  0  0  0  0  0  0  0
  -20.1556  -31.9820   23.8143 C   0  0  0  0  0  0  0  0  0  0  0  0
  -25.7706  -29.0966   20.3448 C   0  0  0  0  0  0  0  0  0  0  0  0
  -24.5447  -12.5759   21.5721 C   0  0  0  0  0  0  0  0  0  0  0  0
  -24.8721  -13.0672   19.2293 C   0  0  0  0  0  0  0  0  0  0  0  0
  -26.9553  -28.5248   19.8802 C   0  0  0  0  0  0  0  0  0  0  0  0
  -24.4149   -9.3977   20.4253 C   0  0  0  0  0  0  0  0  0  0  0  0
  -24.4504   -8.1613   21.0700 C   0  0  0  0  0  0  0  0  0  0  0  0
  -26.3433  -26.4129   20.8869 C   0  0  0  0  0  0  0  0  0  0  0  0
  -32.3566  -22.5540   21.4464 C   0  0  0  0  0  0  0  0  0  0  0  0
  -22.2426   -8.5646   21.9647 C   0  0  0  0  0  0  0  0  0  0  0  0
  -32.9873  -20.8338   20.0162 C   0  0  0  0  0  0  0  0  0  0  0  0
  -26.1813  -14.2211   20.9000 C   0  0  0  0  0  0  0  0  0  0  0  0
  -28.5762  -14.9524   21.3871 C   0  0  0  0  0  0  0  0  0  0  0  0
  -17.9585  -31.3101   23.0340 C   0  0  0  0  0  0  0  0  0  0  0  0
  -24.8595  -28.3235   21.0699 C   0  0  0  0  0  0  0  0  0  0  0  0
  -19.2336  -30.9632   23.5201 C   0  0  0  0  0  0  0  0  0  0  0  0
  -25.1493  -26.9768   21.3441 C   0  0  0  0  0  0  0  0  0  0  0  0
  -31.9279  -21.4787   20.6157 C   0  0  0  0  0  0  0  0  0  0  0  0
  -24.2174  -12.3550   20.2342 C   0  0  0  0  0  0  0  0  0  0  0  0
  -27.2410  -27.1864   20.1509 C   0  0  0  0  0  0  0  0  0  0  0  0
  -23.2934  -10.2176   20.5504 C   0  0  0  0  0  0  0  0  0  0  0  0
  -23.3642   -7.7447   21.8397 C   0  0  0  0  0  0  0  0  0  0  0  0
  -22.2073   -9.8010   21.3200 C   0  0  0  0  0  0  0  0  0  0  0  0
  -27.1954  -15.1855   21.2433 C   0  0  0  0  0  0  0  0  0  0  0  0
  -33.7275  -22.6898   21.4504 C   0  0  0  0  0  0  0  0  0  0  0  0
  -29.0990  -16.1790   21.7166 C   0  0  0  0  0  0  0  0  0  0  0  0
  -29.3199  -13.7359   21.2364 C   0  0  0  0  0  0  0  0  0  0  0  0
  -34.6430  -25.0408   21.3403 C   0  0  0  0  0  0  0  0  0  0  0  0
  -21.5635  -28.1734   22.8559 C   0  0  0  0  0  0  0  0  0  0  0  0
  -21.8530  -25.5470   21.2974 C   0  0  0  0  0  0  0  0  0  0  0  0
  -22.3651  -22.9817   19.1079 C   0  0  0  0  0  0  0  0  0  0  0  0
  -29.4428  -21.6864   20.9727 C   0  0  0  0  0  0  0  0  0  0  0  0
  -16.9090  -30.2664   22.7443 C   0  0  0  0  0  0  0  0  0  0  0  0
  -23.5997  -28.9140   21.6425 C   0  0  0  0  0  0  0  0  0  0  0  0
  -24.1559  -26.1929   22.1575 C   0  0  0  0  0  0  0  0  0  0  0  0
  -17.4757  -28.8563   22.6005 C   0  0  0  0  0  0  0  0  0  0  0  0
  -35.4682  -24.2688   24.1661 C   0  0  0  0  0  0  0  0  0  0  0  0
  -26.8016  -20.4911   23.0397 C   0  0  0  0  0  0  0  0  0  0  0  0
  -18.4541  -28.5563   23.7317 C   0  0  0  0  0  0  0  0  0  0  0  0
  -26.7822  -18.9850   22.7684 C   0  0  0  0  0  0  0  0  0  0  0  0
  -34.0008  -24.1117   23.7330 C   0  0  0  0  0  0  0  0  0  0  0  0
  -35.8491  -23.3574   22.9872 C   0  0  0  0  0  0  0  0  0  0  0  0
  -27.1258  -21.2903   21.7788 C   0  0  0  0  0  0  0  0  0  0  0  0
  -28.3310  -19.3728   20.8094 C   0  0  0  0  0  0  0  0  0  0  0  0
  -19.6475  -29.5186   23.6986 C   0  0  1  0  0  0  0  0  0  0  0  0
  -22.4187  -27.9269   21.6478 C   0  0  1  0  0  0  0  0  0  0  0  0
  -28.0728  -18.5226   22.0640 C   0  0  2  0  0  0  0  0  0  0  0  0
  -34.5175  -23.8018   22.2818 C   0  0  0  0  0  0  0  0  0  0  0  0
  -21.3156  -20.8567   18.2832 C   0  0  0  0  0  0  0  0  0  0  0  0
  -30.9218  -25.6329   18.6349 C   0  0  0  0  0  0  0  0  0  0  0  0
  -22.6929  -24.1384   23.8692 C   0  0  0  0  0  0  0  0  0  0  0  0
  -22.5151  -21.9590   22.6498 C   0  0  0  0  0  0  0  0  0  0  0  0
  -20.4940  -23.3919   22.9408 C   0  0  0  0  0  0  0  0  0  0  0  0
  -31.9672  -28.6242   20.9911 C   0  0  0  0  0  0  0  0  0  0  0  0
  -32.3108  -28.4500   18.5282 C   0  0  0  0  0  0  0  0  0  0  0  0
  -22.1915  -24.0064   16.3368 C   0  0  0  0  0  0  0  0  0  0  0  0
  -33.5343  -26.0783   21.3845 C   0  0  0  0  0  0  0  0  0  0  0  0
  -29.5206  -27.5045   19.5476 C   0  0  0  0  0  0  0  0  0  1  0  0
  -22.2965  -24.1061   21.3182 C   0  0  1  0  0  0  0  0  0  0  0  0
  -21.4614  -22.3542   18.0619 C   0  0  2  0  0  0  0  0  0  0  0  0
  -30.8322  -26.7122   19.7299 C   0  0  2  0  0  0  0  0  0  0  0  0
  -33.4212  -26.7908   20.0384 C   0  0  1  0  0  0  0  0  0  0  0  0
  -22.0166  -23.4195   22.6848 C   0  0  0  0  0  0  0  0  0  0  0  0
  -32.1171  -27.6226   19.8207 C   0  0  0  0  0  0  0  0  0  0  0  0
  -26.8619  -16.4600   21.4634 N   0  0  0  0  0  0  0  0  0  0  0  0
  -28.0407  -17.0387   21.7491 N   0  0  0  0  0  0  0  0  0  0  0  0
  -22.7877  -26.5026   21.7141 N   0  0  0  0  0  0  0  0  0  0  0  0
  -28.3631  -20.7993   21.1682 N   0  0  0  0  0  0  0  0  0  0  0  0
  -30.3561  -16.5953   21.9788 N   0  0  0  0  0  0  0  0  0  0  0  0
  -28.6263  -12.5668   20.8950 N   0  0  0  0  0  0  0  0  0  0  0  0
  -30.5776  -21.0992   20.4142 N   0  0  0  0  0  0  0  0  0  0  0  0
  -20.5830  -29.1283   22.6657 N   0  0  0  0  0  0  0  0  0  0  0  0
  -21.6463  -23.4624   20.1818 N   0  0  0  0  0  0  0  0  0  0  0  0
  -22.0172  -22.5757   16.6970 N   0  3  0  0  0  0  0  0  0  0  0  0
  -30.5603  -13.6837   21.4156 O   0  0  0  0  0  0  0  0  0  0  0  0
  -35.6054  -25.2068   20.5801 O   0  0  0  0  0  0  0  0  0  0  0  0
  -21.7756  -27.5430   23.8851 O   0  0  0  0  0  0  0  0  0  0  0  0
  -20.7076  -25.8203   20.9276 O   0  0  0  0  0  0  0  0  0  0  0  0
  -23.5869  -23.0363   18.9862 O   0  0  0  0  0  0  0  0  0  0  0  0
  -29.3757  -22.8731   21.3032 O   0  0  0  0  0  0  0  0  0  0  0  0
  -23.2594  -11.4445   19.9090 O   0  0  0  0  0  0  0  0  0  0  0  0
  -28.4042  -26.6300   19.6877 O   0  0  0  0  0  0  0  0  0  1  0  0
  -23.3977   -6.5567   22.4575 F   0  0  0  0  0  0  0  0  0  0  0  0
  -21.1266  -10.5839   21.4429 F   0  0  0  0  0  0  0  0  0  0  0  0
  -34.4877  -27.6463   19.9447 F   0  0  0  0  0  0  0  0  0  0  0  0
  -34.4915  -21.5243   20.4554 S   0  0  0  0  0  0  0  0  0  0  0  0
  1  2  1  0  0  0  0
  1  5  2  0  0  0  0
  2  6  2  0  0  0  0
  3  8  2  0  0  0  0
  3 17  1  0  0  0  0
  4  9  1  0  0  0  0
  4 17  2  0  0  0  0
  5 19  1  0  0  0  0
  6 21  1  0  0  0  0
  7 10  2  0  0  0  0
  7 20  1  0  0  0  0
  8 24  1  0  0  0  0
  9 24  2  0  0  0  0
 10 25  1  0  0  0  0
 11 12  2  0  0  0  0
 11 26  1  0  0  0  0
 12 27  1  0  0  0  0
 13 22  1  0  0  0  0
 13 25  2  0  0  0  0
 14 23  1  0  0  0  0
 14 30  2  0  0  0  0
 15 27  2  0  0  0  0
 15 28  1  0  0  0  0
 16 23  2  0  0  0  0
 16 91  1  0  0  0  0
 17 29  1  0  0  0  0
 18 29  1  0  0  0  0
 18 31  2  0  0  0  0
 18 32  1  0  0  0  0
 19 21  2  0  0  0  0
 19 38  1  0  0  0  0
 20 22  2  0  0  0  0
 20 39  1  0  0  0  0
 21 50  1  0  0  0  0
 22 40  1  0  0  0  0
 23 76  1  0  0  0  0
 24 86  1  0  0  0  0
 25 87  1  0  0  0  0
 26 28  2  0  0  0  0
 26 86  1  0  0  0  0
 27 88  1  0  0  0  0
 28 89  1  0  0  0  0
 29 70  2  0  0  0  0
 30 53  1  0  0  0  0
 30 91  1  0  0  0  0
 31 71  1  0  0  0  0
 31 74  1  0  0  0  0
 32 75  1  0  0  0  0
 32 80  2  0  0  0  0
 33 53  1  0  0  0  0
 33 62  1  0  0  0  0
 33 81  2  0  0  0  0
 34 51  1  0  0  0  0
 34 77  1  0  0  0  0
 34 82  2  0  0  0  0
 35 64  1  0  0  0  0
 35 72  1  0  0  0  0
 35 83  2  0  0  0  0
 36 65  1  0  0  0  0
 36 78  1  0  0  0  0
 36 84  2  0  0  0  0
 37 73  1  0  0  0  0
 37 76  1  0  0  0  0
 37 85  2  0  0  0  0
 38 41  1  0  0  0  0
 39 51  1  0  0  0  0
 40 72  1  0  0  0  0
 41 44  1  0  0  0  0
 42 46  1  0  0  0  0
 42 47  1  0  0  0  0
 43 45  1  0  0  0  0
 43 48  1  0  0  0  0
 44 50  1  0  0  0  0
 45 52  1  0  0  0  0
 46 53  1  0  0  0  0
 47 53  1  0  0  0  0
 48 73  1  0  0  0  0
 49 52  1  0  0  0  0
 49 73  1  0  0  0  0
 50 77  1  0  0  0  0
 51 72  1  0  0  0  0
 52 71  1  0  0  0  0
 54 65  1  0  0  0  0
 55 66  1  0  0  0  0
 56 68  1  0  0  0  0
 57 68  1  0  0  0  0
 58 68  1  0  0  0  0
 59 69  1  0  0  0  0
 60 69  1  0  0  0  0
 61 79  1  0  0  0  0
 62 67  1  0  0  0  0
 63 66  1  0  0  0  0
 63 87  1  0  0  0  0
 64 68  1  0  0  0  0
 64 78  1  0  0  0  0
 65 79  1  0  0  0  0
 66 69  1  0  0  0  0
 67 69  1  0  0  0  0
 67 90  1  0  0  0  0
 70 71  1  0  0  0  0
M  CHG  1  79   1
M  ISO  4  37 100  63 101  76 100  87 101
M  END
> <Batch ID>
0145

> <Smiles>
CNC(C)C(=O)NC(C(=O)N1Cc2cc([101O:1][101CH2:1]C(C)C(C)(C)C(F)CC(=O)C3(c4cc([100NH:0][100C:0](=O)N5CCCC(n6nc(-c7ccc(Oc8ccc(F)cc8F)cc7)c(C(N)=O)c6N)C5)cs4)CCC3)ccc2CC1C(=O)NC1CCCc2ccccc21)C(C)(C)C

> <Shape>
0.240

> <Color>
0.077

> <Negative vol penalty>
0.000

$$$$

  -OEChem-04052303073D

 89 97  0     1  0  0  0  0  0999 V2000
  -28.2139  -33.5723   26.0335 C   0  0  0  0  0  0  0  0  0  0  0  0
  -28.3120  -32.3398   25.3959 C   0  0  0  0  0  0  0  0  0  0  0  0
  -23.6499   -7.0687   21.0008 C   0  0  0  0  0  0  0  0  0  0  0  0
  -25.5316   -7.8757   22.2833 C   0  0  0  0  0  0  0  0  0  0  0  0
  -26.9611  -34.0864   26.3655 C   0  0  0  0  0  0  0  0  0  0  0  0
  -27.1574  -31.6201   25.0907 C   0  0  0  0  0  0  0  0  0  0  0  0
  -27.2427  -29.7073   20.4025 C   0  0  0  0  0  0  0  0  0  0  0  0
  -24.0972   -5.7583   21.1691 C   0  0  0  0  0  0  0  0  0  0  0  0
  -25.9789   -6.5653   22.4517 C   0  0  0  0  0  0  0  0  0  0  0  0
  -28.0046  -28.5578   20.1976 C   0  0  0  0  0  0  0  0  0  0  0  0
  -24.0363   -3.3968   23.5884 C   0  0  0  0  0  0  0  0  0  0  0  0
  -23.0936   -2.4300   23.9377 C   0  0  0  0  0  0  0  0  0  0  0  0
  -24.7974  -18.7510   20.3344 C   0  0  0  0  0  0  0  0  0  0  0  0
  -26.0020  -27.2176   20.3100 C   0  0  0  0  0  0  0  0  0  0  0  0
  -23.6026   -1.2044   21.9188 C   0  0  0  0  0  0  0  0  0  0  0  0
  -24.2849  -19.3646   22.5169 C   0  0  0  0  0  0  0  0  0  0  0  0
  -24.3672   -8.1274   21.5579 C   0  0  0  0  0  0  0  0  0  0  0  0
  -24.5626  -19.8199   21.2468 C   0  0  0  0  0  0  0  0  0  0  0  0
  -23.0287  -10.1950   22.2222 C   0  0  0  0  0  0  0  0  0  0  0  0
  -25.7900  -33.3771   26.0555 C   0  0  0  0  0  0  0  0  0  0  0  0
  -25.8537  -29.6193   20.5739 C   0  0  0  0  0  0  0  0  0  0  0  0
  -25.8878  -32.1245   25.4199 C   0  0  0  0  0  0  0  0  0  0  0  0
  -25.2244  -28.3677   20.5144 C   0  0  0  0  0  0  0  0  0  0  0  0
  -25.2616   -5.5065   21.8946 C   0  0  0  0  0  0  0  0  0  0  0  0
  -27.3847  -27.3125   20.1542 C   0  0  0  0  0  0  0  0  0  0  0  0
  -24.7621   -3.2676   22.4043 C   0  0  0  0  0  0  0  0  0  0  0  0
  -22.8767   -1.3337   23.1029 C   0  0  0  0  0  0  0  0  0  0  0  0
  -24.5453   -2.1713   21.5695 C   0  0  0  0  0  0  0  0  0  0  0  0
  -23.9060   -9.4813   21.3838 C   0  0  0  0  0  0  0  0  0  0  0  0
  -22.9086  -11.4261   21.6252 C   0  0  0  0  0  0  0  0  0  0  0  0
  -24.6904  -17.5192   20.9421 C   0  0  0  0  0  0  0  0  0  0  0  0
  -24.6028  -21.2665   20.9089 C   0  0  0  0  0  0  0  0  0  0  0  0
  -22.3803   -9.7820   23.4325 C   0  0  0  0  0  0  0  0  0  0  0  0
  -23.8319  -30.3480   22.9159 C   0  0  0  0  0  0  0  0  0  0  0  0
  -21.5949  -29.5590   20.7033 C   0  0  0  0  0  0  0  0  0  0  0  0
  -20.8081  -27.8310   17.8675 C   0  0  0  0  0  0  0  0  0  0  0  0
  -25.1497  -15.8570   19.1058 C   0  0  0  0  0  0  0  0  0  0  0  0
  -24.4605  -33.9514   26.4765 C   0  0  0  0  0  0  0  0  0  0  0  0
  -25.0426  -30.8712   20.7673 C   0  0  0  0  0  0  0  0  0  0  0  0
  -23.7337  -28.2212   20.6724 C   0  0  0  0  0  0  0  0  0  0  0  0
  -23.2679  -33.2991   25.7820 C   0  0  0  0  0  0  0  0  0  0  0  0
  -24.4048  -13.0358   17.0654 C   0  0  0  0  0  0  0  0  0  0  0  0
  -23.4021  -31.7798   25.8051 C   0  0  0  0  0  0  0  0  0  0  0  0
  -24.1365  -11.9182   18.0760 C   0  0  0  0  0  0  0  0  0  0  0  0
  -25.5205  -13.9683   17.5340 C   0  0  0  0  0  0  0  0  0  0  0  0
  -25.0703  -13.4089   19.8906 C   0  0  0  0  0  0  0  0  0  0  0  0
  -24.6571  -31.3254   25.0501 C   0  0  1  0  0  0  0  0  0  0  0  0
  -23.6992  -30.6144   21.4431 C   0  0  1  0  0  0  0  0  0  0  0  0
  -23.9102  -12.4818   19.4926 C   0  0  2  0  0  0  0  0  0  0  0  0
  -23.4369  -24.3991   19.0658 C   0  0  0  0  0  0  0  0  0  0  0  0
  -18.8908  -27.3514   16.3210 C   0  0  0  0  0  0  0  0  0  0  0  0
  -28.6274  -25.9564   17.6317 C   0  0  0  0  0  0  0  0  0  0  0  0
  -20.4215  -27.6336   22.7591 C   0  0  0  0  0  0  0  0  0  0  0  0
  -19.1597  -26.5281   20.9005 C   0  0  0  0  0  0  0  0  0  0  0  0
  -18.7249  -28.9224   21.4494 C   0  0  0  0  0  0  0  0  0  0  0  0
  -27.7328  -21.6252   20.0716 C   0  0  0  0  0  0  0  0  0  0  0  0
  -27.1091  -23.6701   21.3306 C   0  0  0  0  0  0  0  0  0  0  0  0
  -25.8218  -23.0989   17.6576 C   0  0  0  0  0  0  0  0  0  0  0  0
  -22.2153  -29.0385   15.5608 C   0  0  0  0  0  0  0  0  0  0  0  0
  -24.9194  -21.6789   19.4721 C   0  0  0  0  0  0  0  0  0  0  0  0
  -24.8462  -24.2789   19.6444 C   0  0  0  0  0  0  0  0  0  0  0  0
  -28.1741  -23.9280   19.0625 C   0  0  0  0  0  0  0  0  0  0  0  0
  -20.8877  -28.2861   20.3049 C   0  0  1  0  0  0  0  0  0  0  0  0
  -20.0852  -28.2505   16.6003 C   0  0  2  0  0  0  0  0  0  0  0  0
  -27.8162  -25.4049   18.8011 C   0  0  1  0  0  0  0  0  0  1  0  0
  -19.8268  -27.8448   21.3524 C   0  0  0  0  0  0  0  0  0  0  0  0
  -27.1690  -23.0594   19.9034 C   0  0  0  0  0  0  0  0  0  0  0  0
  -25.6867  -23.0239   19.2138 C   0  0  2  0  0  0  0  0  0  0  0  0
  -24.3141  -10.1993   20.3341 N   0  0  0  0  0  0  0  0  0  0  0  0
  -23.6905  -11.3768   20.5088 N   0  0  0  0  0  0  0  0  0  0  0  0
  -22.9849  -29.4740   20.8656 N   0  0  0  0  0  0  0  0  0  0  0  0
  -25.2359  -14.4667   18.8814 N   0  0  0  0  0  0  0  0  0  0  0  0
  -22.2115  -12.5351   21.9516 N   0  0  0  0  0  0  0  0  0  0  0  0
  -22.6136   -8.4836   23.9059 N   0  0  0  0  0  0  0  0  0  0  0  0
  -24.8423  -16.2112   20.4190 N   0  0  0  0  0  0  0  0  0  0  0  0
  -24.4324  -31.3734   23.6212 N   0  0  0  0  0  0  0  0  0  0  0  0
  -20.3479  -28.5198   18.9698 N   0  0  0  0  0  0  0  0  0  0  0  0
  -21.0074  -28.1834   15.4315 N   0  3  0  0  0  0  0  0  0  0  0  0
  -24.2946  -22.0681   21.7864 O   0  0  0  0  0  0  0  0  0  0  0  0
  -21.6039  -10.5362   24.0663 O   0  0  0  0  0  0  0  0  0  0  0  0
  -23.4186  -29.2912   23.3784 O   0  0  0  0  0  0  0  0  0  0  0  0
  -20.9390  -30.5923   20.8577 O   0  0  0  0  0  0  0  0  0  0  0  0
  -21.6900  -26.9751   17.8790 O   0  0  0  0  0  0  0  0  0  0  0  0
  -25.3082  -16.6725   18.1938 O   0  0  0  0  0  0  0  0  0  0  0  0
  -25.6982   -4.2279   22.0593 O   0  0  0  0  0  0  0  0  0  0  0  0
  -28.1305  -26.1823   19.9538 O   0  0  0  0  0  0  0  0  0  1  0  0
  -21.9725   -0.4045   23.4392 F   0  0  0  0  0  0  0  0  0  0  0  0
  -25.2404   -2.0411   20.4312 F   0  0  0  0  0  0  0  0  0  0  0  0
  -24.3080  -17.6547   22.6058 S   0  0  0  0  0  0  0  0  0  0  0  0
  1  2  1  0  0  0  0
  1  5  2  0  0  0  0
  2  6  2  0  0  0  0
  3  8  2  0  0  0  0
  3 17  1  0  0  0  0
  4  9  1  0  0  0  0
  4 17  2  0  0  0  0
  5 20  1  0  0  0  0
  6 22  1  0  0  0  0
  7 10  2  0  0  0  0
  7 21  1  0  0  0  0
  8 24  1  0  0  0  0
  9 24  2  0  0  0  0
 10 25  1  0  0  0  0
 11 12  2  0  0  0  0
 11 26  1  0  0  0  0
 12 27  1  0  0  0  0
 13 18  1  0  0  0  0
 13 31  2  0  0  0  0
 14 23  1  0  0  0  0
 14 25  2  0  0  0  0
 15 27  2  0  0  0  0
 15 28  1  0  0  0  0
 16 18  2  0  0  0  0
 16 89  1  0  0  0  0
 17 29  1  0  0  0  0
 18 32  1  0  0  0  0
 19 29  1  0  0  0  0
 19 30  2  0  0  0  0
 19 33  1  0  0  0  0
 20 22  2  0  0  0  0
 20 38  1  0  0  0  0
 21 23  2  0  0  0  0
 21 39  1  0  0  0  0
 22 47  1  0  0  0  0
 23 40  1  0  0  0  0
 24 85  1  0  0  0  0
 25 86  1  0  0  0  0
 26 28  2  0  0  0  0
 26 85  1  0  0  0  0
 27 87  1  0  0  0  0
 28 88  1  0  0  0  0
 29 69  2  0  0  0  0
 30 70  1  0  0  0  0
 30 73  1  0  0  0  0
 31 75  1  0  0  0  0
 31 89  1  0  0  0  0
 32 60  1  0  0  0  0
 32 79  2  0  0  0  0
 33 74  1  0  0  0  0
 33 80  2  0  0  0  0
 34 48  1  0  0  0  0
 34 76  1  0  0  0  0
 34 81  2  0  0  0  0
 35 63  1  0  0  0  0
 35 71  1  0  0  0  0
 35 82  2  0  0  0  0
 36 64  1  0  0  0  0
 36 77  1  0  0  0  0
 36 83  2  0  0  0  0
 37 72  1  0  0  0  0
 37 75  1  0  0  0  0
 37 84  2  0  0  0  0
 38 41  1  0  0  0  0
 39 48  1  0  0  0  0
 40 71  1  0  0  0  0
 41 43  1  0  0  0  0
 42 44  1  0  0  0  0
 42 45  1  0  0  0  0
 43 47  1  0  0  0  0
 44 49  1  0  0  0  0
 45 72  1  0  0  0  0
 46 49  1  0  0  0  0
 46 72  1  0  0  0  0
 47 76  1  0  0  0  0
 48 71  1  0  0  0  0
 49 70  1  0  0  0  0
 50 61  1  0  0  0  0
 51 64  1  0  0  0  0
 52 65  1  0  0  0  0
 53 66  1  0  0  0  0
 54 66  1  0  0  0  0
 55 66  1  0  0  0  0
 56 67  1  0  0  0  0
 57 67  1  0  0  0  0
 58 68  1  0  0  0  0
 59 78  1  0  0  0  0
 60 68  1  0  0  0  0
 61 68  1  0  0  0  0
 62 65  1  0  0  0  0
 62 67  1  0  0  0  0
 63 66  1  0  0  0  0
 63 77  1  0  0  0  0
 64 78  1  0  0  0  0
 65 86  1  0  0  0  0
 67 68  1  0  0  0  0
 69 70  1  0  0  0  0
M  CHG  1  78   1
M  ISO  4  37 100  65 101  75 100  86 101
M  END
> <Batch ID>
0145

> <Smiles>
CCC(C)(CC(=O)c1csc([100NH:0][100C:0](=O)N2CCCC(n3nc(-c4ccc(Oc5ccc(F)cc5F)cc4)c(C(N)=O)c3N)C2)c1)C(C)(C)C[101CH:1](C)[101O:1]c1ccc2c(c1)CN(C(=O)C(NC(=O)C(C)NC)C(C)(C)C)C(C(=O)NC1CCCc3ccccc31)C2

> <Shape>
0.220

> <Color>
0.069

> <Negative vol penalty>
0.000

$$$$

  -OEChem-04052303073D

 88 97  0     1  0  0  0  0  0999 V2000
  -27.6148  -37.8821   24.0876 C   0  0  0  0  0  0  0  0  0  0  0  0
  -27.9020  -36.5469   24.3526 C   0  0  0  0  0  0  0  0  0  0  0  0
  -23.8969   -9.4963   19.7987 C   0  0  0  0  0  0  0  0  0  0  0  0
  -24.4491   -9.6334   22.1467 C   0  0  0  0  0  0  0  0  0  0  0  0
  -26.3064  -38.2689   23.8008 C   0  0  0  0  0  0  0  0  0  0  0  0
  -26.8805  -35.5979   24.3320 C   0  0  0  0  0  0  0  0  0  0  0  0
  -28.1978  -31.3794   21.8593 C   0  0  0  0  0  0  0  0  0  0  0  0
  -23.4415   -8.1907   19.9820 C   0  0  0  0  0  0  0  0  0  0  0  0
  -23.9937   -8.3278   22.3301 C   0  0  0  0  0  0  0  0  0  0  0  0
  -29.0152  -30.4743   22.5349 C   0  0  0  0  0  0  0  0  0  0  0  0
  -21.0230   -6.7514   22.6623 C   0  0  0  0  0  0  0  0  0  0  0  0
  -20.2094   -6.4995   23.7669 C   0  0  0  0  0  0  0  0  0  0  0  0
  -27.0835  -29.1253   23.0526 C   0  0  0  0  0  0  0  0  0  0  0  0
  -30.3605  -19.0119   22.2656 C   0  0  0  0  0  0  0  0  0  0  0  0
  -21.8265   -4.9069   24.5949 C   0  0  0  0  0  0  0  0  0  0  0  0
  -28.3356  -18.8162   23.1810 C   0  0  0  0  0  0  0  0  0  0  0  0
  -24.4008  -10.2177   20.8810 C   0  0  0  0  0  0  0  0  0  0  0  0
  -24.1208  -12.7519   20.7997 C   0  0  0  0  0  0  0  0  0  0  0  0
  -25.2700  -37.3226   23.7671 C   0  0  0  0  0  0  0  0  0  0  0  0
  -26.8133  -31.1695   21.7845 C   0  0  0  0  0  0  0  0  0  0  0  0
  -25.5568  -35.9726   24.0457 C   0  0  0  0  0  0  0  0  0  0  0  0
  -26.2511  -30.0279   22.3733 C   0  0  0  0  0  0  0  0  0  0  0  0
  -29.2614  -18.1347   22.4256 C   0  0  0  0  0  0  0  0  0  0  0  0
  -23.4899   -7.6065   21.2477 C   0  0  0  0  0  0  0  0  0  0  0  0
  -28.4578  -29.3486   23.1341 C   0  0  0  0  0  0  0  0  0  0  0  0
  -22.2384   -6.0809   22.5239 C   0  0  0  0  0  0  0  0  0  0  0  0
  -20.6111   -5.5774   24.7332 C   0  0  0  0  0  0  0  0  0  0  0  0
  -22.6401   -5.1587   23.4902 C   0  0  0  0  0  0  0  0  0  0  0  0
  -24.8719  -11.5662   20.6921 C   0  0  0  0  0  0  0  0  0  0  0  0
  -30.0279  -20.1670   22.9344 C   0  0  0  0  0  0  0  0  0  0  0  0
  -25.0206  -13.7540   20.5304 C   0  0  0  0  0  0  0  0  0  0  0  0
  -22.7337  -12.9315   21.1150 C   0  0  0  0  0  0  0  0  0  0  0  0
  -30.8841  -21.3626   23.0323 C   0  0  0  0  0  0  0  0  0  0  0  0
  -24.2469  -32.7559   22.7847 C   0  0  0  0  0  0  0  0  0  0  0  0
  -22.6634  -30.4647   21.1218 C   0  0  0  0  0  0  0  0  0  0  0  0
  -22.6636  -27.3132   19.8123 C   0  0  0  0  0  0  0  0  0  0  0  0
  -30.0317  -16.0989   21.1575 C   0  0  0  0  0  0  0  0  0  0  0  0
  -23.8634  -37.7958   23.4988 C   0  0  0  0  0  0  0  0  0  0  0  0
  -25.9488  -32.1413   21.0292 C   0  0  0  0  0  0  0  0  0  0  0  0
  -24.7731  -29.7462   22.3043 C   0  0  0  0  0  0  0  0  0  0  0  0
  -22.9021  -36.6694   23.1282 C   0  0  0  0  0  0  0  0  0  0  0  0
  -29.7337  -13.5435   18.6962 C   0  0  0  0  0  0  0  0  0  0  0  0
  -23.0640  -35.4929   24.0855 C   0  0  0  0  0  0  0  0  0  0  0  0
  -28.3805  -12.8988   19.0049 C   0  0  0  0  0  0  0  0  0  0  0  0
  -28.8940  -24.3563   22.6373 C   0  0  0  0  0  0  0  0  0  0  0  0
  -30.4672  -13.9600   19.9698 C   0  0  0  0  0  0  0  0  0  0  0  0
  -29.0050  -22.8402   22.5414 C   0  0  0  0  0  0  0  0  0  0  0  0
  -28.3383  -14.1633   21.1926 C   0  0  0  0  0  0  0  0  0  0  0  0
  -24.4801  -34.9098   24.0084 C   0  0  1  0  0  0  0  0  0  0  0  0
  -24.4849  -32.0956   21.4562 C   0  0  1  0  0  0  0  0  0  0  0  0
  -27.5335  -13.7859   19.9382 C   0  0  2  0  0  0  0  0  0  0  0  0
  -29.6912  -24.7202   23.9083 C   0  0  2  0  0  0  0  0  0  0  0  0
  -30.9263  -23.7462   23.8192 C   0  0  0  0  0  0  0  0  0  0  0  0
  -28.8046  -24.4605   25.1474 C   0  0  0  0  0  0  0  0  0  0  0  0
  -31.5041  -23.3564   25.1835 C   0  0  0  0  0  0  0  0  0  0  0  0
  -32.0586  -24.2552   22.9107 C   0  0  0  0  0  0  0  0  0  0  0  0
  -21.2130  -25.7084   18.5404 C   0  0  0  0  0  0  0  0  0  0  0  0
  -21.0562  -29.9127   23.6560 C   0  0  0  0  0  0  0  0  0  0  0  0
  -20.3341  -27.7407   22.6414 C   0  0  0  0  0  0  0  0  0  0  0  0
  -19.7149  -29.8943   21.5453 C   0  0  0  0  0  0  0  0  0  0  0  0
  -24.5785  -27.1874   17.5591 C   0  0  0  0  0  0  0  0  0  0  0  0
  -30.0640  -26.2090   23.9027 C   0  0  0  0  0  0  0  0  0  0  0  0
  -28.8345  -27.0998   23.8102 C   0  0  0  0  0  0  0  0  0  1  0  0
  -22.1121  -29.0971   21.4456 C   0  0  1  0  0  0  0  0  0  0  0  0
  -22.2749  -26.7925   18.4403 C   0  0  2  0  0  0  0  0  0  0  0  0
  -20.8320  -29.1673   22.3253 C   0  0  0  0  0  0  0  0  0  0  0  0
  -26.1504  -11.7923   20.3788 N   0  0  0  0  0  0  0  0  0  0  0  0
  -26.2096  -13.1318   20.2870 N   0  0  0  0  0  0  0  0  0  0  0  0
  -30.3232  -22.5573   23.1404 N   0  0  0  0  0  0  0  0  0  0  0  0
  -23.9687  -30.7292   21.5599 N   0  0  0  0  0  0  0  0  0  0  0  0
  -29.6051  -14.8017   20.8024 N   0  0  0  0  0  0  0  0  0  0  0  0
  -24.9029  -15.0979   20.4803 N   0  0  0  0  0  0  0  0  0  0  0  0
  -21.9525  -11.7949   21.3643 N   0  0  0  0  0  0  0  0  0  0  0  0
  -29.1148  -16.8178   21.9237 N   0  0  0  0  0  0  0  0  0  0  0  0
  -24.6235  -34.0848   22.8280 N   0  0  0  0  0  0  0  0  0  0  0  0
  -21.9223  -28.4203   20.1672 N   0  0  0  0  0  0  0  0  0  0  0  0
  -32.2064  -21.2228   23.0124 N   0  3  0  0  0  0  0  0  0  0  0  0
  -23.4644  -26.2227   17.7465 N   0  3  0  0  0  0  0  0  0  0  0  0
  -22.1988  -14.0654   21.1577 O   0  0  0  0  0  0  0  0  0  0  0  0
  -23.7565  -32.1082   23.7021 O   0  0  0  0  0  0  0  0  0  0  0  0
  -21.9643  -31.2661   20.4968 O   0  0  0  0  0  0  0  0  0  0  0  0
  -23.5350  -26.7880   20.5018 O   0  0  0  0  0  0  0  0  0  0  0  0
  -31.1180  -16.5495   20.7849 O   0  0  0  0  0  0  0  0  0  0  0  0
  -28.7951  -20.0558   23.4951 O   0  0  0  0  0  0  0  0  0  0  0  0
  -23.0454   -6.3326   21.4271 O   0  0  0  0  0  0  0  0  0  0  0  0
  -29.2533  -28.4639   23.7947 O   0  0  0  0  0  0  0  0  0  1  0  0
  -19.8304   -5.3368   25.7947 F   0  0  0  0  0  0  0  0  0  0  0  0
  -23.8072   -4.5124   23.3634 F   0  0  0  0  0  0  0  0  0  0  0  0
  1  2  1  0  0  0  0
  1  5  2  0  0  0  0
  2  6  2  0  0  0  0
  3  8  2  0  0  0  0
  3 17  1  0  0  0  0
  4  9  1  0  0  0  0
  4 17  2  0  0  0  0
  5 19  1  0  0  0  0
  6 21  1  0  0  0  0
  7 10  2  0  0  0  0
  7 20  1  0  0  0  0
  8 24  1  0  0  0  0
  9 24  2  0  0  0  0
 10 25  1  0  0  0  0
 11 12  2  0  0  0  0
 11 26  1  0  0  0  0
 12 27  1  0  0  0  0
 13 22  1  0  0  0  0
 13 25  2  0  0  0  0
 14 23  1  0  0  0  0
 14 30  2  0  0  0  0
 15 27  2  0  0  0  0
 15 28  1  0  0  0  0
 16 23  2  0  0  0  0
 16 84  1  0  0  0  0
 17 29  1  0  0  0  0
 18 29  1  0  0  0  0
 18 31  2  0  0  0  0
 18 32  1  0  0  0  0
 19 21  2  0  0  0  0
 19 38  1  0  0  0  0
 20 22  2  0  0  0  0
 20 39  1  0  0  0  0
 21 49  1  0  0  0  0
 22 40  1  0  0  0  0
 23 74  1  0  0  0  0
 24 85  1  0  0  0  0
 25 86  1  0  0  0  0
 26 28  2  0  0  0  0
 26 85  1  0  0  0  0
 27 87  1  0  0  0  0
 28 88  1  0  0  0  0
 29 67  2  0  0  0  0
 30 33  1  0  0  0  0
 30 84  1  0  0  0  0
 31 68  1  0  0  0  0
 31 72  1  0  0  0  0
 32 73  1  0  0  0  0
 32 79  2  0  0  0  0
 33 69  1  0  0  0  0
 33 77  2  0  0  0  0
 34 50  1  0  0  0  0
 34 75  1  0  0  0  0
 34 80  2  0  0  0  0
 35 64  1  0  0  0  0
 35 70  1  0  0  0  0
 35 81  2  0  0  0  0
 36 65  1  0  0  0  0
 36 76  1  0  0  0  0
 36 82  2  0  0  0  0
 37 71  1  0  0  0  0
 37 74  1  0  0  0  0
 37 83  2  0  0  0  0
 38 41  1  0  0  0  0
 39 50  1  0  0  0  0
 40 70  1  0  0  0  0
 41 43  1  0  0  0  0
 42 44  1  0  0  0  0
 42 46  1  0  0  0  0
 43 49  1  0  0  0  0
 44 51  1  0  0  0  0
 45 47  1  0  0  0  0
 45 52  1  0  0  0  0
 46 71  1  0  0  0  0
 47 69  1  0  0  0  0
 48 51  1  0  0  0  0
 48 71  1  0  0  0  0
 49 75  1  0  0  0  0
 50 70  1  0  0  0  0
 51 68  1  0  0  0  0
 52 53  1  0  0  0  0
 52 54  1  0  0  0  0
 52 62  1  0  0  0  0
 53 55  1  0  0  0  0
 53 56  1  0  0  0  0
 53 69  1  0  0  0  0
 57 65  1  0  0  0  0
 58 66  1  0  0  0  0
 59 66  1  0  0  0  0
 60 66  1  0  0  0  0
 61 78  1  0  0  0  0
 62 63  1  0  0  0  0
 63 86  1  0  0  0  0
 64 66  1  0  0  0  0
 64 76  1  0  0  0  0
 65 78  1  0  0  0  0
 67 68  1  0  0  0  0
M  CHG  2  77   1  78   1
M  ISO  4  37 100  63 101  74 100  86 101
M  END
> <Batch ID>
0145

> <Smiles>
CNC(C)C(=O)NC(C(=O)N1Cc2cc([101O:1][101CH2:1]CC3(C)CCN(C(=N)c4cc([100NH:0][100C:0](=O)N5CCCC(n6nc(-c7ccc(Oc8ccc(F)cc8F)cc7)c(C(N)=O)c6N)C5)co4)C3(C)C)ccc2CC1C(=O)NC1CCCc2ccccc21)C(C)(C)C

> <Shape>
0.327

> <Color>
0.135

> <Negative vol penalty>
0.000

$$$$

  -OEChem-04052303073D

 82 91  0     1  0  0  0  0  0999 V2000
  -28.8446  -36.3794   18.4486 C   0  0  0  0  0  0  0  0  0  0  0  0
  -28.7500  -35.0377   18.0935 C   0  0  0  0  0  0  0  0  0  0  0  0
  -24.4307   -9.1151   21.3667 C   0  0  0  0  0  0  0  0  0  0  0  0
  -23.0323  -11.0409   20.9510 C   0  0  0  0  0  0  0  0  0  0  0  0
  -28.7071  -36.7574   19.7836 C   0  0  0  0  0  0  0  0  0  0  0  0
  -28.5188  -34.0729   19.0734 C   0  0  0  0  0  0  0  0  0  0  0  0
  -25.2433  -28.9325   18.4785 C   0  0  0  0  0  0  0  0  0  0  0  0
  -23.4888   -8.6266   22.2722 C   0  0  0  0  0  0  0  0  0  0  0  0
  -22.0903  -10.5524   21.8564 C   0  0  0  0  0  0  0  0  0  0  0  0
  -25.6102  -27.6089   18.2395 C   0  0  0  0  0  0  0  0  0  0  0  0
  -20.5224   -7.0084   22.1507 C   0  0  0  0  0  0  0  0  0  0  0  0
  -20.1894   -5.6561   22.0733 C   0  0  0  0  0  0  0  0  0  0  0  0
  -25.5353  -27.1665   20.6097 C   0  0  0  0  0  0  0  0  0  0  0  0
  -28.4616  -19.1624   19.4741 C   0  0  0  0  0  0  0  0  0  0  0  0
  -20.9510   -5.3386   24.3441 C   0  0  0  0  0  0  0  0  0  0  0  0
  -26.3536  -19.7574   19.0515 C   0  0  0  0  0  0  0  0  0  0  0  0
  -24.2024  -10.3223   20.7062 C   0  0  0  0  0  0  0  0  0  0  0  0
  -25.2367  -10.5739   18.3878 C   0  0  0  0  0  0  0  0  0  0  0  0
  -28.4645  -35.7978   20.7790 C   0  0  0  0  0  0  0  0  0  0  0  0
  -25.0299  -29.3867   19.7880 C   0  0  0  0  0  0  0  0  0  0  0  0
  -28.3792  -34.4383   20.4231 C   0  0  0  0  0  0  0  0  0  0  0  0
  -25.1633  -28.4957   20.8625 C   0  0  0  0  0  0  0  0  0  0  0  0
  -27.6258  -20.2651   19.1762 C   0  0  0  0  0  0  0  0  0  0  0  0
  -22.3186   -9.3452   22.5170 C   0  0  0  0  0  0  0  0  0  0  0  0
  -25.7591  -26.7264   19.3054 C   0  0  0  0  0  0  0  0  0  0  0  0
  -21.0698   -7.5258   23.3248 C   0  0  0  0  0  0  0  0  0  0  0  0
  -20.4036   -4.8212   23.1700 C   0  0  0  0  0  0  0  0  0  0  0  0
  -21.2841   -6.6909   24.4214 C   0  0  0  0  0  0  0  0  0  0  0  0
  -25.1753  -10.8277   19.7711 C   0  0  0  0  0  0  0  0  0  0  0  0
  -26.3341  -11.2790   17.9577 C   0  0  0  0  0  0  0  0  0  0  0  0
  -27.6405  -18.0595   19.5104 C   0  0  0  0  0  0  0  0  0  0  0  0
  -27.9158  -23.8948   18.8408 C   0  0  0  0  0  0  0  0  0  0  0  0
  -27.4499  -25.1294   19.0573 C   0  0  0  0  0  0  0  0  0  1  0  0
  -24.3784   -9.7724   17.5651 C   0  0  0  0  0  0  0  0  0  0  0  0
  -26.3780  -31.5838   21.6479 C   0  0  0  0  0  0  0  0  0  0  0  0
  -23.9529  -30.8086   23.6579 C   0  0  0  0  0  0  0  0  0  0  0  0
  -21.6471  -28.5015   24.6618 C   0  0  0  0  0  0  0  0  0  0  0  0
  -29.1527  -16.1168   20.0448 C   0  0  0  0  0  0  0  0  0  0  0  0
  -28.3700  -36.2494   22.2150 C   0  0  0  0  0  0  0  0  0  0  0  0
  -24.6085  -30.8107   20.0270 C   0  0  0  0  0  0  0  0  0  0  0  0
  -24.9259  -28.9283   22.2855 C   0  0  0  0  0  0  0  0  0  0  0  0
  -29.3625  -23.5170   18.7941 C   0  0  0  0  0  0  0  0  0  0  0  0
  -27.0682  -22.6635   18.7268 C   0  0  0  0  0  0  0  0  0  0  0  0
  -27.7534  -35.2054   23.1424 C   0  0  0  0  0  0  0  0  0  0  0  0
  -30.5747  -12.9019   19.4799 C   0  0  0  0  0  0  0  0  0  0  0  0
  -28.3721  -33.8343   22.8891 C   0  0  0  0  0  0  0  0  0  0  0  0
  -29.3569  -11.9830   19.3585 C   0  0  0  0  0  0  0  0  0  0  0  0
  -29.3543  -22.0779   19.3019 C   0  0  0  0  0  0  0  0  0  0  0  0
  -30.3574  -13.9967   20.5230 C   0  0  0  0  0  0  0  0  0  0  0  0
  -27.9153  -13.8692   20.2252 C   0  0  0  0  0  0  0  0  0  0  0  0
  -28.1044  -33.3650   21.4540 C   0  0  1  0  0  0  0  0  0  0  0  0
  -24.9180  -31.2963   21.4397 C   0  0  1  0  0  0  0  0  0  0  0  0
  -28.0618  -12.7897   19.1403 C   0  0  2  0  0  0  0  0  0  0  0  0
  -19.8303  -28.1399   26.3546 C   0  0  0  0  0  0  0  0  0  0  0  0
  -26.0593  -30.3252   25.8118 C   0  0  0  0  0  0  0  0  0  0  0  0
  -24.3277  -29.0861   27.1288 C   0  0  0  0  0  0  0  0  0  0  0  0
  -24.0031  -31.5043   26.6094 C   0  0  0  0  0  0  0  0  0  0  0  0
  -19.5887  -28.1922   22.5579 C   0  0  0  0  0  0  0  0  0  0  0  0
  -23.7609  -29.7962   24.7612 C   0  0  1  0  0  0  0  0  0  0  0  0
  -20.1617  -28.6218   24.9508 C   0  0  2  0  0  0  0  0  0  0  0  0
  -24.5442  -30.1700   26.0513 C   0  0  0  0  0  0  0  0  0  0  0  0
  -26.1558  -11.6311   20.1920 N   0  0  0  0  0  0  0  0  0  0  0  0
  -26.8437  -11.8882   19.0665 N   0  0  0  0  0  0  0  0  0  0  0  0
  -28.0044  -21.5859   19.0367 N   0  0  3  0  0  0  0  0  0  0  0  0
  -24.5218  -30.3322   22.4682 N   0  0  0  0  0  0  0  0  0  0  0  0
  -29.1144  -14.7214   20.2499 N   0  0  0  0  0  0  0  0  0  0  0  0
  -26.9033  -11.4309   16.7431 N   0  0  0  0  0  0  0  0  0  0  0  0
  -23.2967   -9.1163   18.1684 N   0  0  0  0  0  0  0  0  0  0  0  0
  -27.9145  -16.6920   19.7609 N   0  0  0  0  0  0  0  0  0  0  0  0
  -26.7483  -32.8758   21.3268 N   0  0  0  0  0  0  0  0  0  0  0  0
  -22.3202  -29.6692   24.9526 N   0  0  0  0  0  0  0  0  0  0  0  0
  -19.3773  -27.8100   23.9778 N   0  3  0  0  0  0  0  0  0  0  0  0
  -24.5747   -9.6288   16.3346 O   0  0  0  0  0  0  0  0  0  0  0  0
  -27.1138  -30.6993   22.0700 O   0  0  0  0  0  0  0  0  0  0  0  0
  -23.6041  -31.9773   23.8421 O   0  0  0  0  0  0  0  0  0  0  0  0
  -22.1597  -27.4732   24.2255 O   0  0  0  0  0  0  0  0  0  0  0  0
  -30.2103  -16.7505   20.0889 O   0  0  0  0  0  0  0  0  0  0  0  0
  -26.3539  -18.4136   19.2539 O   0  0  0  0  0  0  0  0  0  0  0  0
  -21.3992   -8.8687   23.4003 O   0  0  0  0  0  0  0  0  0  0  0  0
  -26.1178  -25.4341   19.0750 O   0  0  0  0  0  0  0  0  0  1  0  0
  -20.0823   -3.5230   23.0961 F   0  0  0  0  0  0  0  0  0  0  0  0
  -21.8086   -7.1825   25.5524 F   0  0  0  0  0  0  0  0  0  0  0  0
  1  2  1  0  0  0  0
  1  5  2  0  0  0  0
  2  6  2  0  0  0  0
  3  8  2  0  0  0  0
  3 17  1  0  0  0  0
  4  9  1  0  0  0  0
  4 17  2  0  0  0  0
  5 19  1  0  0  0  0
  6 21  1  0  0  0  0
  7 10  2  0  0  0  0
  7 20  1  0  0  0  0
  8 24  1  0  0  0  0
  9 24  2  0  0  0  0
 10 25  1  0  0  0  0
 11 12  2  0  0  0  0
 11 26  1  0  0  0  0
 12 27  1  0  0  0  0
 13 22  1  0  0  0  0
 13 25  2  0  0  0  0
 14 23  1  0  0  0  0
 14 31  2  0  0  0  0
 15 27  2  0  0  0  0
 15 28  1  0  0  0  0
 16 23  2  0  0  0  0
 16 78  1  0  0  0  0
 17 29  1  0  0  0  0
 18 29  1  0  0  0  0
 18 30  2  0  0  0  0
 18 34  1  0  0  0  0
 19 21  2  0  0  0  0
 19 39  1  0  0  0  0
 20 22  2  0  0  0  0
 20 40  1  0  0  0  0
 21 51  1  0  0  0  0
 22 41  1  0  0  0  0
 23 64  1  0  0  0  0
 24 79  1  0  0  0  0
 25 80  1  0  0  0  0
 26 28  2  0  0  0  0
 26 79  1  0  0  0  0
 27 81  1  0  0  0  0
 28 82  1  0  0  0  0
 29 62  2  0  0  0  0
 30 63  1  0  0  0  0
 30 67  1  0  0  0  0
 31 69  1  0  0  0  0
 31 78  1  0  0  0  0
 32 33  2  0  0  0  0
 32 42  1  0  0  0  0
 32 43  1  0  0  0  0
 33 80  1  0  0  0  0
 34 68  1  0  0  0  0
 34 73  2  0  0  0  0
 35 52  1  0  0  0  0
 35 70  1  0  0  0  0
 35 74  2  0  0  0  0
 36 59  1  0  0  0  0
 36 65  1  0  0  0  0
 36 75  2  0  0  0  0
 37 60  1  0  0  0  0
 37 71  1  0  0  0  0
 37 76  2  0  0  0  0
 38 66  1  0  0  0  0
 38 69  1  0  0  0  0
 38 77  2  0  0  0  0
 39 44  1  0  0  0  0
 40 52  1  0  0  0  0
 41 65  1  0  0  0  0
 42 48  1  0  0  0  0
 43 64  1  0  0  0  0
 44 46  1  0  0  0  0
 45 47  1  0  0  0  0
 45 49  1  0  0  0  0
 46 51  1  0  0  0  0
 47 53  1  0  0  0  0
 48 64  1  0  0  0  0
 49 66  1  0  0  0  0
 50 53  1  0  0  0  0
 50 66  1  0  0  0  0
 51 70  1  0  0  0  0
 52 65  1  0  0  0  0
 53 63  1  0  0  0  0
 54 60  1  0  0  0  0
 55 61  1  0  0  0  0
 56 61  1  0  0  0  0
 57 61  1  0  0  0  0
 58 72  1  0  0  0  0
 59 61  1  0  0  0  0
 59 71  1  0  0  0  0
 60 72  1  0  0  0  0
 62 63  1  0  0  0  0
M  CHG  1  72   1
M  ISO  4  33 101  38 100  69 100  80 101
M  END
> <Batch ID>
0145

> <Smiles>
CNC(C)C(=O)NC(C(=O)N1Cc2cc([101O:1][101CH:1]=C3CCN(c4coc([100NH:0][100C:0](=O)N5CCCC(n6nc(-c7ccc(Oc8ccc(F)cc8F)cc7)c(C(N)=O)c6N)C5)c4)C3)ccc2CC1C(=O)NC1CCCc2ccccc21)C(C)(C)C

> <Shape>
0.273

> <Color>
0.096

> <Negative vol penalty>
0.000

$$$$

  -OEChem-04052303073D

 87 96  0     1  0  0  0  0  0999 V2000
  -24.7104  -33.4412   27.8271 C   0  0  0  0  0  0  0  0  0  0  0  0
  -25.1698  -32.2405   27.2953 C   0  0  0  0  0  0  0  0  0  0  0  0
  -22.6860  -10.1838   20.4563 C   0  0  0  0  0  0  0  0  0  0  0  0
  -24.5439   -9.0050   21.4543 C   0  0  0  0  0  0  0  0  0  0  0  0
  -23.5216  -33.9998   27.3597 C   0  0  0  0  0  0  0  0  0  0  0  0
  -24.4398  -31.5972   26.2964 C   0  0  0  0  0  0  0  0  0  0  0  0
  -27.3694  -29.9317   22.5163 C   0  0  0  0  0  0  0  0  0  0  0  0
  -21.8135   -9.5681   21.3536 C   0  0  0  0  0  0  0  0  0  0  0  0
  -23.6713   -8.3894   22.3516 C   0  0  0  0  0  0  0  0  0  0  0  0
  -28.0879  -28.7576   22.7375 C   0  0  0  0  0  0  0  0  0  0  0  0
  -21.4741   -5.8199   22.3248 C   0  0  0  0  0  0  0  0  0  0  0  0
  -21.6243   -4.4497   22.5382 C   0  0  0  0  0  0  0  0  0  0  0  0
  -26.4275  -27.5163   21.5040 C   0  0  0  0  0  0  0  0  0  0  0  0
  -26.6910  -20.5184   19.9188 C   0  0  0  0  0  0  0  0  0  0  0  0
  -25.9734  -18.2115   19.9106 C   0  0  0  0  0  0  0  0  0  0  0  0
  -28.3207  -18.7456   20.1146 C   0  0  0  0  0  0  0  0  0  0  0  0
  -22.0364   -4.8601   24.8832 C   0  0  0  0  0  0  0  0  0  0  0  0
  -24.0513   -9.9022   20.5066 C   0  0  0  0  0  0  0  0  0  0  0  0
  -24.9259  -10.4537   18.1745 C   0  0  0  0  0  0  0  0  0  0  0  0
  -22.7817  -33.3679   26.3478 C   0  0  0  0  0  0  0  0  0  0  0  0
  -26.1669  -29.9052   21.7954 C   0  0  0  0  0  0  0  0  0  0  0  0
  -23.2393  -32.1472   25.8160 C   0  0  0  0  0  0  0  0  0  0  0  0
  -25.6969  -28.6919   21.2729 C   0  0  0  0  0  0  0  0  0  0  0  0
  -25.6694  -19.5714   19.8481 C   0  0  0  0  0  0  0  0  0  0  0  0
  -28.0167  -20.1055   20.0521 C   0  0  0  0  0  0  0  0  0  0  0  0
  -27.2991  -17.7986   20.0439 C   0  0  0  0  0  0  0  0  0  0  0  0
  -22.3061   -8.6710   22.3013 C   0  0  0  0  0  0  0  0  0  0  0  0
  -27.6155  -27.5492   22.2338 C   0  0  0  0  0  0  0  0  0  0  0  0
  -21.6051   -6.7103   23.3905 C   0  0  0  0  0  0  0  0  0  0  0  0
  -21.9054   -3.9698   23.8174 C   0  0  0  0  0  0  0  0  0  0  0  0
  -21.8862   -6.2304   24.6697 C   0  0  0  0  0  0  0  0  0  0  0  0
  -24.9531  -10.5374   19.5795 C   0  0  0  0  0  0  0  0  0  0  0  0
  -25.9829  -11.2288   17.7639 C   0  0  0  0  0  0  0  0  0  0  0  0
  -24.0257   -9.7394   17.3172 C   0  0  0  0  0  0  0  0  0  0  0  0
  -29.4772  -24.5500   21.4127 C   0  0  0  0  0  0  0  0  0  0  0  0
  -23.1390  -30.6111   22.4569 C   0  0  0  0  0  0  0  0  0  0  0  0
  -22.7245  -30.0536   19.2883 C   0  0  0  0  0  0  0  0  0  0  0  0
  -23.8908  -27.6509   16.8626 C   0  0  0  0  0  0  0  0  0  0  0  0
  -28.8691  -15.8382   20.2394 C   0  0  0  0  0  0  0  0  0  0  0  0
  -21.4781  -33.9858   25.9080 C   0  0  0  0  0  0  0  0  0  0  0  0
  -25.4174  -31.1846   21.5427 C   0  0  0  0  0  0  0  0  0  0  0  0
  -24.4219  -28.6129   20.4750 C   0  0  0  0  0  0  0  0  0  0  0  0
  -20.9576  -33.4321   24.5841 C   0  0  0  0  0  0  0  0  0  0  0  0
  -30.9826  -21.9977   18.9888 C   0  0  0  0  0  0  0  0  0  0  0  0
  -30.2933  -12.7459   19.1970 C   0  0  0  0  0  0  0  0  0  0  0  0
  -21.0377  -31.9089   24.5741 C   0  0  0  0  0  0  0  0  0  0  0  0
  -30.9323  -23.1950   19.9327 C   0  0  0  0  0  0  0  0  0  0  0  0
  -29.0824  -11.8227   19.0430 C   0  0  0  0  0  0  0  0  0  0  0  0
  -30.3733  -20.7482   19.6253 C   0  0  0  0  0  0  0  0  0  0  0  0
  -30.1311  -13.7020   20.3774 C   0  0  0  0  0  0  0  0  0  0  0  0
  -28.9235  -22.1689   21.0559 C   0  0  0  0  0  0  0  0  0  0  0  0
  -27.6764  -13.5595   20.2237 C   0  0  0  0  0  0  0  0  0  0  0  0
  -22.4884  -31.4318   24.7139 C   0  0  1  0  0  0  0  0  0  0  0  0
  -29.5020  -23.4323   20.4165 C   0  0  1  0  0  0  0  0  0  0  0  0
  -23.9401  -30.9609   21.2348 C   0  0  1  0  0  0  0  0  0  0  0  0
  -27.7651  -12.6221   19.0083 C   0  0  2  0  0  0  0  0  0  0  0  0
  -24.2520  -20.0130   19.7056 C   0  0  0  0  0  0  0  0  0  0  0  0
  -24.1835  -27.8512   14.3783 C   0  0  0  0  0  0  0  0  0  0  0  0
  -19.9169  -28.8666   19.1534 C   0  0  0  0  0  0  0  0  0  0  0  0
  -20.6455  -27.5490   17.1531 C   0  0  0  0  0  0  0  0  0  0  0  0
  -20.6535  -30.0422   17.0726 C   0  0  0  0  0  0  0  0  0  0  0  0
  -26.7319  -26.8364   17.0149 C   0  0  0  0  0  0  0  0  0  0  0  0
  -28.2144  -25.3840   21.4534 C   0  0  0  0  0  0  0  0  0  1  0  0
  -22.4008  -28.8409   18.4496 C   0  0  1  0  0  0  0  0  0  0  0  0
  -24.8728  -27.9036   15.7329 C   0  0  2  0  0  0  0  0  0  0  0  0
  -20.9181  -28.8224   17.9819 C   0  0  0  0  0  0  0  0  0  0  0  0
  -25.9486  -11.3048   20.0313 N   0  0  0  0  0  0  0  0  0  0  0  0
  -26.5568  -11.7105   18.9036 N   0  0  0  0  0  0  0  0  0  0  0  0
  -29.0248  -21.0404   20.1218 N   0  0  2  0  0  0  0  0  0  0  0  0
  -23.7217  -29.8900   20.2602 N   0  0  0  0  0  0  0  0  0  0  0  0
  -28.8631  -14.4277   20.2750 N   0  0  0  0  0  0  0  0  0  0  0  0
  -26.4682  -11.5384   16.5428 N   0  0  0  0  0  0  0  0  0  0  0  0
  -22.9953   -8.9924   17.9042 N   0  0  0  0  0  0  0  0  0  0  0  0
  -27.6073  -16.4170   20.1078 N   0  0  0  0  0  0  0  0  0  0  0  0
  -23.1882  -31.5662   23.4542 N   0  0  0  0  0  0  0  0  0  0  0  0
  -23.3712  -28.8272   17.3603 N   0  0  0  0  0  0  0  0  0  0  0  0
  -25.9555  -26.8796   15.7491 N   0  3  0  0  0  0  0  0  0  0  0  0
  -24.1418   -9.7496   16.0682 O   0  0  0  0  0  0  0  0  0  0  0  0
  -30.4360  -24.7688   22.1516 O   0  0  0  0  0  0  0  0  0  0  0  0
  -22.5208  -29.5536   22.4918 O   0  0  0  0  0  0  0  0  0  0  0  0
  -22.1199  -31.1092   19.0838 O   0  0  0  0  0  0  0  0  0  0  0  0
  -23.6096  -26.5228   17.2611 O   0  0  0  0  0  0  0  0  0  0  0  0
  -29.9188  -16.4843   20.2923 O   0  0  0  0  0  0  0  0  0  0  0  0
  -21.4549   -8.0703   23.1772 O   0  0  0  0  0  0  0  0  0  0  0  0
  -28.3145  -26.4016   22.4488 O   0  0  0  0  0  0  0  0  0  1  0  0
  -22.0481   -2.6539   24.0224 F   0  0  0  0  0  0  0  0  0  0  0  0
  -22.0120   -7.0808   25.6977 F   0  0  0  0  0  0  0  0  0  0  0  0
  1  2  1  0  0  0  0
  1  5  2  0  0  0  0
  2  6  2  0  0  0  0
  3  8  2  0  0  0  0
  3 18  1  0  0  0  0
  4  9  1  0  0  0  0
  4 18  2  0  0  0  0
  5 20  1  0  0  0  0
  6 22  1  0  0  0  0
  7 10  2  0  0  0  0
  7 21  1  0  0  0  0
  8 27  1  0  0  0  0
  9 27  2  0  0  0  0
 10 28  1  0  0  0  0
 11 12  2  0  0  0  0
 11 29  1  0  0  0  0
 12 30  1  0  0  0  0
 13 23  1  0  0  0  0
 13 28  2  0  0  0  0
 14 24  2  0  0  0  0
 14 25  1  0  0  0  0
 15 24  1  0  0  0  0
 15 26  2  0  0  0  0
 16 25  2  0  0  0  0
 16 26  1  0  0  0  0
 17 30  2  0  0  0  0
 17 31  1  0  0  0  0
 18 32  1  0  0  0  0
 19 32  1  0  0  0  0
 19 33  2  0  0  0  0
 19 34  1  0  0  0  0
 20 22  2  0  0  0  0
 20 40  1  0  0  0  0
 21 23  2  0  0  0  0
 21 41  1  0  0  0  0
 22 53  1  0  0  0  0
 23 42  1  0  0  0  0
 24 57  1  0  0  0  0
 25 69  1  0  0  0  0
 26 74  1  0  0  0  0
 27 84  1  0  0  0  0
 28 85  1  0  0  0  0
 29 31  2  0  0  0  0
 29 84  1  0  0  0  0
 30 86  1  0  0  0  0
 31 87  1  0  0  0  0
 32 67  2  0  0  0  0
 33 68  1  0  0  0  0
 33 72  1  0  0  0  0
 34 73  1  0  0  0  0
 34 78  2  0  0  0  0
 35 54  1  0  0  0  0
 35 63  1  0  0  0  0
 35 79  2  0  0  0  0
 36 55  1  0  0  0  0
 36 75  1  0  0  0  0
 36 80  2  0  0  0  0
 37 64  1  0  0  0  0
 37 70  1  0  0  0  0
 37 81  2  0  0  0  0
 38 65  1  0  0  0  0
 38 76  1  0  0  0  0
 38 82  2  0  0  0  0
 39 71  1  0  0  0  0
 39 74  1  0  0  0  0
 39 83  2  0  0  0  0
 40 43  1  0  0  0  0
 41 55  1  0  0  0  0
 42 70  1  0  0  0  0
 43 46  1  0  0  0  0
 44 47  1  0  0  0  0
 44 49  1  0  0  0  0
 45 48  1  0  0  0  0
 45 50  1  0  0  0  0
 46 53  1  0  0  0  0
 47 54  1  0  0  0  0
 48 56  1  0  0  0  0
 49 69  1  0  0  0  0
 50 71  1  0  0  0  0
 51 54  1  0  0  0  0
 51 69  1  0  0  0  0
 52 56  1  0  0  0  0
 52 71  1  0  0  0  0
 53 75  1  0  0  0  0
 55 70  1  0  0  0  0
 56 68  1  0  0  0  0
 58 65  1  0  0  0  0
 59 66  1  0  0  0  0
 60 66  1  0  0  0  0
 61 66  1  0  0  0  0
 62 77  1  0  0  0  0
 63 85  1  0  0  0  0
 64 66  1  0  0  0  0
 64 76  1  0  0  0  0
 65 77  1  0  0  0  0
 67 68  1  0  0  0  0
M  CHG  1  77   1
M  ISO  4  39 100  63 101  74 100  85 101
M  END
> <Batch ID>
0145

> <Smiles>
CNC(C)C(=O)NC(C(=O)N1Cc2cc([101O:1][101CH2:1]C(=O)C3CCCN(c4cc(C)cc([100NH:0][100C:0](=O)N5CCCC(n6nc(-c7ccc(Oc8ccc(F)cc8F)cc7)c(C(N)=O)c6N)C5)c4)C3)ccc2CC1C(=O)NC1CCCc2ccccc21)C(C)(C)C

> <Shape>
0.271

> <Color>
0.091

> <Negative vol penalty>
0.000

$$$$

  -OEChem-04052303073D

 89 97  0     1  0  0  0  0  0999 V2000
  -22.6536  -14.7222   16.9037 C   0  0  0  0  0  0  0  0  0  0  0  0
  -23.7954  -15.4640   16.6180 C   0  0  0  0  0  0  0  0  0  0  0  0
  -23.0771   -9.8686   19.9485 C   0  0  0  0  0  0  0  0  0  0  0  0
  -23.8293   -9.8900   22.2443 C   0  0  0  0  0  0  0  0  0  0  0  0
  -21.4918  -15.3676   17.3250 C   0  0  0  0  0  0  0  0  0  0  0  0
  -23.7756  -16.8518   16.7524 C   0  0  0  0  0  0  0  0  0  0  0  0
  -27.8943  -18.6355   19.0974 C   0  0  0  0  0  0  0  0  0  0  0  0
  -22.3318   -8.7175   20.2034 C   0  0  0  0  0  0  0  0  0  0  0  0
  -23.0840   -8.7389   22.4992 C   0  0  0  0  0  0  0  0  0  0  0  0
  -29.0638  -18.7323   18.3446 C   0  0  0  0  0  0  0  0  0  0  0  0
  -19.9448   -5.9792   20.3415 C   0  0  0  0  0  0  0  0  0  0  0  0
  -18.6407   -5.9287   19.8491 C   0  0  0  0  0  0  0  0  0  0  0  0
  -28.6668  -21.0924   18.0424 C   0  0  0  0  0  0  0  0  0  0  0  0
  -31.8756  -17.4553   21.5995 C   0  0  0  0  0  0  0  0  0  0  0  0
  -18.0722   -7.8804   21.1549 C   0  0  0  0  0  0  0  0  0  0  0  0
  -23.8259  -10.4549   20.9689 C   0  0  0  0  0  0  0  0  0  0  0  0
  -24.1695  -12.9790   20.8337 C   0  0  0  0  0  0  0  0  0  0  0  0
  -21.4606  -16.7632   17.4739 C   0  0  0  0  0  0  0  0  0  0  0  0
  -27.0952  -19.7662   19.3195 C   0  0  0  0  0  0  0  0  0  0  0  0
  -22.6118  -17.5166   17.1748 C   0  0  0  0  0  0  0  0  0  0  0  0
  -27.4890  -21.0078   18.8005 C   0  0  0  0  0  0  0  0  0  0  0  0
  -30.5833  -16.9458   21.9163 C   0  0  0  0  0  0  0  0  0  0  0  0
  -22.3352   -8.1526   21.4787 C   0  0  0  0  0  0  0  0  0  0  0  0
  -29.4487  -19.9603   17.8146 C   0  0  0  0  0  0  0  0  0  0  0  0
  -20.3126   -6.9802   21.2406 C   0  0  0  0  0  0  0  0  0  0  0  0
  -17.7044   -6.8793   20.2558 C   0  0  0  0  0  0  0  0  0  0  0  0
  -19.3763   -7.9308   21.6473 C   0  0  0  0  0  0  0  0  0  0  0  0
  -24.5965  -11.6437   20.7061 C   0  0  0  0  0  0  0  0  0  0  0  0
  -29.8694  -17.8083   22.7188 C   0  0  0  0  0  0  0  0  0  0  0  0
  -25.2632  -13.7256   20.4693 C   0  0  0  0  0  0  0  0  0  0  0  0
  -32.1003  -18.6881   22.1718 C   0  0  0  0  0  0  0  0  0  0  0  0
  -22.8979  -13.4982   21.2451 C   0  0  0  0  0  0  0  0  0  0  0  0
  -24.1122  -20.5838   18.5868 C   0  0  0  0  0  0  0  0  0  0  0  0
  -34.2943  -19.5431   19.8750 C   0  0  0  0  0  0  0  0  0  0  0  0
  -32.9936  -19.7714   17.0654 C   0  0  0  0  0  0  0  0  0  0  0  0
  -24.7848  -23.1728   20.4218 C   0  0  0  0  0  0  0  0  0  0  0  0
  -27.1457  -25.2529   21.7432 C   0  0  0  0  0  0  0  0  0  0  0  0
  -30.7293  -14.7697   20.6554 C   0  0  0  0  0  0  0  0  0  0  0  0
  -20.1675  -17.4205   17.8867 C   0  0  0  0  0  0  0  0  0  0  0  0
  -25.8506  -19.6504   20.1561 C   0  0  0  0  0  0  0  0  0  0  0  0
  -26.6767  -22.2558   19.0272 C   0  0  0  0  0  0  0  0  0  0  0  0
  -20.3411  -18.8601   18.3637 C   0  0  0  0  0  0  0  0  0  0  0  0
  -29.6216  -12.3410   18.2992 C   0  0  0  0  0  0  0  0  0  0  0  0
  -21.2344  -19.6371   17.4019 C   0  0  0  0  0  0  0  0  0  0  0  0
  -28.1804  -12.0529   18.7259 C   0  0  0  0  0  0  0  0  0  0  0  0
  -30.5328  -12.5772   19.5024 C   0  0  0  0  0  0  0  0  0  0  0  0
  -28.6216  -13.3116   20.8725 C   0  0  0  0  0  0  0  0  0  0  0  0
  -22.6371  -19.0215   17.3323 C   0  0  1  0  0  0  0  0  0  0  0  0
  -24.8438  -20.7645   19.8867 C   0  0  1  0  0  0  0  0  0  0  0  0
  -27.6526  -13.1311   19.6926 C   0  0  2  0  0  0  0  0  0  0  0  0
  -28.4979  -17.2657   24.7463 C   0  0  0  0  0  0  0  0  0  0  0  0
  -27.3885  -27.3021   23.1712 C   0  0  0  0  0  0  0  0  0  0  0  0
  -34.1777  -17.6971   16.4259 C   0  0  0  0  0  0  0  0  0  0  0  0
  -35.5544  -19.7030   17.0010 C   0  0  0  0  0  0  0  0  0  0  0  0
  -23.8984  -24.9100   18.0753 C   0  0  0  0  0  0  0  0  0  0  0  0
  -25.0348  -26.8517   19.1738 C   0  0  0  0  0  0  0  0  0  0  0  0
  -23.1317  -25.7133   20.3162 C   0  0  0  0  0  0  0  0  0  0  0  0
  -28.7133  -23.7881   23.7818 C   0  0  0  0  0  0  0  0  0  0  0  0
  -28.5020  -17.6567   23.2666 C   0  0  0  0  0  0  0  0  0  0  0  0
  -34.2969  -18.4514   18.8064 C   0  0  0  0  0  0  0  0  0  0  0  0
  -34.4114  -19.0494   21.3036 C   0  0  0  0  0  0  0  0  0  0  0  0
  -31.6460  -19.1522   17.3962 C   0  0  0  0  0  0  0  0  0  1  0  0
  -25.3672  -24.5419   20.1665 C   0  0  1  0  0  0  0  0  0  0  0  0
  -27.3473  -25.7820   23.1517 C   0  0  2  0  0  0  0  0  0  0  0  0
  -34.2645  -18.9373   17.3359 C   0  0  0  0  0  0  0  0  0  0  0  0
  -24.3725  -25.4805   19.4269 C   0  0  0  0  0  0  0  0  0  0  0  0
  -25.8627  -11.5445   20.2926 N   0  0  0  0  0  0  0  0  0  0  0  0
  -26.2407  -12.8270   20.1573 N   0  0  0  0  0  0  0  0  0  0  0  0
  -25.4648  -22.0900   19.8465 N   0  0  0  0  0  0  0  0  0  0  0  0
  -29.9714  -13.6140   20.3712 N   0  0  0  0  0  0  0  0  0  0  0  0
  -25.4746  -15.0564   20.3884 N   0  0  0  0  0  0  0  0  0  0  0  0
  -21.8843  -12.5917   21.5848 N   0  0  0  0  0  0  0  0  0  0  0  0
  -30.0796  -15.7004   21.4656 N   0  0  0  0  0  0  0  0  0  0  0  0
  -33.2528  -19.4523   22.0591 N   0  0  0  0  0  0  0  0  0  0  0  0
  -23.4118  -19.3961   18.4958 N   0  0  0  0  0  0  0  0  0  0  0  0
  -25.8120  -25.0443   21.4619 N   0  0  0  0  0  0  0  0  0  0  0  0
  -28.6265  -25.2699   23.7192 N   0  3  0  0  0  0  0  0  0  0  0  0
  -22.6621  -14.7292   21.2937 O   0  0  0  0  0  0  0  0  0  0  0  0
  -24.1770  -21.4579   17.7304 O   0  0  0  0  0  0  0  0  0  0  0  0
  -34.1666  -20.7357   19.6032 O   0  0  0  0  0  0  0  0  0  0  0  0
  -33.0648  -20.9291   16.6454 O   0  0  0  0  0  0  0  0  0  0  0  0
  -23.7681  -23.0672   21.1124 O   0  0  0  0  0  0  0  0  0  0  0  0
  -28.0778  -25.0488   20.9685 O   0  0  0  0  0  0  0  0  0  0  0  0
  -31.8600  -14.9348   20.1905 O   0  0  0  0  0  0  0  0  0  0  0  0
  -21.6078   -7.0295   21.7279 O   0  0  0  0  0  0  0  0  0  0  0  0
  -30.5895  -20.0574   17.0789 O   0  0  0  0  0  0  0  0  0  1  0  0
  -16.4525   -6.8316   19.7817 F   0  0  0  0  0  0  0  0  0  0  0  0
  -19.7240   -8.8956   22.5099 F   0  0  0  0  0  0  0  0  0  0  0  0
  -30.7566  -19.2260   23.0870 S   0  0  0  0  0  0  0  0  0  0  0  0
  1  2  1  0  0  0  0
  1  5  2  0  0  0  0
  2  6  2  0  0  0  0
  3  8  2  0  0  0  0
  3 16  1  0  0  0  0
  4  9  1  0  0  0  0
  4 16  2  0  0  0  0
  5 18  1  0  0  0  0
  6 20  1  0  0  0  0
  7 10  2  0  0  0  0
  7 19  1  0  0  0  0
  8 23  1  0  0  0  0
  9 23  2  0  0  0  0
 10 24  1  0  0  0  0
 11 12  2  0  0  0  0
 11 25  1  0  0  0  0
 12 26  1  0  0  0  0
 13 21  1  0  0  0  0
 13 24  2  0  0  0  0
 14 22  1  0  0  0  0
 14 31  2  0  0  0  0
 15 26  2  0  0  0  0
 15 27  1  0  0  0  0
 16 28  1  0  0  0  0
 17 28  1  0  0  0  0
 17 30  2  0  0  0  0
 17 32  1  0  0  0  0
 18 20  2  0  0  0  0
 18 39  1  0  0  0  0
 19 21  2  0  0  0  0
 19 40  1  0  0  0  0
 20 48  1  0  0  0  0
 21 41  1  0  0  0  0
 22 29  2  0  0  0  0
 22 73  1  0  0  0  0
 23 85  1  0  0  0  0
 24 86  1  0  0  0  0
 25 27  2  0  0  0  0
 25 85  1  0  0  0  0
 26 87  1  0  0  0  0
 27 88  1  0  0  0  0
 28 67  2  0  0  0  0
 29 59  1  0  0  0  0
 29 89  1  0  0  0  0
 30 68  1  0  0  0  0
 30 71  1  0  0  0  0
 31 74  1  0  0  0  0
 31 89  1  0  0  0  0
 32 72  1  0  0  0  0
 32 78  2  0  0  0  0
 33 49  1  0  0  0  0
 33 75  1  0  0  0  0
 33 79  2  0  0  0  0
 34 60  1  0  0  0  0
 34 61  1  0  0  0  0
 34 80  2  0  0  0  0
 35 62  1  0  0  0  0
 35 65  1  0  0  0  0
 35 81  2  0  0  0  0
 36 63  1  0  0  0  0
 36 69  1  0  0  0  0
 36 82  2  0  0  0  0
 37 64  1  0  0  0  0
 37 76  1  0  0  0  0
 37 83  2  0  0  0  0
 38 70  1  0  0  0  0
 38 73  1  0  0  0  0
 38 84  2  0  0  0  0
 39 42  1  0  0  0  0
 40 49  1  0  0  0  0
 41 69  1  0  0  0  0
 42 44  1  0  0  0  0
 43 45  1  0  0  0  0
 43 46  1  0  0  0  0
 44 48  1  0  0  0  0
 45 50  1  0  0  0  0
 46 70  1  0  0  0  0
 47 50  1  0  0  0  0
 47 70  1  0  0  0  0
 48 75  1  0  0  0  0
 49 69  1  0  0  0  0
 50 68  1  0  0  0  0
 51 59  1  0  0  0  0
 52 64  1  0  0  0  0
 53 65  1  0  0  0  0
 54 65  1  0  0  0  0
 55 66  1  0  0  0  0
 56 66  1  0  0  0  0
 57 66  1  0  0  0  0
 58 77  1  0  0  0  0
 60 65  1  0  0  0  0
 61 74  1  0  0  0  0
 62 86  1  0  0  0  0
 63 66  1  0  0  0  0
 63 76  1  0  0  0  0
 64 77  1  0  0  0  0
 67 68  1  0  0  0  0
M  CHG  1  77   1
M  ISO  4  38 100  62 101  73 100  86 101
M  END
> <Batch ID>
0145

> <Smiles>
CCc1sc(NCC(=O)CC(C)(C)C(=O)[101CH2:1][101O:1]c2ccc3c(c2)CN(C(=O)C(NC(=O)C(C)NC)C(C)(C)C)C(C(=O)NC2CCCc4ccccc42)C3)cc1[100NH:0][100C:0](=O)N1CCCC(n2nc(-c3ccc(Oc4ccc(F)cc4F)cc3)c(C(N)=O)c2N)C1

> <Shape>
0.184

> <Color>
0.180

> <Negative vol penalty>
0.000

$$$$

  -OEChem-04052303073D

 87 96  0     1  0  0  0  0  0999 V2000
  -19.3918  -33.7387   24.8960 C   0  0  0  0  0  0  0  0  0  0  0  0
  -20.7032  -33.6910   24.4340 C   0  0  0  0  0  0  0  0  0  0  0  0
  -24.1628  -14.1990   18.3611 C   0  0  0  0  0  0  0  0  0  0  0  0
  -25.6063  -15.3886   19.8903 C   0  0  0  0  0  0  0  0  0  0  0  0
  -18.6910  -32.5552   25.1245 C   0  0  0  0  0  0  0  0  0  0  0  0
  -21.3149  -32.4598   24.2011 C   0  0  0  0  0  0  0  0  0  0  0  0
  -26.0980  -29.3300   19.8833 C   0  0  0  0  0  0  0  0  0  0  0  0
  -24.5324  -12.9908   18.9521 C   0  0  0  0  0  0  0  0  0  0  0  0
  -25.9759  -14.1804   20.4813 C   0  0  0  0  0  0  0  0  0  0  0  0
  -27.2595  -28.5610   19.9405 C   0  0  0  0  0  0  0  0  0  0  0  0
  -23.7631  -11.2454   21.7440 C   0  0  0  0  0  0  0  0  0  0  0  0
  -22.7519  -10.3294   22.0338 C   0  0  0  0  0  0  0  0  0  0  0  0
  -29.8416  -21.9247   17.5434 C   0  0  0  0  0  0  0  0  0  0  0  0
  -32.0111  -22.7723   16.9019 C   0  0  0  0  0  0  0  0  0  0  0  0
  -25.9250  -26.5828   20.2947 C   0  0  0  0  0  0  0  0  0  0  0  0
  -30.4445  -22.0565   15.2076 C   0  0  0  0  0  0  0  0  0  0  0  0
  -23.8062   -8.7075   20.5864 C   0  0  0  0  0  0  0  0  0  0  0  0
  -24.6998  -15.3979   18.8302 C   0  0  0  0  0  0  0  0  0  0  0  0
  -31.0870  -22.4458   17.8943 C   0  0  0  0  0  0  0  0  0  0  0  0
  -23.2446  -17.4789   18.5863 C   0  0  0  0  0  0  0  0  0  0  0  0
  -19.2912  -31.3090   24.8851 C   0  0  0  0  0  0  0  0  0  0  0  0
  -24.8397  -28.7319   20.0426 C   0  0  0  0  0  0  0  0  0  0  0  0
  -20.6219  -31.2585   24.4278 C   0  0  0  0  0  0  0  0  0  0  0  0
  -24.7490  -27.3461   20.2366 C   0  0  0  0  0  0  0  0  0  0  0  0
  -29.5204  -21.7300   16.2001 C   0  0  0  0  0  0  0  0  0  0  0  0
  -25.4389  -12.9815   20.0122 C   0  0  0  0  0  0  0  0  0  0  0  0
  -27.1733  -27.1876   20.1491 C   0  0  0  0  0  0  0  0  0  0  0  0
  -24.7959  -10.8925   20.8754 C   0  0  0  0  0  0  0  0  0  0  0  0
  -22.7734   -9.0605   21.4550 C   0  0  0  0  0  0  0  0  0  0  0  0
  -31.6899  -22.5777   15.5585 C   0  0  0  0  0  0  0  0  0  0  0  0
  -24.8175   -9.6236   20.2966 C   0  0  0  0  0  0  0  0  0  0  0  0
  -24.3189  -16.6462   18.2197 C   0  0  0  0  0  0  0  0  0  0  0  0
  -23.3104  -18.5316   17.7066 C   0  0  0  0  0  0  0  0  0  0  0  0
  -31.4274  -22.6505   19.3136 C   0  0  0  0  0  0  0  0  0  0  0  0
  -22.2741  -17.3155   19.6289 C   0  0  0  0  0  0  0  0  0  0  0  0
  -22.4675  -29.0213   22.1384 C   0  0  0  0  0  0  0  0  0  0  0  0
  -20.9413  -27.0122   20.0996 C   0  0  0  0  0  0  0  0  0  0  0  0
  -21.1698  -24.6184   17.6780 C   0  0  0  0  0  0  0  0  0  0  0  0
  -27.7777  -20.9472   14.5580 C   0  0  0  0  0  0  0  0  0  0  0  0
  -18.5097  -30.0560   25.1917 C   0  0  0  0  0  0  0  0  0  0  0  0
  -23.5950  -29.5714   19.9516 C   0  0  0  0  0  0  0  0  0  0  0  0
  -23.4212  -26.6525   20.3931 C   0  0  0  0  0  0  0  0  0  0  0  0
  -19.1041  -28.7983   24.5632 C   0  0  0  0  0  0  0  0  0  0  0  0
  -24.7380  -19.6174   13.2661 C   0  0  0  0  0  0  0  0  0  0  0  0
  -20.6108  -28.7464   24.7953 C   0  0  0  0  0  0  0  0  0  0  0  0
  -24.1847  -18.7852   14.4253 C   0  0  0  0  0  0  0  0  0  0  0  0
  -30.6945  -25.4098   21.5288 C   0  0  0  0  0  0  0  0  0  0  0  0
  -26.2613  -19.5356   13.1857 C   0  0  0  0  0  0  0  0  0  0  0  0
  -31.4465  -24.1035   21.2962 C   0  0  0  0  0  0  0  0  0  0  0  0
  -26.4138  -19.0269   15.5913 C   0  0  0  0  0  0  0  0  0  0  0  0
  -30.4999  -24.9275   19.1822 C   0  0  0  0  0  0  0  0  0  0  0  0
  -21.3115  -29.9426   24.1398 C   0  0  1  0  0  0  0  0  0  0  0  0
  -22.3924  -28.9335   20.6403 C   0  0  1  0  0  0  0  0  0  0  0  0
  -24.8884  -19.1299   15.7526 C   0  0  2  0  0  0  0  0  0  0  0  0
  -30.6900  -26.1060   20.1547 C   0  0  2  0  0  0  0  0  0  0  0  0
  -32.0282  -26.8152   19.8920 C   0  0  0  0  0  0  0  0  0  0  0  0
  -19.7509  -23.1384   16.2309 C   0  0  0  0  0  0  0  0  0  0  0  0
  -20.3962  -25.1992   22.4925 C   0  0  0  0  0  0  0  0  0  0  0  0
  -19.8508  -23.3587   20.8853 C   0  0  0  0  0  0  0  0  0  0  0  0
  -18.4766  -25.4405   20.9078 C   0  0  0  0  0  0  0  0  0  0  0  0
  -22.2307  -25.8320   15.1959 C   0  0  0  0  0  0  0  0  0  0  0  0
  -29.5481  -27.1172   20.0438 C   0  0  0  0  0  0  0  0  0  1  0  0
  -20.8215  -25.5133   19.9654 C   0  0  1  0  0  0  0  0  0  0  0  0
  -20.4734  -24.4724   16.3370 C   0  0  2  0  0  0  0  0  0  0  0  0
  -19.9115  -24.8910   21.0618 C   0  0  0  0  0  0  0  0  0  0  0  0
  -25.0160  -17.1283   17.1874 N   0  0  0  0  0  0  0  0  0  0  0  0
  -24.3783  -18.2753   16.8978 N   0  0  0  0  0  0  0  0  0  0  0  0
  -31.1458  -23.8057   19.8882 N   0  0  0  0  0  0  0  0  0  0  0  0
  -22.2333  -27.5175   20.3030 N   0  0  0  0  0  0  0  0  0  0  0  0
  -26.8591  -19.8792   14.4778 N   0  0  0  0  0  0  0  0  0  0  0  0
  -22.5584  -19.6422   17.5536 N   0  0  0  0  0  0  0  0  0  0  0  0
  -22.3516  -16.1759   20.4412 N   0  0  0  0  0  0  0  0  0  0  0  0
  -28.2548  -21.2020   15.8433 N   0  0  0  0  0  0  0  0  0  0  0  0
  -21.4340  -29.7366   22.7126 N   0  0  0  0  0  0  0  0  0  0  0  0
  -20.3714  -25.2603   18.6009 N   0  0  0  0  0  0  0  0  0  0  0  0
  -32.0112  -21.6682   19.9937 N   0  3  0  0  0  0  0  0  0  0  0  0
  -21.4637  -24.5601   15.2268 N   0  3  0  0  0  0  0  0  0  0  0  0
  -21.3553  -18.1469   19.8237 O   0  0  0  0  0  0  0  0  0  0  0  0
  -23.3937  -28.4788   22.7297 O   0  0  0  0  0  0  0  0  0  0  0  0
  -19.9270  -27.7095   20.0196 O   0  0  0  0  0  0  0  0  0  0  0  0
  -22.3067  -24.2010   17.8870 O   0  0  0  0  0  0  0  0  0  0  0  0
  -28.0953  -21.6060   13.5644 O   0  0  0  0  0  0  0  0  0  0  0  0
  -25.7996  -11.8027   20.5893 O   0  0  0  0  0  0  0  0  0  0  0  0
  -28.3054  -26.4347   20.2059 O   0  0  0  0  0  0  0  0  0  1  0  0
  -21.8031   -8.1805   21.7345 F   0  0  0  0  0  0  0  0  0  0  0  0
  -32.5774  -22.8911   14.6055 F   0  0  0  0  0  0  0  0  0  0  0  0
  -25.8077   -9.2784   19.4623 F   0  0  0  0  0  0  0  0  0  0  0  0
  1  2  1  0  0  0  0
  1  5  2  0  0  0  0
  2  6  2  0  0  0  0
  3  8  2  0  0  0  0
  3 18  1  0  0  0  0
  4  9  1  0  0  0  0
  4 18  2  0  0  0  0
  5 21  1  0  0  0  0
  6 23  1  0  0  0  0
  7 10  2  0  0  0  0
  7 22  1  0  0  0  0
  8 26  1  0  0  0  0
  9 26  2  0  0  0  0
 10 27  1  0  0  0  0
 11 12  2  0  0  0  0
 11 28  1  0  0  0  0
 12 29  1  0  0  0  0
 13 19  2  0  0  0  0
 13 25  1  0  0  0  0
 14 19  1  0  0  0  0
 14 30  2  0  0  0  0
 15 24  1  0  0  0  0
 15 27  2  0  0  0  0
 16 25  2  0  0  0  0
 16 30  1  0  0  0  0
 17 29  2  0  0  0  0
 17 31  1  0  0  0  0
 18 32  1  0  0  0  0
 19 34  1  0  0  0  0
 20 32  1  0  0  0  0
 20 33  2  0  0  0  0
 20 35  1  0  0  0  0
 21 23  2  0  0  0  0
 21 40  1  0  0  0  0
 22 24  2  0  0  0  0
 22 41  1  0  0  0  0
 23 52  1  0  0  0  0
 24 42  1  0  0  0  0
 25 73  1  0  0  0  0
 26 83  1  0  0  0  0
 27 84  1  0  0  0  0
 28 31  2  0  0  0  0
 28 83  1  0  0  0  0
 29 85  1  0  0  0  0
 30 86  1  0  0  0  0
 31 87  1  0  0  0  0
 32 66  2  0  0  0  0
 33 67  1  0  0  0  0
 33 71  1  0  0  0  0
 34 68  1  0  0  0  0
 34 76  2  0  0  0  0
 35 72  1  0  0  0  0
 35 78  2  0  0  0  0
 36 53  1  0  0  0  0
 36 74  1  0  0  0  0
 36 79  2  0  0  0  0
 37 63  1  0  0  0  0
 37 69  1  0  0  0  0
 37 80  2  0  0  0  0
 38 64  1  0  0  0  0
 38 75  1  0  0  0  0
 38 81  2  0  0  0  0
 39 70  1  0  0  0  0
 39 73  1  0  0  0  0
 39 82  2  0  0  0  0
 40 43  1  0  0  0  0
 41 53  1  0  0  0  0
 42 69  1  0  0  0  0
 43 45  1  0  0  0  0
 44 46  1  0  0  0  0
 44 48  1  0  0  0  0
 45 52  1  0  0  0  0
 46 54  1  0  0  0  0
 47 49  1  0  0  0  0
 47 55  1  0  0  0  0
 48 70  1  0  0  0  0
 49 68  1  0  0  0  0
 50 54  1  0  0  0  0
 50 70  1  0  0  0  0
 51 55  1  0  0  0  0
 51 68  1  0  0  0  0
 52 74  1  0  0  0  0
 53 69  1  0  0  0  0
 54 67  1  0  0  0  0
 55 56  1  0  0  0  0
 55 62  1  0  0  0  0
 57 64  1  0  0  0  0
 58 65  1  0  0  0  0
 59 65  1  0  0  0  0
 60 65  1  0  0  0  0
 61 77  1  0  0  0  0
 62 84  1  0  0  0  0
 63 65  1  0  0  0  0
 63 75  1  0  0  0  0
 64 77  1  0  0  0  0
 66 67  1  0  0  0  0
M  CHG  2  76   1  77   1
M  ISO  4  39 100  62 101  73 100  84 101
M  END
> <Batch ID>
0145

> <Smiles>
CNC(C)C(=O)NC(C(=O)N1Cc2cc([101O:1][101CH2:1]C3(C)CCN(C(=N)c4cc(F)cc([100NH:0][100C:0](=O)N5CCCC(n6nc(-c7ccc(Oc8ccc(F)cc8F)cc7)c(C(N)=O)c6N)C5)c4)C3)ccc2CC1C(=O)NC1CCCc2ccccc21)C(C)(C)C

> <Shape>
0.188

> <Color>
0.087

> <Negative vol penalty>
0.000

$$$$

  -OEChem-04052303073D

 89 98  0     1  0  0  0  0  0999 V2000
  -16.5720  -29.9071   24.3242 C   0  0  0  0  0  0  0  0  0  0  0  0
  -17.4901  -29.0847   24.9693 C   0  0  0  0  0  0  0  0  0  0  0  0
  -22.8590  -10.2175   20.0117 C   0  0  0  0  0  0  0  0  0  0  0  0
  -23.7226  -10.0478   22.2617 C   0  0  0  0  0  0  0  0  0  0  0  0
  -16.5859  -30.0091   22.9337 C   0  0  0  0  0  0  0  0  0  0  0  0
  -18.4219  -28.3629   24.2242 C   0  0  0  0  0  0  0  0  0  0  0  0
  -25.1381  -25.8948   24.5665 C   0  0  0  0  0  0  0  0  0  0  0  0
  -22.0183   -9.1308   20.2524 C   0  0  0  0  0  0  0  0  0  0  0  0
  -22.8818   -8.9611   22.5024 C   0  0  0  0  0  0  0  0  0  0  0  0
  -25.8607  -24.7129   24.4084 C   0  0  0  0  0  0  0  0  0  0  0  0
  -19.6229   -8.4499   23.2361 C   0  0  0  0  0  0  0  0  0  0  0  0
  -18.9213   -8.4298   24.4415 C   0  0  0  0  0  0  0  0  0  0  0  0
  -32.6134  -17.6253   24.1623 C   0  0  0  0  0  0  0  0  0  0  0  0
  -30.5146  -16.9679   23.1625 C   0  0  0  0  0  0  0  0  0  0  0  0
  -25.8423  -25.0286   22.0169 C   0  0  0  0  0  0  0  0  0  0  0  0
  -32.5753  -15.9406   22.4310 C   0  0  0  0  0  0  0  0  0  0  0  0
  -20.0002   -6.3510   25.0346 C   0  0  0  0  0  0  0  0  0  0  0  0
  -23.7112  -10.6760   21.0163 C   0  0  0  0  0  0  0  0  0  0  0  0
  -31.2269  -17.7486   24.0728 C   0  0  0  0  0  0  0  0  0  0  0  0
  -24.2927  -13.1596   20.9814 C   0  0  0  0  0  0  0  0  0  0  0  0
  -17.5246  -29.2957   22.1718 C   0  0  0  0  0  0  0  0  0  0  0  0
  -24.7522  -26.6480   23.4484 C   0  0  0  0  0  0  0  0  0  0  0  0
  -18.4475  -28.4544   22.8222 C   0  0  0  0  0  0  0  0  0  0  0  0
  -25.1171  -26.2209   22.1636 C   0  0  0  0  0  0  0  0  0  0  0  0
  -33.2876  -16.7213   23.3413 C   0  0  0  0  0  0  0  0  0  0  0  0
  -31.1888  -16.0639   22.3416 C   0  0  0  0  0  0  0  0  0  0  0  0
  -22.0297   -8.5026   21.4978 C   0  0  0  0  0  0  0  0  0  0  0  0
  -26.2104  -24.2782   23.1334 C   0  0  0  0  0  0  0  0  0  0  0  0
  -20.5130   -7.4206   22.9299 C   0  0  0  0  0  0  0  0  0  0  0  0
  -19.1100   -7.3803   25.3408 C   0  0  0  0  0  0  0  0  0  0  0  0
  -20.7017   -6.3711   23.8292 C   0  0  0  0  0  0  0  0  0  0  0  0
  -24.5803  -11.7981   20.7681 C   0  0  0  0  0  0  0  0  0  0  0  0
  -25.4348  -13.8166   20.5935 C   0  0  0  0  0  0  0  0  0  0  0  0
  -30.5149  -18.7036   24.9408 C   0  0  0  0  0  0  0  0  0  0  0  0
  -23.0999  -13.7753   21.4851 C   0  0  0  0  0  0  0  0  0  0  0  0
  -21.9698  -27.5333   22.1919 C   0  0  0  0  0  0  0  0  0  0  0  0
  -23.8622  -29.2488   20.1923 C   0  0  0  0  0  0  0  0  0  0  0  0
  -26.9187  -29.6482   18.7276 C   0  0  0  0  0  0  0  0  0  0  0  0
  -30.9792  -14.3246   20.5312 C   0  0  0  0  0  0  0  0  0  0  0  0
  -17.4702  -29.4014   20.6683 C   0  0  0  0  0  0  0  0  0  0  0  0
  -23.9961  -27.9345   23.6373 C   0  0  0  0  0  0  0  0  0  0  0  0
  -24.7445  -27.0038   20.9321 C   0  0  0  0  0  0  0  0  0  0  0  0
  -18.7323  -28.8934   19.9760 C   0  0  0  0  0  0  0  0  0  0  0  0
  -29.5240  -12.1383   18.1271 C   0  0  0  0  0  0  0  0  0  0  0  0
  -19.1566  -27.5490   20.5587 C   0  0  0  0  0  0  0  0  0  0  0  0
  -28.0845  -11.9669   18.6174 C   0  0  0  0  0  0  0  0  0  0  0  0
  -29.3168  -21.5047   22.9923 C   0  0  0  0  0  0  0  0  0  0  0  0
  -30.5125  -12.2237   19.2888 C   0  0  0  0  0  0  0  0  0  0  0  0
  -30.1846  -20.2566   23.0877 C   0  0  0  0  0  0  0  0  0  0  0  0
  -28.7524  -13.0644   20.7938 C   0  0  0  0  0  0  0  0  0  0  0  0
  -19.4898  -27.6748   22.0503 C   0  0  1  0  0  0  0  0  0  0  0  0
  -23.2115  -28.3540   22.3981 C   0  0  1  0  0  0  0  0  0  0  0  0
  -27.7132  -13.0386   19.6611 C   0  0  2  0  0  0  0  0  0  0  0  0
  -28.0343  -21.1413   23.7713 C   0  0  2  0  0  0  0  0  0  0  0  0
  -28.6049  -20.3317   24.9966 C   0  0  0  0  0  0  0  0  0  0  0  0
  -34.7702  -16.5888   23.4376 C   0  0  0  0  0  0  0  0  0  0  0  0
  -27.1181  -20.2932   22.8602 C   0  0  0  0  0  0  0  0  0  0  0  0
  -27.6359  -19.2799   25.5458 C   0  0  0  0  0  0  0  0  0  0  0  0
  -29.1070  -21.2167   26.1503 C   0  0  0  0  0  0  0  0  0  0  0  0
  -28.1511  -31.1193   17.1108 C   0  0  0  0  0  0  0  0  0  0  0  0
  -22.4069  -27.9100   17.8686 C   0  0  0  0  0  0  0  0  0  0  0  0
  -24.2621  -28.6615   16.3648 C   0  0  0  0  0  0  0  0  0  0  0  0
  -22.8587  -30.3491   17.5503 C   0  0  0  0  0  0  0  0  0  0  0  0
  -28.8937  -30.4482   20.7815 C   0  0  0  0  0  0  0  0  0  0  0  0
  -27.2631  -22.4096   24.1611 C   0  0  0  0  0  0  0  0  0  1  0  0
  -24.5322  -28.9847   18.8655 C   0  0  1  0  0  0  0  0  0  0  0  0
  -27.8090  -30.8678   18.5711 C   0  0  2  0  0  0  0  0  0  0  0  0
  -23.5205  -28.9603   17.6852 C   0  0  0  0  0  0  0  0  0  0  0  0
  -25.8087  -11.6005   20.2823 N   0  0  0  0  0  0  0  0  0  0  0  0
  -26.3031  -12.8465   20.1870 N   0  0  0  0  0  0  0  0  0  0  0  0
  -29.8075  -19.6791   24.3918 N   0  0  0  0  0  0  0  0  0  0  0  0
  -24.0000  -28.2517   21.1684 N   0  0  0  0  0  0  0  0  0  0  0  0
  -30.0989  -13.2626   20.2346 N   0  0  0  0  0  0  0  0  0  0  0  0
  -25.7709  -15.1237   20.5638 N   0  0  0  0  0  0  0  0  0  0  0  0
  -22.0207  -12.9529   21.8365 N   0  0  0  0  0  0  0  0  0  0  0  0
  -30.4646  -15.2694   21.4184 N   0  0  0  0  0  0  0  0  0  0  0  0
  -20.7988  -28.2660   22.2276 N   0  0  0  0  0  0  0  0  0  0  0  0
  -25.5825  -29.9885   18.7317 N   0  0  0  0  0  0  0  0  0  0  0  0
  -30.5926  -18.5694   26.2615 N   0  3  0  0  0  0  0  0  0  0  0  0
  -29.0802  -30.6815   19.3263 N   0  3  0  0  0  0  0  0  0  0  0  0
  -22.9882  -15.0190   21.6042 O   0  0  0  0  0  0  0  0  0  0  0  0
  -22.0672  -26.3250   22.0122 O   0  0  0  0  0  0  0  0  0  0  0  0
  -23.2456  -30.3041   20.3590 O   0  0  0  0  0  0  0  0  0  0  0  0
  -27.3639  -28.5074   18.8319 O   0  0  0  0  0  0  0  0  0  0  0  0
  -32.0963  -14.4053   20.0138 O   0  0  0  0  0  0  0  0  0  0  0  0
  -21.2093   -7.4424   21.7331 O   0  0  0  0  0  0  0  0  0  0  0  0
  -26.9150  -23.1246   22.9762 O   0  0  0  0  0  0  0  0  0  1  0  0
  -18.4374   -7.3619   26.4990 F   0  0  0  0  0  0  0  0  0  0  0  0
  -21.5564   -5.3800   23.5410 F   0  0  0  0  0  0  0  0  0  0  0  0
  1  2  1  0  0  0  0
  1  5  2  0  0  0  0
  2  6  2  0  0  0  0
  3  8  2  0  0  0  0
  3 18  1  0  0  0  0
  4  9  1  0  0  0  0
  4 18  2  0  0  0  0
  5 21  1  0  0  0  0
  6 23  1  0  0  0  0
  7 10  2  0  0  0  0
  7 22  1  0  0  0  0
  8 27  1  0  0  0  0
  9 27  2  0  0  0  0
 10 28  1  0  0  0  0
 11 12  2  0  0  0  0
 11 29  1  0  0  0  0
 12 30  1  0  0  0  0
 13 19  1  0  0  0  0
 13 25  2  0  0  0  0
 14 19  2  0  0  0  0
 14 26  1  0  0  0  0
 15 24  1  0  0  0  0
 15 28  2  0  0  0  0
 16 25  1  0  0  0  0
 16 26  2  0  0  0  0
 17 30  2  0  0  0  0
 17 31  1  0  0  0  0
 18 32  1  0  0  0  0
 19 34  1  0  0  0  0
 20 32  1  0  0  0  0
 20 33  2  0  0  0  0
 20 35  1  0  0  0  0
 21 23  2  0  0  0  0
 21 40  1  0  0  0  0
 22 24  2  0  0  0  0
 22 41  1  0  0  0  0
 23 51  1  0  0  0  0
 24 42  1  0  0  0  0
 25 56  1  0  0  0  0
 26 76  1  0  0  0  0
 27 86  1  0  0  0  0
 28 87  1  0  0  0  0
 29 31  2  0  0  0  0
 29 86  1  0  0  0  0
 30 88  1  0  0  0  0
 31 89  1  0  0  0  0
 32 69  2  0  0  0  0
 33 70  1  0  0  0  0
 33 74  1  0  0  0  0
 34 71  1  0  0  0  0
 34 79  2  0  0  0  0
 35 75  1  0  0  0  0
 35 81  2  0  0  0  0
 36 52  1  0  0  0  0
 36 77  1  0  0  0  0
 36 82  2  0  0  0  0
 37 66  1  0  0  0  0
 37 72  1  0  0  0  0
 37 83  2  0  0  0  0
 38 67  1  0  0  0  0
 38 78  1  0  0  0  0
 38 84  2  0  0  0  0
 39 73  1  0  0  0  0
 39 76  1  0  0  0  0
 39 85  2  0  0  0  0
 40 43  1  0  0  0  0
 41 52  1  0  0  0  0
 42 72  1  0  0  0  0
 43 45  1  0  0  0  0
 44 46  1  0  0  0  0
 44 48  1  0  0  0  0
 45 51  1  0  0  0  0
 46 53  1  0  0  0  0
 47 49  1  0  0  0  0
 47 54  1  0  0  0  0
 48 73  1  0  0  0  0
 49 71  1  0  0  0  0
 50 53  1  0  0  0  0
 50 73  1  0  0  0  0
 51 77  1  0  0  0  0
 52 72  1  0  0  0  0
 53 70  1  0  0  0  0
 54 55  1  0  0  0  0
 54 57  1  0  0  0  0
 54 65  1  0  0  0  0
 55 58  1  0  0  0  0
 55 59  1  0  0  0  0
 55 71  1  0  0  0  0
 60 67  1  0  0  0  0
 61 68  1  0  0  0  0
 62 68  1  0  0  0  0
 63 68  1  0  0  0  0
 64 80  1  0  0  0  0
 65 87  1  0  0  0  0
 66 68  1  0  0  0  0
 66 78  1  0  0  0  0
 67 80  1  0  0  0  0
 69 70  1  0  0  0  0
M  CHG  2  79   1  80   1
M  ISO  4  39 100  65 101  76 100  87 101
M  END
> <Batch ID>
0145

> <Smiles>
CNC(C)C(=O)NC(C(=O)N1Cc2cc([101O:1][101CH2:1]C3(C)CCN(C(=N)c4cc(C)cc([100NH:0][100C:0](=O)N5CCCC(n6nc(-c7ccc(Oc8ccc(F)cc8F)cc7)c(C(N)=O)c6N)C5)c4)C3(C)C)ccc2CC1C(=O)NC1CCCc2ccccc21)C(C)(C)C

> <Shape>
0.258

> <Color>
0.185

> <Negative vol penalty>
0.000

$$$$

  -OEChem-04052303073D

 85 93  0     1  0  0  0  0  0999 V2000
  -24.7262  -35.6639   22.8692 C   0  0  0  0  0  0  0  0  0  0  0  0
  -25.5054  -34.5335   22.6445 C   0  0  0  0  0  0  0  0  0  0  0  0
  -24.4248   -9.3938   21.5055 C   0  0  0  0  0  0  0  0  0  0  0  0
  -24.7561  -10.5171   23.6186 C   0  0  0  0  0  0  0  0  0  0  0  0
  -28.8488  -20.5816   18.5801 C   0  0  0  0  0  0  0  0  0  0  0  0
  -26.9861  -20.7757   20.1065 C   0  0  0  0  0  0  0  0  0  0  0  0
  -23.4712  -35.5373   23.4632 C   0  0  0  0  0  0  0  0  0  0  0  0
  -25.0303  -33.2758   23.0146 C   0  0  0  0  0  0  0  0  0  0  0  0
  -25.7969  -29.7785   19.4333 C   0  0  0  0  0  0  0  0  0  0  0  0
  -29.1620  -19.3346   19.1208 C   0  0  0  0  0  0  0  0  0  0  0  0
  -27.2993  -19.5286   20.6472 C   0  0  0  0  0  0  0  0  0  0  0  0
  -24.0840   -8.2223   22.1816 C   0  0  0  0  0  0  0  0  0  0  0  0
  -24.4153   -9.3457   24.2948 C   0  0  0  0  0  0  0  0  0  0  0  0
  -27.0831  -29.2520   19.3224 C   0  0  0  0  0  0  0  0  0  0  0  0
  -21.3845   -6.9669   23.7844 C   0  0  0  0  0  0  0  0  0  0  0  0
  -20.2668   -6.2622   23.3375 C   0  0  0  0  0  0  0  0  0  0  0  0
  -26.3845  -27.3010   20.5572 C   0  0  0  0  0  0  0  0  0  0  0  0
  -21.6558   -4.3333   22.9049 C   0  0  0  0  0  0  0  0  0  0  0  0
  -24.7609  -10.5412   22.2240 C   0  0  0  0  0  0  0  0  0  0  0  0
  -27.7609  -21.3023   19.0729 C   0  0  0  0  0  0  0  0  0  0  0  0
  -24.2447  -12.7801   21.1157 C   0  0  0  0  0  0  0  0  0  0  0  0
  -22.9764  -34.2764   23.8319 C   0  0  0  0  0  0  0  0  0  0  0  0
  -24.7960  -29.0739   20.1176 C   0  0  0  0  0  0  0  0  0  0  0  0
  -23.7680  -33.1324   23.6152 C   0  0  0  0  0  0  0  0  0  0  0  0
  -25.0857  -27.8195   20.6732 C   0  0  0  0  0  0  0  0  0  0  0  0
  -28.3872  -18.8081   20.1543 C   0  0  0  0  0  0  0  0  0  0  0  0
  -24.0792   -8.1983   23.5762 C   0  0  0  0  0  0  0  0  0  0  0  0
  -27.3778  -28.0144   19.8869 C   0  0  0  0  0  0  0  0  0  0  0  0
  -22.6379   -6.3548   23.7916 C   0  0  0  0  0  0  0  0  0  0  0  0
  -20.4024   -4.9455   22.8977 C   0  0  0  0  0  0  0  0  0  0  0  0
  -22.7735   -5.0380   23.3519 C   0  0  0  0  0  0  0  0  0  0  0  0
  -25.1137  -11.7514   21.5261 C   0  0  0  0  0  0  0  0  0  0  0  0
  -25.0631  -13.6962   20.5014 C   0  0  0  0  0  0  0  0  0  0  0  0
  -27.4291  -22.6231   18.5004 C   0  0  0  0  0  0  0  0  0  0  0  0
  -22.8246  -12.8971   21.2756 C   0  0  0  0  0  0  0  0  0  0  0  0
  -23.0245  -29.6313   22.6973 C   0  0  0  0  0  0  0  0  0  0  0  0
  -21.5543  -26.8814   21.8035 C   0  0  0  0  0  0  0  0  0  0  0  0
  -28.2132  -24.9440   18.0797 C   0  0  0  0  0  0  0  0  0  0  0  0
  -21.7267  -23.9202   20.1157 C   0  0  0  0  0  0  0  0  0  0  0  0
  -29.7503  -16.6968   20.3302 C   0  0  0  0  0  0  0  0  0  0  0  0
  -21.6338  -34.1945   24.5140 C   0  0  0  0  0  0  0  0  0  0  0  0
  -23.4065  -29.6433   20.2053 C   0  0  0  0  0  0  0  0  0  0  0  0
  -24.0414  -27.0140   21.4004 C   0  0  0  0  0  0  0  0  0  0  0  0
  -21.0460  -32.7858   24.5348 C   0  0  0  0  0  0  0  0  0  0  0  0
  -29.9151  -13.3599   19.0993 C   0  0  0  0  0  0  0  0  0  0  0  0
  -22.1022  -31.7730   24.9655 C   0  0  0  0  0  0  0  0  0  0  0  0
  -28.6092  -12.7286   19.5871 C   0  0  0  0  0  0  0  0  0  0  0  0
  -30.4920  -14.3340   20.1250 C   0  0  0  0  0  0  0  0  0  0  0  0
  -28.2557  -14.7406   21.0751 C   0  0  0  0  0  0  0  0  0  0  0  0
  -23.2770  -31.7482   23.9801 C   0  0  1  0  0  0  0  0  0  0  0  0
  -22.5998  -29.0739   21.3682 C   0  0  1  0  0  0  0  0  0  0  0  0
  -27.6027  -13.8009   20.0483 C   0  0  2  0  0  0  0  0  0  0  0  0
  -20.3807  -21.8665   19.5983 C   0  0  0  0  0  0  0  0  0  0  0  0
  -30.3773  -28.1210   18.2608 C   0  0  0  0  0  0  0  0  0  0  0  0
  -22.0681  -25.8370   24.6240 C   0  0  0  0  0  0  0  0  0  0  0  0
  -21.5873  -23.5288   23.7819 C   0  0  0  0  0  0  0  0  0  0  0  0
  -19.8121  -25.2794   23.7000 C   0  0  0  0  0  0  0  0  0  0  0  0
  -21.8161  -24.4534   17.2060 C   0  0  0  0  0  0  0  0  0  0  0  0
  -29.4501  -25.7825   18.3148 C   0  0  0  0  0  0  0  0  0  0  0  0
  -21.7613  -25.4148   22.0955 C   0  0  1  0  0  0  0  0  0  0  0  0
  -20.7716  -23.2618   19.1366 C   0  0  2  0  0  0  0  0  0  0  0  0
  -29.1312  -27.2693   18.4634 C   0  0  1  0  0  0  0  0  0  1  0  0
  -21.3276  -25.0308   23.5384 C   0  0  0  0  0  0  0  0  0  0  0  0
  -26.3865  -11.9909   21.1998 N   0  0  0  0  0  0  0  0  0  0  0  0
  -26.3234  -13.1805   20.5779 N   0  0  0  0  0  0  0  0  0  0  0  0
  -22.6995  -27.6161   21.4650 N   0  0  0  0  0  0  0  0  0  0  0  0
  -29.4837  -15.3232   20.5118 N   0  0  0  0  0  0  0  0  0  0  0  0
  -24.8204  -14.8845   19.9086 N   0  0  0  0  0  0  0  0  0  0  0  0
  -22.1388  -11.8653   21.9308 N   0  0  0  0  0  0  0  0  0  0  0  0
  -28.7053  -17.5413   20.7036 N   0  0  0  0  0  0  0  0  0  0  0  0
  -28.3530  -23.5915   18.5694 N   0  0  0  0  0  0  0  0  0  0  0  0
  -22.9223  -31.0063   22.7893 N   0  0  0  0  0  0  0  0  0  0  0  0
  -21.0567  -24.6863   21.0460 N   0  0  0  0  0  0  0  0  0  0  0  0
  -26.2272  -22.7742   17.9448 N   0  3  0  0  0  0  0  0  0  0  0  0
  -21.4031  -23.1520   17.7913 N   0  3  0  0  0  0  0  0  0  0  0  0
  -22.1808  -13.8796   20.8356 O   0  0  0  0  0  0  0  0  0  0  0  0
  -23.4146  -28.8702   23.5749 O   0  0  0  0  0  0  0  0  0  0  0  0
  -20.4175  -27.3559   21.8663 O   0  0  0  0  0  0  0  0  0  0  0  0
  -27.1864  -25.3251   17.5372 O   0  0  0  0  0  0  0  0  0  0  0  0
  -22.9451  -23.7671   20.0629 O   0  0  0  0  0  0  0  0  0  0  0  0
  -30.8159  -17.0933   19.8515 O   0  0  0  0  0  0  0  0  0  0  0  0
  -23.7465   -7.0554   24.2363 O   0  0  0  0  0  0  0  0  0  0  0  0
  -28.6326  -27.4986   19.7806 O   0  0  0  0  0  0  0  0  0  1  0  0
  -19.3287   -4.2684   22.4700 F   0  0  0  0  0  0  0  0  0  0  0  0
  -23.9748   -4.4442   23.3575 F   0  0  0  0  0  0  0  0  0  0  0  0
  1  2  1  0  0  0  0
  1  7  2  0  0  0  0
  2  8  2  0  0  0  0
  3 12  2  0  0  0  0
  3 19  1  0  0  0  0
  4 13  1  0  0  0  0
  4 19  2  0  0  0  0
  5 10  2  0  0  0  0
  5 20  1  0  0  0  0
  6 11  1  0  0  0  0
  6 20  2  0  0  0  0
  7 22  1  0  0  0  0
  8 24  1  0  0  0  0
  9 14  2  0  0  0  0
  9 23  1  0  0  0  0
 10 26  1  0  0  0  0
 11 26  2  0  0  0  0
 12 27  1  0  0  0  0
 13 27  2  0  0  0  0
 14 28  1  0  0  0  0
 15 16  2  0  0  0  0
 15 29  1  0  0  0  0
 16 30  1  0  0  0  0
 17 25  1  0  0  0  0
 17 28  2  0  0  0  0
 18 30  2  0  0  0  0
 18 31  1  0  0  0  0
 19 32  1  0  0  0  0
 20 34  1  0  0  0  0
 21 32  1  0  0  0  0
 21 33  2  0  0  0  0
 21 35  1  0  0  0  0
 22 24  2  0  0  0  0
 22 41  1  0  0  0  0
 23 25  2  0  0  0  0
 23 42  1  0  0  0  0
 24 50  1  0  0  0  0
 25 43  1  0  0  0  0
 26 70  1  0  0  0  0
 27 82  1  0  0  0  0
 28 83  1  0  0  0  0
 29 31  2  0  0  0  0
 29 82  1  0  0  0  0
 30 84  1  0  0  0  0
 31 85  1  0  0  0  0
 32 64  2  0  0  0  0
 33 65  1  0  0  0  0
 33 68  1  0  0  0  0
 34 71  1  0  0  0  0
 34 74  2  0  0  0  0
 35 69  1  0  0  0  0
 35 76  2  0  0  0  0
 36 51  1  0  0  0  0
 36 72  1  0  0  0  0
 36 77  2  0  0  0  0
 37 60  1  0  0  0  0
 37 66  1  0  0  0  0
 37 78  2  0  0  0  0
 38 59  1  0  0  0  0
 38 71  1  0  0  0  0
 38 79  2  0  0  0  0
 39 61  1  0  0  0  0
 39 73  1  0  0  0  0
 39 80  2  0  0  0  0
 40 67  1  0  0  0  0
 40 70  1  0  0  0  0
 40 81  2  0  0  0  0
 41 44  1  0  0  0  0
 42 51  1  0  0  0  0
 43 66  1  0  0  0  0
 44 46  1  0  0  0  0
 45 47  1  0  0  0  0
 45 48  1  0  0  0  0
 46 50  1  0  0  0  0
 47 52  1  0  0  0  0
 48 67  1  0  0  0  0
 49 52  1  0  0  0  0
 49 67  1  0  0  0  0
 50 72  1  0  0  0  0
 51 66  1  0  0  0  0
 52 65  1  0  0  0  0
 53 61  1  0  0  0  0
 54 62  1  0  0  0  0
 55 63  1  0  0  0  0
 56 63  1  0  0  0  0
 57 63  1  0  0  0  0
 58 75  1  0  0  0  0
 59 62  1  0  0  0  0
 60 63  1  0  0  0  0
 60 73  1  0  0  0  0
 61 75  1  0  0  0  0
 62 83  1  0  0  0  0
 64 65  1  0  0  0  0
M  CHG  2  74   1  75   1
M  ISO  4  40 100  62 101  70 100  83 101
M  END
> <Batch ID>
0145

> <Smiles>
CNC(C)C(=O)NC(C(=O)N1Cc2cc([101O:1][101CH:1](C)CC(=O)NC(=N)c3ccc([100NH:0][100C:0](=O)N4CCCC(n5nc(-c6ccc(Oc7ccc(F)cc7F)cc6)c(C(N)=O)c5N)C4)cc3)ccc2CC1C(=O)NC1CCCc2ccccc21)C(C)(C)C

> <Shape>
0.306

> <Color>
0.145

> <Negative vol penalty>
0.000

$$$$

  -OEChem-04052303073D

 84 93  0     1  0  0  0  0  0999 V2000
  -17.5397  -32.3019   23.7591 C   0  0  0  0  0  0  0  0  0  0  0  0
  -18.8154  -32.6764   23.3497 C   0  0  0  0  0  0  0  0  0  0  0  0
  -24.3704  -13.9331   20.4803 C   0  0  0  0  0  0  0  0  0  0  0  0
  -26.7008  -13.6411   21.0472 C   0  0  0  0  0  0  0  0  0  0  0  0
  -17.3080  -31.0051   24.2159 C   0  0  0  0  0  0  0  0  0  0  0  0
  -19.8606  -31.7546   23.3979 C   0  0  0  0  0  0  0  0  0  0  0  0
  -25.8820  -29.9568   19.9590 C   0  0  0  0  0  0  0  0  0  0  0  0
  -24.2500  -12.5598   20.2678 C   0  0  0  0  0  0  0  0  0  0  0  0
  -26.5804  -12.2678   20.8349 C   0  0  0  0  0  0  0  0  0  0  0  0
  -27.2333  -29.7182   20.2060 C   0  0  0  0  0  0  0  0  0  0  0  0
  -23.9079   -9.7692   22.1463 C   0  0  0  0  0  0  0  0  0  0  0  0
  -22.7929   -9.1256   22.6829 C   0  0  0  0  0  0  0  0  0  0  0  0
  -30.5202  -24.3673   23.0599 C   0  0  0  0  0  0  0  0  0  0  0  0
  -29.9613  -23.0754   22.9123 C   0  0  0  0  0  0  0  0  0  0  0  0
  -26.6985  -27.4830   20.9386 C   0  0  0  0  0  0  0  0  0  0  0  0
  -22.1218   -8.4396   20.4656 C   0  0  0  0  0  0  0  0  0  0  0  0
  -25.5958  -14.4738   20.8699 C   0  0  0  0  0  0  0  0  0  0  0  0
  -25.5147  -16.5877   22.2955 C   0  0  0  0  0  0  0  0  0  0  0  0
  -18.3488  -30.0641   24.2607 C   0  0  0  0  0  0  0  0  0  0  0  0
  -24.9261  -28.9622   20.2106 C   0  0  0  0  0  0  0  0  0  0  0  0
  -19.6430  -30.4444   23.8570 C   0  0  0  0  0  0  0  0  0  0  0  0
  -25.3361  -27.7105   20.6915 C   0  0  0  0  0  0  0  0  0  0  0  0
  -25.3550  -11.7271   20.4452 C   0  0  0  0  0  0  0  0  0  0  0  0
  -27.6414  -28.4822   20.6987 C   0  0  0  0  0  0  0  0  0  0  0  0
  -24.1299   -9.7481   20.7693 C   0  0  0  0  0  0  0  0  0  0  0  0
  -21.8998   -8.4607   21.8426 C   0  0  0  0  0  0  0  0  0  0  0  0
  -23.2369   -9.0833   19.9290 C   0  0  0  0  0  0  0  0  0  0  0  0
  -25.7210  -15.8924   21.0889 C   0  0  0  0  0  0  0  0  0  0  0  0
  -25.7571  -17.9023   21.9799 C   0  0  0  0  0  0  0  0  0  0  0  0
  -30.5200  -24.9292   21.8045 C   0  0  0  0  0  0  0  0  0  0  0  0
  -29.6592  -22.9401   21.5773 C   0  0  0  0  0  0  0  0  0  0  0  0
  -25.1379  -16.0898   23.5861 C   0  0  0  0  0  0  0  0  0  0  0  0
  -22.4126  -28.7035   22.1392 C   0  0  0  0  0  0  0  0  0  0  0  0
  -21.9598  -25.9203   20.5357 C   0  0  0  0  0  0  0  0  0  0  0  0
  -23.3086  -23.3918   18.6825 C   0  0  0  0  0  0  0  0  0  0  0  0
  -28.8145  -21.8278   19.4807 C   0  0  0  0  0  0  0  0  0  0  0  0
  -18.0604  -28.6881   24.8066 C   0  0  0  0  0  0  0  0  0  0  0  0
  -23.4754  -29.2262   19.9136 C   0  0  0  0  0  0  0  0  0  0  0  0
  -24.3516  -26.6025   20.9591 C   0  0  0  0  0  0  0  0  0  0  0  0
  -19.1403  -27.6620   24.4735 C   0  0  0  0  0  0  0  0  0  0  0  0
  -26.3875  -20.1494   17.4882 C   0  0  0  0  0  0  0  0  0  0  0  0
  -20.5261  -28.2372   24.7480 C   0  0  0  0  0  0  0  0  0  0  0  0
  -25.9808  -18.9495   18.3466 C   0  0  0  0  0  0  0  0  0  0  0  0
  -32.0782  -28.2169   21.2174 C   0  0  0  0  0  0  0  0  0  0  0  0
  -27.8755  -20.4667   17.6257 C   0  0  0  0  0  0  0  0  0  0  0  0
  -31.5240  -27.1912   22.2021 C   0  0  0  0  0  0  0  0  0  0  0  0
  -27.9420  -19.4387   19.8636 C   0  0  0  0  0  0  0  0  0  0  0  0
  -30.8610  -26.5865   19.9516 C   0  0  0  0  0  0  0  0  0  0  0  0
  -20.7971  -29.4657   23.8712 C   0  0  1  0  0  0  0  0  0  0  0  0
  -22.5307  -28.3159   20.6923 C   0  0  1  0  0  0  0  0  0  0  0  0
  -26.4388  -19.1211   19.8083 C   0  0  2  0  0  0  0  0  0  0  0  0
  -31.1675  -28.0908   19.9962 C   0  0  1  0  0  0  0  0  0  0  0  0
  -22.6974  -21.2387   17.5477 C   0  0  0  0  0  0  0  0  0  0  0  0
  -21.8814  -24.5178   23.2444 C   0  0  0  0  0  0  0  0  0  0  0  0
  -22.2266  -22.3442   22.0508 C   0  0  0  0  0  0  0  0  0  0  0  0
  -20.1841  -23.7030   21.5982 C   0  0  0  0  0  0  0  0  0  0  0  0
  -24.0945  -24.4340   16.0263 C   0  0  0  0  0  0  0  0  0  0  0  0
  -32.3135  -29.8394   18.9361 C   0  0  0  0  0  0  0  0  0  0  0  0
  -29.9038  -28.9403   20.1264 C   0  0  0  0  0  0  0  0  0  1  0  0
  -22.4188  -24.4939   20.7192 C   0  0  1  0  0  0  0  0  0  0  0  0
  -22.8587  -22.7423   17.3863 C   0  0  2  0  0  0  0  0  0  0  0  0
  -21.6963  -23.7860   21.9000 C   0  0  0  0  0  0  0  0  0  0  0  0
  -26.0675  -16.6985   20.0819 N   0  0  0  0  0  0  0  0  0  0  0  0
  -26.0808  -17.9141   20.6550 N   0  0  0  0  0  0  0  0  0  0  0  0
  -30.9422  -26.1601   21.3476 N   0  0  3  0  0  0  0  0  0  0  0  0
  -22.9438  -26.9114   20.6588 N   0  0  0  0  0  0  0  0  0  0  0  0
  -28.2357  -20.6199   19.0370 N   0  0  0  0  0  0  0  0  0  0  0  0
  -25.7226  -19.0378   22.7092 N   0  0  0  0  0  0  0  0  0  0  0  0
  -24.9281  -14.7122   23.7356 N   0  0  0  0  0  0  0  0  0  0  0  0
  -29.0842  -21.8697   20.8482 N   0  0  0  0  0  0  0  0  0  0  0  0
  -21.1342  -29.0604   22.5234 N   0  0  0  0  0  0  0  0  0  0  0  0
  -22.2383  -23.8378   19.4287 N   0  0  0  0  0  0  0  0  0  0  0  0
  -23.8549  -22.9950   16.3071 N   0  3  0  0  0  0  0  0  0  0  0  0
  -24.9755  -16.8463   24.5735 O   0  0  0  0  0  0  0  0  0  0  0  0
  -23.4074  -28.6790   22.8544 O   0  0  0  0  0  0  0  0  0  0  0  0
  -20.7733  -26.1462   20.2851 O   0  0  0  0  0  0  0  0  0  0  0  0
  -24.4911  -23.4902   19.0028 O   0  0  0  0  0  0  0  0  0  0  0  0
  -29.0283  -22.7667   18.7095 O   0  0  0  0  0  0  0  0  0  0  0  0
  -29.9966  -24.0658   20.8950 O   0  0  0  0  0  0  0  0  0  0  0  0
  -25.2378  -10.3870   20.2382 O   0  0  0  0  0  0  0  0  0  0  0  0
  -28.9596  -28.2469   20.9413 O   0  0  0  0  0  0  0  0  0  1  0  0
  -31.8781  -28.4929   18.8338 O   0  0  0  0  0  0  0  0  0  0  0  0
  -20.8299   -7.8414   22.3582 F   0  0  0  0  0  0  0  0  0  0  0  0
  -23.4455   -9.0586   18.6055 F   0  0  0  0  0  0  0  0  0  0  0  0
  1  2  1  0  0  0  0
  1  5  2  0  0  0  0
  2  6  2  0  0  0  0
  3  8  2  0  0  0  0
  3 17  1  0  0  0  0
  4  9  1  0  0  0  0
  4 17  2  0  0  0  0
  5 19  1  0  0  0  0
  6 21  1  0  0  0  0
  7 10  2  0  0  0  0
  7 20  1  0  0  0  0
  8 23  1  0  0  0  0
  9 23  2  0  0  0  0
 10 24  1  0  0  0  0
 11 12  2  0  0  0  0
 11 25  1  0  0  0  0
 12 26  1  0  0  0  0
 13 14  1  0  0  0  0
 13 30  2  0  0  0  0
 14 31  2  0  0  0  0
 15 22  1  0  0  0  0
 15 24  2  0  0  0  0
 16 26  2  0  0  0  0
 16 27  1  0  0  0  0
 17 28  1  0  0  0  0
 18 28  1  0  0  0  0
 18 29  2  0  0  0  0
 18 32  1  0  0  0  0
 19 21  2  0  0  0  0
 19 37  1  0  0  0  0
 20 22  2  0  0  0  0
 20 38  1  0  0  0  0
 21 49  1  0  0  0  0
 22 39  1  0  0  0  0
 23 80  1  0  0  0  0
 24 81  1  0  0  0  0
 25 27  2  0  0  0  0
 25 80  1  0  0  0  0
 26 83  1  0  0  0  0
 27 84  1  0  0  0  0
 28 63  2  0  0  0  0
 29 64  1  0  0  0  0
 29 68  1  0  0  0  0
 30 65  1  0  0  0  0
 30 79  1  0  0  0  0
 31 70  1  0  0  0  0
 31 79  1  0  0  0  0
 32 69  1  0  0  0  0
 32 74  2  0  0  0  0
 33 50  1  0  0  0  0
 33 71  1  0  0  0  0
 33 75  2  0  0  0  0
 34 60  1  0  0  0  0
 34 66  1  0  0  0  0
 34 76  2  0  0  0  0
 35 61  1  0  0  0  0
 35 72  1  0  0  0  0
 35 77  2  0  0  0  0
 36 67  1  0  0  0  0
 36 70  1  0  0  0  0
 36 78  2  0  0  0  0
 37 40  1  0  0  0  0
 38 50  1  0  0  0  0
 39 66  1  0  0  0  0
 40 42  1  0  0  0  0
 41 43  1  0  0  0  0
 41 45  1  0  0  0  0
 42 49  1  0  0  0  0
 43 51  1  0  0  0  0
 44 46  1  0  0  0  0
 44 52  1  0  0  0  0
 45 67  1  0  0  0  0
 46 65  1  0  0  0  0
 47 51  1  0  0  0  0
 47 67  1  0  0  0  0
 48 52  1  0  0  0  0
 48 65  1  0  0  0  0
 49 71  1  0  0  0  0
 50 66  1  0  0  0  0
 51 64  1  0  0  0  0
 52 59  1  0  0  0  0
 52 82  1  0  0  0  0
 53 61  1  0  0  0  0
 54 62  1  0  0  0  0
 55 62  1  0  0  0  0
 56 62  1  0  0  0  0
 57 73  1  0  0  0  0
 58 82  1  0  0  0  0
 59 81  1  0  0  0  0
 60 62  1  0  0  0  0
 60 72  1  0  0  0  0
 61 73  1  0  0  0  0
 63 64  1  0  0  0  0
M  CHG  1  73   1
M  ISO  4  36 100  59 101  70 100  81 101
M  END
> <Batch ID>
0145

> <Smiles>
CNC(C)C(=O)NC(C(=O)N1Cc2cc([101O:1][101CH2:1]C3(OC)CCN(c4ccc([100NH:0][100C:0](=O)N5CCCC(n6nc(-c7ccc(Oc8ccc(F)cc8F)cc7)c(C(N)=O)c6N)C5)o4)C3)ccc2CC1C(=O)NC1CCCc2ccccc21)C(C)(C)C

> <Shape>
0.236

> <Color>
0.101

> <Negative vol penalty>
0.000

$$$$

  -OEChem-04052303073D

 91 99  0     1  0  0  0  0  0999 V2000
  -32.3316  -27.1709   19.4706 C   0  0  0  0  0  0  0  0  0  0  0  0
  -31.1948  -26.5020   19.0310 C   0  0  0  0  0  0  0  0  0  0  0  0
  -24.7865  -10.5301   22.1674 C   0  0  0  0  0  0  0  0  0  0  0  0
  -24.8813  -12.0408   24.0505 C   0  0  0  0  0  0  0  0  0  0  0  0
  -32.3423  -27.7653   20.7307 C   0  0  0  0  0  0  0  0  0  0  0  0
  -30.0643  -26.4375   19.8464 C   0  0  0  0  0  0  0  0  0  0  0  0
  -24.7682  -23.5309   19.0525 C   0  0  0  0  0  0  0  0  0  0  0  0
  -27.9316  -22.5341   20.7858 C   0  0  0  0  0  0  0  0  0  0  0  0
  -27.3228  -21.8060   21.8080 C   0  0  0  0  0  0  0  0  0  0  0  0
  -24.5930   -9.4574   23.0377 C   0  0  0  0  0  0  0  0  0  0  0  0
  -24.6877  -10.9680   24.9208 C   0  0  0  0  0  0  0  0  0  0  0  0
  -24.2178  -22.2899   19.3700 C   0  0  0  0  0  0  0  0  0  0  0  0
  -22.1064   -9.0724   25.9996 C   0  0  0  0  0  0  0  0  0  0  0  0
  -21.1855   -9.2373   27.0342 C   0  0  0  0  0  0  0  0  0  0  0  0
  -23.1883  -23.2540   21.3270 C   0  0  0  0  0  0  0  0  0  0  0  0
  -29.1385  -20.5578   20.0968 C   0  0  0  0  0  0  0  0  0  0  0  0
  -22.9342   -8.8422   28.6538 C   0  0  0  0  0  0  0  0  0  0  0  0
  -24.9308  -11.8218   22.6738 C   0  0  0  0  0  0  0  0  0  0  0  0
  -24.1393  -13.7333   21.1813 C   0  0  0  0  0  0  0  0  0  0  0  0
  -31.2154  -27.6968   21.5663 C   0  0  0  0  0  0  0  0  0  0  0  0
  -24.5415  -24.6421   19.8772 C   0  0  0  0  0  0  0  0  0  0  0  0
  -30.0473  -27.0516   21.1118 C   0  0  0  0  0  0  0  0  0  0  0  0
  -23.7350  -24.5085   21.0164 C   0  0  0  0  0  0  0  0  0  0  0  0
  -28.8394  -21.9100   19.9302 C   0  0  0  0  0  0  0  0  0  0  0  0
  -27.6220  -20.4538   21.9747 C   0  0  0  0  0  0  0  0  0  0  0  0
  -28.5298  -19.8297   21.1191 C   0  0  0  0  0  0  0  0  0  0  0  0
  -24.5436   -9.6763   24.4144 C   0  0  0  0  0  0  0  0  0  0  0  0
  -23.4301  -22.1507   20.5089 C   0  0  0  0  0  0  0  0  0  0  0  0
  -23.4413   -8.7924   26.2921 C   0  0  0  0  0  0  0  0  0  0  0  0
  -21.5994   -9.1222   28.3612 C   0  0  0  0  0  0  0  0  0  0  0  0
  -23.8551   -8.6774   27.6192 C   0  0  0  0  0  0  0  0  0  0  0  0
  -25.1313  -12.9303   21.7753 C   0  0  0  0  0  0  0  0  0  0  0  0
  -24.8395  -14.6380   20.4213 C   0  0  0  0  0  0  0  0  0  0  0  0
  -22.7124  -13.6673   21.3055 C   0  0  0  0  0  0  0  0  0  0  0  0
  -26.3886  -26.5677   21.6046 C   0  0  0  0  0  0  0  0  0  0  0  0
  -25.2137  -19.2097   24.5008 C   0  0  0  0  0  0  0  0  0  0  0  0
  -23.6145  -28.1892   22.0489 C   0  0  0  0  0  0  0  0  0  0  0  0
  -20.2028  -28.1321   22.1080 C   0  0  0  0  0  0  0  0  0  0  0  0
  -29.7324  -17.7062   20.4938 C   0  0  0  0  0  0  0  0  0  0  0  0
  -31.2789  -28.3644   22.9174 C   0  0  0  0  0  0  0  0  0  0  0  0
  -25.1205  -25.9799   19.5064 C   0  0  0  0  0  0  0  0  0  0  0  0
  -23.4445  -25.6751   21.9237 C   0  0  0  0  0  0  0  0  0  0  0  0
  -30.2043  -27.8657   23.8781 C   0  0  0  0  0  0  0  0  0  0  0  0
  -29.3930  -14.7824   18.4905 C   0  0  0  0  0  0  0  0  0  0  0  0
  -28.8444  -27.8937   23.1967 C   0  0  0  0  0  0  0  0  0  0  0  0
  -28.1626  -14.0840   19.0740 C   0  0  0  0  0  0  0  0  0  0  0  0
  -30.2334  -15.4518   19.5765 C   0  0  0  0  0  0  0  0  0  0  0  0
  -28.2648  -15.6664   21.0419 C   0  0  0  0  0  0  0  0  0  0  0  0
  -28.8166  -26.9423   21.9938 C   0  0  1  0  0  0  0  0  0  0  0  0
  -25.2470  -26.9266   20.6960 C   0  0  1  0  0  0  0  0  0  0  0  0
  -27.3524  -15.0326   19.9791 C   0  0  2  0  0  0  0  0  0  0  0  0
  -26.8057  -21.1161   24.9891 C   0  0  0  0  0  0  0  0  0  0  0  0
  -18.2152  -29.6018   22.5399 C   0  0  0  0  0  0  0  0  0  0  0  0
  -24.1326  -28.0037   25.0501 C   0  0  0  0  0  0  0  0  0  0  0  0
  -21.7334  -28.6094   25.4311 C   0  0  0  0  0  0  0  0  0  0  0  0
  -23.2551  -30.2146   24.2777 C   0  0  0  0  0  0  0  0  0  0  0  0
  -21.2655  -19.3327   24.6289 C   0  0  0  0  0  0  0  0  0  0  0  0
  -22.7019  -17.3133   24.3700 C   0  0  0  0  0  0  0  0  0  0  0  0
  -21.6500  -18.4223   21.7007 C   0  0  0  0  0  0  0  0  0  0  0  0
  -24.1136  -18.6215   21.9310 C   0  0  0  0  0  0  0  0  0  0  0  0
  -19.1802  -27.7552   19.3564 C   0  0  0  0  0  0  0  0  0  0  0  0
  -23.7722  -19.5594   24.8785 C   0  0  0  0  0  0  0  0  0  0  0  0
  -22.6858  -20.6624   22.2081 C   0  0  0  0  0  0  0  0  0  1  0  0
  -26.0594  -20.3353   23.9163 C   0  0  1  0  0  0  0  0  0  0  0  0
  -22.4940  -28.1342   23.0591 C   0  0  1  0  0  0  0  0  0  0  0  0
  -19.1690  -29.0554   21.4890 C   0  0  2  0  0  0  0  0  0  0  0  0
  -22.9106  -28.7179   24.4387 C   0  0  0  0  0  0  0  0  0  0  0  0
  -22.6323  -18.8351   24.0906 C   0  0  0  0  0  0  0  0  0  0  0  0
  -22.7669  -19.1346   22.5080 C   0  0  0  0  0  0  0  0  0  0  0  0
  -26.3675  -13.2928   21.4229 N   0  0  0  0  0  0  0  0  0  0  0  0
  -26.1570  -14.3336   20.5991 N   0  0  0  0  0  0  0  0  0  0  0  0
  -24.0384  -26.9610   21.5221 N   0  0  0  0  0  0  0  0  0  0  0  0
  -29.4004  -16.3387   20.3915 N   0  0  0  0  0  0  0  0  0  0  0  0
  -29.4540  -22.6465   18.8963 N   0  0  0  0  0  0  0  0  0  0  0  0
  -24.4505  -15.6563   19.6249 N   0  0  0  0  0  0  0  0  0  0  0  0
  -22.1584  -12.6764   22.1274 N   0  0  0  0  0  0  0  0  0  0  0  0
  -28.8496  -18.4575   21.2690 N   0  0  0  0  0  0  0  0  0  0  0  0
  -27.0070  -19.7498   22.9974 N   0  0  0  0  0  0  0  0  0  0  0  0
  -27.5912  -27.1515   21.2546 N   0  0  0  0  0  0  0  0  0  0  0  0
  -21.3562  -28.8089   22.4438 N   0  0  0  0  0  0  0  0  0  0  0  0
  -18.3707  -28.3259   20.4637 N   0  3  0  0  0  0  0  0  0  0  0  0
  -21.9507  -14.4531   20.6925 O   0  0  0  0  0  0  0  0  0  0  0  0
  -26.1926  -25.8179   22.5538 O   0  0  0  0  0  0  0  0  0  0  0  0
  -25.6821  -18.0892   24.7000 O   0  0  0  0  0  0  0  0  0  0  0  0
  -24.0912  -29.2824   21.7335 O   0  0  0  0  0  0  0  0  0  0  0  0
  -20.0053  -26.9313   22.2801 O   0  0  0  0  0  0  0  0  0  0  0  0
  -30.7114  -18.1816   19.9127 O   0  0  0  0  0  0  0  0  0  0  0  0
  -24.3545   -8.6299   25.2639 O   0  0  0  0  0  0  0  0  0  0  0  0
  -22.8889  -20.9334   20.8233 O   0  0  0  0  0  0  0  0  0  1  0  0
  -20.7152   -9.2820   29.3547 F   0  0  0  0  0  0  0  0  0  0  0  0
  -25.1364   -8.4097   27.9064 F   0  0  0  0  0  0  0  0  0  0  0  0
  1  2  1  0  0  0  0
  1  5  2  0  0  0  0
  2  6  2  0  0  0  0
  3 10  2  0  0  0  0
  3 18  1  0  0  0  0
  4 11  1  0  0  0  0
  4 18  2  0  0  0  0
  5 20  1  0  0  0  0
  6 22  1  0  0  0  0
  7 12  2  0  0  0  0
  7 21  1  0  0  0  0
  8  9  2  0  0  0  0
  8 24  1  0  0  0  0
  9 25  1  0  0  0  0
 10 27  1  0  0  0  0
 11 27  2  0  0  0  0
 12 28  1  0  0  0  0
 13 14  2  0  0  0  0
 13 29  1  0  0  0  0
 14 30  1  0  0  0  0
 15 23  1  0  0  0  0
 15 28  2  0  0  0  0
 16 24  2  0  0  0  0
 16 26  1  0  0  0  0
 17 30  2  0  0  0  0
 17 31  1  0  0  0  0
 18 32  1  0  0  0  0
 19 32  1  0  0  0  0
 19 33  2  0  0  0  0
 19 34  1  0  0  0  0
 20 22  2  0  0  0  0
 20 40  1  0  0  0  0
 21 23  2  0  0  0  0
 21 41  1  0  0  0  0
 22 49  1  0  0  0  0
 23 42  1  0  0  0  0
 24 74  1  0  0  0  0
 25 26  2  0  0  0  0
 25 78  1  0  0  0  0
 26 77  1  0  0  0  0
 27 88  1  0  0  0  0
 28 89  1  0  0  0  0
 29 31  2  0  0  0  0
 29 88  1  0  0  0  0
 30 90  1  0  0  0  0
 31 91  1  0  0  0  0
 32 70  2  0  0  0  0
 33 71  1  0  0  0  0
 33 75  1  0  0  0  0
 34 76  1  0  0  0  0
 34 82  2  0  0  0  0
 35 50  1  0  0  0  0
 35 79  1  0  0  0  0
 35 83  2  0  0  0  0
 36 62  1  0  0  0  0
 36 64  1  0  0  0  0
 36 84  2  0  0  0  0
 37 65  1  0  0  0  0
 37 72  1  0  0  0  0
 37 85  2  0  0  0  0
 38 66  1  0  0  0  0
 38 80  1  0  0  0  0
 38 86  2  0  0  0  0
 39 73  1  0  0  0  0
 39 77  1  0  0  0  0
 39 87  2  0  0  0  0
 40 43  1  0  0  0  0
 41 50  1  0  0  0  0
 42 72  1  0  0  0  0
 43 45  1  0  0  0  0
 44 46  1  0  0  0  0
 44 47  1  0  0  0  0
 45 49  1  0  0  0  0
 46 51  1  0  0  0  0
 47 73  1  0  0  0  0
 48 51  1  0  0  0  0
 48 73  1  0  0  0  0
 49 79  1  0  0  0  0
 50 72  1  0  0  0  0
 51 71  1  0  0  0  0
 52 64  1  0  0  0  0
 53 66  1  0  0  0  0
 54 67  1  0  0  0  0
 55 67  1  0  0  0  0
 56 67  1  0  0  0  0
 57 68  1  0  0  0  0
 58 68  1  0  0  0  0
 59 69  1  0  0  0  0
 60 69  1  0  0  0  0
 61 81  1  0  0  0  0
 62 68  1  0  0  0  0
 63 69  1  0  0  0  0
 63 89  1  0  0  0  0
 64 78  1  0  0  0  0
 65 67  1  0  0  0  0
 65 80  1  0  0  0  0
 66 81  1  0  0  0  0
 68 69  1  0  0  0  0
 70 71  1  0  0  0  0
M  CHG  1  81   1
M  ISO  4  39 100  63 101  77 100  89 101
M  END
> <Batch ID>
0145

> <Smiles>
CNC(C)C(=O)NC(C(=O)N1Cc2cc([101O:1][101CH2:1]C(C)(C)C(C)(C)CC(=O)C(C)Nc3ccc(N)cc3[100NH:0][100C:0](=O)N3CCCC(n4nc(-c5ccc(Oc6ccc(F)cc6F)cc5)c(C(N)=O)c4N)C3)ccc2CC1C(=O)NC1CCCc2ccccc21)C(C)(C)C

> <Shape>
0.202

> <Color>
0.082

> <Negative vol penalty>
0.000

$$$$

  -OEChem-04052303073D

 96105  0     1  0  0  0  0  0999 V2000
  -25.6628  -32.1455   20.7672 C   0  0  0  0  0  0  0  0  0  0  0  0
  -26.3365  -31.0201   21.2310 C   0  0  0  0  0  0  0  0  0  0  0  0
  -23.0394   -9.9026   19.8822 C   0  0  0  0  0  0  0  0  0  0  0  0
  -23.9233   -9.6943   22.1211 C   0  0  0  0  0  0  0  0  0  0  0  0
  -24.4062  -32.0109   20.1782 C   0  0  0  0  0  0  0  0  0  0  0  0
  -25.7535  -29.7595   21.1069 C   0  0  0  0  0  0  0  0  0  0  0  0
  -29.0168  -26.2658   19.4366 C   0  0  0  0  0  0  0  0  0  0  0  0
  -22.3094   -8.7276   20.0611 C   0  0  0  0  0  0  0  0  0  0  0  0
  -23.1933   -8.5193   22.2999 C   0  0  0  0  0  0  0  0  0  0  0  0
  -29.9232  -25.7478   20.3606 C   0  0  0  0  0  0  0  0  0  0  0  0
  -20.0022   -7.6533   22.9982 C   0  0  0  0  0  0  0  0  0  0  0  0
  -19.3102   -7.4986   24.1994 C   0  0  0  0  0  0  0  0  0  0  0  0
  -28.5338  -23.7927   20.6184 C   0  0  0  0  0  0  0  0  0  0  0  0
  -31.8498  -17.4227   21.8976 C   0  0  0  0  0  0  0  0  0  0  0  0
  -20.5885   -5.5052   24.6789 C   0  0  0  0  0  0  0  0  0  0  0  0
  -30.8682  -18.8368   23.4594 C   0  0  0  0  0  0  0  0  0  0  0  0
  -23.8465  -10.3860   20.9122 C   0  0  0  0  0  0  0  0  0  0  0  0
  -24.1832  -12.9125   21.0153 C   0  0  0  0  0  0  0  0  0  0  0  0
  -23.8118  -30.7469   20.0382 C   0  0  0  0  0  0  0  0  0  0  0  0
  -27.8547  -25.5550   19.1042 C   0  0  0  0  0  0  0  0  0  0  0  0
  -24.4873  -29.6080   20.5167 C   0  0  0  0  0  0  0  0  0  0  0  0
  -27.6155  -24.3027   19.6880 C   0  0  0  0  0  0  0  0  0  0  0  0
  -31.9752  -18.6130   22.6706 C   0  0  0  0  0  0  0  0  0  0  0  0
  -22.3863   -8.0359   21.2699 C   0  0  0  0  0  0  0  0  0  0  0  0
  -29.6804  -24.5124   20.9538 C   0  0  0  0  0  0  0  0  0  0  0  0
  -20.9873   -6.7340   22.6373 C   0  0  0  0  0  0  0  0  0  0  0  0
  -19.6034   -6.4246   25.0398 C   0  0  0  0  0  0  0  0  0  0  0  0
  -21.2804   -5.6600   23.4777 C   0  0  0  0  0  0  0  0  0  0  0  0
  -24.6013  -11.5994   20.7279 C   0  0  0  0  0  0  0  0  0  0  0  0
  -25.2545  -13.6981   20.6664 C   0  0  0  0  0  0  0  0  0  0  0  0
  -30.6517  -16.7818   22.1252 C   0  0  0  0  0  0  0  0  0  0  0  0
  -22.9379  -13.3804   21.5501 C   0  0  0  0  0  0  0  0  0  0  0  0
  -24.7354  -26.1018   19.3775 C   0  0  0  0  0  0  0  0  0  0  0  0
  -24.4993  -23.3419   17.6895 C   0  0  0  0  0  0  0  0  0  0  0  0
  -25.9221  -20.3813   16.7636 C   0  0  0  0  0  0  0  0  0  0  0  0
  -32.5450  -23.0832   23.8403 C   0  0  0  0  0  0  0  0  0  0  0  0
  -30.7229  -14.7463   20.6426 C   0  0  0  0  0  0  0  0  0  0  0  0
  -22.4313  -30.6565   19.4375 C   0  0  0  0  0  0  0  0  0  0  0  0
  -26.9002  -26.1153   18.0856 C   0  0  0  0  0  0  0  0  0  0  0  0
  -26.3930  -23.4906   19.3499 C   0  0  0  0  0  0  0  0  0  0  0  0
  -22.0466  -29.2440   19.0050 C   0  0  0  0  0  0  0  0  0  0  0  0
  -29.4790  -12.5646   18.1188 C   0  0  0  0  0  0  0  0  0  0  0  0
  -22.3908  -28.2383   20.0990 C   0  0  0  0  0  0  0  0  0  0  0  0
  -28.0647  -12.2270   18.5962 C   0  0  0  0  0  0  0  0  0  0  0  0
  -32.0786  -21.0026   19.2508 C   0  0  0  0  0  0  0  0  0  0  0  0
  -31.4875  -19.7462   19.8236 C   0  0  0  0  0  0  0  0  0  0  0  0
  -30.4585  -12.6817   19.2852 C   0  0  0  0  0  0  0  0  0  0  0  0
  -28.6304  -13.2627   20.8310 C   0  0  0  0  0  0  0  0  0  0  0  0
  -23.8986  -28.2208   20.3777 C   0  0  1  0  0  0  0  0  0  0  0  0
  -25.4921  -25.5410   18.2068 C   0  0  1  0  0  0  0  0  0  0  0  0
  -27.5946  -13.1983   19.6967 C   0  0  2  0  0  0  0  0  0  0  0  0
  -32.8984  -20.1461   20.1873 C   0  0  0  0  0  0  0  0  0  0  0  0
  -34.0307  -19.3471   19.6030 C   0  0  0  0  0  0  0  0  0  0  0  0
  -25.4721  -18.3185   15.4072 C   0  0  0  0  0  0  0  0  0  0  0  0
  -32.4267  -25.3906   24.8448 C   0  0  0  0  0  0  0  0  0  0  0  0
  -30.3797  -23.9636   24.7699 C   0  0  0  0  0  0  0  0  0  0  0  0
  -38.2191  -23.6619   24.2086 C   0  0  0  0  0  0  0  0  0  0  0  0
  -35.9341  -24.0704   25.1520 C   0  0  0  0  0  0  0  0  0  0  0  0
  -36.8838  -21.7617   25.1170 C   0  0  0  0  0  0  0  0  0  0  0  0
  -22.6554  -22.3020   19.8869 C   0  0  0  0  0  0  0  0  0  0  0  0
  -23.0076  -19.9904   18.9922 C   0  0  0  0  0  0  0  0  0  0  0  0
  -21.9338  -21.7293   17.5619 C   0  0  0  0  0  0  0  0  0  0  0  0
  -28.2208  -20.9139   14.9772 C   0  0  0  0  0  0  0  0  0  0  0  0
  -33.1817  -19.5221   22.6294 C   0  0  0  0  0  0  0  0  0  0  0  0
  -34.3953  -21.5833   21.5938 C   0  0  0  0  0  0  0  0  0  0  0  0
  -36.1500  -22.7900   22.9547 C   0  0  0  0  0  0  0  0  0  0  0  0
  -31.3036  -24.9419   22.6380 C   0  0  0  0  0  0  0  0  0  1  0  0
  -24.4115  -21.8768   18.0427 C   0  0  1  0  0  0  0  0  0  0  0  0
  -26.0715  -19.7162   15.4072 C   0  0  2  0  0  0  0  0  0  0  0  0
  -33.1503  -20.6651   21.5861 C   0  0  1  0  0  0  0  0  0  0  0  0
  -34.7022  -22.2526   22.9490 C   0  0  1  0  0  0  0  0  0  0  0  0
  -31.6672  -24.3436   24.0120 C   0  0  0  0  0  0  0  0  0  0  0  0
  -36.7987  -23.0916   24.3381 C   0  0  0  0  0  0  0  0  0  0  0  0
  -23.0243  -21.4906   18.6290 C   0  0  0  0  0  0  0  0  0  0  0  0
  -25.8413  -11.5495   20.2342 N   0  0  0  0  0  0  0  0  0  0  0  0
  -26.2117  -12.8411   20.2086 N   0  0  0  0  0  0  0  0  0  0  0  0
  -25.4865  -24.0840   18.3531 N   0  0  0  0  0  0  0  0  0  0  0  0
  -29.9491  -13.6217   20.2861 N   0  0  0  0  0  0  0  0  0  0  0  0
  -25.4617  -15.0313   20.7095 N   0  0  0  0  0  0  0  0  0  0  0  0
  -21.9452  -12.4388   21.8535 N   0  0  0  0  0  0  0  0  0  0  0  0
  -30.1219  -15.5862   21.5796 N   0  0  0  0  0  0  0  0  0  0  0  0
  -24.5940  -27.4761   19.3500 N   0  0  0  0  0  0  0  0  0  0  0  0
  -24.7751  -21.1433   16.8352 N   0  0  0  0  0  0  0  0  0  0  0  0
  -33.7525  -23.3123   23.1980 N   0  0  0  0  0  0  0  0  0  0  0  0
  -27.5115  -19.6100   15.0382 N   0  3  0  0  0  0  0  0  0  0  0  0
  -22.7061  -14.5989   21.7374 O   0  0  0  0  0  0  0  0  0  0  0  0
  -24.3099  -25.3436   20.2411 O   0  0  0  0  0  0  0  0  0  0  0  0
  -23.7252  -23.8090   16.8502 O   0  0  0  0  0  0  0  0  0  0  0  0
  -26.7390  -20.2361   17.6702 O   0  0  0  0  0  0  0  0  0  0  0  0
  -32.1896  -21.9755   24.2443 O   0  0  0  0  0  0  0  0  0  0  0  0
  -31.8250  -14.9639   20.1325 O   0  0  0  0  0  0  0  0  0  0  0  0
  -21.6739   -6.8895   21.4448 O   0  0  0  0  0  0  0  0  0  0  0  0
  -30.5690  -24.0014   21.8625 O   0  0  0  0  0  0  0  0  0  1  0  0
  -18.9399   -6.2769   26.1939 F   0  0  0  0  0  0  0  0  0  0  0  0
  -22.2265   -4.7743   23.1369 F   0  0  0  0  0  0  0  0  0  0  0  0
  -29.6843  -17.6147   23.2665 S   0  0  0  0  0  0  0  0  0  0  0  0
  1  2  1  0  0  0  0
  1  5  2  0  0  0  0
  2  6  2  0  0  0  0
  3  8  2  0  0  0  0
  3 17  1  0  0  0  0
  4  9  1  0  0  0  0
  4 17  2  0  0  0  0
  5 19  1  0  0  0  0
  6 21  1  0  0  0  0
  7 10  2  0  0  0  0
  7 20  1  0  0  0  0
  8 24  1  0  0  0  0
  9 24  2  0  0  0  0
 10 25  1  0  0  0  0
 11 12  2  0  0  0  0
 11 26  1  0  0  0  0
 12 27  1  0  0  0  0
 13 22  1  0  0  0  0
 13 25  2  0  0  0  0
 14 23  1  0  0  0  0
 14 31  2  0  0  0  0
 15 27  2  0  0  0  0
 15 28  1  0  0  0  0
 16 23  2  0  0  0  0
 16 96  1  0  0  0  0
 17 29  1  0  0  0  0
 18 29  1  0  0  0  0
 18 30  2  0  0  0  0
 18 32  1  0  0  0  0
 19 21  2  0  0  0  0
 19 38  1  0  0  0  0
 20 22  2  0  0  0  0
 20 39  1  0  0  0  0
 21 49  1  0  0  0  0
 22 40  1  0  0  0  0
 23 64  1  0  0  0  0
 24 92  1  0  0  0  0
 25 93  1  0  0  0  0
 26 28  2  0  0  0  0
 26 92  1  0  0  0  0
 27 94  1  0  0  0  0
 28 95  1  0  0  0  0
 29 75  2  0  0  0  0
 30 76  1  0  0  0  0
 30 79  1  0  0  0  0
 31 81  1  0  0  0  0
 31 96  1  0  0  0  0
 32 80  1  0  0  0  0
 32 86  2  0  0  0  0
 33 50  1  0  0  0  0
 33 82  1  0  0  0  0
 33 87  2  0  0  0  0
 34 68  1  0  0  0  0
 34 77  1  0  0  0  0
 34 88  2  0  0  0  0
 35 69  1  0  0  0  0
 35 83  1  0  0  0  0
 35 89  2  0  0  0  0
 36 72  1  0  0  0  0
 36 84  1  0  0  0  0
 36 90  2  0  0  0  0
 37 78  1  0  0  0  0
 37 81  1  0  0  0  0
 37 91  2  0  0  0  0
 38 41  1  0  0  0  0
 39 50  1  0  0  0  0
 40 77  1  0  0  0  0
 41 43  1  0  0  0  0
 42 44  1  0  0  0  0
 42 47  1  0  0  0  0
 43 49  1  0  0  0  0
 44 51  1  0  0  0  0
 45 46  1  0  0  0  0
 45 52  1  0  0  0  0
 46 52  1  0  0  0  0
 47 78  1  0  0  0  0
 48 51  1  0  0  0  0
 48 78  1  0  0  0  0
 49 82  1  0  0  0  0
 50 77  1  0  0  0  0
 51 76  1  0  0  0  0
 52 53  1  0  0  0  0
 52 70  1  0  0  0  0
 54 69  1  0  0  0  0
 55 72  1  0  0  0  0
 56 72  1  0  0  0  0
 57 73  1  0  0  0  0
 58 73  1  0  0  0  0
 59 73  1  0  0  0  0
 60 74  1  0  0  0  0
 61 74  1  0  0  0  0
 62 74  1  0  0  0  0
 63 85  1  0  0  0  0
 64 70  1  0  0  0  0
 65 70  1  0  0  0  0
 65 71  1  0  0  0  0
 66 71  1  0  0  0  0
 66 73  1  0  0  0  0
 67 72  1  0  0  0  0
 67 93  1  0  0  0  0
 68 74  1  0  0  0  0
 68 83  1  0  0  0  0
 69 85  1  0  0  0  0
 71 84  1  0  0  0  0
 75 76  1  0  0  0  0
M  CHG  1  85   1
M  ISO  4  37 100  67 101  81 100  93 101
M  END
> <Batch ID>
0145

> <Smiles>
CNC(C)C(=O)NC(C(=O)N1Cc2cc([101O:1][101CH2:1]C(C)(C)C(=O)NC(CC(Cc3csc([100NH:0][100C:0](=O)N4CCCC(n5nc(-c6ccc(Oc7ccc(F)cc7F)cc6)c(C(N)=O)c5N)C4)c3)C3(C)CC3)CC(C)(C)C)ccc2CC1C(=O)NC1CCCc2ccccc21)C(C)(C)C

> <Shape>
0.255

> <Color>
0.186

> <Negative vol penalty>
0.000

$$$$

  -OEChem-04052303073D

 90 99  0     1  0  0  0  0  0999 V2000
  -26.3047  -34.2457   19.5170 C   0  0  0  0  0  0  0  0  0  0  0  0
  -26.4681  -32.9280   19.9323 C   0  0  0  0  0  0  0  0  0  0  0  0
  -32.4100  -18.5637   21.9595 C   0  0  0  0  0  0  0  0  0  0  0  0
  -23.0635   -9.9068   19.9707 C   0  0  0  0  0  0  0  0  0  0  0  0
  -23.8226   -9.9306   22.2642 C   0  0  0  0  0  0  0  0  0  0  0  0
  -31.6320  -19.3897   22.7706 C   0  0  0  0  0  0  0  0  0  0  0  0
  -26.2341  -35.2692   20.4611 C   0  0  0  0  0  0  0  0  0  0  0  0
  -26.5620  -32.6332   21.2919 C   0  0  0  0  0  0  0  0  0  0  0  0
  -24.4471  -27.6354   24.1300 C   0  0  0  0  0  0  0  0  0  0  0  0
  -31.9043  -17.3398   21.5214 C   0  0  0  0  0  0  0  0  0  0  0  0
  -22.3117   -8.7612   20.2314 C   0  0  0  0  0  0  0  0  0  0  0  0
  -23.0707   -8.7850   22.5249 C   0  0  0  0  0  0  0  0  0  0  0  0
  -25.0667  -26.4542   24.5357 C   0  0  0  0  0  0  0  0  0  0  0  0
  -19.8370   -8.0152   23.1337 C   0  0  0  0  0  0  0  0  0  0  0  0
  -19.0793   -7.9917   24.3046 C   0  0  0  0  0  0  0  0  0  0  0  0
  -29.8425  -17.7678   22.7058 C   0  0  0  0  0  0  0  0  0  0  0  0
  -25.3493  -27.3697   26.7495 C   0  0  0  0  0  0  0  0  0  0  0  0
  -20.3072   -6.0529   25.0602 C   0  0  0  0  0  0  0  0  0  0  0  0
  -23.8191  -10.4915   20.9871 C   0  0  0  0  0  0  0  0  0  0  0  0
  -30.3482  -18.9918   23.1438 C   0  0  0  0  0  0  0  0  0  0  0  0
  -24.1783  -13.0129   20.8430 C   0  0  0  0  0  0  0  0  0  0  0  0
  -26.3176  -34.9857   21.8335 C   0  0  0  0  0  0  0  0  0  0  0  0
  -24.2835  -28.6986   25.0296 C   0  0  0  0  0  0  0  0  0  0  0  0
  -26.4938  -33.6540   22.2552 C   0  0  0  0  0  0  0  0  0  0  0  0
  -24.7251  -28.5624   26.3535 C   0  0  0  0  0  0  0  0  0  0  0  0
  -30.6205  -16.9418   21.8946 C   0  0  0  0  0  0  0  0  0  0  0  0
  -22.3152   -8.2004   21.5085 C   0  0  0  0  0  0  0  0  0  0  0  0
  -25.5205  -26.3223   25.8447 C   0  0  0  0  0  0  0  0  0  0  0  0
  -20.8297   -7.0575   22.9260 C   0  0  0  0  0  0  0  0  0  0  0  0
  -19.3144   -7.0106   25.2678 C   0  0  0  0  0  0  0  0  0  0  0  0
  -21.0648   -6.0764   23.8892 C   0  0  0  0  0  0  0  0  0  0  0  0
  -24.5964  -11.6745   20.7183 C   0  0  0  0  0  0  0  0  0  0  0  0
  -25.2757  -13.7514   20.4730 C   0  0  0  0  0  0  0  0  0  0  0  0
  -29.5252  -19.8642   24.0004 C   0  0  0  0  0  0  0  0  0  0  0  0
  -22.9112  -13.5415   21.2564 C   0  0  0  0  0  0  0  0  0  0  0  0
  -25.3122  -31.7032   25.1623 C   0  0  0  0  0  0  0  0  0  0  0  0
  -23.3496  -31.8506   27.7408 C   0  0  0  0  0  0  0  0  0  0  0  0
  -21.7287  -30.1948   30.2464 C   0  0  0  0  0  0  0  0  0  0  0  0
  -30.7489  -14.7611   20.6400 C   0  0  0  0  0  0  0  0  0  0  0  0
  -26.2836  -36.1307   22.8146 C   0  0  0  0  0  0  0  0  0  0  0  0
  -23.5891  -29.9561   24.5838 C   0  0  0  0  0  0  0  0  0  0  0  0
  -24.5553  -29.6667   27.3636 C   0  0  0  0  0  0  0  0  0  0  0  0
  -26.0155  -35.6931   24.2523 C   0  0  0  0  0  0  0  0  0  0  0  0
  -29.6187  -12.3323   18.2945 C   0  0  0  0  0  0  0  0  0  0  0  0
  -27.9724  -22.2770   21.8189 C   0  0  0  0  0  0  0  0  0  0  0  0
  -26.8880  -34.4964   24.6176 C   0  0  0  0  0  0  0  0  0  0  0  0
  -28.1770  -12.0548   18.7262 C   0  0  0  0  0  0  0  0  0  0  0  0
  -27.0501  -22.3602   23.0293 C   0  0  0  0  0  0  0  0  0  0  0  0
  -28.6412  -20.9196   21.9766 C   0  0  0  0  0  0  0  0  0  0  0  0
  -30.5350  -12.5664   19.4943 C   0  0  0  0  0  0  0  0  0  0  0  0
  -28.6326  -13.3171   20.8677 C   0  0  0  0  0  0  0  0  0  0  0  0
  -26.5749  -33.2915   23.7222 C   0  0  1  0  0  0  0  0  0  0  0  0
  -23.9368  -31.1676   25.4434 C   0  0  1  0  0  0  0  0  0  0  0  0
  -27.6590  -13.1393   19.6912 C   0  0  2  0  0  0  0  0  0  0  0  0
  -27.8659  -21.7255   24.1742 C   0  0  2  0  0  0  0  0  0  0  0  0
  -26.1835  -19.9041   24.4919 C   0  0  0  0  0  0  0  0  0  0  0  0
  -20.2308  -30.5888   32.2208 C   0  0  0  0  0  0  0  0  0  0  0  0
  -28.9732  -24.5681   26.5956 C   0  0  0  0  0  0  0  0  0  0  0  0
  -25.7327  -32.8891   29.3384 C   0  0  0  0  0  0  0  0  0  0  0  0
  -24.4687  -32.3616   31.4342 C   0  0  0  0  0  0  0  0  0  0  0  0
  -23.5677  -34.0421   29.8259 C   0  0  0  0  0  0  0  0  0  0  0  0
  -19.5712  -28.5326   29.0883 C   0  0  0  0  0  0  0  0  0  0  0  0
  -26.9526  -20.9986   25.1572 C   0  0  0  0  0  0  0  0  0  0  0  0
  -28.7499  -22.7520   24.8829 C   0  0  0  0  0  0  0  0  0  0  0  0
  -26.8479  -24.4400   25.2523 C   0  0  0  0  0  0  0  0  0  1  0  0
  -23.5055  -31.5885   29.2194 C   0  0  1  0  0  0  0  0  0  0  0  0
  -20.2936  -30.2649   30.7363 C   0  0  2  0  0  0  0  0  0  0  0  0
  -27.9852  -23.6315   25.8909 C   0  0  2  0  0  0  0  0  0  0  0  0
  -24.3237  -32.7001   29.9352 C   0  0  0  0  0  0  0  0  0  0  0  0
  -25.8607  -11.5660   20.3014 N   0  0  0  0  0  0  0  0  0  0  0  0
  -26.2465  -12.8457   20.1610 N   0  0  0  0  0  0  0  0  0  0  0  0
  -28.7304  -20.7624   23.4407 N   0  0  0  0  0  0  0  0  0  0  0  0
  -23.8759  -30.8790   26.8777 N   0  0  0  0  0  0  0  0  0  0  0  0
  -29.9828  -13.6094   20.3615 N   0  0  0  0  0  0  0  0  0  0  0  0
  -25.4953  -15.0806   20.3873 N   0  0  0  0  0  0  0  0  0  0  0  0
  -21.8930  -12.6425   21.6020 N   0  0  0  0  0  0  0  0  0  0  0  0
  -30.1076  -15.6983   21.4492 N   0  0  0  0  0  0  0  0  0  0  0  0
  -25.3533  -32.6459   24.1527 N   0  0  0  0  0  0  0  0  0  0  0  0
  -22.1572  -31.4061   29.7460 N   0  0  0  0  0  0  0  0  0  0  0  0
  -29.5926  -19.7339   25.3220 N   0  3  0  0  0  0  0  0  0  0  0  0
  -19.6047  -28.9629   30.5098 N   0  3  0  0  0  0  0  0  0  0  0  0
  -22.6834  -14.7742   21.3018 O   0  0  0  0  0  0  0  0  0  0  0  0
  -26.2653  -31.2928   25.8140 O   0  0  0  0  0  0  0  0  0  0  0  0
  -22.7755  -32.8759   27.3656 O   0  0  0  0  0  0  0  0  0  0  0  0
  -22.4033  -29.1692   30.3054 O   0  0  0  0  0  0  0  0  0  0  0  0
  -31.8793  -14.9175   20.1712 O   0  0  0  0  0  0  0  0  0  0  0  0
  -21.5815   -7.0827   21.7633 O   0  0  0  0  0  0  0  0  0  0  0  0
  -26.1262  -25.1706   26.2431 O   0  0  0  0  0  0  0  0  0  1  0  0
  -18.5879   -6.9891   26.3929 F   0  0  0  0  0  0  0  0  0  0  0  0
  -22.0179   -5.1545   23.6957 F   0  0  0  0  0  0  0  0  0  0  0  0
  1  2  1  0  0  0  0
  1  7  2  0  0  0  0
  2  8  2  0  0  0  0
  3  6  2  0  0  0  0
  3 10  1  0  0  0  0
  4 11  2  0  0  0  0
  4 19  1  0  0  0  0
  5 12  1  0  0  0  0
  5 19  2  0  0  0  0
  6 20  1  0  0  0  0
  7 22  1  0  0  0  0
  8 24  1  0  0  0  0
  9 13  2  0  0  0  0
  9 23  1  0  0  0  0
 10 26  2  0  0  0  0
 11 27  1  0  0  0  0
 12 27  2  0  0  0  0
 13 28  1  0  0  0  0
 14 15  2  0  0  0  0
 14 29  1  0  0  0  0
 15 30  1  0  0  0  0
 16 20  2  0  0  0  0
 16 26  1  0  0  0  0
 17 25  1  0  0  0  0
 17 28  2  0  0  0  0
 18 30  2  0  0  0  0
 18 31  1  0  0  0  0
 19 32  1  0  0  0  0
 20 34  1  0  0  0  0
 21 32  1  0  0  0  0
 21 33  2  0  0  0  0
 21 35  1  0  0  0  0
 22 24  2  0  0  0  0
 22 40  1  0  0  0  0
 23 25  2  0  0  0  0
 23 41  1  0  0  0  0
 24 52  1  0  0  0  0
 25 42  1  0  0  0  0
 26 77  1  0  0  0  0
 27 87  1  0  0  0  0
 28 88  1  0  0  0  0
 29 31  2  0  0  0  0
 29 87  1  0  0  0  0
 30 89  1  0  0  0  0
 31 90  1  0  0  0  0
 32 70  2  0  0  0  0
 33 71  1  0  0  0  0
 33 75  1  0  0  0  0
 34 72  1  0  0  0  0
 34 80  2  0  0  0  0
 35 76  1  0  0  0  0
 35 82  2  0  0  0  0
 36 53  1  0  0  0  0
 36 78  1  0  0  0  0
 36 83  2  0  0  0  0
 37 66  1  0  0  0  0
 37 73  1  0  0  0  0
 37 84  2  0  0  0  0
 38 67  1  0  0  0  0
 38 79  1  0  0  0  0
 38 85  2  0  0  0  0
 39 74  1  0  0  0  0
 39 77  1  0  0  0  0
 39 86  2  0  0  0  0
 40 43  1  0  0  0  0
 41 53  1  0  0  0  0
 42 73  1  0  0  0  0
 43 46  1  0  0  0  0
 44 47  1  0  0  0  0
 44 50  1  0  0  0  0
 45 48  1  0  0  0  0
 45 49  1  0  0  0  0
 46 52  1  0  0  0  0
 47 54  1  0  0  0  0
 48 55  1  0  0  0  0
 49 72  1  0  0  0  0
 50 74  1  0  0  0  0
 51 54  1  0  0  0  0
 51 74  1  0  0  0  0
 52 78  1  0  0  0  0
 53 73  1  0  0  0  0
 54 71  1  0  0  0  0
 55 63  1  0  0  0  0
 55 64  1  0  0  0  0
 55 72  1  0  0  0  0
 56 63  1  0  0  0  0
 57 67  1  0  0  0  0
 58 68  1  0  0  0  0
 59 69  1  0  0  0  0
 60 69  1  0  0  0  0
 61 69  1  0  0  0  0
 62 81  1  0  0  0  0
 64 68  1  0  0  0  0
 65 68  1  0  0  0  0
 65 88  1  0  0  0  0
 66 69  1  0  0  0  0
 66 79  1  0  0  0  0
 67 81  1  0  0  0  0
 70 71  1  0  0  0  0
M  CHG  2  80   1  81   1
M  ISO  4  39 100  65 101  77 100  88 101
M  END
> <Batch ID>
0145

> <Smiles>
CCC1(CC(C)[101CH2:1][101O:1]c2ccc3c(c2)CN(C(=O)C(NC(=O)C(C)NC)C(C)(C)C)C(C(=O)NC2CCCc4ccccc42)C3)CCCN1C(=N)c1cccc([100NH:0][100C:0](=O)N2CCCC(n3nc(-c4ccc(Oc5ccc(F)cc5F)cc4)c(C(N)=O)c3N)C2)c1

> <Shape>
0.248

> <Color>
0.184

> <Negative vol penalty>
0.000

$$$$

  -OEChem-04052303073D

 88 97  0     1  0  0  0  0  0999 V2000
  -30.0473  -36.6493   22.7463 C   0  0  0  0  0  0  0  0  0  0  0  0
  -30.0099  -35.6971   21.7327 C   0  0  0  0  0  0  0  0  0  0  0  0
  -24.6958   -8.8275   21.9596 C   0  0  0  0  0  0  0  0  0  0  0  0
  -23.3325   -9.7119   20.1719 C   0  0  0  0  0  0  0  0  0  0  0  0
  -29.5707  -36.3317   24.0175 C   0  0  0  0  0  0  0  0  0  0  0  0
  -29.4970  -34.4263   21.9901 C   0  0  0  0  0  0  0  0  0  0  0  0
  -25.8965  -29.1104   18.8130 C   0  0  0  0  0  0  0  0  0  0  0  0
  -23.5665   -8.2411   22.5309 C   0  0  0  0  0  0  0  0  0  0  0  0
  -22.2031   -9.1255   20.7431 C   0  0  0  0  0  0  0  0  0  0  0  0
  -25.9803  -27.7372   18.5872 C   0  0  0  0  0  0  0  0  0  0  0  0
  -21.6581   -5.4964   22.0230 C   0  0  0  0  0  0  0  0  0  0  0  0
  -21.7662   -4.1785   22.4667 C   0  0  0  0  0  0  0  0  0  0  0  0
  -26.5008  -18.6340   17.3448 C   0  0  0  0  0  0  0  0  0  0  0  0
  -25.1121  -27.3264   20.8001 C   0  0  0  0  0  0  0  0  0  0  0  0
  -21.2091   -4.8875   24.7082 C   0  0  0  0  0  0  0  0  0  0  0  0
  -24.5788   -9.5629   20.7802 C   0  0  0  0  0  0  0  0  0  0  0  0
  -25.8030  -19.2520   16.2672 C   0  0  0  0  0  0  0  0  0  0  0  0
  -26.6143   -9.5956   19.2429 C   0  0  0  0  0  0  0  0  0  0  0  0
  -29.0428  -35.0594   24.2881 C   0  0  0  0  0  0  0  0  0  0  0  0
  -25.4293  -29.6027   20.0401 C   0  0  0  0  0  0  0  0  0  0  0  0
  -29.0142  -34.0909   23.2665 C   0  0  0  0  0  0  0  0  0  0  0  0
  -25.0209  -28.7063   21.0380 C   0  0  0  0  0  0  0  0  0  0  0  0
  -22.3201   -8.3901   21.9226 C   0  0  0  0  0  0  0  0  0  0  0  0
  -25.5908  -26.8449   19.5818 C   0  0  0  0  0  0  0  0  0  0  0  0
  -21.3256   -6.5100   22.9218 C   0  0  0  0  0  0  0  0  0  0  0  0
  -21.5417   -3.8740   23.8093 C   0  0  0  0  0  0  0  0  0  0  0  0
  -21.1011   -6.2055   24.2644 C   0  0  0  0  0  0  0  0  0  0  0  0
  -25.7450  -10.1693   20.1899 C   0  0  0  0  0  0  0  0  0  0  0  0
  -24.8794  -18.4051   15.6952 C   0  0  0  0  0  0  0  0  0  0  0  0
  -27.5545  -10.5685   19.0061 C   0  0  0  0  0  0  0  0  0  0  0  0
  -26.0836  -17.3380   17.5556 C   0  0  0  0  0  0  0  0  0  0  0  0
  -26.0498  -20.6362   15.8250 C   0  0  0  0  0  0  0  0  0  0  0  0
  -26.5755   -8.2992   18.6317 C   0  0  0  0  0  0  0  0  0  0  0  0
  -26.6736  -31.3776   22.3651 C   0  0  0  0  0  0  0  0  0  0  0  0
  -23.6556  -31.2495   23.5472 C   0  0  0  0  0  0  0  0  0  0  0  0
  -20.6648  -29.6115   23.6843 C   0  0  0  0  0  0  0  0  0  0  0  0
  -27.4772  -16.5238   19.4899 C   0  0  0  0  0  0  0  0  0  0  0  0
  -28.5831  -34.7473   25.6902 C   0  0  0  0  0  0  0  0  0  0  0  0
  -25.3198  -31.0869   20.2582 C   0  0  0  0  0  0  0  0  0  0  0  0
  -24.4932  -29.1839   22.3654 C   0  0  0  0  0  0  0  0  0  0  0  0
  -27.7105  -33.4981   25.7812 C   0  0  0  0  0  0  0  0  0  0  0  0
  -29.7133  -14.2837   21.1206 C   0  0  0  0  0  0  0  0  0  0  0  0
  -28.3325  -32.3534   24.9877 C   0  0  0  0  0  0  0  0  0  0  0  0
  -29.0315  -12.9213   20.9755 C   0  0  0  0  0  0  0  0  0  0  0  0
  -24.7786  -22.9725   18.2753 C   0  0  0  0  0  0  0  0  0  0  0  0
  -28.6992  -15.4047   21.3417 C   0  0  0  0  0  0  0  0  0  0  0  0
  -24.8639  -21.5435   17.7552 C   0  0  0  0  0  0  0  0  0  0  0  0
  -26.9406  -14.1108   20.2005 C   0  0  0  0  0  0  0  0  0  0  0  0
  -28.4425  -32.7093   23.5001 C   0  0  1  0  0  0  0  0  0  0  0  0
  -25.3137  -31.4752   21.7336 C   0  0  1  0  0  0  0  0  0  0  0  0
  -27.9173  -12.9592   19.9112 C   0  0  2  0  0  0  0  0  0  0  0  0
  -26.1945  -23.5470   18.0544 C   0  0  2  0  0  0  0  0  0  0  0  0
  -26.5847  -22.9456   16.6514 C   0  0  0  0  0  0  0  0  0  0  0  0
  -23.9605  -18.6604   14.5633 C   0  0  0  0  0  0  0  0  0  0  0  0
  -27.1156  -23.0626   19.1972 C   0  0  0  0  0  0  0  0  0  0  0  0
  -28.0910  -22.7355   16.4679 C   0  0  0  0  0  0  0  0  0  0  0  0
  -26.0293  -23.7384   15.4559 C   0  0  0  0  0  0  0  0  0  0  0  0
  -18.4032  -29.7272   24.7654 C   0  0  0  0  0  0  0  0  0  0  0  0
  -24.8572  -30.2389   26.1634 C   0  0  0  0  0  0  0  0  0  0  0  0
  -22.5683  -29.4850   26.8425 C   0  0  0  0  0  0  0  0  0  0  0  0
  -23.0132  -31.9059   26.4377 C   0  0  0  0  0  0  0  0  0  0  0  0
  -19.2984  -29.8437   21.0693 C   0  0  0  0  0  0  0  0  0  0  0  0
  -26.1658  -25.0810   18.0939 C   0  0  0  0  0  0  0  0  0  1  0  0
  -22.9082  -30.3194   24.4720 C   0  0  1  0  0  0  0  0  0  0  0  0
  -19.2368  -30.1091   23.5522 C   0  0  2  0  0  0  0  0  0  0  0  0
  -23.3485  -30.4779   25.9547 C   0  0  0  0  0  0  0  0  0  0  0  0
  -26.1013  -11.4105   20.5315 N   0  0  0  0  0  0  0  0  0  0  0  0
  -27.2049  -11.6246   19.7952 N   0  0  0  0  0  0  0  0  0  0  0  0
  -25.8663  -21.6336   16.6766 N   0  0  0  0  0  0  0  0  0  0  0  0
  -24.4111  -30.6442   22.5330 N   0  0  0  0  0  0  0  0  0  0  0  0
  -27.6768  -15.3813   20.2933 N   0  0  0  0  0  0  0  0  0  0  0  0
  -28.6378  -10.6151   18.2020 N   0  0  0  0  0  0  0  0  0  0  0  0
  -25.5411   -7.4232   18.9882 N   0  0  0  0  0  0  0  0  0  0  0  0
  -26.5013  -16.3729   18.5053 N   0  0  0  0  0  0  0  0  0  0  0  0
  -27.1550  -32.5777   22.8524 N   0  0  0  0  0  0  0  0  0  0  0  0
  -21.4892  -30.5667   24.2403 N   0  0  0  0  0  0  0  0  0  0  0  0
  -26.4546  -20.8615   14.5786 N   0  3  0  0  0  0  0  0  0  0  0  0
  -18.5955  -29.5272   22.3393 N   0  3  0  0  0  0  0  0  0  0  0  0
  -27.4420   -7.9225   17.8066 O   0  0  0  0  0  0  0  0  0  0  0  0
  -27.2433  -30.2935   22.4084 O   0  0  0  0  0  0  0  0  0  0  0  0
  -23.5664  -32.4685   23.7140 O   0  0  0  0  0  0  0  0  0  0  0  0
  -21.0133  -28.4864   23.3330 O   0  0  0  0  0  0  0  0  0  0  0  0
  -28.1432  -17.5506   19.6450 O   0  0  0  0  0  0  0  0  0  0  0  0
  -21.2179   -7.8178   22.4796 O   0  0  0  0  0  0  0  0  0  0  0  0
  -25.6722  -25.5040   19.3643 O   0  0  0  0  0  0  0  0  0  1  0  0
  -21.6440   -2.6081   24.2350 F   0  0  0  0  0  0  0  0  0  0  0  0
  -20.7802   -7.1747   25.1324 F   0  0  0  0  0  0  0  0  0  0  0  0
  -24.8559  -16.8715   16.4568 S   0  0  0  0  0  0  0  0  0  0  0  0
  1  2  1  0  0  0  0
  1  5  2  0  0  0  0
  2  6  2  0  0  0  0
  3  8  2  0  0  0  0
  3 16  1  0  0  0  0
  4  9  1  0  0  0  0
  4 16  2  0  0  0  0
  5 19  1  0  0  0  0
  6 21  1  0  0  0  0
  7 10  2  0  0  0  0
  7 20  1  0  0  0  0
  8 23  1  0  0  0  0
  9 23  2  0  0  0  0
 10 24  1  0  0  0  0
 11 12  2  0  0  0  0
 11 25  1  0  0  0  0
 12 26  1  0  0  0  0
 13 17  1  0  0  0  0
 13 31  2  0  0  0  0
 14 22  1  0  0  0  0
 14 24  2  0  0  0  0
 15 26  2  0  0  0  0
 15 27  1  0  0  0  0
 16 28  1  0  0  0  0
 17 29  2  0  0  0  0
 17 32  1  0  0  0  0
 18 28  1  0  0  0  0
 18 30  2  0  0  0  0
 18 33  1  0  0  0  0
 19 21  2  0  0  0  0
 19 38  1  0  0  0  0
 20 22  2  0  0  0  0
 20 39  1  0  0  0  0
 21 49  1  0  0  0  0
 22 40  1  0  0  0  0
 23 84  1  0  0  0  0
 24 85  1  0  0  0  0
 25 27  2  0  0  0  0
 25 84  1  0  0  0  0
 26 86  1  0  0  0  0
 27 87  1  0  0  0  0
 28 67  2  0  0  0  0
 29 54  1  0  0  0  0
 29 88  1  0  0  0  0
 30 68  1  0  0  0  0
 30 72  1  0  0  0  0
 31 74  1  0  0  0  0
 31 88  1  0  0  0  0
 32 69  1  0  0  0  0
 32 77  2  0  0  0  0
 33 73  1  0  0  0  0
 33 79  2  0  0  0  0
 34 50  1  0  0  0  0
 34 75  1  0  0  0  0
 34 80  2  0  0  0  0
 35 64  1  0  0  0  0
 35 70  1  0  0  0  0
 35 81  2  0  0  0  0
 36 65  1  0  0  0  0
 36 76  1  0  0  0  0
 36 82  2  0  0  0  0
 37 71  1  0  0  0  0
 37 74  1  0  0  0  0
 37 83  2  0  0  0  0
 38 41  1  0  0  0  0
 39 50  1  0  0  0  0
 40 70  1  0  0  0  0
 41 43  1  0  0  0  0
 42 44  1  0  0  0  0
 42 46  1  0  0  0  0
 43 49  1  0  0  0  0
 44 51  1  0  0  0  0
 45 47  1  0  0  0  0
 45 52  1  0  0  0  0
 46 71  1  0  0  0  0
 47 69  1  0  0  0  0
 48 51  1  0  0  0  0
 48 71  1  0  0  0  0
 49 75  1  0  0  0  0
 50 70  1  0  0  0  0
 51 68  1  0  0  0  0
 52 53  1  0  0  0  0
 52 55  1  0  0  0  0
 52 63  1  0  0  0  0
 53 56  1  0  0  0  0
 53 57  1  0  0  0  0
 53 69  1  0  0  0  0
 58 65  1  0  0  0  0
 59 66  1  0  0  0  0
 60 66  1  0  0  0  0
 61 66  1  0  0  0  0
 62 78  1  0  0  0  0
 63 85  1  0  0  0  0
 64 66  1  0  0  0  0
 64 76  1  0  0  0  0
 65 78  1  0  0  0  0
 67 68  1  0  0  0  0
M  CHG  2  77   1  78   1
M  ISO  4  37 100  63 101  74 100  85 101
M  END
> <Batch ID>
0145

> <Smiles>
CNC(C)C(=O)NC(C(=O)N1Cc2cc([101O:1][101CH2:1]C3(C)CCN(C(=N)c4cc([100NH:0][100C:0](=O)N5CCCC(n6nc(-c7ccc(Oc8ccc(F)cc8F)cc7)c(C(N)=O)c6N)C5)sc4C)C3(C)C)ccc2CC1C(=O)NC1CCCc2ccccc21)C(C)(C)C

> <Shape>
0.255

> <Color>
0.099

> <Negative vol penalty>
0.000

$$$$

  -OEChem-04052303073D

 85 94  0     1  0  0  0  0  0999 V2000
  -27.1772  -19.3882   26.0240 C   0  0  0  0  0  0  0  0  0  0  0  0
  -27.4893  -20.2411   24.9701 C   0  0  0  0  0  0  0  0  0  0  0  0
  -26.6180  -12.5849   21.7404 C   0  0  0  0  0  0  0  0  0  0  0  0
  -25.9282  -13.9567   19.8751 C   0  0  0  0  0  0  0  0  0  0  0  0
  -25.8438  -19.1392   26.3464 C   0  0  0  0  0  0  0  0  0  0  0  0
  -26.4680  -20.8447   24.2373 C   0  0  0  0  0  0  0  0  0  0  0  0
  -27.3297  -25.7626   23.3907 C   0  0  0  0  0  0  0  0  0  0  0  0
  -30.2026  -23.9748   19.7360 C   0  0  0  0  0  0  0  0  0  0  0  0
  -30.2443  -22.8005   20.4948 C   0  0  0  0  0  0  0  0  0  0  0  0
  -25.3456  -12.0158   21.7924 C   0  0  0  0  0  0  0  0  0  0  0  0
  -24.6558  -13.3876   19.9271 C   0  0  0  0  0  0  0  0  0  0  0  0
  -28.2353  -26.0858   22.3811 C   0  0  0  0  0  0  0  0  0  0  0  0
  -23.6040   -9.6510   20.1169 C   0  0  0  0  0  0  0  0  0  0  0  0
  -23.5187   -8.2660   20.2591 C   0  0  0  0  0  0  0  0  0  0  0  0
  -28.9783  -21.6068   18.8018 C   0  0  0  0  0  0  0  0  0  0  0  0
  -26.3974  -26.5292   20.8828 C   0  0  0  0  0  0  0  0  0  0  0  0
  -22.3007   -8.5534   22.3258 C   0  0  0  0  0  0  0  0  0  0  0  0
  -26.9093  -13.5554   20.7817 C   0  0  0  0  0  0  0  0  0  0  0  0
  -29.3287  -13.6891   19.9842 C   0  0  0  0  0  0  0  0  0  0  0  0
  -24.8058  -19.7477   25.6233 C   0  0  0  0  0  0  0  0  0  0  0  0
  -25.9490  -25.8098   23.1502 C   0  0  0  0  0  0  0  0  0  0  0  0
  -25.1195  -20.6026   24.5494 C   0  0  0  0  0  0  0  0  0  0  0  0
  -28.9539  -22.7751   18.0590 C   0  0  0  0  0  0  0  0  0  0  0  0
  -25.4764  -26.2086   21.8917 C   0  0  0  0  0  0  0  0  0  0  0  0
  -29.5541  -23.9574   18.5108 C   0  0  0  0  0  0  0  0  0  0  0  0
  -29.6360  -21.6249   20.0310 C   0  0  0  0  0  0  0  0  0  0  0  0
  -24.3645  -12.4172   20.8858 C   0  0  0  0  0  0  0  0  0  0  0  0
  -27.7693  -26.4663   21.1261 C   0  0  0  0  0  0  0  0  0  0  0  0
  -23.0379  -10.4871   21.0792 C   0  0  0  0  0  0  0  0  0  0  0  0
  -22.8670   -7.7172   21.3635 C   0  0  0  0  0  0  0  0  0  0  0  0
  -22.3862   -9.9383   22.1836 C   0  0  0  0  0  0  0  0  0  0  0  0
  -28.2233  -14.1440   20.7278 C   0  0  0  0  0  0  0  0  0  0  0  0
  -30.3288  -14.5854   20.2725 C   0  0  0  0  0  0  0  0  0  0  0  0
  -29.4415  -12.5576   19.1109 C   0  0  0  0  0  0  0  0  0  0  0  0
  -23.5919  -23.6776   23.1842 C   0  0  0  0  0  0  0  0  0  0  0  0
  -21.7394  -26.2963   22.7017 C   0  0  0  0  0  0  0  0  0  0  0  0
  -21.4980  -29.5044   21.5628 C   0  0  0  0  0  0  0  0  0  0  0  0
  -30.3100  -20.2880   22.0570 C   0  0  0  0  0  0  0  0  0  0  0  0
  -23.3792  -19.4110   25.9786 C   0  0  0  0  0  0  0  0  0  0  0  0
  -24.9848  -25.4840   24.2577 C   0  0  0  0  0  0  0  0  0  0  0  0
  -28.2955  -23.0237   16.7403 C   0  0  0  0  0  0  0  0  0  0  0  0
  -24.0036  -26.2949   21.5886 C   0  0  0  0  0  0  0  0  0  0  0  0
  -22.3595  -20.3837   25.3918 C   0  0  0  0  0  0  0  0  0  0  0  0
  -31.8288  -17.5376   23.7320 C   0  0  0  0  0  0  0  0  0  0  0  0
  -22.6603  -20.6489   23.9201 C   0  0  0  0  0  0  0  0  0  0  0  0
  -31.1816  -16.3137   23.0798 C   0  0  0  0  0  0  0  0  0  0  0  0
  -28.8850  -24.3985   16.3649 C   0  0  0  0  0  0  0  0  0  0  0  0
  -30.8372  -18.6896   23.8851 C   0  0  0  0  0  0  0  0  0  0  0  0
  -29.4905  -17.8507   22.0005 C   0  0  0  0  0  0  0  0  0  0  0  0
  -24.0399  -21.2956   23.7468 C   0  0  1  0  0  0  0  0  0  0  0  0
  -23.6076  -25.0700   23.7485 C   0  0  1  0  0  0  0  0  0  0  0  0
  -30.4674  -16.6869   21.7660 C   0  0  2  0  0  0  0  0  0  0  0  0
  -19.8463  -31.3701   21.2654 C   0  0  0  0  0  0  0  0  0  0  0  0
  -20.5525  -24.8574   20.2870 C   0  0  0  0  0  0  0  0  0  0  0  0
  -19.6552  -27.0595   19.5035 C   0  0  0  0  0  0  0  0  0  0  0  0
  -18.8909  -26.1058   21.6781 C   0  0  0  0  0  0  0  0  0  0  0  0
  -30.1112  -28.6021   18.3820 C   0  0  0  0  0  0  0  0  0  0  0  0
  -28.5840  -27.9078   16.5288 C   0  0  0  0  0  0  0  0  0  0  0  0
  -23.0265  -31.2984   23.3528 C   0  0  0  0  0  0  0  0  0  0  0  0
  -30.1330  -26.2221   17.6265 C   0  0  0  0  0  0  0  0  0  0  0  0
  -28.1042  -27.1633   18.8771 C   0  0  0  0  0  0  0  0  0  1  0  0
  -21.2330  -27.0389   21.4888 C   0  0  1  0  0  0  0  0  0  0  0  0
  -20.8896  -30.7499   22.1817 C   0  0  2  0  0  0  0  0  0  0  0  0
  -20.1108  -26.2620   20.7442 C   0  0  0  0  0  0  0  0  0  0  0  0
  -29.2247  -27.4550   17.8539 C   0  0  0  0  0  0  0  0  0  0  0  0
  -28.4952  -15.2437   21.4354 N   0  0  0  0  0  0  0  0  0  0  0  0
  -29.7829  -15.4873   21.1378 N   0  0  0  0  0  0  0  0  0  0  0  0
  -29.3803  -24.9937   17.6043 N   0  0  2  0  0  0  0  0  0  0  0  0
  -23.1007  -25.9604   22.7023 N   0  0  0  0  0  0  0  0  0  0  0  0
  -30.2027  -18.9901   22.5999 N   0  0  0  0  0  0  0  0  0  0  0  0
  -31.6130  -14.6821   19.8677 N   0  0  0  0  0  0  0  0  0  0  0  0
  -28.3174  -11.7410   18.9270 N   0  0  0  0  0  0  0  0  0  0  0  0
  -29.6947  -20.4465   20.8157 N   0  0  0  0  0  0  0  0  0  0  0  0
  -23.9842  -22.7025   24.0814 N   0  0  0  0  0  0  0  0  0  0  0  0
  -20.8344  -28.3618   21.9570 N   0  0  0  0  0  0  0  0  0  0  0  0
  -21.9469  -31.7664   22.4459 N   0  3  0  0  0  0  0  0  0  0  0  0
  -30.5122  -12.2696   18.5242 O   0  0  0  0  0  0  0  0  0  0  0  0
  -23.2478  -23.5007   22.0214 O   0  0  0  0  0  0  0  0  0  0  0  0
  -20.9577  -26.0306   23.6181 O   0  0  0  0  0  0  0  0  0  0  0  0
  -22.4629  -29.5417   20.8025 O   0  0  0  0  0  0  0  0  0  0  0  0
  -30.9273  -21.1850   22.6370 O   0  0  0  0  0  0  0  0  0  0  0  0
  -23.1228  -11.8619   20.9362 O   0  0  0  0  0  0  0  0  0  0  0  0
  -28.6511  -26.7817   20.1387 O   0  0  0  0  0  0  0  0  0  1  0  0
  -22.7837   -6.3872   21.4992 F   0  0  0  0  0  0  0  0  0  0  0  0
  -21.8393  -10.7365   23.1107 F   0  0  0  0  0  0  0  0  0  0  0  0
  1  2  1  0  0  0  0
  1  5  2  0  0  0  0
  2  6  2  0  0  0  0
  3 10  2  0  0  0  0
  3 18  1  0  0  0  0
  4 11  1  0  0  0  0
  4 18  2  0  0  0  0
  5 20  1  0  0  0  0
  6 22  1  0  0  0  0
  7 12  2  0  0  0  0
  7 21  1  0  0  0  0
  8  9  2  0  0  0  0
  8 25  1  0  0  0  0
  9 26  1  0  0  0  0
 10 27  1  0  0  0  0
 11 27  2  0  0  0  0
 12 28  1  0  0  0  0
 13 14  2  0  0  0  0
 13 29  1  0  0  0  0
 14 30  1  0  0  0  0
 15 23  1  0  0  0  0
 15 26  2  0  0  0  0
 16 24  1  0  0  0  0
 16 28  2  0  0  0  0
 17 30  2  0  0  0  0
 17 31  1  0  0  0  0
 18 32  1  0  0  0  0
 19 32  1  0  0  0  0
 19 33  2  0  0  0  0
 19 34  1  0  0  0  0
 20 22  2  0  0  0  0
 20 39  1  0  0  0  0
 21 24  2  0  0  0  0
 21 40  1  0  0  0  0
 22 50  1  0  0  0  0
 23 25  2  0  0  0  0
 23 41  1  0  0  0  0
 24 42  1  0  0  0  0
 25 68  1  0  0  0  0
 26 73  1  0  0  0  0
 27 82  1  0  0  0  0
 28 83  1  0  0  0  0
 29 31  2  0  0  0  0
 29 82  1  0  0  0  0
 30 84  1  0  0  0  0
 31 85  1  0  0  0  0
 32 66  2  0  0  0  0
 33 67  1  0  0  0  0
 33 71  1  0  0  0  0
 34 72  1  0  0  0  0
 34 77  2  0  0  0  0
 35 51  1  0  0  0  0
 35 74  1  0  0  0  0
 35 78  2  0  0  0  0
 36 62  1  0  0  0  0
 36 69  1  0  0  0  0
 36 79  2  0  0  0  0
 37 63  1  0  0  0  0
 37 75  1  0  0  0  0
 37 80  2  0  0  0  0
 38 70  1  0  0  0  0
 38 73  1  0  0  0  0
 38 81  2  0  0  0  0
 39 43  1  0  0  0  0
 40 51  1  0  0  0  0
 41 47  1  0  0  0  0
 42 69  1  0  0  0  0
 43 45  1  0  0  0  0
 44 46  1  0  0  0  0
 44 48  1  0  0  0  0
 45 50  1  0  0  0  0
 46 52  1  0  0  0  0
 47 68  1  0  0  0  0
 48 70  1  0  0  0  0
 49 52  1  0  0  0  0
 49 70  1  0  0  0  0
 50 74  1  0  0  0  0
 51 69  1  0  0  0  0
 52 67  1  0  0  0  0
 53 63  1  0  0  0  0
 54 64  1  0  0  0  0
 55 64  1  0  0  0  0
 56 64  1  0  0  0  0
 57 65  1  0  0  0  0
 58 65  1  0  0  0  0
 59 76  1  0  0  0  0
 60 65  1  0  0  0  0
 60 68  1  0  0  0  0
 61 65  1  0  0  0  0
 61 83  1  0  0  0  0
 62 64  1  0  0  0  0
 62 75  1  0  0  0  0
 63 76  1  0  0  0  0
 66 67  1  0  0  0  0
M  CHG  1  76   1
M  ISO  4  38 100  61 101  73 100  83 101
M  END
> <Batch ID>
0145

> <Smiles>
CNC(C)C(=O)NC(C(=O)N1Cc2cc([101O:1][101CH2:1]C(C)(C)CN3CCc4cc([100NH:0][100C:0](=O)N5CCCC(n6nc(-c7ccc(Oc8ccc(F)cc8F)cc7)c(C(N)=O)c6N)C5)ccc43)ccc2CC1C(=O)NC1CCCc2ccccc21)C(C)(C)C

> <Shape>
0.260

> <Color>
0.072

> <Negative vol penalty>
0.000

$$$$

  -OEChem-04052303073D

 87 96  0     1  0  0  0  0  0999 V2000
  -24.5683  -22.9316   17.5937 C   0  0  0  0  0  0  0  0  0  0  0  0
  -25.5619  -22.1153   18.1244 C   0  0  0  0  0  0  0  0  0  0  0  0
  -22.2712  -26.7728   21.0702 C   0  0  0  0  0  0  0  0  0  0  0  0
  -22.4442  -29.1363   21.5407 C   0  0  0  0  0  0  0  0  0  0  0  0
  -23.2319  -22.7021   17.9184 C   0  0  0  0  0  0  0  0  0  0  0  0
  -25.2199  -21.0696   18.9812 C   0  0  0  0  0  0  0  0  0  0  0  0
  -27.6700  -16.7763   17.8814 C   0  0  0  0  0  0  0  0  0  0  0  0
  -21.2579  -26.6576   22.0217 C   0  0  0  0  0  0  0  0  0  0  0  0
  -21.4308  -29.0210   22.4922 C   0  0  0  0  0  0  0  0  0  0  0  0
  -28.9963  -16.6752   18.2992 C   0  0  0  0  0  0  0  0  0  0  0  0
  -18.6403  -29.4188   24.7885 C   0  0  0  0  0  0  0  0  0  0  0  0
  -17.6351  -30.3859   24.7869 C   0  0  0  0  0  0  0  0  0  0  0  0
  -31.1696  -21.6558   18.5954 C   0  0  0  0  0  0  0  0  0  0  0  0
  -30.1092  -21.0283   20.6883 C   0  0  0  0  0  0  0  0  0  0  0  0
  -28.2932  -15.3546   20.1915 C   0  0  0  0  0  0  0  0  0  0  0  0
  -17.0509  -29.7749   22.5236 C   0  0  0  0  0  0  0  0  0  0  0  0
  -22.8644  -28.0122   20.8297 C   0  0  0  0  0  0  0  0  0  0  0  0
  -30.8218  -22.9958   18.7902 C   0  0  0  0  0  0  0  0  0  0  0  0
  -23.7630  -28.4157   18.4766 C   0  0  0  0  0  0  0  0  0  0  0  0
  -22.8725  -21.6472   18.7719 C   0  0  0  0  0  0  0  0  0  0  0  0
  -26.6425  -16.1756   18.6228 C   0  0  0  0  0  0  0  0  0  0  0  0
  -23.8776  -20.8267   19.3187 C   0  0  0  0  0  0  0  0  0  0  0  0
  -29.7614  -22.3577   20.8700 C   0  0  0  0  0  0  0  0  0  0  0  0
  -26.9549  -15.4474   19.7796 C   0  0  0  0  0  0  0  0  0  0  0  0
  -30.1153  -23.3327   19.9356 C   0  0  0  0  0  0  0  0  0  0  0  0
  -30.8161  -20.6789   19.5373 C   0  0  0  0  0  0  0  0  0  0  0  0
  -20.8376  -27.7816   22.7327 C   0  0  0  0  0  0  0  0  0  0  0  0
  -29.3077  -15.9667   19.4560 C   0  0  0  0  0  0  0  0  0  0  0  0
  -18.8508  -28.6298   23.6576 C   0  0  0  0  0  0  0  0  0  0  0  0
  -16.8404  -30.5639   23.6544 C   0  0  0  0  0  0  0  0  0  0  0  0
  -18.0561  -28.8078   22.5252 C   0  0  0  0  0  0  0  0  0  0  0  0
  -23.9117  -28.1318   19.8474 C   0  0  0  0  0  0  0  0  0  0  0  0
  -25.0458  -28.4204   17.9858 C   0  0  0  0  0  0  0  0  0  0  0  0
  -31.1114  -23.9101   17.6959 C   0  0  0  0  0  0  0  0  0  0  0  0
  -22.5719  -28.6540   17.7150 C   0  0  0  0  0  0  0  0  0  0  0  0
  -24.0797  -17.2378   20.1744 C   0  0  0  0  0  0  0  0  0  0  0  0
  -23.4661  -14.0728   20.5324 C   0  0  0  0  0  0  0  0  0  0  0  0
  -24.6720  -10.8820   20.6418 C   0  0  0  0  0  0  0  0  0  0  0  0
  -30.9089  -18.2346   20.1342 C   0  0  0  0  0  0  0  0  0  0  0  0
  -30.0949  -25.8160   19.8333 C   0  0  0  0  0  0  0  0  0  0  0  0
  -21.4189  -21.4675   19.1316 C   0  0  0  0  0  0  0  0  0  0  0  0
  -25.2197  -16.2714   18.1441 C   0  0  0  0  0  0  0  0  0  0  0  0
  -29.0683  -22.9597   22.0494 C   0  0  0  0  0  0  0  0  0  0  0  0
  -25.8908  -14.7669   20.5999 C   0  0  0  0  0  0  0  0  0  0  0  0
  -21.1080  -20.1065   19.7492 C   0  0  0  0  0  0  0  0  0  0  0  0
  -29.5589  -29.2611   19.2694 C   0  0  0  0  0  0  0  0  0  0  0  0
  -22.1331  -19.7617   20.8248 C   0  0  0  0  0  0  0  0  0  0  0  0
  -28.0395  -29.4054   19.2580 C   0  0  0  0  0  0  0  0  0  0  0  0
  -28.8131  -24.3914   21.5611 C   0  0  0  0  0  0  0  0  0  0  0  0
  -29.9969  -28.2426   20.3131 C   0  0  0  0  0  0  0  0  0  0  0  0
  -27.8626  -26.9979   20.0757 C   0  0  0  0  0  0  0  0  0  0  0  0
  -23.5442  -19.6670   20.2320 C   0  0  1  0  0  0  0  0  0  0  0  0
  -24.1990  -16.0540   19.2569 C   0  0  1  0  0  0  0  0  0  0  0  0
  -27.3674  -28.0392   19.0509 C   0  0  1  0  0  0  0  0  0  0  0  0
  -32.5433  -24.0467   17.2679 C   0  0  0  0  0  0  0  0  0  0  0  0
  -23.9350   -8.5084   20.9883 C   0  0  0  0  0  0  0  0  0  0  0  0
  -32.8700  -16.6505   20.0715 C   0  0  0  0  0  0  0  0  0  0  0  0
  -23.2373  -14.5841   23.5318 C   0  0  0  0  0  0  0  0  0  0  0  0
  -23.4539  -12.1170   23.8984 C   0  0  0  0  0  0  0  0  0  0  0  0
  -21.5201  -13.0191   22.6064 C   0  0  0  0  0  0  0  0  0  0  0  0
  -25.5804  -10.0836   17.9407 C   0  0  0  0  0  0  0  0  0  0  0  0
  -23.8212  -13.0243   21.5590 C   0  0  1  0  0  0  0  0  0  0  0  0
  -24.2035   -9.6045   19.9689 C   0  0  2  0  0  0  0  0  0  0  0  0
  -31.4736  -16.9451   19.5440 C   0  0  1  0  0  0  0  0  0  1  0  0
  -23.0282  -13.2005   22.8847 C   0  0  0  0  0  0  0  0  0  0  0  0
  -25.1883  -27.9678   20.2045 N   0  0  0  0  0  0  0  0  0  0  0  0
  -25.8534  -28.1492   19.0509 N   0  0  0  0  0  0  0  0  0  0  0  0
  -29.6432  -24.5992   20.3487 N   0  0  0  0  0  0  0  0  0  0  0  0
  -24.5140  -14.8948   20.0942 N   0  0  0  0  0  0  0  0  0  0  0  0
  -29.3289  -26.9534   20.1287 N   0  0  0  0  0  0  0  0  0  0  0  0
  -25.5505  -28.6299   16.7514 N   0  0  0  0  0  0  0  0  0  0  0  0
  -21.3367  -28.6121   18.3760 N   0  0  0  0  0  0  0  0  0  0  0  0
  -31.1746  -19.3474   19.3219 N   0  0  0  0  0  0  0  0  0  0  0  0
  -23.7171  -18.4092   19.5373 N   0  0  0  0  0  0  0  0  0  0  0  0
  -23.6209  -11.7332   20.9099 N   0  0  0  0  0  0  0  0  0  0  0  0
  -25.2359   -9.1142   19.0125 N   0  3  0  0  0  0  0  0  0  0  0  0
  -30.2703  -24.5836   17.0978 O   0  0  0  0  0  0  0  0  0  0  0  0
  -22.6008  -28.8808   16.4816 O   0  0  0  0  0  0  0  0  0  0  0  0
  -24.2989  -17.0985   21.3720 O   0  0  0  0  0  0  0  0  0  0  0  0
  -22.3033  -14.1545   20.1288 O   0  0  0  0  0  0  0  0  0  0  0  0
  -25.8520  -11.1012   20.9069 O   0  0  0  0  0  0  0  0  0  0  0  0
  -30.2882  -18.2314   21.1934 O   0  0  0  0  0  0  0  0  0  0  0  0
  -31.1556  -25.9154   19.2041 O   0  0  0  0  0  0  0  0  0  0  0  0
  -19.8486  -27.6696   23.6611 O   0  0  0  0  0  0  0  0  0  0  0  0
  -30.6118  -15.8661   19.8696 O   0  0  0  0  0  0  0  0  0  1  0  0
  -15.8742  -31.4916   23.6536 F   0  0  0  0  0  0  0  0  0  0  0  0
  -18.2528  -28.0520   21.4362 F   0  0  0  0  0  0  0  0  0  0  0  0
  1  2  1  0  0  0  0
  1  5  2  0  0  0  0
  2  6  2  0  0  0  0
  3  8  2  0  0  0  0
  3 17  1  0  0  0  0
  4  9  1  0  0  0  0
  4 17  2  0  0  0  0
  5 20  1  0  0  0  0
  6 22  1  0  0  0  0
  7 10  2  0  0  0  0
  7 21  1  0  0  0  0
  8 27  1  0  0  0  0
  9 27  2  0  0  0  0
 10 28  1  0  0  0  0
 11 12  2  0  0  0  0
 11 29  1  0  0  0  0
 12 30  1  0  0  0  0
 13 18  1  0  0  0  0
 13 26  2  0  0  0  0
 14 23  2  0  0  0  0
 14 26  1  0  0  0  0
 15 24  1  0  0  0  0
 15 28  2  0  0  0  0
 16 30  2  0  0  0  0
 16 31  1  0  0  0  0
 17 32  1  0  0  0  0
 18 25  2  0  0  0  0
 18 34  1  0  0  0  0
 19 32  1  0  0  0  0
 19 33  2  0  0  0  0
 19 35  1  0  0  0  0
 20 22  2  0  0  0  0
 20 41  1  0  0  0  0
 21 24  2  0  0  0  0
 21 42  1  0  0  0  0
 22 52  1  0  0  0  0
 23 25  1  0  0  0  0
 23 43  1  0  0  0  0
 24 44  1  0  0  0  0
 25 68  1  0  0  0  0
 26 73  1  0  0  0  0
 27 84  1  0  0  0  0
 28 85  1  0  0  0  0
 29 31  2  0  0  0  0
 29 84  1  0  0  0  0
 30 86  1  0  0  0  0
 31 87  1  0  0  0  0
 32 66  2  0  0  0  0
 33 67  1  0  0  0  0
 33 71  1  0  0  0  0
 34 55  1  0  0  0  0
 34 77  2  0  0  0  0
 35 72  1  0  0  0  0
 35 78  2  0  0  0  0
 36 53  1  0  0  0  0
 36 74  1  0  0  0  0
 36 79  2  0  0  0  0
 37 62  1  0  0  0  0
 37 69  1  0  0  0  0
 37 80  2  0  0  0  0
 38 63  1  0  0  0  0
 38 75  1  0  0  0  0
 38 81  2  0  0  0  0
 39 64  1  0  0  0  0
 39 73  1  0  0  0  0
 39 82  2  0  0  0  0
 40 68  1  0  0  0  0
 40 70  1  0  0  0  0
 40 83  2  0  0  0  0
 41 45  1  0  0  0  0
 42 53  1  0  0  0  0
 43 49  1  0  0  0  0
 44 69  1  0  0  0  0
 45 47  1  0  0  0  0
 46 48  1  0  0  0  0
 46 50  1  0  0  0  0
 47 52  1  0  0  0  0
 48 54  1  0  0  0  0
 49 68  1  0  0  0  0
 50 70  1  0  0  0  0
 51 54  1  0  0  0  0
 51 70  1  0  0  0  0
 52 74  1  0  0  0  0
 53 69  1  0  0  0  0
 54 67  1  0  0  0  0
 56 63  1  0  0  0  0
 57 64  1  0  0  0  0
 58 65  1  0  0  0  0
 59 65  1  0  0  0  0
 60 65  1  0  0  0  0
 61 76  1  0  0  0  0
 62 65  1  0  0  0  0
 62 75  1  0  0  0  0
 63 76  1  0  0  0  0
 64 85  1  0  0  0  0
 66 67  1  0  0  0  0
M  CHG  1  76   1
M  ISO  4  40 100  64 101  68 100  85 101
M  END
> <Batch ID>
0145

> <Smiles>
CNC(C)C(=O)NC(C(=O)N1Cc2cc([101O:1][101CH:1](C)C(=O)Nc3cc4c(c(C(C)=O)c3)[100N:0]([100C:0](=O)N3CCCC(n5nc(-c6ccc(Oc7ccc(F)cc7F)cc6)c(C(N)=O)c5N)C3)CC4)ccc2CC1C(=O)NC1CCCc2ccccc21)C(C)(C)C

> <Shape>
0.258

> <Color>
0.058

> <Negative vol penalty>
0.000

$$$$

  -OEChem-04052303073D

 90 99  0     1  0  0  0  0  0999 V2000
  -26.4686  -36.6191   21.7235 C   0  0  0  0  0  0  0  0  0  0  0  0
  -27.3834  -35.8094   21.0578 C   0  0  0  0  0  0  0  0  0  0  0  0
  -23.2026  -10.0287   22.3845 C   0  0  0  0  0  0  0  0  0  0  0  0
  -23.5271   -9.7339   20.0086 C   0  0  0  0  0  0  0  0  0  0  0  0
  -25.6392  -36.0731   22.7022 C   0  0  0  0  0  0  0  0  0  0  0  0
  -27.4699  -34.4534   21.3712 C   0  0  0  0  0  0  0  0  0  0  0  0
  -28.8586  -28.1046   18.3580 C   0  0  0  0  0  0  0  0  0  0  0  0
  -22.4958   -8.8274   22.4370 C   0  0  0  0  0  0  0  0  0  0  0  0
  -22.8203   -8.5325   20.0611 C   0  0  0  0  0  0  0  0  0  0  0  0
  -29.6698  -26.9841   18.5320 C   0  0  0  0  0  0  0  0  0  0  0  0
  -23.2031   -5.5213   22.4883 C   0  0  0  0  0  0  0  0  0  0  0  0
  -23.5026   -4.6379   23.5253 C   0  0  0  0  0  0  0  0  0  0  0  0
  -28.1314  -26.1344   20.1844 C   0  0  0  0  0  0  0  0  0  0  0  0
  -27.4537  -19.7117   17.2461 C   0  0  0  0  0  0  0  0  0  0  0  0
  -21.2179   -4.7725   24.2997 C   0  0  0  0  0  0  0  0  0  0  0  0
  -23.7182  -10.4820   21.1702 C   0  0  0  0  0  0  0  0  0  0  0  0
  -25.8342  -11.9024   21.2820 C   0  0  0  0  0  0  0  0  0  0  0  0
  -25.7089  -34.7077   23.0210 C   0  0  0  0  0  0  0  0  0  0  0  0
  -27.6813  -28.2539   19.1050 C   0  0  0  0  0  0  0  0  0  0  0  0
  -26.6416  -33.8890   22.3560 C   0  0  0  0  0  0  0  0  0  0  0  0
  -27.3056  -27.2565   20.0162 C   0  0  0  0  0  0  0  0  0  0  0  0
  -28.7232  -20.0667   16.7053 C   0  0  0  0  0  0  0  0  0  0  0  0
  -22.3047   -8.0792   21.2754 C   0  0  0  0  0  0  0  0  0  0  0  0
  -29.3078  -26.0003   19.4474 C   0  0  0  0  0  0  0  0  0  0  0  0
  -21.9111   -6.0304   22.3570 C   0  0  0  0  0  0  0  0  0  0  0  0
  -22.5100   -4.2634   24.4310 C   0  0  0  0  0  0  0  0  0  0  0  0
  -20.9185   -5.6560   23.2626 C   0  0  0  0  0  0  0  0  0  0  0  0
  -24.4479  -11.7232   21.1152 C   0  0  0  0  0  0  0  0  0  0  0  0
  -29.5793  -18.9893   16.6445 C   0  0  0  0  0  0  0  0  0  0  0  0
  -26.0252  -13.2551   21.1394 C   0  0  0  0  0  0  0  0  0  0  0  0
  -27.3879  -18.3762   17.5778 C   0  0  0  0  0  0  0  0  0  0  0  0
  -29.4776  -21.7560   14.9716 C   0  0  0  0  0  0  0  0  0  0  0  0
  -26.8578  -10.9328   21.5426 C   0  0  0  0  0  0  0  0  0  0  0  0
  -30.3577  -22.5096   17.9741 C   0  0  0  0  0  0  0  0  0  0  0  0
  -26.6255  -30.3702   21.2287 C   0  0  0  0  0  0  0  0  0  0  0  0
  -23.8825  -28.6547   20.9934 C   0  0  0  0  0  0  0  0  0  0  0  0
  -22.3765  -25.6892   20.2287 C   0  0  0  0  0  0  0  0  0  0  0  0
  -25.0620  -18.0577   18.4918 C   0  0  0  0  0  0  0  0  0  0  0  0
  -24.8247  -34.1727   24.1194 C   0  0  0  0  0  0  0  0  0  0  0  0
  -26.8033  -29.4554   18.8862 C   0  0  0  0  0  0  0  0  0  0  0  0
  -26.0412  -27.3594   20.8280 C   0  0  0  0  0  0  0  0  0  0  0  0
  -29.7663  -23.2387   14.9892 C   0  0  0  0  0  0  0  0  0  0  0  0
  -24.7186  -32.6499   24.1285 C   0  0  0  0  0  0  0  0  0  0  0  0
  -29.0704  -23.7316   16.2460 C   0  0  0  0  0  0  0  0  0  0  0  0
  -22.6824  -17.0509   20.9415 C   0  0  0  0  0  0  0  0  0  0  0  0
  -26.0993  -32.0177   23.9839 C   0  0  0  0  0  0  0  0  0  0  0  0
  -23.0437  -15.5898   21.2188 C   0  0  0  0  0  0  0  0  0  0  0  0
  -22.8704  -17.4120   19.4691 C   0  0  0  0  0  0  0  0  0  0  0  0
  -24.5553  -15.6358   19.1940 C   0  0  0  0  0  0  0  0  0  0  0  0
  -26.7480  -32.4084   22.6505 C   0  0  1  0  0  0  0  0  0  0  0  0
  -29.0911  -22.5264   17.1689 C   0  0  1  0  0  0  0  0  0  0  0  0
  -25.8911  -29.7529   20.0723 C   0  0  1  0  0  0  0  0  0  0  0  0
  -24.4439  -15.2427   20.6761 C   0  0  2  0  0  0  0  0  0  0  0  0
  -32.0006  -18.8925   17.2883 C   0  0  0  0  0  0  0  0  0  0  0  0
  -20.1263  -24.5799   20.1706 C   0  0  0  0  0  0  0  0  0  0  0  0
  -31.6697  -22.4869   20.1186 C   0  0  0  0  0  0  0  0  0  0  0  0
  -29.5511  -21.1819   19.9666 C   0  0  0  0  0  0  0  0  0  0  0  0
  -23.9464  -28.3715   24.0308 C   0  0  0  0  0  0  0  0  0  0  0  0
  -22.2786  -26.5158   23.8232 C   0  0  0  0  0  0  0  0  0  0  0  0
  -21.6801  -28.8181   23.0722 C   0  0  0  0  0  0  0  0  0  0  0  0
  -22.5525  -25.2233   17.3113 C   0  0  0  0  0  0  0  0  0  0  0  0
  -30.9752  -18.9336   16.1529 C   0  0  0  0  0  0  0  0  0  0  0  0
  -29.4525  -23.6923   20.0027 C   0  0  0  0  0  0  0  0  0  1  0  0
  -23.3092  -27.4523   21.7038 C   0  0  1  0  0  0  0  0  0  0  0  0
  -21.1599  -25.3667   19.3799 C   0  0  2  0  0  0  0  0  0  0  0  0
  -30.2529  -22.4713   19.5138 C   0  0  0  0  0  0  0  0  0  0  0  0
  -22.8285  -27.7881   23.1438 C   0  0  0  0  0  0  0  0  0  0  0  0
  -23.8038  -12.8703   20.8843 N   0  0  0  0  0  0  0  0  0  0  0  0
  -24.7898  -13.7833   20.9052 N   0  0  0  0  0  0  0  0  0  0  0  0
  -29.0798  -21.3842   16.2725 N   0  0  0  0  0  0  0  0  0  0  0  0
  -25.2194  -28.5561   20.5828 N   0  0  0  0  0  0  0  0  0  0  0  0
  -24.2210  -17.0588   19.0261 N   0  0  0  0  0  0  0  0  0  0  0  0
  -27.1277  -14.0323   21.1928 N   0  0  0  0  0  0  0  0  0  0  0  0
  -26.4881   -9.5861   21.6600 N   0  0  0  0  0  0  0  0  0  0  0  0
  -26.3338  -17.6106   18.1353 N   0  0  0  0  0  0  0  0  0  0  0  0
  -26.1816  -31.6343   21.5668 N   0  0  0  0  0  0  0  0  0  0  0  0
  -22.2648  -26.9234   20.8333 N   0  0  0  0  0  0  0  0  0  0  0  0
  -21.5567  -24.5596   18.1915 N   0  3  0  0  0  0  0  0  0  0  0  0
  -29.6310  -21.0745   13.9682 O   0  0  0  0  0  0  0  0  0  0  0  0
  -28.0623  -11.2534   21.6839 O   0  0  0  0  0  0  0  0  0  0  0  0
  -31.4470  -22.5461   17.3968 O   0  0  0  0  0  0  0  0  0  0  0  0
  -27.5270  -29.7452   21.7749 O   0  0  0  0  0  0  0  0  0  0  0  0
  -23.1681  -29.6422   20.8034 O   0  0  0  0  0  0  0  0  0  0  0  0
  -23.3289  -24.9214   20.3467 O   0  0  0  0  0  0  0  0  0  0  0  0
  -24.6913  -19.2296   18.3855 O   0  0  0  0  0  0  0  0  0  0  0  0
  -21.6152   -6.9068   21.3264 O   0  0  0  0  0  0  0  0  0  0  0  0
  -30.0981  -24.9059   19.6197 O   0  0  0  0  0  0  0  0  0  1  0  0
  -22.7973   -3.4138   25.4259 F   0  0  0  0  0  0  0  0  0  0  0  0
  -19.6752   -6.1408   23.1408 F   0  0  0  0  0  0  0  0  0  0  0  0
  -28.8525  -17.5568   17.2376 S   0  0  0  0  0  0  0  0  0  0  0  0
  1  2  1  0  0  0  0
  1  5  2  0  0  0  0
  2  6  2  0  0  0  0
  3  8  2  0  0  0  0
  3 16  1  0  0  0  0
  4  9  1  0  0  0  0
  4 16  2  0  0  0  0
  5 18  1  0  0  0  0
  6 20  1  0  0  0  0
  7 10  2  0  0  0  0
  7 19  1  0  0  0  0
  8 23  1  0  0  0  0
  9 23  2  0  0  0  0
 10 24  1  0  0  0  0
 11 12  2  0  0  0  0
 11 25  1  0  0  0  0
 12 26  1  0  0  0  0
 13 21  1  0  0  0  0
 13 24  2  0  0  0  0
 14 22  1  0  0  0  0
 14 31  2  0  0  0  0
 15 26  2  0  0  0  0
 15 27  1  0  0  0  0
 16 28  1  0  0  0  0
 17 28  1  0  0  0  0
 17 30  2  0  0  0  0
 17 33  1  0  0  0  0
 18 20  2  0  0  0  0
 18 39  1  0  0  0  0
 19 21  2  0  0  0  0
 19 40  1  0  0  0  0
 20 50  1  0  0  0  0
 21 41  1  0  0  0  0
 22 29  2  0  0  0  0
 22 70  1  0  0  0  0
 23 86  1  0  0  0  0
 24 87  1  0  0  0  0
 25 27  2  0  0  0  0
 25 86  1  0  0  0  0
 26 88  1  0  0  0  0
 27 89  1  0  0  0  0
 28 68  2  0  0  0  0
 29 62  1  0  0  0  0
 29 90  1  0  0  0  0
 30 69  1  0  0  0  0
 30 73  1  0  0  0  0
 31 75  1  0  0  0  0
 31 90  1  0  0  0  0
 32 42  1  0  0  0  0
 32 70  1  0  0  0  0
 32 79  2  0  0  0  0
 33 74  1  0  0  0  0
 33 80  2  0  0  0  0
 34 51  1  0  0  0  0
 34 66  1  0  0  0  0
 34 81  2  0  0  0  0
 35 52  1  0  0  0  0
 35 76  1  0  0  0  0
 35 82  2  0  0  0  0
 36 64  1  0  0  0  0
 36 71  1  0  0  0  0
 36 83  2  0  0  0  0
 37 65  1  0  0  0  0
 37 77  1  0  0  0  0
 37 84  2  0  0  0  0
 38 72  1  0  0  0  0
 38 75  1  0  0  0  0
 38 85  2  0  0  0  0
 39 43  1  0  0  0  0
 40 52  1  0  0  0  0
 41 71  1  0  0  0  0
 42 44  1  0  0  0  0
 43 46  1  0  0  0  0
 44 51  1  0  0  0  0
 45 47  1  0  0  0  0
 45 48  1  0  0  0  0
 46 50  1  0  0  0  0
 47 53  1  0  0  0  0
 48 72  1  0  0  0  0
 49 53  1  0  0  0  0
 49 72  1  0  0  0  0
 50 76  1  0  0  0  0
 51 70  1  0  0  0  0
 52 71  1  0  0  0  0
 53 69  1  0  0  0  0
 54 62  1  0  0  0  0
 55 65  1  0  0  0  0
 56 66  1  0  0  0  0
 57 66  1  0  0  0  0
 58 67  1  0  0  0  0
 59 67  1  0  0  0  0
 60 67  1  0  0  0  0
 61 78  1  0  0  0  0
 63 66  1  0  0  0  0
 63 87  1  0  0  0  0
 64 67  1  0  0  0  0
 64 77  1  0  0  0  0
 65 78  1  0  0  0  0
 68 69  1  0  0  0  0
M  CHG  1  78   1
M  ISO  4  38 100  63 101  75 100  87 101
M  END
> <Batch ID>
0145

> <Smiles>
CCc1sc([100NH:0][100C:0](=O)N2CCCC(n3nc(-c4ccc(Oc5ccc(F)cc5F)cc4)c(C(N)=O)c3N)C2)cc1N1C(=O)CCC1C(=O)C(C)(C)[101CH2:1][101O:1]c1ccc2c(c1)CN(C(=O)C(NC(=O)C(C)NC)C(C)(C)C)C(C(=O)NC1CCCc3ccccc31)C2

> <Shape>
0.279

> <Color>
0.087

> <Negative vol penalty>
0.000

$$$$

  -OEChem-04052303073D

 89 98  0     1  0  0  0  0  0999 V2000
  -24.9044  -22.2962   15.6381 C   0  0  0  0  0  0  0  0  0  0  0  0
  -25.7392  -21.4058   16.3057 C   0  0  0  0  0  0  0  0  0  0  0  0
  -24.6456  -29.8740   21.1334 C   0  0  0  0  0  0  0  0  0  0  0  0
  -24.6820  -27.9193   22.5528 C   0  0  0  0  0  0  0  0  0  0  0  0
  -23.6161  -22.5335   16.1154 C   0  0  0  0  0  0  0  0  0  0  0  0
  -25.2865  -20.7528   17.4516 C   0  0  0  0  0  0  0  0  0  0  0  0
  -26.4350  -15.8207   17.4591 C   0  0  0  0  0  0  0  0  0  0  0  0
  -23.2860  -30.0402   21.3970 C   0  0  0  0  0  0  0  0  0  0  0  0
  -23.3224  -28.0855   22.8165 C   0  0  0  0  0  0  0  0  0  0  0  0
  -27.7446  -15.4724   17.7868 C   0  0  0  0  0  0  0  0  0  0  0  0
  -20.3877  -27.4540   21.2610 C   0  0  0  0  0  0  0  0  0  0  0  0
  -19.5742  -26.3222   21.2077 C   0  0  0  0  0  0  0  0  0  0  0  0
  -30.0838  -20.2563   21.2824 C   0  0  0  0  0  0  0  0  0  0  0  0
  -27.0337  -14.9320   20.0277 C   0  0  0  0  0  0  0  0  0  0  0  0
  -18.9658  -26.6506   23.5227 C   0  0  0  0  0  0  0  0  0  0  0  0
  -31.2491  -20.0675   19.2177 C   0  0  0  0  0  0  0  0  0  0  0  0
  -25.3436  -28.8136   21.7112 C   0  0  0  0  0  0  0  0  0  0  0  0
  -27.8270  -29.1852   22.1608 C   0  0  0  0  0  0  0  0  0  0  0  0
  -23.1439  -21.8758   17.2622 C   0  0  0  0  0  0  0  0  0  0  0  0
  -25.4152  -15.7375   18.4179 C   0  0  0  0  0  0  0  0  0  0  0  0
  -23.9911  -20.9825   17.9454 C   0  0  0  0  0  0  0  0  0  0  0  0
  -29.6761  -21.5297   20.9010 C   0  0  0  0  0  0  0  0  0  0  0  0
  -25.7115  -15.2774   19.7089 C   0  0  0  0  0  0  0  0  0  0  0  0
  -30.8854  -19.5047   20.4305 C   0  0  0  0  0  0  0  0  0  0  0  0
  -22.6244  -29.1460   22.2386 C   0  0  0  0  0  0  0  0  0  0  0  0
  -28.0447  -15.0307   19.0720 C   0  0  0  0  0  0  0  0  0  0  0  0
  -20.4903  -28.1841   22.4452 C   0  0  0  0  0  0  0  0  0  0  0  0
  -18.8632  -25.9205   22.3386 C   0  0  0  0  0  0  0  0  0  0  0  0
  -19.7794  -27.7824   23.5760 C   0  0  0  0  0  0  0  0  0  0  0  0
  -26.7479  -28.6411   21.4388 C   0  0  0  0  0  0  0  0  0  0  0  0
  -30.0940  -22.0019   19.6672 C   0  0  0  0  0  0  0  0  0  0  0  0
  -28.9441  -28.7286   21.5049 C   0  0  0  0  0  0  0  0  0  0  0  0
  -27.8203  -30.0279   23.3208 C   0  0  0  0  0  0  0  0  0  0  0  0
  -23.4458  -17.8247   19.7850 C   0  0  0  0  0  0  0  0  0  0  0  0
  -31.2063  -15.2106   20.8229 C   0  0  0  0  0  0  0  0  0  0  0  0
  -22.1465  -15.1537   21.0887 C   0  0  0  0  0  0  0  0  0  0  0  0
  -22.5486  -11.8966   22.0250 C   0  0  0  0  0  0  0  0  0  0  0  0
  -31.0239  -17.5046   21.9582 C   0  0  0  0  0  0  0  0  0  0  0  0
  -29.9958  -23.9508   18.0739 C   0  0  0  0  0  0  0  0  0  0  0  0
  -21.7603  -22.2003   17.7673 C   0  0  0  0  0  0  0  0  0  0  0  0
  -24.0027  -16.0914   18.0410 C   0  0  0  0  0  0  0  0  0  0  0  0
  -24.6491  -15.1507   20.7690 C   0  0  0  0  0  0  0  0  0  0  0  0
  -21.2257  -21.1848   18.7739 C   0  0  0  0  0  0  0  0  0  0  0  0
  -30.4431  -27.3644   17.1659 C   0  0  0  0  0  0  0  0  0  0  0  0
  -27.5162  -21.7491   22.3012 C   0  0  0  0  0  0  0  0  0  0  0  0
  -27.5025  -22.8674   21.3064 C   0  0  0  0  0  0  0  0  0  0  0  0
  -22.2858  -20.8636   19.8226 C   0  0  0  0  0  0  0  0  0  0  0  0
  -29.6494  -28.1290   18.2279 C   0  0  0  0  0  0  0  0  0  0  0  0
  -29.7560  -26.0567   16.7767 C   0  0  0  0  0  0  0  0  0  0  0  0
  -28.6261  -25.9381   18.9627 C   0  0  0  0  0  0  0  0  0  0  0  0
  -28.8160  -22.3348   21.8157 C   0  0  0  0  0  0  0  0  0  0  0  0
  -23.5275  -20.2362   19.1776 C   0  0  1  0  0  0  0  0  0  0  0  0
  -23.1375  -16.4577   19.2429 C   0  0  1  0  0  0  0  0  0  0  0  0
  -29.3116  -27.2310   19.4341 C   0  0  2  0  0  0  0  0  0  0  0  0
  -21.3203   -9.9894   23.0980 C   0  0  0  0  0  0  0  0  0  0  0  0
  -33.2116  -16.2868   21.9236 C   0  0  0  0  0  0  0  0  0  0  0  0
  -31.3452  -15.3884   23.3037 C   0  0  0  0  0  0  0  0  0  0  0  0
  -22.4979  -16.4673   23.8201 C   0  0  0  0  0  0  0  0  0  0  0  0
  -22.1645  -14.2177   24.8673 C   0  0  0  0  0  0  0  0  0  0  0  0
  -20.3354  -15.2476   23.5196 C   0  0  0  0  0  0  0  0  0  0  0  0
  -22.8238  -10.2085   19.6098 C   0  0  0  0  0  0  0  0  0  0  0  0
  -29.7226  -14.8828   20.7509 C   0  0  0  0  0  0  0  0  0  1  0  0
  -22.3869  -14.3514   22.3447 C   0  0  1  0  0  0  0  0  0  0  0  0
  -21.6904  -10.6671   21.7878 C   0  0  2  0  0  0  0  0  0  0  0  0
  -31.6822  -16.1071   21.9853 C   0  0  0  0  0  0  0  0  0  0  0  0
  -21.8668  -15.0751   23.6187 C   0  0  0  0  0  0  0  0  0  0  0  0
  -30.8727  -21.3011   18.8126 N   0  0  0  0  0  0  0  0  0  0  0  0
  -27.1438  -27.8959   20.4034 N   0  0  0  0  0  0  0  0  0  0  0  0
  -28.4841  -27.9687   20.4700 N   0  0  0  0  0  0  0  0  0  0  0  0
  -23.2845  -15.5148   20.3535 N   0  0  0  0  0  0  0  0  0  0  0  0
  -29.4706  -25.2562   17.9694 N   0  0  0  0  0  0  0  0  0  0  0  0
  -30.2651  -28.9072   21.7181 N   0  0  0  0  0  0  0  0  0  0  0  0
  -26.5853  -30.4026   23.8672 N   0  0  0  0  0  0  0  0  0  0  0  0
  -31.3165  -18.2056   20.7908 N   0  0  0  0  0  0  0  0  0  0  0  0
  -29.6853  -23.2981   19.2665 N   0  0  0  0  0  0  0  0  0  0  0  0
  -23.2860  -18.8438   18.8655 N   0  0  0  0  0  0  0  0  0  0  0  0
  -21.7862  -13.0421   22.1140 N   0  0  0  0  0  0  0  0  0  0  0  0
  -22.4193   -9.6826   20.9390 N   0  3  0  0  0  0  0  0  0  0  0  0
  -28.8779  -30.4499   23.8470 O   0  0  0  0  0  0  0  0  0  0  0  0
  -23.8010  -17.9461   20.9515 O   0  0  0  0  0  0  0  0  0  0  0  0
  -31.9941  -14.7568   19.9906 O   0  0  0  0  0  0  0  0  0  0  0  0
  -20.9911  -15.4430   20.7677 O   0  0  0  0  0  0  0  0  0  0  0  0
  -23.7724  -11.8455   22.1253 O   0  0  0  0  0  0  0  0  0  0  0  0
  -30.3393  -17.9049   22.8967 O   0  0  0  0  0  0  0  0  0  0  0  0
  -30.6940  -23.4590   17.1836 O   0  0  0  0  0  0  0  0  0  0  0  0
  -21.2978  -29.3079   22.4962 O   0  0  0  0  0  0  0  0  0  0  0  0
  -29.3222  -14.6907   19.3947 O   0  0  0  0  0  0  0  0  0  1  0  0
  -18.0808  -24.8346   22.2868 F   0  0  0  0  0  0  0  0  0  0  0  0
  -19.8730  -28.4804   24.7161 F   0  0  0  0  0  0  0  0  0  0  0  0
  1  2  1  0  0  0  0
  1  5  2  0  0  0  0
  2  6  2  0  0  0  0
  3  8  2  0  0  0  0
  3 17  1  0  0  0  0
  4  9  1  0  0  0  0
  4 17  2  0  0  0  0
  5 19  1  0  0  0  0
  6 21  1  0  0  0  0
  7 10  2  0  0  0  0
  7 20  1  0  0  0  0
  8 25  1  0  0  0  0
  9 25  2  0  0  0  0
 10 26  1  0  0  0  0
 11 12  2  0  0  0  0
 11 27  1  0  0  0  0
 12 28  1  0  0  0  0
 13 22  1  0  0  0  0
 13 24  2  0  0  0  0
 14 23  1  0  0  0  0
 14 26  2  0  0  0  0
 15 28  2  0  0  0  0
 15 29  1  0  0  0  0
 16 24  1  0  0  0  0
 16 67  2  0  0  0  0
 17 30  1  0  0  0  0
 18 30  1  0  0  0  0
 18 32  2  0  0  0  0
 18 33  1  0  0  0  0
 19 21  2  0  0  0  0
 19 40  1  0  0  0  0
 20 23  2  0  0  0  0
 20 41  1  0  0  0  0
 21 52  1  0  0  0  0
 22 31  2  0  0  0  0
 22 51  1  0  0  0  0
 23 42  1  0  0  0  0
 24 74  1  0  0  0  0
 25 86  1  0  0  0  0
 26 87  1  0  0  0  0
 27 29  2  0  0  0  0
 27 86  1  0  0  0  0
 28 88  1  0  0  0  0
 29 89  1  0  0  0  0
 30 68  2  0  0  0  0
 31 67  1  0  0  0  0
 31 75  1  0  0  0  0
 32 69  1  0  0  0  0
 32 72  1  0  0  0  0
 33 73  1  0  0  0  0
 33 79  2  0  0  0  0
 34 53  1  0  0  0  0
 34 76  1  0  0  0  0
 34 80  2  0  0  0  0
 35 62  1  0  0  0  0
 35 65  1  0  0  0  0
 35 81  2  0  0  0  0
 36 63  1  0  0  0  0
 36 70  1  0  0  0  0
 36 82  2  0  0  0  0
 37 64  1  0  0  0  0
 37 77  1  0  0  0  0
 37 83  2  0  0  0  0
 38 65  1  0  0  0  0
 38 74  1  0  0  0  0
 38 84  2  0  0  0  0
 39 71  1  0  0  0  0
 39 75  1  0  0  0  0
 39 85  2  0  0  0  0
 40 43  1  0  0  0  0
 41 53  1  0  0  0  0
 42 70  1  0  0  0  0
 43 47  1  0  0  0  0
 44 48  1  0  0  0  0
 44 49  1  0  0  0  0
 45 46  1  0  0  0  0
 45 51  1  0  0  0  0
 46 51  1  0  0  0  0
 47 52  1  0  0  0  0
 48 54  1  0  0  0  0
 49 71  1  0  0  0  0
 50 54  1  0  0  0  0
 50 71  1  0  0  0  0
 52 76  1  0  0  0  0
 53 70  1  0  0  0  0
 54 69  1  0  0  0  0
 55 64  1  0  0  0  0
 56 65  1  0  0  0  0
 57 65  1  0  0  0  0
 58 66  1  0  0  0  0
 59 66  1  0  0  0  0
 60 66  1  0  0  0  0
 61 78  1  0  0  0  0
 62 87  1  0  0  0  0
 63 66  1  0  0  0  0
 63 77  1  0  0  0  0
 64 78  1  0  0  0  0
 68 69  1  0  0  0  0
M  CHG  1  78   1
M  ISO  4  39 100  62 101  75 100  87 101
M  END
> <Batch ID>
0145

> <Smiles>
CNC(C)C(=O)NC(C(=O)N1Cc2cc([101O:1][101CH2:1]C(=O)C(C)(C)C(=O)Nc3cnc([100NH:0][100C:0](=O)N4CCCC(n5nc(-c6ccc(Oc7ccc(F)cc7F)cc6)c(C(N)=O)c5N)C4)c(C4CC4)c3)ccc2CC1C(=O)NC1CCCc2ccccc21)C(C)(C)C

> <Shape>
0.270

> <Color>
0.047

> <Negative vol penalty>
0.000

$$$$

  -OEChem-04052303073D

 89 97  0     1  0  0  0  0  0999 V2000
  -20.8832  -25.0946   25.4448 C   0  0  0  0  0  0  0  0  0  0  0  0
  -22.2627  -25.0783   25.6240 C   0  0  0  0  0  0  0  0  0  0  0  0
  -23.0754   -9.8683   19.9407 C   0  0  0  0  0  0  0  0  0  0  0  0
  -23.8348   -9.8751   22.2342 C   0  0  0  0  0  0  0  0  0  0  0  0
  -20.0932  -24.1081   26.0336 C   0  0  0  0  0  0  0  0  0  0  0  0
  -22.8529  -24.0760   26.3930 C   0  0  0  0  0  0  0  0  0  0  0  0
  -28.3188  -21.4701   25.4768 C   0  0  0  0  0  0  0  0  0  0  0  0
  -22.3311   -8.7154   20.1905 C   0  0  0  0  0  0  0  0  0  0  0  0
  -23.0905   -8.7222   22.4841 C   0  0  0  0  0  0  0  0  0  0  0  0
  -29.5708  -21.6907   26.0490 C   0  0  0  0  0  0  0  0  0  0  0  0
  -19.8621   -7.9254   23.0860 C   0  0  0  0  0  0  0  0  0  0  0  0
  -19.1049   -7.8857   24.2568 C   0  0  0  0  0  0  0  0  0  0  0  0
  -32.4584  -17.1366   23.9315 C   0  0  0  0  0  0  0  0  0  0  0  0
  -29.1734  -19.8861   27.5997 C   0  0  0  0  0  0  0  0  0  0  0  0
  -30.6536  -18.7010   23.5671 C   0  0  0  0  0  0  0  0  0  0  0  0
  -20.3456   -5.9479   24.9935 C   0  0  0  0  0  0  0  0  0  0  0  0
  -23.8273  -10.4482   20.9625 C   0  0  0  0  0  0  0  0  0  0  0  0
  -31.8731  -16.2507   23.0271 C   0  0  0  0  0  0  0  0  0  0  0  0
  -24.1698  -12.9732   20.8424 C   0  0  0  0  0  0  0  0  0  0  0  0
  -20.6750  -23.0876   26.8022 C   0  0  0  0  0  0  0  0  0  0  0  0
  -27.4787  -20.4612   25.9697 C   0  0  0  0  0  0  0  0  0  0  0  0
  -22.0699  -23.0756   26.9937 C   0  0  0  0  0  0  0  0  0  0  0  0
  -27.9122  -19.6530   27.0303 C   0  0  0  0  0  0  0  0  0  0  0  0
  -30.0684  -17.8150   22.6625 C   0  0  0  0  0  0  0  0  0  0  0  0
  -31.8486  -18.3618   24.2016 C   0  0  0  0  0  0  0  0  0  0  0  0
  -30.6782  -16.5898   22.3925 C   0  0  0  0  0  0  0  0  0  0  0  0
  -22.3387   -8.1423   21.4622 C   0  0  0  0  0  0  0  0  0  0  0  0
  -29.9971  -20.9005   27.1125 C   0  0  0  0  0  0  0  0  0  0  0  0
  -20.8610   -6.9763   22.8690 C   0  0  0  0  0  0  0  0  0  0  0  0
  -19.3467   -6.8970   25.2106 C   0  0  0  0  0  0  0  0  0  0  0  0
  -21.1028   -5.9876   23.8227 C   0  0  0  0  0  0  0  0  0  0  0  0
  -24.5967  -11.6388   20.7049 C   0  0  0  0  0  0  0  0  0  0  0  0
  -25.2623  -13.7224   20.4793 C   0  0  0  0  0  0  0  0  0  0  0  0
  -32.5359  -14.9774   22.7719 C   0  0  0  0  0  0  0  0  0  0  0  0
  -22.8994  -13.4894   21.2611 C   0  0  0  0  0  0  0  0  0  0  0  0
  -24.5960  -20.3973   27.3073 C   0  0  0  0  0  0  0  0  0  0  0  0
  -24.9904  -17.1855   27.0813 C   0  0  0  0  0  0  0  0  0  0  0  0
  -33.6185  -19.0854   25.8357 C   0  0  0  0  0  0  0  0  0  0  0  0
  -27.1324  -14.5385   26.8538 C   0  0  0  0  0  0  0  0  0  0  0  0
  -30.7287  -14.7664   20.6550 C   0  0  0  0  0  0  0  0  0  0  0  0
  -19.7755  -22.0700   27.4580 C   0  0  0  0  0  0  0  0  0  0  0  0
  -26.1421  -20.2185   25.3240 C   0  0  0  0  0  0  0  0  0  0  0  0
  -27.0565  -18.5437   27.5831 C   0  0  0  0  0  0  0  0  0  0  0  0
  -20.5161  -20.8285   27.9482 C   0  0  0  0  0  0  0  0  0  0  0  0
  -29.6141  -12.3529   18.2866 C   0  0  0  0  0  0  0  0  0  0  0  0
  -21.7786  -21.2249   28.7071 C   0  0  0  0  0  0  0  0  0  0  0  0
  -28.1743  -12.0617   18.7159 C   0  0  0  0  0  0  0  0  0  0  0  0
  -30.5290  -12.5814   19.4884 C   0  0  0  0  0  0  0  0  0  0  0  0
  -28.6220  -13.3065   20.8693 C   0  0  0  0  0  0  0  0  0  0  0  0
  -22.7497  -21.9907   27.8005 C   0  0  1  0  0  0  0  0  0  0  0  0
  -25.1573  -19.4997   26.2410 C   0  0  1  0  0  0  0  0  0  0  0  0
  -27.6494  -13.1335   19.6913 C   0  0  2  0  0  0  0  0  0  0  0  0
  -28.7875  -18.2061   21.9991 C   0  0  0  0  0  0  0  0  0  0  0  0
  -33.9292  -15.0235   22.2194 C   0  0  0  0  0  0  0  0  0  0  0  0
  -27.1603  -12.0326   26.7231 C   0  0  0  0  0  0  0  0  0  0  0  0
  -24.3721  -17.0255   30.0649 C   0  0  0  0  0  0  0  0  0  0  0  0
  -25.3293  -14.7121   30.0682 C   0  0  0  0  0  0  0  0  0  0  0  0
  -23.3192  -15.2262   28.6833 C   0  0  0  0  0  0  0  0  0  0  0  0
  -34.0813  -18.9058   28.8040 C   0  0  0  0  0  0  0  0  0  0  0  0
  -33.8089  -21.3773   29.0257 C   0  0  0  0  0  0  0  0  0  0  0  0
  -28.4601  -14.5754   24.2090 C   0  0  0  0  0  0  0  0  0  0  0  0
  -33.9311  -20.2804   26.7274 C   0  0  0  0  0  0  0  0  0  0  0  0
  -31.8793  -19.9839   28.2408 C   0  0  0  0  0  0  0  0  0  1  0  0
  -25.5761  -16.1151   27.9702 C   0  0  1  0  0  0  0  0  0  0  0  0
  -27.1483  -13.3318   25.9328 C   0  0  2  0  0  0  0  0  0  0  0  0
  -24.6647  -15.7918   29.1877 C   0  0  0  0  0  0  0  0  0  0  0  0
  -33.4135  -20.1519   28.1830 C   0  0  0  0  0  0  0  0  0  0  0  0
  -25.8617  -11.5426   20.2868 N   0  0  0  0  0  0  0  0  0  0  0  0
  -26.2389  -12.8261   20.1585 N   0  0  0  0  0  0  0  0  0  0  0  0
  -25.7553  -18.3497   26.9222 N   0  0  0  0  0  0  0  0  0  0  0  0
  -29.9702  -13.6125   20.3657 N   0  0  0  0  0  0  0  0  0  0  0  0
  -25.4731  -15.0538   20.4063 N   0  0  0  0  0  0  0  0  0  0  0  0
  -21.8872  -12.5805   21.5982 N   0  0  0  0  0  0  0  0  0  0  0  0
  -32.4414  -19.2606   25.1199 N   0  0  0  0  0  0  0  0  0  0  0  0
  -30.0815  -15.6917   21.4733 N   0  0  0  0  0  0  0  0  0  0  0  0
  -23.4539  -21.0762   26.9275 N   0  0  0  0  0  0  0  0  0  0  0  0
  -25.8478  -14.9710   27.1067 N   0  0  0  0  0  0  0  0  0  0  0  0
  -28.3559  -13.3622   25.0601 N   0  3  0  0  0  0  0  0  0  0  0  0
  -32.0345  -13.8714   22.9721 O   0  0  0  0  0  0  0  0  0  0  0  0
  -22.6635  -14.7201   21.3184 O   0  0  0  0  0  0  0  0  0  0  0  0
  -25.1566  -20.4676   28.3947 O   0  0  0  0  0  0  0  0  0  0  0  0
  -23.8978  -16.9927   26.5420 O   0  0  0  0  0  0  0  0  0  0  0  0
  -34.3691  -18.1136   25.8142 O   0  0  0  0  0  0  0  0  0  0  0  0
  -28.1569  -15.0443   27.3067 O   0  0  0  0  0  0  0  0  0  0  0  0
  -31.8580  -14.9348   20.1876 O   0  0  0  0  0  0  0  0  0  0  0  0
  -21.6124   -7.0175   21.7065 O   0  0  0  0  0  0  0  0  0  0  0  0
  -31.2185  -21.1142   27.6733 O   0  0  0  0  0  0  0  0  0  1  0  0
  -18.6205   -6.8600   26.3355 F   0  0  0  0  0  0  0  0  0  0  0  0
  -22.0619   -5.0738   23.6203 F   0  0  0  0  0  0  0  0  0  0  0  0
  1  2  1  0  0  0  0
  1  5  2  0  0  0  0
  2  6  2  0  0  0  0
  3  8  2  0  0  0  0
  3 17  1  0  0  0  0
  4  9  1  0  0  0  0
  4 17  2  0  0  0  0
  5 20  1  0  0  0  0
  6 22  1  0  0  0  0
  7 10  2  0  0  0  0
  7 21  1  0  0  0  0
  8 27  1  0  0  0  0
  9 27  2  0  0  0  0
 10 28  1  0  0  0  0
 11 12  2  0  0  0  0
 11 29  1  0  0  0  0
 12 30  1  0  0  0  0
 13 18  1  0  0  0  0
 13 25  2  0  0  0  0
 14 23  1  0  0  0  0
 14 28  2  0  0  0  0
 15 24  2  0  0  0  0
 15 25  1  0  0  0  0
 16 30  2  0  0  0  0
 16 31  1  0  0  0  0
 17 32  1  0  0  0  0
 18 26  2  0  0  0  0
 18 34  1  0  0  0  0
 19 32  1  0  0  0  0
 19 33  2  0  0  0  0
 19 35  1  0  0  0  0
 20 22  2  0  0  0  0
 20 41  1  0  0  0  0
 21 23  2  0  0  0  0
 21 42  1  0  0  0  0
 22 50  1  0  0  0  0
 23 43  1  0  0  0  0
 24 26  1  0  0  0  0
 24 53  1  0  0  0  0
 25 74  1  0  0  0  0
 26 75  1  0  0  0  0
 27 86  1  0  0  0  0
 28 87  1  0  0  0  0
 29 31  2  0  0  0  0
 29 86  1  0  0  0  0
 30 88  1  0  0  0  0
 31 89  1  0  0  0  0
 32 68  2  0  0  0  0
 33 69  1  0  0  0  0
 33 72  1  0  0  0  0
 34 54  1  0  0  0  0
 34 79  2  0  0  0  0
 35 73  1  0  0  0  0
 35 80  2  0  0  0  0
 36 51  1  0  0  0  0
 36 76  1  0  0  0  0
 36 81  2  0  0  0  0
 37 64  1  0  0  0  0
 37 70  1  0  0  0  0
 37 82  2  0  0  0  0
 38 62  1  0  0  0  0
 38 74  1  0  0  0  0
 38 83  2  0  0  0  0
 39 65  1  0  0  0  0
 39 77  1  0  0  0  0
 39 84  2  0  0  0  0
 40 71  1  0  0  0  0
 40 75  1  0  0  0  0
 40 85  2  0  0  0  0
 41 44  1  0  0  0  0
 42 51  1  0  0  0  0
 43 70  1  0  0  0  0
 44 46  1  0  0  0  0
 45 47  1  0  0  0  0
 45 48  1  0  0  0  0
 46 50  1  0  0  0  0
 47 52  1  0  0  0  0
 48 71  1  0  0  0  0
 49 52  1  0  0  0  0
 49 71  1  0  0  0  0
 50 76  1  0  0  0  0
 51 70  1  0  0  0  0
 52 69  1  0  0  0  0
 55 65  1  0  0  0  0
 56 66  1  0  0  0  0
 57 66  1  0  0  0  0
 58 66  1  0  0  0  0
 59 67  1  0  0  0  0
 60 67  1  0  0  0  0
 61 78  1  0  0  0  0
 62 67  1  0  0  0  0
 63 67  1  0  0  0  0
 63 87  1  0  0  0  0
 64 66  1  0  0  0  0
 64 77  1  0  0  0  0
 65 78  1  0  0  0  0
 68 69  1  0  0  0  0
M  CHG  1  78   1
M  ISO  4  40 100  63 101  75 100  87 101
M  END
> <Batch ID>
0145

> <Smiles>
CNC(C)C(=O)NC(C(=O)N1Cc2cc([101O:1][101CH2:1]C(C)(C)CC(=O)Nc3cc(C)c([100NH:0][100C:0](=O)N4CCCC(n5nc(-c6ccc(Oc7ccc(F)cc7F)cc6)c(C(N)=O)c5N)C4)c(C(C)=O)c3)ccc2CC1C(=O)NC1CCCc2ccccc21)C(C)(C)C

> <Shape>
0.170

> <Color>
0.184

> <Negative vol penalty>
0.000

$$$$

  -OEChem-04052303073D

 87 96  0     1  0  0  0  0  0999 V2000
  -30.0524  -34.4785   23.4362 C   0  0  0  0  0  0  0  0  0  0  0  0
  -29.8329  -33.1186   23.2413 C   0  0  0  0  0  0  0  0  0  0  0  0
  -23.2622  -10.6178   21.6653 C   0  0  0  0  0  0  0  0  0  0  0  0
  -24.7510   -8.7446   21.3313 C   0  0  0  0  0  0  0  0  0  0  0  0
  -28.9987  -35.3049   23.8244 C   0  0  0  0  0  0  0  0  0  0  0  0
  -28.5597  -32.5842   23.4356 C   0  0  0  0  0  0  0  0  0  0  0  0
  -27.2080  -29.3933   19.7429 C   0  0  0  0  0  0  0  0  0  0  0  0
  -22.1832   -9.7407   21.7754 C   0  0  0  0  0  0  0  0  0  0  0  0
  -23.6721   -7.8675   21.4415 C   0  0  0  0  0  0  0  0  0  0  0  0
  -27.7459  -28.1077   19.7837 C   0  0  0  0  0  0  0  0  0  0  0  0
  -21.3639   -5.1134   21.9943 C   0  0  0  0  0  0  0  0  0  0  0  0
  -21.5294   -3.9768   22.7857 C   0  0  0  0  0  0  0  0  0  0  0  0
  -29.3077  -19.6357   21.7568 C   0  0  0  0  0  0  0  0  0  0  0  0
  -28.2650  -20.3590   19.6794 C   0  0  0  0  0  0  0  0  0  0  0  0
  -25.6908  -27.2846   20.7419 C   0  0  0  0  0  0  0  0  0  0  0  0
  -21.9688   -5.3771   24.7048 C   0  0  0  0  0  0  0  0  0  0  0  0
  -24.5461  -10.1198   21.4432 C   0  0  0  0  0  0  0  0  0  0  0  0
  -29.0802  -18.2956   21.4361 C   0  0  0  0  0  0  0  0  0  0  0  0
  -26.4851  -11.4948   22.3691 C   0  0  0  0  0  0  0  0  0  0  0  0
  -27.7098  -34.7820   24.0141 C   0  0  0  0  0  0  0  0  0  0  0  0
  -25.9091  -29.6365   20.2122 C   0  0  0  0  0  0  0  0  0  0  0  0
  -27.4881  -33.4041   23.8280 C   0  0  0  0  0  0  0  0  0  0  0  0
  -28.0458  -19.0282   19.3706 C   0  0  0  0  0  0  0  0  0  0  0  0
  -25.1378  -28.5737   20.7037 C   0  0  0  0  0  0  0  0  0  0  0  0
  -28.4494  -18.0087   20.2384 C   0  0  0  0  0  0  0  0  0  0  0  0
  -28.9029  -20.6598   20.8849 C   0  0  0  0  0  0  0  0  0  0  0  0
  -22.3882   -8.3655   21.6635 C   0  0  0  0  0  0  0  0  0  0  0  0
  -26.9884  -27.0536   20.2859 C   0  0  0  0  0  0  0  0  0  0  0  0
  -21.5010   -6.3819   22.5581 C   0  0  0  0  0  0  0  0  0  0  0  0
  -21.8318   -4.1086   24.1410 C   0  0  0  0  0  0  0  0  0  0  0  0
  -21.8034   -6.5137   23.9134 C   0  0  0  0  0  0  0  0  0  0  0  0
  -25.6609  -11.0254   21.3288 C   0  0  0  0  0  0  0  0  0  0  0  0
  -27.3873  -12.3219   21.7458 C   0  0  0  0  0  0  0  0  0  0  0  0
  -29.4971  -17.2429   22.3478 C   0  0  0  0  0  0  0  0  0  0  0  0
  -26.4394  -11.2086   23.7732 C   0  0  0  0  0  0  0  0  0  0  0  0
  -24.6588  -31.4101   22.5349 C   0  0  0  0  0  0  0  0  0  0  0  0
  -21.8509  -30.4610   21.2168 C   0  0  0  0  0  0  0  0  0  0  0  0
  -28.8150  -23.1473   20.4995 C   0  0  0  0  0  0  0  0  0  0  0  0
  -20.1597  -28.1631   19.3443 C   0  0  0  0  0  0  0  0  0  0  0  0
  -27.3385  -16.1211   17.2820 C   0  0  0  0  0  0  0  0  0  0  0  0
  -26.6128  -35.7063   24.4797 C   0  0  0  0  0  0  0  0  0  0  0  0
  -25.3337  -31.0242   20.1366 C   0  0  0  0  0  0  0  0  0  0  0  0
  -27.3995  -18.4498   18.1573 C   0  0  0  0  0  0  0  0  0  0  0  0
  -23.7309  -28.7784   21.2009 C   0  0  0  0  0  0  0  0  0  0  0  0
  -28.0750  -16.6737   19.6814 C   0  0  0  0  0  0  0  0  0  0  0  0
  -25.2117  -35.1273   24.3009 C   0  0  0  0  0  0  0  0  0  0  0  0
  -29.0097  -12.8602   17.1033 C   0  0  0  0  0  0  0  0  0  0  0  0
  -25.1609  -33.6877   24.8026 C   0  0  0  0  0  0  0  0  0  0  0  0
  -28.3559  -12.0875   18.2510 C   0  0  0  0  0  0  0  0  0  0  0  0
  -28.0646  -13.8953   16.4967 C   0  0  0  0  0  0  0  0  0  0  0  0
  -26.8034  -14.0399   18.6074 C   0  0  0  0  0  0  0  0  0  0  0  0
  -26.1157  -32.7914   24.0047 C   0  0  1  0  0  0  0  0  0  0  0  0
  -24.1871  -31.2497   21.1173 C   0  0  1  0  0  0  0  0  0  0  0  0
  -27.7484  -13.0452   19.2942 C   0  0  1  0  0  0  0  0  0  0  0  0
  -30.6987  -17.5059   23.2087 C   0  0  0  0  0  0  0  0  0  0  0  0
  -17.8667  -27.6369   18.4708 C   0  0  0  0  0  0  0  0  0  0  0  0
  -21.0171  -29.5016   23.9907 C   0  0  0  0  0  0  0  0  0  0  0  0
  -19.1965  -28.1686   22.9060 C   0  0  0  0  0  0  0  0  0  0  0  0
  -19.2122  -30.6545   22.6993 C   0  0  0  0  0  0  0  0  0  0  0  0
  -21.0659  -28.3310   16.5319 C   0  0  0  0  0  0  0  0  0  0  0  0
  -29.2542  -24.4052   21.2403 C   0  0  0  0  0  0  0  0  0  0  0  0
  -28.9238  -25.6866   20.4900 C   0  0  0  0  0  0  0  0  0  1  0  0
  -20.9155  -29.2935   21.4192 C   0  0  1  0  0  0  0  0  0  0  0  0
  -19.1932  -28.3234   18.1846 C   0  0  2  0  0  0  0  0  0  0  0  0
  -20.1125  -29.4007   22.7463 C   0  0  0  0  0  0  0  0  0  0  0  0
  -26.0085  -11.5139   20.1352 N   0  0  0  0  0  0  0  0  0  0  0  0
  -27.0611  -12.2988   20.4217 N   0  0  0  0  0  0  0  0  0  0  0  0
  -23.2151  -30.1545   21.1121 N   0  0  0  0  0  0  0  0  0  0  0  0
  -27.4924  -16.9947   18.3616 N   0  0  0  0  0  0  0  0  0  0  0  0
  -27.5014  -14.7557   17.5358 N   0  0  0  0  0  0  0  0  0  0  0  0
  -28.4198  -13.0594   22.2067 N   0  0  0  0  0  0  0  0  0  0  0  0
  -25.4482  -10.3376   24.2456 N   0  0  0  0  0  0  0  0  0  0  0  0
  -29.1400  -21.9918   21.2282 N   0  0  0  0  0  0  0  0  0  0  0  0
  -25.5403  -32.4582   22.7193 N   0  0  0  0  0  0  0  0  0  0  0  0
  -20.0846  -29.2239   20.2220 N   0  0  0  0  0  0  0  0  0  0  0  0
  -19.7702  -27.7327   16.9440 N   0  3  0  0  0  0  0  0  0  0  0  0
  -28.9419  -16.1480   22.4649 O   0  0  0  0  0  0  0  0  0  0  0  0
  -27.2431  -11.7234   24.5872 O   0  0  0  0  0  0  0  0  0  0  0  0
  -24.2519  -30.6410   23.3977 O   0  0  0  0  0  0  0  0  0  0  0  0
  -21.3876  -31.6021   21.1467 O   0  0  0  0  0  0  0  0  0  0  0  0
  -28.2544  -23.1937   19.4096 O   0  0  0  0  0  0  0  0  0  0  0  0
  -20.9039  -27.1921   19.4618 O   0  0  0  0  0  0  0  0  0  0  0  0
  -27.1225  -16.5422   16.1385 O   0  0  0  0  0  0  0  0  0  0  0  0
  -21.3356   -7.5093   21.7712 O   0  0  0  0  0  0  0  0  0  0  0  0
  -27.5150  -25.7891   20.3278 O   0  0  0  0  0  0  0  0  0  1  0  0
  -21.9891   -3.0171   24.9012 F   0  0  0  0  0  0  0  0  0  0  0  0
  -21.9350   -7.7297   24.4609 F   0  0  0  0  0  0  0  0  0  0  0  0
  1  2  1  0  0  0  0
  1  5  2  0  0  0  0
  2  6  2  0  0  0  0
  3  8  2  0  0  0  0
  3 17  1  0  0  0  0
  4  9  1  0  0  0  0
  4 17  2  0  0  0  0
  5 20  1  0  0  0  0
  6 22  1  0  0  0  0
  7 10  2  0  0  0  0
  7 21  1  0  0  0  0
  8 27  1  0  0  0  0
  9 27  2  0  0  0  0
 10 28  1  0  0  0  0
 11 12  2  0  0  0  0
 11 29  1  0  0  0  0
 12 30  1  0  0  0  0
 13 18  1  0  0  0  0
 13 26  2  0  0  0  0
 14 23  2  0  0  0  0
 14 26  1  0  0  0  0
 15 24  1  0  0  0  0
 15 28  2  0  0  0  0
 16 30  2  0  0  0  0
 16 31  1  0  0  0  0
 17 32  1  0  0  0  0
 18 25  2  0  0  0  0
 18 34  1  0  0  0  0
 19 32  1  0  0  0  0
 19 33  2  0  0  0  0
 19 35  1  0  0  0  0
 20 22  2  0  0  0  0
 20 41  1  0  0  0  0
 21 24  2  0  0  0  0
 21 42  1  0  0  0  0
 22 52  1  0  0  0  0
 23 25  1  0  0  0  0
 23 43  1  0  0  0  0
 24 44  1  0  0  0  0
 25 45  1  0  0  0  0
 26 73  1  0  0  0  0
 27 84  1  0  0  0  0
 28 85  1  0  0  0  0
 29 31  2  0  0  0  0
 29 84  1  0  0  0  0
 30 86  1  0  0  0  0
 31 87  1  0  0  0  0
 32 66  2  0  0  0  0
 33 67  1  0  0  0  0
 33 71  1  0  0  0  0
 34 55  1  0  0  0  0
 34 77  2  0  0  0  0
 35 72  1  0  0  0  0
 35 78  2  0  0  0  0
 36 53  1  0  0  0  0
 36 74  1  0  0  0  0
 36 79  2  0  0  0  0
 37 63  1  0  0  0  0
 37 68  1  0  0  0  0
 37 80  2  0  0  0  0
 38 61  1  0  0  0  0
 38 73  1  0  0  0  0
 38 81  2  0  0  0  0
 39 64  1  0  0  0  0
 39 75  1  0  0  0  0
 39 82  2  0  0  0  0
 40 69  1  0  0  0  0
 40 70  1  0  0  0  0
 40 83  2  0  0  0  0
 41 46  1  0  0  0  0
 42 53  1  0  0  0  0
 43 69  1  0  0  0  0
 44 68  1  0  0  0  0
 45 69  1  0  0  0  0
 46 48  1  0  0  0  0
 47 49  1  0  0  0  0
 47 50  1  0  0  0  0
 48 52  1  0  0  0  0
 49 54  1  0  0  0  0
 50 70  1  0  0  0  0
 51 54  1  0  0  0  0
 51 70  1  0  0  0  0
 52 74  1  0  0  0  0
 53 68  1  0  0  0  0
 54 67  1  0  0  0  0
 56 64  1  0  0  0  0
 57 65  1  0  0  0  0
 58 65  1  0  0  0  0
 59 65  1  0  0  0  0
 60 76  1  0  0  0  0
 61 62  1  0  0  0  0
 62 85  1  0  0  0  0
 63 65  1  0  0  0  0
 63 75  1  0  0  0  0
 64 76  1  0  0  0  0
 66 67  1  0  0  0  0
M  CHG  1  76   1
M  ISO  4  40 100  62 101  69 100  85 101
M  END
> <Batch ID>
0145

> <Smiles>
CNC(C)C(=O)NC(C(=O)N1Cc2cc([101O:1][101CH2:1]CC(=O)Nc3cc4c(c(C(C)=O)c3)C[100N:0]([100C:0](=O)N3CCCC(n5nc(-c6ccc(Oc7ccc(F)cc7F)cc6)c(C(N)=O)c5N)C3)C4)ccc2CC1C(=O)NC1CCCc2ccccc21)C(C)(C)C

> <Shape>
0.353

> <Color>
0.108

> <Negative vol penalty>
0.000

$$$$

  -OEChem-04052303073D

 86 94  0     1  0  0  0  0  0999 V2000
  -19.3956  -30.9894   23.9457 C   0  0  0  0  0  0  0  0  0  0  0  0
  -20.7400  -30.6317   23.9410 C   0  0  0  0  0  0  0  0  0  0  0  0
  -25.1809  -13.4731   22.0155 C   0  0  0  0  0  0  0  0  0  0  0  0
  -26.8114  -13.2119   20.2518 C   0  0  0  0  0  0  0  0  0  0  0  0
  -18.4382  -30.1044   23.4515 C   0  0  0  0  0  0  0  0  0  0  0  0
  -21.1278  -29.3883   23.4431 C   0  0  0  0  0  0  0  0  0  0  0  0
  -25.1794  -29.6840   20.4195 C   0  0  0  0  0  0  0  0  0  0  0  0
  -24.3692  -12.5159   21.4068 C   0  0  0  0  0  0  0  0  0  0  0  0
  -25.9997  -12.2546   19.6432 C   0  0  0  0  0  0  0  0  0  0  0  0
  -26.4238  -29.8180   21.0338 C   0  0  0  0  0  0  0  0  0  0  0  0
  -24.2393   -9.1453   21.1723 C   0  0  0  0  0  0  0  0  0  0  0  0
  -23.6707   -8.1655   21.9860 C   0  0  0  0  0  0  0  0  0  0  0  0
  -26.8245  -27.4596   20.7229 C   0  0  0  0  0  0  0  0  0  0  0  0
  -21.4649   -8.8962   21.3244 C   0  0  0  0  0  0  0  0  0  0  0  0
  -32.8928  -24.1793   20.8309 C   0  0  0  0  0  0  0  0  0  0  0  0
  -26.4020  -13.8211   21.4379 C   0  0  0  0  0  0  0  0  0  0  0  0
  -28.2449  -14.5870   23.0270 C   0  0  0  0  0  0  0  0  0  0  0  0
  -18.8155  -28.8534   22.9383 C   0  0  0  0  0  0  0  0  0  0  0  0
  -24.7429  -28.4327   19.9614 C   0  0  0  0  0  0  0  0  0  0  0  0
  -20.1744  -28.4852   22.9427 C   0  0  0  0  0  0  0  0  0  0  0  0
  -25.5752  -27.3129   20.1009 C   0  0  0  0  0  0  0  0  0  0  0  0
  -31.6285  -24.4526   20.3804 C   0  0  0  0  0  0  0  0  0  0  0  0
  -24.7786  -11.9067   20.2207 C   0  0  0  0  0  0  0  0  0  0  0  0
  -27.2453  -28.7052   21.1881 C   0  0  0  0  0  0  0  0  0  0  0  0
  -23.4207  -10.0007   20.4346 C   0  0  0  0  0  0  0  0  0  0  0  0
  -22.2835   -8.0409   22.0621 C   0  0  0  0  0  0  0  0  0  0  0  0
  -22.0336   -9.8761   20.5107 C   0  0  0  0  0  0  0  0  0  0  0  0
  -27.2408  -14.8102   22.0659 C   0  0  0  0  0  0  0  0  0  0  0  0
  -31.1839  -23.2225   19.8656 C   0  0  0  0  0  0  0  0  0  0  0  0
  -28.7424  -15.8376   23.3006 C   0  0  0  0  0  0  0  0  0  0  0  0
  -28.6882  -13.3589   23.6194 C   0  0  0  0  0  0  0  0  0  0  0  0
  -22.3079  -26.5126   20.6602 C   0  0  0  0  0  0  0  0  0  0  0  0
  -30.4575  -28.1150   19.5099 C   0  0  0  0  0  0  0  0  0  0  0  0
  -23.4516  -24.7943   18.1579 C   0  0  0  0  0  0  0  0  0  0  0  0
  -26.1032  -23.9926   16.1646 C   0  0  0  0  0  0  0  0  0  0  0  0
  -28.9317  -20.7855   20.0853 C   0  0  0  0  0  0  0  0  0  0  0  0
  -17.7399  -27.9114   22.4585 C   0  0  0  0  0  0  0  0  0  0  0  0
  -23.4091  -28.3098   19.2770 C   0  0  0  0  0  0  0  0  0  0  0  0
  -25.1617  -25.9511   19.6080 C   0  0  0  0  0  0  0  0  0  0  0  0
  -18.2720  -26.7641   21.6035 C   0  0  0  0  0  0  0  0  0  0  0  0
  -27.4551  -20.4469   23.3719 C   0  0  0  0  0  0  0  0  0  0  0  0
  -19.4989  -26.1359   22.2569 C   0  0  0  0  0  0  0  0  0  0  0  0
  -27.3307  -18.9271   23.4944 C   0  0  0  0  0  0  0  0  0  0  0  0
  -27.1684  -20.9120   21.9473 C   0  0  0  0  0  0  0  0  0  0  0  0
  -27.8896  -18.7430   21.0258 C   0  0  0  0  0  0  0  0  0  0  0  0
  -20.6369  -27.1553   22.3881 C   0  0  1  0  0  0  0  0  0  0  0  0
  -22.8487  -26.8913   19.3105 C   0  0  1  0  0  0  0  0  0  0  0  0
  -28.1898  -18.2076   22.4377 C   0  0  2  0  0  0  0  0  0  0  0  0
  -26.7404  -22.5293   14.2281 C   0  0  0  0  0  0  0  0  0  0  0  0
  -29.7316  -30.8269   22.1681 C   0  0  0  0  0  0  0  0  0  0  0  0
  -32.7824  -27.1493   19.4047 C   0  0  0  0  0  0  0  0  0  0  0  0
  -31.0046  -26.2026   17.9573 C   0  0  0  0  0  0  0  0  0  0  0  0
  -23.5183  -22.3726   20.0129 C   0  0  0  0  0  0  0  0  0  0  0  0
  -25.0123  -21.2335   18.3580 C   0  0  0  0  0  0  0  0  0  0  0  0
  -22.6982  -21.8924   17.6996 C   0  0  0  0  0  0  0  0  0  0  0  0
  -26.8076  -26.3248   14.4842 C   0  0  0  0  0  0  0  0  0  0  0  0
  -30.8939  -25.7731   20.4321 C   0  0  0  0  0  0  0  0  0  0  0  0
  -29.8856  -22.9153   19.2421 C   0  0  0  0  0  0  0  0  0  0  0  0
  -30.6457  -28.9251   20.7927 C   0  0  0  0  0  0  0  0  0  0  0  0
  -24.4594  -23.6819   17.9964 C   0  0  1  0  0  0  0  0  0  0  0  0
  -26.2368  -23.8992   14.6553 C   0  0  2  0  0  0  0  0  0  0  0  0
  -29.3960  -29.7203   21.1768 C   0  0  1  0  0  0  0  0  0  1  0  0
  -31.2783  -26.8134   19.3455 C   0  0  0  0  0  0  0  0  0  0  0  0
  -23.9293  -22.3203   18.5279 C   0  0  0  0  0  0  0  0  0  0  0  0
  -27.1069  -16.1012   21.7503 N   0  0  0  0  0  0  0  0  0  0  0  0
  -32.1023  -22.2599   19.9875 N   0  0  0  0  0  0  0  0  0  0  0  0
  -28.0335  -16.7004   22.5175 N   0  0  0  0  0  0  0  0  0  0  0  0
  -23.8459  -25.8810   18.9512 N   0  0  0  0  0  0  0  0  0  0  0  0
  -28.0318  -20.2024   20.9927 N   0  0  0  0  0  0  0  0  0  0  0  0
  -29.7128  -16.2725   24.1323 N   0  0  0  0  0  0  0  0  0  0  0  0
  -28.0691  -12.1650   23.2249 N   0  0  0  0  0  0  0  0  0  0  0  0
  -21.2990  -27.3403   21.1145 N   0  0  0  0  0  0  0  0  0  0  0  0
  -24.8307  -23.6691   16.5856 N   0  0  0  0  0  0  0  0  0  0  0  0
  -29.0014  -22.1730   20.1127 N   0  0  0  0  0  0  0  0  0  0  0  0
  -27.1919  -24.9280   14.1552 N   0  3  0  0  0  0  0  0  0  0  0  0
  -29.5951  -13.3232   24.4854 O   0  0  0  0  0  0  0  0  0  0  0  0
  -22.7707  -25.5405   21.2455 O   0  0  0  0  0  0  0  0  0  0  0  0
  -29.6810  -28.4932   18.6295 O   0  0  0  0  0  0  0  0  0  0  0  0
  -22.3577  -24.7056   17.5948 O   0  0  0  0  0  0  0  0  0  0  0  0
  -27.0355  -24.3163   16.8970 O   0  0  0  0  0  0  0  0  0  0  0  0
  -29.6264  -20.1183   19.3110 O   0  0  0  0  0  0  0  0  0  0  0  0
  -33.1870  -22.8739   20.6021 O   0  0  0  0  0  0  0  0  0  0  0  0
  -23.9868  -10.9724   19.6266 O   0  0  0  0  0  0  0  0  0  0  0  0
  -28.4602  -28.8331   21.7879 O   0  0  0  0  0  0  0  0  0  1  0  0
  -21.7376   -7.0989   22.8423 F   0  0  0  0  0  0  0  0  0  0  0  0
  -21.2420  -10.6941   19.8035 F   0  0  0  0  0  0  0  0  0  0  0  0
  1  2  1  0  0  0  0
  1  5  2  0  0  0  0
  2  6  2  0  0  0  0
  3  8  2  0  0  0  0
  3 16  1  0  0  0  0
  4  9  1  0  0  0  0
  4 16  2  0  0  0  0
  5 18  1  0  0  0  0
  6 20  1  0  0  0  0
  7 10  2  0  0  0  0
  7 19  1  0  0  0  0
  8 23  1  0  0  0  0
  9 23  2  0  0  0  0
 10 24  1  0  0  0  0
 11 12  2  0  0  0  0
 11 25  1  0  0  0  0
 12 26  1  0  0  0  0
 13 21  1  0  0  0  0
 13 24  2  0  0  0  0
 14 26  2  0  0  0  0
 14 27  1  0  0  0  0
 15 22  2  0  0  0  0
 15 82  1  0  0  0  0
 16 28  1  0  0  0  0
 17 28  1  0  0  0  0
 17 30  2  0  0  0  0
 17 31  1  0  0  0  0
 18 20  2  0  0  0  0
 18 37  1  0  0  0  0
 19 21  2  0  0  0  0
 19 38  1  0  0  0  0
 20 46  1  0  0  0  0
 21 39  1  0  0  0  0
 22 29  1  0  0  0  0
 22 57  1  0  0  0  0
 23 83  1  0  0  0  0
 24 84  1  0  0  0  0
 25 27  2  0  0  0  0
 25 83  1  0  0  0  0
 26 85  1  0  0  0  0
 27 86  1  0  0  0  0
 28 65  2  0  0  0  0
 29 58  1  0  0  0  0
 29 66  2  0  0  0  0
 30 67  1  0  0  0  0
 30 70  1  0  0  0  0
 31 71  1  0  0  0  0
 31 76  2  0  0  0  0
 32 47  1  0  0  0  0
 32 72  1  0  0  0  0
 32 77  2  0  0  0  0
 33 59  1  0  0  0  0
 33 63  1  0  0  0  0
 33 78  2  0  0  0  0
 34 60  1  0  0  0  0
 34 68  1  0  0  0  0
 34 79  2  0  0  0  0
 35 61  1  0  0  0  0
 35 73  1  0  0  0  0
 35 80  2  0  0  0  0
 36 69  1  0  0  0  0
 36 74  1  0  0  0  0
 36 81  2  0  0  0  0
 37 40  1  0  0  0  0
 38 47  1  0  0  0  0
 39 68  1  0  0  0  0
 40 42  1  0  0  0  0
 41 43  1  0  0  0  0
 41 44  1  0  0  0  0
 42 46  1  0  0  0  0
 43 48  1  0  0  0  0
 44 69  1  0  0  0  0
 45 48  1  0  0  0  0
 45 69  1  0  0  0  0
 46 72  1  0  0  0  0
 47 68  1  0  0  0  0
 48 67  1  0  0  0  0
 49 61  1  0  0  0  0
 50 62  1  0  0  0  0
 51 63  1  0  0  0  0
 52 63  1  0  0  0  0
 53 64  1  0  0  0  0
 54 64  1  0  0  0  0
 55 64  1  0  0  0  0
 56 75  1  0  0  0  0
 57 63  1  0  0  0  0
 58 74  1  0  0  0  0
 59 62  1  0  0  0  0
 60 64  1  0  0  0  0
 60 73  1  0  0  0  0
 61 75  1  0  0  0  0
 62 84  1  0  0  0  0
 65 67  1  0  0  0  0
 66 82  1  0  0  0  0
M  CHG  1  75   1
M  ISO  4  36 100  62 101  74 100  84 101
M  END
> <Batch ID>
0145

> <Smiles>
CNC(C)C(=O)NC(C(=O)N1Cc2cc([101O:1][101CH:1](C)CC(=O)C(C)(C)Cc3conc3C[100NH:0][100C:0](=O)N3CCCC(n4nc(-c5ccc(Oc6ccc(F)cc6F)cc5)c(C(N)=O)c4N)C3)ccc2CC1C(=O)NC1CCCc2ccccc21)C(C)(C)C

> <Shape>
0.265

> <Color>
0.075

> <Negative vol penalty>
0.000

$$$$

  -OEChem-04052303073D

 89 97  0     1  0  0  0  0  0999 V2000
  -36.8406  -25.6082   12.3447 C   0  0  0  0  0  0  0  0  0  0  0  0
  -36.6090  -25.0944   13.6166 C   0  0  0  0  0  0  0  0  0  0  0  0
  -23.0730   -9.8708   19.9406 C   0  0  0  0  0  0  0  0  0  0  0  0
  -23.8311   -9.8771   22.2346 C   0  0  0  0  0  0  0  0  0  0  0  0
  -35.7655  -25.9168   11.5123 C   0  0  0  0  0  0  0  0  0  0  0  0
  -35.3019  -24.8899   14.0573 C   0  0  0  0  0  0  0  0  0  0  0  0
  -34.7029  -20.4149   16.3510 C   0  0  0  0  0  0  0  0  0  0  0  0
  -32.6734  -17.4641   23.4418 C   0  0  0  0  0  0  0  0  0  0  0  0
  -32.0671  -16.5877   22.5417 C   0  0  0  0  0  0  0  0  0  0  0  0
  -22.3277   -8.7185   20.1901 C   0  0  0  0  0  0  0  0  0  0  0  0
  -23.0857   -8.7248   22.4841 C   0  0  0  0  0  0  0  0  0  0  0  0
  -35.1552  -20.3076   17.6654 C   0  0  0  0  0  0  0  0  0  0  0  0
  -19.3774   -7.9253   21.6391 C   0  0  0  0  0  0  0  0  0  0  0  0
  -18.0709   -7.8804   21.1528 C   0  0  0  0  0  0  0  0  0  0  0  0
  -32.8964  -20.6003   18.4601 C   0  0  0  0  0  0  0  0  0  0  0  0
  -30.5050  -18.3374   24.0521 C   0  0  0  0  0  0  0  0  0  0  0  0
  -18.6295   -5.9366   19.8311 C   0  0  0  0  0  0  0  0  0  0  0  0
  -23.8248  -10.4501   20.9629 C   0  0  0  0  0  0  0  0  0  0  0  0
  -24.1695  -12.9749   20.8429 C   0  0  0  0  0  0  0  0  0  0  0  0
  -34.4449  -25.7069   11.9394 C   0  0  0  0  0  0  0  0  0  0  0  0
  -33.3433  -20.6270   16.0812 C   0  0  0  0  0  0  0  0  0  0  0  0
  -34.2081  -25.1972   13.2303 C   0  0  0  0  0  0  0  0  0  0  0  0
  -32.4291  -20.7075   17.1413 C   0  0  0  0  0  0  0  0  0  0  0  0
  -31.8923  -18.3389   24.1970 C   0  0  0  0  0  0  0  0  0  0  0  0
  -29.8987  -17.4611   23.1520 C   0  0  0  0  0  0  0  0  0  0  0  0
  -30.6798  -16.5863   22.3968 C   0  0  0  0  0  0  0  0  0  0  0  0
  -22.3340   -8.1455   21.4618 C   0  0  0  0  0  0  0  0  0  0  0  0
  -34.2523  -20.4031   18.7203 C   0  0  0  0  0  0  0  0  0  0  0  0
  -20.3101   -6.9758   21.2213 C   0  0  0  0  0  0  0  0  0  0  0  0
  -17.6969   -6.8861   20.2488 C   0  0  0  0  0  0  0  0  0  0  0  0
  -19.9361   -5.9815   20.3174 C   0  0  0  0  0  0  0  0  0  0  0  0
  -24.5954  -11.6401   20.7056 C   0  0  0  0  0  0  0  0  0  0  0  0
  -25.2628  -13.7231   20.4804 C   0  0  0  0  0  0  0  0  0  0  0  0
  -22.8993  -13.4921   21.2608 C   0  0  0  0  0  0  0  0  0  0  0  0
  -31.6692  -22.9320   14.6711 C   0  0  0  0  0  0  0  0  0  0  0  0
  -34.8747  -21.3962   22.1546 C   0  0  0  0  0  0  0  0  0  0  0  0
  -29.2062  -20.8626   15.0878 C   0  0  0  0  0  0  0  0  0  0  0  0
  -27.8936  -18.2325   16.8217 C   0  0  0  0  0  0  0  0  0  0  0  0
  -33.0932  -21.4061   23.9941 C   0  0  0  0  0  0  0  0  0  0  0  0
  -30.7300  -14.7627   20.6594 C   0  0  0  0  0  0  0  0  0  0  0  0
  -33.3141  -26.1000   11.0220 C   0  0  0  0  0  0  0  0  0  0  0  0
  -32.8675  -20.7139   14.6569 C   0  0  0  0  0  0  0  0  0  0  0  0
  -30.9562  -20.9145   16.9044 C   0  0  0  0  0  0  0  0  0  0  0  0
  -31.9681  -25.5023   11.4236 C   0  0  0  0  0  0  0  0  0  0  0  0
  -29.6148  -12.3500   18.2904 C   0  0  0  0  0  0  0  0  0  0  0  0
  -31.7336  -25.6735   12.9211 C   0  0  0  0  0  0  0  0  0  0  0  0
  -28.1745  -12.0600   18.7189 C   0  0  0  0  0  0  0  0  0  0  0  0
  -30.5292  -12.5779   19.4928 C   0  0  0  0  0  0  0  0  0  0  0  0
  -28.6219  -13.3045   20.8725 C   0  0  0  0  0  0  0  0  0  0  0  0
  -32.8051  -24.9380   13.7350 C   0  0  1  0  0  0  0  0  0  0  0  0
  -31.5352  -21.4435   14.5154 C   0  0  1  0  0  0  0  0  0  0  0  0
  -27.6499  -13.1322   19.6939 C   0  0  2  0  0  0  0  0  0  0  0  0
  -27.9576  -18.2078   21.7516 C   0  0  0  0  0  0  0  0  0  0  0  0
  -25.8466  -16.7873   16.9572 C   0  0  0  0  0  0  0  0  0  0  0  0
  -35.3593  -22.4503   24.3597 C   0  0  0  0  0  0  0  0  0  0  0  0
  -33.7132  -23.5335   22.8372 C   0  0  0  0  0  0  0  0  0  0  0  0
  -27.7021  -23.1272   16.4733 C   0  0  0  0  0  0  0  0  0  0  0  0
  -26.1251  -21.4184   17.4014 C   0  0  0  0  0  0  0  0  0  0  0  0
  -26.3059  -21.7362   14.9338 C   0  0  0  0  0  0  0  0  0  0  0  0
  -29.4397  -15.7844   16.2092 C   0  0  0  0  0  0  0  0  0  0  0  0
  -28.4107  -17.4834   23.0152 C   0  0  0  0  0  0  0  0  0  0  0  0
  -32.5452  -19.2838   25.1640 C   0  0  0  0  0  0  0  0  0  0  0  0
  -33.9608  -21.0143   21.0001 C   0  0  0  0  0  0  0  0  0  1  0  0
  -28.1954  -20.6099   16.1802 C   0  0  1  0  0  0  0  0  0  0  0  0
  -27.2340  -16.9473   16.3554 C   0  0  2  0  0  0  0  0  0  0  0  0
  -34.2499  -22.1759   23.3299 C   0  0  0  0  0  0  0  0  0  0  0  0
  -27.1101  -21.7209   16.2520 C   0  0  0  0  0  0  0  0  0  0  0  0
  -25.8605  -11.5429   20.2884 N   0  0  0  0  0  0  0  0  0  0  0  0
  -26.2389  -12.8260   20.1602 N   0  0  0  0  0  0  0  0  0  0  0  0
  -30.5410  -20.9996   15.4945 N   0  0  0  0  0  0  0  0  0  0  0  0
  -29.9706  -13.6094   20.3697 N   0  0  0  0  0  0  0  0  0  0  0  0
  -25.4747  -15.0544   20.4075 N   0  0  0  0  0  0  0  0  0  0  0  0
  -21.8861  -12.5841   21.5973 N   0  0  0  0  0  0  0  0  0  0  0  0
  -30.0829  -15.6886   21.4772 N   0  0  0  0  0  0  0  0  0  0  0  0
  -32.5315  -23.5172   13.7636 N   0  0  0  0  0  0  0  0  0  0  0  0
  -33.4737  -20.1737   24.5067 N   0  0  0  0  0  0  0  0  0  0  0  0
  -27.6654  -19.2713   15.9441 N   0  0  0  0  0  0  0  0  0  0  0  0
  -28.0567  -15.7695   16.7515 N   0  3  0  0  0  0  0  0  0  0  0  0
  -22.6643  -14.7230   21.3178 O   0  0  0  0  0  0  0  0  0  0  0  0
  -31.0359  -23.5072   15.5485 O   0  0  0  0  0  0  0  0  0  0  0  0
  -36.0636  -21.0708   22.1525 O   0  0  0  0  0  0  0  0  0  0  0  0
  -28.8264  -20.9288   13.9160 O   0  0  0  0  0  0  0  0  0  0  0  0
  -28.5431  -18.3084   17.8624 O   0  0  0  0  0  0  0  0  0  0  0  0
  -31.9479  -21.8525   24.0488 O   0  0  0  0  0  0  0  0  0  0  0  0
  -31.8596  -14.9302   20.1927 O   0  0  0  0  0  0  0  0  0  0  0  0
  -21.6067   -7.0212   21.7056 O   0  0  0  0  0  0  0  0  0  0  0  0
  -34.6912  -20.2994   20.0042 O   0  0  0  0  0  0  0  0  0  1  0  0
  -16.4418   -6.8422   19.7831 F   0  0  0  0  0  0  0  0  0  0  0  0
  -20.8274   -5.0659   19.9134 F   0  0  0  0  0  0  0  0  0  0  0  0
  1  2  1  0  0  0  0
  1  5  2  0  0  0  0
  2  6  2  0  0  0  0
  3 10  2  0  0  0  0
  3 18  1  0  0  0  0
  4 11  1  0  0  0  0
  4 18  2  0  0  0  0
  5 20  1  0  0  0  0
  6 22  1  0  0  0  0
  7 12  2  0  0  0  0
  7 21  1  0  0  0  0
  8  9  2  0  0  0  0
  8 24  1  0  0  0  0
  9 26  1  0  0  0  0
 10 27  1  0  0  0  0
 11 27  2  0  0  0  0
 12 28  1  0  0  0  0
 13 14  2  0  0  0  0
 13 29  1  0  0  0  0
 14 30  1  0  0  0  0
 15 23  1  0  0  0  0
 15 28  2  0  0  0  0
 16 24  2  0  0  0  0
 16 25  1  0  0  0  0
 17 30  2  0  0  0  0
 17 31  1  0  0  0  0
 18 32  1  0  0  0  0
 19 32  1  0  0  0  0
 19 33  2  0  0  0  0
 19 34  1  0  0  0  0
 20 22  2  0  0  0  0
 20 41  1  0  0  0  0
 21 23  2  0  0  0  0
 21 42  1  0  0  0  0
 22 50  1  0  0  0  0
 23 43  1  0  0  0  0
 24 62  1  0  0  0  0
 25 26  2  0  0  0  0
 25 61  1  0  0  0  0
 26 74  1  0  0  0  0
 27 86  1  0  0  0  0
 28 87  1  0  0  0  0
 29 31  2  0  0  0  0
 29 86  1  0  0  0  0
 30 88  1  0  0  0  0
 31 89  1  0  0  0  0
 32 68  2  0  0  0  0
 33 69  1  0  0  0  0
 33 72  1  0  0  0  0
 34 73  1  0  0  0  0
 34 79  2  0  0  0  0
 35 51  1  0  0  0  0
 35 75  1  0  0  0  0
 35 80  2  0  0  0  0
 36 63  1  0  0  0  0
 36 66  1  0  0  0  0
 36 81  2  0  0  0  0
 37 64  1  0  0  0  0
 37 70  1  0  0  0  0
 37 82  2  0  0  0  0
 38 65  1  0  0  0  0
 38 77  1  0  0  0  0
 38 83  2  0  0  0  0
 39 66  1  0  0  0  0
 39 76  1  0  0  0  0
 39 84  2  0  0  0  0
 40 71  1  0  0  0  0
 40 74  1  0  0  0  0
 40 85  2  0  0  0  0
 41 44  1  0  0  0  0
 42 51  1  0  0  0  0
 43 70  1  0  0  0  0
 44 46  1  0  0  0  0
 45 47  1  0  0  0  0
 45 48  1  0  0  0  0
 46 50  1  0  0  0  0
 47 52  1  0  0  0  0
 48 71  1  0  0  0  0
 49 52  1  0  0  0  0
 49 71  1  0  0  0  0
 50 75  1  0  0  0  0
 51 70  1  0  0  0  0
 52 69  1  0  0  0  0
 53 61  1  0  0  0  0
 54 65  1  0  0  0  0
 55 66  1  0  0  0  0
 56 66  1  0  0  0  0
 57 67  1  0  0  0  0
 58 67  1  0  0  0  0
 59 67  1  0  0  0  0
 60 78  1  0  0  0  0
 62 76  1  0  0  0  0
 63 87  1  0  0  0  0
 64 67  1  0  0  0  0
 64 77  1  0  0  0  0
 65 78  1  0  0  0  0
 68 69  1  0  0  0  0
M  CHG  1  78   1
M  ISO  4  40 100  63 101  74 100  87 101
M  END
> <Batch ID>
0145

> <Smiles>
CCc1cc(CNC(=O)C(C)(C)C(=O)[101CH2:1][101O:1]c2ccc3c(c2)CN(C(=O)C(NC(=O)C(C)NC)C(C)(C)C)C(C(=O)NC2CCCc4ccccc42)C3)ccc1[100NH:0][100C:0](=O)N1CCCC(n2nc(-c3ccc(Oc4ccc(F)cc4F)cc3)c(C(N)=O)c2N)C1

> <Shape>
0.155

> <Color>
0.180

> <Negative vol penalty>
0.000

$$$$

  -OEChem-04052303073D

 82 90  0     1  0  0  0  0  0999 V2000
  -28.1152  -38.4218   24.9043 C   0  0  0  0  0  0  0  0  0  0  0  0
  -28.7734  -37.2221   24.6535 C   0  0  0  0  0  0  0  0  0  0  0  0
  -23.3914   -9.5934   20.8808 C   0  0  0  0  0  0  0  0  0  0  0  0
  -24.0155  -10.3238   23.0976 C   0  0  0  0  0  0  0  0  0  0  0  0
  -26.8249  -38.4106   25.4322 C   0  0  0  0  0  0  0  0  0  0  0  0
  -28.1418  -36.0103   24.9316 C   0  0  0  0  0  0  0  0  0  0  0  0
  -28.6774  -30.7756   21.7985 C   0  0  0  0  0  0  0  0  0  0  0  0
  -22.7507   -8.4816   21.4274 C   0  0  0  0  0  0  0  0  0  0  0  0
  -23.3747   -9.2119   23.6443 C   0  0  0  0  0  0  0  0  0  0  0  0
  -29.4469  -29.6319   22.0075 C   0  0  0  0  0  0  0  0  0  0  0  0
  -23.6268   -5.4599   22.6630 C   0  0  0  0  0  0  0  0  0  0  0  0
  -23.8471   -4.2230   22.0571 C   0  0  0  0  0  0  0  0  0  0  0  0
  -31.1335  -19.7695   20.9100 C   0  0  0  0  0  0  0  0  0  0  0  0
  -31.2059  -18.3745   20.6295 C   0  0  0  0  0  0  0  0  0  0  0  0
  -27.5712  -28.5762   23.0967 C   0  0  0  0  0  0  0  0  0  0  0  0
  -21.4816   -4.0214   21.6087 C   0  0  0  0  0  0  0  0  0  0  0  0
  -24.0239  -10.5145   21.7158 C   0  0  0  0  0  0  0  0  0  0  0  0
  -24.1238  -12.9273   20.8937 C   0  0  0  0  0  0  0  0  0  0  0  0
  -26.1735  -37.1980   25.7079 C   0  0  0  0  0  0  0  0  0  0  0  0
  -27.3502  -30.8323   22.2475 C   0  0  0  0  0  0  0  0  0  0  0  0
  -26.8420  -35.9829   25.4650 C   0  0  0  0  0  0  0  0  0  0  0  0
  -26.7862  -29.7208   22.8899 C   0  0  0  0  0  0  0  0  0  0  0  0
  -22.7423   -8.2908   22.8091 C   0  0  0  0  0  0  0  0  0  0  0  0
  -28.8948  -28.5330   22.6592 C   0  0  0  0  0  0  0  0  0  0  0  0
  -22.3339   -5.9776   22.7418 C   0  0  0  0  0  0  0  0  0  0  0  0
  -22.7745   -3.5038   21.5299 C   0  0  0  0  0  0  0  0  0  0  0  0
  -21.2613   -5.2584   22.2147 C   0  0  0  0  0  0  0  0  0  0  0  0
  -24.6864  -11.6629   21.1517 C   0  0  0  0  0  0  0  0  0  0  0  0
  -25.1564  -13.6607   20.3624 C   0  0  0  0  0  0  0  0  0  0  0  0
  -29.9250  -20.1231   21.4686 C   0  0  0  0  0  0  0  0  0  0  0  0
  -30.0498  -17.7147   20.9847 C   0  0  0  0  0  0  0  0  0  0  0  0
  -22.7873  -13.3970   21.1148 C   0  0  0  0  0  0  0  0  0  0  0  0
  -25.7594  -32.6400   24.3224 C   0  0  0  0  0  0  0  0  0  0  0  0
  -23.1969  -31.0089   23.1841 C   0  0  0  0  0  0  0  0  0  0  0  0
  -30.0908  -22.6071   21.8485 C   0  0  0  0  0  0  0  0  0  0  0  0
  -21.9917  -28.2000   21.6661 C   0  0  0  0  0  0  0  0  0  0  0  0
  -30.4757  -15.3064   20.3806 C   0  0  0  0  0  0  0  0  0  0  0  0
  -24.7967  -37.2369   26.3223 C   0  0  0  0  0  0  0  0  0  0  0  0
  -26.5251  -32.0634   21.9907 C   0  0  0  0  0  0  0  0  0  0  0  0
  -25.3597  -29.7235   23.3733 C   0  0  0  0  0  0  0  0  0  0  0  0
  -24.0545  -35.9056   26.2384 C   0  0  0  0  0  0  0  0  0  0  0  0
  -29.7385  -12.2204   18.7649 C   0  0  0  0  0  0  0  0  0  0  0  0
  -24.9668  -34.7583   26.6605 C   0  0  0  0  0  0  0  0  0  0  0  0
  -28.3121  -11.9043   19.2206 C   0  0  0  0  0  0  0  0  0  0  0  0
  -30.5572  -12.8745   19.8765 C   0  0  0  0  0  0  0  0  0  0  0  0
  -28.5133  -13.7420   20.9438 C   0  0  0  0  0  0  0  0  0  0  0  0
  -26.1808  -34.6478   25.7302 C   0  0  1  0  0  0  0  0  0  0  0  0
  -25.3442  -32.2015   22.9466 C   0  0  1  0  0  0  0  0  0  0  0  0
  -27.6305  -13.1413   19.8377 C   0  0  2  0  0  0  0  0  0  0  0  0
  -19.8498  -27.1378   20.9036 C   0  0  0  0  0  0  0  0  0  0  0  0
  -22.5232  -30.2985   26.0740 C   0  0  0  0  0  0  0  0  0  0  0  0
  -20.9995  -28.5114   25.2062 C   0  0  0  0  0  0  0  0  0  0  0  0
  -20.5503  -30.9039   24.6614 C   0  0  0  0  0  0  0  0  0  0  0  0
  -22.8858  -28.1490   18.8453 C   0  0  0  0  0  0  0  0  0  0  0  0
  -29.2030  -23.7087   22.4107 C   0  0  0  0  0  0  0  0  0  0  0  0
  -29.8754  -25.0770   22.3820 C   0  0  0  0  0  0  0  0  0  0  0  0
  -28.9521  -26.1682   22.9042 C   0  0  0  0  0  0  0  0  0  1  0  0
  -22.4951  -29.7253   23.5567 C   0  0  1  0  0  0  0  0  0  0  0  0
  -21.0271  -28.0156   20.5085 C   0  0  2  0  0  0  0  0  0  0  0  0
  -21.6695  -29.8601   24.8673 C   0  0  0  0  0  0  0  0  0  0  0  0
  -25.9763  -11.5935   20.8120 N   0  0  0  0  0  0  0  0  0  0  0  0
  -26.2327  -12.8235   20.3351 N   0  0  0  0  0  0  0  0  0  0  0  0
  -24.5956  -30.9529   23.1041 N   0  0  0  0  0  0  0  0  0  0  0  0
  -29.8513  -14.0415   20.4102 N   0  0  0  0  0  0  0  0  0  0  0  0
  -25.2396  -14.9335   19.9204 N   0  0  0  0  0  0  0  0  0  0  0  0
  -21.8514  -12.5129   21.6687 N   0  0  0  0  0  0  0  0  0  0  0  0
  -29.4351  -21.3801   21.8959 N   0  0  0  0  0  0  0  0  0  0  0  0
  -29.6957  -16.3463   20.8853 N   0  0  0  0  0  0  0  0  0  0  0  0
  -25.8072  -34.0114   24.4853 N   0  0  0  0  0  0  0  0  0  0  0  0
  -21.7074  -29.3376   22.3916 N   0  0  0  0  0  0  0  0  0  0  0  0
  -21.7205  -27.3798   19.3527 N   0  3  0  0  0  0  0  0  0  0  0  0
  -22.4291  -14.5610   20.8143 O   0  0  0  0  0  0  0  0  0  0  0  0
  -26.0158  -31.7966   25.1737 O   0  0  0  0  0  0  0  0  0  0  0  0
  -22.5283  -32.0220   22.9650 O   0  0  0  0  0  0  0  0  0  0  0  0
  -31.2204  -22.8326   21.4271 O   0  0  0  0  0  0  0  0  0  0  0  0
  -22.9036  -27.4115   21.9053 O   0  0  0  0  0  0  0  0  0  0  0  0
  -31.6076  -15.4607   19.9149 O   0  0  0  0  0  0  0  0  0  0  0  0
  -22.1170   -7.2061   23.3429 O   0  0  0  0  0  0  0  0  0  0  0  0
  -29.6438  -27.4157   22.8650 O   0  0  0  0  0  0  0  0  0  1  0  0
  -22.9863   -2.3167   20.9468 F   0  0  0  0  0  0  0  0  0  0  0  0
  -20.0172   -5.7511   22.2863 F   0  0  0  0  0  0  0  0  0  0  0  0
  -28.8839  -18.7760   21.6530 S   0  0  0  0  0  0  0  0  0  0  0  0
  1  2  1  0  0  0  0
  1  5  2  0  0  0  0
  2  6  2  0  0  0  0
  3  8  2  0  0  0  0
  3 17  1  0  0  0  0
  4  9  1  0  0  0  0
  4 17  2  0  0  0  0
  5 19  1  0  0  0  0
  6 21  1  0  0  0  0
  7 10  2  0  0  0  0
  7 20  1  0  0  0  0
  8 23  1  0  0  0  0
  9 23  2  0  0  0  0
 10 24  1  0  0  0  0
 11 12  2  0  0  0  0
 11 25  1  0  0  0  0
 12 26  1  0  0  0  0
 13 14  1  0  0  0  0
 13 30  2  0  0  0  0
 14 31  2  0  0  0  0
 15 22  1  0  0  0  0
 15 24  2  0  0  0  0
 16 26  2  0  0  0  0
 16 27  1  0  0  0  0
 17 28  1  0  0  0  0
 18 28  1  0  0  0  0
 18 29  2  0  0  0  0
 18 32  1  0  0  0  0
 19 21  2  0  0  0  0
 19 38  1  0  0  0  0
 20 22  2  0  0  0  0
 20 39  1  0  0  0  0
 21 47  1  0  0  0  0
 22 40  1  0  0  0  0
 23 78  1  0  0  0  0
 24 79  1  0  0  0  0
 25 27  2  0  0  0  0
 25 78  1  0  0  0  0
 26 80  1  0  0  0  0
 27 81  1  0  0  0  0
 28 61  2  0  0  0  0
 29 62  1  0  0  0  0
 29 65  1  0  0  0  0
 30 67  1  0  0  0  0
 30 82  1  0  0  0  0
 31 68  1  0  0  0  0
 31 82  1  0  0  0  0
 32 66  1  0  0  0  0
 32 72  2  0  0  0  0
 33 48  1  0  0  0  0
 33 69  1  0  0  0  0
 33 73  2  0  0  0  0
 34 58  1  0  0  0  0
 34 63  1  0  0  0  0
 34 74  2  0  0  0  0
 35 55  1  0  0  0  0
 35 67  1  0  0  0  0
 35 75  2  0  0  0  0
 36 59  1  0  0  0  0
 36 70  1  0  0  0  0
 36 76  2  0  0  0  0
 37 64  1  0  0  0  0
 37 68  1  0  0  0  0
 37 77  2  0  0  0  0
 38 41  1  0  0  0  0
 39 48  1  0  0  0  0
 40 63  1  0  0  0  0
 41 43  1  0  0  0  0
 42 44  1  0  0  0  0
 42 45  1  0  0  0  0
 43 47  1  0  0  0  0
 44 49  1  0  0  0  0
 45 64  1  0  0  0  0
 46 49  1  0  0  0  0
 46 64  1  0  0  0  0
 47 69  1  0  0  0  0
 48 63  1  0  0  0  0
 49 62  1  0  0  0  0
 50 59  1  0  0  0  0
 51 60  1  0  0  0  0
 52 60  1  0  0  0  0
 53 60  1  0  0  0  0
 54 71  1  0  0  0  0
 55 56  1  0  0  0  0
 56 57  1  0  0  0  0
 57 79  1  0  0  0  0
 58 60  1  0  0  0  0
 58 70  1  0  0  0  0
 59 71  1  0  0  0  0
 61 62  1  0  0  0  0
M  CHG  1  71   1
M  ISO  4  37 100  57 101  68 100  79 101
M  END
> <Batch ID>
0145

> <Smiles>
CNC(C)C(=O)NC(C(=O)N1Cc2cc([101O:1][101CH2:1]CCC(=O)Nc3ccc([100NH:0][100C:0](=O)N4CCCC(n5nc(-c6ccc(Oc7ccc(F)cc7F)cc6)c(C(N)=O)c5N)C4)s3)ccc2CC1C(=O)NC1CCCc2ccccc21)C(C)(C)C

> <Shape>
0.334

> <Color>
0.188

> <Negative vol penalty>
0.000

$$$$

  -OEChem-04052303073D

 85 94  0     1  0  0  0  0  0999 V2000
  -19.0480  -27.8532   18.8723 C   0  0  0  0  0  0  0  0  0  0  0  0
  -20.4284  -27.7793   19.0288 C   0  0  0  0  0  0  0  0  0  0  0  0
  -23.0055   -9.3124   19.4151 C   0  0  0  0  0  0  0  0  0  0  0  0
  -23.7815   -9.8487   21.6394 C   0  0  0  0  0  0  0  0  0  0  0  0
  -18.2246  -27.9476   19.9934 C   0  0  0  0  0  0  0  0  0  0  0  0
  -20.9862  -27.8010   20.3066 C   0  0  0  0  0  0  0  0  0  0  0  0
  -31.4069  -19.1341   19.9200 C   0  0  0  0  0  0  0  0  0  0  0  0
  -29.0498  -19.6642   19.8959 C   0  0  0  0  0  0  0  0  0  0  0  0
  -24.6120  -24.3163   20.9029 C   0  0  0  0  0  0  0  0  0  0  0  0
  -31.1007  -17.7776   20.0275 C   0  0  0  0  0  0  0  0  0  0  0  0
  -28.7437  -18.3076   20.0033 C   0  0  0  0  0  0  0  0  0  0  0  0
  -22.1929   -8.3080   19.9408 C   0  0  0  0  0  0  0  0  0  0  0  0
  -22.9688   -8.8443   22.1651 C   0  0  0  0  0  0  0  0  0  0  0  0
  -25.8640  -24.6007   20.3594 C   0  0  0  0  0  0  0  0  0  0  0  0
  -23.0472   -5.4775   22.4638 C   0  0  0  0  0  0  0  0  0  0  0  0
  -23.6027   -4.6294   23.4218 C   0  0  0  0  0  0  0  0  0  0  0  0
  -26.6543  -25.2609   22.5409 C   0  0  0  0  0  0  0  0  0  0  0  0
  -21.9282   -5.3327   25.0152 C   0  0  0  0  0  0  0  0  0  0  0  0
  -23.7999  -10.0827   20.2644 C   0  0  0  0  0  0  0  0  0  0  0  0
  -24.2304  -12.2468   18.9840 C   0  0  0  0  0  0  0  0  0  0  0  0
  -30.3814  -20.0775   19.8543 C   0  0  0  0  0  0  0  0  0  0  0  0
  -18.7720  -27.9607   21.2860 C   0  0  0  0  0  0  0  0  0  0  0  0
  -24.3682  -24.5128   22.2698 C   0  0  0  0  0  0  0  0  0  0  0  0
  -20.1694  -27.8970   21.4460 C   0  0  0  0  0  0  0  0  0  0  0  0
  -25.3991  -24.9758   23.0997 C   0  0  0  0  0  0  0  0  0  0  0  0
  -29.7691  -17.3643   20.0691 C   0  0  0  0  0  0  0  0  0  0  0  0
  -22.1745   -8.0739   21.3157 C   0  0  0  0  0  0  0  0  0  0  0  0
  -26.8846  -25.0758   21.1779 C   0  0  0  0  0  0  0  0  0  0  0  0
  -21.9322   -6.2532   22.7815 C   0  0  0  0  0  0  0  0  0  0  0  0
  -23.0432   -4.5570   24.6975 C   0  0  0  0  0  0  0  0  0  0  0  0
  -21.3728   -6.1808   24.0572 C   0  0  0  0  0  0  0  0  0  0  0  0
  -24.6400  -11.1201   19.7219 C   0  0  0  0  0  0  0  0  0  0  0  0
  -25.3964  -12.9164   18.7041 C   0  0  0  0  0  0  0  0  0  0  0  0
  -22.9135  -12.6518   18.5871 C   0  0  0  0  0  0  0  0  0  0  0  0
  -22.3991  -26.3528   23.9553 C   0  0  0  0  0  0  0  0  0  0  0  0
  -23.5930  -24.6680   26.4570 C   0  0  0  0  0  0  0  0  0  0  0  0
  -26.8209  -23.4464   27.5083 C   0  0  0  0  0  0  0  0  0  0  0  0
  -30.3545  -14.9210   20.2539 C   0  0  0  0  0  0  0  0  0  0  0  0
  -17.8445  -28.1117   22.4656 C   0  0  0  0  0  0  0  0  0  0  0  0
  -23.0200  -24.1759   22.8455 C   0  0  0  0  0  0  0  0  0  0  0  0
  -25.1946  -25.1845   24.5773 C   0  0  0  0  0  0  0  0  0  0  0  0
  -18.4923  -27.7509   23.7999 C   0  0  0  0  0  0  0  0  0  0  0  0
  -30.2239  -11.5023   19.2679 C   0  0  0  0  0  0  0  0  0  0  0  0
  -30.1942  -22.1545   18.4216 C   0  0  0  0  0  0  0  0  0  0  0  0
  -30.2127  -22.3501   20.9527 C   0  0  0  0  0  0  0  0  0  0  0  0
  -19.8691  -28.3972   23.9169 C   0  0  0  0  0  0  0  0  0  0  0  0
  -28.7258  -11.1907   19.2374 C   0  0  0  0  0  0  0  0  0  0  0  0
  -30.5361  -23.6416   18.3089 C   0  0  0  0  0  0  0  0  0  0  0  0
  -30.5537  -23.8366   20.8307 C   0  0  0  0  0  0  0  0  0  0  0  0
  -30.5826  -12.4515   20.4098 C   0  0  0  0  0  0  0  0  0  0  0  0
  -28.3013  -13.3813   20.4242 C   0  0  0  0  0  0  0  0  0  0  0  0
  -30.7147  -21.5539   19.7374 C   0  0  0  0  0  0  0  0  0  0  0  0
  -20.8107  -27.8927   22.8167 C   0  0  1  0  0  0  0  0  0  0  0  0
  -22.7318  -24.9014   24.1563 C   0  0  1  0  0  0  0  0  0  0  0  0
  -27.8817  -12.4802   19.2513 C   0  0  2  0  0  0  0  0  0  0  0  0
  -30.0535  -24.4766   19.5162 C   0  0  0  0  0  0  0  0  0  0  0  0
  -30.6310  -25.9001   19.4022 C   0  0  0  0  0  0  0  0  0  0  0  0
  -27.4330  -21.4845   28.9483 C   0  0  0  0  0  0  0  0  0  0  0  0
  -23.5946  -26.7050   28.7287 C   0  0  0  0  0  0  0  0  0  0  0  0
  -25.5814  -25.5250   29.6922 C   0  0  0  0  0  0  0  0  0  0  0  0
  -23.4079  -24.3221   29.4644 C   0  0  0  0  0  0  0  0  0  0  0  0
  -28.5925  -22.3201   25.4222 C   0  0  0  0  0  0  0  0  0  0  0  0
  -28.5164  -24.5879   19.5181 C   0  0  0  0  0  0  0  0  0  1  0  0
  -24.7658  -24.8312   27.3934 C   0  0  1  0  0  0  0  0  0  0  0  0
  -27.2840  -22.0008   27.5257 C   0  0  2  0  0  0  0  0  0  0  0  0
  -24.3381  -25.3559   28.7931 C   0  0  0  0  0  0  0  0  0  0  0  0
  -25.9630  -11.0732   19.8995 N   0  0  0  0  0  0  0  0  0  0  0  0
  -26.3948  -12.1787   19.2691 N   0  0  0  0  0  0  0  0  0  0  0  0
  -23.8571  -24.8468   25.0917 N   0  0  0  0  0  0  0  0  0  0  0  0
  -29.7459  -13.6522   20.3565 N   0  0  0  0  0  0  0  0  0  0  0  0
  -25.6549  -14.0584   18.0322 N   0  0  0  0  0  0  0  0  0  0  0  0
  -21.8270  -11.8481   18.9583 N   0  0  0  0  0  0  0  0  0  0  0  0
  -29.4578  -15.9862   20.1780 N   0  0  0  0  0  0  0  0  0  0  0  0
  -21.3045  -26.5715   23.1408 N   0  0  0  0  0  0  0  0  0  0  0  0
  -25.4481  -23.5420   27.4215 N   0  0  0  0  0  0  0  0  0  0  0  0
  -28.5996  -21.8700   26.8379 N   0  3  0  0  0  0  0  0  0  0  0  0
  -22.7081  -13.6869   17.9089 O   0  0  0  0  0  0  0  0  0  0  0  0
  -23.0838  -27.2107   24.5001 O   0  0  0  0  0  0  0  0  0  0  0  0
  -22.4849  -24.3851   26.9193 O   0  0  0  0  0  0  0  0  0  0  0  0
  -27.5990  -24.3958   27.5697 O   0  0  0  0  0  0  0  0  0  0  0  0
  -31.5805  -15.0508   20.2074 O   0  0  0  0  0  0  0  0  0  0  0  0
  -21.3814   -7.0941   21.8290 O   0  0  0  0  0  0  0  0  0  0  0  0
  -28.1073  -25.3548   20.6498 O   0  0  0  0  0  0  0  0  0  1  0  0
  -23.5758   -3.7414   25.6169 F   0  0  0  0  0  0  0  0  0  0  0  0
  -20.3009   -6.9227   24.3679 F   0  0  0  0  0  0  0  0  0  0  0  0
  1  2  1  0  0  0  0
  1  5  2  0  0  0  0
  2  6  2  0  0  0  0
  3 12  2  0  0  0  0
  3 19  1  0  0  0  0
  4 13  1  0  0  0  0
  4 19  2  0  0  0  0
  5 22  1  0  0  0  0
  6 24  1  0  0  0  0
  7 10  2  0  0  0  0
  7 21  1  0  0  0  0
  8 11  1  0  0  0  0
  8 21  2  0  0  0  0
  9 14  2  0  0  0  0
  9 23  1  0  0  0  0
 10 26  1  0  0  0  0
 11 26  2  0  0  0  0
 12 27  1  0  0  0  0
 13 27  2  0  0  0  0
 14 28  1  0  0  0  0
 15 16  2  0  0  0  0
 15 29  1  0  0  0  0
 16 30  1  0  0  0  0
 17 25  1  0  0  0  0
 17 28  2  0  0  0  0
 18 30  2  0  0  0  0
 18 31  1  0  0  0  0
 19 32  1  0  0  0  0
 20 32  1  0  0  0  0
 20 33  2  0  0  0  0
 20 34  1  0  0  0  0
 21 52  1  0  0  0  0
 22 24  2  0  0  0  0
 22 39  1  0  0  0  0
 23 25  2  0  0  0  0
 23 40  1  0  0  0  0
 24 53  1  0  0  0  0
 25 41  1  0  0  0  0
 26 73  1  0  0  0  0
 27 82  1  0  0  0  0
 28 83  1  0  0  0  0
 29 31  2  0  0  0  0
 29 82  1  0  0  0  0
 30 84  1  0  0  0  0
 31 85  1  0  0  0  0
 32 67  2  0  0  0  0
 33 68  1  0  0  0  0
 33 71  1  0  0  0  0
 34 72  1  0  0  0  0
 34 77  2  0  0  0  0
 35 54  1  0  0  0  0
 35 74  1  0  0  0  0
 35 78  2  0  0  0  0
 36 64  1  0  0  0  0
 36 69  1  0  0  0  0
 36 79  2  0  0  0  0
 37 65  1  0  0  0  0
 37 75  1  0  0  0  0
 37 80  2  0  0  0  0
 38 70  1  0  0  0  0
 38 73  1  0  0  0  0
 38 81  2  0  0  0  0
 39 42  1  0  0  0  0
 40 54  1  0  0  0  0
 41 69  1  0  0  0  0
 42 46  1  0  0  0  0
 43 47  1  0  0  0  0
 43 50  1  0  0  0  0
 44 48  1  0  0  0  0
 44 52  1  0  0  0  0
 45 49  1  0  0  0  0
 45 52  1  0  0  0  0
 46 53  1  0  0  0  0
 47 55  1  0  0  0  0
 48 56  1  0  0  0  0
 49 56  1  0  0  0  0
 50 70  1  0  0  0  0
 51 55  1  0  0  0  0
 51 70  1  0  0  0  0
 53 74  1  0  0  0  0
 54 69  1  0  0  0  0
 55 68  1  0  0  0  0
 56 57  1  0  0  0  0
 56 63  1  0  0  0  0
 58 65  1  0  0  0  0
 59 66  1  0  0  0  0
 60 66  1  0  0  0  0
 61 66  1  0  0  0  0
 62 76  1  0  0  0  0
 63 83  1  0  0  0  0
 64 66  1  0  0  0  0
 64 75  1  0  0  0  0
 65 76  1  0  0  0  0
 67 68  1  0  0  0  0
M  CHG  1  76   1
M  ISO  4  38 100  63 101  73 100  83 101
M  END
> <Batch ID>
0145

> <Smiles>
CNC(C)C(=O)NC(C(=O)N1Cc2cc([101O:1][101CH2:1]C3(C)CCC(c4ccc([100NH:0][100C:0](=O)N5CCCC(n6nc(-c7ccc(Oc8ccc(F)cc8F)cc7)c(C(N)=O)c6N)C5)cc4)CC3)ccc2CC1C(=O)NC1CCCc2ccccc21)C(C)(C)C

> <Shape>
0.237

> <Color>
0.104

> <Negative vol penalty>
0.000

$$$$

  -OEChem-04052303073D

 87 96  0     1  0  0  0  0  0999 V2000
  -26.8164  -37.4856   26.6481 C   0  0  0  0  0  0  0  0  0  0  0  0
  -26.8382  -36.1858   27.1435 C   0  0  0  0  0  0  0  0  0  0  0  0
  -32.2320  -18.8505   21.9507 C   0  0  0  0  0  0  0  0  0  0  0  0
  -23.2820   -9.8204   21.2288 C   0  0  0  0  0  0  0  0  0  0  0  0
  -23.9421  -10.6979   23.3809 C   0  0  0  0  0  0  0  0  0  0  0  0
  -31.3534  -19.8681   22.3227 C   0  0  0  0  0  0  0  0  0  0  0  0
  -26.0508  -37.7888   25.5230 C   0  0  0  0  0  0  0  0  0  0  0  0
  -26.0935  -35.1886   26.5147 C   0  0  0  0  0  0  0  0  0  0  0  0
  -28.3973  -28.3256   23.5790 C   0  0  0  0  0  0  0  0  0  0  0  0
  -31.7360  -17.6631   21.4124 C   0  0  0  0  0  0  0  0  0  0  0  0
  -22.5977   -8.7828   21.8618 C   0  0  0  0  0  0  0  0  0  0  0  0
  -23.2577   -9.6603   24.0139 C   0  0  0  0  0  0  0  0  0  0  0  0
  -28.7099  -27.1570   22.8841 C   0  0  0  0  0  0  0  0  0  0  0  0
  -20.0598   -8.9045   24.8026 C   0  0  0  0  0  0  0  0  0  0  0  0
  -19.2575   -9.2314   25.8958 C   0  0  0  0  0  0  0  0  0  0  0  0
  -29.4830  -18.5108   21.6181 C   0  0  0  0  0  0  0  0  0  0  0  0
  -26.7759  -27.4699   21.4664 C   0  0  0  0  0  0  0  0  0  0  0  0
  -20.5789   -7.7763   27.3007 C   0  0  0  0  0  0  0  0  0  0  0  0
  -23.9543  -10.7779   21.9884 C   0  0  0  0  0  0  0  0  0  0  0  0
  -29.9790  -19.6982   22.1564 C   0  0  0  0  0  0  0  0  0  0  0  0
  -24.1510  -13.1117   20.9774 C   0  0  0  0  0  0  0  0  0  0  0  0
  -25.3040  -36.7928   24.8743 C   0  0  0  0  0  0  0  0  0  0  0  0
  -27.2802  -29.0799   23.2098 C   0  0  0  0  0  0  0  0  0  0  0  0
  -25.3162  -35.4790   25.3806 C   0  0  0  0  0  0  0  0  0  0  0  0
  -26.4649  -28.6480   22.1507 C   0  0  0  0  0  0  0  0  0  0  0  0
  -30.3616  -17.4932   21.2461 C   0  0  0  0  0  0  0  0  0  0  0  0
  -22.5855   -8.7027   23.2543 C   0  0  0  0  0  0  0  0  0  0  0  0
  -27.9011  -26.7301   21.8307 C   0  0  0  0  0  0  0  0  0  0  0  0
  -21.1216   -8.0134   24.9584 C   0  0  0  0  0  0  0  0  0  0  0  0
  -19.5170   -8.6673   27.1449 C   0  0  0  0  0  0  0  0  0  0  0  0
  -21.3812   -7.4494   26.2075 C   0  0  0  0  0  0  0  0  0  0  0  0
  -24.6619  -11.8497   21.3351 C   0  0  0  0  0  0  0  0  0  0  0  0
  -25.2114  -13.7574   20.3898 C   0  0  0  0  0  0  0  0  0  0  0  0
  -29.0499  -20.7730   22.5486 C   0  0  0  0  0  0  0  0  0  0  0  0
  -22.8356  -13.6522   21.1600 C   0  0  0  0  0  0  0  0  0  0  0  0
  -25.1822  -32.1279   23.8299 C   0  0  0  0  0  0  0  0  0  0  0  0
  -25.3933  -31.7953   20.7876 C   0  0  0  0  0  0  0  0  0  0  0  0
  -26.2178  -31.3189   17.5119 C   0  0  0  0  0  0  0  0  0  0  0  0
  -30.5938  -15.1787   20.2790 C   0  0  0  0  0  0  0  0  0  0  0  0
  -24.4542  -37.1784   23.6894 C   0  0  0  0  0  0  0  0  0  0  0  0
  -26.8707  -30.3123   23.9696 C   0  0  0  0  0  0  0  0  0  0  0  0
  -25.2537  -29.4728   21.8109 C   0  0  0  0  0  0  0  0  0  0  0  0
  -23.9894  -35.9849   22.8590 C   0  0  0  0  0  0  0  0  0  0  0  0
  -29.7256  -12.0072   18.9133 C   0  0  0  0  0  0  0  0  0  0  0  0
  -23.4515  -34.8815   23.7645 C   0  0  0  0  0  0  0  0  0  0  0  0
  -28.2888  -11.7873   19.3922 C   0  0  0  0  0  0  0  0  0  0  0  0
  -28.8125  -23.1088   19.8072 C   0  0  0  0  0  0  0  0  0  0  0  0
  -30.5738  -12.7131   19.9698 C   0  0  0  0  0  0  0  0  0  0  0  0
  -29.2171  -21.7181   20.2823 C   0  0  0  0  0  0  0  0  0  0  0  0
  -27.7956  -22.8077   21.9591 C   0  0  0  0  0  0  0  0  0  0  0  0
  -28.5704  -13.7462   20.9640 C   0  0  0  0  0  0  0  0  0  0  0  0
  -24.5413  -34.3646   24.7114 C   0  0  1  0  0  0  0  0  0  0  0  0
  -26.2506  -31.3972   23.0709 C   0  0  1  0  0  0  0  0  0  0  0  0
  -27.5123  -23.3808   20.5681 C   0  0  1  0  0  0  0  0  0  0  0  0
  -27.6604  -13.0964   19.9088 C   0  0  2  0  0  0  0  0  0  0  0  0
  -25.8261  -32.2712   15.2235 C   0  0  0  0  0  0  0  0  0  0  0  0
  -26.9013  -25.3703   19.1767 C   0  0  0  0  0  0  0  0  0  0  0  0
  -25.8903  -25.0758   21.4571 C   0  0  0  0  0  0  0  0  0  0  0  0
  -22.6076  -30.5533   20.7517 C   0  0  0  0  0  0  0  0  0  0  0  0
  -22.6595  -30.6828   18.2519 C   0  0  0  0  0  0  0  0  0  0  0  0
  -22.7759  -32.7720   19.6099 C   0  0  0  0  0  0  0  0  0  0  0  0
  -29.0964  -31.8913   17.1306 C   0  0  0  0  0  0  0  0  0  0  0  0
  -24.7792  -31.2318   19.5311 C   0  0  1  0  0  0  0  0  0  0  0  0
  -26.7244  -32.2788   16.4506 C   0  0  2  0  0  0  0  0  0  0  0  0
  -27.1309  -24.8499   20.5940 C   0  0  0  0  0  0  0  0  0  1  0  0
  -23.2259  -31.2960   19.5503 C   0  0  0  0  0  0  0  0  0  0  0  0
  -25.9468  -11.7003   21.0024 N   0  0  0  0  0  0  0  0  0  0  0  0
  -26.2522  -12.8770   20.4294 N   0  0  0  0  0  0  0  0  0  0  0  0
  -28.7135  -21.6943   21.6645 N   0  0  0  0  0  0  0  0  0  0  0  0
  -25.5937  -30.9038   21.8485 N   0  0  0  0  0  0  0  0  0  0  0  0
  -29.9181  -13.9469   20.4088 N   0  0  0  0  0  0  0  0  0  0  0  0
  -25.3456  -14.9867   19.8482 N   0  0  0  0  0  0  0  0  0  0  0  0
  -21.8658  -12.8541   21.7820 N   0  0  0  0  0  0  0  0  0  0  0  0
  -29.8587  -16.2867   20.6992 N   0  0  0  0  0  0  0  0  0  0  0  0
  -25.4399  -33.4736   24.0093 N   0  0  0  0  0  0  0  0  0  0  0  0
  -25.3932  -31.9497   18.4193 N   0  0  0  0  0  0  0  0  0  0  0  0
  -28.5637  -20.7971   23.7861 N   0  3  0  0  0  0  0  0  0  0  0  0
  -28.1025  -31.9018   16.0265 N   0  3  0  0  0  0  0  0  0  0  0  0
  -22.5248  -14.8025   20.7679 O   0  0  0  0  0  0  0  0  0  0  0  0
  -24.1953  -31.5171   24.2231 O   0  0  0  0  0  0  0  0  0  0  0  0
  -25.6831  -32.9942   20.8321 O   0  0  0  0  0  0  0  0  0  0  0  0
  -26.5202  -30.1278   17.5317 O   0  0  0  0  0  0  0  0  0  0  0  0
  -31.7298  -15.2487   19.8029 O   0  0  0  0  0  0  0  0  0  0  0  0
  -21.9177   -7.6905   23.8723 O   0  0  0  0  0  0  0  0  0  0  0  0
  -28.2145  -25.5907   21.1537 O   0  0  0  0  0  0  0  0  0  1  0  0
  -18.7475   -8.9825   28.1949 F   0  0  0  0  0  0  0  0  0  0  0  0
  -22.4005   -6.5936   26.3636 F   0  0  0  0  0  0  0  0  0  0  0  0
  1  2  1  0  0  0  0
  1  7  2  0  0  0  0
  2  8  2  0  0  0  0
  3  6  2  0  0  0  0
  3 10  1  0  0  0  0
  4 11  2  0  0  0  0
  4 19  1  0  0  0  0
  5 12  1  0  0  0  0
  5 19  2  0  0  0  0
  6 20  1  0  0  0  0
  7 22  1  0  0  0  0
  8 24  1  0  0  0  0
  9 13  2  0  0  0  0
  9 23  1  0  0  0  0
 10 26  2  0  0  0  0
 11 27  1  0  0  0  0
 12 27  2  0  0  0  0
 13 28  1  0  0  0  0
 14 15  2  0  0  0  0
 14 29  1  0  0  0  0
 15 30  1  0  0  0  0
 16 20  2  0  0  0  0
 16 26  1  0  0  0  0
 17 25  1  0  0  0  0
 17 28  2  0  0  0  0
 18 30  2  0  0  0  0
 18 31  1  0  0  0  0
 19 32  1  0  0  0  0
 20 34  1  0  0  0  0
 21 32  1  0  0  0  0
 21 33  2  0  0  0  0
 21 35  1  0  0  0  0
 22 24  2  0  0  0  0
 22 40  1  0  0  0  0
 23 25  2  0  0  0  0
 23 41  1  0  0  0  0
 24 52  1  0  0  0  0
 25 42  1  0  0  0  0
 26 74  1  0  0  0  0
 27 84  1  0  0  0  0
 28 85  1  0  0  0  0
 29 31  2  0  0  0  0
 29 84  1  0  0  0  0
 30 86  1  0  0  0  0
 31 87  1  0  0  0  0
 32 67  2  0  0  0  0
 33 68  1  0  0  0  0
 33 72  1  0  0  0  0
 34 69  1  0  0  0  0
 34 77  2  0  0  0  0
 35 73  1  0  0  0  0
 35 79  2  0  0  0  0
 36 53  1  0  0  0  0
 36 75  1  0  0  0  0
 36 80  2  0  0  0  0
 37 63  1  0  0  0  0
 37 70  1  0  0  0  0
 37 81  2  0  0  0  0
 38 64  1  0  0  0  0
 38 76  1  0  0  0  0
 38 82  2  0  0  0  0
 39 71  1  0  0  0  0
 39 74  1  0  0  0  0
 39 83  2  0  0  0  0
 40 43  1  0  0  0  0
 41 53  1  0  0  0  0
 42 70  1  0  0  0  0
 43 45  1  0  0  0  0
 44 46  1  0  0  0  0
 44 48  1  0  0  0  0
 45 52  1  0  0  0  0
 46 55  1  0  0  0  0
 47 49  1  0  0  0  0
 47 54  1  0  0  0  0
 48 71  1  0  0  0  0
 49 69  1  0  0  0  0
 50 54  1  0  0  0  0
 50 69  1  0  0  0  0
 51 55  1  0  0  0  0
 51 71  1  0  0  0  0
 52 75  1  0  0  0  0
 53 70  1  0  0  0  0
 54 65  1  0  0  0  0
 55 68  1  0  0  0  0
 56 64  1  0  0  0  0
 57 65  1  0  0  0  0
 58 65  1  0  0  0  0
 59 66  1  0  0  0  0
 60 66  1  0  0  0  0
 61 66  1  0  0  0  0
 62 78  1  0  0  0  0
 63 66  1  0  0  0  0
 63 76  1  0  0  0  0
 64 78  1  0  0  0  0
 65 85  1  0  0  0  0
 67 68  1  0  0  0  0
M  CHG  2  77   1  78   1
M  ISO  4  39 100  65 101  74 100  85 101
M  END
> <Batch ID>
0145

> <Smiles>
CNC(C)C(=O)NC(C(=O)N1Cc2cc([101O:1][101C:1](C)(C)C3CCN(C(=N)c4cccc([100NH:0][100C:0](=O)N5CCCC(n6nc(-c7ccc(Oc8ccc(F)cc8F)cc7)c(C(N)=O)c6N)C5)c4)C3)ccc2CC1C(=O)NC1CCCc2ccccc21)C(C)(C)C

> <Shape>
0.299

> <Color>
0.158

> <Negative vol penalty>
0.000

$$$$

  -OEChem-04052303073D

 85 94  0     1  0  0  0  0  0999 V2000
  -35.8420  -25.8162   10.4027 C   0  0  0  0  0  0  0  0  0  0  0  0
  -35.6592  -24.8892   11.4239 C   0  0  0  0  0  0  0  0  0  0  0  0
  -23.2251   -9.7781   20.2710 C   0  0  0  0  0  0  0  0  0  0  0  0
  -23.9018  -10.1404   22.5618 C   0  0  0  0  0  0  0  0  0  0  0  0
  -35.6764  -27.1765   10.6598 C   0  0  0  0  0  0  0  0  0  0  0  0
  -35.3118  -25.3221   12.7030 C   0  0  0  0  0  0  0  0  0  0  0  0
  -31.6771  -22.4426   16.7035 C   0  0  0  0  0  0  0  0  0  0  0  0
  -22.5270   -8.6342   20.6581 C   0  0  0  0  0  0  0  0  0  0  0  0
  -23.2037   -8.9966   22.9489 C   0  0  0  0  0  0  0  0  0  0  0  0
  -31.9505  -21.6288   17.8020 C   0  0  0  0  0  0  0  0  0  0  0  0
  -19.5691   -7.8970   22.1210 C   0  0  0  0  0  0  0  0  0  0  0  0
  -18.2838   -7.7178   21.6096 C   0  0  0  0  0  0  0  0  0  0  0  0
  -32.4073  -16.2411   22.6893 C   0  0  0  0  0  0  0  0  0  0  0  0
  -31.7390  -23.5380   19.2614 C   0  0  0  0  0  0  0  0  0  0  0  0
  -18.9796   -5.6417   20.5885 C   0  0  0  0  0  0  0  0  0  0  0  0
  -23.9126  -10.5312   21.2228 C   0  0  0  0  0  0  0  0  0  0  0  0
  -32.6833  -17.1816   23.7235 C   0  0  0  0  0  0  0  0  0  0  0  0
  -24.1411  -13.0296   20.7610 C   0  0  0  0  0  0  0  0  0  0  0  0
  -35.3173  -27.6255   11.9405 C   0  0  0  0  0  0  0  0  0  0  0  0
  -31.4430  -23.8146   16.8748 C   0  0  0  0  0  0  0  0  0  0  0  0
  -35.1426  -26.6898   12.9779 C   0  0  0  0  0  0  0  0  0  0  0  0
  -31.4604  -24.3665   18.1637 C   0  0  0  0  0  0  0  0  0  0  0  0
  -22.5163   -8.2435   21.9971 C   0  0  0  0  0  0  0  0  0  0  0  0
  -31.9843  -22.1770   19.0809 C   0  0  0  0  0  0  0  0  0  0  0  0
  -20.5597   -6.9486   21.8661 C   0  0  0  0  0  0  0  0  0  0  0  0
  -17.9891   -6.5902   20.8433 C   0  0  0  0  0  0  0  0  0  0  0  0
  -20.2649   -5.8209   21.0999 C   0  0  0  0  0  0  0  0  0  0  0  0
  -24.6343  -11.7125   20.8234 C   0  0  0  0  0  0  0  0  0  0  0  0
  -25.2096  -13.7762   20.3281 C   0  0  0  0  0  0  0  0  0  0  0  0
  -31.1433  -15.7050   22.8012 C   0  0  0  0  0  0  0  0  0  0  0  0
  -31.6195  -17.3285   24.5865 C   0  0  0  0  0  0  0  0  0  0  0  0
  -33.7034  -20.9738   21.9928 C   0  0  0  0  0  0  0  0  0  0  0  0
  -33.3463  -21.6823   20.9169 C   0  0  0  0  0  0  0  0  0  1  0  0
  -33.9582  -17.9098   23.8518 C   0  0  0  0  0  0  0  0  0  0  0  0
  -22.8340  -13.5331   21.0670 C   0  0  0  0  0  0  0  0  0  0  0  0
  -32.8753  -26.4749   15.8875 C   0  0  0  0  0  0  0  0  0  0  0  0
  -30.3126  -27.9040   17.2706 C   0  0  0  0  0  0  0  0  0  0  0  0
  -27.7939  -27.7405   19.5676 C   0  0  0  0  0  0  0  0  0  0  0  0
  -30.9511  -14.1042   20.8656 C   0  0  0  0  0  0  0  0  0  0  0  0
  -35.1959  -29.1094   12.1819 C   0  0  0  0  0  0  0  0  0  0  0  0
  -31.1232  -24.6738   15.6824 C   0  0  0  0  0  0  0  0  0  0  0  0
  -31.1958  -25.8297   18.4033 C   0  0  0  0  0  0  0  0  0  0  0  0
  -34.8942  -21.2602   22.8598 C   0  0  0  0  0  0  0  0  0  0  0  0
  -33.0439  -19.7059   22.4425 C   0  0  0  0  0  0  0  0  0  0  0  0
  -34.4608  -29.4582   13.4734 C   0  0  0  0  0  0  0  0  0  0  0  0
  -29.4242  -12.7704   17.9387 C   0  0  0  0  0  0  0  0  0  0  0  0
  -34.9819  -28.6109   14.6299 C   0  0  0  0  0  0  0  0  0  0  0  0
  -27.9848  -12.4899   18.3764 C   0  0  0  0  0  0  0  0  0  0  0  0
  -35.3375  -19.8748   23.3136 C   0  0  0  0  0  0  0  0  0  0  0  0
  -30.4235  -12.4829   19.0578 C   0  0  0  0  0  0  0  0  0  0  0  0
  -28.6964  -12.8700   20.7714 C   0  0  0  0  0  0  0  0  0  0  0  0
  -34.7412  -27.1185   14.3726 C   0  0  1  0  0  0  0  0  0  0  0  0
  -31.4078  -26.1538   15.9189 C   0  0  1  0  0  0  0  0  0  0  0  0
  -27.6480  -13.2068   19.6986 C   0  0  2  0  0  0  0  0  0  0  0  0
  -25.8829  -29.0774   20.4941 C   0  0  0  0  0  0  0  0  0  0  0  0
  -32.2800  -29.6092   18.8616 C   0  0  0  0  0  0  0  0  0  0  0  0
  -30.4023  -30.2124   20.4039 C   0  0  0  0  0  0  0  0  0  0  0  0
  -30.2886  -30.8490   17.9947 C   0  0  0  0  0  0  0  0  0  0  0  0
  -25.8108  -25.7194   18.7067 C   0  0  0  0  0  0  0  0  0  0  0  0
  -29.9953  -28.4253   18.6514 C   0  0  1  0  0  0  0  0  0  0  0  0
  -26.3112  -28.0476   19.4602 C   0  0  2  0  0  0  0  0  0  0  0  0
  -30.7485  -29.7468   18.9735 C   0  0  0  0  0  0  0  0  0  0  0  0
  -25.9164  -11.6242   20.4592 N   0  0  0  0  0  0  0  0  0  0  0  0
  -26.2377  -12.8952   20.1637 N   0  0  0  0  0  0  0  0  0  0  0  0
  -34.1023  -19.0769   23.2500 N   0  0  0  0  0  0  0  0  0  0  0  0
  -30.8939  -26.6298   17.2049 N   0  0  0  0  0  0  0  0  0  0  0  0
  -30.0428  -13.1987   20.2774 N   0  0  0  0  0  0  0  0  0  0  0  0
  -25.3606  -15.0938   20.0759 N   0  0  0  0  0  0  0  0  0  0  0  0
  -21.8539  -12.6290   21.4987 N   0  0  0  0  0  0  0  0  0  0  0  0
  -30.4667  -14.7500   22.0026 N   0  0  0  0  0  0  0  0  0  0  0  0
  -33.3581  -26.7781   14.6288 N   0  0  0  0  0  0  0  0  0  0  0  0
  -28.5421  -28.5330   18.7231 N   0  0  0  0  0  0  0  0  0  0  0  0
  -34.9427  -17.3815   24.5729 N   0  3  0  0  0  0  0  0  0  0  0  0
  -25.5092  -26.8092   19.6702 N   0  3  0  0  0  0  0  0  0  0  0  0
  -22.5391  -14.7462   20.9450 O   0  0  0  0  0  0  0  0  0  0  0  0
  -33.5214  -26.4509   16.9285 O   0  0  0  0  0  0  0  0  0  0  0  0
  -30.0477  -28.5986   16.2863 O   0  0  0  0  0  0  0  0  0  0  0  0
  -28.2438  -26.8859   20.3277 O   0  0  0  0  0  0  0  0  0  0  0  0
  -32.0656  -14.3130   20.3796 O   0  0  0  0  0  0  0  0  0  0  0  0
  -21.8350   -7.1275   22.3752 O   0  0  0  0  0  0  0  0  0  0  0  0
  -32.2515  -21.3850   20.1548 O   0  0  0  0  0  0  0  0  0  1  0  0
  -16.7544   -6.4175   20.3535 F   0  0  0  0  0  0  0  0  0  0  0  0
  -21.2121   -4.9057   20.8526 F   0  0  0  0  0  0  0  0  0  0  0  0
  -31.6163  -18.1488   25.6431 F   0  0  0  0  0  0  0  0  0  0  0  0
  -30.2952  -16.3350   24.1488 S   0  0  0  0  0  0  0  0  0  0  0  0
  1  2  1  0  0  0  0
  1  5  2  0  0  0  0
  2  6  2  0  0  0  0
  3  8  2  0  0  0  0
  3 16  1  0  0  0  0
  4  9  1  0  0  0  0
  4 16  2  0  0  0  0
  5 19  1  0  0  0  0
  6 21  1  0  0  0  0
  7 10  2  0  0  0  0
  7 20  1  0  0  0  0
  8 23  1  0  0  0  0
  9 23  2  0  0  0  0
 10 24  1  0  0  0  0
 11 12  2  0  0  0  0
 11 25  1  0  0  0  0
 12 26  1  0  0  0  0
 13 17  1  0  0  0  0
 13 30  2  0  0  0  0
 14 22  1  0  0  0  0
 14 24  2  0  0  0  0
 15 26  2  0  0  0  0
 15 27  1  0  0  0  0
 16 28  1  0  0  0  0
 17 31  2  0  0  0  0
 17 34  1  0  0  0  0
 18 28  1  0  0  0  0
 18 29  2  0  0  0  0
 18 35  1  0  0  0  0
 19 21  2  0  0  0  0
 19 40  1  0  0  0  0
 20 22  2  0  0  0  0
 20 41  1  0  0  0  0
 21 52  1  0  0  0  0
 22 42  1  0  0  0  0
 23 80  1  0  0  0  0
 24 81  1  0  0  0  0
 25 27  2  0  0  0  0
 25 80  1  0  0  0  0
 26 82  1  0  0  0  0
 27 83  1  0  0  0  0
 28 63  2  0  0  0  0
 29 64  1  0  0  0  0
 29 68  1  0  0  0  0
 30 70  1  0  0  0  0
 30 85  1  0  0  0  0
 31 84  1  0  0  0  0
 31 85  1  0  0  0  0
 32 33  2  0  0  0  0
 32 43  1  0  0  0  0
 32 44  1  0  0  0  0
 33 81  1  0  0  0  0
 34 65  1  0  0  0  0
 34 73  2  0  0  0  0
 35 69  1  0  0  0  0
 35 75  2  0  0  0  0
 36 53  1  0  0  0  0
 36 71  1  0  0  0  0
 36 76  2  0  0  0  0
 37 60  1  0  0  0  0
 37 66  1  0  0  0  0
 37 77  2  0  0  0  0
 38 61  1  0  0  0  0
 38 72  1  0  0  0  0
 38 78  2  0  0  0  0
 39 67  1  0  0  0  0
 39 70  1  0  0  0  0
 39 79  2  0  0  0  0
 40 45  1  0  0  0  0
 41 53  1  0  0  0  0
 42 66  1  0  0  0  0
 43 49  1  0  0  0  0
 44 65  1  0  0  0  0
 45 47  1  0  0  0  0
 46 48  1  0  0  0  0
 46 50  1  0  0  0  0
 47 52  1  0  0  0  0
 48 54  1  0  0  0  0
 49 65  1  0  0  0  0
 50 67  1  0  0  0  0
 51 54  1  0  0  0  0
 51 67  1  0  0  0  0
 52 71  1  0  0  0  0
 53 66  1  0  0  0  0
 54 64  1  0  0  0  0
 55 61  1  0  0  0  0
 56 62  1  0  0  0  0
 57 62  1  0  0  0  0
 58 62  1  0  0  0  0
 59 74  1  0  0  0  0
 60 62  1  0  0  0  0
 60 72  1  0  0  0  0
 61 74  1  0  0  0  0
 63 64  1  0  0  0  0
M  CHG  2  73   1  74   1
M  ISO  4  33 101  39 100  70 100  81 101
M  END
> <Batch ID>
0145

> <Smiles>
CNC(C)C(=O)NC(C(=O)N1Cc2cc([101O:1][101CH:1]=C3CCN(C(=N)c4cc([100NH:0][100C:0](=O)N5CCCC(n6nc(-c7ccc(Oc8ccc(F)cc8F)cc7)c(C(N)=O)c6N)C5)sc4F)C3)ccc2CC1C(=O)NC1CCCc2ccccc21)C(C)(C)C

> <Shape>
0.203

> <Color>
0.189

> <Negative vol penalty>
0.000

$$$$

  -OEChem-04052303073D

 86 95  0     1  0  0  0  0  0999 V2000
  -31.8293  -24.5353   25.1043 C   0  0  0  0  0  0  0  0  0  0  0  0
  -31.3729  -24.6107   23.7922 C   0  0  0  0  0  0  0  0  0  0  0  0
  -26.1845  -13.3772   19.1125 C   0  0  0  0  0  0  0  0  0  0  0  0
  -26.1999  -13.0915   21.5115 C   0  0  0  0  0  0  0  0  0  0  0  0
  -30.9172  -24.5230   26.1587 C   0  0  0  0  0  0  0  0  0  0  0  0
  -30.0041  -24.6727   23.5338 C   0  0  0  0  0  0  0  0  0  0  0  0
  -28.8396  -28.1663   20.0576 C   0  0  0  0  0  0  0  0  0  0  0  0
  -30.6913  -23.4580   18.8442 C   0  0  0  0  0  0  0  0  0  0  0  0
  -29.1014  -22.4733   17.3146 C   0  0  0  0  0  0  0  0  0  0  0  0
  -30.2950  -22.5594   19.8347 C   0  0  0  0  0  0  0  0  0  0  0  0
  -28.7051  -21.5747   18.3051 C   0  0  0  0  0  0  0  0  0  0  0  0
  -24.9741  -12.6880   19.0382 C   0  0  0  0  0  0  0  0  0  0  0  0
  -24.9894  -12.4024   21.4372 C   0  0  0  0  0  0  0  0  0  0  0  0
  -29.0695  -27.8373   18.7224 C   0  0  0  0  0  0  0  0  0  0  0  0
  -23.9384   -9.2937   20.6235 C   0  0  0  0  0  0  0  0  0  0  0  0
  -23.8161   -8.1171   21.3625 C   0  0  0  0  0  0  0  0  0  0  0  0
  -26.7282  -27.3225   18.4526 C   0  0  0  0  0  0  0  0  0  0  0  0
  -21.9631   -9.0752   22.5814 C   0  0  0  0  0  0  0  0  0  0  0  0
  -26.7975  -13.5789   20.3492 C   0  0  0  0  0  0  0  0  0  0  0  0
  -29.2653  -13.9390   19.8126 C   0  0  0  0  0  0  0  0  0  0  0  0
  -29.5368  -24.5947   25.9135 C   0  0  0  0  0  0  0  0  0  0  0  0
  -27.5522  -28.0652   20.6041 C   0  0  0  0  0  0  0  0  0  0  0  0
  -29.0726  -24.6600   24.5859 C   0  0  0  0  0  0  0  0  0  0  0  0
  -26.4842  -27.6532   19.7943 C   0  0  0  0  0  0  0  0  0  0  0  0
  -30.0945  -23.4150   17.5842 C   0  0  0  0  0  0  0  0  0  0  0  0
  -29.3018  -21.6178   19.5652 C   0  0  0  0  0  0  0  0  0  0  0  0
  -24.3765  -12.2007   20.2005 C   0  0  0  0  0  0  0  0  0  0  0  0
  -28.0142  -27.4126   17.9204 C   0  0  0  0  0  0  0  0  0  0  0  0
  -23.0731  -10.3612   20.8634 C   0  0  0  0  0  0  0  0  0  0  0  0
  -22.8285   -8.0078   22.3414 C   0  0  0  0  0  0  0  0  0  0  0  0
  -22.0855  -10.2519   21.8424 C   0  0  0  0  0  0  0  0  0  0  0  0
  -28.0481  -14.2902   20.4266 C   0  0  0  0  0  0  0  0  0  0  0  0
  -30.1392  -14.9284   20.1917 C   0  0  0  0  0  0  0  0  0  0  0  0
  -29.5779  -12.8186   18.9743 C   0  0  0  0  0  0  0  0  0  0  0  0
  -26.2340  -26.3575   22.9386 C   0  0  0  0  0  0  0  0  0  0  0  0
  -23.6436  -28.2013   22.2961 C   0  0  0  0  0  0  0  0  0  0  0  0
  -21.2306  -30.2113   20.9603 C   0  0  0  0  0  0  0  0  0  0  0  0
  -29.3894  -20.6129   21.8736 C   0  0  0  0  0  0  0  0  0  0  0  0
  -28.5874  -24.5307   27.0836 C   0  0  0  0  0  0  0  0  0  0  0  0
  -27.3159  -28.4494   22.0391 C   0  0  0  0  0  0  0  0  0  0  0  0
  -25.0796  -27.5473   20.3274 C   0  0  0  0  0  0  0  0  0  0  0  0
  -27.1683  -24.9775   26.7417 C   0  0  0  0  0  0  0  0  0  0  0  0
  -30.9718  -18.0298   23.7445 C   0  0  0  0  0  0  0  0  0  0  0  0
  -32.2534  -25.6983   15.5689 C   0  0  0  0  0  0  0  0  0  0  0  0
  -26.7044  -24.3317   25.4400 C   0  0  0  0  0  0  0  0  0  0  0  0
  -30.5173  -16.7460   23.0464 C   0  0  0  0  0  0  0  0  0  0  0  0
  -31.2467  -26.1764   14.5271 C   0  0  0  0  0  0  0  0  0  0  0  0
  -31.8847  -24.3314   16.1405 C   0  0  0  0  0  0  0  0  0  0  0  0
  -29.8651  -19.0824   23.7726 C   0  0  0  0  0  0  0  0  0  0  0  0
  -28.8148  -18.1081   21.7685 C   0  0  0  0  0  0  0  0  0  0  0  0
  -29.4785  -24.7373   15.6101 C   0  0  0  0  0  0  0  0  0  0  0  0
  -27.5964  -24.7538   24.2662 C   0  0  1  0  0  0  0  0  0  0  0  0
  -26.0586  -27.8170   22.6277 C   0  0  1  0  0  0  0  0  0  0  0  0
  -29.9168  -17.0418   21.6581 C   0  0  2  0  0  0  0  0  0  0  0  0
  -29.7948  -26.1413   15.0485 C   0  0  2  0  0  0  0  0  0  0  0  0
  -28.8389  -26.4437   13.8798 C   0  0  0  0  0  0  0  0  0  0  0  0
  -18.8045  -30.8048   21.2033 C   0  0  0  0  0  0  0  0  0  0  0  0
  -29.7903  -28.6145   15.5937 C   0  0  0  0  0  0  0  0  0  0  0  0
  -22.8692  -25.5820   20.9361 C   0  0  0  0  0  0  0  0  0  0  0  0
  -20.6638  -26.6158   20.3567 C   0  0  0  0  0  0  0  0  0  0  0  0
  -21.3099  -26.3177   22.7476 C   0  0  0  0  0  0  0  0  0  0  0  0
  -21.8632  -33.0384   21.5655 C   0  0  0  0  0  0  0  0  0  0  0  0
  -22.4599  -28.0949   21.3652 C   0  0  1  0  0  0  0  0  0  0  0  0
  -20.2290  -31.1500   21.6086 C   0  0  2  0  0  0  0  0  0  0  0  0
  -29.5744  -27.2103   16.1369 C   0  0  1  0  0  0  0  0  0  1  0  0
  -21.8500  -26.6649   21.3432 C   0  0  0  0  0  0  0  0  0  0  0  0
  -28.1370  -15.4148   21.1417 N   0  0  0  0  0  0  0  0  0  0  0  0
  -29.4205  -15.7788   20.9795 N   0  0  0  0  0  0  0  0  0  0  0  0
  -30.4907  -24.3175   16.5912 N   0  0  1  0  0  0  0  0  0  0  0  0
  -24.9006  -27.9280   21.7383 N   0  0  0  0  0  0  0  0  0  0  0  0
  -29.3473  -19.3138   22.4224 N   0  0  0  0  0  0  0  0  0  0  0  0
  -31.4447  -15.1452   19.9249 N   0  0  0  0  0  0  0  0  0  0  0  0
  -28.5624  -11.8972   18.6843 N   0  0  0  0  0  0  0  0  0  0  0  0
  -28.8993  -20.7049   20.5713 N   0  0  0  0  0  0  0  0  0  0  0  0
  -27.2568  -26.0908   23.8286 N   0  0  0  0  0  0  0  0  0  0  0  0
  -21.5245  -29.1373   21.7735 N   0  0  0  0  0  0  0  0  0  0  0  0
  -20.5038  -32.5585   21.2067 N   0  3  0  0  0  0  0  0  0  0  0  0
  -30.7280  -12.6310   18.5100 O   0  0  0  0  0  0  0  0  0  0  0  0
  -25.4950  -25.5344   22.4112 O   0  0  0  0  0  0  0  0  0  0  0  0
  -23.4605  -28.5224   23.4729 O   0  0  0  0  0  0  0  0  0  0  0  0
  -21.7021  -30.4090   19.8427 O   0  0  0  0  0  0  0  0  0  0  0  0
  -29.8530  -21.5681   22.5019 O   0  0  0  0  0  0  0  0  0  0  0  0
  -23.1953  -11.5284   20.1284 O   0  0  0  0  0  0  0  0  0  0  0  0
  -28.2359  -27.0902   16.6171 O   0  0  0  0  0  0  0  0  0  1  0  0
  -22.7101   -6.8772   23.0499 F   0  0  0  0  0  0  0  0  0  0  0  0
  -21.2505  -11.2735   22.0766 F   0  0  0  0  0  0  0  0  0  0  0  0
  1  2  1  0  0  0  0
  1  5  2  0  0  0  0
  2  6  2  0  0  0  0
  3 12  2  0  0  0  0
  3 19  1  0  0  0  0
  4 13  1  0  0  0  0
  4 19  2  0  0  0  0
  5 21  1  0  0  0  0
  6 23  1  0  0  0  0
  7 14  2  0  0  0  0
  7 22  1  0  0  0  0
  8 10  2  0  0  0  0
  8 25  1  0  0  0  0
  9 11  1  0  0  0  0
  9 25  2  0  0  0  0
 10 26  1  0  0  0  0
 11 26  2  0  0  0  0
 12 27  1  0  0  0  0
 13 27  2  0  0  0  0
 14 28  1  0  0  0  0
 15 16  2  0  0  0  0
 15 29  1  0  0  0  0
 16 30  1  0  0  0  0
 17 24  1  0  0  0  0
 17 28  2  0  0  0  0
 18 30  2  0  0  0  0
 18 31  1  0  0  0  0
 19 32  1  0  0  0  0
 20 32  1  0  0  0  0
 20 33  2  0  0  0  0
 20 34  1  0  0  0  0
 21 23  2  0  0  0  0
 21 39  1  0  0  0  0
 22 24  2  0  0  0  0
 22 40  1  0  0  0  0
 23 52  1  0  0  0  0
 24 41  1  0  0  0  0
 25 69  1  0  0  0  0
 26 74  1  0  0  0  0
 27 83  1  0  0  0  0
 28 84  1  0  0  0  0
 29 31  2  0  0  0  0
 29 83  1  0  0  0  0
 30 85  1  0  0  0  0
 31 86  1  0  0  0  0
 32 67  2  0  0  0  0
 33 68  1  0  0  0  0
 33 72  1  0  0  0  0
 34 73  1  0  0  0  0
 34 78  2  0  0  0  0
 35 53  1  0  0  0  0
 35 75  1  0  0  0  0
 35 79  2  0  0  0  0
 36 63  1  0  0  0  0
 36 70  1  0  0  0  0
 36 80  2  0  0  0  0
 37 64  1  0  0  0  0
 37 76  1  0  0  0  0
 37 81  2  0  0  0  0
 38 71  1  0  0  0  0
 38 74  1  0  0  0  0
 38 82  2  0  0  0  0
 39 42  1  0  0  0  0
 40 53  1  0  0  0  0
 41 70  1  0  0  0  0
 42 45  1  0  0  0  0
 43 46  1  0  0  0  0
 43 49  1  0  0  0  0
 44 47  1  0  0  0  0
 44 48  1  0  0  0  0
 45 52  1  0  0  0  0
 46 54  1  0  0  0  0
 47 55  1  0  0  0  0
 48 69  1  0  0  0  0
 49 71  1  0  0  0  0
 50 54  1  0  0  0  0
 50 71  1  0  0  0  0
 51 55  1  0  0  0  0
 51 69  1  0  0  0  0
 52 75  1  0  0  0  0
 53 70  1  0  0  0  0
 54 68  1  0  0  0  0
 55 56  1  0  0  0  0
 55 65  1  0  0  0  0
 57 64  1  0  0  0  0
 58 65  1  0  0  0  0
 59 66  1  0  0  0  0
 60 66  1  0  0  0  0
 61 66  1  0  0  0  0
 62 77  1  0  0  0  0
 63 66  1  0  0  0  0
 63 76  1  0  0  0  0
 64 77  1  0  0  0  0
 65 84  1  0  0  0  0
 67 68  1  0  0  0  0
M  CHG  1  77   1
M  ISO  4  38 100  65 101  74 100  84 101
M  END
> <Batch ID>
0145

> <Smiles>
CNC(C)C(=O)NC(C(=O)N1Cc2cc([101O:1][101CH:1](C)C3(C)CCCN(c4ccc([100NH:0][100C:0](=O)N5CCCC(n6nc(-c7ccc(Oc8ccc(F)cc8F)cc7)c(C(N)=O)c6N)C5)cc4)C3)ccc2CC1C(=O)NC1CCCc2ccccc21)C(C)(C)C

> <Shape>
0.243

> <Color>
0.080

> <Negative vol penalty>
0.000

$$$$

  -OEChem-04052303073D

 84 93  0     1  0  0  0  0  0999 V2000
  -25.5619  -37.6306   23.2216 C   0  0  0  0  0  0  0  0  0  0  0  0
  -26.0134  -36.8423   22.1680 C   0  0  0  0  0  0  0  0  0  0  0  0
  -24.0830   -9.7844   22.1958 C   0  0  0  0  0  0  0  0  0  0  0  0
  -22.9969  -10.4293   20.1363 C   0  0  0  0  0  0  0  0  0  0  0  0
  -25.3640  -37.0638   24.4799 C   0  0  0  0  0  0  0  0  0  0  0  0
  -26.2684  -35.4867   22.3725 C   0  0  0  0  0  0  0  0  0  0  0  0
  -25.9929  -29.1810   18.9844 C   0  0  0  0  0  0  0  0  0  0  0  0
  -23.3571   -8.5934   22.2057 C   0  0  0  0  0  0  0  0  0  0  0  0
  -22.2710   -9.2382   20.1461 C   0  0  0  0  0  0  0  0  0  0  0  0
  -26.7933  -28.0757   18.6992 C   0  0  0  0  0  0  0  0  0  0  0  0
  -23.4872   -5.5842   20.6692 C   0  0  0  0  0  0  0  0  0  0  0  0
  -24.1769   -4.4071   20.9596 C   0  0  0  0  0  0  0  0  0  0  0  0
  -26.3399  -27.1881   20.8960 C   0  0  0  0  0  0  0  0  0  0  0  0
  -26.1481  -21.0382   19.4158 C   0  0  0  0  0  0  0  0  0  0  0  0
  -22.7464   -4.0406   22.8718 C   0  0  0  0  0  0  0  0  0  0  0  0
  -23.9028  -10.7024   21.1611 C   0  0  0  0  0  0  0  0  0  0  0  0
  -25.9089  -12.1583   20.5580 C   0  0  0  0  0  0  0  0  0  0  0  0
  -25.6074  -35.6985   24.6976 C   0  0  0  0  0  0  0  0  0  0  0  0
  -25.3677  -29.3037   20.2336 C   0  0  0  0  0  0  0  0  0  0  0  0
  -26.0748  -34.9013   23.6353 C   0  0  0  0  0  0  0  0  0  0  0  0
  -25.5300  -28.2947   21.1936 C   0  0  0  0  0  0  0  0  0  0  0  0
  -26.9357  -21.5694   18.4140 C   0  0  0  0  0  0  0  0  0  0  0  0
  -22.4511   -8.3203   21.1809 C   0  0  0  0  0  0  0  0  0  0  0  0
  -26.9693  -27.0804   19.6560 C   0  0  0  0  0  0  0  0  0  0  0  0
  -22.4271   -5.9896   21.4802 C   0  0  0  0  0  0  0  0  0  0  0  0
  -23.8065   -3.6353   22.0609 C   0  0  0  0  0  0  0  0  0  0  0  0
  -22.0567   -5.2178   22.5814 C   0  0  0  0  0  0  0  0  0  0  0  0
  -24.6520  -11.9332   21.1506 C   0  0  0  0  0  0  0  0  0  0  0  0
  -27.4207  -20.6758   17.5437 C   0  0  0  0  0  0  0  0  0  0  0  0
  -26.1833  -13.4773   20.8253 C   0  0  0  0  0  0  0  0  0  0  0  0
  -26.0815  -19.6573   19.2238 C   0  0  0  0  0  0  0  0  0  0  0  0
  -26.7530  -11.2559   19.8308 C   0  0  0  0  0  0  0  0  0  0  0  0
  -25.5291  -31.3885   22.6276 C   0  0  0  0  0  0  0  0  0  0  0  0
  -23.0823  -29.6212   23.8161 C   0  0  0  0  0  0  0  0  0  0  0  0
  -21.4396  -26.6309   23.8952 C   0  0  0  0  0  0  0  0  0  0  0  0
  -24.6285  -18.8167   21.1022 C   0  0  0  0  0  0  0  0  0  0  0  0
  -25.4242  -35.1409   26.0869 C   0  0  0  0  0  0  0  0  0  0  0  0
  -24.4859  -30.4891   20.5161 C   0  0  0  0  0  0  0  0  0  0  0  0
  -24.8643  -28.3690   22.5426 C   0  0  0  0  0  0  0  0  0  0  0  0
  -28.1491  -21.7006   16.7284 C   0  0  0  0  0  0  0  0  0  0  0  0
  -25.3595  -33.6163   26.1276 C   0  0  0  0  0  0  0  0  0  0  0  0
  -23.8781  -16.7615   23.9111 C   0  0  0  0  0  0  0  0  0  0  0  0
  -26.4764  -33.0118   25.2828 C   0  0  0  0  0  0  0  0  0  0  0  0
  -24.1160  -15.3406   23.3946 C   0  0  0  0  0  0  0  0  0  0  0  0
  -23.2731  -17.6620   22.8356 C   0  0  0  0  0  0  0  0  0  0  0  0
  -24.2482  -16.2734   21.0495 C   0  0  0  0  0  0  0  0  0  0  0  0
  -26.3388  -33.4216   23.8115 C   0  0  1  0  0  0  0  0  0  0  0  0
  -24.3122  -30.7629   22.0068 C   0  0  1  0  0  0  0  0  0  0  0  0
  -24.9168  -15.3464   22.0777 C   0  0  2  0  0  0  0  0  0  0  0  0
  -27.5774  -22.7586   17.7545 C   0  0  1  0  0  0  0  0  0  0  0  0
  -26.5827  -23.7482   17.1572 C   0  0  0  0  0  0  0  0  0  0  0  0
  -19.4979  -25.4784   24.9900 C   0  0  0  0  0  0  0  0  0  0  0  0
  -24.7079  -29.3243   26.3811 C   0  0  0  0  0  0  0  0  0  0  0  0
  -23.1984  -27.4376   27.0368 C   0  0  0  0  0  0  0  0  0  0  0  0
  -22.2659  -29.7315   26.7349 C   0  0  0  0  0  0  0  0  0  0  0  0
  -30.6065  -24.9778   18.6575 C   0  0  0  0  0  0  0  0  0  0  0  0
  -29.5450  -24.4620   16.4581 C   0  0  0  0  0  0  0  0  0  0  0  0
  -20.0920  -26.1830   21.2986 C   0  0  0  0  0  0  0  0  0  0  0  0
  -28.6357  -23.4473   18.6114 C   0  0  0  0  0  0  0  0  0  0  0  0
  -28.3598  -25.9522   18.0909 C   0  0  0  0  0  0  0  0  0  1  0  0
  -22.9747  -28.4044   24.7030 C   0  0  1  0  0  0  0  0  0  0  0  0
  -19.9643  -26.2890   23.7908 C   0  0  2  0  0  0  0  0  0  0  0  0
  -23.3010  -28.7237   26.1893 C   0  0  0  0  0  0  0  0  0  0  0  0
  -29.2599  -24.7054   17.9510 C   0  0  0  0  0  0  0  0  0  0  0  0
  -24.1618  -13.0219   21.7494 N   0  0  0  0  0  0  0  0  0  0  0  0
  -25.1157  -13.9438   21.5345 N   0  0  0  0  0  0  0  0  0  0  0  0
  -24.0170  -29.5507   22.7735 N   0  0  0  0  0  0  0  0  0  0  0  0
  -24.0872  -17.6205   21.6189 N   0  0  0  0  0  0  0  0  0  0  0  0
  -27.2312  -14.2720   20.5206 N   0  0  0  0  0  0  0  0  0  0  0  0
  -26.3187   -9.9360   19.6474 N   0  0  0  0  0  0  0  0  0  0  0  0
  -25.4119  -18.6492   19.9608 N   0  0  0  0  0  0  0  0  0  0  0  0
  -25.3054  -32.6421   23.1642 N   0  0  0  0  0  0  0  0  0  0  0  0
  -21.6384  -27.8597   24.4883 N   0  0  0  0  0  0  0  0  0  0  0  0
  -19.7024  -25.4957   22.5567 N   0  3  0  0  0  0  0  0  0  0  0  0
  -27.8669  -11.6050   19.3717 O   0  0  0  0  0  0  0  0  0  0  0  0
  -26.5918  -30.7784   22.6217 O   0  0  0  0  0  0  0  0  0  0  0  0
  -22.3584  -30.5956   24.0357 O   0  0  0  0  0  0  0  0  0  0  0  0
  -22.3271  -25.8811   23.4942 O   0  0  0  0  0  0  0  0  0  0  0  0
  -24.4352  -19.9057   21.6487 O   0  0  0  0  0  0  0  0  0  0  0  0
  -21.7428   -7.1580   21.1901 O   0  0  0  0  0  0  0  0  0  0  0  0
  -27.7506  -26.0009   19.3805 O   0  0  0  0  0  0  0  0  0  1  0  0
  -24.4679   -2.5042   22.3387 F   0  0  0  0  0  0  0  0  0  0  0  0
  -21.0383   -5.6015   23.3634 F   0  0  0  0  0  0  0  0  0  0  0  0
  -26.9966  -19.1223   17.8209 S   0  0  0  0  0  0  0  0  0  0  0  0
  1  2  1  0  0  0  0
  1  5  2  0  0  0  0
  2  6  2  0  0  0  0
  3  8  2  0  0  0  0
  3 16  1  0  0  0  0
  4  9  1  0  0  0  0
  4 16  2  0  0  0  0
  5 18  1  0  0  0  0
  6 20  1  0  0  0  0
  7 10  2  0  0  0  0
  7 19  1  0  0  0  0
  8 23  1  0  0  0  0
  9 23  2  0  0  0  0
 10 24  1  0  0  0  0
 11 12  2  0  0  0  0
 11 25  1  0  0  0  0
 12 26  1  0  0  0  0
 13 21  1  0  0  0  0
 13 24  2  0  0  0  0
 14 22  1  0  0  0  0
 14 31  2  0  0  0  0
 15 26  2  0  0  0  0
 15 27  1  0  0  0  0
 16 28  1  0  0  0  0
 17 28  1  0  0  0  0
 17 30  2  0  0  0  0
 17 32  1  0  0  0  0
 18 20  2  0  0  0  0
 18 37  1  0  0  0  0
 19 21  2  0  0  0  0
 19 38  1  0  0  0  0
 20 47  1  0  0  0  0
 21 39  1  0  0  0  0
 22 29  2  0  0  0  0
 22 50  1  0  0  0  0
 23 80  1  0  0  0  0
 24 81  1  0  0  0  0
 25 27  2  0  0  0  0
 25 80  1  0  0  0  0
 26 82  1  0  0  0  0
 27 83  1  0  0  0  0
 28 65  2  0  0  0  0
 29 40  1  0  0  0  0
 29 84  1  0  0  0  0
 30 66  1  0  0  0  0
 30 69  1  0  0  0  0
 31 71  1  0  0  0  0
 31 84  1  0  0  0  0
 32 70  1  0  0  0  0
 32 75  2  0  0  0  0
 33 48  1  0  0  0  0
 33 72  1  0  0  0  0
 33 76  2  0  0  0  0
 34 61  1  0  0  0  0
 34 67  1  0  0  0  0
 34 77  2  0  0  0  0
 35 62  1  0  0  0  0
 35 73  1  0  0  0  0
 35 78  2  0  0  0  0
 36 68  1  0  0  0  0
 36 71  1  0  0  0  0
 36 79  2  0  0  0  0
 37 41  1  0  0  0  0
 38 48  1  0  0  0  0
 39 67  1  0  0  0  0
 40 50  1  0  0  0  0
 41 43  1  0  0  0  0
 42 44  1  0  0  0  0
 42 45  1  0  0  0  0
 43 47  1  0  0  0  0
 44 49  1  0  0  0  0
 45 68  1  0  0  0  0
 46 49  1  0  0  0  0
 46 68  1  0  0  0  0
 47 72  1  0  0  0  0
 48 67  1  0  0  0  0
 49 66  1  0  0  0  0
 50 51  1  0  0  0  0
 50 59  1  0  0  0  0
 52 62  1  0  0  0  0
 53 63  1  0  0  0  0
 54 63  1  0  0  0  0
 55 63  1  0  0  0  0
 56 64  1  0  0  0  0
 57 64  1  0  0  0  0
 58 74  1  0  0  0  0
 59 64  1  0  0  0  0
 60 64  1  0  0  0  0
 60 81  1  0  0  0  0
 61 63  1  0  0  0  0
 61 73  1  0  0  0  0
 62 74  1  0  0  0  0
 65 66  1  0  0  0  0
M  CHG  1  74   1
M  ISO  4  36 100  60 101  71 100  81 101
M  END
> <Batch ID>
0145

> <Smiles>
CNC(C)C(=O)NC(C(=O)N1Cc2cc([101O:1][101CH2:1]C(C)(C)CC3(C)Cc4sc([100NH:0][100C:0](=O)N5CCCC(n6nc(-c7ccc(Oc8ccc(F)cc8F)cc7)c(C(N)=O)c6N)C5)cc43)ccc2CC1C(=O)NC1CCCc2ccccc21)C(C)(C)C

> <Shape>
0.289

> <Color>
0.080

> <Negative vol penalty>
0.000

$$$$

  -OEChem-04052303073D

 89 99  0     1  0  0  0  0  0999 V2000
  -21.1474  -35.1909   19.4848 C   0  0  0  0  0  0  0  0  0  0  0  0
  -21.6565  -34.3412   18.5080 C   0  0  0  0  0  0  0  0  0  0  0  0
  -23.3714   -9.7820   19.7715 C   0  0  0  0  0  0  0  0  0  0  0  0
  -23.8129   -9.7567   22.1467 C   0  0  0  0  0  0  0  0  0  0  0  0
  -21.8404  -35.3699   20.6814 C   0  0  0  0  0  0  0  0  0  0  0  0
  -22.8595  -33.6708   18.7266 C   0  0  0  0  0  0  0  0  0  0  0  0
  -26.1726  -27.5057   17.1999 C   0  0  0  0  0  0  0  0  0  0  0  0
  -22.6991   -8.5650   19.8835 C   0  0  0  0  0  0  0  0  0  0  0  0
  -23.1404   -8.5398   22.2588 C   0  0  0  0  0  0  0  0  0  0  0  0
  -27.3704  -27.0294   16.6687 C   0  0  0  0  0  0  0  0  0  0  0  0
  -19.9381   -7.4682   22.3892 C   0  0  0  0  0  0  0  0  0  0  0  0
  -19.0365   -7.3223   23.4434 C   0  0  0  0  0  0  0  0  0  0  0  0
  -28.8513  -19.9264   17.0971 C   0  0  0  0  0  0  0  0  0  0  0  0
  -27.5140  -20.5081   19.0462 C   0  0  0  0  0  0  0  0  0  0  0  0
  -28.4404  -27.3543   18.8062 C   0  0  0  0  0  0  0  0  0  0  0  0
  -20.3242   -5.4601   24.2869 C   0  0  0  0  0  0  0  0  0  0  0  0
  -23.9284  -10.3778   20.9031 C   0  0  0  0  0  0  0  0  0  0  0  0
  -24.0724  -12.9247   20.9043 C   0  0  0  0  0  0  0  0  0  0  0  0
  -23.0476  -34.6939   20.9188 C   0  0  0  0  0  0  0  0  0  0  0  0
  -26.1023  -27.9208   18.5375 C   0  0  0  0  0  0  0  0  0  0  0  0
  -23.5699  -33.8420   19.9269 C   0  0  0  0  0  0  0  0  0  0  0  0
  -28.7691  -18.6005   17.4839 C   0  0  0  0  0  0  0  0  0  0  0  0
  -27.4359  -19.1667   19.4268 C   0  0  0  0  0  0  0  0  0  0  0  0
  -27.2399  -27.8330   19.3526 C   0  0  0  0  0  0  0  0  0  0  0  0
  -28.0704  -18.2254   18.6356 C   0  0  0  0  0  0  0  0  0  0  0  0
  -28.2163  -20.8852   17.8897 C   0  0  0  0  0  0  0  0  0  0  0  0
  -22.5835   -7.9440   21.1271 C   0  0  0  0  0  0  0  0  0  0  0  0
  -28.5053  -26.9564   17.4711 C   0  0  0  0  0  0  0  0  0  0  0  0
  -21.0327   -6.6100   22.2837 C   0  0  0  0  0  0  0  0  0  0  0  0
  -19.2296   -6.3183   24.3923 C   0  0  0  0  0  0  0  0  0  0  0  0
  -21.2257   -5.6060   23.2326 C   0  0  0  0  0  0  0  0  0  0  0  0
  -24.6236  -11.6346   20.7880 C   0  0  0  0  0  0  0  0  0  0  0  0
  -25.1375  -13.7714   20.7162 C   0  0  0  0  0  0  0  0  0  0  0  0
  -22.7188  -13.3223   21.1596 C   0  0  0  0  0  0  0  0  0  0  0  0
  -25.4580  -30.6668   20.0032 C   0  0  0  0  0  0  0  0  0  0  0  0
  -25.6250  -28.8316   22.6728 C   0  0  0  0  0  0  0  0  0  0  0  0
  -28.9193  -22.8029   16.4221 C   0  0  0  0  0  0  0  0  0  0  0  0
  -26.8133  -26.0089   24.1784 C   0  0  0  0  0  0  0  0  0  0  0  0
  -29.6617  -15.0655   17.6259 C   0  0  0  0  0  0  0  0  0  0  0  0
  -23.7848  -34.9558   22.2082 C   0  0  0  0  0  0  0  0  0  0  0  0
  -24.7959  -28.4070   19.1027 C   0  0  0  0  0  0  0  0  0  0  0  0
  -29.3584  -17.4009   16.8220 C   0  0  0  0  0  0  0  0  0  0  0  0
  -27.2119  -28.2471   20.8005 C   0  0  0  0  0  0  0  0  0  0  0  0
  -28.1166  -16.7423   18.8115 C   0  0  0  0  0  0  0  0  0  0  0  0
  -24.8626  -33.9192   22.5150 C   0  0  0  0  0  0  0  0  0  0  0  0
  -30.1065  -12.8406   20.5087 C   0  0  0  0  0  0  0  0  0  0  0  0
  -27.0436  -19.4124   21.9684 C   0  0  0  0  0  0  0  0  0  0  0  0
  -27.3881  -17.9771   21.7204 C   0  0  0  0  0  0  0  0  0  0  0  0
  -25.7116  -33.6494   21.2768 C   0  0  0  0  0  0  0  0  0  0  0  0
  -28.6727  -12.4028   20.8159 C   0  0  0  0  0  0  0  0  0  0  0  0
  -30.3106  -13.1363   19.0242 C   0  0  0  0  0  0  0  0  0  0  0  0
  -27.9136  -13.6338   18.7525 C   0  0  0  0  0  0  0  0  0  0  0  0
  -26.6853  -18.7737   20.6506 C   0  0  0  0  0  0  0  0  0  0  0  0
  -24.8592  -33.0780   20.1372 C   0  0  1  0  0  0  0  0  0  0  0  0
  -24.9693  -29.2858   20.3376 C   0  0  1  0  0  0  0  0  0  0  0  0
  -27.6490  -13.4038   20.2462 C   0  0  1  0  0  0  0  0  0  0  0  0
  -26.8134  -24.8004   26.3778 C   0  0  0  0  0  0  0  0  0  0  0  0
  -27.6546  -30.8296   23.7678 C   0  0  0  0  0  0  0  0  0  0  0  0
  -28.3096  -29.1215   25.4771 C   0  0  0  0  0  0  0  0  0  0  0  0
  -25.9821  -30.0184   25.4409 C   0  0  0  0  0  0  0  0  0  0  0  0
  -31.2697  -24.7876   16.4177 C   0  0  0  0  0  0  0  0  0  0  0  0
  -29.9515  -24.7290   18.5446 C   0  0  0  0  0  0  0  0  0  0  0  0
  -25.4828  -23.6385   23.0079 C   0  0  0  0  0  0  0  0  0  0  0  0
  -28.7640  -24.3173   16.3707 C   0  0  0  0  0  0  0  0  0  0  0  0
  -26.7249  -28.4253   23.6237 C   0  0  1  0  0  0  0  0  0  0  0  0
  -26.1267  -24.9562   25.0298 C   0  0  2  0  0  0  0  0  0  0  0  0
  -27.1691  -29.5926   24.5496 C   0  0  0  0  0  0  0  0  0  0  0  0
  -29.9109  -25.0838   17.0542 C   0  0  0  0  0  0  0  0  0  1  0  0
  -25.9368  -11.6549   20.5446 N   0  0  0  0  0  0  0  0  0  0  0  0
  -26.2196  -12.9682   20.5065 N   0  0  0  0  0  0  0  0  0  0  0  0
  -25.9127  -28.7216   21.3050 N   0  0  0  0  0  0  0  0  0  0  0  0
  -28.9833  -16.2843   17.7054 N   0  0  0  0  0  0  0  0  0  0  0  0
  -29.2963  -14.0695   18.5367 N   0  0  0  0  0  0  0  0  0  0  0  0
  -25.2445  -15.1171   20.7113 N   0  0  0  0  0  0  0  0  0  0  0  0
  -21.7497  -12.3239   21.3284 N   0  0  0  0  0  0  0  0  0  0  0  0
  -28.2801  -22.2322   17.5292 N   0  0  0  0  0  0  0  0  0  0  0  0
  -24.5855  -31.6753   20.3650 N   0  0  0  0  0  0  0  0  0  0  0  0
  -26.2348  -27.2505   24.3365 N   0  0  0  0  0  0  0  0  0  0  0  0
  -26.1459  -23.6367   24.3373 N   0  3  0  0  0  0  0  0  0  0  0  0
  -22.3756  -14.5274   21.2196 O   0  0  0  0  0  0  0  0  0  0  0  0
  -26.5468  -30.8069   19.4586 O   0  0  0  0  0  0  0  0  0  0  0  0
  -24.5478  -29.2252   23.1269 O   0  0  0  0  0  0  0  0  0  0  0  0
  -29.5479  -22.2144   15.5466 O   0  0  0  0  0  0  0  0  0  0  0  0
  -27.7697  -25.7559   23.4492 O   0  0  0  0  0  0  0  0  0  0  0  0
  -30.5853  -14.8937   16.8202 O   0  0  0  0  0  0  0  0  0  0  0  0
  -21.9273   -6.7566   21.2368 O   0  0  0  0  0  0  0  0  0  0  0  0
  -29.6815  -26.4904   16.9525 O   0  0  0  0  0  0  0  0  0  1  0  0
  -18.3646   -6.1793   25.4056 F   0  0  0  0  0  0  0  0  0  0  0  0
  -22.2761   -4.7793   23.1372 F   0  0  0  0  0  0  0  0  0  0  0  0
  1  2  1  0  0  0  0
  1  5  2  0  0  0  0
  2  6  2  0  0  0  0
  3  8  2  0  0  0  0
  3 17  1  0  0  0  0
  4  9  1  0  0  0  0
  4 17  2  0  0  0  0
  5 19  1  0  0  0  0
  6 21  1  0  0  0  0
  7 10  2  0  0  0  0
  7 20  1  0  0  0  0
  8 27  1  0  0  0  0
  9 27  2  0  0  0  0
 10 28  1  0  0  0  0
 11 12  2  0  0  0  0
 11 29  1  0  0  0  0
 12 30  1  0  0  0  0
 13 22  2  0  0  0  0
 13 26  1  0  0  0  0
 14 23  1  0  0  0  0
 14 26  2  0  0  0  0
 15 24  1  0  0  0  0
 15 28  2  0  0  0  0
 16 30  2  0  0  0  0
 16 31  1  0  0  0  0
 17 32  1  0  0  0  0
 18 32  1  0  0  0  0
 18 33  2  0  0  0  0
 18 34  1  0  0  0  0
 19 21  2  0  0  0  0
 19 40  1  0  0  0  0
 20 24  2  0  0  0  0
 20 41  1  0  0  0  0
 21 54  1  0  0  0  0
 22 25  1  0  0  0  0
 22 42  1  0  0  0  0
 23 25  2  0  0  0  0
 23 53  1  0  0  0  0
 24 43  1  0  0  0  0
 25 44  1  0  0  0  0
 26 76  1  0  0  0  0
 27 86  1  0  0  0  0
 28 87  1  0  0  0  0
 29 31  2  0  0  0  0
 29 86  1  0  0  0  0
 30 88  1  0  0  0  0
 31 89  1  0  0  0  0
 32 69  2  0  0  0  0
 33 70  1  0  0  0  0
 33 74  1  0  0  0  0
 34 75  1  0  0  0  0
 34 80  2  0  0  0  0
 35 55  1  0  0  0  0
 35 77  1  0  0  0  0
 35 81  2  0  0  0  0
 36 65  1  0  0  0  0
 36 71  1  0  0  0  0
 36 82  2  0  0  0  0
 37 64  1  0  0  0  0
 37 76  1  0  0  0  0
 37 83  2  0  0  0  0
 38 66  1  0  0  0  0
 38 78  1  0  0  0  0
 38 84  2  0  0  0  0
 39 72  1  0  0  0  0
 39 73  1  0  0  0  0
 39 85  2  0  0  0  0
 40 45  1  0  0  0  0
 41 55  1  0  0  0  0
 42 72  1  0  0  0  0
 43 71  1  0  0  0  0
 44 72  1  0  0  0  0
 45 49  1  0  0  0  0
 46 50  1  0  0  0  0
 46 51  1  0  0  0  0
 47 48  1  0  0  0  0
 47 53  1  0  0  0  0
 48 53  1  0  0  0  0
 49 54  1  0  0  0  0
 50 56  1  0  0  0  0
 51 73  1  0  0  0  0
 52 56  1  0  0  0  0
 52 73  1  0  0  0  0
 54 77  1  0  0  0  0
 55 71  1  0  0  0  0
 56 70  1  0  0  0  0
 57 66  1  0  0  0  0
 58 67  1  0  0  0  0
 59 67  1  0  0  0  0
 60 67  1  0  0  0  0
 61 68  1  0  0  0  0
 62 68  1  0  0  0  0
 63 79  1  0  0  0  0
 64 68  1  0  0  0  0
 65 67  1  0  0  0  0
 65 78  1  0  0  0  0
 66 79  1  0  0  0  0
 68 87  1  0  0  0  0
 69 70  1  0  0  0  0
M  CHG  1  79   1
M  ISO  4  39 100  68 101  72 100  87 101
M  END
> <Batch ID>
0145

> <Smiles>
CNC(C)C(=O)NC(C(=O)N1Cc2cc([101O:1][101C:1](C)(C)CC(=O)Nc3cc4c(c(C5CC5)c3)C[100N:0]([100C:0](=O)N3CCCC(n5nc(-c6ccc(Oc7ccc(F)cc7F)cc6)c(C(N)=O)c5N)C3)C4)ccc2CC1C(=O)NC1CCCc2ccccc21)C(C)(C)C

> <Shape>
0.268

> <Color>
0.182

> <Negative vol penalty>
0.000

$$$$

  -OEChem-04052303073D

 84 93  0     1  0  0  0  0  0999 V2000
  -23.7983   -7.9538   21.7264 C   0  0  0  0  0  0  0  0  0  0  0  0
  -24.4853   -8.9941   21.1090 C   0  0  0  0  0  0  0  0  0  0  0  0
  -24.2544  -30.1959   20.3031 C   0  0  0  0  0  0  0  0  0  0  0  0
  -24.4147  -28.7804   22.2544 C   0  0  0  0  0  0  0  0  0  0  0  0
  -22.4622   -8.1203   22.0884 C   0  0  0  0  0  0  0  0  0  0  0  0
  -23.8363  -10.2013   20.8523 C   0  0  0  0  0  0  0  0  0  0  0  0
  -26.6534  -14.2233   22.0901 C   0  0  0  0  0  0  0  0  0  0  0  0
  -22.8984  -30.3972   20.5604 C   0  0  0  0  0  0  0  0  0  0  0  0
  -23.0587  -28.9818   22.5119 C   0  0  0  0  0  0  0  0  0  0  0  0
  -27.6665  -14.5880   21.2044 C   0  0  0  0  0  0  0  0  0  0  0  0
  -20.1034  -27.8158   21.3553 C   0  0  0  0  0  0  0  0  0  0  0  0
  -19.3347  -26.7009   21.6895 C   0  0  0  0  0  0  0  0  0  0  0  0
  -26.2491  -16.3210   20.3062 C   0  0  0  0  0  0  0  0  0  0  0  0
  -30.7386  -21.3353   20.5928 C   0  0  0  0  0  0  0  0  0  0  0  0
  -18.7881  -27.7146   23.8134 C   0  0  0  0  0  0  0  0  0  0  0  0
  -29.6448  -22.2304   22.4380 C   0  0  0  0  0  0  0  0  0  0  0  0
  -25.0126  -29.3875   21.1500 C   0  0  0  0  0  0  0  0  0  0  0  0
  -27.4922  -29.9504   21.3557 C   0  0  0  0  0  0  0  0  0  0  0  0
  -21.7992   -9.3335   21.8447 C   0  0  0  0  0  0  0  0  0  0  0  0
  -25.4246  -14.8988   22.0830 C   0  0  0  0  0  0  0  0  0  0  0  0
  -22.4896  -10.3837   21.2102 C   0  0  0  0  0  0  0  0  0  0  0  0
  -25.2230  -15.9647   21.1946 C   0  0  0  0  0  0  0  0  0  0  0  0
  -29.9405  -22.3996   21.1033 C   0  0  0  0  0  0  0  0  0  0  0  0
  -22.3005  -29.7902   21.6648 C   0  0  0  0  0  0  0  0  0  0  0  0
  -27.4634  -15.6351   20.3103 C   0  0  0  0  0  0  0  0  0  0  0  0
  -20.2145  -28.8801   22.2501 C   0  0  0  0  0  0  0  0  0  0  0  0
  -18.6770  -26.6503   22.9185 C   0  0  0  0  0  0  0  0  0  0  0  0
  -19.5568  -28.8295   23.4791 C   0  0  0  0  0  0  0  0  0  0  0  0
  -26.4133  -29.1787   20.8843 C   0  0  0  0  0  0  0  0  0  0  0  0
  -31.0227  -20.3933   21.5571 C   0  0  0  0  0  0  0  0  0  0  0  0
  -28.6051  -29.3445   20.8258 C   0  0  0  0  0  0  0  0  0  0  0  0
  -27.4888  -31.1111   22.1974 C   0  0  0  0  0  0  0  0  0  0  0  0
  -31.8317  -19.1841   21.3214 C   0  0  0  0  0  0  0  0  0  0  0  0
  -22.4097  -14.0650   21.5181 C   0  0  0  0  0  0  0  0  0  0  0  0
  -21.8005  -17.1079   22.4626 C   0  0  0  0  0  0  0  0  0  0  0  0
  -22.9365  -20.3019   22.8553 C   0  0  0  0  0  0  0  0  0  0  0  0
  -29.7378  -23.7692   18.9987 C   0  0  0  0  0  0  0  0  0  0  0  0
  -20.3408   -9.4501   22.2111 C   0  0  0  0  0  0  0  0  0  0  0  0
  -24.3515  -14.5107   23.0630 C   0  0  0  0  0  0  0  0  0  0  0  0
  -23.9293  -16.7351   21.1608 C   0  0  0  0  0  0  0  0  0  0  0  0
  -19.8341  -10.8897   22.2430 C   0  0  0  0  0  0  0  0  0  0  0  0
  -30.0179  -26.7433   17.0612 C   0  0  0  0  0  0  0  0  0  0  0  0
  -20.2968  -11.6461   21.0018 C   0  0  0  0  0  0  0  0  0  0  0  0
  -29.2286  -27.7771   17.8677 C   0  0  0  0  0  0  0  0  0  0  0  0
  -29.3719  -25.3604   17.1254 C   0  0  0  0  0  0  0  0  0  0  0  0
  -28.3183  -25.8947   19.2872 C   0  0  0  0  0  0  0  0  0  0  0  0
  -30.2962  -18.2776   19.5576 C   0  0  0  0  0  0  0  0  0  0  0  0
  -32.0095  -17.0707   19.9824 C   0  0  0  0  0  0  0  0  0  0  0  0
  -21.8272  -11.7167   20.9373 C   0  0  1  0  0  0  0  0  0  0  0  0
  -22.9546  -14.9322   22.6175 C   0  0  1  0  0  0  0  0  0  0  0  0
  -28.9661  -27.2889   19.3059 C   0  0  2  0  0  0  0  0  0  0  0  0
  -30.6869  -16.8175   19.2154 C   0  0  0  0  0  0  0  0  0  0  0  0
  -30.8695  -16.5520   17.7262 C   0  0  0  0  0  0  0  0  0  0  0  0
  -22.1967  -22.5765   23.6147 C   0  0  0  0  0  0  0  0  0  0  0  0
  -20.2689  -17.4793   19.8499 C   0  0  0  0  0  0  0  0  0  0  0  0
  -20.3806  -19.9533   20.2172 C   0  0  0  0  0  0  0  0  0  0  0  0
  -19.1781  -18.5044   21.8534 C   0  0  0  0  0  0  0  0  0  0  0  0
  -24.9578  -20.3655   25.0162 C   0  0  0  0  0  0  0  0  0  0  0  0
  -29.7960  -15.7842   19.8712 C   0  0  0  0  0  0  0  0  0  1  0  0
  -21.7042  -18.4442   21.7670 C   0  0  1  0  0  0  0  0  0  0  0  0
  -22.8491  -21.2655   24.0251 C   0  0  2  0  0  0  0  0  0  0  0  0
  -20.4067  -18.5797   20.9209 C   0  0  0  0  0  0  0  0  0  0  0  0
  -26.8054  -28.1604   20.1141 N   0  0  0  0  0  0  0  0  0  0  0  0
  -28.1431  -28.2880   20.0973 N   0  0  0  0  0  0  0  0  0  0  0  0
  -31.4406  -18.3155   20.4317 N   0  0  0  0  0  0  0  0  0  0  0  0
  -22.9083  -16.3137   22.1342 N   0  0  0  0  0  0  0  0  0  0  0  0
  -29.1574  -24.9622   18.5183 N   0  0  0  0  0  0  0  0  0  0  0  0
  -29.9240  -29.6177   20.9165 N   0  0  0  0  0  0  0  0  0  0  0  0
  -26.2578  -31.6019   22.6536 N   0  0  0  0  0  0  0  0  0  0  0  0
  -29.4922  -23.5107   20.3468 N   0  0  0  0  0  0  0  0  0  0  0  0
  -22.3254  -12.7256   21.8475 N   0  0  0  0  0  0  0  0  0  0  0  0
  -21.8478  -19.4571   22.8070 N   0  0  0  0  0  0  0  0  0  0  0  0
  -32.9487  -18.9992   22.0187 N   0  3  0  0  0  0  0  0  0  0  0  0
  -24.2103  -21.5632   24.5538 N   0  3  0  0  0  0  0  0  0  0  0  0
  -28.5448  -31.7054   22.5215 O   0  0  0  0  0  0  0  0  0  0  0  0
  -22.0881  -14.5736   20.4506 O   0  0  0  0  0  0  0  0  0  0  0  0
  -20.9288  -16.7837   23.2730 O   0  0  0  0  0  0  0  0  0  0  0  0
  -23.8748  -20.3014   22.0614 O   0  0  0  0  0  0  0  0  0  0  0  0
  -30.4263  -23.0452   18.2750 O   0  0  0  0  0  0  0  0  0  0  0  0
  -20.9774  -29.9866   21.9165 O   0  0  0  0  0  0  0  0  0  0  0  0
  -28.4504  -15.9926   19.4443 O   0  0  0  0  0  0  0  0  0  1  0  0
  -17.9376  -25.5803   23.2387 F   0  0  0  0  0  0  0  0  0  0  0  0
  -19.6588  -29.8494   24.3424 F   0  0  0  0  0  0  0  0  0  0  0  0
  -30.3283  -20.7933   23.0704 S   0  0  0  0  0  0  0  0  0  0  0  0
  1  2  1  0  0  0  0
  1  5  2  0  0  0  0
  2  6  2  0  0  0  0
  3  8  2  0  0  0  0
  3 17  1  0  0  0  0
  4  9  1  0  0  0  0
  4 17  2  0  0  0  0
  5 19  1  0  0  0  0
  6 21  1  0  0  0  0
  7 10  2  0  0  0  0
  7 20  1  0  0  0  0
  8 24  1  0  0  0  0
  9 24  2  0  0  0  0
 10 25  1  0  0  0  0
 11 12  2  0  0  0  0
 11 26  1  0  0  0  0
 12 27  1  0  0  0  0
 13 22  1  0  0  0  0
 13 25  2  0  0  0  0
 14 23  1  0  0  0  0
 14 30  2  0  0  0  0
 15 27  2  0  0  0  0
 15 28  1  0  0  0  0
 16 23  2  0  0  0  0
 16 84  1  0  0  0  0
 17 29  1  0  0  0  0
 18 29  1  0  0  0  0
 18 31  2  0  0  0  0
 18 32  1  0  0  0  0
 19 21  2  0  0  0  0
 19 38  1  0  0  0  0
 20 22  2  0  0  0  0
 20 39  1  0  0  0  0
 21 49  1  0  0  0  0
 22 40  1  0  0  0  0
 23 70  1  0  0  0  0
 24 80  1  0  0  0  0
 25 81  1  0  0  0  0
 26 28  2  0  0  0  0
 26 80  1  0  0  0  0
 27 82  1  0  0  0  0
 28 83  1  0  0  0  0
 29 63  2  0  0  0  0
 30 33  1  0  0  0  0
 30 84  1  0  0  0  0
 31 64  1  0  0  0  0
 31 68  1  0  0  0  0
 32 69  1  0  0  0  0
 32 75  2  0  0  0  0
 33 65  1  0  0  0  0
 33 73  2  0  0  0  0
 34 50  1  0  0  0  0
 34 71  1  0  0  0  0
 34 76  2  0  0  0  0
 35 60  1  0  0  0  0
 35 66  1  0  0  0  0
 35 77  2  0  0  0  0
 36 61  1  0  0  0  0
 36 72  1  0  0  0  0
 36 78  2  0  0  0  0
 37 67  1  0  0  0  0
 37 70  1  0  0  0  0
 37 79  2  0  0  0  0
 38 41  1  0  0  0  0
 39 50  1  0  0  0  0
 40 66  1  0  0  0  0
 41 43  1  0  0  0  0
 42 44  1  0  0  0  0
 42 45  1  0  0  0  0
 43 49  1  0  0  0  0
 44 51  1  0  0  0  0
 45 67  1  0  0  0  0
 46 51  1  0  0  0  0
 46 67  1  0  0  0  0
 47 52  1  0  0  0  0
 47 65  1  0  0  0  0
 48 52  1  0  0  0  0
 48 65  1  0  0  0  0
 49 71  1  0  0  0  0
 50 66  1  0  0  0  0
 51 64  1  0  0  0  0
 52 53  1  0  0  0  0
 52 59  1  0  0  0  0
 54 61  1  0  0  0  0
 55 62  1  0  0  0  0
 56 62  1  0  0  0  0
 57 62  1  0  0  0  0
 58 74  1  0  0  0  0
 59 81  1  0  0  0  0
 60 62  1  0  0  0  0
 60 72  1  0  0  0  0
 61 74  1  0  0  0  0
 63 64  1  0  0  0  0
M  CHG  2  73   1  74   1
M  ISO  4  37 100  59 101  70 100  81 101
M  END
> <Batch ID>
0145

> <Smiles>
CNC(C)C(=O)NC(C(=O)N1Cc2cc([101O:1][101CH2:1]C3(C)CN(C(=N)c4cc([100NH:0][100C:0](=O)N5CCCC(n6nc(-c7ccc(Oc8ccc(F)cc8F)cc7)c(C(N)=O)c6N)C5)cs4)C3)ccc2CC1C(=O)NC1CCCc2ccccc21)C(C)(C)C

> <Shape>
0.259

> <Color>
0.076

> <Negative vol penalty>
0.000

$$$$

  -OEChem-04052303073D

 86 95  0     1  0  0  0  0  0999 V2000
  -19.1288  -33.3245   20.4283 C   0  0  0  0  0  0  0  0  0  0  0  0
  -20.4048  -32.9082   20.0625 C   0  0  0  0  0  0  0  0  0  0  0  0
  -24.4503   -9.4216   21.8108 C   0  0  0  0  0  0  0  0  0  0  0  0
  -22.8475  -11.0646   22.5650 C   0  0  0  0  0  0  0  0  0  0  0  0
  -18.5688  -32.8815   21.6259 C   0  0  0  0  0  0  0  0  0  0  0  0
  -21.1221  -32.0494   20.8947 C   0  0  0  0  0  0  0  0  0  0  0  0
  -25.0005  -27.6362   19.1663 C   0  0  0  0  0  0  0  0  0  0  0  0
  -23.9454   -8.5055   22.7335 C   0  0  0  0  0  0  0  0  0  0  0  0
  -22.3426  -10.1485   23.4877 C   0  0  0  0  0  0  0  0  0  0  0  0
  -26.3909  -27.5926   19.0740 C   0  0  0  0  0  0  0  0  0  0  0  0
  -22.8399   -5.6156   24.6418 C   0  0  0  0  0  0  0  0  0  0  0  0
  -22.6141   -4.3109   24.2032 C   0  0  0  0  0  0  0  0  0  0  0  0
  -29.2933  -21.9153   19.9515 C   0  0  0  0  0  0  0  0  0  0  0  0
  -26.4983  -26.5793   21.2605 C   0  0  0  0  0  0  0  0  0  0  0  0
  -27.8081  -22.0536   17.9985 C   0  0  0  0  0  0  0  0  0  0  0  0
  -21.0537   -5.1356   22.5533 C   0  0  0  0  0  0  0  0  0  0  0  0
  -23.9014  -10.7012   21.7265 C   0  0  0  0  0  0  0  0  0  0  0  0
  -23.9960  -11.8414   19.4465 C   0  0  0  0  0  0  0  0  0  0  0  0
  -19.2757  -32.0092   22.4685 C   0  0  0  0  0  0  0  0  0  0  0  0
  -24.3480  -27.1608   20.3129 C   0  0  0  0  0  0  0  0  0  0  0  0
  -20.5716  -31.5954   22.1053 C   0  0  0  0  0  0  0  0  0  0  0  0
  -28.8218  -20.6441   20.1352 C   0  0  0  0  0  0  0  0  0  0  0  0
  -25.0993  -26.6156   21.3638 C   0  0  0  0  0  0  0  0  0  0  0  0
  -27.8919  -20.1115   19.2764 C   0  0  0  0  0  0  0  0  0  0  0  0
  -28.7750  -22.6279   18.8605 C   0  0  0  0  0  0  0  0  0  0  0  0
  -22.8915   -8.8689   23.5719 C   0  0  0  0  0  0  0  0  0  0  0  0
  -27.1402  -27.0668   20.1224 C   0  0  0  0  0  0  0  0  0  0  0  0
  -22.1726   -6.6803   24.0362 C   0  0  0  0  0  0  0  0  0  0  0  0
  -21.7210   -4.0709   23.1590 C   0  0  0  0  0  0  0  0  0  0  0  0
  -27.3397  -20.7549   18.2058 C   0  0  0  0  0  0  0  0  0  0  0  0
  -21.2795   -6.4403   22.9920 C   0  0  0  0  0  0  0  0  0  0  0  0
  -24.4229  -11.6482   20.7740 C   0  0  0  0  0  0  0  0  0  0  0  0
  -24.8011  -12.8469   18.9698 C   0  0  0  0  0  0  0  0  0  0  0  0
  -22.9639  -11.1719   18.7101 C   0  0  0  0  0  0  0  0  0  0  0  0
  -22.4805  -28.4607   22.5325 C   0  0  0  0  0  0  0  0  0  0  0  0
  -22.2039  -25.3904   23.5419 C   0  0  0  0  0  0  0  0  0  0  0  0
  -23.5281  -22.2470   23.6541 C   0  0  0  0  0  0  0  0  0  0  0  0
  -30.1554  -24.6813   19.3453 C   0  0  0  0  0  0  0  0  0  0  0  0
  -26.9320  -17.8888   19.7996 C   0  0  0  0  0  0  0  0  0  0  0  0
  -18.6479  -31.5949   23.7757 C   0  0  0  0  0  0  0  0  0  0  0  0
  -22.8459  -27.1903   20.3857 C   0  0  0  0  0  0  0  0  0  0  0  0
  -28.8345  -19.3777   20.9417 C   0  0  0  0  0  0  0  0  0  0  0  0
  -24.4458  -26.0736   22.6079 C   0  0  0  0  0  0  0  0  0  0  0  0
  -19.3247  -30.3883   24.4210 C   0  0  0  0  0  0  0  0  0  0  0  0
  -28.9631  -14.9361   20.8596 C   0  0  0  0  0  0  0  0  0  0  0  0
  -20.8408  -30.5549   24.4054 C   0  0  0  0  0  0  0  0  0  0  0  0
  -27.8870  -13.8597   20.9110 C   0  0  0  0  0  0  0  0  0  0  0  0
  -28.4159  -16.3276   21.1779 C   0  0  0  0  0  0  0  0  0  0  0  0
  -26.1676  -15.6212   20.3909 C   0  0  0  0  0  0  0  0  0  0  0  0
  -21.3712  -30.6446   22.9694 C   0  0  1  0  0  0  0  0  0  0  0  0
  -22.3161  -27.1504   21.8158 C   0  0  1  0  0  0  0  0  0  0  0  0
  -26.7149  -14.2424   19.9989 C   0  0  2  0  0  0  0  0  0  0  0  0
  -23.0920  -19.9578   24.5850 C   0  0  0  0  0  0  0  0  0  0  0  0
  -30.9257  -25.9942   17.3352 C   0  0  0  0  0  0  0  0  0  0  0  0
  -31.4063  -26.8656   19.6518 C   0  0  0  0  0  0  0  0  0  0  0  0
  -23.0633  -26.3536   26.3066 C   0  0  0  0  0  0  0  0  0  0  0  0
  -23.5254  -23.9698   26.9168 C   0  0  0  0  0  0  0  0  0  0  0  0
  -21.2093  -24.6752   26.3163 C   0  0  0  0  0  0  0  0  0  0  0  0
  -23.4240  -21.0418   20.9530 C   0  0  0  0  0  0  0  0  0  0  0  0
  -29.0602  -26.8864   18.7307 C   0  0  0  0  0  0  0  0  0  1  0  0
  -22.9635  -24.5085   24.5033 C   0  0  1  0  0  0  0  0  0  0  0  0
  -22.9120  -20.8845   23.3927 C   0  0  2  0  0  0  0  0  0  0  0  0
  -30.3951  -26.1052   18.7756 C   0  0  0  0  0  0  0  0  0  0  0  0
  -22.7031  -24.8887   25.9883 C   0  0  0  0  0  0  0  0  0  0  0  0
  -25.4217  -12.4652   21.1185 N   0  0  0  0  0  0  0  0  0  0  0  0
  -25.6293  -13.1815   20.0005 N   0  0  0  0  0  0  0  0  0  0  0  0
  -27.8266  -18.9177   19.9644 N   0  0  0  0  0  0  0  0  0  0  0  0
  -22.9749  -26.1304   22.6343 N   0  0  0  0  0  0  0  0  0  0  0  0
  -27.2114  -16.6561   20.4079 N   0  0  0  0  0  0  0  0  0  0  0  0
  -24.8745  -13.4685   17.7737 N   0  0  0  0  0  0  0  0  0  0  0  0
  -22.2326  -10.1629   19.3516 N   0  0  0  0  0  0  0  0  0  0  0  0
  -29.2163  -23.9306   18.6196 N   0  0  0  0  0  0  0  0  0  0  0  0
  -21.4197  -29.3303   22.3655 N   0  0  0  0  0  0  0  0  0  0  0  0
  -22.6059  -23.1348   24.1667 N   0  0  0  0  0  0  0  0  0  0  0  0
  -23.5462  -20.2488   22.2033 N   0  3  0  0  0  0  0  0  0  0  0  0
  -22.7091  -11.4486   17.5135 O   0  0  0  0  0  0  0  0  0  0  0  0
  -23.4941  -28.6670   23.1896 O   0  0  0  0  0  0  0  0  0  0  0  0
  -20.9715  -25.4161   23.5895 O   0  0  0  0  0  0  0  0  0  0  0  0
  -24.7102  -22.4976   23.4297 O   0  0  0  0  0  0  0  0  0  0  0  0
  -30.7492  -24.2918   20.3492 O   0  0  0  0  0  0  0  0  0  0  0  0
  -25.8807  -18.0664   19.1680 O   0  0  0  0  0  0  0  0  0  0  0  0
  -22.3984   -7.9751   24.4723 O   0  0  0  0  0  0  0  0  0  0  0  0
  -28.5065  -27.0234   20.0346 O   0  0  0  0  0  0  0  0  0  1  0  0
  -21.5054   -2.8181   22.7368 F   0  0  0  0  0  0  0  0  0  0  0  0
  -26.4258  -20.1986   17.4071 F   0  0  0  0  0  0  0  0  0  0  0  0
  -20.6363   -7.4593   22.4055 F   0  0  0  0  0  0  0  0  0  0  0  0
  1  2  1  0  0  0  0
  1  5  2  0  0  0  0
  2  6  2  0  0  0  0
  3  8  2  0  0  0  0
  3 17  1  0  0  0  0
  4  9  1  0  0  0  0
  4 17  2  0  0  0  0
  5 19  1  0  0  0  0
  6 21  1  0  0  0  0
  7 10  2  0  0  0  0
  7 20  1  0  0  0  0
  8 26  1  0  0  0  0
  9 26  2  0  0  0  0
 10 27  1  0  0  0  0
 11 12  2  0  0  0  0
 11 28  1  0  0  0  0
 12 29  1  0  0  0  0
 13 22  1  0  0  0  0
 13 25  2  0  0  0  0
 14 23  1  0  0  0  0
 14 27  2  0  0  0  0
 15 25  1  0  0  0  0
 15 30  2  0  0  0  0
 16 29  2  0  0  0  0
 16 31  1  0  0  0  0
 17 32  1  0  0  0  0
 18 32  1  0  0  0  0
 18 33  2  0  0  0  0
 18 34  1  0  0  0  0
 19 21  2  0  0  0  0
 19 40  1  0  0  0  0
 20 23  2  0  0  0  0
 20 41  1  0  0  0  0
 21 50  1  0  0  0  0
 22 24  2  0  0  0  0
 22 42  1  0  0  0  0
 23 43  1  0  0  0  0
 24 30  1  0  0  0  0
 24 67  1  0  0  0  0
 25 72  1  0  0  0  0
 26 82  1  0  0  0  0
 27 83  1  0  0  0  0
 28 31  2  0  0  0  0
 28 82  1  0  0  0  0
 29 84  1  0  0  0  0
 30 85  1  0  0  0  0
 31 86  1  0  0  0  0
 32 65  2  0  0  0  0
 33 66  1  0  0  0  0
 33 70  1  0  0  0  0
 34 71  1  0  0  0  0
 34 76  2  0  0  0  0
 35 51  1  0  0  0  0
 35 73  1  0  0  0  0
 35 77  2  0  0  0  0
 36 61  1  0  0  0  0
 36 68  1  0  0  0  0
 36 78  2  0  0  0  0
 37 62  1  0  0  0  0
 37 74  1  0  0  0  0
 37 79  2  0  0  0  0
 38 63  1  0  0  0  0
 38 72  1  0  0  0  0
 38 80  2  0  0  0  0
 39 67  1  0  0  0  0
 39 69  1  0  0  0  0
 39 81  2  0  0  0  0
 40 44  1  0  0  0  0
 41 51  1  0  0  0  0
 42 67  1  0  0  0  0
 43 68  1  0  0  0  0
 44 46  1  0  0  0  0
 45 47  1  0  0  0  0
 45 48  1  0  0  0  0
 46 50  1  0  0  0  0
 47 52  1  0  0  0  0
 48 69  1  0  0  0  0
 49 52  1  0  0  0  0
 49 69  1  0  0  0  0
 50 73  1  0  0  0  0
 51 68  1  0  0  0  0
 52 66  1  0  0  0  0
 53 62  1  0  0  0  0
 54 63  1  0  0  0  0
 55 63  1  0  0  0  0
 56 64  1  0  0  0  0
 57 64  1  0  0  0  0
 58 64  1  0  0  0  0
 59 75  1  0  0  0  0
 60 63  1  0  0  0  0
 60 83  1  0  0  0  0
 61 64  1  0  0  0  0
 61 74  1  0  0  0  0
 62 75  1  0  0  0  0
 65 66  1  0  0  0  0
M  CHG  1  75   1
M  ISO  4  39 100  60 101  67 100  83 101
M  END
> <Batch ID>
0145

> <Smiles>
CNC(C)C(=O)NC(C(=O)N1Cc2cc([101O:1][101CH2:1]C(C)(C)C(=O)Nc3cc(F)c4c(c3)C[100N:0]4[100C:0](=O)N3CCCC(n4nc(-c5ccc(Oc6ccc(F)cc6F)cc5)c(C(N)=O)c4N)C3)ccc2CC1C(=O)NC1CCCc2ccccc21)C(C)(C)C

> <Shape>
0.252

> <Color>
0.098

> <Negative vol penalty>
0.000

$$$$

  -OEChem-04052303073D

 83 92  0     1  0  0  0  0  0999 V2000
  -28.7054  -37.2429   20.2536 C   0  0  0  0  0  0  0  0  0  0  0  0
  -29.0112  -35.9167   19.9653 C   0  0  0  0  0  0  0  0  0  0  0  0
  -22.8196  -10.7318   21.5059 C   0  0  0  0  0  0  0  0  0  0  0  0
  -23.1677  -13.0670   20.9935 C   0  0  0  0  0  0  0  0  0  0  0  0
  -27.8603  -37.5462   21.3204 C   0  0  0  0  0  0  0  0  0  0  0  0
  -28.4731  -34.8930   20.7443 C   0  0  0  0  0  0  0  0  0  0  0  0
  -26.7817  -29.3220   18.8447 C   0  0  0  0  0  0  0  0  0  0  0  0
  -21.7028  -11.0663   22.2717 C   0  0  0  0  0  0  0  0  0  0  0  0
  -22.0508  -13.4015   21.7593 C   0  0  0  0  0  0  0  0  0  0  0  0
  -27.4194  -28.0829   18.8867 C   0  0  0  0  0  0  0  0  0  0  0  0
  -18.6899  -13.3644   21.4079 C   0  0  0  0  0  0  0  0  0  0  0  0
  -17.7895  -14.2842   20.8706 C   0  0  0  0  0  0  0  0  0  0  0  0
  -30.4261  -19.3002   20.4581 C   0  0  0  0  0  0  0  0  0  0  0  0
  -30.7182  -17.9113   20.3315 C   0  0  0  0  0  0  0  0  0  0  0  0
  -26.2362  -27.5497   20.9202 C   0  0  0  0  0  0  0  0  0  0  0  0
  -18.1777  -15.7589   22.7445 C   0  0  0  0  0  0  0  0  0  0  0  0
  -23.5521  -11.7322   20.8668 C   0  0  0  0  0  0  0  0  0  0  0  0
  -24.7417  -10.5531   18.9426 C   0  0  0  0  0  0  0  0  0  0  0  0
  -27.3038  -36.5252   22.1068 C   0  0  0  0  0  0  0  0  0  0  0  0
  -25.8731  -29.6892   19.8477 C   0  0  0  0  0  0  0  0  0  0  0  0
  -27.6209  -35.1830   21.8234 C   0  0  0  0  0  0  0  0  0  0  0  0
  -25.5863  -28.7929   20.8872 C   0  0  0  0  0  0  0  0  0  0  0  0
  -21.3184  -12.4011   22.3984 C   0  0  0  0  0  0  0  0  0  0  0  0
  -27.1489  -27.1977   19.9261 C   0  0  0  0  0  0  0  0  0  0  0  0
  -19.3342  -13.6417   22.6136 C   0  0  0  0  0  0  0  0  0  0  0  0
  -17.5334  -15.4814   21.5388 C   0  0  0  0  0  0  0  0  0  0  0  0
  -19.0781  -14.8390   23.2819 C   0  0  0  0  0  0  0  0  0  0  0  0
  -24.7062  -11.3874   20.0761 C   0  0  0  0  0  0  0  0  0  0  0  0
  -29.0719  -19.5388   20.5391 C   0  0  0  0  0  0  0  0  0  0  0  0
  -26.0612  -10.5475   18.5616 C   0  0  0  0  0  0  0  0  0  0  0  0
  -29.5759  -17.1413   20.3207 C   0  0  0  0  0  0  0  0  0  0  0  0
  -23.6770   -9.8466   18.2923 C   0  0  0  0  0  0  0  0  0  0  0  0
  -25.7469  -32.0046   22.0217 C   0  0  0  0  0  0  0  0  0  0  0  0
  -22.7954  -30.7823   22.5846 C   0  0  0  0  0  0  0  0  0  0  0  0
  -20.6878  -28.1036   22.4127 C   0  0  0  0  0  0  0  0  0  0  0  0
  -30.3980  -14.7641   20.0908 C   0  0  0  0  0  0  0  0  0  0  0  0
  -26.4334  -36.9043   23.2787 C   0  0  0  0  0  0  0  0  0  0  0  0
  -25.1734  -31.0186   19.7734 C   0  0  0  0  0  0  0  0  0  0  0  0
  -24.6037  -29.1311   21.9774 C   0  0  0  0  0  0  0  0  0  0  0  0
  -25.6058  -35.7430   23.8235 C   0  0  0  0  0  0  0  0  0  0  0  0
  -30.3807  -11.1164   20.6847 C   0  0  0  0  0  0  0  0  0  0  0  0
  -26.4724  -34.4977   23.9814 C   0  0  0  0  0  0  0  0  0  0  0  0
  -28.6038  -21.7844   19.4689 C   0  0  0  0  0  0  0  0  0  0  0  0
  -28.7187  -21.5812   21.9918 C   0  0  0  0  0  0  0  0  0  0  0  0
  -27.8661  -23.1152   19.6129 C   0  0  0  0  0  0  0  0  0  0  0  0
  -27.9807  -22.9125   22.1295 C   0  0  0  0  0  0  0  0  0  0  0  0
  -28.9947  -10.6251   20.2640 C   0  0  0  0  0  0  0  0  0  0  0  0
  -30.8450  -12.3298   19.8910 C   0  0  0  0  0  0  0  0  0  0  0  0
  -28.4648  -13.0996   20.0029 C   0  0  0  0  0  0  0  0  0  0  0  0
  -27.0369  -34.0434   22.6300 C   0  0  1  0  0  0  0  0  0  0  0  0
  -28.3534  -20.8686   20.6788 C   0  0  0  0  0  0  0  0  0  0  0  0
  -24.6531  -31.4963   21.1257 C   0  0  1  0  0  0  0  0  0  0  0  0
  -28.2300  -23.8267   20.9227 C   0  0  0  0  0  0  0  0  0  0  0  0
  -28.1919  -11.6793   19.4836 C   0  0  2  0  0  0  0  0  0  0  0  0
  -18.3489  -27.3974   22.9853 C   0  0  0  0  0  0  0  0  0  0  0  0
  -23.5837  -30.5632   25.5241 C   0  0  0  0  0  0  0  0  0  0  0  0
  -21.6420  -29.0182   25.8576 C   0  0  0  0  0  0  0  0  0  0  0  0
  -21.2504  -31.3710   25.1272 C   0  0  0  0  0  0  0  0  0  0  0  0
  -20.0385  -27.5465   19.5796 C   0  0  0  0  0  0  0  0  0  0  0  0
  -27.4462  -25.1303   21.0634 C   0  0  0  0  0  0  0  0  0  1  0  0
  -22.2361  -29.7135   23.4923 C   0  0  1  0  0  0  0  0  0  0  0  0
  -19.2599  -27.9758   21.9137 C   0  0  2  0  0  0  0  0  0  0  0  0
  -22.1981  -30.1606   24.9809 C   0  0  0  0  0  0  0  0  0  0  0  0
  -25.9077  -11.8761   20.3944 N   0  0  0  0  0  0  0  0  0  0  0  0
  -26.7107  -11.3473   19.4554 N   0  0  0  0  0  0  0  0  0  0  0  0
  -23.9500  -30.4454   21.8641 N   0  0  0  0  0  0  0  0  0  0  0  0
  -29.8974  -13.4420   20.0063 N   0  0  0  0  0  0  0  0  0  0  0  0
  -26.7178   -9.9365   17.5527 N   0  0  0  0  0  0  0  0  0  0  0  0
  -22.9760  -10.4927   17.2649 N   0  0  0  0  0  0  0  0  0  0  0  0
  -29.4045  -15.7386   20.2148 N   0  0  0  0  0  0  0  0  0  0  0  0
  -26.0224  -33.3497   21.8659 N   0  0  0  0  0  0  0  0  0  0  0  0
  -20.9336  -29.3523   22.9433 N   0  0  0  0  0  0  0  0  0  0  0  0
  -19.2061  -27.0850   20.7202 N   0  3  0  0  0  0  0  0  0  0  0  0
  -23.3460   -8.6829   18.6238 O   0  0  0  0  0  0  0  0  0  0  0  0
  -26.2990  -31.2339   22.7982 O   0  0  0  0  0  0  0  0  0  0  0  0
  -22.2246  -31.8734   22.5119 O   0  0  0  0  0  0  0  0  0  0  0  0
  -21.5026  -27.1861   22.3425 O   0  0  0  0  0  0  0  0  0  0  0  0
  -31.6078  -15.0010   20.0698 O   0  0  0  0  0  0  0  0  0  0  0  0
  -20.2285  -12.7279   23.1454 O   0  0  0  0  0  0  0  0  0  0  0  0
  -27.7705  -25.9879   19.9699 O   0  0  0  0  0  0  0  0  0  1  0  0
  -16.6698  -16.3653   21.0220 F   0  0  0  0  0  0  0  0  0  0  0  0
  -19.6950  -15.1116   24.4399 F   0  0  0  0  0  0  0  0  0  0  0  0
  -28.1588  -18.0921   20.4626 S   0  0  0  0  0  0  0  0  0  0  0  0
  1  2  1  0  0  0  0
  1  5  2  0  0  0  0
  2  6  2  0  0  0  0
  3  8  2  0  0  0  0
  3 17  1  0  0  0  0
  4  9  1  0  0  0  0
  4 17  2  0  0  0  0
  5 19  1  0  0  0  0
  6 21  1  0  0  0  0
  7 10  2  0  0  0  0
  7 20  1  0  0  0  0
  8 23  1  0  0  0  0
  9 23  2  0  0  0  0
 10 24  1  0  0  0  0
 11 12  2  0  0  0  0
 11 25  1  0  0  0  0
 12 26  1  0  0  0  0
 13 14  1  0  0  0  0
 13 29  2  0  0  0  0
 14 31  2  0  0  0  0
 15 22  1  0  0  0  0
 15 24  2  0  0  0  0
 16 26  2  0  0  0  0
 16 27  1  0  0  0  0
 17 28  1  0  0  0  0
 18 28  1  0  0  0  0
 18 30  2  0  0  0  0
 18 32  1  0  0  0  0
 19 21  2  0  0  0  0
 19 37  1  0  0  0  0
 20 22  2  0  0  0  0
 20 38  1  0  0  0  0
 21 50  1  0  0  0  0
 22 39  1  0  0  0  0
 23 79  1  0  0  0  0
 24 80  1  0  0  0  0
 25 27  2  0  0  0  0
 25 79  1  0  0  0  0
 26 81  1  0  0  0  0
 27 82  1  0  0  0  0
 28 64  2  0  0  0  0
 29 51  1  0  0  0  0
 29 83  1  0  0  0  0
 30 65  1  0  0  0  0
 30 68  1  0  0  0  0
 31 70  1  0  0  0  0
 31 83  1  0  0  0  0
 32 69  1  0  0  0  0
 32 74  2  0  0  0  0
 33 52  1  0  0  0  0
 33 71  1  0  0  0  0
 33 75  2  0  0  0  0
 34 61  1  0  0  0  0
 34 66  1  0  0  0  0
 34 76  2  0  0  0  0
 35 62  1  0  0  0  0
 35 72  1  0  0  0  0
 35 77  2  0  0  0  0
 36 67  1  0  0  0  0
 36 70  1  0  0  0  0
 36 78  2  0  0  0  0
 37 40  1  0  0  0  0
 38 52  1  0  0  0  0
 39 66  1  0  0  0  0
 40 42  1  0  0  0  0
 41 47  1  0  0  0  0
 41 48  1  0  0  0  0
 42 50  1  0  0  0  0
 43 45  1  0  0  0  0
 43 51  1  0  0  0  0
 44 46  1  0  0  0  0
 44 51  1  0  0  0  0
 45 53  1  0  0  0  0
 46 53  1  0  0  0  0
 47 54  1  0  0  0  0
 48 67  1  0  0  0  0
 49 54  1  0  0  0  0
 49 67  1  0  0  0  0
 50 71  1  0  0  0  0
 52 66  1  0  0  0  0
 53 60  1  0  0  0  0
 54 65  1  0  0  0  0
 55 62  1  0  0  0  0
 56 63  1  0  0  0  0
 57 63  1  0  0  0  0
 58 63  1  0  0  0  0
 59 73  1  0  0  0  0
 60 80  1  0  0  0  0
 61 63  1  0  0  0  0
 61 72  1  0  0  0  0
 62 73  1  0  0  0  0
 64 65  1  0  0  0  0
M  CHG  1  73   1
M  ISO  4  36 100  60 101  70 100  80 101
M  END
> <Batch ID>
0145

> <Smiles>
CNC(C)C(=O)NC(C(=O)N1Cc2cc([101O:1][101CH2:1]C3CCC(c4ccc([100NH:0][100C:0](=O)N5CCCC(n6nc(-c7ccc(Oc8ccc(F)cc8F)cc7)c(C(N)=O)c6N)C5)s4)CC3)ccc2CC1C(=O)NC1CCCc2ccccc21)C(C)(C)C

> <Shape>
0.293

> <Color>
0.098

> <Negative vol penalty>
0.000

$$$$

  -OEChem-04052303073D

 88 97  0     1  0  0  0  0  0999 V2000
  -16.5698  -29.8969   24.3244 C   0  0  0  0  0  0  0  0  0  0  0  0
  -17.4893  -29.0761   24.9695 C   0  0  0  0  0  0  0  0  0  0  0  0
  -33.2916  -16.7200   23.3364 C   0  0  0  0  0  0  0  0  0  0  0  0
  -22.8578  -10.2197   20.0124 C   0  0  0  0  0  0  0  0  0  0  0  0
  -23.7219  -10.0492   22.2621 C   0  0  0  0  0  0  0  0  0  0  0  0
  -32.6191  -17.6245   24.1581 C   0  0  0  0  0  0  0  0  0  0  0  0
  -16.5817  -29.9968   22.9338 C   0  0  0  0  0  0  0  0  0  0  0  0
  -18.4206  -28.3538   24.2242 C   0  0  0  0  0  0  0  0  0  0  0  0
  -25.1389  -25.8906   24.5609 C   0  0  0  0  0  0  0  0  0  0  0  0
  -32.5773  -15.9388   22.4279 C   0  0  0  0  0  0  0  0  0  0  0  0
  -22.0167   -9.1333   20.2531 C   0  0  0  0  0  0  0  0  0  0  0  0
  -22.8807   -8.9628   22.5029 C   0  0  0  0  0  0  0  0  0  0  0  0
  -25.8620  -24.7090   24.4037 C   0  0  0  0  0  0  0  0  0  0  0  0
  -19.6217   -8.4529   23.2373 C   0  0  0  0  0  0  0  0  0  0  0  0
  -18.9205   -8.4328   24.4429 C   0  0  0  0  0  0  0  0  0  0  0  0
  -30.5181  -16.9665   23.1630 C   0  0  0  0  0  0  0  0  0  0  0  0
  -25.8400  -25.0209   22.0117 C   0  0  0  0  0  0  0  0  0  0  0  0
  -19.9986   -6.3534   25.0353 C   0  0  0  0  0  0  0  0  0  0  0  0
  -23.7104  -10.6776   21.0169 C   0  0  0  0  0  0  0  0  0  0  0  0
  -31.2324  -17.7477   24.0714 C   0  0  0  0  0  0  0  0  0  0  0  0
  -24.2930  -13.1610   20.9822 C   0  0  0  0  0  0  0  0  0  0  0  0
  -17.5198  -29.2828   22.1717 C   0  0  0  0  0  0  0  0  0  0  0  0
  -24.7509  -26.6418   23.4421 C   0  0  0  0  0  0  0  0  0  0  0  0
  -18.4441  -28.4431   22.8220 C   0  0  0  0  0  0  0  0  0  0  0  0
  -25.1143  -26.2130   22.1576 C   0  0  0  0  0  0  0  0  0  0  0  0
  -31.1906  -16.0620   22.3412 C   0  0  0  0  0  0  0  0  0  0  0  0
  -22.0281   -8.5049   21.4983 C   0  0  0  0  0  0  0  0  0  0  0  0
  -26.2102  -24.2725   23.1288 C   0  0  0  0  0  0  0  0  0  0  0  0
  -20.5113   -7.4232   22.9306 C   0  0  0  0  0  0  0  0  0  0  0  0
  -19.1090   -7.3831   25.3419 C   0  0  0  0  0  0  0  0  0  0  0  0
  -20.6998   -6.3735   23.8296 C   0  0  0  0  0  0  0  0  0  0  0  0
  -24.5799  -11.7994   20.7687 C   0  0  0  0  0  0  0  0  0  0  0  0
  -25.4352  -13.8176   20.5942 C   0  0  0  0  0  0  0  0  0  0  0  0
  -30.5210  -18.7035   24.9389 C   0  0  0  0  0  0  0  0  0  0  0  0
  -23.1005  -13.7771   21.4864 C   0  0  0  0  0  0  0  0  0  0  0  0
  -21.9662  -27.5233   22.1882 C   0  0  0  0  0  0  0  0  0  0  0  0
  -23.8547  -29.2369   20.1833 C   0  0  0  0  0  0  0  0  0  0  0  0
  -26.9088  -29.6361   18.7137 C   0  0  0  0  0  0  0  0  0  0  0  0
  -30.9799  -14.3232   20.5306 C   0  0  0  0  0  0  0  0  0  0  0  0
  -17.4632  -29.3861   20.6681 C   0  0  0  0  0  0  0  0  0  0  0  0
  -23.9942  -27.9281   23.6302 C   0  0  0  0  0  0  0  0  0  0  0  0
  -24.7395  -26.9937   20.9253 C   0  0  0  0  0  0  0  0  0  0  0  0
  -18.7247  -28.8778   19.9747 C   0  0  0  0  0  0  0  0  0  0  0  0
  -29.5231  -12.1380   18.1264 C   0  0  0  0  0  0  0  0  0  0  0  0
  -19.1506  -27.5347   20.5590 C   0  0  0  0  0  0  0  0  0  0  0  0
  -28.0836  -11.9671   18.6171 C   0  0  0  0  0  0  0  0  0  0  0  0
  -29.3183  -21.5009   22.9877 C   0  0  0  0  0  0  0  0  0  0  0  0
  -30.5119  -12.2228   19.2878 C   0  0  0  0  0  0  0  0  0  0  0  0
  -30.1871  -20.2535   23.0838 C   0  0  0  0  0  0  0  0  0  0  0  0
  -28.7526  -13.0639   20.7934 C   0  0  0  0  0  0  0  0  0  0  0  0
  -19.4858  -27.6630   22.0499 C   0  0  1  0  0  0  0  0  0  0  0  0
  -23.2076  -28.3452   22.3914 C   0  0  1  0  0  0  0  0  0  0  0  0
  -27.7131  -13.0388   19.6610 C   0  0  2  0  0  0  0  0  0  0  0  0
  -28.0371  -21.1378   23.7691 C   0  0  2  0  0  0  0  0  0  0  0  0
  -28.6100  -20.3305   24.9948 C   0  0  0  0  0  0  0  0  0  0  0  0
  -27.1202  -20.2877   22.8606 C   0  0  0  0  0  0  0  0  0  0  0  0
  -27.6424  -19.2789   25.5470 C   0  0  0  0  0  0  0  0  0  0  0  0
  -29.1131  -21.2176   26.1464 C   0  0  0  0  0  0  0  0  0  0  0  0
  -28.1380  -31.1055   17.0928 C   0  0  0  0  0  0  0  0  0  0  0  0
  -22.3969  -27.8936   17.8638 C   0  0  0  0  0  0  0  0  0  0  0  0
  -24.2496  -28.6439   16.3562 C   0  0  0  0  0  0  0  0  0  0  0  0
  -22.8467  -30.3324   17.5409 C   0  0  0  0  0  0  0  0  0  0  0  0
  -28.8861  -30.4406   20.7635 C   0  0  0  0  0  0  0  0  0  0  0  0
  -27.2656  -22.4063   24.1580 C   0  0  0  0  0  0  0  0  0  1  0  0
  -24.5230  -28.9713   18.8560 C   0  0  1  0  0  0  0  0  0  0  0  0
  -27.7980  -30.8560   18.5540 C   0  0  2  0  0  0  0  0  0  0  0  0
  -23.5096  -28.9444   17.6771 C   0  0  0  0  0  0  0  0  0  0  0  0
  -25.8081  -11.6014   20.2825 N   0  0  0  0  0  0  0  0  0  0  0  0
  -26.3030  -12.8472   20.1873 N   0  0  0  0  0  0  0  0  0  0  0  0
  -29.8122  -19.6778   24.3894 N   0  0  0  0  0  0  0  0  0  0  0  0
  -23.9944  -28.2415   21.1608 N   0  0  0  0  0  0  0  0  0  0  0  0
  -30.0990  -13.2617   20.2339 N   0  0  0  0  0  0  0  0  0  0  0  0
  -25.7719  -15.1246   20.5647 N   0  0  0  0  0  0  0  0  0  0  0  0
  -22.0211  -12.9551   21.8379 N   0  0  0  0  0  0  0  0  0  0  0  0
  -30.4659  -15.2681   21.4181 N   0  0  0  0  0  0  0  0  0  0  0  0
  -20.7947  -28.2553   22.2244 N   0  0  0  0  0  0  0  0  0  0  0  0
  -25.5723  -29.9755   18.7191 N   0  0  0  0  0  0  0  0  0  0  0  0
  -30.6006  -18.5715   26.2597 N   0  3  0  0  0  0  0  0  0  0  0  0
  -29.0704  -30.6717   19.3077 N   0  3  0  0  0  0  0  0  0  0  0  0
  -22.9895  -15.0208   21.6058 O   0  0  0  0  0  0  0  0  0  0  0  0
  -22.0641  -26.3148   22.0103 O   0  0  0  0  0  0  0  0  0  0  0  0
  -23.2376  -30.2921   20.3492 O   0  0  0  0  0  0  0  0  0  0  0  0
  -27.3549  -28.4958   18.8191 O   0  0  0  0  0  0  0  0  0  0  0  0
  -32.0968  -14.4035   20.0129 O   0  0  0  0  0  0  0  0  0  0  0  0
  -21.2073   -7.4449   21.7336 O   0  0  0  0  0  0  0  0  0  0  0  0
  -26.9154  -23.1192   22.9725 O   0  0  0  0  0  0  0  0  0  1  0  0
  -18.4367   -7.3647   26.5003 F   0  0  0  0  0  0  0  0  0  0  0  0
  -21.5540   -5.3820   23.5411 F   0  0  0  0  0  0  0  0  0  0  0  0
  1  2  1  0  0  0  0
  1  7  2  0  0  0  0
  2  8  2  0  0  0  0
  3  6  2  0  0  0  0
  3 10  1  0  0  0  0
  4 11  2  0  0  0  0
  4 19  1  0  0  0  0
  5 12  1  0  0  0  0
  5 19  2  0  0  0  0
  6 20  1  0  0  0  0
  7 22  1  0  0  0  0
  8 24  1  0  0  0  0
  9 13  2  0  0  0  0
  9 23  1  0  0  0  0
 10 26  2  0  0  0  0
 11 27  1  0  0  0  0
 12 27  2  0  0  0  0
 13 28  1  0  0  0  0
 14 15  2  0  0  0  0
 14 29  1  0  0  0  0
 15 30  1  0  0  0  0
 16 20  2  0  0  0  0
 16 26  1  0  0  0  0
 17 25  1  0  0  0  0
 17 28  2  0  0  0  0
 18 30  2  0  0  0  0
 18 31  1  0  0  0  0
 19 32  1  0  0  0  0
 20 34  1  0  0  0  0
 21 32  1  0  0  0  0
 21 33  2  0  0  0  0
 21 35  1  0  0  0  0
 22 24  2  0  0  0  0
 22 40  1  0  0  0  0
 23 25  2  0  0  0  0
 23 41  1  0  0  0  0
 24 51  1  0  0  0  0
 25 42  1  0  0  0  0
 26 75  1  0  0  0  0
 27 85  1  0  0  0  0
 28 86  1  0  0  0  0
 29 31  2  0  0  0  0
 29 85  1  0  0  0  0
 30 87  1  0  0  0  0
 31 88  1  0  0  0  0
 32 68  2  0  0  0  0
 33 69  1  0  0  0  0
 33 73  1  0  0  0  0
 34 70  1  0  0  0  0
 34 78  2  0  0  0  0
 35 74  1  0  0  0  0
 35 80  2  0  0  0  0
 36 52  1  0  0  0  0
 36 76  1  0  0  0  0
 36 81  2  0  0  0  0
 37 65  1  0  0  0  0
 37 71  1  0  0  0  0
 37 82  2  0  0  0  0
 38 66  1  0  0  0  0
 38 77  1  0  0  0  0
 38 83  2  0  0  0  0
 39 72  1  0  0  0  0
 39 75  1  0  0  0  0
 39 84  2  0  0  0  0
 40 43  1  0  0  0  0
 41 52  1  0  0  0  0
 42 71  1  0  0  0  0
 43 45  1  0  0  0  0
 44 46  1  0  0  0  0
 44 48  1  0  0  0  0
 45 51  1  0  0  0  0
 46 53  1  0  0  0  0
 47 49  1  0  0  0  0
 47 54  1  0  0  0  0
 48 72  1  0  0  0  0
 49 70  1  0  0  0  0
 50 53  1  0  0  0  0
 50 72  1  0  0  0  0
 51 76  1  0  0  0  0
 52 71  1  0  0  0  0
 53 69  1  0  0  0  0
 54 55  1  0  0  0  0
 54 56  1  0  0  0  0
 54 64  1  0  0  0  0
 55 57  1  0  0  0  0
 55 58  1  0  0  0  0
 55 70  1  0  0  0  0
 59 66  1  0  0  0  0
 60 67  1  0  0  0  0
 61 67  1  0  0  0  0
 62 67  1  0  0  0  0
 63 79  1  0  0  0  0
 64 86  1  0  0  0  0
 65 67  1  0  0  0  0
 65 77  1  0  0  0  0
 66 79  1  0  0  0  0
 68 69  1  0  0  0  0
M  CHG  2  78   1  79   1
M  ISO  4  39 100  64 101  75 100  86 101
M  END
> <Batch ID>
0145

> <Smiles>
CNC(C)C(=O)NC(C(=O)N1Cc2cc([101O:1][101CH2:1]C3(C)CCN(C(=N)c4cccc([100NH:0][100C:0](=O)N5CCCC(n6nc(-c7ccc(Oc8ccc(F)cc8F)cc7)c(C(N)=O)c6N)C5)c4)C3(C)C)ccc2CC1C(=O)NC1CCCc2ccccc21)C(C)(C)C

> <Shape>
0.259

> <Color>
0.184

> <Negative vol penalty>
0.000

$$$$

  -OEChem-04052303073D

 94104  0     1  0  0  0  0  0999 V2000
  -18.2964  -27.0681   22.8059 C   0  0  0  0  0  0  0  0  0  0  0  0
  -19.0897  -26.2141   23.5653 C   0  0  0  0  0  0  0  0  0  0  0  0
  -23.3820   -9.7431   19.9161 C   0  0  0  0  0  0  0  0  0  0  0  0
  -23.4045  -10.1091   22.3041 C   0  0  0  0  0  0  0  0  0  0  0  0
  -18.8916  -27.9894   21.9452 C   0  0  0  0  0  0  0  0  0  0  0  0
  -20.4789  -26.2801   23.4635 C   0  0  0  0  0  0  0  0  0  0  0  0
  -24.5466  -25.3599   27.9482 C   0  0  0  0  0  0  0  0  0  0  0  0
  -22.6432   -8.5748   20.1021 C   0  0  0  0  0  0  0  0  0  0  0  0
  -22.6656   -8.9407   22.4901 C   0  0  0  0  0  0  0  0  0  0  0  0
  -25.3150  -24.2526   28.3049 C   0  0  0  0  0  0  0  0  0  0  0  0
  -21.0942   -5.8649   23.6215 C   0  0  0  0  0  0  0  0  0  0  0  0
  -21.4983   -4.9968   24.6356 C   0  0  0  0  0  0  0  0  0  0  0  0
  -30.2154  -20.2186   23.7536 C   0  0  0  0  0  0  0  0  0  0  0  0
  -30.9572  -18.0667   22.9436 C   0  0  0  0  0  0  0  0  0  0  0  0
  -27.1724  -25.1449   27.0506 C   0  0  0  0  0  0  0  0  0  0  0  0
  -28.6138  -18.4462   23.3924 C   0  0  0  0  0  0  0  0  0  0  0  0
  -23.6467   -4.7408   23.5604 C   0  0  0  0  0  0  0  0  0  0  0  0
  -23.7627  -10.5103   21.0171 C   0  0  0  0  0  0  0  0  0  0  0  0
  -31.2438  -19.3748   23.3341 C   0  0  0  0  0  0  0  0  0  0  0  0
  -24.0256  -13.0182   20.6312 C   0  0  0  0  0  0  0  0  0  0  0  0
  -20.2889  -28.0733   21.8400 C   0  0  0  0  0  0  0  0  0  0  0  0
  -25.0828  -26.3644   27.1296 C   0  0  0  0  0  0  0  0  0  0  0  0
  -21.0933  -27.2024   22.5995 C   0  0  0  0  0  0  0  0  0  0  0  0
  -26.4096  -26.2652   26.6871 C   0  0  0  0  0  0  0  0  0  0  0  0
  -28.9004  -19.7542   23.7829 C   0  0  0  0  0  0  0  0  0  0  0  0
  -29.6422  -17.6024   22.9728 C   0  0  0  0  0  0  0  0  0  0  0  0
  -22.2849   -8.1736   21.3891 C   0  0  0  0  0  0  0  0  0  0  0  0
  -26.6271  -24.1435   27.8538 C   0  0  0  0  0  0  0  0  0  0  0  0
  -21.9662   -6.1710   22.5767 C   0  0  0  0  0  0  0  0  0  0  0  0
  -22.7746   -4.4347   24.6051 C   0  0  0  0  0  0  0  0  0  0  0  0
  -23.2425   -5.6089   22.5462 C   0  0  0  0  0  0  0  0  0  0  0  0
  -24.5264  -11.7170   20.8257 C   0  0  0  0  0  0  0  0  0  0  0  0
  -25.1462  -13.8017   20.5014 C   0  0  0  0  0  0  0  0  0  0  0  0
  -32.6149  -19.8591   23.3037 C   0  0  0  0  0  0  0  0  0  0  0  0
  -22.6686  -13.4776   20.5731 C   0  0  0  0  0  0  0  0  0  0  0  0
  -24.3786  -27.5318   24.2582 C   0  0  0  0  0  0  0  0  0  0  0  0
  -27.9667  -21.1352   25.6437 C   0  0  0  0  0  0  0  0  0  0  0  0
  -26.6903  -29.6844   24.9963 C   0  0  0  0  0  0  0  0  0  0  0  0
  -29.4821  -30.4295   26.8122 C   0  0  0  0  0  0  0  0  0  0  0  0
  -30.2525  -15.3071   22.1330 C   0  0  0  0  0  0  0  0  0  0  0  0
  -20.8857  -29.0529   20.8607 C   0  0  0  0  0  0  0  0  0  0  0  0
  -24.2495  -27.5656   26.7758 C   0  0  0  0  0  0  0  0  0  0  0  0
  -27.0387  -27.3263   25.8229 C   0  0  0  0  0  0  0  0  0  0  0  0
  -22.3719  -29.3148   21.0902 C   0  0  0  0  0  0  0  0  0  0  0  0
  -30.0101  -12.5238   19.9257 C   0  0  0  0  0  0  0  0  0  0  0  0
  -26.1701  -18.7662   27.7107 C   0  0  0  0  0  0  0  0  0  0  0  0
  -25.8578  -23.2777   22.4659 C   0  0  0  0  0  0  0  0  0  0  0  0
  -25.8424  -22.0452   21.5843 C   0  0  0  0  0  0  0  0  0  0  0  0
  -23.1199  -28.0013   21.2955 C   0  0  0  0  0  0  0  0  0  0  0  0
  -28.5206  -12.1728   19.9471 C   0  0  0  0  0  0  0  0  0  0  0  0
  -27.1842  -19.3510   28.6882 C   0  0  0  0  0  0  0  0  0  0  0  0
  -26.7359  -19.1271   26.3430 C   0  0  0  0  0  0  0  0  0  0  0  0
  -30.5049  -12.9806   21.2970 C   0  0  0  0  0  0  0  0  0  0  0  0
  -28.2403  -13.7183   21.9270 C   0  0  0  0  0  0  0  0  0  0  0  0
  -26.4424  -22.7509   23.7589 C   0  0  0  0  0  0  0  0  0  0  0  0
  -27.1653  -21.3617   21.8827 C   0  0  0  0  0  0  0  0  0  0  0  0
  -22.6041  -27.2606   22.5353 C   0  0  1  0  0  0  0  0  0  0  0  0
  -24.7311  -28.2764   25.5147 C   0  0  1  0  0  0  0  0  0  0  0  0
  -27.6812  -13.3148   20.5529 C   0  0  2  0  0  0  0  0  0  0  0  0
  -27.6011  -20.6776   28.0461 C   0  0  2  0  0  0  0  0  0  0  0  0
  -32.8277  -21.3230   23.0488 C   0  0  0  0  0  0  0  0  0  0  0  0
  -31.1695  -32.2517   27.1724 C   0  0  0  0  0  0  0  0  0  0  0  0
  -28.0359  -28.9568   22.3563 C   0  0  0  0  0  0  0  0  0  0  0  0
  -30.1233  -30.0533   23.1982 C   0  0  0  0  0  0  0  0  0  0  0  0
  -28.0453  -31.3992   22.8935 C   0  0  0  0  0  0  0  0  0  0  0  0
  -28.7517  -30.7008   29.6673 C   0  0  0  0  0  0  0  0  0  0  0  0
  -26.6878  -21.8349   28.4217 C   0  0  0  0  0  0  0  0  0  1  0  0
  -27.7815  -20.6718   24.2394 C   0  0  1  0  0  0  0  0  0  0  0  0
  -28.1865  -29.7534   24.8075 C   0  0  1  0  0  0  0  0  0  0  0  0
  -29.8520  -31.6499   27.6358 C   0  0  2  0  0  0  0  0  0  0  0  0
  -28.5855  -30.0196   23.3286 C   0  0  0  0  0  0  0  0  0  0  0  0
  -25.8613  -11.6723   20.8205 N   0  0  0  0  0  0  0  0  0  0  0  0
  -26.2088  -12.9551   20.6211 N   0  0  0  0  0  0  0  0  0  0  0  0
  -27.4611  -20.3823   26.6052 N   0  0  0  0  0  0  0  0  0  0  0  0
  -26.1814  -28.4784   25.4988 N   0  0  0  0  0  0  0  0  0  0  0  0
  -29.6647  -14.0668   21.8061 N   0  0  0  0  0  0  0  0  0  0  0  0
  -25.3164  -15.1253   20.2977 N   0  0  0  0  0  0  0  0  0  0  0  0
  -21.6385  -12.5396   20.7257 N   0  0  0  0  0  0  0  0  0  0  0  0
  -29.3504  -16.2738   22.5760 N   0  0  0  0  0  0  0  0  0  0  0  0
  -23.1398  -27.8576   23.7399 N   0  0  0  0  0  0  0  0  0  0  0  0
  -28.6705  -30.7589   25.7472 N   0  0  0  0  0  0  0  0  0  0  0  0
  -28.6267  -22.2647   25.8616 N   0  3  0  0  0  0  0  0  0  0  0  0
  -27.5213  -21.7986   23.2920 N   0  3  0  0  0  0  0  0  0  0  0  0
  -29.9828  -31.2837   29.0744 N   0  3  0  0  0  0  0  0  0  0  0  0
  -33.6155  -19.1577   23.4667 O   0  0  0  0  0  0  0  0  0  0  0  0
  -22.3781  -14.6817   20.3747 O   0  0  0  0  0  0  0  0  0  0  0  0
  -25.1725  -26.7227   23.7925 O   0  0  0  0  0  0  0  0  0  0  0  0
  -25.9993  -30.6669   24.7153 O   0  0  0  0  0  0  0  0  0  0  0  0
  -29.8769  -29.2978   27.0841 O   0  0  0  0  0  0  0  0  0  0  0  0
  -31.4630  -15.5062   22.0018 O   0  0  0  0  0  0  0  0  0  0  0  0
  -21.5638   -7.0336   21.5709 O   0  0  0  0  0  0  0  0  0  0  0  0
  -27.3791  -23.0635   28.2000 O   0  0  0  0  0  0  0  0  0  1  0  0
  -23.1631   -3.6023   25.5799 F   0  0  0  0  0  0  0  0  0  0  0  0
  -24.0851   -5.9001   21.5457 F   0  0  0  0  0  0  0  0  0  0  0  0
  1  2  1  0  0  0  0
  1  5  2  0  0  0  0
  2  6  2  0  0  0  0
  3  8  2  0  0  0  0
  3 18  1  0  0  0  0
  4  9  1  0  0  0  0
  4 18  2  0  0  0  0
  5 21  1  0  0  0  0
  6 23  1  0  0  0  0
  7 10  2  0  0  0  0
  7 22  1  0  0  0  0
  8 27  1  0  0  0  0
  9 27  2  0  0  0  0
 10 28  1  0  0  0  0
 11 12  2  0  0  0  0
 11 29  1  0  0  0  0
 12 30  1  0  0  0  0
 13 19  1  0  0  0  0
 13 25  2  0  0  0  0
 14 19  2  0  0  0  0
 14 26  1  0  0  0  0
 15 24  1  0  0  0  0
 15 28  2  0  0  0  0
 16 25  1  0  0  0  0
 16 26  2  0  0  0  0
 17 30  2  0  0  0  0
 17 31  1  0  0  0  0
 18 32  1  0  0  0  0
 19 34  1  0  0  0  0
 20 32  1  0  0  0  0
 20 33  2  0  0  0  0
 20 35  1  0  0  0  0
 21 23  2  0  0  0  0
 21 41  1  0  0  0  0
 22 24  2  0  0  0  0
 22 42  1  0  0  0  0
 23 57  1  0  0  0  0
 24 43  1  0  0  0  0
 25 68  1  0  0  0  0
 26 79  1  0  0  0  0
 27 91  1  0  0  0  0
 28 92  1  0  0  0  0
 29 31  2  0  0  0  0
 29 91  1  0  0  0  0
 30 93  1  0  0  0  0
 31 94  1  0  0  0  0
 32 72  2  0  0  0  0
 33 73  1  0  0  0  0
 33 77  1  0  0  0  0
 34 61  1  0  0  0  0
 34 85  2  0  0  0  0
 35 78  1  0  0  0  0
 35 86  2  0  0  0  0
 36 58  1  0  0  0  0
 36 80  1  0  0  0  0
 36 87  2  0  0  0  0
 37 68  1  0  0  0  0
 37 74  1  0  0  0  0
 37 82  2  0  0  0  0
 38 69  1  0  0  0  0
 38 75  1  0  0  0  0
 38 88  2  0  0  0  0
 39 70  1  0  0  0  0
 39 81  1  0  0  0  0
 39 89  2  0  0  0  0
 40 76  1  0  0  0  0
 40 79  1  0  0  0  0
 40 90  2  0  0  0  0
 41 44  1  0  0  0  0
 42 58  1  0  0  0  0
 43 75  1  0  0  0  0
 44 49  1  0  0  0  0
 45 50  1  0  0  0  0
 45 53  1  0  0  0  0
 46 51  1  0  0  0  0
 46 52  1  0  0  0  0
 47 48  1  0  0  0  0
 47 55  1  0  0  0  0
 48 56  1  0  0  0  0
 49 57  1  0  0  0  0
 50 59  1  0  0  0  0
 51 60  1  0  0  0  0
 52 74  1  0  0  0  0
 53 76  1  0  0  0  0
 54 59  1  0  0  0  0
 54 76  1  0  0  0  0
 55 83  1  0  0  0  0
 56 83  1  0  0  0  0
 57 80  1  0  0  0  0
 58 75  1  0  0  0  0
 59 73  1  0  0  0  0
 60 67  1  0  0  0  0
 60 74  1  0  0  0  0
 62 70  1  0  0  0  0
 63 71  1  0  0  0  0
 64 71  1  0  0  0  0
 65 71  1  0  0  0  0
 66 84  1  0  0  0  0
 67 92  1  0  0  0  0
 68 83  1  0  0  0  0
 69 71  1  0  0  0  0
 69 81  1  0  0  0  0
 70 84  1  0  0  0  0
 72 73  1  0  0  0  0
M  CHG  3  82   1  83   1  84   1
M  ISO  4  40 100  67 101  79 100  92 101
M  END
> <Batch ID>
0145

> <Smiles>
CNC(C)C(=O)NC(C(=O)N1Cc2cc([101O:1][101CH2:1]C3CCCN3C(=N)C(c3cc([100NH:0][100C:0](=O)N4CCCC(n5nc(-c6ccc(Oc7ccc(F)cc7F)cc6)c(C(N)=O)c5N)C4)cc(C(C)=O)c3)N3CCCC3)ccc2CC1C(=O)NC1CCCc2ccccc21)C(C)(C)C

> <Shape>
0.234

> <Color>
0.157

> <Negative vol penalty>
0.000

$$$$

  -OEChem-04052303073D

 83 91  0     1  0  0  0  0  0999 V2000
  -18.0564  -26.5066   26.0275 C   0  0  0  0  0  0  0  0  0  0  0  0
  -19.3894  -26.1360   26.1732 C   0  0  0  0  0  0  0  0  0  0  0  0
  -23.1262   -9.7462   19.9840 C   0  0  0  0  0  0  0  0  0  0  0  0
  -23.6310  -10.0532   22.3266 C   0  0  0  0  0  0  0  0  0  0  0  0
  -17.6327  -27.1354   24.8574 C   0  0  0  0  0  0  0  0  0  0  0  0
  -20.2993  -26.3929   25.1482 C   0  0  0  0  0  0  0  0  0  0  0  0
  -26.2101  -27.8747   25.7583 C   0  0  0  0  0  0  0  0  0  0  0  0
  -22.3781   -8.6104   20.2940 C   0  0  0  0  0  0  0  0  0  0  0  0
  -22.8829   -8.9175   22.6367 C   0  0  0  0  0  0  0  0  0  0  0  0
  -27.3797  -27.1207   25.6731 C   0  0  0  0  0  0  0  0  0  0  0  0
  -23.2864   -5.5624   22.5283 C   0  0  0  0  0  0  0  0  0  0  0  0
  -23.8363   -4.6501   23.4288 C   0  0  0  0  0  0  0  0  0  0  0  0
  -31.4728  -19.1729   22.2125 C   0  0  0  0  0  0  0  0  0  0  0  0
  -31.4772  -17.8415   21.7049 C   0  0  0  0  0  0  0  0  0  0  0  0
  -27.6370  -27.7913   23.3702 C   0  0  0  0  0  0  0  0  0  0  0  0
  -21.9562   -4.9791   24.9101 C   0  0  0  0  0  0  0  0  0  0  0  0
  -23.7527  -10.4675   21.0003 C   0  0  0  0  0  0  0  0  0  0  0  0
  -24.0648  -12.9685   20.6062 C   0  0  0  0  0  0  0  0  0  0  0  0
  -18.5398  -27.4088   23.8216 C   0  0  0  0  0  0  0  0  0  0  0  0
  -25.7384  -28.5850   24.6451 C   0  0  0  0  0  0  0  0  0  0  0  0
  -19.8870  -27.0246   23.9626 C   0  0  0  0  0  0  0  0  0  0  0  0
  -26.4625  -28.5556   23.4447 C   0  0  0  0  0  0  0  0  0  0  0  0
  -22.2565   -8.1961   21.6203 C   0  0  0  0  0  0  0  0  0  0  0  0
  -28.0918  -27.0766   24.4781 C   0  0  0  0  0  0  0  0  0  0  0  0
  -22.0714   -6.1831   22.8187 C   0  0  0  0  0  0  0  0  0  0  0  0
  -23.1712   -4.3585   24.6197 C   0  0  0  0  0  0  0  0  0  0  0  0
  -21.4063   -5.8914   24.0096 C   0  0  0  0  0  0  0  0  0  0  0  0
  -24.5260  -11.6405   20.6806 C   0  0  0  0  0  0  0  0  0  0  0  0
  -25.1779  -13.7002   20.2713 C   0  0  0  0  0  0  0  0  0  0  0  0
  -30.2513  -19.5188   22.7472 C   0  0  0  0  0  0  0  0  0  0  0  0
  -30.2588  -17.2204   21.8714 C   0  0  0  0  0  0  0  0  0  0  0  0
  -29.7178  -22.9329   24.2228 C   0  0  0  0  0  0  0  0  0  0  0  0
  -22.7481  -13.4937   20.8206 C   0  0  0  0  0  0  0  0  0  0  0  0
  -30.1780  -24.1551   24.5360 C   0  0  0  0  0  0  0  0  0  0  0  0
  -30.5477  -21.8844   23.5498 C   0  0  0  0  0  0  0  0  0  0  0  0
  -23.1014  -28.4852   22.8731 C   0  0  0  0  0  0  0  0  0  0  0  0
  -24.4011  -31.1145   21.4874 C   0  0  0  0  0  0  0  0  0  0  0  0
  -27.2022  -32.9303   20.7777 C   0  0  0  0  0  0  0  0  0  0  0  0
  -30.5748  -14.9193   20.8958 C   0  0  0  0  0  0  0  0  0  0  0  0
  -18.0255  -28.0478   22.5560 C   0  0  0  0  0  0  0  0  0  0  0  0
  -24.4894  -29.4151   24.7611 C   0  0  0  0  0  0  0  0  0  0  0  0
  -26.0095  -29.3167   22.2265 C   0  0  0  0  0  0  0  0  0  0  0  0
  -19.1292  -28.6214   21.6712 C   0  0  0  0  0  0  0  0  0  0  0  0
  -29.7646  -12.2049   18.7389 C   0  0  0  0  0  0  0  0  0  0  0  0
  -20.2704  -27.6199   21.5245 C   0  0  0  0  0  0  0  0  0  0  0  0
  -28.2915  -11.9253   19.0456 C   0  0  0  0  0  0  0  0  0  0  0  0
  -30.5392  -12.6043   19.9935 C   0  0  0  0  0  0  0  0  0  0  0  0
  -28.4815  -13.4343   21.0640 C   0  0  0  0  0  0  0  0  0  0  0  0
  -20.9092  -27.3085   22.8834 C   0  0  1  0  0  0  0  0  0  0  0  0
  -23.8246  -29.6857   23.4150 C   0  0  1  0  0  0  0  0  0  0  0  0
  -27.6460  -13.0912   19.8199 C   0  0  2  0  0  0  0  0  0  0  0  0
  -27.9525  -35.0138   19.5974 C   0  0  0  0  0  0  0  0  0  0  0  0
  -24.0671  -29.7094   18.7997 C   0  0  0  0  0  0  0  0  0  0  0  0
  -25.6568  -31.3721   17.8116 C   0  0  0  0  0  0  0  0  0  0  0  0
  -23.4924  -32.1433   18.7829 C   0  0  0  0  0  0  0  0  0  0  0  0
  -28.2724  -34.0998   23.2768 C   0  0  0  0  0  0  0  0  0  0  0  0
  -29.3227  -25.1812   25.2186 C   0  0  0  0  0  0  0  0  0  1  0  0
  -25.3349  -31.3603   20.3270 C   0  0  1  0  0  0  0  0  0  0  0  0
  -27.5058  -34.4108   20.9201 C   0  0  2  0  0  0  0  0  0  0  0  0
  -24.6456  -31.1303   18.9525 C   0  0  0  0  0  0  0  0  0  0  0  0
  -25.8303  -11.5319   20.4143 N   0  0  0  0  0  0  0  0  0  0  0  0
  -26.1983  -12.8010   20.1691 N   0  0  0  0  0  0  0  0  0  0  0  0
  -24.7790  -30.1087   22.3881 N   0  0  0  0  0  0  0  0  0  0  0  0
  -29.8713  -13.7169   20.6724 N   0  0  0  0  0  0  0  0  0  0  0  0
  -25.3735  -15.0187   20.0571 N   0  0  0  0  0  0  0  0  0  0  0  0
  -21.7202  -12.6028   21.1581 N   0  0  0  0  0  0  0  0  0  0  0  0
  -29.8114  -20.7227   23.3507 N   0  0  0  0  0  0  0  0  0  0  0  0
  -29.8272  -15.9173   21.5202 N   0  0  0  0  0  0  0  0  0  0  0  0
  -21.7871  -28.3856   23.2879 N   0  0  0  0  0  0  0  0  0  0  0  0
  -25.8683  -32.7059   20.5102 N   0  0  0  0  0  0  0  0  0  0  0  0
  -28.5875  -34.6237   21.9228 N   0  3  0  0  0  0  0  0  0  0  0  0
  -22.4872  -14.7147   20.7000 O   0  0  0  0  0  0  0  0  0  0  0  0
  -31.7155  -22.0883   23.2417 O   0  0  0  0  0  0  0  0  0  0  0  0
  -23.6917  -27.7078   22.1322 O   0  0  0  0  0  0  0  0  0  0  0  0
  -23.3777  -31.7949   21.5947 O   0  0  0  0  0  0  0  0  0  0  0  0
  -28.0630  -32.0601   20.8886 O   0  0  0  0  0  0  0  0  0  0  0  0
  -31.7454  -15.0633   20.5337 O   0  0  0  0  0  0  0  0  0  0  0  0
  -31.4753  -24.5456   24.2695 O   0  0  0  0  0  0  0  0  0  0  0  0
  -21.5264   -7.0880   21.9232 O   0  0  0  0  0  0  0  0  0  0  0  0
  -29.2334  -26.3410   24.3920 O   0  0  0  0  0  0  0  0  0  1  0  0
  -23.6986   -3.4812   25.4837 F   0  0  0  0  0  0  0  0  0  0  0  0
  -20.2382   -6.4837   24.2935 F   0  0  0  0  0  0  0  0  0  0  0  0
  -29.1165  -18.2412   22.6364 S   0  0  0  0  0  0  0  0  0  0  0  0
  1  2  1  0  0  0  0
  1  5  2  0  0  0  0
  2  6  2  0  0  0  0
  3  8  2  0  0  0  0
  3 17  1  0  0  0  0
  4  9  1  0  0  0  0
  4 17  2  0  0  0  0
  5 19  1  0  0  0  0
  6 21  1  0  0  0  0
  7 10  2  0  0  0  0
  7 20  1  0  0  0  0
  8 23  1  0  0  0  0
  9 23  2  0  0  0  0
 10 24  1  0  0  0  0
 11 12  2  0  0  0  0
 11 25  1  0  0  0  0
 12 26  1  0  0  0  0
 13 14  1  0  0  0  0
 13 30  2  0  0  0  0
 14 31  2  0  0  0  0
 15 22  1  0  0  0  0
 15 24  2  0  0  0  0
 16 26  2  0  0  0  0
 16 27  1  0  0  0  0
 17 28  1  0  0  0  0
 18 28  1  0  0  0  0
 18 29  2  0  0  0  0
 18 33  1  0  0  0  0
 19 21  2  0  0  0  0
 19 40  1  0  0  0  0
 20 22  2  0  0  0  0
 20 41  1  0  0  0  0
 21 49  1  0  0  0  0
 22 42  1  0  0  0  0
 23 79  1  0  0  0  0
 24 80  1  0  0  0  0
 25 27  2  0  0  0  0
 25 79  1  0  0  0  0
 26 81  1  0  0  0  0
 27 82  1  0  0  0  0
 28 61  2  0  0  0  0
 29 62  1  0  0  0  0
 29 65  1  0  0  0  0
 30 67  1  0  0  0  0
 30 83  1  0  0  0  0
 31 68  1  0  0  0  0
 31 83  1  0  0  0  0
 32 34  2  0  0  0  0
 32 35  1  0  0  0  0
 33 66  1  0  0  0  0
 33 72  2  0  0  0  0
 34 57  1  0  0  0  0
 34 78  1  0  0  0  0
 35 67  1  0  0  0  0
 35 73  2  0  0  0  0
 36 50  1  0  0  0  0
 36 69  1  0  0  0  0
 36 74  2  0  0  0  0
 37 58  1  0  0  0  0
 37 63  1  0  0  0  0
 37 75  2  0  0  0  0
 38 59  1  0  0  0  0
 38 70  1  0  0  0  0
 38 76  2  0  0  0  0
 39 64  1  0  0  0  0
 39 68  1  0  0  0  0
 39 77  2  0  0  0  0
 40 43  1  0  0  0  0
 41 50  1  0  0  0  0
 42 63  1  0  0  0  0
 43 45  1  0  0  0  0
 44 46  1  0  0  0  0
 44 47  1  0  0  0  0
 45 49  1  0  0  0  0
 46 51  1  0  0  0  0
 47 64  1  0  0  0  0
 48 51  1  0  0  0  0
 48 64  1  0  0  0  0
 49 69  1  0  0  0  0
 50 63  1  0  0  0  0
 51 62  1  0  0  0  0
 52 59  1  0  0  0  0
 53 60  1  0  0  0  0
 54 60  1  0  0  0  0
 55 60  1  0  0  0  0
 56 71  1  0  0  0  0
 57 80  1  0  0  0  0
 58 60  1  0  0  0  0
 58 70  1  0  0  0  0
 59 71  1  0  0  0  0
 61 62  1  0  0  0  0
M  CHG  1  71   1
M  ISO  4  39 100  57 101  68 100  80 101
M  END
> <Batch ID>
0145

> <Smiles>
CNC(C)C(=O)NC(C(=O)N1Cc2cc([101O:1][101CH2:1]C(=O)CC(=O)Nc3ccc([100NH:0][100C:0](=O)N4CCCC(n5nc(-c6ccc(Oc7ccc(F)cc7F)cc6)c(C(N)=O)c5N)C4)s3)ccc2CC1C(=O)NC1CCCc2ccccc21)C(C)(C)C

> <Shape>
0.282

> <Color>
0.208

> <Negative vol penalty>
0.000

$$$$

  -OEChem-04052303073D

 95105  0     1  0  0  0  0  0999 V2000
  -34.1492  -30.6299   21.8713 C   0  0  0  0  0  0  0  0  0  0  0  0
  -33.6008  -29.4471   22.3567 C   0  0  0  0  0  0  0  0  0  0  0  0
  -23.2531  -10.1347   22.1653 C   0  0  0  0  0  0  0  0  0  0  0  0
  -23.5061   -9.5595   19.8325 C   0  0  0  0  0  0  0  0  0  0  0  0
  -35.5319  -30.8091   21.8753 C   0  0  0  0  0  0  0  0  0  0  0  0
  -34.4350  -28.4422   22.8453 C   0  0  0  0  0  0  0  0  0  0  0  0
  -32.7632  -26.4777   27.2032 C   0  0  0  0  0  0  0  0  0  0  0  0
  -22.4919   -8.9834   22.3667 C   0  0  0  0  0  0  0  0  0  0  0  0
  -22.7449   -8.4081   20.0338 C   0  0  0  0  0  0  0  0  0  0  0  0
  -31.7152  -25.5612   27.1279 C   0  0  0  0  0  0  0  0  0  0  0  0
  -23.0434   -5.6730   22.7788 C   0  0  0  0  0  0  0  0  0  0  0  0
  -23.3257   -4.8977   23.9035 C   0  0  0  0  0  0  0  0  0  0  0  0
  -31.9731  -18.5755   22.6109 C   0  0  0  0  0  0  0  0  0  0  0  0
  -31.8559  -17.3521   21.8901 C   0  0  0  0  0  0  0  0  0  0  0  0
  -33.2926  -23.7489   27.3442 C   0  0  0  0  0  0  0  0  0  0  0  0
  -21.0692   -5.2315   24.6999 C   0  0  0  0  0  0  0  0  0  0  0  0
  -23.7602  -10.4228   20.8982 C   0  0  0  0  0  0  0  0  0  0  0  0
  -24.1431  -12.9449   20.8975 C   0  0  0  0  0  0  0  0  0  0  0  0
  -36.3828  -29.8098   22.3731 C   0  0  0  0  0  0  0  0  0  0  0  0
  -34.0870  -26.0355   27.3388 C   0  0  0  0  0  0  0  0  0  0  0  0
  -35.8304  -28.6076   22.8547 C   0  0  0  0  0  0  0  0  0  0  0  0
  -34.3553  -24.6619   27.4235 C   0  0  0  0  0  0  0  0  0  0  0  0
  -22.2378   -8.1201   21.3010 C   0  0  0  0  0  0  0  0  0  0  0  0
  -31.9801  -24.1965   27.1955 C   0  0  0  0  0  0  0  0  0  0  0  0
  -21.7741   -6.2276   22.6147 C   0  0  0  0  0  0  0  0  0  0  0  0
  -22.3386   -4.6770   24.8640 C   0  0  0  0  0  0  0  0  0  0  0  0
  -20.7870   -6.0068   23.5752 C   0  0  0  0  0  0  0  0  0  0  0  0
  -24.5462  -11.6122   20.6894 C   0  0  0  0  0  0  0  0  0  0  0  0
  -25.2434  -13.6935   20.5577 C   0  0  0  0  0  0  0  0  0  0  0  0
  -30.8393  -18.8567   23.3409 C   0  0  0  0  0  0  0  0  0  0  0  0
  -30.6368  -16.7446   22.0969 C   0  0  0  0  0  0  0  0  0  0  0  0
  -22.8864  -13.4601   21.3570 C   0  0  0  0  0  0  0  0  0  0  0  0
  -36.7251  -26.2817   25.5828 C   0  0  0  0  0  0  0  0  0  0  0  0
  -38.1030  -24.8700   28.1579 C   0  0  0  0  0  0  0  0  0  0  0  0
  -37.7385  -22.9121   30.9292 C   0  0  0  0  0  0  0  0  0  0  0  0
  -30.7281  -14.6402   20.7151 C   0  0  0  0  0  0  0  0  0  0  0  0
  -37.8737  -30.0297   22.3132 C   0  0  0  0  0  0  0  0  0  0  0  0
  -35.2036  -27.0377   27.4454 C   0  0  0  0  0  0  0  0  0  0  0  0
  -35.7570  -24.1364   27.5895 C   0  0  0  0  0  0  0  0  0  0  0  0
  -38.6672  -29.0683   23.1943 C   0  0  0  0  0  0  0  0  0  0  0  0
  -29.5455  -12.3642   18.2456 C   0  0  0  0  0  0  0  0  0  0  0  0
  -38.1721  -27.6380   23.0043 C   0  0  0  0  0  0  0  0  0  0  0  0
  -28.1063  -12.0753   18.6783 C   0  0  0  0  0  0  0  0  0  0  0  0
  -29.7829  -22.1262   24.5106 C   0  0  0  0  0  0  0  0  0  0  0  0
  -29.2769  -16.3556   28.0750 C   0  0  0  0  0  0  0  0  0  0  0  0
  -30.4784  -12.5187   19.4454 C   0  0  0  0  0  0  0  0  0  0  0  0
  -30.6811  -21.3125   23.5833 C   0  0  0  0  0  0  0  0  0  0  0  0
  -28.6002  -13.2053   20.8843 C   0  0  0  0  0  0  0  0  0  0  0  0
  -30.6357  -16.9194   27.6854 C   0  0  0  0  0  0  0  0  0  0  0  0
  -28.8986  -17.6464   26.1253 C   0  0  0  0  0  0  0  0  0  0  0  0
  -36.7009  -27.5042   23.4159 C   0  0  1  0  0  0  0  0  0  0  0  0
  -36.5635  -26.4597   27.0660 C   0  0  1  0  0  0  0  0  0  0  0  0
  -27.6109  -13.1060   19.7116 C   0  0  2  0  0  0  0  0  0  0  0  0
  -30.0670  -19.9528   25.5061 C   0  0  2  0  0  0  0  0  0  0  0  0
  -29.9807  -21.4672   25.8852 C   0  0  2  0  0  0  0  0  0  0  0  0
  -28.4646  -16.3335   26.7770 C   0  0  0  0  0  0  0  0  0  0  0  0
  -28.7830  -21.7473   26.8007 C   0  0  0  0  0  0  0  0  0  0  0  0
  -28.8321  -15.1206   25.9062 C   0  0  0  0  0  0  0  0  0  0  0  0
  -26.9600  -16.3186   27.0527 C   0  0  0  0  0  0  0  0  0  0  0  0
  -39.0515  -21.9026   32.8145 C   0  0  0  0  0  0  0  0  0  0  0  0
  -39.2216  -22.7680   26.2500 C   0  0  0  0  0  0  0  0  0  0  0  0
  -39.6901  -21.3162   28.2352 C   0  0  0  0  0  0  0  0  0  0  0  0
  -40.8199  -23.5295   28.0164 C   0  0  0  0  0  0  0  0  0  0  0  0
  -33.1659  -19.6637   27.5074 C   0  0  0  0  0  0  0  0  0  0  0  0
  -32.9740  -17.7355   25.9458 C   0  0  0  0  0  0  0  0  0  0  0  0
  -32.8508  -20.0712   25.0629 C   0  0  0  0  0  0  0  0  0  0  0  0
  -36.1633  -24.3749   32.9634 C   0  0  0  0  0  0  0  0  0  0  0  0
  -31.2538  -22.0256   26.5507 C   0  0  0  0  0  0  0  0  0  1  0  0
  -38.3583  -23.4454   28.5870 C   0  0  1  0  0  0  0  0  0  0  0  0
  -38.2181  -23.0901   32.3585 C   0  0  2  0  0  0  0  0  0  0  0  0
  -30.9065  -19.1291   26.4822 C   0  0  2  0  0  0  0  0  0  0  0  0
  -39.4961  -22.7743   27.7671 C   0  0  0  0  0  0  0  0  0  0  0  0
  -32.4482  -19.1585   26.2372 C   0  0  0  0  0  0  0  0  0  0  0  0
  -25.8043  -11.5165   20.2511 N   0  0  0  0  0  0  0  0  0  0  0  0
  -26.2012  -12.7986   20.1810 N   0  0  0  0  0  0  0  0  0  0  0  0
  -30.6323  -19.9624   24.1443 N   0  0  3  0  0  0  0  0  0  0  0  0
  -36.8153  -25.1556   27.6825 N   0  0  0  0  0  0  0  0  0  0  0  0
  -29.9472  -13.5141   20.3792 N   0  0  0  0  0  0  0  0  0  0  0  0
  -25.4753  -15.0233   20.5473 N   0  0  0  0  0  0  0  0  0  0  0  0
  -21.9002  -13.7607   20.4076 N   0  0  0  0  0  0  0  0  0  0  0  0
  -30.1060  -15.5343   21.5858 N   0  0  0  0  0  0  0  0  0  0  0  0
  -36.5824  -27.4489   24.8572 N   0  0  0  0  0  0  0  0  0  0  0  0
  -38.6038  -23.4898   30.0244 N   0  0  0  0  0  0  0  0  0  0  0  0
  -30.3803  -17.7307   26.4298 N   0  3  1  0  0  0  0  0  0  0  0  0
  -37.0561  -23.2308   33.2810 N   0  3  0  0  0  0  0  0  0  0  0  0
  -22.6512  -13.6637   22.5722 O   0  0  0  0  0  0  0  0  0  0  0  0
  -36.9633  -25.1680   25.1304 O   0  0  0  0  0  0  0  0  0  0  0  0
  -39.0106  -25.7006   28.2480 O   0  0  0  0  0  0  0  0  0  0  0  0
  -36.7019  -22.3167   30.6437 O   0  0  0  0  0  0  0  0  0  0  0  0
  -31.8543  -14.8133   20.2422 O   0  0  0  0  0  0  0  0  0  0  0  0
  -21.4952   -6.9964   21.4972 O   0  0  0  0  0  0  0  0  0  0  0  0
  -30.9591  -23.2998   27.1216 O   0  0  0  0  0  0  0  0  0  1  0  0
  -22.6093   -3.9312   25.9432 F   0  0  0  0  0  0  0  0  0  0  0  0
  -19.5654   -6.5360   23.4224 F   0  0  0  0  0  0  0  0  0  0  0  0
  -29.6400  -17.6485   23.1560 S   0  0  0  0  0  0  0  0  0  0  0  0
  1  2  1  0  0  0  0
  1  5  2  0  0  0  0
  2  6  2  0  0  0  0
  3  8  2  0  0  0  0
  3 17  1  0  0  0  0
  4  9  1  0  0  0  0
  4 17  2  0  0  0  0
  5 19  1  0  0  0  0
  6 21  1  0  0  0  0
  7 10  2  0  0  0  0
  7 20  1  0  0  0  0
  8 23  1  0  0  0  0
  9 23  2  0  0  0  0
 10 24  1  0  0  0  0
 11 12  2  0  0  0  0
 11 25  1  0  0  0  0
 12 26  1  0  0  0  0
 13 14  1  0  0  0  0
 13 30  2  0  0  0  0
 14 31  2  0  0  0  0
 15 22  1  0  0  0  0
 15 24  2  0  0  0  0
 16 26  2  0  0  0  0
 16 27  1  0  0  0  0
 17 28  1  0  0  0  0
 18 28  1  0  0  0  0
 18 29  2  0  0  0  0
 18 32  1  0  0  0  0
 19 21  2  0  0  0  0
 19 37  1  0  0  0  0
 20 22  2  0  0  0  0
 20 38  1  0  0  0  0
 21 51  1  0  0  0  0
 22 39  1  0  0  0  0
 23 91  1  0  0  0  0
 24 92  1  0  0  0  0
 25 27  2  0  0  0  0
 25 91  1  0  0  0  0
 26 93  1  0  0  0  0
 27 94  1  0  0  0  0
 28 74  2  0  0  0  0
 29 75  1  0  0  0  0
 29 79  1  0  0  0  0
 30 76  1  0  0  0  0
 30 95  1  0  0  0  0
 31 81  1  0  0  0  0
 31 95  1  0  0  0  0
 32 80  1  0  0  0  0
 32 86  2  0  0  0  0
 33 52  1  0  0  0  0
 33 82  1  0  0  0  0
 33 87  2  0  0  0  0
 34 69  1  0  0  0  0
 34 77  1  0  0  0  0
 34 88  2  0  0  0  0
 35 70  1  0  0  0  0
 35 83  1  0  0  0  0
 35 89  2  0  0  0  0
 36 78  1  0  0  0  0
 36 81  1  0  0  0  0
 36 90  2  0  0  0  0
 37 40  1  0  0  0  0
 38 52  1  0  0  0  0
 39 77  1  0  0  0  0
 40 42  1  0  0  0  0
 41 43  1  0  0  0  0
 41 46  1  0  0  0  0
 42 51  1  0  0  0  0
 43 53  1  0  0  0  0
 44 47  1  0  0  0  0
 44 55  1  0  0  0  0
 45 49  1  0  0  0  0
 45 56  1  0  0  0  0
 46 78  1  0  0  0  0
 47 76  1  0  0  0  0
 48 53  1  0  0  0  0
 48 78  1  0  0  0  0
 49 84  1  0  0  0  0
 50 56  1  0  0  0  0
 50 84  1  0  0  0  0
 51 82  1  0  0  0  0
 52 77  1  0  0  0  0
 53 75  1  0  0  0  0
 54 55  1  0  0  0  0
 54 71  1  0  0  0  0
 54 76  1  0  0  0  0
 55 57  1  0  0  0  0
 55 68  1  0  0  0  0
 56 58  1  0  0  0  0
 56 59  1  0  0  0  0
 60 70  1  0  0  0  0
 61 72  1  0  0  0  0
 62 72  1  0  0  0  0
 63 72  1  0  0  0  0
 64 73  1  0  0  0  0
 65 73  1  0  0  0  0
 66 73  1  0  0  0  0
 67 85  1  0  0  0  0
 68 92  1  0  0  0  0
 69 72  1  0  0  0  0
 69 83  1  0  0  0  0
 70 85  1  0  0  0  0
 71 73  1  0  0  0  0
 71 84  1  0  0  0  0
 74 75  1  0  0  0  0
M  CHG  2  84   1  85   1
M  ISO  4  36 100  68 101  81 100  92 101
M  END
> <Batch ID>
0145

> <Smiles>
CNC(C)C(=O)NC(C(=O)N1Cc2cc([101O:1][101CH2:1]C3(C)CCN(c4ccc([100NH:0][100C:0](=O)N5CCCC(n6nc(-c7ccc(Oc8ccc(F)cc8F)cc7)c(C(N)=O)c6N)C5)s4)C3C(N3CCC(C)(C)C3)C(C)(C)C)ccc2CC1C(=O)NC1CCCc2ccccc21)C(C)(C)C

> <Shape>
0.161

> <Color>
0.163

> <Negative vol penalty>
0.000

$$$$

  -OEChem-04052303073D

 83 91  0     1  0  0  0  0  0999 V2000
  -31.9592  -25.7143   19.6308 C   0  0  0  0  0  0  0  0  0  0  0  0
  -30.6988  -25.5731   19.0591 C   0  0  0  0  0  0  0  0  0  0  0  0
  -25.8357  -15.3318   18.9844 C   0  0  0  0  0  0  0  0  0  0  0  0
  -24.3285  -15.3785   20.8720 C   0  0  0  0  0  0  0  0  0  0  0  0
  -32.0806  -26.1555   20.9478 C   0  0  0  0  0  0  0  0  0  0  0  0
  -29.5589  -25.8719   19.8046 C   0  0  0  0  0  0  0  0  0  0  0  0
  -22.9264  -28.4750   19.0621 C   0  0  0  0  0  0  0  0  0  0  0  0
  -26.1401  -13.9988   19.2604 C   0  0  0  0  0  0  0  0  0  0  0  0
  -24.6329  -14.0455   21.1480 C   0  0  0  0  0  0  0  0  0  0  0  0
  -21.6045  -28.1593   19.3726 C   0  0  0  0  0  0  0  0  0  0  0  0
  -24.7394  -10.5478   22.1344 C   0  0  0  0  0  0  0  0  0  0  0  0
  -23.6815   -9.6879   22.4293 C   0  0  0  0  0  0  0  0  0  0  0  0
  -21.9388  -28.9890   21.6129 C   0  0  0  0  0  0  0  0  0  0  0  0
  -22.4254  -24.0684   23.4622 C   0  0  0  0  0  0  0  0  0  0  0  0
  -22.7127  -10.1365   20.2620 C   0  0  0  0  0  0  0  0  0  0  0  0
  -22.2314  -25.8829   24.7453 C   0  0  0  0  0  0  0  0  0  0  0  0
  -24.9300  -16.0216   19.7902 C   0  0  0  0  0  0  0  0  0  0  0  0
  -23.5880  -17.8818   18.6738 C   0  0  0  0  0  0  0  0  0  0  0  0
  -30.9420  -26.4691   21.7066 C   0  0  0  0  0  0  0  0  0  0  0  0
  -23.7691  -29.0410   20.0295 C   0  0  0  0  0  0  0  0  0  0  0  0
  -29.6651  -26.3164   21.1334 C   0  0  0  0  0  0  0  0  0  0  0  0
  -23.2703  -29.3134   21.3114 C   0  0  0  0  0  0  0  0  0  0  0  0
  -21.6744  -25.2520   23.6574 C   0  0  0  0  0  0  0  0  0  0  0  0
  -25.5387  -13.3557   20.3422 C   0  0  0  0  0  0  0  0  0  0  0  0
  -21.1113  -28.4136   20.6490 C   0  0  0  0  0  0  0  0  0  0  0  0
  -24.7839  -11.2021   20.9033 C   0  0  0  0  0  0  0  0  0  0  0  0
  -22.6682   -9.4822   21.4931 C   0  0  0  0  0  0  0  0  0  0  0  0
  -23.7706  -10.9964   19.9671 C   0  0  0  0  0  0  0  0  0  0  0  0
  -24.6156  -17.3987   19.5060 C   0  0  0  0  0  0  0  0  0  0  0  0
  -23.3881  -24.0605   24.4447 C   0  0  0  0  0  0  0  0  0  0  0  0
  -23.7086  -19.2485   18.7373 C   0  0  0  0  0  0  0  0  0  0  0  0
  -22.6117  -17.1597   17.9115 C   0  0  0  0  0  0  0  0  0  0  0  0
  -26.4747  -28.1546   21.4429 C   0  0  0  0  0  0  0  0  0  0  0  0
  -26.3249  -31.1312   22.7235 C   0  0  0  0  0  0  0  0  0  0  0  0
  -19.9767  -25.1117   21.8019 C   0  0  0  0  0  0  0  0  0  0  0  0
  -24.4056  -33.8093   23.6127 C   0  0  0  0  0  0  0  0  0  0  0  0
  -26.0019  -22.9527   22.8447 C   0  0  0  0  0  0  0  0  0  0  0  0
  -31.1213  -26.8971   23.1417 C   0  0  0  0  0  0  0  0  0  0  0  0
  -25.1849  -29.4005   19.6708 C   0  0  0  0  0  0  0  0  0  0  0  0
  -24.1283  -29.9386   22.3798 C   0  0  0  0  0  0  0  0  0  0  0  0
  -29.8794  -27.5510   23.7420 C   0  0  0  0  0  0  0  0  0  0  0  0
  -26.9575  -22.6928   19.4248 C   0  0  0  0  0  0  0  0  0  0  0  0
  -28.6345  -26.7320   23.4162 C   0  0  0  0  0  0  0  0  0  0  0  0
  -26.3729  -21.3501   18.9827 C   0  0  0  0  0  0  0  0  0  0  0  0
  -27.4597  -22.6426   20.8661 C   0  0  0  0  0  0  0  0  0  0  0  0
  -25.8845  -20.8265   21.4088 C   0  0  0  0  0  0  0  0  0  0  0  0
  -28.4059  -26.6543   21.9018 C   0  0  1  0  0  0  0  0  0  0  0  0
  -26.1024  -29.4994   20.8857 C   0  0  1  0  0  0  0  0  0  0  0  0
  -25.3139  -20.8439   19.9804 C   0  0  2  0  0  0  0  0  0  0  0  0
  -24.5606  -36.0789   24.6721 C   0  0  0  0  0  0  0  0  0  0  0  0
  -18.0389  -27.5091   19.4695 C   0  0  0  0  0  0  0  0  0  0  0  0
  -26.6017  -29.8282   25.4686 C   0  0  0  0  0  0  0  0  0  0  0  0
  -25.8073  -31.9720   26.4891 C   0  0  0  0  0  0  0  0  0  0  0  0
  -27.9258  -31.9291   25.1727 C   0  0  0  0  0  0  0  0  0  0  0  0
  -23.3947  -35.1450   21.1729 C   0  0  0  0  0  0  0  0  0  0  0  0
  -24.4671  -23.1234   24.7875 C   0  0  0  0  0  0  0  0  0  0  0  0
  -18.8114  -25.9539   21.2918 C   0  0  0  0  0  0  0  0  0  0  0  0
  -25.7128  -31.7307   23.9664 C   0  0  1  0  0  0  0  0  0  0  0  0
  -24.5775  -35.2975   23.3675 C   0  0  2  0  0  0  0  0  0  0  0  0
  -19.2355  -27.0031   20.2641 C   0  0  2  0  0  0  0  0  0  1  0  0
  -26.4960  -31.3514   25.2549 C   0  0  0  0  0  0  0  0  0  0  0  0
  -25.3360  -18.3789   20.0576 N   0  0  0  0  0  0  0  0  0  0  0  0
  -24.7604  -19.4915   19.5710 N   0  0  0  0  0  0  0  0  0  0  0  0
  -25.5075  -30.2661   21.9823 N   0  0  0  0  0  0  0  0  0  0  0  0
  -26.4072  -22.1559   21.7613 N   0  0  0  0  0  0  0  0  0  0  0  0
  -23.0166  -20.2541   18.1608 N   0  0  0  0  0  0  0  0  0  0  0  0
  -22.6292  -15.7591   17.9592 N   0  0  0  0  0  0  0  0  0  0  0  0
  -20.5704  -25.7192   22.9052 N   0  0  0  0  0  0  0  0  0  0  0  0
  -27.8305  -27.8892   21.4135 N   0  0  0  0  0  0  0  0  0  0  0  0
  -25.6203  -33.1663   23.7242 N   0  0  0  0  0  0  0  0  0  0  0  0
  -24.9947  -22.4197   23.6398 N   0  0  0  0  0  0  0  0  0  0  0  0
  -23.4801  -35.8095   22.4988 N   0  3  0  0  0  0  0  0  0  0  0  0
  -21.7596  -17.7390   17.1960 O   0  0  0  0  0  0  0  0  0  0  0  0
  -25.5971  -27.4132   21.8693 O   0  0  0  0  0  0  0  0  0  0  0  0
  -27.4831  -31.4253   22.4175 O   0  0  0  0  0  0  0  0  0  0  0  0
  -20.2992  -24.0534   21.2725 O   0  0  0  0  0  0  0  0  0  0  0  0
  -23.3039  -33.2715   23.7006 O   0  0  0  0  0  0  0  0  0  0  0  0
  -26.4970  -24.0596   23.0826 O   0  0  0  0  0  0  0  0  0  0  0  0
  -23.2767  -25.1631   25.2310 O   0  0  0  0  0  0  0  0  0  0  0  0
  -25.8353  -12.0549   20.6116 O   0  0  0  0  0  0  0  0  0  0  0  0
  -19.8215  -28.1058   20.9549 O   0  0  0  0  0  0  0  0  0  1  0  0
  -21.6531   -8.6552   21.7759 F   0  0  0  0  0  0  0  0  0  0  0  0
  -23.8085  -11.6213   18.7822 F   0  0  0  0  0  0  0  0  0  0  0  0
  1  2  1  0  0  0  0
  1  5  2  0  0  0  0
  2  6  2  0  0  0  0
  3  8  2  0  0  0  0
  3 17  1  0  0  0  0
  4  9  1  0  0  0  0
  4 17  2  0  0  0  0
  5 19  1  0  0  0  0
  6 21  1  0  0  0  0
  7 10  2  0  0  0  0
  7 20  1  0  0  0  0
  8 24  1  0  0  0  0
  9 24  2  0  0  0  0
 10 25  1  0  0  0  0
 11 12  2  0  0  0  0
 11 26  1  0  0  0  0
 12 27  1  0  0  0  0
 13 22  1  0  0  0  0
 13 25  2  0  0  0  0
 14 23  1  0  0  0  0
 14 30  2  0  0  0  0
 15 27  2  0  0  0  0
 15 28  1  0  0  0  0
 16 23  2  0  0  0  0
 16 79  1  0  0  0  0
 17 29  1  0  0  0  0
 18 29  1  0  0  0  0
 18 31  2  0  0  0  0
 18 32  1  0  0  0  0
 19 21  2  0  0  0  0
 19 38  1  0  0  0  0
 20 22  2  0  0  0  0
 20 39  1  0  0  0  0
 21 47  1  0  0  0  0
 22 40  1  0  0  0  0
 23 68  1  0  0  0  0
 24 80  1  0  0  0  0
 25 81  1  0  0  0  0
 26 28  2  0  0  0  0
 26 80  1  0  0  0  0
 27 82  1  0  0  0  0
 28 83  1  0  0  0  0
 29 62  2  0  0  0  0
 30 56  1  0  0  0  0
 30 79  1  0  0  0  0
 31 63  1  0  0  0  0
 31 66  1  0  0  0  0
 32 67  1  0  0  0  0
 32 73  2  0  0  0  0
 33 48  1  0  0  0  0
 33 69  1  0  0  0  0
 33 74  2  0  0  0  0
 34 58  1  0  0  0  0
 34 64  1  0  0  0  0
 34 75  2  0  0  0  0
 35 57  1  0  0  0  0
 35 68  1  0  0  0  0
 35 76  2  0  0  0  0
 36 59  1  0  0  0  0
 36 70  1  0  0  0  0
 36 77  2  0  0  0  0
 37 65  1  0  0  0  0
 37 71  1  0  0  0  0
 37 78  2  0  0  0  0
 38 41  1  0  0  0  0
 39 48  1  0  0  0  0
 40 64  1  0  0  0  0
 41 43  1  0  0  0  0
 42 44  1  0  0  0  0
 42 45  1  0  0  0  0
 43 47  1  0  0  0  0
 44 49  1  0  0  0  0
 45 65  1  0  0  0  0
 46 49  1  0  0  0  0
 46 65  1  0  0  0  0
 47 69  1  0  0  0  0
 48 64  1  0  0  0  0
 49 63  1  0  0  0  0
 50 59  1  0  0  0  0
 51 60  1  0  0  0  0
 52 61  1  0  0  0  0
 53 61  1  0  0  0  0
 54 61  1  0  0  0  0
 55 72  1  0  0  0  0
 56 71  1  0  0  0  0
 57 60  1  0  0  0  0
 58 61  1  0  0  0  0
 58 70  1  0  0  0  0
 59 72  1  0  0  0  0
 60 81  1  0  0  0  0
 62 63  1  0  0  0  0
M  CHG  1  72   1
M  ISO  4  37 100  60 101  71 100  81 101
M  END
> <Batch ID>
0145

> <Smiles>
CNC(C)C(=O)NC(C(=O)N1Cc2cc([101O:1][101CH:1](C)CC(=O)Nc3coc(C[100NH:0][100C:0](=O)N4CCCC(n5nc(-c6ccc(Oc7ccc(F)cc7F)cc6)c(C(N)=O)c5N)C4)c3)ccc2CC1C(=O)NC1CCCc2ccccc21)C(C)(C)C

> <Shape>
0.258

> <Color>
0.065

> <Negative vol penalty>
0.000

$$$$

  -OEChem-04052303073D

 87 96  0     1  0  0  0  0  0999 V2000
  -23.9769  -18.8886   25.4479 C   0  0  0  0  0  0  0  0  0  0  0  0
  -25.0736  -19.5894   24.9563 C   0  0  0  0  0  0  0  0  0  0  0  0
  -23.0738   -9.8647   20.1948 C   0  0  0  0  0  0  0  0  0  0  0  0
  -23.7478  -10.1523   22.4970 C   0  0  0  0  0  0  0  0  0  0  0  0
  -29.6979  -19.4532   21.6953 C   0  0  0  0  0  0  0  0  0  0  0  0
  -31.3916  -19.0343   20.0240 C   0  0  0  0  0  0  0  0  0  0  0  0
  -22.6854  -19.3424   25.1834 C   0  0  0  0  0  0  0  0  0  0  0  0
  -24.8792  -20.7440   24.1990 C   0  0  0  0  0  0  0  0  0  0  0  0
  -27.9708  -24.5121   25.5733 C   0  0  0  0  0  0  0  0  0  0  0  0
  -29.5144  -18.0796   21.8537 C   0  0  0  0  0  0  0  0  0  0  0  0
  -31.2081  -17.6607   20.1824 C   0  0  0  0  0  0  0  0  0  0  0  0
  -22.3079   -8.7567   20.5574 C   0  0  0  0  0  0  0  0  0  0  0  0
  -22.9819   -9.0444   22.8597 C   0  0  0  0  0  0  0  0  0  0  0  0
  -29.2896  -24.4491   25.1256 C   0  0  0  0  0  0  0  0  0  0  0  0
  -19.7246   -8.3498   23.4323 C   0  0  0  0  0  0  0  0  0  0  0  0
  -18.9241   -8.4612   24.5692 C   0  0  0  0  0  0  0  0  0  0  0  0
  -28.7622  -26.0172   23.3700 C   0  0  0  0  0  0  0  0  0  0  0  0
  -20.1149   -6.6224   25.5879 C   0  0  0  0  0  0  0  0  0  0  0  0
  -23.7938  -10.5624   21.1646 C   0  0  0  0  0  0  0  0  0  0  0  0
  -30.6365  -19.9306   20.7805 C   0  0  0  0  0  0  0  0  0  0  0  0
  -24.1689  -13.0506   20.7448 C   0  0  0  0  0  0  0  0  0  0  0  0
  -22.4754  -20.5085   24.4306 C   0  0  0  0  0  0  0  0  0  0  0  0
  -27.0335  -25.3212   24.9150 C   0  0  0  0  0  0  0  0  0  0  0  0
  -23.5837  -21.2131   23.9230 C   0  0  0  0  0  0  0  0  0  0  0  0
  -27.4327  -26.0908   23.8129 C   0  0  0  0  0  0  0  0  0  0  0  0
  -30.2695  -17.1833   21.0972 C   0  0  0  0  0  0  0  0  0  0  0  0
  -22.2619   -8.3466   21.8898 C   0  0  0  0  0  0  0  0  0  0  0  0
  -29.6848  -25.1995   24.0220 C   0  0  0  0  0  0  0  0  0  0  0  0
  -20.7201   -7.3746   23.3732 C   0  0  0  0  0  0  0  0  0  0  0  0
  -19.1193   -7.5976   25.6470 C   0  0  0  0  0  0  0  0  0  0  0  0
  -20.9153   -6.5109   24.4509 C   0  0  0  0  0  0  0  0  0  0  0  0
  -24.5856  -11.7067   20.7905 C   0  0  0  0  0  0  0  0  0  0  0  0
  -25.2823  -13.7415   20.3334 C   0  0  0  0  0  0  0  0  0  0  0  0
  -30.8304  -21.3820   20.6129 C   0  0  0  0  0  0  0  0  0  0  0  0
  -22.8897  -13.6232   21.0473 C   0  0  0  0  0  0  0  0  0  0  0  0
  -24.3129  -24.7913   23.3590 C   0  0  0  0  0  0  0  0  0  0  0  0
  -24.1802  -28.0314   23.2806 C   0  0  0  0  0  0  0  0  0  0  0  0
  -25.8540  -31.0033   23.3973 C   0  0  0  0  0  0  0  0  0  0  0  0
  -30.7499  -14.7637   20.5864 C   0  0  0  0  0  0  0  0  0  0  0  0
  -21.0598  -20.9338   24.1307 C   0  0  0  0  0  0  0  0  0  0  0  0
  -25.6212  -25.3987   25.4267 C   0  0  0  0  0  0  0  0  0  0  0  0
  -26.4700  -26.9906   23.0836 C   0  0  0  0  0  0  0  0  0  0  0  0
  -20.9482  -22.3738   23.6365 C   0  0  0  0  0  0  0  0  0  0  0  0
  -29.6968  -12.0811   18.4955 C   0  0  0  0  0  0  0  0  0  0  0  0
  -21.9951  -22.6523   22.5625 C   0  0  0  0  0  0  0  0  0  0  0  0
  -28.2389  -11.8551   18.9025 C   0  0  0  0  0  0  0  0  0  0  0  0
  -33.4829  -22.4103   22.8622 C   0  0  0  0  0  0  0  0  0  0  0  0
  -30.5691  -12.4517   19.6937 C   0  0  0  0  0  0  0  0  0  0  0  0
  -32.5445  -21.3154   22.3666 C   0  0  0  0  0  0  0  0  0  0  0  0
  -28.6205  -13.3556   20.8999 C   0  0  0  0  0  0  0  0  0  0  0  0
  -23.4142  -22.4836   23.1185 C   0  0  1  0  0  0  0  0  0  0  0  0
  -24.6262  -25.8609   24.3667 C   0  0  1  0  0  0  0  0  0  0  0  0
  -27.6902  -13.0434   19.7163 C   0  0  2  0  0  0  0  0  0  0  0  0
  -31.9580  -23.4728   21.3152 C   0  0  1  0  0  0  0  0  0  0  0  0
  -32.6996  -23.7232   22.6575 C   0  0  2  0  0  0  0  0  0  0  0  0
  -32.7485  -23.7891   20.0495 C   0  0  0  0  0  0  0  0  0  0  0  0
  -33.6421  -24.9301   22.6475 C   0  0  0  0  0  0  0  0  0  0  0  0
  -25.4796  -33.4813   23.2692 C   0  0  0  0  0  0  0  0  0  0  0  0
  -23.8246  -27.8189   20.2577 C   0  0  0  0  0  0  0  0  0  0  0  0
  -24.4065  -30.2481   20.0885 C   0  0  0  0  0  0  0  0  0  0  0  0
  -22.3809  -29.5382   21.3596 C   0  0  0  0  0  0  0  0  0  0  0  0
  -26.9195  -31.4224   26.1264 C   0  0  0  0  0  0  0  0  0  0  0  0
  -31.6725  -23.9142   23.7919 C   0  0  0  0  0  0  0  0  0  1  0  0
  -24.6724  -29.0990   22.3335 C   0  0  1  0  0  0  0  0  0  0  0  0
  -25.5963  -32.2741   24.1867 C   0  0  2  0  0  0  0  0  0  0  0  0
  -23.8390  -29.1577   21.0222 C   0  0  0  0  0  0  0  0  0  0  0  0
  -25.8639  -11.5509   20.4362 N   0  0  0  0  0  0  0  0  0  0  0  0
  -26.2601  -12.8059   20.1639 N   0  0  0  0  0  0  0  0  0  0  0  0
  -31.7231  -22.0085   21.3604 N   0  0  0  0  0  0  0  0  0  0  0  0
  -25.0988  -27.0274   23.6182 N   0  0  0  0  0  0  0  0  0  0  0  0
  -29.9897  -13.5876   20.4140 N   0  0  0  0  0  0  0  0  0  0  0  0
  -25.5106  -15.0520   20.1035 N   0  0  0  0  0  0  0  0  0  0  0  0
  -21.8555  -12.7700   21.4559 N   0  0  0  0  0  0  0  0  0  0  0  0
  -30.0832  -15.7879   21.2580 N   0  0  0  0  0  0  0  0  0  0  0  0
  -23.7879  -23.6371   23.9085 N   0  0  0  0  0  0  0  0  0  0  0  0
  -24.6814  -30.3451   23.0920 N   0  0  0  0  0  0  0  0  0  0  0  0
  -30.1059  -22.0382   19.7115 N   0  3  0  0  0  0  0  0  0  0  0  0
  -26.7076  -32.5206   25.1486 N   0  3  0  0  0  0  0  0  0  0  0  0
  -22.6656  -14.8529   20.9421 O   0  0  0  0  0  0  0  0  0  0  0  0
  -24.5299  -24.9983   22.1709 O   0  0  0  0  0  0  0  0  0  0  0  0
  -23.0257  -28.0903   23.7109 O   0  0  0  0  0  0  0  0  0  0  0  0
  -26.9823  -30.6335   23.0799 O   0  0  0  0  0  0  0  0  0  0  0  0
  -31.8975  -14.8651   20.1451 O   0  0  0  0  0  0  0  0  0  0  0  0
  -21.5145   -7.2657   22.2441 O   0  0  0  0  0  0  0  0  0  0  0  0
  -30.9713  -25.1393   23.5825 O   0  0  0  0  0  0  0  0  0  1  0  0
  -18.3516   -7.7057   26.7392 F   0  0  0  0  0  0  0  0  0  0  0  0
  -21.8709   -5.5728   24.4004 F   0  0  0  0  0  0  0  0  0  0  0  0
  1  2  1  0  0  0  0
  1  7  2  0  0  0  0
  2  8  2  0  0  0  0
  3 12  2  0  0  0  0
  3 19  1  0  0  0  0
  4 13  1  0  0  0  0
  4 19  2  0  0  0  0
  5 10  2  0  0  0  0
  5 20  1  0  0  0  0
  6 11  1  0  0  0  0
  6 20  2  0  0  0  0
  7 22  1  0  0  0  0
  8 24  1  0  0  0  0
  9 14  2  0  0  0  0
  9 23  1  0  0  0  0
 10 26  1  0  0  0  0
 11 26  2  0  0  0  0
 12 27  1  0  0  0  0
 13 27  2  0  0  0  0
 14 28  1  0  0  0  0
 15 16  2  0  0  0  0
 15 29  1  0  0  0  0
 16 30  1  0  0  0  0
 17 25  1  0  0  0  0
 17 28  2  0  0  0  0
 18 30  2  0  0  0  0
 18 31  1  0  0  0  0
 19 32  1  0  0  0  0
 20 34  1  0  0  0  0
 21 32  1  0  0  0  0
 21 33  2  0  0  0  0
 21 35  1  0  0  0  0
 22 24  2  0  0  0  0
 22 40  1  0  0  0  0
 23 25  2  0  0  0  0
 23 41  1  0  0  0  0
 24 51  1  0  0  0  0
 25 42  1  0  0  0  0
 26 74  1  0  0  0  0
 27 84  1  0  0  0  0
 28 85  1  0  0  0  0
 29 31  2  0  0  0  0
 29 84  1  0  0  0  0
 30 86  1  0  0  0  0
 31 87  1  0  0  0  0
 32 67  2  0  0  0  0
 33 68  1  0  0  0  0
 33 72  1  0  0  0  0
 34 69  1  0  0  0  0
 34 77  2  0  0  0  0
 35 73  1  0  0  0  0
 35 79  2  0  0  0  0
 36 52  1  0  0  0  0
 36 75  1  0  0  0  0
 36 80  2  0  0  0  0
 37 64  1  0  0  0  0
 37 70  1  0  0  0  0
 37 81  2  0  0  0  0
 38 65  1  0  0  0  0
 38 76  1  0  0  0  0
 38 82  2  0  0  0  0
 39 71  1  0  0  0  0
 39 74  1  0  0  0  0
 39 83  2  0  0  0  0
 40 43  1  0  0  0  0
 41 52  1  0  0  0  0
 42 70  1  0  0  0  0
 43 45  1  0  0  0  0
 44 46  1  0  0  0  0
 44 48  1  0  0  0  0
 45 51  1  0  0  0  0
 46 53  1  0  0  0  0
 47 49  1  0  0  0  0
 47 55  1  0  0  0  0
 48 71  1  0  0  0  0
 49 69  1  0  0  0  0
 50 53  1  0  0  0  0
 50 71  1  0  0  0  0
 51 75  1  0  0  0  0
 52 70  1  0  0  0  0
 53 68  1  0  0  0  0
 54 55  1  0  0  0  0
 54 56  1  0  0  0  0
 54 69  1  0  0  0  0
 55 57  1  0  0  0  0
 55 63  1  0  0  0  0
 58 65  1  0  0  0  0
 59 66  1  0  0  0  0
 60 66  1  0  0  0  0
 61 66  1  0  0  0  0
 62 78  1  0  0  0  0
 63 85  1  0  0  0  0
 64 66  1  0  0  0  0
 64 76  1  0  0  0  0
 65 78  1  0  0  0  0
 67 68  1  0  0  0  0
M  CHG  2  77   1  78   1
M  ISO  4  39 100  63 101  74 100  85 101
M  END
> <Batch ID>
0145

> <Smiles>
CNC(C)C(=O)NC(C(=O)N1Cc2cc([101O:1][101CH2:1]C3(C)CCN(C(=N)c4ccc([100NH:0][100C:0](=O)N5CCCC(n6nc(-c7ccc(Oc8ccc(F)cc8F)cc7)c(C(N)=O)c6N)C5)cc4)C3C)ccc2CC1C(=O)NC1CCCc2ccccc21)C(C)(C)C

> <Shape>
0.260

> <Color>
0.184

> <Negative vol penalty>
0.000

$$$$

  -OEChem-04052303073D

 88 96  0     1  0  0  0  0  0999 V2000
  -28.3270  -33.8612   22.7426 C   0  0  0  0  0  0  0  0  0  0  0  0
  -28.3252  -32.5894   23.3064 C   0  0  0  0  0  0  0  0  0  0  0  0
  -24.8657  -13.6895   21.3461 C   0  0  0  0  0  0  0  0  0  0  0  0
  -26.3529  -13.3992   19.4643 C   0  0  0  0  0  0  0  0  0  0  0  0
  -27.1347  -34.4223   22.2871 C   0  0  0  0  0  0  0  0  0  0  0  0
  -27.1308  -31.8783   23.4160 C   0  0  0  0  0  0  0  0  0  0  0  0
  -27.6137  -27.0397   22.0017 C   0  0  0  0  0  0  0  0  0  0  0  0
  -24.1558  -12.5524   20.9605 C   0  0  0  0  0  0  0  0  0  0  0  0
  -25.6430  -12.2620   19.0787 C   0  0  0  0  0  0  0  0  0  0  0  0
  -28.2085  -26.1667   22.9115 C   0  0  0  0  0  0  0  0  0  0  0  0
  -22.1714   -9.5197   20.6769 C   0  0  0  0  0  0  0  0  0  0  0  0
  -21.8280   -8.6020   21.6696 C   0  0  0  0  0  0  0  0  0  0  0  0
  -30.2029  -21.4605   21.9017 C   0  0  0  0  0  0  0  0  0  0  0  0
  -32.1868  -20.3912   21.0312 C   0  0  0  0  0  0  0  0  0  0  0  0
  -26.0270  -25.3721   23.5661 C   0  0  0  0  0  0  0  0  0  0  0  0
  -32.0273  -20.9076   23.3860 C   0  0  0  0  0  0  0  0  0  0  0  0
  -24.1672   -8.2789   22.1802 C   0  0  0  0  0  0  0  0  0  0  0  0
  -25.9642  -14.1129   20.5980 C   0  0  0  0  0  0  0  0  0  0  0  0
  -30.9174  -20.9320   20.8267 C   0  0  0  0  0  0  0  0  0  0  0  0
  -27.8056  -15.3455   21.8619 C   0  0  0  0  0  0  0  0  0  0  0  0
  -25.9266  -33.7138   22.3824 C   0  0  0  0  0  0  0  0  0  0  0  0
  -26.2182  -27.0933   21.8748 C   0  0  0  0  0  0  0  0  0  0  0  0
  -25.9209  -32.4309   22.9626 C   0  0  0  0  0  0  0  0  0  0  0  0
  -25.4170  -26.2448   22.6521 C   0  0  0  0  0  0  0  0  0  0  0  0
  -30.7579  -21.4484   23.1814 C   0  0  0  0  0  0  0  0  0  0  0  0
  -24.5444  -11.8387   19.8269 C   0  0  0  0  0  0  0  0  0  0  0  0
  -27.4151  -25.3348   23.6960 C   0  0  0  0  0  0  0  0  0  0  0  0
  -23.5128   -9.8170   20.4358 C   0  0  0  0  0  0  0  0  0  0  0  0
  -22.8258   -7.9816   22.4213 C   0  0  0  0  0  0  0  0  0  0  0  0
  -32.7418  -20.3791   22.3109 C   0  0  0  0  0  0  0  0  0  0  0  0
  -24.5106   -9.1966   21.1875 C   0  0  0  0  0  0  0  0  0  0  0  0
  -26.6976  -15.2878   20.9954 C   0  0  0  0  0  0  0  0  0  0  0  0
  -28.1321  -16.6787   21.9133 C   0  0  0  0  0  0  0  0  0  0  0  0
  -30.3403  -20.9467   19.4918 C   0  0  0  0  0  0  0  0  0  0  0  0
  -28.4794  -14.2887   22.5581 C   0  0  0  0  0  0  0  0  0  0  0  0
  -28.9964  -21.5152   19.2390 C   0  0  0  0  0  0  0  0  0  0  0  0
  -24.0090  -29.3335   22.3273 C   0  0  0  0  0  0  0  0  0  0  0  0
  -22.0311  -27.0834   21.0834 C   0  0  0  0  0  0  0  0  0  0  0  0
  -30.4317  -22.0530   25.6011 C   0  0  0  0  0  0  0  0  0  0  0  0
  -21.4154  -23.7813   20.4804 C   0  0  0  0  0  0  0  0  0  0  0  0
  -24.6555  -34.3806   21.9195 C   0  0  0  0  0  0  0  0  0  0  0  0
  -25.5931  -28.0214   20.8696 C   0  0  0  0  0  0  0  0  0  0  0  0
  -23.9151  -26.2492   22.5395 C   0  0  0  0  0  0  0  0  0  0  0  0
  -23.4925  -33.4101   21.7304 C   0  0  0  0  0  0  0  0  0  0  0  0
  -25.6467  -20.7548   20.2674 C   0  0  0  0  0  0  0  0  0  0  0  0
  -23.3826  -32.4690   22.9259 C   0  0  0  0  0  0  0  0  0  0  0  0
  -25.7046  -19.2603   20.5819 C   0  0  0  0  0  0  0  0  0  0  0  0
  -26.5688  -21.1174   19.1079 C   0  0  0  0  0  0  0  0  0  0  0  0
  -28.0527  -19.2003   19.6290 C   0  0  0  0  0  0  0  0  0  0  0  0
  -24.6495  -31.6181   23.0764 C   0  0  1  0  0  0  0  0  0  0  0  0
  -24.1406  -28.3594   21.1909 C   0  0  1  0  0  0  0  0  0  0  0  0
  -27.1551  -18.8005   20.8130 C   0  0  2  0  0  0  0  0  0  0  0  0
  -28.1417  -26.1829   27.7856 C   0  0  0  0  0  0  0  0  0  0  0  0
  -20.2394  -21.7606   19.5688 C   0  0  0  0  0  0  0  0  0  0  0  0
  -20.2782  -27.4371   23.5557 C   0  0  0  0  0  0  0  0  0  0  0  0
  -19.1504  -25.2775   22.9793 C   0  0  0  0  0  0  0  0  0  0  0  0
  -19.0183  -27.2099   21.4073 C   0  0  0  0  0  0  0  0  0  0  0  0
  -30.7911  -24.7180   27.1146 C   0  0  0  0  0  0  0  0  0  0  0  0
  -22.9280  -23.9037   17.9396 C   0  0  0  0  0  0  0  0  0  0  0  0
  -29.3735  -22.7022   26.4855 C   0  0  0  0  0  0  0  0  0  0  0  0
  -28.2861  -24.6873   27.5291 C   0  0  0  0  0  0  0  0  0  0  0  0
  -29.2365  -24.8856   25.1577 C   0  0  0  0  0  0  0  0  0  1  0  0
  -21.2011  -25.9577   21.6515 C   0  0  1  0  0  0  0  0  0  0  0  0
  -20.9639  -23.0533   19.2272 C   0  0  2  0  0  0  0  0  0  0  0  0
  -19.9402  -26.4716   22.4022 C   0  0  0  0  0  0  0  0  0  0  0  0
  -29.4303  -24.2575   26.5573 C   0  0  1  0  0  0  0  0  0  0  0  0
  -26.3438  -16.4887   20.5300 N   0  0  0  0  0  0  0  0  0  0  0  0
  -30.9528  -20.4717   18.4410 N   0  0  0  0  0  0  0  0  0  0  0  0
  -27.2346  -17.3136   21.1062 N   0  0  0  0  0  0  0  0  0  0  0  0
  -27.9283  -20.6352   19.3430 N   0  0  0  0  0  0  0  0  0  0  0  0
  -23.3509  -27.1788   21.5469 N   0  0  0  0  0  0  0  0  0  0  0  0
  -29.0965  -17.3580   22.5697 N   0  0  0  0  0  0  0  0  0  0  0  0
  -28.0139  -12.9770   22.3935 N   0  0  0  0  0  0  0  0  0  0  0  0
  -30.0333  -21.9844   24.2724 N   0  0  0  0  0  0  0  0  0  0  0  0
  -24.6505  -30.5384   22.1127 N   0  0  0  0  0  0  0  0  0  0  0  0
  -20.9095  -25.0627   20.5369 N   0  0  0  0  0  0  0  0  0  0  0  0
  -22.1369  -22.7221   18.3696 N   0  3  0  0  0  0  0  0  0  0  0  0
  -29.4550  -14.5032   23.3169 O   0  0  0  0  0  0  0  0  0  0  0  0
  -28.9716  -22.7076   18.9633 O   0  0  0  0  0  0  0  0  0  0  0  0
  -23.3714  -29.0160   23.3245 O   0  0  0  0  0  0  0  0  0  0  0  0
  -21.5293  -27.8456   20.2534 O   0  0  0  0  0  0  0  0  0  0  0  0
  -31.4896  -21.6598   26.0852 O   0  0  0  0  0  0  0  0  0  0  0  0
  -22.1410  -23.2636   21.3266 O   0  0  0  0  0  0  0  0  0  0  0  0
  -23.8521  -10.7289   19.4504 O   0  0  0  0  0  0  0  0  0  0  0  0
  -27.9931  -24.4822   24.5853 O   0  0  0  0  0  0  0  0  0  1  0  0
  -22.4958   -7.1015   23.3756 F   0  0  0  0  0  0  0  0  0  0  0  0
  -33.9620  -19.8625   22.5069 F   0  0  0  0  0  0  0  0  0  0  0  0
  -25.8009   -9.4790   20.9612 F   0  0  0  0  0  0  0  0  0  0  0  0
  1  2  1  0  0  0  0
  1  5  2  0  0  0  0
  2  6  2  0  0  0  0
  3  8  2  0  0  0  0
  3 18  1  0  0  0  0
  4  9  1  0  0  0  0
  4 18  2  0  0  0  0
  5 21  1  0  0  0  0
  6 23  1  0  0  0  0
  7 10  2  0  0  0  0
  7 22  1  0  0  0  0
  8 26  1  0  0  0  0
  9 26  2  0  0  0  0
 10 27  1  0  0  0  0
 11 12  2  0  0  0  0
 11 28  1  0  0  0  0
 12 29  1  0  0  0  0
 13 19  1  0  0  0  0
 13 25  2  0  0  0  0
 14 19  2  0  0  0  0
 14 30  1  0  0  0  0
 15 24  1  0  0  0  0
 15 27  2  0  0  0  0
 16 25  1  0  0  0  0
 16 30  2  0  0  0  0
 17 29  2  0  0  0  0
 17 31  1  0  0  0  0
 18 32  1  0  0  0  0
 19 34  1  0  0  0  0
 20 32  1  0  0  0  0
 20 33  2  0  0  0  0
 20 35  1  0  0  0  0
 21 23  2  0  0  0  0
 21 41  1  0  0  0  0
 22 24  2  0  0  0  0
 22 42  1  0  0  0  0
 23 50  1  0  0  0  0
 24 43  1  0  0  0  0
 25 74  1  0  0  0  0
 26 84  1  0  0  0  0
 27 85  1  0  0  0  0
 28 31  2  0  0  0  0
 28 84  1  0  0  0  0
 29 86  1  0  0  0  0
 30 87  1  0  0  0  0
 31 88  1  0  0  0  0
 32 67  2  0  0  0  0
 33 69  1  0  0  0  0
 33 72  1  0  0  0  0
 34 36  1  0  0  0  0
 34 68  2  0  0  0  0
 35 73  1  0  0  0  0
 35 78  2  0  0  0  0
 36 70  1  0  0  0  0
 36 79  2  0  0  0  0
 37 51  1  0  0  0  0
 37 75  1  0  0  0  0
 37 80  2  0  0  0  0
 38 63  1  0  0  0  0
 38 71  1  0  0  0  0
 38 81  2  0  0  0  0
 39 60  1  0  0  0  0
 39 74  1  0  0  0  0
 39 82  2  0  0  0  0
 40 64  1  0  0  0  0
 40 76  1  0  0  0  0
 40 83  2  0  0  0  0
 41 44  1  0  0  0  0
 42 51  1  0  0  0  0
 43 71  1  0  0  0  0
 44 46  1  0  0  0  0
 45 47  1  0  0  0  0
 45 48  1  0  0  0  0
 46 50  1  0  0  0  0
 47 52  1  0  0  0  0
 48 70  1  0  0  0  0
 49 52  1  0  0  0  0
 49 70  1  0  0  0  0
 50 75  1  0  0  0  0
 51 71  1  0  0  0  0
 52 69  1  0  0  0  0
 53 61  1  0  0  0  0
 54 64  1  0  0  0  0
 55 65  1  0  0  0  0
 56 65  1  0  0  0  0
 57 65  1  0  0  0  0
 58 66  1  0  0  0  0
 59 77  1  0  0  0  0
 60 66  1  0  0  0  0
 61 66  1  0  0  0  0
 62 66  1  0  0  0  0
 62 85  1  0  0  0  0
 63 65  1  0  0  0  0
 63 76  1  0  0  0  0
 64 77  1  0  0  0  0
 67 69  1  0  0  0  0
M  CHG  1  77   1
M  ISO  4  34 100  36 100  62 101  85 101
M  END
> <Batch ID>
0145

> <Smiles>
CCC(C)(CC(=O)Nc1cc(F)cc([100C:0](=N)[100C:0](=O)N2CCCC(n3nc(-c4ccc(Oc5ccc(F)cc5F)cc4)c(C(N)=O)c3N)C2)c1)[101CH2:1][101O:1]c1ccc2c(c1)CN(C(=O)C(NC(=O)C(C)NC)C(C)(C)C)C(C(=O)NC1CCCc3ccccc31)C2

> <Shape>
0.212

> <Color>
0.064

> <Negative vol penalty>
0.000

$$$$

  -OEChem-04052303073D

 84 93  0     1  0  0  0  0  0999 V2000
  -28.3403  -37.4617   20.9066 C   0  0  0  0  0  0  0  0  0  0  0  0
  -28.7553  -36.1426   20.7544 C   0  0  0  0  0  0  0  0  0  0  0  0
  -24.5800   -8.5088   21.4240 C   0  0  0  0  0  0  0  0  0  0  0  0
  -23.8441  -10.5237   22.5357 C   0  0  0  0  0  0  0  0  0  0  0  0
  -27.2547  -37.7591   21.7294 C   0  0  0  0  0  0  0  0  0  0  0  0
  -28.0856  -35.1202   21.4258 C   0  0  0  0  0  0  0  0  0  0  0  0
  -27.7786  -18.9968   21.5282 C   0  0  0  0  0  0  0  0  0  0  0  0
  -29.6502  -19.1842   20.0119 C   0  0  0  0  0  0  0  0  0  0  0  0
  -27.1047  -29.4198   19.4136 C   0  0  0  0  0  0  0  0  0  0  0  0
  -27.9711  -17.6170   21.5953 C   0  0  0  0  0  0  0  0  0  0  0  0
  -29.8428  -17.8043   20.0791 C   0  0  0  0  0  0  0  0  0  0  0  0
  -24.0424   -7.7421   22.4577 C   0  0  0  0  0  0  0  0  0  0  0  0
  -23.3064   -9.7569   23.5694 C   0  0  0  0  0  0  0  0  0  0  0  0
  -27.7599  -28.2135   19.6570 C   0  0  0  0  0  0  0  0  0  0  0  0
  -20.9928   -6.6380   23.4137 C   0  0  0  0  0  0  0  0  0  0  0  0
  -20.2465   -5.5123   23.0652 C   0  0  0  0  0  0  0  0  0  0  0  0
  -26.1470  -27.6907   21.3729 C   0  0  0  0  0  0  0  0  0  0  0  0
  -21.7967   -4.1097   24.2762 C   0  0  0  0  0  0  0  0  0  0  0  0
  -24.4810   -9.8997   21.4630 C   0  0  0  0  0  0  0  0  0  0  0  0
  -24.3874  -11.1058   19.2171 C   0  0  0  0  0  0  0  0  0  0  0  0
  -28.6181  -19.7805   20.7364 C   0  0  0  0  0  0  0  0  0  0  0  0
  -26.5654  -36.7389   22.4036 C   0  0  0  0  0  0  0  0  0  0  0  0
  -25.9703  -29.7762   20.1568 C   0  0  0  0  0  0  0  0  0  0  0  0
  -26.9907  -35.4045   22.2594 C   0  0  0  0  0  0  0  0  0  0  0  0
  -25.4778  -28.9009   21.1353 C   0  0  0  0  0  0  0  0  0  0  0  0
  -29.0032  -17.0207   20.8708 C   0  0  0  0  0  0  0  0  0  0  0  0
  -23.4055   -8.3661   23.5304 C   0  0  0  0  0  0  0  0  0  0  0  0
  -27.2828  -27.3500   20.6388 C   0  0  0  0  0  0  0  0  0  0  0  0
  -22.1411   -6.4995   24.1934 C   0  0  0  0  0  0  0  0  0  0  0  0
  -20.6484   -4.2481   23.4965 C   0  0  0  0  0  0  0  0  0  0  0  0
  -22.5431   -5.2354   24.6247 C   0  0  0  0  0  0  0  0  0  0  0  0
  -25.0367  -10.6923   20.3958 C   0  0  0  0  0  0  0  0  0  0  0  0
  -25.3372  -11.8287   18.5375 C   0  0  0  0  0  0  0  0  0  0  0  0
  -28.0762  -23.2313   19.0733 C   0  0  0  0  0  0  0  0  0  0  0  0
  -28.6288  -24.0727   19.9643 C   0  0  0  0  0  0  0  0  0  0  0  0
  -23.0458  -10.8586   18.7760 C   0  0  0  0  0  0  0  0  0  0  0  0
  -25.2434  -32.1509   22.1408 C   0  0  0  0  0  0  0  0  0  0  0  0
  -22.2905  -30.8120   22.0394 C   0  0  0  0  0  0  0  0  0  0  0  0
  -20.3861  -28.0348   21.4853 C   0  0  0  0  0  0  0  0  0  0  0  0
  -30.1755  -14.8697   20.2834 C   0  0  0  0  0  0  0  0  0  0  0  0
  -25.4272  -37.1143   23.3193 C   0  0  0  0  0  0  0  0  0  0  0  0
  -25.2593  -31.0689   19.8637 C   0  0  0  0  0  0  0  0  0  0  0  0
  -24.2518  -29.2276   21.9468 C   0  0  0  0  0  0  0  0  0  0  0  0
  -28.0561  -21.7385   19.2348 C   0  0  0  0  0  0  0  0  0  0  0  0
  -29.3190  -23.5772   21.2107 C   0  0  0  0  0  0  0  0  0  0  0  0
  -24.5376  -35.9338   23.7006 C   0  0  0  0  0  0  0  0  0  0  0  0
  -29.6137  -22.0734   21.1943 C   0  0  0  0  0  0  0  0  0  0  0  0
  -30.0789  -12.1723   17.9613 C   0  0  0  0  0  0  0  0  0  0  0  0
  -25.3875  -34.7355   24.1109 C   0  0  0  0  0  0  0  0  0  0  0  0
  -28.7133  -11.5280   18.2106 C   0  0  0  0  0  0  0  0  0  0  0  0
  -30.7154  -12.6719   19.2571 C   0  0  0  0  0  0  0  0  0  0  0  0
  -28.5025  -12.9162   20.3119 C   0  0  0  0  0  0  0  0  0  0  0  0
  -28.4086  -21.2815   20.6634 C   0  0  2  0  0  0  0  0  0  0  0  0
  -26.2743  -34.2653   22.9516 C   0  0  1  0  0  0  0  0  0  0  0  0
  -24.4144  -31.5646   21.0333 C   0  0  1  0  0  0  0  0  0  0  0  0
  -27.7932  -12.4559   19.0279 C   0  0  2  0  0  0  0  0  0  0  0  0
  -18.0061  -27.2399   21.5169 C   0  0  0  0  0  0  0  0  0  0  0  0
  -22.3633  -30.7225   25.0885 C   0  0  0  0  0  0  0  0  0  0  0  0
  -20.4572  -29.1009   25.0169 C   0  0  0  0  0  0  0  0  0  0  0  0
  -20.1633  -31.4089   24.1172 C   0  0  0  0  0  0  0  0  0  0  0  0
  -20.4517  -27.3591   18.6047 C   0  0  0  0  0  0  0  0  0  0  0  0
  -28.5916  -25.5607   19.7777 C   0  0  0  0  0  0  0  0  0  1  0  0
  -21.5714  -29.7478   22.8326 C   0  0  1  0  0  0  0  0  0  0  0  0
  -19.1240  -27.8255   20.6683 C   0  0  2  0  0  0  0  0  0  0  0  0
  -21.1631  -30.2394   24.2500 C   0  0  0  0  0  0  0  0  0  0  0  0
  -26.3012  -11.1171   20.4641 N   0  0  0  0  0  0  0  0  0  0  0  0
  -26.4542  -11.8049   19.3197 N   0  0  0  0  0  0  0  0  0  0  0  0
  -23.5953  -30.5061   21.6274 N   0  0  0  0  0  0  0  0  0  0  0  0
  -29.7879  -13.5484   19.9757 N   0  0  0  0  0  0  0  0  0  0  0  0
  -25.3175  -12.4759   17.3529 N   0  0  0  0  0  0  0  0  0  0  0  0
  -22.2024  -10.0970   19.5964 N   0  0  0  0  0  0  0  0  0  0  0  0
  -29.1992  -15.6190   20.9391 N   0  0  0  0  0  0  0  0  0  0  0  0
  -25.4976  -33.5017   21.9987 N   0  0  0  0  0  0  0  0  0  0  0  0
  -20.4516  -29.3097   22.0065 N   0  0  0  0  0  0  0  0  0  0  0  0
  -19.3893  -26.8959   19.5341 N   0  3  0  0  0  0  0  0  0  0  0  0
  -22.6129  -11.2861   17.6791 O   0  0  0  0  0  0  0  0  0  0  0  0
  -25.6229  -31.4314   23.0573 O   0  0  0  0  0  0  0  0  0  0  0  0
  -21.7131  -31.8728   21.7883 O   0  0  0  0  0  0  0  0  0  0  0  0
  -21.2278  -27.1542   21.6483 O   0  0  0  0  0  0  0  0  0  0  0  0
  -31.2813  -15.3129   19.9629 O   0  0  0  0  0  0  0  0  0  0  0  0
  -22.8806   -7.6182   24.5392 O   0  0  0  0  0  0  0  0  0  0  0  0
  -27.9207  -26.1722   20.8788 O   0  0  0  0  0  0  0  0  0  1  0  0
  -19.9308   -3.1674   23.1631 F   0  0  0  0  0  0  0  0  0  0  0  0
  -23.6447   -5.0962   25.3749 F   0  0  0  0  0  0  0  0  0  0  0  0
  1  2  1  0  0  0  0
  1  5  2  0  0  0  0
  2  6  2  0  0  0  0
  3 12  2  0  0  0  0
  3 19  1  0  0  0  0
  4 13  1  0  0  0  0
  4 19  2  0  0  0  0
  5 22  1  0  0  0  0
  6 24  1  0  0  0  0
  7 10  2  0  0  0  0
  7 21  1  0  0  0  0
  8 11  1  0  0  0  0
  8 21  2  0  0  0  0
  9 14  2  0  0  0  0
  9 23  1  0  0  0  0
 10 26  1  0  0  0  0
 11 26  2  0  0  0  0
 12 27  1  0  0  0  0
 13 27  2  0  0  0  0
 14 28  1  0  0  0  0
 15 16  2  0  0  0  0
 15 29  1  0  0  0  0
 16 30  1  0  0  0  0
 17 25  1  0  0  0  0
 17 28  2  0  0  0  0
 18 30  2  0  0  0  0
 18 31  1  0  0  0  0
 19 32  1  0  0  0  0
 20 32  1  0  0  0  0
 20 33  2  0  0  0  0
 20 36  1  0  0  0  0
 21 53  1  0  0  0  0
 22 24  2  0  0  0  0
 22 41  1  0  0  0  0
 23 25  2  0  0  0  0
 23 42  1  0  0  0  0
 24 54  1  0  0  0  0
 25 43  1  0  0  0  0
 26 72  1  0  0  0  0
 27 81  1  0  0  0  0
 28 82  1  0  0  0  0
 29 31  2  0  0  0  0
 29 81  1  0  0  0  0
 30 83  1  0  0  0  0
 31 84  1  0  0  0  0
 32 66  2  0  0  0  0
 33 67  1  0  0  0  0
 33 70  1  0  0  0  0
 34 35  2  0  0  0  0
 34 44  1  0  0  0  0
 35 45  1  0  0  0  0
 35 62  1  0  0  0  0
 36 71  1  0  0  0  0
 36 76  2  0  0  0  0
 37 55  1  0  0  0  0
 37 73  1  0  0  0  0
 37 77  2  0  0  0  0
 38 63  1  0  0  0  0
 38 68  1  0  0  0  0
 38 78  2  0  0  0  0
 39 64  1  0  0  0  0
 39 74  1  0  0  0  0
 39 79  2  0  0  0  0
 40 69  1  0  0  0  0
 40 72  1  0  0  0  0
 40 80  2  0  0  0  0
 41 46  1  0  0  0  0
 42 55  1  0  0  0  0
 43 68  1  0  0  0  0
 44 53  1  0  0  0  0
 45 47  1  0  0  0  0
 46 49  1  0  0  0  0
 47 53  1  0  0  0  0
 48 50  1  0  0  0  0
 48 51  1  0  0  0  0
 49 54  1  0  0  0  0
 50 56  1  0  0  0  0
 51 69  1  0  0  0  0
 52 56  1  0  0  0  0
 52 69  1  0  0  0  0
 54 73  1  0  0  0  0
 55 68  1  0  0  0  0
 56 67  1  0  0  0  0
 57 64  1  0  0  0  0
 58 65  1  0  0  0  0
 59 65  1  0  0  0  0
 60 65  1  0  0  0  0
 61 75  1  0  0  0  0
 62 82  1  0  0  0  0
 63 65  1  0  0  0  0
 63 74  1  0  0  0  0
 64 75  1  0  0  0  0
 66 67  1  0  0  0  0
M  CHG  1  75   1
M  ISO  4  40 100  62 101  72 100  82 101
M  END
> <Batch ID>
0145

> <Smiles>
CNC(C)C(=O)NC(C(=O)N1Cc2cc([101O:1][101CH2:1]C3=CCC(c4ccc([100NH:0][100C:0](=O)N5CCCC(n6nc(-c7ccc(Oc8ccc(F)cc8F)cc7)c(C(N)=O)c6N)C5)cc4)CC3)ccc2CC1C(=O)NC1CCCc2ccccc21)C(C)(C)C

> <Shape>
0.356

> <Color>
0.103

> <Negative vol penalty>
0.000

$$$$

  -OEChem-04052303073D

 89 97  0     1  0  0  0  0  0999 V2000
  -28.3284  -24.5293   16.5041 C   0  0  0  0  0  0  0  0  0  0  0  0
  -27.1522  -24.6532   17.2367 C   0  0  0  0  0  0  0  0  0  0  0  0
  -26.3762  -13.5800   21.0075 C   0  0  0  0  0  0  0  0  0  0  0  0
  -24.6437  -15.2510   20.7996 C   0  0  0  0  0  0  0  0  0  0  0  0
  -29.5087  -25.0977   16.9813 C   0  0  0  0  0  0  0  0  0  0  0  0
  -27.1559  -25.3448   18.4475 C   0  0  0  0  0  0  0  0  0  0  0  0
  -23.2152  -28.4932   18.8984 C   0  0  0  0  0  0  0  0  0  0  0  0
  -27.8738  -23.6206   23.8494 C   0  0  0  0  0  0  0  0  0  0  0  0
  -25.4432  -12.6758   21.5150 C   0  0  0  0  0  0  0  0  0  0  0  0
  -23.7107  -14.3468   21.3070 C   0  0  0  0  0  0  0  0  0  0  0  0
  -21.9847  -27.9293   19.2326 C   0  0  0  0  0  0  0  0  0  0  0  0
  -23.4465   -9.8116   22.5271 C   0  0  0  0  0  0  0  0  0  0  0  0
  -27.1094  -24.6612   24.3771 C   0  0  0  0  0  0  0  0  0  0  0  0
  -23.4689   -8.5088   22.0295 C   0  0  0  0  0  0  0  0  0  0  0  0
  -22.3082  -28.5981   21.5276 C   0  0  0  0  0  0  0  0  0  0  0  0
  -26.1040  -23.1139   22.2848 C   0  0  0  0  0  0  0  0  0  0  0  0
  -23.0404   -9.3508   19.8058 C   0  0  0  0  0  0  0  0  0  0  0  0
  -25.9765  -14.8676   20.6498 C   0  0  0  0  0  0  0  0  0  0  0  0
  -27.2890  -15.9965   18.7762 C   0  0  0  0  0  0  0  0  0  0  0  0
  -29.5247  -25.8050   18.1938 C   0  0  0  0  0  0  0  0  0  0  0  0
  -24.0077  -29.1052   19.8801 C   0  0  0  0  0  0  0  0  0  0  0  0
  -28.3378  -25.9222   18.9420 C   0  0  0  0  0  0  0  0  0  0  0  0
  -23.5472  -29.1713   21.2029 C   0  0  0  0  0  0  0  0  0  0  0  0
  -27.3711  -22.8469   22.8032 C   0  0  0  0  0  0  0  0  0  0  0  0
  -25.3396  -24.1546   22.8124 C   0  0  0  0  0  0  0  0  0  0  0  0
  -24.1105  -13.0591   21.6647 C   0  0  0  0  0  0  0  0  0  0  0  0
  -21.5323  -27.9791   20.5479 C   0  0  0  0  0  0  0  0  0  0  0  0
  -23.2209  -10.8841   21.6642 C   0  0  0  0  0  0  0  0  0  0  0  0
  -23.2659   -8.2783   20.6688 C   0  0  0  0  0  0  0  0  0  0  0  0
  -25.8423  -24.9282   23.8586 C   0  0  0  0  0  0  0  0  0  0  0  0
  -23.0179  -10.6536   20.3036 C   0  0  0  0  0  0  0  0  0  0  0  0
  -26.9399  -15.8023   20.1261 C   0  0  0  0  0  0  0  0  0  0  0  0
  -28.2397  -16.9873   18.8066 C   0  0  0  0  0  0  0  0  0  0  0  0
  -22.0593  -24.3440   20.9892 C   0  0  0  0  0  0  0  0  0  0  0  0
  -26.7977  -15.3401   17.6000 C   0  0  0  0  0  0  0  0  0  0  0  0
  -20.9245  -23.9417   21.5905 C   0  0  0  0  0  0  0  0  0  0  0  0
  -23.4094  -23.7546   21.2508 C   0  0  0  0  0  0  0  0  0  0  0  0
  -26.9016  -28.5705   21.0814 C   0  0  0  0  0  0  0  0  0  0  0  0
  -26.3352  -31.3495   22.6557 C   0  0  0  0  0  0  0  0  0  0  0  0
  -24.0536  -33.5684   23.8874 C   0  0  0  0  0  0  0  0  0  0  0  0
  -29.4233  -21.3923   22.6666 C   0  0  0  0  0  0  0  0  0  0  0  0
  -30.8349  -26.3616   18.6922 C   0  0  0  0  0  0  0  0  0  0  0  0
  -25.3205  -29.7324   19.4984 C   0  0  0  0  0  0  0  0  0  0  0  0
  -24.3509  -29.8348   22.2902 C   0  0  0  0  0  0  0  0  0  0  0  0
  -30.6737  -27.3993   19.8001 C   0  0  0  0  0  0  0  0  0  0  0  0
  -31.6516  -18.8182   21.6246 C   0  0  0  0  0  0  0  0  0  0  0  0
  -29.6874  -26.9061   20.8541 C   0  0  0  0  0  0  0  0  0  0  0  0
  -30.7286  -17.7731   20.9938 C   0  0  0  0  0  0  0  0  0  0  0  0
  -31.0071  -19.4852   22.8385 C   0  0  0  0  0  0  0  0  0  0  0  0
  -28.7518  -19.0096   21.9687 C   0  0  0  0  0  0  0  0  0  0  0  0
  -28.2962  -26.6861   20.2477 C   0  0  1  0  0  0  0  0  0  0  0  0
  -26.2788  -29.8766   20.6766 C   0  0  1  0  0  0  0  0  0  0  0  0
  -29.3319  -18.3566   20.7034 C   0  0  2  0  0  0  0  0  0  0  0  0
  -23.8917  -35.7260   25.1587 C   0  0  0  0  0  0  0  0  0  0  0  0
  -26.9862  -29.8704   25.2439 C   0  0  0  0  0  0  0  0  0  0  0  0
  -25.9084  -31.7457   26.5048 C   0  0  0  0  0  0  0  0  0  0  0  0
  -27.9231  -32.1848   25.1009 C   0  0  0  0  0  0  0  0  0  0  0  0
  -17.7937  -26.2756   21.7679 C   0  0  0  0  0  0  0  0  0  0  0  0
  -19.0112  -25.2562   23.6928 C   0  0  0  0  0  0  0  0  0  0  0  0
  -22.6926  -34.9266   21.6374 C   0  0  0  0  0  0  0  0  0  0  0  0
  -19.5943  -24.5963   21.2988 C   0  0  0  0  0  0  0  0  0  0  0  0
  -20.1940  -26.9151   22.2010 C   0  0  0  0  0  0  0  0  0  1  0  0
  -25.7065  -31.7207   23.9770 C   0  0  1  0  0  0  0  0  0  0  0  0
  -23.9611  -35.0801   23.7836 C   0  0  2  0  0  0  0  0  0  0  0  0
  -26.6165  -31.3661   25.1868 C   0  0  0  0  0  0  0  0  0  0  0  0
  -19.1694  -25.7590   22.2442 C   0  0  0  0  0  0  0  0  0  0  0  0
  -27.6141  -16.6051   20.9537 N   0  0  0  0  0  0  0  0  0  0  0  0
  -28.3965  -17.3133   20.1216 N   0  0  0  0  0  0  0  0  0  0  0  0
  -25.6306  -30.4279   21.8682 N   0  0  0  0  0  0  0  0  0  0  0  0
  -29.6890  -20.0183   22.4872 N   0  0  0  0  0  0  0  0  0  0  0  0
  -28.9487  -17.6026   17.8364 N   0  0  0  0  0  0  0  0  0  0  0  0
  -25.8215  -14.3454   17.7484 N   0  0  0  0  0  0  0  0  0  0  0  0
  -24.0530  -24.4240   22.2840 N   0  0  0  0  0  0  0  0  0  0  0  0
  -28.1477  -21.7898   22.2674 N   0  0  0  0  0  0  0  0  0  0  0  0
  -27.6151  -27.9510   20.0731 N   0  0  0  0  0  0  0  0  0  0  0  0
  -25.3626  -33.1353   23.8823 N   0  0  0  0  0  0  0  0  0  0  0  0
  -22.7446  -35.4733   23.0178 N   0  3  0  0  0  0  0  0  0  0  0  0
  -27.2239  -15.6157   16.4529 O   0  0  0  0  0  0  0  0  0  0  0  0
  -23.8299  -22.8066   20.5992 O   0  0  0  0  0  0  0  0  0  0  0  0
  -26.7476  -28.1561   22.2243 O   0  0  0  0  0  0  0  0  0  0  0  0
  -27.4084  -31.8638   22.3309 O   0  0  0  0  0  0  0  0  0  0  0  0
  -23.0637  -32.8446   23.9688 O   0  0  0  0  0  0  0  0  0  0  0  0
  -30.2747  -22.1649   23.1142 O   0  0  0  0  0  0  0  0  0  0  0  0
  -20.8596  -22.9605   22.5575 O   0  0  0  0  0  0  0  0  0  0  0  0
  -23.1997  -12.1770   22.1597 O   0  0  0  0  0  0  0  0  0  0  0  0
  -20.3319  -27.4289   20.8769 O   0  0  0  0  0  0  0  0  0  1  0  0
  -23.2890   -7.0273   20.1908 F   0  0  0  0  0  0  0  0  0  0  0  0
  -25.1167  -25.9306   24.3740 F   0  0  0  0  0  0  0  0  0  0  0  0
  -22.8019  -11.6800   19.4694 F   0  0  0  0  0  0  0  0  0  0  0  0
  1  2  1  0  0  0  0
  1  5  2  0  0  0  0
  2  6  2  0  0  0  0
  3  9  2  0  0  0  0
  3 18  1  0  0  0  0
  4 10  1  0  0  0  0
  4 18  2  0  0  0  0
  5 20  1  0  0  0  0
  6 22  1  0  0  0  0
  7 11  2  0  0  0  0
  7 21  1  0  0  0  0
  8 13  2  0  0  0  0
  8 24  1  0  0  0  0
  9 26  1  0  0  0  0
 10 26  2  0  0  0  0
 11 27  1  0  0  0  0
 12 14  2  0  0  0  0
 12 28  1  0  0  0  0
 13 30  1  0  0  0  0
 14 29  1  0  0  0  0
 15 23  1  0  0  0  0
 15 27  2  0  0  0  0
 16 24  2  0  0  0  0
 16 25  1  0  0  0  0
 17 29  2  0  0  0  0
 17 31  1  0  0  0  0
 18 32  1  0  0  0  0
 19 32  1  0  0  0  0
 19 33  2  0  0  0  0
 19 35  1  0  0  0  0
 20 22  2  0  0  0  0
 20 42  1  0  0  0  0
 21 23  2  0  0  0  0
 21 43  1  0  0  0  0
 22 51  1  0  0  0  0
 23 44  1  0  0  0  0
 24 74  1  0  0  0  0
 25 30  2  0  0  0  0
 25 73  1  0  0  0  0
 26 85  1  0  0  0  0
 27 86  1  0  0  0  0
 28 31  2  0  0  0  0
 28 85  1  0  0  0  0
 29 87  1  0  0  0  0
 30 88  1  0  0  0  0
 31 89  1  0  0  0  0
 32 67  2  0  0  0  0
 33 68  1  0  0  0  0
 33 71  1  0  0  0  0
 34 36  2  0  0  0  0
 34 37  1  0  0  0  0
 35 72  1  0  0  0  0
 35 78  2  0  0  0  0
 36 61  1  0  0  0  0
 36 84  1  0  0  0  0
 37 73  1  0  0  0  0
 37 79  2  0  0  0  0
 38 52  1  0  0  0  0
 38 75  1  0  0  0  0
 38 80  2  0  0  0  0
 39 63  1  0  0  0  0
 39 69  1  0  0  0  0
 39 81  2  0  0  0  0
 40 64  1  0  0  0  0
 40 76  1  0  0  0  0
 40 82  2  0  0  0  0
 41 70  1  0  0  0  0
 41 74  1  0  0  0  0
 41 83  2  0  0  0  0
 42 45  1  0  0  0  0
 43 52  1  0  0  0  0
 44 69  1  0  0  0  0
 45 47  1  0  0  0  0
 46 48  1  0  0  0  0
 46 49  1  0  0  0  0
 47 51  1  0  0  0  0
 48 53  1  0  0  0  0
 49 70  1  0  0  0  0
 50 53  1  0  0  0  0
 50 70  1  0  0  0  0
 51 75  1  0  0  0  0
 52 69  1  0  0  0  0
 53 68  1  0  0  0  0
 54 64  1  0  0  0  0
 55 65  1  0  0  0  0
 56 65  1  0  0  0  0
 57 65  1  0  0  0  0
 58 66  1  0  0  0  0
 59 66  1  0  0  0  0
 60 77  1  0  0  0  0
 61 66  1  0  0  0  0
 62 66  1  0  0  0  0
 62 86  1  0  0  0  0
 63 65  1  0  0  0  0
 63 76  1  0  0  0  0
 64 77  1  0  0  0  0
 67 68  1  0  0  0  0
M  CHG  1  77   1
M  ISO  4  41 100  62 101  74 100  86 101
M  END
> <Batch ID>
0145

> <Smiles>
CNC(C)C(=O)NC(C(=O)N1Cc2cc([101O:1][101CH2:1]C(C)(C)CC(=O)CC(=O)Nc3cc([100NH:0][100C:0](=O)N4CCCC(n5nc(-c6ccc(Oc7ccc(F)cc7F)cc6)c(C(N)=O)c5N)C4)ccc3F)ccc2CC1C(=O)NC1CCCc2ccccc21)C(C)(C)C

> <Shape>
0.312

> <Color>
0.068

> <Negative vol penalty>
0.000

$$$$

  -OEChem-04052303073D

 90 99  0     1  0  0  0  0  0999 V2000
  -26.4885  -32.6505   26.8763 C   0  0  0  0  0  0  0  0  0  0  0  0
  -26.8941  -31.6033   26.0552 C   0  0  0  0  0  0  0  0  0  0  0  0
  -23.4535  -12.5536   25.0867 C   0  0  0  0  0  0  0  0  0  0  0  0
  -22.9451  -14.8558   25.6145 C   0  0  0  0  0  0  0  0  0  0  0  0
  -25.1447  -32.7819   27.2240 C   0  0  0  0  0  0  0  0  0  0  0  0
  -25.9563  -30.6861   25.5822 C   0  0  0  0  0  0  0  0  0  0  0  0
  -26.5514  -29.6632   20.6583 C   0  0  0  0  0  0  0  0  0  0  0  0
  -22.6691  -12.1341   26.1611 C   0  0  0  0  0  0  0  0  0  0  0  0
  -22.1606  -14.4362   26.6888 C   0  0  0  0  0  0  0  0  0  0  0  0
  -27.5760  -28.7843   20.3099 C   0  0  0  0  0  0  0  0  0  0  0  0
  -19.3810  -11.7238   26.8341 C   0  0  0  0  0  0  0  0  0  0  0  0
  -18.5004  -10.6637   26.6187 C   0  0  0  0  0  0  0  0  0  0  0  0
  -25.9670  -26.9984   20.1075 C   0  0  0  0  0  0  0  0  0  0  0  0
  -19.6253   -9.3816   28.3298 C   0  0  0  0  0  0  0  0  0  0  0  0
  -23.5916  -13.9145   24.8134 C   0  0  0  0  0  0  0  0  0  0  0  0
  -23.9834  -14.5605   22.3769 C   0  0  0  0  0  0  0  0  0  0  0  0
  -24.1884  -31.8714   26.7472 C   0  0  0  0  0  0  0  0  0  0  0  0
  -25.2261  -29.2131   20.7448 C   0  0  0  0  0  0  0  0  0  0  0  0
  -24.5987  -30.8046   25.9250 C   0  0  0  0  0  0  0  0  0  0  0  0
  -24.9270  -27.8742   20.4548 C   0  0  0  0  0  0  0  0  0  0  0  0
  -22.0226  -13.0753   26.9621 C   0  0  0  0  0  0  0  0  0  0  0  0
  -27.2843  -27.4510   20.0373 C   0  0  0  0  0  0  0  0  0  0  0  0
  -20.3839  -11.6127   27.7972 C   0  0  0  0  0  0  0  0  0  0  0  0
  -18.6225   -9.4927   27.3666 C   0  0  0  0  0  0  0  0  0  0  0  0
  -20.5060  -10.4417   28.5451 C   0  0  0  0  0  0  0  0  0  0  0  0
  -24.4022  -14.3485   23.7041 C   0  0  0  0  0  0  0  0  0  0  0  0
  -28.0171  -20.0475   18.7531 C   0  0  0  0  0  0  0  0  0  0  0  0
  -29.0198  -19.5090   19.5319 C   0  0  0  0  0  0  0  0  0  0  0  0
  -25.1196  -14.9632   21.7186 C   0  0  0  0  0  0  0  0  0  0  0  0
  -30.2606  -20.7153   18.1845 C   0  0  0  0  0  0  0  0  0  0  0  0
  -22.6837  -14.4072   21.7915 C   0  0  0  0  0  0  0  0  0  0  0  0
  -23.0676  -29.0265   23.0707 C   0  0  0  0  0  0  0  0  0  0  0  0
  -31.3987  -22.9025   17.6208 C   0  0  0  0  0  0  0  0  0  0  0  0
  -21.1141  -28.0991   20.6528 C   0  0  0  0  0  0  0  0  0  0  0  0
  -20.8033  -26.7312   17.5417 C   0  0  0  0  0  0  0  0  0  0  0  0
  -29.7561  -18.0334   21.4363 C   0  0  0  0  0  0  0  0  0  0  0  0
  -22.7547  -32.0269   27.1886 C   0  0  0  0  0  0  0  0  0  0  0  0
  -24.1286  -30.1799   21.0959 C   0  0  0  0  0  0  0  0  0  0  0  0
  -23.5179  -27.3457   20.5136 C   0  0  0  0  0  0  0  0  0  0  0  0
  -21.7665  -31.2300   26.3408 C   0  0  0  0  0  0  0  0  0  0  0  0
  -29.9624  -14.9424   23.1914 C   0  0  0  0  0  0  0  0  0  0  0  0
  -22.2728  -29.8070   26.1270 C   0  0  0  0  0  0  0  0  0  0  0  0
  -25.5845  -20.9660   19.0858 C   0  0  0  0  0  0  0  0  0  0  0  0
  -25.8588  -20.0557   20.2417 C   0  0  0  0  0  0  0  0  0  0  0  0
  -28.4998  -14.5298   23.3721 C   0  0  0  0  0  0  0  0  0  0  0  0
  -30.1446  -16.4541   23.3151 C   0  0  0  0  0  0  0  0  0  0  0  0
  -27.8113  -16.8448   22.6281 C   0  0  0  0  0  0  0  0  0  0  0  0
  -23.6074  -29.8039   25.3718 C   0  0  1  0  0  0  0  0  0  0  0  0
  -26.5168  -19.7863   18.9043 C   0  0  0  0  0  0  0  0  0  0  0  0
  -22.8852  -29.4951   21.6548 C   0  0  1  0  0  0  0  0  0  0  0  0
  -27.5680  -15.3376   22.4475 C   0  0  2  0  0  0  0  0  0  0  0  0
  -19.0774  -26.0658   15.8458 C   0  0  0  0  0  0  0  0  0  0  0  0
  -31.5285  -20.9263   16.0481 C   0  0  0  0  0  0  0  0  0  0  0  0
  -32.8416  -20.9510   18.1568 C   0  0  0  0  0  0  0  0  0  0  0  0
  -20.4375  -25.6305   22.3136 C   0  0  0  0  0  0  0  0  0  0  0  0
  -19.5042  -24.5786   20.2422 C   0  0  0  0  0  0  0  0  0  0  0  0
  -18.4853  -26.6689   21.1451 C   0  0  0  0  0  0  0  0  0  0  0  0
  -31.8233  -25.9461   20.8963 C   0  0  0  0  0  0  0  0  0  0  0  0
  -21.8864  -28.6126   15.5302 C   0  0  0  0  0  0  0  0  0  0  0  0
  -31.3238  -23.5275   19.0129 C   0  0  0  0  0  0  0  0  0  0  0  0
  -30.5025  -24.8216   19.0076 C   0  0  0  0  0  0  0  0  0  0  0  0
  -29.5768  -26.8511   20.2380 C   0  0  0  0  0  0  0  0  0  1  0  0
  -20.7476  -26.7778   20.0215 C   0  0  1  0  0  0  0  0  0  0  0  0
  -20.0094  -27.1683   16.3239 C   0  0  2  0  0  0  0  0  0  0  0  0
  -31.4910  -21.3588   17.5311 C   0  0  0  0  0  0  0  0  0  0  0  0
  -19.8206  -25.9231   20.9313 C   0  0  0  0  0  0  0  0  0  0  0  0
  -30.4383  -25.5787   20.3536 C   0  0  2  0  0  0  0  0  0  0  0  0
  -25.7029  -14.5960   23.8802 N   0  0  0  0  0  0  0  0  0  0  0  0
  -30.3070  -19.8904   19.2071 N   0  0  0  0  0  0  0  0  0  0  0  0
  -26.1113  -14.9675   22.6549 N   0  0  0  0  0  0  0  0  0  0  0  0
  -22.4805  -28.3285   20.8677 N   0  0  0  0  0  0  0  0  0  0  0  0
  -29.2328  -17.1534   22.4071 N   0  0  0  0  0  0  0  0  0  0  0  0
  -25.3572  -15.3105   20.4358 N   0  0  0  0  0  0  0  0  0  0  0  0
  -21.6275  -13.9854   22.6106 N   0  0  0  0  0  0  0  0  0  0  0  0
  -28.7966  -18.6154   20.6086 N   0  0  0  0  0  0  0  0  0  0  0  0
  -23.3896  -30.0342   23.9597 N   0  0  0  0  0  0  0  0  0  0  0  0
  -20.1778  -27.0932   18.7160 N   0  0  0  0  0  0  0  0  0  0  0  0
  -29.7907  -24.6859   21.3729 N   0  3  0  0  0  0  0  0  0  0  0  0
  -20.9290  -27.5237   15.2063 N   0  3  0  0  0  0  0  0  0  0  0  0
  -22.4688  -14.6216   20.5744 O   0  0  0  0  0  0  0  0  0  0  0  0
  -22.9253  -27.8389   23.3371 O   0  0  0  0  0  0  0  0  0  0  0  0
  -31.4122  -23.6097   16.6107 O   0  0  0  0  0  0  0  0  0  0  0  0
  -20.2215  -28.9013   20.9381 O   0  0  0  0  0  0  0  0  0  0  0  0
  -21.8696  -26.1256   17.4596 O   0  0  0  0  0  0  0  0  0  0  0  0
  -30.9687  -18.2333   21.3280 O   0  0  0  0  0  0  0  0  0  0  0  0
  -21.2569  -12.6663   28.0104 O   0  0  0  0  0  0  0  0  0  0  0  0
  -28.2895  -26.5849   19.6952 O   0  0  0  0  0  0  0  0  0  1  0  0
  -17.7758   -8.4754   27.1608 F   0  0  0  0  0  0  0  0  0  0  0  0
  -21.4667  -10.3295   29.4727 F   0  0  0  0  0  0  0  0  0  0  0  0
  -28.7019  -21.0762   17.5639 S   0  0  0  0  0  0  0  0  0  0  0  0
  1  2  1  0  0  0  0
  1  5  2  0  0  0  0
  2  6  2  0  0  0  0
  3  8  2  0  0  0  0
  3 15  1  0  0  0  0
  4  9  1  0  0  0  0
  4 15  2  0  0  0  0
  5 17  1  0  0  0  0
  6 19  1  0  0  0  0
  7 10  2  0  0  0  0
  7 18  1  0  0  0  0
  8 21  1  0  0  0  0
  9 21  2  0  0  0  0
 10 22  1  0  0  0  0
 11 12  2  0  0  0  0
 11 23  1  0  0  0  0
 12 24  1  0  0  0  0
 13 20  1  0  0  0  0
 13 22  2  0  0  0  0
 14 24  2  0  0  0  0
 14 25  1  0  0  0  0
 15 26  1  0  0  0  0
 16 26  1  0  0  0  0
 16 29  2  0  0  0  0
 16 31  1  0  0  0  0
 17 19  2  0  0  0  0
 17 37  1  0  0  0  0
 18 20  2  0  0  0  0
 18 38  1  0  0  0  0
 19 48  1  0  0  0  0
 20 39  1  0  0  0  0
 21 86  1  0  0  0  0
 22 87  1  0  0  0  0
 23 25  2  0  0  0  0
 23 86  1  0  0  0  0
 24 88  1  0  0  0  0
 25 89  1  0  0  0  0
 26 68  2  0  0  0  0
 27 28  2  0  0  0  0
 27 49  1  0  0  0  0
 27 90  1  0  0  0  0
 28 69  1  0  0  0  0
 28 75  1  0  0  0  0
 29 70  1  0  0  0  0
 29 73  1  0  0  0  0
 30 65  1  0  0  0  0
 30 69  2  0  0  0  0
 30 90  1  0  0  0  0
 31 74  1  0  0  0  0
 31 80  2  0  0  0  0
 32 50  1  0  0  0  0
 32 76  1  0  0  0  0
 32 81  2  0  0  0  0
 33 60  1  0  0  0  0
 33 65  1  0  0  0  0
 33 82  2  0  0  0  0
 34 63  1  0  0  0  0
 34 71  1  0  0  0  0
 34 83  2  0  0  0  0
 35 64  1  0  0  0  0
 35 77  1  0  0  0  0
 35 84  2  0  0  0  0
 36 72  1  0  0  0  0
 36 75  1  0  0  0  0
 36 85  2  0  0  0  0
 37 40  1  0  0  0  0
 38 50  1  0  0  0  0
 39 71  1  0  0  0  0
 40 42  1  0  0  0  0
 41 45  1  0  0  0  0
 41 46  1  0  0  0  0
 42 48  1  0  0  0  0
 43 44  1  0  0  0  0
 43 49  1  0  0  0  0
 44 49  1  0  0  0  0
 45 51  1  0  0  0  0
 46 72  1  0  0  0  0
 47 51  1  0  0  0  0
 47 72  1  0  0  0  0
 48 76  1  0  0  0  0
 50 71  1  0  0  0  0
 51 70  1  0  0  0  0
 52 64  1  0  0  0  0
 53 65  1  0  0  0  0
 54 65  1  0  0  0  0
 55 66  1  0  0  0  0
 56 66  1  0  0  0  0
 57 66  1  0  0  0  0
 58 67  1  0  0  0  0
 59 79  1  0  0  0  0
 60 61  1  0  0  0  0
 61 67  1  0  0  0  0
 62 67  1  0  0  0  0
 62 87  1  0  0  0  0
 63 66  1  0  0  0  0
 63 77  1  0  0  0  0
 64 79  1  0  0  0  0
 67 78  1  0  0  0  0
 68 70  1  0  0  0  0
M  CHG  2  78   1  79   1
M  ISO  4  36 100  62 101  75 100  87 101
M  END
> <Batch ID>
0145

> <Smiles>
CNC(C)C(=O)NC(C(=O)N1Cc2cc([101O:1][101CH2:1]C(C)(N)CCC(=O)C(C)(C)c3nc([100NH:0][100C:0](=O)N4CCCC(n5nc(-c6ccc(Oc7ccc(F)cc7F)cc6)c(C(N)=O)c5N)C4)c(C4CC4)s3)ccc2CC1C(=O)NC1CCCc2ccccc21)C(C)(C)C

> <Shape>
0.219

> <Color>
0.102

> <Negative vol penalty>
0.000

$$$$

  -OEChem-04052303073D

 87 96  0     1  0  0  0  0  0999 V2000
  -30.1943  -34.1059   15.1336 C   0  0  0  0  0  0  0  0  0  0  0  0
  -30.7593  -33.7763   16.3614 C   0  0  0  0  0  0  0  0  0  0  0  0
  -23.0747   -9.8667   19.9392 C   0  0  0  0  0  0  0  0  0  0  0  0
  -23.8330   -9.8765   22.2331 C   0  0  0  0  0  0  0  0  0  0  0  0
  -29.0684  -33.4205   14.6792 C   0  0  0  0  0  0  0  0  0  0  0  0
  -30.1979  -32.7618   17.1361 C   0  0  0  0  0  0  0  0  0  0  0  0
  -34.0641  -26.9973   19.0635 C   0  0  0  0  0  0  0  0  0  0  0  0
  -22.3302   -8.7142   20.1902 C   0  0  0  0  0  0  0  0  0  0  0  0
  -23.0884   -8.7240   22.4842 C   0  0  0  0  0  0  0  0  0  0  0  0
  -34.7985  -25.9660   19.6493 C   0  0  0  0  0  0  0  0  0  0  0  0
  -19.3805   -7.9209   21.6406 C   0  0  0  0  0  0  0  0  0  0  0  0
  -18.0740   -7.8746   21.1545 C   0  0  0  0  0  0  0  0  0  0  0  0
  -31.0056  -18.9261   22.8355 C   0  0  0  0  0  0  0  0  0  0  0  0
  -30.0308  -17.9061   22.7229 C   0  0  0  0  0  0  0  0  0  0  0  0
  -32.7887  -25.1097   20.6865 C   0  0  0  0  0  0  0  0  0  0  0  0
  -18.6337   -5.9295   19.8353 C   0  0  0  0  0  0  0  0  0  0  0  0
  -23.8262  -10.4478   20.9607 C   0  0  0  0  0  0  0  0  0  0  0  0
  -24.1692  -12.9726   20.8374 C   0  0  0  0  0  0  0  0  0  0  0  0
  -28.4987  -32.3906   15.4442 C   0  0  0  0  0  0  0  0  0  0  0  0
  -32.6850  -27.0799   19.2747 C   0  0  0  0  0  0  0  0  0  0  0  0
  -29.0626  -32.0629   16.6921 C   0  0  0  0  0  0  0  0  0  0  0  0
  -32.0459  -26.1333   20.0922 C   0  0  0  0  0  0  0  0  0  0  0  0
  -22.3370   -8.1429   21.4627 C   0  0  0  0  0  0  0  0  0  0  0  0
  -34.1624  -25.0247   20.4590 C   0  0  0  0  0  0  0  0  0  0  0  0
  -20.3138   -6.9716   21.2240 C   0  0  0  0  0  0  0  0  0  0  0  0
  -17.7005   -6.8789   20.2518 C   0  0  0  0  0  0  0  0  0  0  0  0
  -19.9403   -5.9758   20.3213 C   0  0  0  0  0  0  0  0  0  0  0  0
  -24.5960  -11.6380   20.7018 C   0  0  0  0  0  0  0  0  0  0  0  0
  -32.0869  -18.5043   22.0974 C   0  0  0  0  0  0  0  0  0  0  0  0
  -25.2620  -13.7211   20.4739 C   0  0  0  0  0  0  0  0  0  0  0  0
  -30.5859  -16.9339   21.9237 C   0  0  0  0  0  0  0  0  0  0  0  0
  -22.8987  -13.4896   21.2548 C   0  0  0  0  0  0  0  0  0  0  0  0
  -33.3426  -19.2578   21.9313 C   0  0  0  0  0  0  0  0  0  0  0  0
  -35.1481  -21.1859   20.2866 C   0  0  0  0  0  0  0  0  0  0  0  0
  -29.4860  -28.9091   18.5701 C   0  0  0  0  0  0  0  0  0  0  0  0
  -28.8337  -25.9125   18.4967 C   0  0  0  0  0  0  0  0  0  0  0  0
  -28.6177  -22.9229   20.1254 C   0  0  0  0  0  0  0  0  0  0  0  0
  -30.7285  -14.7644   20.6511 C   0  0  0  0  0  0  0  0  0  0  0  0
  -27.2536  -31.7101   14.9330 C   0  0  0  0  0  0  0  0  0  0  0  0
  -31.8643  -28.2093   18.7137 C   0  0  0  0  0  0  0  0  0  0  0  0
  -30.5663  -26.2817   20.3195 C   0  0  0  0  0  0  0  0  0  0  0  0
  -26.9431  -30.3949   15.6430 C   0  0  0  0  0  0  0  0  0  0  0  0
  -34.6192  -18.6044   18.5700 C   0  0  0  0  0  0  0  0  0  0  0  0
  -29.6146  -12.3480   18.2852 C   0  0  0  0  0  0  0  0  0  0  0  0
  -27.0681  -30.5615   17.1541 C   0  0  0  0  0  0  0  0  0  0  0  0
  -35.8839  -19.0167   19.3124 C   0  0  0  0  0  0  0  0  0  0  0  0
  -28.1746  -12.0577   18.7141 C   0  0  0  0  0  0  0  0  0  0  0  0
  -33.6559  -18.2467   19.6953 C   0  0  0  0  0  0  0  0  0  0  0  0
  -30.5290  -12.5780   19.4872 C   0  0  0  0  0  0  0  0  0  0  0  0
  -28.6215  -13.3051   20.8662 C   0  0  0  0  0  0  0  0  0  0  0  0
  -28.4973  -30.9517   17.5499 C   0  0  1  0  0  0  0  0  0  0  0  0
  -35.3593  -19.7144   20.5625 C   0  0  2  0  0  0  0  0  0  0  0  0
  -30.4411  -27.7805   18.3140 C   0  0  1  0  0  0  0  0  0  0  0  0
  -27.6494  -13.1308   19.6879 C   0  0  2  0  0  0  0  0  0  0  0  0
  -27.9263  -20.5487   20.5526 C   0  0  0  0  0  0  0  0  0  0  0  0
  -26.3150  -27.2289   19.6044 C   0  0  0  0  0  0  0  0  0  0  0  0
  -25.5578  -24.9696   20.3730 C   0  0  0  0  0  0  0  0  0  0  0  0
  -25.8961  -25.4091   17.9409 C   0  0  0  0  0  0  0  0  0  0  0  0
  -30.9152  -21.8562   18.5949 C   0  0  0  0  0  0  0  0  0  0  0  0
  -36.3004  -22.1067   20.6561 C   0  0  0  0  0  0  0  0  0  0  0  0
  -36.0331  -23.5633   20.3096 C   0  0  0  0  0  0  0  0  0  1  0  0
  -27.9102  -25.2043   19.4553 C   0  0  1  0  0  0  0  0  0  0  0  0
  -28.6656  -21.4931   19.6176 C   0  0  2  0  0  0  0  0  0  0  0  0
  -26.4448  -25.7135   19.3519 C   0  0  0  0  0  0  0  0  0  0  0  0
  -25.8611  -11.5410   20.2846 N   0  0  0  0  0  0  0  0  0  0  0  0
  -26.2386  -12.8243   20.1548 N   0  0  0  0  0  0  0  0  0  0  0  0
  -34.0550  -19.1159   20.7951 N   0  0  0  0  0  0  0  0  0  0  0  0
  -29.8966  -26.6314   19.0570 N   0  0  0  0  0  0  0  0  0  0  0  0
  -29.9699  -13.6102   20.3628 N   0  0  0  0  0  0  0  0  0  0  0  0
  -25.4730  -15.0524   20.3992 N   0  0  0  0  0  0  0  0  0  0  0  0
  -21.8861  -12.5813   21.5926 N   0  0  0  0  0  0  0  0  0  0  0  0
  -30.0810  -15.6908   21.4678 N   0  0  0  0  0  0  0  0  0  0  0  0
  -29.3650  -29.7940   17.5157 N   0  0  0  0  0  0  0  0  0  0  0  0
  -28.0668  -23.7775   19.1941 N   0  0  0  0  0  0  0  0  0  0  0  0
  -33.7524  -20.0671   22.9036 N   0  3  0  0  0  0  0  0  0  0  0  0
  -30.0778  -21.0311   19.5031 N   0  3  0  0  0  0  0  0  0  0  0  0
  -22.6629  -14.7204   21.3102 O   0  0  0  0  0  0  0  0  0  0  0  0
  -34.0980  -21.5927   19.7920 O   0  0  0  0  0  0  0  0  0  0  0  0
  -28.9000  -28.9726   19.6445 O   0  0  0  0  0  0  0  0  0  0  0  0
  -28.6177  -25.8368   17.2839 O   0  0  0  0  0  0  0  0  0  0  0  0
  -29.0247  -23.2483   21.2385 O   0  0  0  0  0  0  0  0  0  0  0  0
  -31.8580  -14.9320   20.1840 O   0  0  0  0  0  0  0  0  0  0  0  0
  -31.8391  -17.2909   21.5382 O   0  0  0  0  0  0  0  0  0  0  0  0
  -21.6103   -7.0184   21.7081 O   0  0  0  0  0  0  0  0  0  0  0  0
  -34.8846  -24.0178   21.0241 O   0  0  0  0  0  0  0  0  0  1  0  0
  -16.4454   -6.8336   19.7863 F   0  0  0  0  0  0  0  0  0  0  0  0
  -20.8322   -5.0603   19.9184 F   0  0  0  0  0  0  0  0  0  0  0  0
  1  2  1  0  0  0  0
  1  5  2  0  0  0  0
  2  6  2  0  0  0  0
  3  8  2  0  0  0  0
  3 17  1  0  0  0  0
  4  9  1  0  0  0  0
  4 17  2  0  0  0  0
  5 19  1  0  0  0  0
  6 21  1  0  0  0  0
  7 10  2  0  0  0  0
  7 20  1  0  0  0  0
  8 23  1  0  0  0  0
  9 23  2  0  0  0  0
 10 24  1  0  0  0  0
 11 12  2  0  0  0  0
 11 25  1  0  0  0  0
 12 26  1  0  0  0  0
 13 14  1  0  0  0  0
 13 29  2  0  0  0  0
 14 31  2  0  0  0  0
 15 22  1  0  0  0  0
 15 24  2  0  0  0  0
 16 26  2  0  0  0  0
 16 27  1  0  0  0  0
 17 28  1  0  0  0  0
 18 28  1  0  0  0  0
 18 30  2  0  0  0  0
 18 32  1  0  0  0  0
 19 21  2  0  0  0  0
 19 39  1  0  0  0  0
 20 22  2  0  0  0  0
 20 40  1  0  0  0  0
 21 51  1  0  0  0  0
 22 41  1  0  0  0  0
 23 84  1  0  0  0  0
 24 85  1  0  0  0  0
 25 27  2  0  0  0  0
 25 84  1  0  0  0  0
 26 86  1  0  0  0  0
 27 87  1  0  0  0  0
 28 65  2  0  0  0  0
 29 33  1  0  0  0  0
 29 83  1  0  0  0  0
 30 66  1  0  0  0  0
 30 70  1  0  0  0  0
 31 72  1  0  0  0  0
 31 83  1  0  0  0  0
 32 71  1  0  0  0  0
 32 77  2  0  0  0  0
 33 67  1  0  0  0  0
 33 75  2  0  0  0  0
 34 52  1  0  0  0  0
 34 60  1  0  0  0  0
 34 78  2  0  0  0  0
 35 53  1  0  0  0  0
 35 73  1  0  0  0  0
 35 79  2  0  0  0  0
 36 62  1  0  0  0  0
 36 68  1  0  0  0  0
 36 80  2  0  0  0  0
 37 63  1  0  0  0  0
 37 74  1  0  0  0  0
 37 81  2  0  0  0  0
 38 69  1  0  0  0  0
 38 72  1  0  0  0  0
 38 82  2  0  0  0  0
 39 42  1  0  0  0  0
 40 53  1  0  0  0  0
 41 68  1  0  0  0  0
 42 45  1  0  0  0  0
 43 46  1  0  0  0  0
 43 48  1  0  0  0  0
 44 47  1  0  0  0  0
 44 49  1  0  0  0  0
 45 51  1  0  0  0  0
 46 52  1  0  0  0  0
 47 54  1  0  0  0  0
 48 67  1  0  0  0  0
 49 69  1  0  0  0  0
 50 54  1  0  0  0  0
 50 69  1  0  0  0  0
 51 73  1  0  0  0  0
 52 67  1  0  0  0  0
 53 68  1  0  0  0  0
 54 66  1  0  0  0  0
 55 63  1  0  0  0  0
 56 64  1  0  0  0  0
 57 64  1  0  0  0  0
 58 64  1  0  0  0  0
 59 76  1  0  0  0  0
 60 61  1  0  0  0  0
 61 85  1  0  0  0  0
 62 64  1  0  0  0  0
 62 74  1  0  0  0  0
 63 76  1  0  0  0  0
 65 66  1  0  0  0  0
M  CHG  2  75   1  76   1
M  ISO  4  38 100  61 101  72 100  85 101
M  END
> <Batch ID>
0145

> <Smiles>
CNC(C)C(=O)NC(C(=O)N1Cc2cc([101O:1][101CH2:1]CC(=O)C3CCCN3C(=N)c3ccc([100NH:0][100C:0](=O)N4CCCC(n5nc(-c6ccc(Oc7ccc(F)cc7F)cc6)c(C(N)=O)c5N)C4)o3)ccc2CC1C(=O)NC1CCCc2ccccc21)C(C)(C)C

> <Shape>
0.234

> <Color>
0.180

> <Negative vol penalty>
0.000

$$$$

  -OEChem-04052303073D

 87 95  0     1  0  0  0  0  0999 V2000
  -29.2647  -31.2987   26.7252 C   0  0  0  0  0  0  0  0  0  0  0  0
  -28.9578  -30.2648   25.8465 C   0  0  0  0  0  0  0  0  0  0  0  0
  -22.6021  -10.5577   21.6259 C   0  0  0  0  0  0  0  0  0  0  0  0
  -23.8263  -11.3457   23.5539 C   0  0  0  0  0  0  0  0  0  0  0  0
  -28.2502  -32.1207   27.2141 C   0  0  0  0  0  0  0  0  0  0  0  0
  -27.6360  -30.0516   25.4568 C   0  0  0  0  0  0  0  0  0  0  0  0
  -27.1853  -29.2363   20.4792 C   0  0  0  0  0  0  0  0  0  0  0  0
  -33.1123  -14.9517   19.8252 C   0  0  0  0  0  0  0  0  0  0  0  0
  -21.7130   -9.8861   22.4649 C   0  0  0  0  0  0  0  0  0  0  0  0
  -22.9372  -10.6741   24.3930 C   0  0  0  0  0  0  0  0  0  0  0  0
  -27.5209  -27.9674   20.0089 C   0  0  0  0  0  0  0  0  0  0  0  0
  -19.0507  -10.6569   24.4017 C   0  0  0  0  0  0  0  0  0  0  0  0
  -34.0485  -15.9368   20.1393 C   0  0  0  0  0  0  0  0  0  0  0  0
  -17.6880  -10.7721   24.1275 C   0  0  0  0  0  0  0  0  0  0  0  0
  -25.1821  -27.3801   19.9420 C   0  0  0  0  0  0  0  0  0  0  0  0
  -31.3259  -16.5451   20.1526 C   0  0  0  0  0  0  0  0  0  0  0  0
  -17.5437   -8.3777   23.8385 C   0  0  0  0  0  0  0  0  0  0  0  0
  -23.6588  -11.2875   22.1704 C   0  0  0  0  0  0  0  0  0  0  0  0
  -24.4691  -13.3031   20.8332 C   0  0  0  0  0  0  0  0  0  0  0  0
  -26.9166  -31.9236   26.8227 C   0  0  0  0  0  0  0  0  0  0  0  0
  -25.8439  -29.5834   20.6952 C   0  0  0  0  0  0  0  0  0  0  0  0
  -26.6025  -30.8710   25.9419 C   0  0  0  0  0  0  0  0  0  0  0  0
  -24.8320  -28.6549   20.4127 C   0  0  0  0  0  0  0  0  0  0  0  0
  -31.7509  -15.2559   19.8318 C   0  0  0  0  0  0  0  0  0  0  0  0
  -32.2622  -17.5302   20.4667 C   0  0  0  0  0  0  0  0  0  0  0  0
  -21.8805   -9.9443   23.8485 C   0  0  0  0  0  0  0  0  0  0  0  0
  -26.5195  -27.0382   19.7429 C   0  0  0  0  0  0  0  0  0  0  0  0
  -19.6600   -9.4021   24.3943 C   0  0  0  0  0  0  0  0  0  0  0  0
  -16.9345   -9.6325   23.8459 C   0  0  0  0  0  0  0  0  0  0  0  0
  -33.6235  -17.2260   20.4601 C   0  0  0  0  0  0  0  0  0  0  0  0
  -18.9065   -8.2625   24.1127 C   0  0  0  0  0  0  0  0  0  0  0  0
  -24.5780  -11.9810   21.3042 C   0  0  0  0  0  0  0  0  0  0  0  0
  -25.5849  -13.4824   20.0525 C   0  0  0  0  0  0  0  0  0  0  0  0
  -23.4506  -14.2817   21.0794 C   0  0  0  0  0  0  0  0  0  0  0  0
  -24.1295  -30.4428   23.2302 C   0  0  0  0  0  0  0  0  0  0  0  0
  -30.5744  -20.8533   20.4739 C   0  0  0  0  0  0  0  0  0  0  0  0
  -28.0493  -23.7512   19.7603 C   0  0  0  0  0  0  0  0  0  0  0  0
  -21.8111  -30.9226   21.0127 C   0  0  0  0  0  0  0  0  0  0  0  0
  -20.5571  -30.1843   17.9258 C   0  0  0  0  0  0  0  0  0  0  0  0
  -31.0547  -12.9263   19.1726 C   0  0  0  0  0  0  0  0  0  0  0  0
  -25.8480  -32.8082   27.4145 C   0  0  0  0  0  0  0  0  0  0  0  0
  -25.4968  -30.9652   21.1775 C   0  0  0  0  0  0  0  0  0  0  0  0
  -23.3755  -28.9850   20.6086 C   0  0  0  0  0  0  0  0  0  0  0  0
  -24.5224  -32.7505   26.6597 C   0  0  0  0  0  0  0  0  0  0  0  0
  -28.9897  -10.1430   18.3564 C   0  0  0  0  0  0  0  0  0  0  0  0
  -24.1373  -31.3038   26.3671 C   0  0  0  0  0  0  0  0  0  0  0  0
  -27.6489  -10.4818   19.0118 C   0  0  0  0  0  0  0  0  0  0  0  0
  -30.1704  -10.6043   19.2090 C   0  0  0  0  0  0  0  0  0  0  0  0
  -28.7946  -12.3568   20.2603 C   0  0  0  0  0  0  0  0  0  0  0  0
  -25.1840  -30.6236   25.4765 C   0  0  1  0  0  0  0  0  0  0  0  0
  -24.1295  -31.0374   21.8502 C   0  0  1  0  0  0  0  0  0  0  0  0
  -27.5752  -11.9695   19.4078 C   0  0  2  0  0  0  0  0  0  0  0  0
  -18.6279  -30.7038   16.4074 C   0  0  0  0  0  0  0  0  0  0  0  0
  -20.0096  -29.1175   22.6879 C   0  0  0  0  0  0  0  0  0  0  0  0
  -18.4945  -28.9075   20.7059 C   0  0  0  0  0  0  0  0  0  0  0  0
  -18.8773  -31.1405   21.7500 C   0  0  0  0  0  0  0  0  0  0  0  0
  -22.3433  -31.3032   15.8481 C   0  0  0  0  0  0  0  0  0  0  0  0
  -29.2611  -21.5418   20.1254 C   0  0  0  0  0  0  0  0  0  0  0  0
  -29.3446  -23.0644   20.1679 C   0  0  0  0  0  0  0  0  0  0  0  0
  -30.5437  -19.3388   20.4334 C   0  0  0  0  0  0  0  0  0  0  0  0
  -28.1035  -25.2649   19.6919 C   0  0  0  0  0  0  0  0  0  1  0  0
  -20.7268  -30.0709   20.3982 C   0  0  1  0  0  0  0  0  0  0  0  0
  -20.0480  -31.0741   16.8062 C   0  0  2  0  0  0  0  0  0  0  0  0
  -19.5545  -29.8019   21.3835 C   0  0  0  0  0  0  0  0  0  0  0  0
  -25.6761  -11.3640   20.8597 N   0  0  0  0  0  0  0  0  0  0  0  0
  -26.2674  -12.3026   20.1012 N   0  0  0  0  0  0  0  0  0  0  0  0
  -23.0873  -30.3469   21.0878 N   0  0  0  0  0  0  0  0  0  0  0  0
  -30.0348  -12.0240   19.5419 N   0  0  0  0  0  0  0  0  0  0  0  0
  -26.0388  -14.5326   19.3359 N   0  0  0  0  0  0  0  0  0  0  0  0
  -22.3736  -13.9319   21.9052 N   0  0  0  0  0  0  0  0  0  0  0  0
  -30.8005  -14.2546   19.5128 N   0  0  0  0  0  0  0  0  0  0  0  0
  -31.8371  -18.8116   20.7865 N   0  0  0  0  0  0  0  0  0  0  0  0
  -25.0228  -31.0390   24.0996 N   0  0  0  0  0  0  0  0  0  0  0  0
  -20.3292  -30.7427   19.1657 N   0  0  0  0  0  0  0  0  0  0  0  0
  -20.9216  -30.9469   15.6055 N   0  3  0  0  0  0  0  0  0  0  0  0
  -23.4858  -15.4268   20.5685 O   0  0  0  0  0  0  0  0  0  0  0  0
  -23.3739  -29.5130   23.4874 O   0  0  0  0  0  0  0  0  0  0  0  0
  -31.5874  -21.4843   20.7723 O   0  0  0  0  0  0  0  0  0  0  0  0
  -27.0190  -23.1287   19.5077 O   0  0  0  0  0  0  0  0  0  0  0  0
  -21.5375  -32.0597   21.4049 O   0  0  0  0  0  0  0  0  0  0  0  0
  -21.0992  -29.1004   17.7210 O   0  0  0  0  0  0  0  0  0  0  0  0
  -32.0659  -12.5525   18.5727 O   0  0  0  0  0  0  0  0  0  0  0  0
  -21.0129   -9.2893   24.6675 O   0  0  0  0  0  0  0  0  0  0  0  0
  -26.8444  -25.7988   19.2844 O   0  0  0  0  0  0  0  0  0  1  0  0
  -15.6255   -9.7432   23.5841 F   0  0  0  0  0  0  0  0  0  0  0  0
  -34.5318  -18.1646   20.7624 F   0  0  0  0  0  0  0  0  0  0  0  0
  -19.4861   -7.0543   24.1052 F   0  0  0  0  0  0  0  0  0  0  0  0
  1  2  1  0  0  0  0
  1  5  2  0  0  0  0
  2  6  2  0  0  0  0
  3  9  2  0  0  0  0
  3 18  1  0  0  0  0
  4 10  1  0  0  0  0
  4 18  2  0  0  0  0
  5 20  1  0  0  0  0
  6 22  1  0  0  0  0
  7 11  2  0  0  0  0
  7 21  1  0  0  0  0
  8 13  2  0  0  0  0
  8 24  1  0  0  0  0
  9 26  1  0  0  0  0
 10 26  2  0  0  0  0
 11 27  1  0  0  0  0
 12 14  2  0  0  0  0
 12 28  1  0  0  0  0
 13 30  1  0  0  0  0
 14 29  1  0  0  0  0
 15 23  1  0  0  0  0
 15 27  2  0  0  0  0
 16 24  2  0  0  0  0
 16 25  1  0  0  0  0
 17 29  2  0  0  0  0
 17 31  1  0  0  0  0
 18 32  1  0  0  0  0
 19 32  1  0  0  0  0
 19 33  2  0  0  0  0
 19 34  1  0  0  0  0
 20 22  2  0  0  0  0
 20 41  1  0  0  0  0
 21 23  2  0  0  0  0
 21 42  1  0  0  0  0
 22 50  1  0  0  0  0
 23 43  1  0  0  0  0
 24 71  1  0  0  0  0
 25 30  2  0  0  0  0
 25 72  1  0  0  0  0
 26 83  1  0  0  0  0
 27 84  1  0  0  0  0
 28 31  2  0  0  0  0
 28 83  1  0  0  0  0
 29 85  1  0  0  0  0
 30 86  1  0  0  0  0
 31 87  1  0  0  0  0
 32 65  2  0  0  0  0
 33 66  1  0  0  0  0
 33 69  1  0  0  0  0
 34 70  1  0  0  0  0
 34 76  2  0  0  0  0
 35 51  1  0  0  0  0
 35 73  1  0  0  0  0
 35 77  2  0  0  0  0
 36 58  1  0  0  0  0
 36 60  1  0  0  0  0
 36 78  2  0  0  0  0
 37 59  1  0  0  0  0
 37 61  1  0  0  0  0
 37 79  2  0  0  0  0
 38 62  1  0  0  0  0
 38 67  1  0  0  0  0
 38 80  2  0  0  0  0
 39 63  1  0  0  0  0
 39 74  1  0  0  0  0
 39 81  2  0  0  0  0
 40 68  1  0  0  0  0
 40 71  1  0  0  0  0
 40 82  2  0  0  0  0
 41 44  1  0  0  0  0
 42 51  1  0  0  0  0
 43 67  1  0  0  0  0
 44 46  1  0  0  0  0
 45 47  1  0  0  0  0
 45 48  1  0  0  0  0
 46 50  1  0  0  0  0
 47 52  1  0  0  0  0
 48 68  1  0  0  0  0
 49 52  1  0  0  0  0
 49 68  1  0  0  0  0
 50 73  1  0  0  0  0
 51 67  1  0  0  0  0
 52 66  1  0  0  0  0
 53 63  1  0  0  0  0
 54 64  1  0  0  0  0
 55 64  1  0  0  0  0
 56 64  1  0  0  0  0
 57 75  1  0  0  0  0
 58 59  1  0  0  0  0
 60 72  1  0  0  0  0
 61 84  1  0  0  0  0
 62 64  1  0  0  0  0
 62 74  1  0  0  0  0
 63 75  1  0  0  0  0
 65 66  1  0  0  0  0
M  CHG  1  75   1
M  ISO  4  40 100  61 101  71 100  84 101
M  END
> <Batch ID>
0145

> <Smiles>
CNC(C)C(=O)NC(C(=O)N1Cc2cc([101O:1][101CH2:1]C(=O)CCC(=O)CNc3cc([100NH:0][100C:0](=O)N4CCCC(n5nc(-c6ccc(Oc7ccc(F)cc7F)cc6)c(C(N)=O)c5N)C4)ccc3F)ccc2CC1C(=O)NC1CCCc2ccccc21)C(C)(C)C

> <Shape>
0.269

> <Color>
0.097

> <Negative vol penalty>
0.000

$$$$

  -OEChem-04052303073D

 83 92  0     1  0  0  0  0  0999 V2000
  -29.6807  -36.2133   19.1775 C   0  0  0  0  0  0  0  0  0  0  0  0
  -29.6731  -34.8451   18.9255 C   0  0  0  0  0  0  0  0  0  0  0  0
  -22.8944  -11.9943   22.9918 C   0  0  0  0  0  0  0  0  0  0  0  0
  -23.7863  -14.2105   23.3521 C   0  0  0  0  0  0  0  0  0  0  0  0
  -29.2298  -36.6975   20.4047 C   0  0  0  0  0  0  0  0  0  0  0  0
  -29.2153  -33.9602   19.9012 C   0  0  0  0  0  0  0  0  0  0  0  0
  -26.1746  -28.7234   18.9867 C   0  0  0  0  0  0  0  0  0  0  0  0
  -22.1421  -12.1069   24.1610 C   0  0  0  0  0  0  0  0  0  0  0  0
  -23.0340  -14.3232   24.5213 C   0  0  0  0  0  0  0  0  0  0  0  0
  -26.5877  -27.3922   18.9550 C   0  0  0  0  0  0  0  0  0  0  0  0
  -19.2671  -13.5933   25.1397 C   0  0  0  0  0  0  0  0  0  0  0  0
  -17.9335  -13.1870   25.0942 C   0  0  0  0  0  0  0  0  0  0  0  0
  -25.9513  -27.1459   21.2688 C   0  0  0  0  0  0  0  0  0  0  0  0
  -29.5724  -18.6389   19.4811 C   0  0  0  0  0  0  0  0  0  0  0  0
  -18.3743  -11.5477   26.8134 C   0  0  0  0  0  0  0  0  0  0  0  0
  -31.6706  -17.6979   19.1428 C   0  0  0  0  0  0  0  0  0  0  0  0
  -23.7165  -13.0461   22.5874 C   0  0  0  0  0  0  0  0  0  0  0  0
  -24.0109  -12.7256   20.0738 C   0  0  0  0  0  0  0  0  0  0  0  0
  -28.7573  -35.8188   21.3923 C   0  0  0  0  0  0  0  0  0  0  0  0
  -25.6561  -29.2799   20.1648 C   0  0  0  0  0  0  0  0  0  0  0  0
  -28.7589  -34.4330   21.1433 C   0  0  0  0  0  0  0  0  0  0  0  0
  -25.5300  -28.4837   21.3121 C   0  0  0  0  0  0  0  0  0  0  0  0
  -30.3656  -17.4556   19.5113 C   0  0  0  0  0  0  0  0  0  0  0  0
  -22.2119  -13.2714   24.9258 C   0  0  0  0  0  0  0  0  0  0  0  0
  -26.4787  -26.6040   20.0969 C   0  0  0  0  0  0  0  0  0  0  0  0
  -20.1543  -12.9767   26.0220 C   0  0  0  0  0  0  0  0  0  0  0  0
  -17.4871  -12.1642   25.9310 C   0  0  0  0  0  0  0  0  0  0  0  0
  -19.7079  -11.9540   26.8588 C   0  0  0  0  0  0  0  0  0  0  0  0
  -24.4943  -12.9301   21.3800 C   0  0  0  0  0  0  0  0  0  0  0  0
  -30.3015  -19.7407   19.0908 C   0  0  0  0  0  0  0  0  0  0  0  0
  -25.1395  -12.6879   19.2920 C   0  0  0  0  0  0  0  0  0  0  0  0
  -22.6622  -12.5826   19.6087 C   0  0  0  0  0  0  0  0  0  0  0  0
  -26.5235  -31.6499   22.0973 C   0  0  0  0  0  0  0  0  0  0  0  0
  -23.6899  -30.9949   23.5339 C   0  0  0  0  0  0  0  0  0  0  0  0
  -21.2113  -28.7328   24.1554 C   0  0  0  0  0  0  0  0  0  0  0  0
  -30.6203  -14.9832   19.9218 C   0  0  0  0  0  0  0  0  0  0  0  0
  -28.3241  -36.3855   22.7211 C   0  0  0  0  0  0  0  0  0  0  0  0
  -25.1901  -30.7100   20.1751 C   0  0  0  0  0  0  0  0  0  0  0  0
  -24.9611  -29.0276   22.5962 C   0  0  0  0  0  0  0  0  0  0  0  0
  -27.5045  -35.4096   23.5614 C   0  0  0  0  0  0  0  0  0  0  0  0
  -29.7876  -11.5500   19.4782 C   0  0  0  0  0  0  0  0  0  0  0  0
  -28.1655  -34.0350   23.5795 C   0  0  0  0  0  0  0  0  0  0  0  0
  -29.3486  -21.7703   20.2653 C   0  0  0  0  0  0  0  0  0  0  0  0
  -28.7522  -21.3084   17.8466 C   0  0  0  0  0  0  0  0  0  0  0  0
  -28.8915  -23.2191   20.0980 C   0  0  0  0  0  0  0  0  0  0  0  0
  -28.2966  -22.7584   17.6853 C   0  0  0  0  0  0  0  0  0  0  0  0
  -28.2904  -11.4967   19.7908 C   0  0  0  0  0  0  0  0  0  0  0  0
  -30.5201  -12.5427   20.3791 C   0  0  0  0  0  0  0  0  0  0  0  0
  -28.4550  -13.8435   20.7142 C   0  0  0  0  0  0  0  0  0  0  0  0
  -28.2467  -33.4433   22.1671 C   0  0  1  0  0  0  0  0  0  0  0  0
  -29.8333  -21.1758   18.9323 C   0  0  0  0  0  0  0  0  0  0  0  0
  -25.1548  -31.3168   21.5743 C   0  0  1  0  0  0  0  0  0  0  0  0
  -27.8130  -23.3522   19.0149 C   0  0  0  0  0  0  0  0  0  0  0  0
  -27.6638  -12.9049   19.7885 C   0  0  2  0  0  0  0  0  0  0  0  0
  -19.0439  -28.4760   25.3940 C   0  0  0  0  0  0  0  0  0  0  0  0
  -25.2236  -30.7337   26.1586 C   0  0  0  0  0  0  0  0  0  0  0  0
  -23.2284  -29.5732   27.1284 C   0  0  0  0  0  0  0  0  0  0  0  0
  -23.0369  -31.9331   26.3431 C   0  0  0  0  0  0  0  0  0  0  0  0
  -19.7121  -28.2093   21.6579 C   0  0  0  0  0  0  0  0  0  0  0  0
  -27.4067  -24.8138   18.8360 C   0  0  0  0  0  0  0  0  0  1  0  0
  -23.2409  -30.0736   24.6423 C   0  0  1  0  0  0  0  0  0  0  0  0
  -19.6997  -28.8467   24.0729 C   0  0  2  0  0  0  0  0  0  0  0  0
  -23.6950  -30.5684   26.0446 C   0  0  0  0  0  0  0  0  0  0  0  0
  -25.8263  -13.0161   21.4293 N   0  0  0  0  0  0  0  0  0  0  0  0
  -26.1894  -12.8648   20.1443 N   0  0  0  0  0  0  0  0  0  0  0  0
  -24.5253  -30.4333   22.5579 N   0  0  0  0  0  0  0  0  0  0  0  0
  -29.8732  -13.8554   20.3229 N   0  0  0  0  0  0  0  0  0  0  0  0
  -25.3263  -12.5208   17.9655 N   0  0  0  0  0  0  0  0  0  0  0  0
  -21.9610  -13.7348   19.2280 N   0  0  0  0  0  0  0  0  0  0  0  0
  -29.8911  -16.1709   19.8749 N   0  0  0  0  0  0  0  0  0  0  0  0
  -26.9597  -32.9181   21.7644 N   0  0  0  0  0  0  0  0  0  0  0  0
  -21.7960  -29.9339   24.4970 N   0  0  0  0  0  0  0  0  0  0  0  0
  -19.1691  -27.9416   23.0145 N   0  3  0  0  0  0  0  0  0  0  0  0
  -22.0901  -11.4678   19.5484 O   0  0  0  0  0  0  0  0  0  0  0  0
  -27.1377  -30.8184   22.7553 O   0  0  0  0  0  0  0  0  0  0  0  0
  -23.3074  -32.1676   23.5301 O   0  0  0  0  0  0  0  0  0  0  0  0
  -21.8128  -27.6825   23.9421 O   0  0  0  0  0  0  0  0  0  0  0  0
  -31.8120  -14.8964   19.6146 O   0  0  0  0  0  0  0  0  0  0  0  0
  -21.4778  -13.3818   26.0666 O   0  0  0  0  0  0  0  0  0  0  0  0
  -26.8818  -25.3045   20.0688 O   0  0  0  0  0  0  0  0  0  1  0  0
  -16.2061  -11.7752   25.8883 F   0  0  0  0  0  0  0  0  0  0  0  0
  -20.5553  -11.3587   27.7094 F   0  0  0  0  0  0  0  0  0  0  0  0
  -31.9353  -19.3465   18.7626 S   0  0  0  0  0  0  0  0  0  0  0  0
  1  2  1  0  0  0  0
  1  5  2  0  0  0  0
  2  6  2  0  0  0  0
  3  8  2  0  0  0  0
  3 17  1  0  0  0  0
  4  9  1  0  0  0  0
  4 17  2  0  0  0  0
  5 19  1  0  0  0  0
  6 21  1  0  0  0  0
  7 10  2  0  0  0  0
  7 20  1  0  0  0  0
  8 24  1  0  0  0  0
  9 24  2  0  0  0  0
 10 25  1  0  0  0  0
 11 12  2  0  0  0  0
 11 26  1  0  0  0  0
 12 27  1  0  0  0  0
 13 22  1  0  0  0  0
 13 25  2  0  0  0  0
 14 23  1  0  0  0  0
 14 30  2  0  0  0  0
 15 27  2  0  0  0  0
 15 28  1  0  0  0  0
 16 23  2  0  0  0  0
 16 83  1  0  0  0  0
 17 29  1  0  0  0  0
 18 29  1  0  0  0  0
 18 31  2  0  0  0  0
 18 32  1  0  0  0  0
 19 21  2  0  0  0  0
 19 37  1  0  0  0  0
 20 22  2  0  0  0  0
 20 38  1  0  0  0  0
 21 50  1  0  0  0  0
 22 39  1  0  0  0  0
 23 70  1  0  0  0  0
 24 79  1  0  0  0  0
 25 80  1  0  0  0  0
 26 28  2  0  0  0  0
 26 79  1  0  0  0  0
 27 81  1  0  0  0  0
 28 82  1  0  0  0  0
 29 64  2  0  0  0  0
 30 51  1  0  0  0  0
 30 83  1  0  0  0  0
 31 65  1  0  0  0  0
 31 68  1  0  0  0  0
 32 69  1  0  0  0  0
 32 74  2  0  0  0  0
 33 52  1  0  0  0  0
 33 71  1  0  0  0  0
 33 75  2  0  0  0  0
 34 61  1  0  0  0  0
 34 66  1  0  0  0  0
 34 76  2  0  0  0  0
 35 62  1  0  0  0  0
 35 72  1  0  0  0  0
 35 77  2  0  0  0  0
 36 67  1  0  0  0  0
 36 70  1  0  0  0  0
 36 78  2  0  0  0  0
 37 40  1  0  0  0  0
 38 52  1  0  0  0  0
 39 66  1  0  0  0  0
 40 42  1  0  0  0  0
 41 47  1  0  0  0  0
 41 48  1  0  0  0  0
 42 50  1  0  0  0  0
 43 45  1  0  0  0  0
 43 51  1  0  0  0  0
 44 46  1  0  0  0  0
 44 51  1  0  0  0  0
 45 53  1  0  0  0  0
 46 53  1  0  0  0  0
 47 54  1  0  0  0  0
 48 67  1  0  0  0  0
 49 54  1  0  0  0  0
 49 67  1  0  0  0  0
 50 71  1  0  0  0  0
 52 66  1  0  0  0  0
 53 60  1  0  0  0  0
 54 65  1  0  0  0  0
 55 62  1  0  0  0  0
 56 63  1  0  0  0  0
 57 63  1  0  0  0  0
 58 63  1  0  0  0  0
 59 73  1  0  0  0  0
 60 80  1  0  0  0  0
 61 63  1  0  0  0  0
 61 72  1  0  0  0  0
 62 73  1  0  0  0  0
 64 65  1  0  0  0  0
M  CHG  1  73   1
M  ISO  4  36 100  60 101  70 100  80 101
M  END
> <Batch ID>
0145

> <Smiles>
CNC(C)C(=O)NC(C(=O)N1Cc2cc([101O:1][101CH2:1]C3CCC(c4cc([100NH:0][100C:0](=O)N5CCCC(n6nc(-c7ccc(Oc8ccc(F)cc8F)cc7)c(C(N)=O)c6N)C5)cs4)CC3)ccc2CC1C(=O)NC1CCCc2ccccc21)C(C)(C)C

> <Shape>
0.240

> <Color>
0.101

> <Negative vol penalty>
0.000

$$$$

  -OEChem-04052303073D

 85 94  0     1  0  0  0  0  0999 V2000
  -16.6054  -27.2425   22.2825 C   0  0  0  0  0  0  0  0  0  0  0  0
  -17.4056  -27.5173   21.1781 C   0  0  0  0  0  0  0  0  0  0  0  0
  -26.1095  -12.6866   22.9829 C   0  0  0  0  0  0  0  0  0  0  0  0
  -26.2538  -12.0065   20.6691 C   0  0  0  0  0  0  0  0  0  0  0  0
  -16.7739  -27.9673   23.4616 C   0  0  0  0  0  0  0  0  0  0  0  0
  -18.3740  -28.5179   21.2518 C   0  0  0  0  0  0  0  0  0  0  0  0
  -25.2808  -27.0908   19.9598 C   0  0  0  0  0  0  0  0  0  0  0  0
  -26.7498  -11.5091   23.3689 C   0  0  0  0  0  0  0  0  0  0  0  0
  -26.8941  -10.8290   21.0551 C   0  0  0  0  0  0  0  0  0  0  0  0
  -26.5819  -26.9582   19.4742 C   0  0  0  0  0  0  0  0  0  0  0  0
  -26.0242   -7.8292   22.3495 C   0  0  0  0  0  0  0  0  0  0  0  0
  -25.5986   -6.6376   21.7625 C   0  0  0  0  0  0  0  0  0  0  0  0
  -30.5306  -23.4297   19.3425 C   0  0  0  0  0  0  0  0  0  0  0  0
  -29.8460  -22.1979   19.5529 C   0  0  0  0  0  0  0  0  0  0  0  0
  -27.0337  -29.2691   20.0242 C   0  0  0  0  0  0  0  0  0  0  0  0
  -27.8163   -6.2843   20.8715 C   0  0  0  0  0  0  0  0  0  0  0  0
  -25.8614  -12.9353   21.6329 C   0  0  0  0  0  0  0  0  0  0  0  0
  -23.9141  -14.5830   21.6117 C   0  0  0  0  0  0  0  0  0  0  0  0
  -17.7514  -28.9707   23.5529 C   0  0  0  0  0  0  0  0  0  0  0  0
  -24.8550  -28.3104   20.4942 C   0  0  0  0  0  0  0  0  0  0  0  0
  -18.5548  -29.2577   22.4328 C   0  0  0  0  0  0  0  0  0  0  0  0
  -25.7357  -29.4040   20.5238 C   0  0  0  0  0  0  0  0  0  0  0  0
  -27.1421  -10.5803   22.4051 C   0  0  0  0  0  0  0  0  0  0  0  0
  -27.4561  -28.0448   19.5060 C   0  0  0  0  0  0  0  0  0  0  0  0
  -27.3459   -8.2484   22.1974 C   0  0  0  0  0  0  0  0  0  0  0  0
  -26.4946   -5.8652   21.0236 C   0  0  0  0  0  0  0  0  0  0  0  0
  -28.2419   -7.4760   21.4584 C   0  0  0  0  0  0  0  0  0  0  0  0
  -25.1995  -14.1512   21.2335 C   0  0  0  0  0  0  0  0  0  0  0  0
  -30.2038  -24.0033   18.1335 C   0  0  0  0  0  0  0  0  0  0  0  0
  -23.7541  -15.7874   20.9709 C   0  0  0  0  0  0  0  0  0  0  0  0
  -29.0218  -21.8771   18.4966 C   0  0  0  0  0  0  0  0  0  0  0  0
  -22.9508  -13.9520   22.4658 C   0  0  0  0  0  0  0  0  0  0  0  0
  -30.6893  -25.2665   17.5469 C   0  0  0  0  0  0  0  0  0  0  0  0
  -22.0728  -30.2992   21.9950 C   0  0  0  0  0  0  0  0  0  0  0  0
  -24.7773  -31.1052   23.4744 C   0  0  0  0  0  0  0  0  0  0  0  0
  -22.7289  -32.4199   26.1378 C   0  0  0  0  0  0  0  0  0  0  0  0
  -27.9593  -19.6782   19.1449 C   0  0  0  0  0  0  0  0  0  0  0  0
  -17.8644  -29.7597   24.8333 C   0  0  0  0  0  0  0  0  0  0  0  0
  -23.4410  -28.5134   20.9684 C   0  0  0  0  0  0  0  0  0  0  0  0
  -25.2255  -30.7051   21.0766 C   0  0  0  0  0  0  0  0  0  0  0  0
  -19.1660  -30.5488   24.9496 C   0  0  0  0  0  0  0  0  0  0  0  0
  -25.7055  -17.5313   16.9009 C   0  0  0  0  0  0  0  0  0  0  0  0
  -19.4559  -31.2948   23.6511 C   0  0  0  0  0  0  0  0  0  0  0  0
  -24.7386  -16.9934   17.9531 C   0  0  0  0  0  0  0  0  0  0  0  0
  -26.3723  -18.8292   17.3390 C   0  0  0  0  0  0  0  0  0  0  0  0
  -26.7458  -17.5275   19.4419 C   0  0  0  0  0  0  0  0  0  0  0  0
  -31.5220  -27.6081   18.1541 C   0  0  0  0  0  0  0  0  0  0  0  0
  -30.9260  -26.4470   19.8561 C   0  0  0  0  0  0  0  0  0  0  0  0
  -19.6328  -30.3186   22.4817 C   0  0  1  0  0  0  0  0  0  0  0  0
  -23.3237  -29.4867   22.1584 C   0  0  1  0  0  0  0  0  0  0  0  0
  -25.2486  -17.1847   19.3953 C   0  0  2  0  0  0  0  0  0  0  0  0
  -31.0630  -27.9663   19.5882 C   0  0  0  0  0  0  0  0  0  0  0  0
  -32.5813  -29.9392   19.8133 C   0  0  0  0  0  0  0  0  0  0  0  0
  -23.3723  -33.5134   28.3028 C   0  0  0  0  0  0  0  0  0  0  0  0
  -24.5271  -28.2940   24.6341 C   0  0  0  0  0  0  0  0  0  0  0  0
  -23.5242  -29.3075   26.6920 C   0  0  0  0  0  0  0  0  0  0  0  0
  -25.8594  -29.8840   26.0310 C   0  0  0  0  0  0  0  0  0  0  0  0
  -21.1028  -34.8200   25.5426 C   0  0  0  0  0  0  0  0  0  0  0  0
  -32.1321  -28.6543   20.4301 C   0  0  0  0  0  0  0  0  0  0  0  0
  -29.7331  -28.7200   19.6364 C   0  0  0  0  0  0  0  0  0  1  0  0
  -23.9272  -30.8047   24.6853 C   0  0  1  0  0  0  0  0  0  0  0  0
  -22.9223  -33.7369   26.8674 C   0  0  2  0  0  0  0  0  0  0  0  0
  -24.4479  -29.5772   25.4850 C   0  0  0  0  0  0  0  0  0  0  0  0
  -25.8125  -15.0112   20.4158 N   0  0  0  0  0  0  0  0  0  0  0  0
  -24.9084  -15.9954   20.2748 N   0  0  0  0  0  0  0  0  0  0  0  0
  -31.0374  -26.2642   18.4199 N   0  0  0  0  0  0  0  0  0  0  0  0
  -24.4270  -30.4584   22.2827 N   0  0  0  0  0  0  0  0  0  0  0  0
  -27.0420  -18.7225   18.6434 N   0  0  0  0  0  0  0  0  0  0  0  0
  -22.7401  -16.6780   20.9407 N   0  0  0  0  0  0  0  0  0  0  0  0
  -22.0201  -13.0761   21.8906 N   0  0  0  0  0  0  0  0  0  0  0  0
  -28.1714  -20.7624   18.2892 N   0  0  0  0  0  0  0  0  0  0  0  0
  -20.9437  -29.7071   22.5278 N   0  0  0  0  0  0  0  0  0  0  0  0
  -23.8674  -32.0402   25.4588 N   0  0  0  0  0  0  0  0  0  0  0  0
  -21.6478  -34.5090   26.8892 N   0  3  0  0  0  0  0  0  0  0  0  0
  -22.9059  -14.1715   23.7001 O   0  0  0  0  0  0  0  0  0  0  0  0
  -30.7370  -25.3621   16.3231 O   0  0  0  0  0  0  0  0  0  0  0  0
  -22.1270  -31.3845   21.4286 O   0  0  0  0  0  0  0  0  0  0  0  0
  -25.7280  -31.8836   23.5868 O   0  0  0  0  0  0  0  0  0  0  0  0
  -21.6747  -31.7890   26.1701 O   0  0  0  0  0  0  0  0  0  0  0  0
  -28.4962  -19.5449   20.2466 O   0  0  0  0  0  0  0  0  0  0  0  0
  -27.7672   -9.4313   22.7814 O   0  0  0  0  0  0  0  0  0  0  0  0
  -28.7263  -27.9075   19.0343 O   0  0  0  0  0  0  0  0  0  1  0  0
  -26.0861   -4.7201   20.4612 F   0  0  0  0  0  0  0  0  0  0  0  0
  -29.5132   -7.8730   21.3098 F   0  0  0  0  0  0  0  0  0  0  0  0
  -29.0758  -23.0582   17.2579 S   0  0  0  0  0  0  0  0  0  0  0  0
  1  2  1  0  0  0  0
  1  5  2  0  0  0  0
  2  6  2  0  0  0  0
  3  8  2  0  0  0  0
  3 17  1  0  0  0  0
  4  9  1  0  0  0  0
  4 17  2  0  0  0  0
  5 19  1  0  0  0  0
  6 21  1  0  0  0  0
  7 10  2  0  0  0  0
  7 20  1  0  0  0  0
  8 23  1  0  0  0  0
  9 23  2  0  0  0  0
 10 24  1  0  0  0  0
 11 12  2  0  0  0  0
 11 25  1  0  0  0  0
 12 26  1  0  0  0  0
 13 14  1  0  0  0  0
 13 29  2  0  0  0  0
 14 31  2  0  0  0  0
 15 22  1  0  0  0  0
 15 24  2  0  0  0  0
 16 26  2  0  0  0  0
 16 27  1  0  0  0  0
 17 28  1  0  0  0  0
 18 28  1  0  0  0  0
 18 30  2  0  0  0  0
 18 32  1  0  0  0  0
 19 21  2  0  0  0  0
 19 38  1  0  0  0  0
 20 22  2  0  0  0  0
 20 39  1  0  0  0  0
 21 49  1  0  0  0  0
 22 40  1  0  0  0  0
 23 81  1  0  0  0  0
 24 82  1  0  0  0  0
 25 27  2  0  0  0  0
 25 81  1  0  0  0  0
 26 83  1  0  0  0  0
 27 84  1  0  0  0  0
 28 64  2  0  0  0  0
 29 33  1  0  0  0  0
 29 85  1  0  0  0  0
 30 65  1  0  0  0  0
 30 69  1  0  0  0  0
 31 71  1  0  0  0  0
 31 85  1  0  0  0  0
 32 70  1  0  0  0  0
 32 75  2  0  0  0  0
 33 66  1  0  0  0  0
 33 76  2  0  0  0  0
 34 50  1  0  0  0  0
 34 72  1  0  0  0  0
 34 77  2  0  0  0  0
 35 61  1  0  0  0  0
 35 67  1  0  0  0  0
 35 78  2  0  0  0  0
 36 62  1  0  0  0  0
 36 73  1  0  0  0  0
 36 79  2  0  0  0  0
 37 68  1  0  0  0  0
 37 71  1  0  0  0  0
 37 80  2  0  0  0  0
 38 41  1  0  0  0  0
 39 50  1  0  0  0  0
 40 67  1  0  0  0  0
 41 43  1  0  0  0  0
 42 44  1  0  0  0  0
 42 45  1  0  0  0  0
 43 49  1  0  0  0  0
 44 51  1  0  0  0  0
 45 68  1  0  0  0  0
 46 51  1  0  0  0  0
 46 68  1  0  0  0  0
 47 52  1  0  0  0  0
 47 66  1  0  0  0  0
 48 52  1  0  0  0  0
 48 66  1  0  0  0  0
 49 72  1  0  0  0  0
 50 67  1  0  0  0  0
 51 65  1  0  0  0  0
 52 59  1  0  0  0  0
 52 60  1  0  0  0  0
 53 59  1  0  0  0  0
 54 62  1  0  0  0  0
 55 63  1  0  0  0  0
 56 63  1  0  0  0  0
 57 63  1  0  0  0  0
 58 74  1  0  0  0  0
 60 82  1  0  0  0  0
 61 63  1  0  0  0  0
 61 73  1  0  0  0  0
 62 74  1  0  0  0  0
 64 65  1  0  0  0  0
M  CHG  1  74   1
M  ISO  4  37 100  60 101  71 100  82 101
M  END
> <Batch ID>
0145

> <Smiles>
CCC1([101CH2:1][101O:1]c2ccc3c(c2)CN(C(=O)C(NC(=O)C(C)NC)C(C)(C)C)C(C(=O)NC2CCCc4ccccc42)C3)CN(C(=O)c2ccc([100NH:0][100C:0](=O)N3CCCC(n4nc(-c5ccc(Oc6ccc(F)cc6F)cc5)c(C(N)=O)c4N)C3)s2)C1

> <Shape>
0.264

> <Color>
0.090

> <Negative vol penalty>
0.000

$$$$

  -OEChem-04052303073D

 90 98  0     1  0  0  0  0  0999 V2000
  -19.0012  -24.8245   24.1620 C   0  0  0  0  0  0  0  0  0  0  0  0
  -20.3692  -24.6744   23.9586 C   0  0  0  0  0  0  0  0  0  0  0  0
  -24.3498   -8.9671   21.1326 C   0  0  0  0  0  0  0  0  0  0  0  0
  -25.1209   -9.9740   23.1890 C   0  0  0  0  0  0  0  0  0  0  0  0
  -18.3582  -25.9873   23.7396 C   0  0  0  0  0  0  0  0  0  0  0  0
  -21.0949  -25.6866   23.3316 C   0  0  0  0  0  0  0  0  0  0  0  0
  -26.8736  -27.3415   24.5038 C   0  0  0  0  0  0  0  0  0  0  0  0
  -24.3625   -7.7125   21.7421 C   0  0  0  0  0  0  0  0  0  0  0  0
  -25.1336   -8.7194   23.7985 C   0  0  0  0  0  0  0  0  0  0  0  0
  -28.0821  -27.0349   23.8798 C   0  0  0  0  0  0  0  0  0  0  0  0
  -22.4035   -5.9540   23.8640 C   0  0  0  0  0  0  0  0  0  0  0  0
  -21.3021   -5.1229   23.6597 C   0  0  0  0  0  0  0  0  0  0  0  0
  -27.9431  -29.0854   22.6167 C   0  0  0  0  0  0  0  0  0  0  0  0
  -22.7421   -3.4608   22.6592 C   0  0  0  0  0  0  0  0  0  0  0  0
  -24.7290  -10.0978   21.8560 C   0  0  0  0  0  0  0  0  0  0  0  0
  -23.6458  -12.3068   21.1816 C   0  0  0  0  0  0  0  0  0  0  0  0
  -19.0781  -27.0184   23.1157 C   0  0  0  0  0  0  0  0  0  0  0  0
  -26.1842  -28.5190   24.1805 C   0  0  0  0  0  0  0  0  0  0  0  0
  -20.4607  -26.8637   22.8992 C   0  0  0  0  0  0  0  0  0  0  0  0
  -26.7273  -29.4059   23.2400 C   0  0  0  0  0  0  0  0  0  0  0  0
  -27.8889  -21.0915   21.4557 C   0  0  0  0  0  0  0  0  0  0  0  0
  -28.2612  -19.9218   20.7324 C   0  0  0  0  0  0  0  0  0  0  0  0
  -24.7544   -7.5886   23.0750 C   0  0  0  0  0  0  0  0  0  0  0  0
  -28.6155  -27.9055   22.9340 C   0  0  0  0  0  0  0  0  0  0  0  0
  -23.6742   -5.5386   23.4659 C   0  0  0  0  0  0  0  0  0  0  0  0
  -21.4714   -3.8762   23.0573 C   0  0  0  0  0  0  0  0  0  0  0  0
  -23.8435   -4.2920   22.8635 C   0  0  0  0  0  0  0  0  0  0  0  0
  -24.7166  -11.3940   21.2268 C   0  0  0  0  0  0  0  0  0  0  0  0
  -26.6069  -21.0065   21.9526 C   0  0  0  0  0  0  0  0  0  0  0  0
  -24.1367  -13.3771   20.4745 C   0  0  0  0  0  0  0  0  0  0  0  0
  -27.2496  -18.9871   20.7042 C   0  0  0  0  0  0  0  0  0  0  0  0
  -22.3256  -12.1970   21.7298 C   0  0  0  0  0  0  0  0  0  0  0  0
  -23.3393  -29.1803   22.9264 C   0  0  0  0  0  0  0  0  0  0  0  0
  -31.7390  -26.2348   21.9035 C   0  0  0  0  0  0  0  0  0  0  0  0
  -24.1826  -32.2372   23.6092 C   0  0  0  0  0  0  0  0  0  0  0  0
  -26.6765  -34.4971   24.1750 C   0  0  0  0  0  0  0  0  0  0  0  0
  -28.1727  -17.0533   19.3794 C   0  0  0  0  0  0  0  0  0  0  0  0
  -18.3311  -28.2367   22.6338 C   0  0  0  0  0  0  0  0  0  0  0  0
  -24.8951  -28.8482   24.8821 C   0  0  0  0  0  0  0  0  0  0  0  0
  -26.0366  -30.6928   22.8724 C   0  0  0  0  0  0  0  0  0  0  0  0
  -19.2394  -29.4212   22.3142 C   0  0  0  0  0  0  0  0  0  0  0  0
  -28.3985  -13.8757   17.7893 C   0  0  0  0  0  0  0  0  0  0  0  0
  -20.4333  -28.9685   21.4797 C   0  0  0  0  0  0  0  0  0  0  0  0
  -27.3726  -13.0218   18.5381 C   0  0  0  0  0  0  0  0  0  0  0  0
  -29.1151  -14.8498   18.7227 C   0  0  0  0  0  0  0  0  0  0  0  0
  -27.2052  -14.8464   20.2788 C   0  0  0  0  0  0  0  0  0  0  0  0
  -21.2868  -27.9499   22.2449 C   0  0  1  0  0  0  0  0  0  0  0  0
  -24.0215  -29.8242   24.1001 C   0  0  1  0  0  0  0  0  0  0  0  0
  -26.4116  -13.8948   19.3687 C   0  0  2  0  0  0  0  0  0  0  0  0
  -25.8511  -21.9982   22.7505 C   0  0  0  0  0  0  0  0  0  0  0  0
  -33.3879  -24.5897   20.9342 C   0  0  0  0  0  0  0  0  0  0  0  0
  -31.5835  -27.5805   24.6850 C   0  0  0  0  0  0  0  0  0  0  0  0
  -27.0575  -36.9279   24.6683 C   0  0  0  0  0  0  0  0  0  0  0  0
  -28.9200  -25.8004   19.9306 C   0  0  0  0  0  0  0  0  0  0  0  0
  -23.5931  -32.9187   20.6941 C   0  0  0  0  0  0  0  0  0  0  0  0
  -24.8669  -35.0511   21.0076 C   0  0  0  0  0  0  0  0  0  0  0  0
  -22.8044  -34.6244   22.3442 C   0  0  0  0  0  0  0  0  0  0  0  0
  -27.9856  -33.8870   26.7582 C   0  0  0  0  0  0  0  0  0  0  0  0
  -28.7878  -22.2861   21.6575 C   0  0  0  0  0  0  0  0  0  0  0  0
  -32.5928  -25.0014   22.1606 C   0  0  0  0  0  0  0  0  0  0  0  0
  -30.6903  -26.4328   24.2229 C   0  0  0  0  0  0  0  0  0  0  0  0
  -28.4471  -23.5004   20.7807 C   0  0  0  0  0  0  0  0  0  0  0  0
  -29.4479  -25.2306   22.3817 C   0  0  0  0  0  0  0  0  0  0  0  0
  -24.9134  -33.3344   22.8735 C   0  0  1  0  0  0  0  0  0  0  0  0
  -26.8624  -35.5412   25.2612 C   0  0  2  0  0  0  0  0  0  0  0  0
  -29.3897  -24.7238   20.9163 C   0  0  2  0  0  0  0  0  0  0  0  0
  -30.4306  -26.3867   22.7001 C   0  0  2  0  0  0  0  0  0  1  0  0
  -24.0567  -33.9570   21.7351 C   0  0  0  0  0  0  0  0  0  0  0  0
  -25.8055  -11.8449   20.5983 N   0  0  0  0  0  0  0  0  0  0  0  0
  -25.4214  -13.0528   20.1514 N   0  0  0  0  0  0  0  0  0  0  0  0
  -24.7757  -30.9671   23.5812 N   0  0  0  0  0  0  0  0  0  0  0  0
  -28.1417  -15.6459   19.4734 N   0  0  0  0  0  0  0  0  0  0  0  0
  -29.4672  -19.7445   20.1400 N   0  0  0  0  0  0  0  0  0  0  0  0
  -23.5903  -14.5545   20.1036 N   0  0  0  0  0  0  0  0  0  0  0  0
  -21.9868  -11.0297   22.4276 N   0  0  0  0  0  0  0  0  0  0  0  0
  -27.1786  -17.7021   20.1112 N   0  0  0  0  0  0  0  0  0  0  0  0
  -22.1129  -28.6189   23.2270 N   0  0  0  0  0  0  0  0  0  0  0  0
  -25.3437  -34.2899   23.8885 N   0  0  0  0  0  0  0  0  0  0  0  0
  -28.0536  -35.2147   26.0951 N   0  3  0  0  0  0  0  0  0  0  0  0
  -21.4663  -13.1003   21.5906 O   0  0  0  0  0  0  0  0  0  0  0  0
  -23.8844  -29.1931   21.8290 O   0  0  0  0  0  0  0  0  0  0  0  0
  -32.0979  -27.1021   21.1039 O   0  0  0  0  0  0  0  0  0  0  0  0
  -23.1282  -32.4991   24.1933 O   0  0  0  0  0  0  0  0  0  0  0  0
  -27.6194  -33.9255   23.6322 O   0  0  0  0  0  0  0  0  0  0  0  0
  -29.0018  -17.6388   18.6782 O   0  0  0  0  0  0  0  0  0  0  0  0
  -24.7667   -6.3646   23.6701 O   0  0  0  0  0  0  0  0  0  0  0  0
  -29.8020  -27.6065   22.3190 O   0  0  0  0  0  0  0  0  0  1  0  0
  -20.4139   -3.0775   22.8626 F   0  0  0  0  0  0  0  0  0  0  0  0
  -25.0619   -3.8869   22.4800 F   0  0  0  0  0  0  0  0  0  0  0  0
  -25.8579  -19.5209   21.5471 S   0  0  0  0  0  0  0  0  0  0  0  0
  1  2  1  0  0  0  0
  1  5  2  0  0  0  0
  2  6  2  0  0  0  0
  3  8  2  0  0  0  0
  3 15  1  0  0  0  0
  4  9  1  0  0  0  0
  4 15  2  0  0  0  0
  5 17  1  0  0  0  0
  6 19  1  0  0  0  0
  7 10  2  0  0  0  0
  7 18  1  0  0  0  0
  8 23  1  0  0  0  0
  9 23  2  0  0  0  0
 10 24  1  0  0  0  0
 11 12  2  0  0  0  0
 11 25  1  0  0  0  0
 12 26  1  0  0  0  0
 13 20  1  0  0  0  0
 13 24  2  0  0  0  0
 14 26  2  0  0  0  0
 14 27  1  0  0  0  0
 15 28  1  0  0  0  0
 16 28  1  0  0  0  0
 16 30  2  0  0  0  0
 16 32  1  0  0  0  0
 17 19  2  0  0  0  0
 17 38  1  0  0  0  0
 18 20  2  0  0  0  0
 18 39  1  0  0  0  0
 19 47  1  0  0  0  0
 20 40  1  0  0  0  0
 21 22  1  0  0  0  0
 21 29  2  0  0  0  0
 21 59  1  0  0  0  0
 22 31  2  0  0  0  0
 22 73  1  0  0  0  0
 23 86  1  0  0  0  0
 24 87  1  0  0  0  0
 25 27  2  0  0  0  0
 25 86  1  0  0  0  0
 26 88  1  0  0  0  0
 27 89  1  0  0  0  0
 28 69  2  0  0  0  0
 29 50  1  0  0  0  0
 29 90  1  0  0  0  0
 30 70  1  0  0  0  0
 30 74  1  0  0  0  0
 31 76  1  0  0  0  0
 31 90  1  0  0  0  0
 32 75  1  0  0  0  0
 32 80  2  0  0  0  0
 33 48  1  0  0  0  0
 33 77  1  0  0  0  0
 33 81  2  0  0  0  0
 34 60  1  0  0  0  0
 34 67  1  0  0  0  0
 34 82  2  0  0  0  0
 35 64  1  0  0  0  0
 35 71  1  0  0  0  0
 35 83  2  0  0  0  0
 36 65  1  0  0  0  0
 36 78  1  0  0  0  0
 36 84  2  0  0  0  0
 37 72  1  0  0  0  0
 37 76  1  0  0  0  0
 37 85  2  0  0  0  0
 38 41  1  0  0  0  0
 39 48  1  0  0  0  0
 40 71  1  0  0  0  0
 41 43  1  0  0  0  0
 42 44  1  0  0  0  0
 42 45  1  0  0  0  0
 43 47  1  0  0  0  0
 44 49  1  0  0  0  0
 45 72  1  0  0  0  0
 46 49  1  0  0  0  0
 46 72  1  0  0  0  0
 47 77  1  0  0  0  0
 48 71  1  0  0  0  0
 49 70  1  0  0  0  0
 51 60  1  0  0  0  0
 52 61  1  0  0  0  0
 53 65  1  0  0  0  0
 54 66  1  0  0  0  0
 55 68  1  0  0  0  0
 56 68  1  0  0  0  0
 57 68  1  0  0  0  0
 58 79  1  0  0  0  0
 59 62  1  0  0  0  0
 61 67  1  0  0  0  0
 62 66  1  0  0  0  0
 63 66  1  0  0  0  0
 63 67  1  0  0  0  0
 64 68  1  0  0  0  0
 64 78  1  0  0  0  0
 65 79  1  0  0  0  0
 67 87  1  0  0  0  0
 69 70  1  0  0  0  0
M  CHG  1  79   1
M  ISO  4  37 100  67 101  76 100  87 101
M  END
> <Batch ID>
0145

> <Smiles>
CCC(=O)[101C:1](CC)(CC(C)CCc1c(C)sc([100NH:0][100C:0](=O)N2CCCC(n3nc(-c4ccc(Oc5ccc(F)cc5F)cc4)c(C(N)=O)c3N)C2)c1N)[101O:1]c1ccc2c(c1)CN(C(=O)C(NC(=O)C(C)NC)C(C)(C)C)C(C(=O)NC1CCCc3ccccc31)C2

> <Shape>
0.301

> <Color>
0.093

> <Negative vol penalty>
0.000

$$$$

  -OEChem-04052303073D

 88 97  0     1  0  0  0  0  0999 V2000
  -19.4517  -22.9658   19.7303 C   0  0  0  0  0  0  0  0  0  0  0  0
  -20.5202  -22.5578   20.5223 C   0  0  0  0  0  0  0  0  0  0  0  0
  -23.3345  -10.1611   22.2382 C   0  0  0  0  0  0  0  0  0  0  0  0
  -23.5782   -9.5453   19.9147 C   0  0  0  0  0  0  0  0  0  0  0  0
  -18.1977  -23.1696   20.3046 C   0  0  0  0  0  0  0  0  0  0  0  0
  -20.3355  -22.3545   21.8894 C   0  0  0  0  0  0  0  0  0  0  0  0
  -22.5013  -18.0801   23.5276 C   0  0  0  0  0  0  0  0  0  0  0  0
  -22.5892   -9.0044   22.4666 C   0  0  0  0  0  0  0  0  0  0  0  0
  -22.8329   -8.3886   20.1431 C   0  0  0  0  0  0  0  0  0  0  0  0
  -23.8814  -18.1004   23.7244 C   0  0  0  0  0  0  0  0  0  0  0  0
  -23.3394   -5.3230   21.4721 C   0  0  0  0  0  0  0  0  0  0  0  0
  -23.8160   -4.1293   20.9304 C   0  0  0  0  0  0  0  0  0  0  0  0
  -23.5332  -18.3953   26.0932 C   0  0  0  0  0  0  0  0  0  0  0  0
  -31.9520  -18.2098   24.2797 C   0  0  0  0  0  0  0  0  0  0  0  0
  -32.1220  -16.5085   22.5729 C   0  0  0  0  0  0  0  0  0  0  0  0
  -29.9540  -17.3483   23.2297 C   0  0  0  0  0  0  0  0  0  0  0  0
  -21.7796   -3.8966   19.6514 C   0  0  0  0  0  0  0  0  0  0  0  0
  -23.8290  -10.4316   20.9622 C   0  0  0  0  0  0  0  0  0  0  0  0
  -24.1802  -12.9578   20.9116 C   0  0  0  0  0  0  0  0  0  0  0  0
  -17.9952  -22.9593   21.6778 C   0  0  0  0  0  0  0  0  0  0  0  0
  -21.6254  -18.2284   24.6126 C   0  0  0  0  0  0  0  0  0  0  0  0
  -19.0779  -22.5569   22.4829 C   0  0  0  0  0  0  0  0  0  0  0  0
  -22.1424  -18.3739   25.9078 C   0  0  0  0  0  0  0  0  0  0  0  0
  -32.7314  -17.3628   23.4919 C   0  0  0  0  0  0  0  0  0  0  0  0
  -30.5633  -18.2025   24.1487 C   0  0  0  0  0  0  0  0  0  0  0  0
  -30.7333  -16.5012   22.4418 C   0  0  0  0  0  0  0  0  0  0  0  0
  -22.3384   -8.1181   21.4191 C   0  0  0  0  0  0  0  0  0  0  0  0
  -24.3976  -18.2610   25.0069 C   0  0  0  0  0  0  0  0  0  0  0  0
  -22.0828   -5.8035   21.1035 C   0  0  0  0  0  0  0  0  0  0  0  0
  -23.0361   -3.4161   20.0200 C   0  0  0  0  0  0  0  0  0  0  0  0
  -21.3029   -5.0904   20.1931 C   0  0  0  0  0  0  0  0  0  0  0  0
  -24.5985  -11.6266   20.7255 C   0  0  0  0  0  0  0  0  0  0  0  0
  -25.2686  -13.7135   20.5499 C   0  0  0  0  0  0  0  0  0  0  0  0
  -27.8895  -20.8600   25.9700 C   0  0  0  0  0  0  0  0  0  0  0  0
  -27.6219  -19.5476   25.9985 C   0  0  0  0  0  0  0  0  0  0  0  0
  -29.2604  -21.3321   25.6884 C   0  0  0  0  0  0  0  0  0  0  0  0
  -22.9205  -13.4659   21.3706 C   0  0  0  0  0  0  0  0  0  0  0  0
  -19.4066  -20.3526   25.4300 C   0  0  0  0  0  0  0  0  0  0  0  0
  -18.8444  -18.2565   27.8410 C   0  0  0  0  0  0  0  0  0  0  0  0
  -20.0230  -15.7499   29.8346 C   0  0  0  0  0  0  0  0  0  0  0  0
  -30.7419  -14.7310   20.6494 C   0  0  0  0  0  0  0  0  0  0  0  0
  -16.6329  -23.2382   22.2618 C   0  0  0  0  0  0  0  0  0  0  0  0
  -20.1392  -18.1774   24.3870 C   0  0  0  0  0  0  0  0  0  0  0  0
  -21.2446  -18.5168   27.1086 C   0  0  0  0  0  0  0  0  0  0  0  0
  -30.3444  -20.3323   25.3718 C   0  0  0  0  0  0  0  0  0  0  0  0
  -16.4316  -22.6388   23.6512 C   0  0  0  0  0  0  0  0  0  0  0  0
  -29.5706  -12.3944   18.2317 C   0  0  0  0  0  0  0  0  0  0  0  0
  -17.6367  -22.9325   24.5390 C   0  0  0  0  0  0  0  0  0  0  0  0
  -28.1382  -12.0958   18.6802 C   0  0  0  0  0  0  0  0  0  0  0  0
  -30.5099  -12.5831   19.4216 C   0  0  0  0  0  0  0  0  0  0  0  0
  -28.6335  -13.2733   20.8610 C   0  0  0  0  0  0  0  0  0  0  0  0
  -18.9113  -22.3019   23.9652 C   0  0  1  0  0  0  0  0  0  0  0  0
  -28.6619  -18.4836   25.7152 C   0  0  2  0  0  0  0  0  0  0  0  0
  -19.3425  -18.8530   25.4989 C   0  0  1  0  0  0  0  0  0  0  0  0
  -27.6372  -13.1396   19.6976 C   0  0  2  0  0  0  0  0  0  0  0  0
  -29.1815  -17.8528   27.0118 C   0  0  0  0  0  0  0  0  0  0  0  0
  -34.7060  -16.3714   24.6769 C   0  0  0  0  0  0  0  0  0  0  0  0
  -19.3440  -14.2630   31.7388 C   0  0  0  0  0  0  0  0  0  0  0  0
  -19.1841  -20.5881   29.7796 C   0  0  0  0  0  0  0  0  0  0  0  0
  -19.4449  -18.9213   31.6294 C   0  0  0  0  0  0  0  0  0  0  0  0
  -17.3114  -19.0287   30.3414 C   0  0  0  0  0  0  0  0  0  0  0  0
  -20.4041  -13.3037   28.2128 C   0  0  0  0  0  0  0  0  0  0  0  0
  -34.2161  -17.3707   23.6321 C   0  0  0  0  0  0  0  0  0  0  0  0
  -26.2303  -19.0590   26.2954 C   0  0  0  0  0  0  0  0  0  1  0  0
  -19.3762  -18.0703   29.2415 C   0  0  1  0  0  0  0  0  0  0  0  0
  -19.4264  -14.4103   30.2274 C   0  0  2  0  0  0  0  0  0  0  0  0
  -18.8464  -19.1514   30.2253 C   0  0  0  0  0  0  0  0  0  0  0  0
  -25.8545  -11.5383   20.2799 N   0  0  0  0  0  0  0  0  0  0  0  0
  -26.2349  -12.8236   20.1830 N   0  0  0  0  0  0  0  0  0  0  0  0
  -29.7802  -19.0541   24.9409 N   0  0  2  0  0  0  0  0  0  0  0  0
  -19.7988  -18.4670   26.8357 N   0  0  0  0  0  0  0  0  0  0  0  0
  -29.9728  -13.5892   20.3403 N   0  0  0  0  0  0  0  0  0  0  0  0
  -25.4837  -15.0457   20.5129 N   0  0  0  0  0  0  0  0  0  0  0  0
  -21.9239  -13.7364   20.4230 N   0  0  0  0  0  0  0  0  0  0  0  0
  -30.1148  -15.6336   21.5077 N   0  0  0  0  0  0  0  0  0  0  0  0
  -18.9411  -20.8816   24.2414 N   0  0  0  0  0  0  0  0  0  0  0  0
  -19.0475  -16.7014   29.6244 N   0  0  0  0  0  0  0  0  0  0  0  0
  -20.2579  -13.2958   29.6912 N   0  3  0  0  0  0  0  0  0  0  0  0
  -29.5062  -22.5367   25.7531 O   0  0  0  0  0  0  0  0  0  0  0  0
  -22.6913  -13.6894   22.5835 O   0  0  0  0  0  0  0  0  0  0  0  0
  -19.8444  -20.9831   26.3852 O   0  0  0  0  0  0  0  0  0  0  0  0
  -17.6274  -18.2096   27.6451 O   0  0  0  0  0  0  0  0  0  0  0  0
  -21.2334  -15.9346   29.7288 O   0  0  0  0  0  0  0  0  0  0  0  0
  -31.8625  -14.9092   20.1651 O   0  0  0  0  0  0  0  0  0  0  0  0
  -21.6114   -6.9892   21.6416 O   0  0  0  0  0  0  0  0  0  0  0  0
  -25.7442  -18.2819   25.2017 O   0  0  0  0  0  0  0  0  0  1  0  0
  -23.4946   -2.2706   19.4987 F   0  0  0  0  0  0  0  0  0  0  0  0
  -20.0954   -5.5476   19.8344 F   0  0  0  0  0  0  0  0  0  0  0  0
  1  2  1  0  0  0  0
  1  5  2  0  0  0  0
  2  6  2  0  0  0  0
  3  8  2  0  0  0  0
  3 18  1  0  0  0  0
  4  9  1  0  0  0  0
  4 18  2  0  0  0  0
  5 20  1  0  0  0  0
  6 22  1  0  0  0  0
  7 10  2  0  0  0  0
  7 21  1  0  0  0  0
  8 27  1  0  0  0  0
  9 27  2  0  0  0  0
 10 28  1  0  0  0  0
 11 12  2  0  0  0  0
 11 29  1  0  0  0  0
 12 30  1  0  0  0  0
 13 23  1  0  0  0  0
 13 28  2  0  0  0  0
 14 24  2  0  0  0  0
 14 25  1  0  0  0  0
 15 24  1  0  0  0  0
 15 26  2  0  0  0  0
 16 25  2  0  0  0  0
 16 26  1  0  0  0  0
 17 30  2  0  0  0  0
 17 31  1  0  0  0  0
 18 32  1  0  0  0  0
 19 32  1  0  0  0  0
 19 33  2  0  0  0  0
 19 37  1  0  0  0  0
 20 22  2  0  0  0  0
 20 42  1  0  0  0  0
 21 23  2  0  0  0  0
 21 43  1  0  0  0  0
 22 52  1  0  0  0  0
 23 44  1  0  0  0  0
 24 63  1  0  0  0  0
 25 70  1  0  0  0  0
 26 75  1  0  0  0  0
 27 85  1  0  0  0  0
 28 86  1  0  0  0  0
 29 31  2  0  0  0  0
 29 85  1  0  0  0  0
 30 87  1  0  0  0  0
 31 88  1  0  0  0  0
 32 68  2  0  0  0  0
 33 69  1  0  0  0  0
 33 73  1  0  0  0  0
 34 35  2  0  0  0  0
 34 36  1  0  0  0  0
 35 53  1  0  0  0  0
 35 64  1  0  0  0  0
 36 45  1  0  0  0  0
 36 79  2  0  0  0  0
 37 74  1  0  0  0  0
 37 80  2  0  0  0  0
 38 54  1  0  0  0  0
 38 76  1  0  0  0  0
 38 81  2  0  0  0  0
 39 65  1  0  0  0  0
 39 71  1  0  0  0  0
 39 82  2  0  0  0  0
 40 66  1  0  0  0  0
 40 77  1  0  0  0  0
 40 83  2  0  0  0  0
 41 72  1  0  0  0  0
 41 75  1  0  0  0  0
 41 84  2  0  0  0  0
 42 46  1  0  0  0  0
 43 54  1  0  0  0  0
 44 71  1  0  0  0  0
 45 70  1  0  0  0  0
 46 48  1  0  0  0  0
 47 49  1  0  0  0  0
 47 50  1  0  0  0  0
 48 52  1  0  0  0  0
 49 55  1  0  0  0  0
 50 72  1  0  0  0  0
 51 55  1  0  0  0  0
 51 72  1  0  0  0  0
 52 76  1  0  0  0  0
 53 56  1  0  0  0  0
 53 70  1  0  0  0  0
 54 71  1  0  0  0  0
 55 69  1  0  0  0  0
 57 63  1  0  0  0  0
 58 66  1  0  0  0  0
 59 67  1  0  0  0  0
 60 67  1  0  0  0  0
 61 67  1  0  0  0  0
 62 78  1  0  0  0  0
 64 86  1  0  0  0  0
 65 67  1  0  0  0  0
 65 77  1  0  0  0  0
 66 78  1  0  0  0  0
 68 69  1  0  0  0  0
M  CHG  1  78   1
M  ISO  4  41 100  64 101  75 100  86 101
M  END
> <Batch ID>
0145

> <Smiles>
CCc1cc([100NH:0][100C:0](=O)N2CCCC(n3nc(-c4ccc(Oc5ccc(F)cc5F)cc4)c(C(N)=O)c3N)C2)cc(N2CC(=O)CC([101CH2:1][101O:1]c3ccc4c(c3)CN(C(=O)C(NC(=O)C(C)NC)C(C)(C)C)C(C(=O)NC3CCCc5ccccc53)C4)=C2C)c1

> <Shape>
0.144

> <Color>
0.156

> <Negative vol penalty>
0.000

$$$$

  -OEChem-04052303073D

 86 94  0     1  0  0  0  0  0999 V2000
  -37.1536  -16.9922   25.1781 C   0  0  0  0  0  0  0  0  0  0  0  0
  -36.3703  -17.4421   24.1201 C   0  0  0  0  0  0  0  0  0  0  0  0
  -23.0734   -9.8656   19.9529 C   0  0  0  0  0  0  0  0  0  0  0  0
  -23.8340   -9.8875   22.2459 C   0  0  0  0  0  0  0  0  0  0  0  0
  -36.8780  -17.4160   26.4775 C   0  0  0  0  0  0  0  0  0  0  0  0
  -35.3101  -18.3152   24.3610 C   0  0  0  0  0  0  0  0  0  0  0  0
  -31.7682  -23.7626   21.3448 C   0  0  0  0  0  0  0  0  0  0  0  0
  -22.3280   -8.7152   20.2111 C   0  0  0  0  0  0  0  0  0  0  0  0
  -23.0886   -8.7371   22.5042 C   0  0  0  0  0  0  0  0  0  0  0  0
  -30.4700  -24.1576   21.0246 C   0  0  0  0  0  0  0  0  0  0  0  0
  -19.8595   -7.9481   23.1132 C   0  0  0  0  0  0  0  0  0  0  0  0
  -19.1029   -7.9174   24.2846 C   0  0  0  0  0  0  0  0  0  0  0  0
  -30.1365  -24.8849   23.3004 C   0  0  0  0  0  0  0  0  0  0  0  0
  -29.3357  -18.9534   22.1987 C   0  0  0  0  0  0  0  0  0  0  0  0
  -20.3418   -5.9834   25.0342 C   0  0  0  0  0  0  0  0  0  0  0  0
  -23.8265  -10.4517   20.9703 C   0  0  0  0  0  0  0  0  0  0  0  0
  -24.1718  -12.9754   20.8325 C   0  0  0  0  0  0  0  0  0  0  0  0
  -35.8199  -18.3023   26.7332 C   0  0  0  0  0  0  0  0  0  0  0  0
  -32.2573  -23.9160   22.6500 C   0  0  0  0  0  0  0  0  0  0  0  0
  -35.0192  -18.7502   25.6652 C   0  0  0  0  0  0  0  0  0  0  0  0
  -31.4421  -24.4934   23.6339 C   0  0  0  0  0  0  0  0  0  0  0  0
  -29.9624  -17.7735   22.6938 C   0  0  0  0  0  0  0  0  0  0  0  0
  -22.3355   -8.1510   21.4867 C   0  0  0  0  0  0  0  0  0  0  0  0
  -29.6530  -24.7162   22.0031 C   0  0  0  0  0  0  0  0  0  0  0  0
  -20.8572   -6.9964   22.9022 C   0  0  0  0  0  0  0  0  0  0  0  0
  -19.3440   -6.9350   25.2451 C   0  0  0  0  0  0  0  0  0  0  0  0
  -21.0984   -6.0141   23.8627 C   0  0  0  0  0  0  0  0  0  0  0  0
  -24.5971  -11.6396   20.7040 C   0  0  0  0  0  0  0  0  0  0  0  0
  -29.6768  -17.5548   24.0235 C   0  0  0  0  0  0  0  0  0  0  0  0
  -25.2649  -13.7208   20.4637 C   0  0  0  0  0  0  0  0  0  0  0  0
  -28.5946  -19.5916   23.1690 C   0  0  0  0  0  0  0  0  0  0  0  0
  -22.9022  -13.4959   21.2482 C   0  0  0  0  0  0  0  0  0  0  0  0
  -33.2991  -21.9303   24.9029 C   0  0  0  0  0  0  0  0  0  0  0  0
  -34.0212  -24.6876   26.4515 C   0  0  0  0  0  0  0  0  0  0  0  0
  -27.6193  -21.6070   22.0160 C   0  0  0  0  0  0  0  0  0  0  0  0
  -33.4169  -28.0205   26.8677 C   0  0  0  0  0  0  0  0  0  0  0  0
  -30.7501  -14.7334   20.6433 C   0  0  0  0  0  0  0  0  0  0  0  0
  -35.5309  -18.6953   28.1604 C   0  0  0  0  0  0  0  0  0  0  0  0
  -33.6691  -23.5094   22.9728 C   0  0  0  0  0  0  0  0  0  0  0  0
  -31.9266  -24.6984   25.0452 C   0  0  0  0  0  0  0  0  0  0  0  0
  -34.6226  -19.9159   28.2841 C   0  0  0  0  0  0  0  0  0  0  0  0
  -29.6084  -12.3339   18.2735 C   0  0  0  0  0  0  0  0  0  0  0  0
  -33.4256  -19.7877   27.3473 C   0  0  0  0  0  0  0  0  0  0  0  0
  -28.1707  -12.0453   18.7089 C   0  0  0  0  0  0  0  0  0  0  0  0
  -30.5262  -12.5618   19.4726 C   0  0  0  0  0  0  0  0  0  0  0  0
  -28.6260  -13.3052   20.8546 C   0  0  0  0  0  0  0  0  0  0  0  0
  -33.8759  -19.7173   25.8832 C   0  0  1  0  0  0  0  0  0  0  0  0
  -33.8882  -23.2390   24.4581 C   0  0  1  0  0  0  0  0  0  0  0  0
  -27.6512  -13.1238   19.6785 C   0  0  2  0  0  0  0  0  0  0  0  0
  -31.2499  -16.8737   25.8532 C   0  0  0  0  0  0  0  0  0  0  0  0
  -34.1379  -29.9976   28.2347 C   0  0  0  0  0  0  0  0  0  0  0  0
  -27.3913  -25.3366   19.5222 C   0  0  0  0  0  0  0  0  0  0  0  0
  -32.4219  -23.6275   28.8239 C   0  0  0  0  0  0  0  0  0  0  0  0
  -32.3725  -25.9562   29.7419 C   0  0  0  0  0  0  0  0  0  0  0  0
  -34.5531  -24.7841   29.4358 C   0  0  0  0  0  0  0  0  0  0  0  0
  -34.3350  -29.4910   24.4689 C   0  0  0  0  0  0  0  0  0  0  0  0
  -30.8194  -16.8925   21.8651 C   0  0  0  0  0  0  0  0  0  0  0  0
  -30.1278  -16.4514   24.9017 C   0  0  0  0  0  0  0  0  0  0  0  0
  -26.7188  -22.7782   22.3891 C   0  0  0  0  0  0  0  0  0  0  0  0
  -26.4470  -23.7415   21.2306 C   0  0  0  0  0  0  0  0  0  0  0  0
  -33.2896  -25.6018   27.4043 C   0  0  1  0  0  0  0  0  0  0  0  0
  -34.3545  -29.2115   26.9509 C   0  0  2  0  0  0  0  0  0  0  0  0
  -27.7202  -24.3777   20.6593 C   0  0  2  0  0  0  0  0  0  1  0  0
  -33.1492  -24.9869   28.8254 C   0  0  0  0  0  0  0  0  0  0  0  0
  -25.8617  -11.5391   20.2860 N   0  0  0  0  0  0  0  0  0  0  0  0
  -26.2404  -12.8212   20.1486 N   0  0  0  0  0  0  0  0  0  0  0  0
  -33.3122  -24.2791   25.3130 N   0  0  0  0  0  0  0  0  0  0  0  0
  -29.9774  -13.5973   20.3515 N   0  0  0  0  0  0  0  0  0  0  0  0
  -25.4772  -15.0514   20.3813 N   0  0  0  0  0  0  0  0  0  0  0  0
  -21.8891  -12.5906   21.5921 N   0  0  0  0  0  0  0  0  0  0  0  0
  -27.8220  -20.7761   23.1144 N   0  0  0  0  0  0  0  0  0  0  0  0
  -34.2275  -21.0349   25.3987 N   0  0  0  0  0  0  0  0  0  0  0  0
  -33.9984  -26.8766   27.3722 N   0  0  0  0  0  0  0  0  0  0  0  0
  -30.1525  -15.6689   21.4790 N   0  0  0  0  0  0  0  0  0  0  0  0
  -34.1327  -30.1271   25.7961 N   0  3  0  0  0  0  0  0  0  0  0  0
  -22.6677  -14.7273   21.2971 O   0  0  0  0  0  0  0  0  0  0  0  0
  -32.0914  -21.7470   24.8050 O   0  0  0  0  0  0  0  0  0  0  0  0
  -35.1816  -24.3542   26.7043 O   0  0  0  0  0  0  0  0  0  0  0  0
  -28.0559  -21.4569   20.8796 O   0  0  0  0  0  0  0  0  0  0  0  0
  -32.2809  -28.0981   26.4050 O   0  0  0  0  0  0  0  0  0  0  0  0
  -31.8862  -14.9041   20.1881 O   0  0  0  0  0  0  0  0  0  0  0  0
  -21.6081   -7.0287   21.7391 O   0  0  0  0  0  0  0  0  0  0  0  0
  -28.3852  -25.1020   21.6935 O   0  0  0  0  0  0  0  0  0  1  0  0
  -18.6184   -6.9066   26.3706 F   0  0  0  0  0  0  0  0  0  0  0  0
  -22.0564   -5.0978   23.6662 F   0  0  0  0  0  0  0  0  0  0  0  0
  -28.6567  -18.7690   24.6696 S   0  0  0  0  0  0  0  0  0  0  0  0
  1  2  1  0  0  0  0
  1  5  2  0  0  0  0
  2  6  2  0  0  0  0
  3  8  2  0  0  0  0
  3 16  1  0  0  0  0
  4  9  1  0  0  0  0
  4 16  2  0  0  0  0
  5 18  1  0  0  0  0
  6 20  1  0  0  0  0
  7 10  2  0  0  0  0
  7 19  1  0  0  0  0
  8 23  1  0  0  0  0
  9 23  2  0  0  0  0
 10 24  1  0  0  0  0
 11 12  2  0  0  0  0
 11 25  1  0  0  0  0
 12 26  1  0  0  0  0
 13 21  1  0  0  0  0
 13 24  2  0  0  0  0
 14 22  1  0  0  0  0
 14 31  2  0  0  0  0
 15 26  2  0  0  0  0
 15 27  1  0  0  0  0
 16 28  1  0  0  0  0
 17 28  1  0  0  0  0
 17 30  2  0  0  0  0
 17 32  1  0  0  0  0
 18 20  2  0  0  0  0
 18 38  1  0  0  0  0
 19 21  2  0  0  0  0
 19 39  1  0  0  0  0
 20 47  1  0  0  0  0
 21 40  1  0  0  0  0
 22 29  2  0  0  0  0
 22 57  1  0  0  0  0
 23 82  1  0  0  0  0
 24 83  1  0  0  0  0
 25 27  2  0  0  0  0
 25 82  1  0  0  0  0
 26 84  1  0  0  0  0
 27 85  1  0  0  0  0
 28 65  2  0  0  0  0
 29 58  1  0  0  0  0
 29 86  1  0  0  0  0
 30 66  1  0  0  0  0
 30 69  1  0  0  0  0
 31 71  1  0  0  0  0
 31 86  1  0  0  0  0
 32 70  1  0  0  0  0
 32 76  2  0  0  0  0
 33 48  1  0  0  0  0
 33 72  1  0  0  0  0
 33 77  2  0  0  0  0
 34 61  1  0  0  0  0
 34 67  1  0  0  0  0
 34 78  2  0  0  0  0
 35 59  1  0  0  0  0
 35 71  1  0  0  0  0
 35 79  2  0  0  0  0
 36 62  1  0  0  0  0
 36 73  1  0  0  0  0
 36 80  2  0  0  0  0
 37 68  1  0  0  0  0
 37 74  1  0  0  0  0
 37 81  2  0  0  0  0
 38 41  1  0  0  0  0
 39 48  1  0  0  0  0
 40 67  1  0  0  0  0
 41 43  1  0  0  0  0
 42 44  1  0  0  0  0
 42 45  1  0  0  0  0
 43 47  1  0  0  0  0
 44 49  1  0  0  0  0
 45 68  1  0  0  0  0
 46 49  1  0  0  0  0
 46 68  1  0  0  0  0
 47 72  1  0  0  0  0
 48 67  1  0  0  0  0
 49 66  1  0  0  0  0
 50 58  1  0  0  0  0
 51 62  1  0  0  0  0
 52 63  1  0  0  0  0
 53 64  1  0  0  0  0
 54 64  1  0  0  0  0
 55 64  1  0  0  0  0
 56 75  1  0  0  0  0
 57 74  1  0  0  0  0
 59 60  1  0  0  0  0
 60 63  1  0  0  0  0
 61 64  1  0  0  0  0
 61 73  1  0  0  0  0
 62 75  1  0  0  0  0
 63 83  1  0  0  0  0
 65 66  1  0  0  0  0
M  CHG  1  75   1
M  ISO  4  37 100  63 101  74 100  83 101
M  END
> <Batch ID>
0145

> <Smiles>
CCc1sc(NC(=O)CC[101CH:1](C)[101O:1]c2ccc3c(c2)CN(C(=O)C(NC(=O)C(C)NC)C(C)(C)C)C(C(=O)NC2CCCc4ccccc42)C3)cc1C[100NH:0][100C:0](=O)N1CCCC(n2nc(-c3ccc(Oc4ccc(F)cc4F)cc3)c(C(N)=O)c2N)C1

> <Shape>
0.189

> <Color>
0.188

> <Negative vol penalty>
0.000

$$$$

  -OEChem-04052303073D

 85 94  0     1  0  0  0  0  0999 V2000
  -23.0540   -6.4023   23.9584 C   0  0  0  0  0  0  0  0  0  0  0  0
  -24.2971   -7.0212   24.0423 C   0  0  0  0  0  0  0  0  0  0  0  0
  -24.0140  -29.4628   21.1636 C   0  0  0  0  0  0  0  0  0  0  0  0
  -26.0202  -30.7878   21.4014 C   0  0  0  0  0  0  0  0  0  0  0  0
  -22.1623   -6.7655   22.9501 C   0  0  0  0  0  0  0  0  0  0  0  0
  -24.6496   -8.0031   23.1171 C   0  0  0  0  0  0  0  0  0  0  0  0
  -28.0716  -12.9760   24.1498 C   0  0  0  0  0  0  0  0  0  0  0  0
  -23.3747  -30.2604   22.1126 C   0  0  0  0  0  0  0  0  0  0  0  0
  -25.3809  -31.5855   22.3504 C   0  0  0  0  0  0  0  0  0  0  0  0
  -29.4189  -13.2517   23.9203 C   0  0  0  0  0  0  0  0  0  0  0  0
  -23.1595  -34.1322   22.3719 C   0  0  0  0  0  0  0  0  0  0  0  0
  -23.3112  -35.5145   22.2625 C   0  0  0  0  0  0  0  0  0  0  0  0
  -29.7318  -18.5643   20.3794 C   0  0  0  0  0  0  0  0  0  0  0  0
  -28.8405  -14.3069   21.8296 C   0  0  0  0  0  0  0  0  0  0  0  0
  -24.3140  -35.5782   24.4597 C   0  0  0  0  0  0  0  0  0  0  0  0
  -25.3368  -29.7264   20.8080 C   0  0  0  0  0  0  0  0  0  0  0  0
  -29.3225  -19.3163   19.2405 C   0  0  0  0  0  0  0  0  0  0  0  0
  -26.0326  -29.1005   18.4349 C   0  0  0  0  0  0  0  0  0  0  0  0
  -22.5002   -7.7592   22.0179 C   0  0  0  0  0  0  0  0  0  0  0  0
  -27.0982  -13.3546   23.2142 C   0  0  0  0  0  0  0  0  0  0  0  0
  -23.7621   -8.3791   22.0945 C   0  0  0  0  0  0  0  0  0  0  0  0
  -27.4814  -14.0371   22.0508 C   0  0  0  0  0  0  0  0  0  0  0  0
  -24.0581  -31.3218   22.7060 C   0  0  0  0  0  0  0  0  0  0  0  0
  -29.8038  -13.9147   22.7587 C   0  0  0  0  0  0  0  0  0  0  0  0
  -23.5850  -33.4729   23.5251 C   0  0  0  0  0  0  0  0  0  0  0  0
  -23.8885  -36.2375   23.3064 C   0  0  0  0  0  0  0  0  0  0  0  0
  -24.1623  -34.1959   24.5690 C   0  0  0  0  0  0  0  0  0  0  0  0
  -25.9980  -28.9025   19.8282 C   0  0  0  0  0  0  0  0  0  0  0  0
  -29.7531  -18.7468   18.0624 C   0  0  0  0  0  0  0  0  0  0  0  0
  -26.7820  -28.0531   17.9577 C   0  0  0  0  0  0  0  0  0  0  0  0
  -30.4595  -17.4485   20.0283 C   0  0  0  0  0  0  0  0  0  0  0  0
  -28.5618  -20.5102   19.3046 C   0  0  0  0  0  0  0  0  0  0  0  0
  -28.5839  -21.4443   20.3095 C   0  0  0  0  0  0  0  0  0  0  0  0
  -25.4403  -30.1386   17.6428 C   0  0  0  0  0  0  0  0  0  0  0  0
  -27.7343  -22.6492   20.2257 C   0  0  0  0  0  0  0  0  0  0  0  0
  -24.9892  -11.7978   21.4164 C   0  0  0  0  0  0  0  0  0  0  0  0
  -23.9941  -14.7948   20.6748 C   0  0  0  0  0  0  0  0  0  0  0  0
  -24.7344  -18.1179   20.4384 C   0  0  0  0  0  0  0  0  0  0  0  0
  -21.5220   -8.0847   20.9171 C   0  0  0  0  0  0  0  0  0  0  0  0
  -25.6464  -13.0736   23.4892 C   0  0  0  0  0  0  0  0  0  0  0  0
  -26.4732  -14.4830   21.0245 C   0  0  0  0  0  0  0  0  0  0  0  0
  -21.8245   -9.3993   20.2025 C   0  0  0  0  0  0  0  0  0  0  0  0
  -30.2894  -25.0706   19.2058 C   0  0  0  0  0  0  0  0  0  0  0  0
  -23.3075   -9.4904   19.8575 C   0  0  0  0  0  0  0  0  0  0  0  0
  -30.6563  -19.5795   15.7466 C   0  0  0  0  0  0  0  0  0  0  0  0
  -29.8955  -20.7217   16.3438 C   0  0  0  0  0  0  0  0  0  0  0  0
  -29.4742  -26.3606   19.1711 C   0  0  0  0  0  0  0  0  0  0  0  0
  -29.8158  -24.1246   20.3082 C   0  0  0  0  0  0  0  0  0  0  0  0
  -27.5427  -25.1060   20.2081 C   0  0  0  0  0  0  0  0  0  0  0  0
  -24.1712   -9.4661   21.1244 C   0  0  1  0  0  0  0  0  0  0  0  0
  -29.4810  -19.3018   16.6560 C   0  0  0  0  0  0  0  0  0  0  0  0
  -24.7927  -13.0488   22.2251 C   0  0  1  0  0  0  0  0  0  0  0  0
  -27.9715  -26.0525   19.0760 C   0  0  1  0  0  0  0  0  0  0  0  0
  -23.7299  -20.3168   19.7655 C   0  0  0  0  0  0  0  0  0  0  0  0
  -24.3146  -14.0391   17.7361 C   0  0  0  0  0  0  0  0  0  0  0  0
  -24.2318  -16.4770   17.1722 C   0  0  0  0  0  0  0  0  0  0  0  0
  -22.2678  -15.3808   18.2510 C   0  0  0  0  0  0  0  0  0  0  0  0
  -33.1014  -15.4872   22.6394 C   0  0  0  0  0  0  0  0  0  0  0  0
  -31.4741  -15.4536   24.5424 C   0  0  0  0  0  0  0  0  0  0  0  0
  -25.0838  -19.2406   23.1544 C   0  0  0  0  0  0  0  0  0  0  0  0
  -30.8659  -16.5782   22.3312 C   0  0  0  0  0  0  0  0  0  0  0  0
  -24.3527  -15.8088   19.6155 C   0  0  1  0  0  0  0  0  0  0  0  0
  -23.9886  -19.3522   20.9123 C   0  0  2  0  0  0  0  0  0  0  0  0
  -23.8112  -15.4164   18.2119 C   0  0  0  0  0  0  0  0  0  0  0  0
  -31.6192  -15.4289   23.0186 C   0  0  0  0  0  0  0  0  0  1  0  0
  -26.6717  -27.8146   20.2113 N   0  0  0  0  0  0  0  0  0  0  0  0
  -27.1366  -27.3197   19.0515 N   0  0  0  0  0  0  0  0  0  0  0  0
  -28.3658  -23.8917   20.2315 N   0  0  0  0  0  0  0  0  0  0  0  0
  -25.0666  -14.1795   21.3358 N   0  0  0  0  0  0  0  0  0  0  0  0
  -27.1655  -27.6970   16.7133 N   0  0  0  0  0  0  0  0  0  0  0  0
  -24.7028  -31.1371   18.2935 N   0  0  0  0  0  0  0  0  0  0  0  0
  -30.9984  -16.5109   20.8930 N   0  0  0  0  0  0  0  0  0  0  0  0
  -24.1512  -10.7590   21.7745 N   0  0  0  0  0  0  0  0  0  0  0  0
  -23.8708  -17.0965   20.1034 N   0  0  0  0  0  0  0  0  0  0  0  0
  -24.7772  -20.0647   21.9570 N   0  3  0  0  0  0  0  0  0  0  0  0
  -25.5477  -30.1703   16.3934 O   0  0  0  0  0  0  0  0  0  0  0  0
  -26.5151  -22.4819   20.1606 O   0  0  0  0  0  0  0  0  0  0  0  0
  -25.8372  -11.7769   20.5320 O   0  0  0  0  0  0  0  0  0  0  0  0
  -22.8061  -14.5626   20.9121 O   0  0  0  0  0  0  0  0  0  0  0  0
  -25.9604  -18.0662   20.3687 O   0  0  0  0  0  0  0  0  0  0  0  0
  -23.4345  -32.1005   23.6319 O   0  0  0  0  0  0  0  0  0  0  0  0
  -31.1182  -14.1845   22.5319 O   0  0  0  0  0  0  0  0  0  1  0  0
  -24.0355  -37.5646   23.2006 F   0  0  0  0  0  0  0  0  0  0  0  0
  -24.5741  -33.5680   25.6789 F   0  0  0  0  0  0  0  0  0  0  0  0
  -30.6470  -17.3113   18.3318 S   0  0  0  0  0  0  0  0  0  0  0  0
  1  2  1  0  0  0  0
  1  5  2  0  0  0  0
  2  6  2  0  0  0  0
  3  8  2  0  0  0  0
  3 16  1  0  0  0  0
  4  9  1  0  0  0  0
  4 16  2  0  0  0  0
  5 19  1  0  0  0  0
  6 21  1  0  0  0  0
  7 10  2  0  0  0  0
  7 20  1  0  0  0  0
  8 23  1  0  0  0  0
  9 23  2  0  0  0  0
 10 24  1  0  0  0  0
 11 12  2  0  0  0  0
 11 25  1  0  0  0  0
 12 26  1  0  0  0  0
 13 17  1  0  0  0  0
 13 31  2  0  0  0  0
 14 22  1  0  0  0  0
 14 24  2  0  0  0  0
 15 26  2  0  0  0  0
 15 27  1  0  0  0  0
 16 28  1  0  0  0  0
 17 29  2  0  0  0  0
 17 32  1  0  0  0  0
 18 28  1  0  0  0  0
 18 30  2  0  0  0  0
 18 34  1  0  0  0  0
 19 21  2  0  0  0  0
 19 39  1  0  0  0  0
 20 22  2  0  0  0  0
 20 40  1  0  0  0  0
 21 50  1  0  0  0  0
 22 41  1  0  0  0  0
 23 81  1  0  0  0  0
 24 82  1  0  0  0  0
 25 27  2  0  0  0  0
 25 81  1  0  0  0  0
 26 83  1  0  0  0  0
 27 84  1  0  0  0  0
 28 66  2  0  0  0  0
 29 51  1  0  0  0  0
 29 85  1  0  0  0  0
 30 67  1  0  0  0  0
 30 70  1  0  0  0  0
 31 72  1  0  0  0  0
 31 85  1  0  0  0  0
 32 33  2  0  0  0  0
 33 35  1  0  0  0  0
 34 71  1  0  0  0  0
 34 76  2  0  0  0  0
 35 68  1  0  0  0  0
 35 77  2  0  0  0  0
 36 52  1  0  0  0  0
 36 73  1  0  0  0  0
 36 78  2  0  0  0  0
 37 62  1  0  0  0  0
 37 69  1  0  0  0  0
 37 79  2  0  0  0  0
 38 63  1  0  0  0  0
 38 74  1  0  0  0  0
 38 80  2  0  0  0  0
 39 42  1  0  0  0  0
 40 52  1  0  0  0  0
 41 69  1  0  0  0  0
 42 44  1  0  0  0  0
 43 47  1  0  0  0  0
 43 48  1  0  0  0  0
 44 50  1  0  0  0  0
 45 46  1  0  0  0  0
 45 51  1  0  0  0  0
 46 51  1  0  0  0  0
 47 53  1  0  0  0  0
 48 68  1  0  0  0  0
 49 53  1  0  0  0  0
 49 68  1  0  0  0  0
 50 73  1  0  0  0  0
 52 69  1  0  0  0  0
 53 67  1  0  0  0  0
 54 63  1  0  0  0  0
 55 64  1  0  0  0  0
 56 64  1  0  0  0  0
 57 64  1  0  0  0  0
 58 65  1  0  0  0  0
 59 65  1  0  0  0  0
 60 75  1  0  0  0  0
 61 65  1  0  0  0  0
 61 72  1  0  0  0  0
 62 64  1  0  0  0  0
 62 74  1  0  0  0  0
 63 75  1  0  0  0  0
 65 82  1  0  0  0  0
 66 67  1  0  0  0  0
M  CHG  1  75   1
M  ISO  4  33 100  35 100  65 101  82 101
M  END
> <Batch ID>
0145

> <Smiles>
CNC(C)C(=O)NC(C(=O)N1Cc2cc([101O:1][101C:1](C)(C)CNc3cc(C=[100CH:0][100C:0](=O)N4CCCC(n5nc(-c6ccc(Oc7ccc(F)cc7F)cc6)c(C(N)=O)c5N)C4)c(C4CC4)s3)ccc2CC1C(=O)NC1CCCc2ccccc21)C(C)(C)C

> <Shape>
0.278

> <Color>
0.083

> <Negative vol penalty>
0.000

$$$$

  -OEChem-04052303073D

 87 95  0     1  0  0  0  0  0999 V2000
  -18.8923  -30.3450   24.6912 C   0  0  0  0  0  0  0  0  0  0  0  0
  -20.2668  -30.2079   24.5255 C   0  0  0  0  0  0  0  0  0  0  0  0
  -26.1639  -15.7558   21.7703 C   0  0  0  0  0  0  0  0  0  0  0  0
  -24.9454  -15.7115   19.6846 C   0  0  0  0  0  0  0  0  0  0  0  0
  -18.0266  -29.4089   24.1271 C   0  0  0  0  0  0  0  0  0  0  0  0
  -20.7764  -29.1339   23.7965 C   0  0  0  0  0  0  0  0  0  0  0  0
  -25.7426  -29.1425   20.2130 C   0  0  0  0  0  0  0  0  0  0  0  0
  -26.2353  -14.3628   21.7582 C   0  0  0  0  0  0  0  0  0  0  0  0
  -25.0169  -14.3185   19.6724 C   0  0  0  0  0  0  0  0  0  0  0  0
  -27.0558  -28.7270   20.4289 C   0  0  0  0  0  0  0  0  0  0  0  0
  -23.4379  -11.7298   21.1678 C   0  0  0  0  0  0  0  0  0  0  0  0
  -22.2773  -11.0241   20.8505 C   0  0  0  0  0  0  0  0  0  0  0  0
  -27.4918  -26.5708   23.4521 C   0  0  0  0  0  0  0  0  0  0  0  0
  -26.5453  -26.6025   19.4068 C   0  0  0  0  0  0  0  0  0  0  0  0
  -23.4009  -10.0271   18.9582 C   0  0  0  0  0  0  0  0  0  0  0  0
  -25.5189  -16.4301   20.7335 C   0  0  0  0  0  0  0  0  0  0  0  0
  -26.7645  -25.4232   23.8486 C   0  0  0  0  0  0  0  0  0  0  0  0
  -26.3675  -18.7729   20.1870 C   0  0  0  0  0  0  0  0  0  0  0  0
  -18.5253  -28.3283   23.3827 C   0  0  0  0  0  0  0  0  0  0  0  0
  -24.8165  -28.2856   19.6011 C   0  0  0  0  0  0  0  0  0  0  0  0
  -19.9165  -28.1818   23.2231 C   0  0  0  0  0  0  0  0  0  0  0  0
  -25.2217  -27.0104   19.1819 C   0  0  0  0  0  0  0  0  0  0  0  0
  -25.6618  -13.6442   20.7092 C   0  0  0  0  0  0  0  0  0  0  0  0
  -27.4566  -27.4558   20.0284 C   0  0  0  0  0  0  0  0  0  0  0  0
  -24.5799  -11.5842   20.3802 C   0  0  0  0  0  0  0  0  0  0  0  0
  -22.2588  -10.1727   19.7458 C   0  0  0  0  0  0  0  0  0  0  0  0
  -24.5614  -10.7329   19.2754 C   0  0  0  0  0  0  0  0  0  0  0  0
  -25.4442  -17.8690   20.7458 C   0  0  0  0  0  0  0  0  0  0  0  0
  -27.6973  -24.4362   24.0668 C   0  0  0  0  0  0  0  0  0  0  0  0
  -25.8454  -20.0126   20.4647 C   0  0  0  0  0  0  0  0  0  0  0  0
  -28.8173  -26.2033   23.4565 C   0  0  0  0  0  0  0  0  0  0  0  0
  -25.2952  -25.2733   24.0085 C   0  0  0  0  0  0  0  0  0  0  0  0
  -27.5879  -18.5151   19.4800 C   0  0  0  0  0  0  0  0  0  0  0  0
  -22.0717  -26.9493   20.4865 C   0  0  0  0  0  0  0  0  0  0  0  0
  -22.0053  -25.9622   17.3973 C   0  0  0  0  0  0  0  0  0  0  0  0
  -23.7411  -25.2329   14.5509 C   0  0  0  0  0  0  0  0  0  0  0  0
  -23.4464  -23.6316   23.9066 C   0  0  0  0  0  0  0  0  0  0  0  0
  -17.5526  -27.3158   22.8320 C   0  0  0  0  0  0  0  0  0  0  0  0
  -23.4107  -28.7587   19.3512 C   0  0  0  0  0  0  0  0  0  0  0  0
  -24.2713  -26.0599   18.5023 C   0  0  0  0  0  0  0  0  0  0  0  0
  -18.1551  -26.4140   21.7577 C   0  0  0  0  0  0  0  0  0  0  0  0
  -21.3035  -21.3499   22.2637 C   0  0  0  0  0  0  0  0  0  0  0  0
  -19.5179  -25.8919   22.2018 C   0  0  0  0  0  0  0  0  0  0  0  0
  -22.2642  -20.3172   21.6679 C   0  0  0  0  0  0  0  0  0  0  0  0
  -21.7664  -21.8283   23.6391 C   0  0  0  0  0  0  0  0  0  0  0  0
  -24.1059  -21.2828   23.1031 C   0  0  0  0  0  0  0  0  0  0  0  0
  -20.5063  -27.0441   22.4183 C   0  0  1  0  0  0  0  0  0  0  0  0
  -22.4160  -27.6142   19.1839 C   0  0  1  0  0  0  0  0  0  0  0  0
  -23.7209  -20.8221   21.6879 C   0  0  1  0  0  0  0  0  0  0  0  0
  -27.6037  -23.0305   24.4902 C   0  0  0  0  0  0  0  0  0  0  0  0
  -23.4169  -24.4134   12.2013 C   0  0  0  0  0  0  0  0  0  0  0  0
  -30.0012  -27.2592   18.2208 C   0  0  0  0  0  0  0  0  0  0  0  0
  -21.6184  -23.1223   18.4438 C   0  0  0  0  0  0  0  0  0  0  0  0
  -22.2489  -22.2745   16.1740 C   0  0  0  0  0  0  0  0  0  0  0  0
  -20.2205  -23.6996   16.4521 C   0  0  0  0  0  0  0  0  0  0  0  0
  -31.0600  -30.0783   21.3188 C   0  0  0  0  0  0  0  0  0  0  0  0
  -32.4693  -28.3950   22.4884 C   0  0  0  0  0  0  0  0  0  0  0  0
  -24.8394  -27.7307   13.4046 C   0  0  0  0  0  0  0  0  0  0  0  0
  -31.0582  -27.7212   20.4606 C   0  0  0  0  0  0  0  0  0  0  0  0
  -29.9846  -28.2916   22.7478 C   0  0  0  0  0  0  0  0  0  0  0  0
  -22.5110  -24.7514   16.6507 C   0  0  1  0  0  0  0  0  0  0  0  0
  -23.5169  -25.6333   13.1038 C   0  0  2  0  0  0  0  0  0  0  0  0
  -29.7727  -27.8136   19.6236 C   0  0  2  0  0  0  0  0  0  1  0  0
  -21.6673  -23.4789   16.9447 C   0  0  0  0  0  0  0  0  0  0  0  0
  -31.1300  -28.5952   21.7516 C   0  0  0  0  0  0  0  0  0  0  0  0
  -24.4138  -18.4822   21.3342 N   0  0  0  0  0  0  0  0  0  0  0  0
  -24.6865  -19.7847   21.1467 N   0  0  0  0  0  0  0  0  0  0  0  0
  -22.9059  -26.5663   18.2860 N   0  0  0  0  0  0  0  0  0  0  0  0
  -23.1510  -22.2988   23.5708 N   0  0  0  0  0  0  0  0  0  0  0  0
  -26.2693  -21.2645   20.1897 N   0  0  0  0  0  0  0  0  0  0  0  0
  -27.9767  -17.1832   19.2820 N   0  0  0  0  0  0  0  0  0  0  0  0
  -29.9729  -26.9062   23.1580 N   0  0  0  0  0  0  0  0  0  0  0  0
  -24.7906  -23.9950   23.7681 N   0  0  0  0  0  0  0  0  0  0  0  0
  -21.0053  -27.5272   21.1486 N   0  0  0  0  0  0  0  0  0  0  0  0
  -22.5526  -25.1285   15.2420 N   0  0  0  0  0  0  0  0  0  0  0  0
  -24.6415  -26.4839   12.6215 N   0  3  0  0  0  0  0  0  0  0  0  0
  -24.6312  -26.2407   24.3706 O   0  0  0  0  0  0  0  0  0  0  0  0
  -28.3205  -19.4387   19.0513 O   0  0  0  0  0  0  0  0  0  0  0  0
  -22.7242  -25.9825   20.8625 O   0  0  0  0  0  0  0  0  0  0  0  0
  -20.8561  -26.3617   17.1939 O   0  0  0  0  0  0  0  0  0  0  0  0
  -24.8587  -25.0293   15.0201 O   0  0  0  0  0  0  0  0  0  0  0  0
  -22.5822  -24.4391   24.2622 O   0  0  0  0  0  0  0  0  0  0  0  0
  -28.9511  -24.9037   23.8301 O   0  0  0  0  0  0  0  0  0  0  0  0
  -25.7316  -12.2849   20.6969 O   0  0  0  0  0  0  0  0  0  0  0  0
  -28.7376  -27.0475   20.2386 O   0  0  0  0  0  0  0  0  0  1  0  0
  -21.1447   -9.4939   19.4421 F   0  0  0  0  0  0  0  0  0  0  0  0
  -25.6558  -10.5880   18.5158 F   0  0  0  0  0  0  0  0  0  0  0  0
  1  2  1  0  0  0  0
  1  5  2  0  0  0  0
  2  6  2  0  0  0  0
  3  8  2  0  0  0  0
  3 16  1  0  0  0  0
  4  9  1  0  0  0  0
  4 16  2  0  0  0  0
  5 19  1  0  0  0  0
  6 21  1  0  0  0  0
  7 10  2  0  0  0  0
  7 20  1  0  0  0  0
  8 23  1  0  0  0  0
  9 23  2  0  0  0  0
 10 24  1  0  0  0  0
 11 12  2  0  0  0  0
 11 25  1  0  0  0  0
 12 26  1  0  0  0  0
 13 17  1  0  0  0  0
 13 31  2  0  0  0  0
 14 22  1  0  0  0  0
 14 24  2  0  0  0  0
 15 26  2  0  0  0  0
 15 27  1  0  0  0  0
 16 28  1  0  0  0  0
 17 29  2  0  0  0  0
 17 32  1  0  0  0  0
 18 28  1  0  0  0  0
 18 30  2  0  0  0  0
 18 33  1  0  0  0  0
 19 21  2  0  0  0  0
 19 38  1  0  0  0  0
 20 22  2  0  0  0  0
 20 39  1  0  0  0  0
 21 47  1  0  0  0  0
 22 40  1  0  0  0  0
 23 84  1  0  0  0  0
 24 85  1  0  0  0  0
 25 27  2  0  0  0  0
 25 84  1  0  0  0  0
 26 86  1  0  0  0  0
 27 87  1  0  0  0  0
 28 66  2  0  0  0  0
 29 50  1  0  0  0  0
 29 83  1  0  0  0  0
 30 67  1  0  0  0  0
 30 70  1  0  0  0  0
 31 72  1  0  0  0  0
 31 83  1  0  0  0  0
 32 73  1  0  0  0  0
 32 77  2  0  0  0  0
 33 71  1  0  0  0  0
 33 78  2  0  0  0  0
 34 48  1  0  0  0  0
 34 74  1  0  0  0  0
 34 79  2  0  0  0  0
 35 61  1  0  0  0  0
 35 68  1  0  0  0  0
 35 80  2  0  0  0  0
 36 62  1  0  0  0  0
 36 75  1  0  0  0  0
 36 81  2  0  0  0  0
 37 69  1  0  0  0  0
 37 73  1  0  0  0  0
 37 82  2  0  0  0  0
 38 41  1  0  0  0  0
 39 48  1  0  0  0  0
 40 68  1  0  0  0  0
 41 43  1  0  0  0  0
 42 44  1  0  0  0  0
 42 45  1  0  0  0  0
 43 47  1  0  0  0  0
 44 49  1  0  0  0  0
 45 69  1  0  0  0  0
 46 49  1  0  0  0  0
 46 69  1  0  0  0  0
 47 74  1  0  0  0  0
 48 68  1  0  0  0  0
 49 67  1  0  0  0  0
 51 62  1  0  0  0  0
 52 63  1  0  0  0  0
 53 64  1  0  0  0  0
 54 64  1  0  0  0  0
 55 64  1  0  0  0  0
 56 65  1  0  0  0  0
 57 65  1  0  0  0  0
 58 76  1  0  0  0  0
 59 63  1  0  0  0  0
 59 65  1  0  0  0  0
 60 65  1  0  0  0  0
 60 72  1  0  0  0  0
 61 64  1  0  0  0  0
 61 75  1  0  0  0  0
 62 76  1  0  0  0  0
 63 85  1  0  0  0  0
 66 67  1  0  0  0  0
M  CHG  1  76   1
M  ISO  4  37 100  63 101  73 100  85 101
M  END
> <Batch ID>
0145

> <Smiles>
CNC(C)C(=O)NC(C(=O)N1Cc2cc([101O:1][101CH:1](C)CC(C)(C)CNc3cc(C(=O)[100NH:0][100C:0](=O)N4CCCC(n5nc(-c6ccc(Oc7ccc(F)cc7F)cc6)c(C(N)=O)c5N)C4)c(C)o3)ccc2CC1C(=O)NC1CCCc2ccccc21)C(C)(C)C

> <Shape>
0.194

> <Color>
0.057

> <Negative vol penalty>
0.000

$$$$

  -OEChem-04052303073D

 85 94  0     1  0  0  0  0  0999 V2000
  -16.6316  -29.0514   23.9596 C   0  0  0  0  0  0  0  0  0  0  0  0
  -17.5760  -28.0495   23.7606 C   0  0  0  0  0  0  0  0  0  0  0  0
  -23.5079   -9.5185   21.3561 C   0  0  0  0  0  0  0  0  0  0  0  0
  -23.9599  -10.6333   23.4514 C   0  0  0  0  0  0  0  0  0  0  0  0
  -17.0187  -30.3903   23.9210 C   0  0  0  0  0  0  0  0  0  0  0  0
  -18.9080  -28.3859   23.5216 C   0  0  0  0  0  0  0  0  0  0  0  0
  -23.8701  -25.2960   25.3481 C   0  0  0  0  0  0  0  0  0  0  0  0
  -22.8695   -8.4860   22.0432 C   0  0  0  0  0  0  0  0  0  0  0  0
  -23.3215   -9.6008   24.1384 C   0  0  0  0  0  0  0  0  0  0  0  0
  -24.7019  -24.3870   24.6957 C   0  0  0  0  0  0  0  0  0  0  0  0
  -19.8644   -7.9453   23.4957 C   0  0  0  0  0  0  0  0  0  0  0  0
  -18.6443   -7.4911   22.9954 C   0  0  0  0  0  0  0  0  0  0  0  0
  -26.2328  -26.1752   24.1688 C   0  0  0  0  0  0  0  0  0  0  0  0
  -31.0281  -18.4673   20.0944 C   0  0  0  0  0  0  0  0  0  0  0  0
  -19.5806   -5.2811   22.7184 C   0  0  0  0  0  0  0  0  0  0  0  0
  -24.0531  -10.5922   22.0602 C   0  0  0  0  0  0  0  0  0  0  0  0
  -24.1273  -12.8370   20.8508 C   0  0  0  0  0  0  0  0  0  0  0  0
  -18.3579  -30.7430   23.6910 C   0  0  0  0  0  0  0  0  0  0  0  0
  -24.2086  -26.6556   25.4064 C   0  0  0  0  0  0  0  0  0  0  0  0
  -19.3131  -29.7308   23.4785 C   0  0  0  0  0  0  0  0  0  0  0  0
  -25.4049  -27.0990   24.8248 C   0  0  0  0  0  0  0  0  0  0  0  0
  -30.8911  -19.8852   20.1270 C   0  0  0  0  0  0  0  0  0  0  0  0
  -22.7763   -8.5271   23.4343 C   0  0  0  0  0  0  0  0  0  0  0  0
  -25.8820  -24.8270   24.1034 C   0  0  0  0  0  0  0  0  0  0  0  0
  -20.9428   -7.0675   23.6074 C   0  0  0  0  0  0  0  0  0  0  0  0
  -18.5023   -6.1590   22.6068 C   0  0  0  0  0  0  0  0  0  0  0  0
  -20.8008   -5.7355   23.2188 C   0  0  0  0  0  0  0  0  0  0  0  0
  -24.7131  -11.6588   21.3511 C   0  0  0  0  0  0  0  0  0  0  0  0
  -25.1680  -13.5163   20.2659 C   0  0  0  0  0  0  0  0  0  0  0  0
  -29.6368  -20.2745   20.5423 C   0  0  0  0  0  0  0  0  0  0  0  0
  -29.8730  -17.8269   20.4864 C   0  0  0  0  0  0  0  0  0  0  0  0
  -22.7644  -13.2781   20.9096 C   0  0  0  0  0  0  0  0  0  0  0  0
  -22.8829  -29.3446   24.3504 C   0  0  0  0  0  0  0  0  0  0  0  0
  -25.2938  -30.7302   26.0208 C   0  0  0  0  0  0  0  0  0  0  0  0
  -28.4158  -30.4530   27.3710 C   0  0  0  0  0  0  0  0  0  0  0  0
  -30.4172  -15.3726   20.3231 C   0  0  0  0  0  0  0  0  0  0  0  0
  -18.7200  -32.2049   23.6112 C   0  0  0  0  0  0  0  0  0  0  0  0
  -23.3139  -27.6190   26.1371 C   0  0  0  0  0  0  0  0  0  0  0  0
  -25.8239  -28.5448   24.8770 C   0  0  0  0  0  0  0  0  0  0  0  0
  -20.2194  -32.4681   23.7246 C   0  0  0  0  0  0  0  0  0  0  0  0
  -29.8905  -12.0319   19.2095 C   0  0  0  0  0  0  0  0  0  0  0  0
  -20.9984  -31.5136   22.8252 C   0  0  0  0  0  0  0  0  0  0  0  0
  -28.4484  -11.7340   19.6262 C   0  0  0  0  0  0  0  0  0  0  0  0
  -28.5323  -23.7941   20.1705 C   0  0  0  0  0  0  0  0  0  0  0  0
  -30.6120  -12.8966   20.2418 C   0  0  0  0  0  0  0  0  0  0  0  0
  -29.1189  -22.5171   19.5707 C   0  0  0  0  0  0  0  0  0  0  0  0
  -28.4746  -13.8393   21.0240 C   0  0  0  0  0  0  0  0  0  0  0  0
  -20.7721  -30.0551   23.2412 C   0  0  1  0  0  0  0  0  0  0  0  0
  -23.5024  -29.0655   25.6906 C   0  0  1  0  0  0  0  0  0  0  0  0
  -27.6870  -13.0253   19.9844 C   0  0  2  0  0  0  0  0  0  0  0  0
  -28.5809  -22.1307   21.9128 C   0  0  2  0  0  0  0  0  0  0  0  0
  -27.7098  -23.3059   21.3741 C   0  0  2  0  0  0  0  0  0  0  0  0
  -31.9837  -20.8168   19.7534 C   0  0  0  0  0  0  0  0  0  0  0  0
  -29.7007  -22.5572   22.8678 C   0  0  0  0  0  0  0  0  0  0  0  0
  -26.3383  -22.7736   20.9061 C   0  0  0  0  0  0  0  0  0  0  0  0
  -30.1353  -31.7651   28.6435 C   0  0  0  0  0  0  0  0  0  0  0  0
  -26.0242  -32.2402   23.4720 C   0  0  0  0  0  0  0  0  0  0  0  0
  -28.2427  -32.7698   24.5046 C   0  0  0  0  0  0  0  0  0  0  0  0
  -26.1445  -33.6053   25.5640 C   0  0  0  0  0  0  0  0  0  0  0  0
  -28.3344  -28.5688   29.6518 C   0  0  0  0  0  0  0  0  0  0  0  0
  -27.4691  -24.4405   22.3749 C   0  0  0  0  0  0  0  0  0  1  0  0
  -26.7109  -31.1455   25.7072 C   0  0  1  0  0  0  0  0  0  0  0  0
  -28.9549  -30.8115   28.7441 C   0  0  2  0  0  0  0  0  0  0  0  0
  -26.7720  -32.4132   24.8091 C   0  0  0  0  0  0  0  0  0  0  0  0
  -26.0242  -11.5902   21.1054 N   0  0  0  0  0  0  0  0  0  0  0  0
  -26.2708  -12.7339   20.4441 N   0  0  0  0  0  0  0  0  0  0  0  0
  -29.1742  -21.5696   20.6857 N   0  0  3  0  0  0  0  0  0  0  0  0
  -24.9125  -29.4492   25.5974 N   0  0  0  0  0  0  0  0  0  0  0  0
  -29.8344  -14.1041   20.5282 N   0  0  0  0  0  0  0  0  0  0  0  0
  -25.2381  -14.7005   19.6215 N   0  0  0  0  0  0  0  0  0  0  0  0
  -21.8237  -12.4583   21.5479 N   0  0  0  0  0  0  0  0  0  0  0  0
  -29.5717  -16.4468   20.5981 N   0  0  0  0  0  0  0  0  0  0  0  0
  -21.5591  -29.7358   24.4130 N   0  0  0  0  0  0  0  0  0  0  0  0
  -27.3877  -31.2898   26.9915 N   0  0  0  0  0  0  0  0  0  0  0  0
  -29.4020  -29.5843   29.4616 N   0  3  0  0  0  0  0  0  0  0  0  0
  -22.3886  -14.3594   20.3966 O   0  0  0  0  0  0  0  0  0  0  0  0
  -23.5566  -29.2161   23.3348 O   0  0  0  0  0  0  0  0  0  0  0  0
  -24.5547  -31.5109   26.6256 O   0  0  0  0  0  0  0  0  0  0  0  0
  -28.8645  -29.5259   26.7004 O   0  0  0  0  0  0  0  0  0  0  0  0
  -31.5717  -15.4966   19.9063 O   0  0  0  0  0  0  0  0  0  0  0  0
  -22.1533   -7.5199   24.1050 O   0  0  0  0  0  0  0  0  0  0  0  0
  -26.6953  -23.9420   23.4654 O   0  0  0  0  0  0  0  0  0  1  0  0
  -17.3300   -5.7225   22.1278 F   0  0  0  0  0  0  0  0  0  0  0  0
  -21.8328   -4.8872   23.3248 F   0  0  0  0  0  0  0  0  0  0  0  0
  -28.6305  -18.9335   20.8910 S   0  0  0  0  0  0  0  0  0  0  0  0
  1  2  1  0  0  0  0
  1  5  2  0  0  0  0
  2  6  2  0  0  0  0
  3  8  2  0  0  0  0
  3 16  1  0  0  0  0
  4  9  1  0  0  0  0
  4 16  2  0  0  0  0
  5 18  1  0  0  0  0
  6 20  1  0  0  0  0
  7 10  2  0  0  0  0
  7 19  1  0  0  0  0
  8 23  1  0  0  0  0
  9 23  2  0  0  0  0
 10 24  1  0  0  0  0
 11 12  2  0  0  0  0
 11 25  1  0  0  0  0
 12 26  1  0  0  0  0
 13 21  1  0  0  0  0
 13 24  2  0  0  0  0
 14 22  1  0  0  0  0
 14 31  2  0  0  0  0
 15 26  2  0  0  0  0
 15 27  1  0  0  0  0
 16 28  1  0  0  0  0
 17 28  1  0  0  0  0
 17 29  2  0  0  0  0
 17 32  1  0  0  0  0
 18 20  2  0  0  0  0
 18 37  1  0  0  0  0
 19 21  2  0  0  0  0
 19 38  1  0  0  0  0
 20 48  1  0  0  0  0
 21 39  1  0  0  0  0
 22 30  2  0  0  0  0
 22 53  1  0  0  0  0
 23 81  1  0  0  0  0
 24 82  1  0  0  0  0
 25 27  2  0  0  0  0
 25 81  1  0  0  0  0
 26 83  1  0  0  0  0
 27 84  1  0  0  0  0
 28 65  2  0  0  0  0
 29 66  1  0  0  0  0
 29 70  1  0  0  0  0
 30 67  1  0  0  0  0
 30 85  1  0  0  0  0
 31 72  1  0  0  0  0
 31 85  1  0  0  0  0
 32 71  1  0  0  0  0
 32 76  2  0  0  0  0
 33 49  1  0  0  0  0
 33 73  1  0  0  0  0
 33 77  2  0  0  0  0
 34 62  1  0  0  0  0
 34 68  1  0  0  0  0
 34 78  2  0  0  0  0
 35 63  1  0  0  0  0
 35 74  1  0  0  0  0
 35 79  2  0  0  0  0
 36 69  1  0  0  0  0
 36 72  1  0  0  0  0
 36 80  2  0  0  0  0
 37 40  1  0  0  0  0
 38 49  1  0  0  0  0
 39 68  1  0  0  0  0
 40 42  1  0  0  0  0
 41 43  1  0  0  0  0
 41 45  1  0  0  0  0
 42 48  1  0  0  0  0
 43 50  1  0  0  0  0
 44 46  1  0  0  0  0
 44 52  1  0  0  0  0
 45 69  1  0  0  0  0
 46 67  1  0  0  0  0
 47 50  1  0  0  0  0
 47 69  1  0  0  0  0
 48 73  1  0  0  0  0
 49 68  1  0  0  0  0
 50 66  1  0  0  0  0
 51 52  1  0  0  0  0
 51 54  1  0  0  0  0
 51 67  1  0  0  0  0
 52 55  1  0  0  0  0
 52 61  1  0  0  0  0
 56 63  1  0  0  0  0
 57 64  1  0  0  0  0
 58 64  1  0  0  0  0
 59 64  1  0  0  0  0
 60 75  1  0  0  0  0
 61 82  1  0  0  0  0
 62 64  1  0  0  0  0
 62 74  1  0  0  0  0
 63 75  1  0  0  0  0
 65 66  1  0  0  0  0
M  CHG  1  75   1
M  ISO  4  36 100  61 101  72 100  82 101
M  END
> <Batch ID>
0145

> <Smiles>
CNC(C)C(=O)NC(C(=O)N1Cc2cc([101O:1][101CH2:1]C3(C)CCN(c4sc([100NH:0][100C:0](=O)N5CCCC(n6nc(-c7ccc(Oc8ccc(F)cc8F)cc7)c(C(N)=O)c6N)C5)cc4C)C3C)ccc2CC1C(=O)NC1CCCc2ccccc21)C(C)(C)C

> <Shape>
0.298

> <Color>
0.152

> <Negative vol penalty>
0.000

$$$$

  -OEChem-04052303073D

 88 97  0     1  0  0  0  0  0999 V2000
  -21.2073  -20.6704   18.2307 C   0  0  0  0  0  0  0  0  0  0  0  0
  -22.4714  -20.4629   18.7733 C   0  0  0  0  0  0  0  0  0  0  0  0
  -23.9585  -26.9400   20.2021 C   0  0  0  0  0  0  0  0  0  0  0  0
  -25.3419  -27.0292   22.1809 C   0  0  0  0  0  0  0  0  0  0  0  0
  -20.2429  -19.6665   18.3092 C   0  0  0  0  0  0  0  0  0  0  0  0
  -22.7715  -19.2518   19.3958 C   0  0  0  0  0  0  0  0  0  0  0  0
  -27.3569  -17.3869   17.9857 C   0  0  0  0  0  0  0  0  0  0  0  0
  -22.8445  -26.6602   20.9935 C   0  0  0  0  0  0  0  0  0  0  0  0
  -24.2279  -26.7494   22.9723 C   0  0  0  0  0  0  0  0  0  0  0  0
  -28.5016  -17.9404   18.5578 C   0  0  0  0  0  0  0  0  0  0  0  0
  -19.5691  -26.2792   22.5238 C   0  0  0  0  0  0  0  0  0  0  0  0
  -18.3890  -26.9706   22.2501 C   0  0  0  0  0  0  0  0  0  0  0  0
  -28.5863  -16.1184   20.1362 C   0  0  0  0  0  0  0  0  0  0  0  0
  -29.7636  -21.5388   22.7232 C   0  0  0  0  0  0  0  0  0  0  0  0
  -19.5132  -29.0634   22.6898 C   0  0  0  0  0  0  0  0  0  0  0  0
  -25.2072  -27.1245   20.7958 C   0  0  0  0  0  0  0  0  0  0  0  0
  -26.8300  -28.6819   19.5921 C   0  0  0  0  0  0  0  0  0  0  0  0
  -20.5345  -18.4388   18.9244 C   0  0  0  0  0  0  0  0  0  0  0  0
  -26.8111  -16.1984   18.4918 C   0  0  0  0  0  0  0  0  0  0  0  0
  -21.8098  -18.2310   19.4838 C   0  0  0  0  0  0  0  0  0  0  0  0
  -27.4375  -15.5495   19.5656 C   0  0  0  0  0  0  0  0  0  0  0  0
  -29.1184  -20.5244   23.4701 C   0  0  0  0  0  0  0  0  0  0  0  0
  -22.9792  -26.5649   22.3786 C   0  0  0  0  0  0  0  0  0  0  0  0
  -29.1151  -17.3073   19.6346 C   0  0  0  0  0  0  0  0  0  0  0  0
  -20.7213  -26.9799   22.8805 C   0  0  0  0  0  0  0  0  0  0  0  0
  -18.3610  -28.3627   22.3331 C   0  0  0  0  0  0  0  0  0  0  0  0
  -20.6933  -28.3720   22.9635 C   0  0  0  0  0  0  0  0  0  0  0  0
  -26.3585  -27.4130   19.9788 C   0  0  0  0  0  0  0  0  0  0  0  0
  -27.9801  -20.1997   22.7696 C   0  0  0  0  0  0  0  0  0  0  0  0
  -27.9407  -28.4174   18.8286 C   0  0  0  0  0  0  0  0  0  0  0  0
  -28.9737  -21.7614   21.6193 C   0  0  0  0  0  0  0  0  0  0  0  0
  -26.3106  -29.9832   19.8961 C   0  0  0  0  0  0  0  0  0  0  0  0
  -24.0304  -15.2941   19.7940 C   0  0  0  0  0  0  0  0  0  0  0  0
  -31.2099  -18.7603   22.2102 C   0  0  0  0  0  0  0  0  0  0  0  0
  -25.5032  -12.3198   19.5998 C   0  0  0  0  0  0  0  0  0  0  0  0
  -22.4952  -10.8443   20.2438 C   0  0  0  0  0  0  0  0  0  0  0  0
  -28.2476  -22.8071   19.4456 C   0  0  0  0  0  0  0  0  0  0  0  0
  -19.4447  -17.4013   19.0269 C   0  0  0  0  0  0  0  0  0  0  0  0
  -25.5927  -15.6016   17.8406 C   0  0  0  0  0  0  0  0  0  0  0  0
  -26.8933  -14.2705   20.1425 C   0  0  0  0  0  0  0  0  0  0  0  0
  -19.9616  -16.0070   19.3719 C   0  0  0  0  0  0  0  0  0  0  0  0
  -29.1301  -21.1628   26.5368 C   0  0  0  0  0  0  0  0  0  0  0  0
  -27.7780  -24.8640   16.4471 C   0  0  0  0  0  0  0  0  0  0  0  0
  -20.9586  -16.0772   20.5241 C   0  0  0  0  0  0  0  0  0  0  0  0
  -28.7718  -26.0061   16.6190 C   0  0  0  0  0  0  0  0  0  0  0  0
  -30.4488  -20.8105   25.8261 C   0  0  0  0  0  0  0  0  0  0  0  0
  -28.5765  -19.8154   26.0404 C   0  0  0  0  0  0  0  0  0  0  0  0
  -28.2966  -23.5906   17.0979 C   0  0  0  0  0  0  0  0  0  0  0  0
  -29.5400  -24.9276   18.7964 C   0  0  0  0  0  0  0  0  0  0  0  0
  -22.1813  -16.9215   20.1450 C   0  0  1  0  0  0  0  0  0  0  0  0
  -24.8468  -14.6119   18.7331 C   0  0  1  0  0  0  0  0  0  0  0  0
  -29.1337  -26.2411   18.0935 C   0  0  2  0  0  0  0  0  0  0  0  0
  -29.6165  -19.8874   24.8644 C   0  0  0  0  0  0  0  0  0  0  0  0
  -26.8913  -19.2395   23.0021 C   0  0  0  0  0  0  0  0  0  0  0  0
  -21.3720   -8.6008   20.2926 C   0  0  0  0  0  0  0  0  0  0  0  0
  -32.4546  -17.4327   23.9408 C   0  0  0  0  0  0  0  0  0  0  0  0
  -32.3878  -19.9099   24.1222 C   0  0  0  0  0  0  0  0  0  0  0  0
  -25.3776  -12.3201   16.5519 C   0  0  0  0  0  0  0  0  0  0  0  0
  -23.5045  -10.6654   16.6993 C   0  0  0  0  0  0  0  0  0  0  0  0
  -25.7619  -10.0731   17.5802 C   0  0  0  0  0  0  0  0  0  0  0  0
  -21.8813  -11.0852   23.1289 C   0  0  0  0  0  0  0  0  0  0  0  0
  -30.4421  -17.6052   21.5856 C   0  0  0  0  0  0  0  0  0  1  0  0
  -30.2976  -18.5457   24.5851 C   0  0  0  0  0  0  0  0  0  0  0  0
  -24.3367  -11.7373   18.8417 C   0  0  1  0  0  0  0  0  0  0  0  0
  -22.1229   -9.6478   21.1006 C   0  0  2  0  0  0  0  0  0  0  0  0
  -31.5676  -18.6706   23.7115 C   0  0  0  0  0  0  0  0  0  0  0  0
  -24.7433  -11.2242   17.4314 C   0  0  0  0  0  0  0  0  0  0  0  0
  -27.1081  -26.4165   19.5002 N   0  0  0  0  0  0  0  0  0  0  0  0
  -28.0619  -27.0591   18.8050 N   0  0  0  0  0  0  0  0  0  0  0  0
  -25.7559  -13.6858   19.4203 N   0  0  0  0  0  0  0  0  0  0  0  0
  -28.6530  -23.7863   18.5051 N   0  0  0  0  0  0  0  0  0  0  0  0
  -28.8156  -29.2165   18.1818 N   0  0  0  0  0  0  0  0  0  0  0  0
  -25.1620  -30.0745   20.6940 N   0  0  0  0  0  0  0  0  0  0  0  0
  -29.1136  -22.6551   20.5288 N   0  0  0  0  0  0  0  0  0  0  0  0
  -23.0767  -16.1626   19.2984 N   0  0  0  0  0  0  0  0  0  0  0  0
  -23.7581  -10.7142   19.7059 N   0  0  0  0  0  0  0  0  0  0  0  0
  -21.2581  -10.0735   22.2372 N   0  3  0  0  0  0  0  0  0  0  0  0
  -26.8395  -31.0333   19.4590 O   0  0  0  0  0  0  0  0  0  0  0  0
  -24.2485  -15.0495   20.9748 O   0  0  0  0  0  0  0  0  0  0  0  0
  -31.5259  -19.7398   21.5304 O   0  0  0  0  0  0  0  0  0  0  0  0
  -26.1781  -11.5845   20.3259 O   0  0  0  0  0  0  0  0  0  0  0  0
  -21.7397  -11.7973   20.0662 O   0  0  0  0  0  0  0  0  0  0  0  0
  -27.2216  -22.1400   19.2897 O   0  0  0  0  0  0  0  0  0  0  0  0
  -27.8846  -20.9491   21.6401 O   0  0  0  0  0  0  0  0  0  0  0  0
  -21.8923  -26.2921   23.1512 O   0  0  0  0  0  0  0  0  0  0  0  0
  -30.2328  -17.8451   20.1946 O   0  0  0  0  0  0  0  0  0  1  0  0
  -17.2281  -29.0266   22.0687 F   0  0  0  0  0  0  0  0  0  0  0  0
  -21.7973  -29.0507   23.3046 F   0  0  0  0  0  0  0  0  0  0  0  0
  1  2  1  0  0  0  0
  1  5  2  0  0  0  0
  2  6  2  0  0  0  0
  3  8  2  0  0  0  0
  3 16  1  0  0  0  0
  4  9  1  0  0  0  0
  4 16  2  0  0  0  0
  5 18  1  0  0  0  0
  6 20  1  0  0  0  0
  7 10  2  0  0  0  0
  7 19  1  0  0  0  0
  8 23  1  0  0  0  0
  9 23  2  0  0  0  0
 10 24  1  0  0  0  0
 11 12  2  0  0  0  0
 11 25  1  0  0  0  0
 12 26  1  0  0  0  0
 13 21  1  0  0  0  0
 13 24  2  0  0  0  0
 14 22  1  0  0  0  0
 14 31  2  0  0  0  0
 15 26  2  0  0  0  0
 15 27  1  0  0  0  0
 16 28  1  0  0  0  0
 17 28  1  0  0  0  0
 17 30  2  0  0  0  0
 17 32  1  0  0  0  0
 18 20  2  0  0  0  0
 18 38  1  0  0  0  0
 19 21  2  0  0  0  0
 19 39  1  0  0  0  0
 20 50  1  0  0  0  0
 21 40  1  0  0  0  0
 22 29  2  0  0  0  0
 22 53  1  0  0  0  0
 23 85  1  0  0  0  0
 24 86  1  0  0  0  0
 25 27  2  0  0  0  0
 25 85  1  0  0  0  0
 26 87  1  0  0  0  0
 27 88  1  0  0  0  0
 28 68  2  0  0  0  0
 29 54  1  0  0  0  0
 29 84  1  0  0  0  0
 30 69  1  0  0  0  0
 30 72  1  0  0  0  0
 31 74  1  0  0  0  0
 31 84  1  0  0  0  0
 32 73  1  0  0  0  0
 32 78  2  0  0  0  0
 33 51  1  0  0  0  0
 33 75  1  0  0  0  0
 33 79  2  0  0  0  0
 34 62  1  0  0  0  0
 34 66  1  0  0  0  0
 34 80  2  0  0  0  0
 35 64  1  0  0  0  0
 35 70  1  0  0  0  0
 35 81  2  0  0  0  0
 36 65  1  0  0  0  0
 36 76  1  0  0  0  0
 36 82  2  0  0  0  0
 37 71  1  0  0  0  0
 37 74  1  0  0  0  0
 37 83  2  0  0  0  0
 38 41  1  0  0  0  0
 39 51  1  0  0  0  0
 40 70  1  0  0  0  0
 41 44  1  0  0  0  0
 42 46  1  0  0  0  0
 42 47  1  0  0  0  0
 43 45  1  0  0  0  0
 43 48  1  0  0  0  0
 44 50  1  0  0  0  0
 45 52  1  0  0  0  0
 46 53  1  0  0  0  0
 47 53  1  0  0  0  0
 48 71  1  0  0  0  0
 49 52  1  0  0  0  0
 49 71  1  0  0  0  0
 50 75  1  0  0  0  0
 51 70  1  0  0  0  0
 52 69  1  0  0  0  0
 53 63  1  0  0  0  0
 55 65  1  0  0  0  0
 56 66  1  0  0  0  0
 57 66  1  0  0  0  0
 58 67  1  0  0  0  0
 59 67  1  0  0  0  0
 60 67  1  0  0  0  0
 61 77  1  0  0  0  0
 62 86  1  0  0  0  0
 63 66  1  0  0  0  0
 64 67  1  0  0  0  0
 64 76  1  0  0  0  0
 65 77  1  0  0  0  0
 68 69  1  0  0  0  0
M  CHG  1  77   1
M  ISO  4  37 100  62 101  74 100  86 101
M  END
> <Batch ID>
0145

> <Smiles>
CNC(C)C(=O)NC(C(=O)N1Cc2cc([101O:1][101CH2:1]C(=O)C(C)(C)CC3(c4cc([100NH:0][100C:0](=O)N5CCCC(n6nc(-c7ccc(Oc8ccc(F)cc8F)cc7)c(C(N)=O)c6N)C5)oc4C)CCC3)ccc2CC1C(=O)NC1CCCc2ccccc21)C(C)(C)C

> <Shape>
0.219

> <Color>
0.058

> <Negative vol penalty>
0.000

$$$$

  -OEChem-04052303073D

 86 95  0     1  0  0  0  0  0999 V2000
  -32.4422  -29.2140   32.7721 C   0  0  0  0  0  0  0  0  0  0  0  0
  -31.5894  -28.3864   32.0488 C   0  0  0  0  0  0  0  0  0  0  0  0
  -32.6516  -17.4889   23.4589 C   0  0  0  0  0  0  0  0  0  0  0  0
  -23.0755   -9.8686   19.9391 C   0  0  0  0  0  0  0  0  0  0  0  0
  -23.8346   -9.8746   22.2327 C   0  0  0  0  0  0  0  0  0  0  0  0
  -33.5749  -28.6804   33.3856 C   0  0  0  0  0  0  0  0  0  0  0  0
  -31.8694  -27.0250   31.9375 C   0  0  0  0  0  0  0  0  0  0  0  0
  -27.8162  -22.4398   31.7060 C   0  0  0  0  0  0  0  0  0  0  0  0
  -31.8535  -18.3546   24.2068 C   0  0  0  0  0  0  0  0  0  0  0  0
  -32.0639  -16.6061   22.5528 C   0  0  0  0  0  0  0  0  0  0  0  0
  -22.3312   -8.7156   20.1884 C   0  0  0  0  0  0  0  0  0  0  0  0
  -23.0902   -8.7216   22.4821 C   0  0  0  0  0  0  0  0  0  0  0  0
  -27.2817  -21.7131   30.6430 C   0  0  0  0  0  0  0  0  0  0  0  0
  -19.8616   -7.9246   23.0832 C   0  0  0  0  0  0  0  0  0  0  0  0
  -19.1042   -7.8845   24.2538 C   0  0  0  0  0  0  0  0  0  0  0  0
  -28.9348  -19.9921   30.9961 C   0  0  0  0  0  0  0  0  0  0  0  0
  -29.8800  -17.4546   23.1425 C   0  0  0  0  0  0  0  0  0  0  0  0
  -20.3448   -5.9464   24.9901 C   0  0  0  0  0  0  0  0  0  0  0  0
  -23.8273  -10.4481   20.9612 C   0  0  0  0  0  0  0  0  0  0  0  0
  -24.1699  -12.9731   20.8421 C   0  0  0  0  0  0  0  0  0  0  0  0
  -33.8638  -27.3100   33.2898 C   0  0  0  0  0  0  0  0  0  0  0  0
  -28.9227  -21.9524   32.4163 C   0  0  0  0  0  0  0  0  0  0  0  0
  -33.0078  -26.4728   32.5491 C   0  0  0  0  0  0  0  0  0  0  0  0
  -29.4798  -20.7133   32.0693 C   0  0  0  0  0  0  0  0  0  0  0  0
  -30.4678  -18.3374   24.0486 C   0  0  0  0  0  0  0  0  0  0  0  0
  -30.6781  -16.5890   22.3946 C   0  0  0  0  0  0  0  0  0  0  0  0
  -22.3385   -8.1421   21.4599 C   0  0  0  0  0  0  0  0  0  0  0  0
  -27.8428  -20.4905   30.2860 C   0  0  0  0  0  0  0  0  0  0  0  0
  -20.8605   -6.9755   22.8659 C   0  0  0  0  0  0  0  0  0  0  0  0
  -19.3458   -6.8954   25.2073 C   0  0  0  0  0  0  0  0  0  0  0  0
  -21.1021   -5.9865   23.8194 C   0  0  0  0  0  0  0  0  0  0  0  0
  -24.5968  -11.6388   20.7041 C   0  0  0  0  0  0  0  0  0  0  0  0
  -25.2624  -13.7224   20.4795 C   0  0  0  0  0  0  0  0  0  0  0  0
  -27.9133  -19.9390   26.1018 C   0  0  0  0  0  0  0  0  0  0  0  0
  -22.8995  -13.4892   21.2608 C   0  0  0  0  0  0  0  0  0  0  0  0
  -26.8542  -19.7681   26.9011 C   0  0  0  0  0  0  0  0  0  0  0  0
  -31.8924  -22.9694   32.9164 C   0  0  0  0  0  0  0  0  0  0  0  0
  -32.0115  -20.4222   34.9214 C   0  0  0  0  0  0  0  0  0  0  0  0
  -30.7932  -17.3524   35.7812 C   0  0  0  0  0  0  0  0  0  0  0  0
  -30.7289  -14.7662   20.6564 C   0  0  0  0  0  0  0  0  0  0  0  0
  -35.1253  -26.7875   33.9303 C   0  0  0  0  0  0  0  0  0  0  0  0
  -29.4708  -22.7356   33.5775 C   0  0  0  0  0  0  0  0  0  0  0  0
  -30.6557  -20.1363   32.8130 C   0  0  0  0  0  0  0  0  0  0  0  0
  -29.0491  -20.8738   26.3712 C   0  0  0  0  0  0  0  0  0  0  0  0
  -35.1492  -25.2684   34.0782 C   0  0  0  0  0  0  0  0  0  0  0  0
  -29.6146  -12.3535   18.2870 C   0  0  0  0  0  0  0  0  0  0  0  0
  -34.7047  -24.5988   32.7817 C   0  0  0  0  0  0  0  0  0  0  0  0
  -28.1747  -12.0622   18.7160 C   0  0  0  0  0  0  0  0  0  0  0  0
  -30.2397  -20.1453   25.7558 C   0  0  0  0  0  0  0  0  0  0  0  0
  -30.5293  -12.5816   19.4890 C   0  0  0  0  0  0  0  0  0  0  0  0
  -28.6221  -13.3062   20.8699 C   0  0  0  0  0  0  0  0  0  0  0  0
  -33.2643  -24.9865   32.4262 C   0  0  1  0  0  0  0  0  0  0  0  0
  -28.2106  -19.1321   24.8640 C   0  0  1  0  0  0  0  0  0  0  0  0
  -30.9200  -22.3869   33.9027 C   0  0  1  0  0  0  0  0  0  0  0  0
  -27.6496  -13.1337   19.6916 C   0  0  2  0  0  0  0  0  0  0  0  0
  -25.7621  -18.7952   26.5615 C   0  0  0  0  0  0  0  0  0  0  0  0
  -27.5739  -19.7818   23.6364 C   0  0  0  0  0  0  0  0  0  0  0  0
  -31.1158  -15.4998   37.4428 C   0  0  0  0  0  0  0  0  0  0  0  0
  -34.5177  -19.5244   33.4303 C   0  0  0  0  0  0  0  0  0  0  0  0
  -34.2397  -17.2625   34.4670 C   0  0  0  0  0  0  0  0  0  0  0  0
  -34.6295  -19.2566   35.9143 C   0  0  0  0  0  0  0  0  0  0  0  0
  -28.0370  -17.6463   36.8185 C   0  0  0  0  0  0  0  0  0  0  0  0
  -26.7134  -20.5218   28.1933 C   0  0  0  0  0  0  0  0  0  1  0  0
  -32.3885  -18.9672   34.7802 C   0  0  1  0  0  0  0  0  0  0  0  0
  -30.3601  -16.7790   37.1184 C   0  0  2  0  0  0  0  0  0  0  0  0
  -33.9229  -18.7642   34.6325 C   0  0  0  0  0  0  0  0  0  0  0  0
  -25.8618  -11.5427   20.2863 N   0  0  0  0  0  0  0  0  0  0  0  0
  -26.2391  -12.8262   20.1585 N   0  0  0  0  0  0  0  0  0  0  0  0
  -29.6758  -19.1973   24.7907 N   0  0  3  0  0  0  0  0  0  0  0  0
  -31.1598  -20.9428   33.9368 N   0  0  0  0  0  0  0  0  0  0  0  0
  -29.9704  -13.6123   20.3666 N   0  0  0  0  0  0  0  0  0  0  0  0
  -25.4733  -15.0538   20.4070 N   0  0  0  0  0  0  0  0  0  0  0  0
  -21.8871  -12.5803   21.5974 N   0  0  0  0  0  0  0  0  0  0  0  0
  -30.0815  -15.6912   21.4749 N   0  0  0  0  0  0  0  0  0  0  0  0
  -32.3256  -24.2416   33.2377 N   0  0  0  0  0  0  0  0  0  0  0  0
  -31.8025  -18.2806   35.9263 N   0  0  0  0  0  0  0  0  0  0  0  0
  -28.9018  -16.4722   37.1025 N   0  3  0  0  0  0  0  0  0  0  0  0
  -22.6636  -14.7199   21.3184 O   0  0  0  0  0  0  0  0  0  0  0  0
  -32.2263  -22.3125   31.9372 O   0  0  0  0  0  0  0  0  0  0  0  0
  -32.4507  -21.0709   35.8742 O   0  0  0  0  0  0  0  0  0  0  0  0
  -30.2894  -17.0084   34.7143 O   0  0  0  0  0  0  0  0  0  0  0  0
  -31.8582  -14.9347   20.1893 O   0  0  0  0  0  0  0  0  0  0  0  0
  -21.6121   -7.0171   21.7036 O   0  0  0  0  0  0  0  0  0  0  0  0
  -27.3234  -19.7795   29.2484 O   0  0  0  0  0  0  0  0  0  1  0  0
  -18.6195   -6.8580   26.3321 F   0  0  0  0  0  0  0  0  0  0  0  0
  -22.0612   -5.0728   23.6168 F   0  0  0  0  0  0  0  0  0  0  0  0
  1  2  1  0  0  0  0
  1  6  2  0  0  0  0
  2  7  2  0  0  0  0
  3  9  2  0  0  0  0
  3 10  1  0  0  0  0
  4 11  2  0  0  0  0
  4 19  1  0  0  0  0
  5 12  1  0  0  0  0
  5 19  2  0  0  0  0
  6 21  1  0  0  0  0
  7 23  1  0  0  0  0
  8 13  2  0  0  0  0
  8 22  1  0  0  0  0
  9 25  1  0  0  0  0
 10 26  2  0  0  0  0
 11 27  1  0  0  0  0
 12 27  2  0  0  0  0
 13 28  1  0  0  0  0
 14 15  2  0  0  0  0
 14 29  1  0  0  0  0
 15 30  1  0  0  0  0
 16 24  1  0  0  0  0
 16 28  2  0  0  0  0
 17 25  2  0  0  0  0
 17 26  1  0  0  0  0
 18 30  2  0  0  0  0
 18 31  1  0  0  0  0
 19 32  1  0  0  0  0
 20 32  1  0  0  0  0
 20 33  2  0  0  0  0
 20 35  1  0  0  0  0
 21 23  2  0  0  0  0
 21 41  1  0  0  0  0
 22 24  2  0  0  0  0
 22 42  1  0  0  0  0
 23 52  1  0  0  0  0
 24 43  1  0  0  0  0
 25 69  1  0  0  0  0
 26 74  1  0  0  0  0
 27 83  1  0  0  0  0
 28 84  1  0  0  0  0
 29 31  2  0  0  0  0
 29 83  1  0  0  0  0
 30 85  1  0  0  0  0
 31 86  1  0  0  0  0
 32 67  2  0  0  0  0
 33 68  1  0  0  0  0
 33 72  1  0  0  0  0
 34 36  2  0  0  0  0
 34 44  1  0  0  0  0
 34 53  1  0  0  0  0
 35 73  1  0  0  0  0
 35 78  2  0  0  0  0
 36 56  1  0  0  0  0
 36 63  1  0  0  0  0
 37 54  1  0  0  0  0
 37 75  1  0  0  0  0
 37 79  2  0  0  0  0
 38 64  1  0  0  0  0
 38 70  1  0  0  0  0
 38 80  2  0  0  0  0
 39 65  1  0  0  0  0
 39 76  1  0  0  0  0
 39 81  2  0  0  0  0
 40 71  1  0  0  0  0
 40 74  1  0  0  0  0
 40 82  2  0  0  0  0
 41 45  1  0  0  0  0
 42 54  1  0  0  0  0
 43 70  1  0  0  0  0
 44 49  1  0  0  0  0
 45 47  1  0  0  0  0
 46 48  1  0  0  0  0
 46 50  1  0  0  0  0
 47 52  1  0  0  0  0
 48 55  1  0  0  0  0
 49 69  1  0  0  0  0
 50 71  1  0  0  0  0
 51 55  1  0  0  0  0
 51 71  1  0  0  0  0
 52 75  1  0  0  0  0
 53 57  1  0  0  0  0
 53 69  1  0  0  0  0
 54 70  1  0  0  0  0
 55 68  1  0  0  0  0
 58 65  1  0  0  0  0
 59 66  1  0  0  0  0
 60 66  1  0  0  0  0
 61 66  1  0  0  0  0
 62 77  1  0  0  0  0
 63 84  1  0  0  0  0
 64 66  1  0  0  0  0
 64 76  1  0  0  0  0
 65 77  1  0  0  0  0
 67 68  1  0  0  0  0
M  CHG  1  77   1
M  ISO  4  40 100  63 101  74 100  84 101
M  END
> <Batch ID>
0145

> <Smiles>
CNC(C)C(=O)NC(C(=O)N1Cc2cc([101O:1][101CH2:1]C(C)=C3CCN(c4cccc([100NH:0][100C:0](=O)N5CCCC(n6nc(-c7ccc(Oc8ccc(F)cc8F)cc7)c(C(N)=O)c6N)C5)c4)C3C)ccc2CC1C(=O)NC1CCCc2ccccc21)C(C)(C)C

> <Shape>
0.164

> <Color>
0.192

> <Negative vol penalty>
0.000

$$$$

  -OEChem-04052303073D

 87 95  0     1  0  0  0  0  0999 V2000
  -27.6416  -23.6577   17.7621 C   0  0  0  0  0  0  0  0  0  0  0  0
  -26.4526  -24.0545   18.3656 C   0  0  0  0  0  0  0  0  0  0  0  0
  -26.4163  -13.2696   21.0239 C   0  0  0  0  0  0  0  0  0  0  0  0
  -24.3424  -12.9859   19.8175 C   0  0  0  0  0  0  0  0  0  0  0  0
  -28.8619  -24.0988   18.2721 C   0  0  0  0  0  0  0  0  0  0  0  0
  -26.4833  -24.8918   19.4802 C   0  0  0  0  0  0  0  0  0  0  0  0
  -23.0822  -28.6328   19.1940 C   0  0  0  0  0  0  0  0  0  0  0  0
  -26.2253  -12.0343   21.6428 C   0  0  0  0  0  0  0  0  0  0  0  0
  -24.1514  -11.7505   20.4364 C   0  0  0  0  0  0  0  0  0  0  0  0
  -21.7563  -28.3113   19.4810 C   0  0  0  0  0  0  0  0  0  0  0  0
  -25.3015   -8.5912   20.0950 C   0  0  0  0  0  0  0  0  0  0  0  0
  -24.8957   -7.5231   19.2950 C   0  0  0  0  0  0  0  0  0  0  0  0
  -19.4446  -21.0971   19.9000 C   0  0  0  0  0  0  0  0  0  0  0  0
  -17.3350  -20.3755   18.9694 C   0  0  0  0  0  0  0  0  0  0  0  0
  -22.0221  -29.2214   21.6992 C   0  0  0  0  0  0  0  0  0  0  0  0
  -19.3808  -19.2579   18.3346 C   0  0  0  0  0  0  0  0  0  0  0  0
  -22.8918   -7.2888   20.6242 C   0  0  0  0  0  0  0  0  0  0  0  0
  -25.4748  -13.7454   20.1112 C   0  0  0  0  0  0  0  0  0  0  0  0
  -18.0595  -21.2291   19.8014 C   0  0  0  0  0  0  0  0  0  0  0  0
  -26.3421  -15.2710   18.2597 C   0  0  0  0  0  0  0  0  0  0  0  0
  -28.9072  -24.9497   19.3877 C   0  0  0  0  0  0  0  0  0  0  0  0
  -23.8926  -29.2422   20.1627 C   0  0  0  0  0  0  0  0  0  0  0  0
  -27.7054  -25.3436   20.0065 C   0  0  0  0  0  0  0  0  0  0  0  0
  -23.3572  -29.5520   21.4211 C   0  0  0  0  0  0  0  0  0  0  0  0
  -20.1052  -20.1115   19.1666 C   0  0  0  0  0  0  0  0  0  0  0  0
  -25.0929  -11.2747   21.3490 C   0  0  0  0  0  0  0  0  0  0  0  0
  -21.2269  -28.6029   20.7348 C   0  0  0  0  0  0  0  0  0  0  0  0
  -24.5025   -9.0080   21.1597 C   0  0  0  0  0  0  0  0  0  0  0  0
  -23.6908   -6.8719   19.5595 C   0  0  0  0  0  0  0  0  0  0  0  0
  -17.9957  -19.3899   18.2360 C   0  0  0  0  0  0  0  0  0  0  0  0
  -23.2976   -8.3569   21.4242 C   0  0  0  0  0  0  0  0  0  0  0  0
  -25.6713  -15.0217   19.4720 C   0  0  0  0  0  0  0  0  0  0  0  0
  -26.2530  -16.6312   18.0914 C   0  0  0  0  0  0  0  0  0  0  0  0
  -17.3493  -22.2898   20.5873 C   0  0  0  0  0  0  0  0  0  0  0  0
  -26.9880  -14.3549   17.3657 C   0  0  0  0  0  0  0  0  0  0  0  0
  -26.5704  -28.4388   21.6751 C   0  0  0  0  0  0  0  0  0  0  0  0
  -26.3523  -31.4553   22.8478 C   0  0  0  0  0  0  0  0  0  0  0  0
  -24.3791  -34.1379   23.5943 C   0  0  0  0  0  0  0  0  0  0  0  0
  -22.3807  -20.7413   20.0453 C   0  0  0  0  0  0  0  0  0  0  0  0
  -30.2520  -25.3623   19.9318 C   0  0  0  0  0  0  0  0  0  0  0  0
  -25.3130  -29.6070   19.8284 C   0  0  0  0  0  0  0  0  0  0  0  0
  -24.1795  -30.2241   22.4891 C   0  0  0  0  0  0  0  0  0  0  0  0
  -30.1836  -26.5500   20.8884 C   0  0  0  0  0  0  0  0  0  0  0  0
  -25.8984  -20.6990   20.5938 C   0  0  0  0  0  0  0  0  0  0  0  0
  -29.0591  -26.3561   21.9007 C   0  0  0  0  0  0  0  0  0  0  0  0
  -26.3013  -19.2626   20.2522 C   0  0  0  0  0  0  0  0  0  0  0  0
  -24.5359  -20.7573   21.2821 C   0  0  0  0  0  0  0  0  0  0  0  0
  -23.8523  -18.6395   20.2254 C   0  0  0  0  0  0  0  0  0  0  0  0
  -27.6966  -26.2711   21.2022 C   0  0  1  0  0  0  0  0  0  0  0  0
  -26.1971  -29.7590   21.0624 C   0  0  1  0  0  0  0  0  0  0  0  0
  -25.1885  -18.5355   19.4722 C   0  0  2  0  0  0  0  0  0  0  0  0
  -24.4798  -36.4442   24.5782 C   0  0  0  0  0  0  0  0  0  0  0  0
  -26.5723  -30.2507   25.6425 C   0  0  0  0  0  0  0  0  0  0  0  0
  -25.7265  -32.4180   26.5675 C   0  0  0  0  0  0  0  0  0  0  0  0
  -27.8791  -32.3567   25.3084 C   0  0  0  0  0  0  0  0  0  0  0  0
  -23.4170  -35.3765   21.0845 C   0  0  0  0  0  0  0  0  0  0  0  0
  -18.4502  -27.0126   22.4046 C   0  0  0  0  0  0  0  0  0  0  0  0
  -19.6216  -27.9825   22.3761 C   0  0  0  0  0  0  0  0  0  1  0  0
  -18.7694  -25.7268   21.6623 C   0  0  0  0  0  0  0  0  0  0  0  0
  -25.7008  -32.0893   24.0531 C   0  0  1  0  0  0  0  0  0  0  0  0
  -24.5400  -35.6189   23.3023 C   0  0  2  0  0  0  0  0  0  0  0  0
  -26.4545  -31.7643   25.3736 C   0  0  0  0  0  0  0  0  0  0  0  0
  -25.1915  -16.1343   20.0341 N   0  0  0  0  0  0  0  0  0  0  0  0
  -18.0285  -23.3748   20.8343 N   0  0  0  0  0  0  0  0  0  0  0  0
  -25.5614  -17.0959   19.1712 N   0  0  0  0  0  0  0  0  0  0  0  0
  -25.5647  -30.5552   22.1161 N   0  0  0  0  0  0  0  0  0  0  0  0
  -23.5309  -20.0518   20.4839 N   0  0  0  0  0  0  0  0  0  0  0  0
  -26.6996  -17.4632   17.1266 N   0  0  0  0  0  0  0  0  0  0  0  0
  -16.0534  -22.0328   20.9834 N   0  0  0  0  0  0  0  0  0  0  0  0
  -26.9866  -12.9915   17.6903 N   0  0  0  0  0  0  0  0  0  0  0  0
  -21.5122  -19.9770   19.2667 N   0  0  0  0  0  0  0  0  0  0  0  0
  -27.2431  -27.5903   20.8167 N   0  0  0  0  0  0  0  0  0  0  0  0
  -25.5979  -33.5145   23.7591 N   0  0  0  0  0  0  0  0  0  0  0  0
  -23.4599  -36.0870   22.3884 N   0  3  0  0  0  0  0  0  0  0  0  0
  -27.5640  -14.7361   16.3186 O   0  0  0  0  0  0  0  0  0  0  0  0
  -26.2716  -28.2077   22.8409 O   0  0  0  0  0  0  0  0  0  0  0  0
  -27.5146  -31.7534   22.5618 O   0  0  0  0  0  0  0  0  0  0  0  0
  -23.2819  -33.5897   23.6723 O   0  0  0  0  0  0  0  0  0  0  0  0
  -22.1941  -21.9303   20.3160 O   0  0  0  0  0  0  0  0  0  0  0  0
  -16.3270  -25.2444   20.9227 O   0  0  0  0  0  0  0  0  0  0  0  0
  -17.1836  -24.2214   23.0630 O   0  0  0  0  0  0  0  0  0  0  0  0
  -24.9063  -10.0691   21.9526 O   0  0  0  0  0  0  0  0  0  0  0  0
  -19.9333  -28.2896   21.0178 O   0  0  0  0  0  0  0  0  0  1  0  0
  -23.3005   -5.8472   18.7902 F   0  0  0  0  0  0  0  0  0  0  0  0
  -17.3004  -18.5722   17.4347 F   0  0  0  0  0  0  0  0  0  0  0  0
  -22.5252   -8.7536   22.4449 F   0  0  0  0  0  0  0  0  0  0  0  0
  -17.3980  -24.6166   21.6801 S   0  0  0  0  0  0  0  0  0  0  0  0
  1  2  1  0  0  0  0
  1  5  2  0  0  0  0
  2  6  2  0  0  0  0
  3  8  2  0  0  0  0
  3 18  1  0  0  0  0
  4  9  1  0  0  0  0
  4 18  2  0  0  0  0
  5 21  1  0  0  0  0
  6 23  1  0  0  0  0
  7 10  2  0  0  0  0
  7 22  1  0  0  0  0
  8 26  1  0  0  0  0
  9 26  2  0  0  0  0
 10 27  1  0  0  0  0
 11 12  2  0  0  0  0
 11 28  1  0  0  0  0
 12 29  1  0  0  0  0
 13 19  2  0  0  0  0
 13 25  1  0  0  0  0
 14 19  1  0  0  0  0
 14 30  2  0  0  0  0
 15 24  1  0  0  0  0
 15 27  2  0  0  0  0
 16 25  2  0  0  0  0
 16 30  1  0  0  0  0
 17 29  2  0  0  0  0
 17 31  1  0  0  0  0
 18 32  1  0  0  0  0
 19 34  1  0  0  0  0
 20 32  1  0  0  0  0
 20 33  2  0  0  0  0
 20 35  1  0  0  0  0
 21 23  2  0  0  0  0
 21 40  1  0  0  0  0
 22 24  2  0  0  0  0
 22 41  1  0  0  0  0
 23 49  1  0  0  0  0
 24 42  1  0  0  0  0
 25 71  1  0  0  0  0
 26 82  1  0  0  0  0
 27 83  1  0  0  0  0
 28 31  2  0  0  0  0
 28 82  1  0  0  0  0
 29 84  1  0  0  0  0
 30 85  1  0  0  0  0
 31 86  1  0  0  0  0
 32 63  2  0  0  0  0
 33 65  1  0  0  0  0
 33 68  1  0  0  0  0
 34 64  2  0  0  0  0
 34 69  1  0  0  0  0
 35 70  1  0  0  0  0
 35 75  2  0  0  0  0
 36 50  1  0  0  0  0
 36 72  1  0  0  0  0
 36 76  2  0  0  0  0
 37 60  1  0  0  0  0
 37 66  1  0  0  0  0
 37 77  2  0  0  0  0
 38 61  1  0  0  0  0
 38 73  1  0  0  0  0
 38 78  2  0  0  0  0
 39 67  1  0  0  0  0
 39 71  1  0  0  0  0
 39 79  2  0  0  0  0
 40 43  1  0  0  0  0
 41 50  1  0  0  0  0
 42 66  1  0  0  0  0
 43 45  1  0  0  0  0
 44 46  1  0  0  0  0
 44 47  1  0  0  0  0
 45 49  1  0  0  0  0
 46 51  1  0  0  0  0
 47 67  1  0  0  0  0
 48 51  1  0  0  0  0
 48 67  1  0  0  0  0
 49 72  1  0  0  0  0
 50 66  1  0  0  0  0
 51 65  1  0  0  0  0
 52 61  1  0  0  0  0
 53 62  1  0  0  0  0
 54 62  1  0  0  0  0
 55 62  1  0  0  0  0
 56 74  1  0  0  0  0
 57 58  1  0  0  0  0
 57 59  1  0  0  0  0
 58 83  1  0  0  0  0
 59 87  1  0  0  0  0
 60 62  1  0  0  0  0
 60 73  1  0  0  0  0
 61 74  1  0  0  0  0
 63 65  1  0  0  0  0
 64 87  1  0  0  0  0
 80 87  2  0  0  0  0
 81 87  2  0  0  0  0
M  CHG  1  74   1
M  ISO  4  39 100  58 101  71 100  83 101
M  END
> <Batch ID>
0145

> <Smiles>
CNC(C)C(=O)NC(C(=O)N1Cc2cc([101O:1][101CH2:1]CCS(=O)(=O)NC(=N)c3cc(F)cc([100NH:0][100C:0](=O)N4CCCC(n5nc(-c6ccc(Oc7ccc(F)cc7F)cc6)c(C(N)=O)c5N)C4)c3)ccc2CC1C(=O)NC1CCCc2ccccc21)C(C)(C)C

> <Shape>
0.256

> <Color>
0.072

> <Negative vol penalty>
0.000

$$$$

  -OEChem-04052303073D

 93101  0     1  0  0  0  0  0999 V2000
  -21.9080  -31.1452   14.4057 C   0  0  0  0  0  0  0  0  0  0  0  0
  -23.0634  -30.6086   14.9649 C   0  0  0  0  0  0  0  0  0  0  0  0
  -29.8542  -10.9406   16.5823 C   0  0  0  0  0  0  0  0  0  0  0  0
  -30.5715  -13.2475   16.5499 C   0  0  0  0  0  0  0  0  0  0  0  0
  -21.2764  -32.2272   15.0175 C   0  0  0  0  0  0  0  0  0  0  0  0
  -23.5884  -31.1545   16.1357 C   0  0  0  0  0  0  0  0  0  0  0  0
  -24.9573  -27.6131   19.4867 C   0  0  0  0  0  0  0  0  0  0  0  0
  -23.7592  -18.7772   20.1273 C   0  0  0  0  0  0  0  0  0  0  0  0
  -30.3615  -10.7648   15.2950 C   0  0  0  0  0  0  0  0  0  0  0  0
  -31.0788  -13.0716   15.2626 C   0  0  0  0  0  0  0  0  0  0  0  0
  -26.1655  -26.9552   19.2601 C   0  0  0  0  0  0  0  0  0  0  0  0
  -23.5396  -20.1216   19.8273 C   0  0  0  0  0  0  0  0  0  0  0  0
  -32.8847  -13.1325   12.1077 C   0  0  0  0  0  0  0  0  0  0  0  0
  -34.1502  -13.6502   11.8322 C   0  0  0  0  0  0  0  0  0  0  0  0
  -27.2389  -28.3799   20.8841 C   0  0  0  0  0  0  0  0  0  0  0  0
  -26.1446  -19.1379   19.9975 C   0  0  0  0  0  0  0  0  0  0  0  0
  -35.0990  -12.2481   13.5558 C   0  0  0  0  0  0  0  0  0  0  0  0
  -29.9591  -12.1820   17.2098 C   0  0  0  0  0  0  0  0  0  0  0  0
  -30.1159  -12.1699   19.7560 C   0  0  0  0  0  0  0  0  0  0  0  0
  -21.7886  -32.7804   16.2017 C   0  0  0  0  0  0  0  0  0  0  0  0
  -24.8832  -28.6683   20.4073 C   0  0  0  0  0  0  0  0  0  0  0  0
  -22.9639  -32.2457   16.7631 C   0  0  0  0  0  0  0  0  0  0  0  0
  -26.0280  -29.0479   21.1224 C   0  0  0  0  0  0  0  0  0  0  0  0
  -25.0618  -18.2854   20.2125 C   0  0  0  0  0  0  0  0  0  0  0  0
  -25.9250  -20.4823   19.6974 C   0  0  0  0  0  0  0  0  0  0  0  0
  -30.9739  -11.8302   14.6351 C   0  0  0  0  0  0  0  0  0  0  0  0
  -27.3072  -27.3405   19.9568 C   0  0  0  0  0  0  0  0  0  0  0  0
  -24.6225  -20.9741   19.6123 C   0  0  0  0  0  0  0  0  0  0  0  0
  -32.7262  -12.1726   13.1072 C   0  0  0  0  0  0  0  0  0  0  0  0
  -35.2574  -13.2080   12.5563 C   0  0  0  0  0  0  0  0  0  0  0  0
  -33.8334  -11.7303   13.8313 C   0  0  0  0  0  0  0  0  0  0  0  0
  -29.4348  -12.3644   18.5394 C   0  0  0  0  0  0  0  0  0  0  0  0
  -29.1874  -12.4731   20.7216 C   0  0  0  0  0  0  0  0  0  0  0  0
  -31.4672  -11.7526   19.9920 C   0  0  0  0  0  0  0  0  0  0  0  0
  -24.1663  -31.7595   20.2230 C   0  0  0  0  0  0  0  0  0  0  0  0
  -29.8884  -25.0497   18.6528 C   0  0  0  0  0  0  0  0  0  0  0  0
  -24.4051  -31.6083   23.4545 C   0  0  0  0  0  0  0  0  0  0  0  0
  -25.6869  -30.0276   26.1940 C   0  0  0  0  0  0  0  0  0  0  0  0
  -24.3213  -15.9406   20.7604 C   0  0  0  0  0  0  0  0  0  0  0  0
  -21.0977  -33.9798   16.8007 C   0  0  0  0  0  0  0  0  0  0  0  0
  -23.5664  -29.3501   20.6598 C   0  0  0  0  0  0  0  0  0  0  0  0
  -25.9968  -30.1612   22.1363 C   0  0  0  0  0  0  0  0  0  0  0  0
  -21.5077  -34.2610   18.2440 C   0  0  0  0  0  0  0  0  0  0  0  0
  -24.4637  -12.4627   21.5092 C   0  0  0  0  0  0  0  0  0  0  0  0
  -23.0245  -34.1931   18.3910 C   0  0  0  0  0  0  0  0  0  0  0  0
  -25.8193  -12.0264   20.9488 C   0  0  0  0  0  0  0  0  0  0  0  0
  -23.7968  -13.5154   20.6255 C   0  0  0  0  0  0  0  0  0  0  0  0
  -25.9833  -14.2511   19.7610 C   0  0  0  0  0  0  0  0  0  0  0  0
  -23.5501  -32.7945   18.0458 C   0  0  1  0  0  0  0  0  0  0  0  0
  -23.7212  -30.7509   21.2439 C   0  0  1  0  0  0  0  0  0  0  0  0
  -26.7228  -13.2391   20.6513 C   0  0  2  0  0  0  0  0  0  0  0  0
  -25.7372  -30.1578   28.6996 C   0  0  0  0  0  0  0  0  0  0  0  0
  -24.4846  -23.5864   16.7049 C   0  0  0  0  0  0  0  0  0  0  0  0
  -22.0735  -24.1941   17.0440 C   0  0  0  0  0  0  0  0  0  0  0  0
  -29.7603  -24.4353   16.2229 C   0  0  0  0  0  0  0  0  0  0  0  0
  -31.5883  -23.5011   17.6205 C   0  0  0  0  0  0  0  0  0  0  0  0
  -26.3808  -33.9278   23.2919 C   0  0  0  0  0  0  0  0  0  0  0  0
  -27.0975  -33.3900   25.6297 C   0  0  0  0  0  0  0  0  0  0  0  0
  -24.7440  -34.0818   25.1765 C   0  0  0  0  0  0  0  0  0  0  0  0
  -24.4207  -27.3673   26.4735 C   0  0  0  0  0  0  0  0  0  0  0  0
  -28.4954  -25.6462   18.7849 C   0  0  0  0  0  0  0  0  0  1  0  0
  -29.1956  -22.6848   17.9374 C   0  0  0  0  0  0  0  0  0  0  0  0
  -28.3843  -20.8799   19.5578 C   0  0  0  0  0  0  0  0  0  0  0  0
  -23.1788  -22.5853   18.6246 C   0  0  0  0  0  0  0  0  0  0  0  0
  -25.5226  -31.7876   24.4535 C   0  0  1  0  0  0  0  0  0  0  0  0
  -25.0376  -29.5656   27.4861 C   0  0  2  0  0  0  0  0  0  0  0  0
  -23.3804  -23.8177   17.7387 C   0  0  0  0  0  0  0  0  0  0  0  0
  -29.3550  -22.0442   19.3291 C   0  0  2  0  0  0  0  0  0  0  0  0
  -30.1022  -23.9096   17.6311 C   0  0  0  0  0  0  0  0  0  0  0  0
  -25.9376  -33.2771   24.6174 C   0  0  0  0  0  0  0  0  0  0  0  0
  -28.1711  -12.7603   18.7136 N   0  0  0  0  0  0  0  0  0  0  0  0
  -28.0507  -12.8170   20.0509 N   0  0  0  0  0  0  0  0  0  0  0  0
  -24.6873  -30.8013   22.3432 N   0  0  0  0  0  0  0  0  0  0  0  0
  -24.7101  -14.6358   20.3901 N   0  0  0  0  0  0  0  0  0  0  0  0
  -29.2406  -12.4763   22.0705 N   0  0  0  0  0  0  0  0  0  0  0  0
  -32.2855  -11.4819   18.8869 N   0  0  0  0  0  0  0  0  0  0  0  0
  -25.2842  -16.9198   20.5182 N   0  0  0  0  0  0  0  0  0  0  0  0
  -27.0093  -21.3180   19.4863 N   0  0  0  0  0  0  0  0  0  0  0  0
  -23.3132  -31.8806   19.1427 N   0  0  0  0  0  0  0  0  0  0  0  0
  -25.0725  -31.1534   25.6878 N   0  0  0  0  0  0  0  0  0  0  0  0
  -25.0919  -28.0800   27.5908 N   0  3  0  0  0  0  0  0  0  0  0  0
  -31.9300  -11.6079   21.1489 O   0  0  0  0  0  0  0  0  0  0  0  0
  -25.2058  -32.3829   20.4029 O   0  0  0  0  0  0  0  0  0  0  0  0
  -30.8131  -25.4655   19.3556 O   0  0  0  0  0  0  0  0  0  0  0  0
  -23.3194  -32.1580   23.6564 O   0  0  0  0  0  0  0  0  0  0  0  0
  -26.6458  -29.4499   25.6868 O   0  0  0  0  0  0  0  0  0  0  0  0
  -23.2262  -16.1683   21.2809 O   0  0  0  0  0  0  0  0  0  0  0  0
  -29.1621  -23.0216   20.3468 O   0  0  0  0  0  0  0  0  0  0  0  0
  -31.4692  -11.6589   13.3790 O   0  0  0  0  0  0  0  0  0  0  0  0
  -28.4989  -26.6945   19.7350 O   0  0  0  0  0  0  0  0  0  1  0  0
  -24.3867  -22.2842   19.3201 O   0  0  0  0  0  0  0  0  0  0  0  0
  -36.4729  -13.7042   12.2906 F   0  0  0  0  0  0  0  0  0  0  0  0
  -33.6876  -10.8075   14.7920 F   0  0  0  0  0  0  0  0  0  0  0  0
  1  2  1  0  0  0  0
  1  5  2  0  0  0  0
  2  6  2  0  0  0  0
  3  9  2  0  0  0  0
  3 18  1  0  0  0  0
  4 10  1  0  0  0  0
  4 18  2  0  0  0  0
  5 20  1  0  0  0  0
  6 22  1  0  0  0  0
  7 11  2  0  0  0  0
  7 21  1  0  0  0  0
  8 12  2  0  0  0  0
  8 24  1  0  0  0  0
  9 26  1  0  0  0  0
 10 26  2  0  0  0  0
 11 27  1  0  0  0  0
 12 28  1  0  0  0  0
 13 14  2  0  0  0  0
 13 29  1  0  0  0  0
 14 30  1  0  0  0  0
 15 23  1  0  0  0  0
 15 27  2  0  0  0  0
 16 24  2  0  0  0  0
 16 25  1  0  0  0  0
 17 30  2  0  0  0  0
 17 31  1  0  0  0  0
 18 32  1  0  0  0  0
 19 32  1  0  0  0  0
 19 33  2  0  0  0  0
 19 34  1  0  0  0  0
 20 22  2  0  0  0  0
 20 40  1  0  0  0  0
 21 23  2  0  0  0  0
 21 41  1  0  0  0  0
 22 49  1  0  0  0  0
 23 42  1  0  0  0  0
 24 77  1  0  0  0  0
 25 28  2  0  0  0  0
 25 78  1  0  0  0  0
 26 89  1  0  0  0  0
 27 90  1  0  0  0  0
 28 91  1  0  0  0  0
 29 31  2  0  0  0  0
 29 89  1  0  0  0  0
 30 92  1  0  0  0  0
 31 93  1  0  0  0  0
 32 71  2  0  0  0  0
 33 72  1  0  0  0  0
 33 75  1  0  0  0  0
 34 76  1  0  0  0  0
 34 82  2  0  0  0  0
 35 50  1  0  0  0  0
 35 79  1  0  0  0  0
 35 83  2  0  0  0  0
 36 61  1  0  0  0  0
 36 69  1  0  0  0  0
 36 84  2  0  0  0  0
 37 65  1  0  0  0  0
 37 73  1  0  0  0  0
 37 85  2  0  0  0  0
 38 66  1  0  0  0  0
 38 80  1  0  0  0  0
 38 86  2  0  0  0  0
 39 74  1  0  0  0  0
 39 77  1  0  0  0  0
 39 87  2  0  0  0  0
 40 43  1  0  0  0  0
 41 50  1  0  0  0  0
 42 73  1  0  0  0  0
 43 45  1  0  0  0  0
 44 46  1  0  0  0  0
 44 47  1  0  0  0  0
 45 49  1  0  0  0  0
 46 51  1  0  0  0  0
 47 74  1  0  0  0  0
 48 51  1  0  0  0  0
 48 74  1  0  0  0  0
 49 79  1  0  0  0  0
 50 73  1  0  0  0  0
 51 72  1  0  0  0  0
 52 66  1  0  0  0  0
 53 67  1  0  0  0  0
 54 67  1  0  0  0  0
 55 69  1  0  0  0  0
 56 69  1  0  0  0  0
 57 70  1  0  0  0  0
 58 70  1  0  0  0  0
 59 70  1  0  0  0  0
 60 81  1  0  0  0  0
 61 90  1  0  0  0  0
 62 68  1  0  0  0  0
 62 69  1  0  0  0  0
 63 68  1  0  0  0  0
 63 78  1  0  0  0  0
 64 67  1  0  0  0  0
 64 91  1  0  0  0  0
 65 70  1  0  0  0  0
 65 80  1  0  0  0  0
 66 81  1  0  0  0  0
 68 88  1  0  0  0  0
 71 72  1  0  0  0  0
M  CHG  1  81   1
M  ISO  4  39 100  61 101  77 100  90 101
M  END
> <Batch ID>
0145

> <Smiles>
CNC(C)C(=O)NC(C(=O)N1Cc2cc([101O:1][101CH2:1]C(=O)C(C)(C)CC(O)CNc3cc([100NH:0][100C:0](=O)N4CCCC(n5nc(-c6ccc(Oc7ccc(F)cc7F)cc6)c(C(N)=O)c5N)C4)ccc3OCC(C)C)ccc2CC1C(=O)NC1CCCc2ccccc21)C(C)(C)C

> <Shape>
0.270

> <Color>
0.115

> <Negative vol penalty>
0.000

$$$$

  -OEChem-04052303073D

 96104  0     1  0  0  0  0  0999 V2000
  -22.3297  -16.8634   14.6825 C   0  0  0  0  0  0  0  0  0  0  0  0
  -23.6706  -16.7944   15.0468 C   0  0  0  0  0  0  0  0  0  0  0  0
  -26.7688  -29.7595   20.7518 C   0  0  0  0  0  0  0  0  0  0  0  0
  -27.8100  -28.8794   22.7464 C   0  0  0  0  0  0  0  0  0  0  0  0
  -21.3377  -16.5975   15.6254 C   0  0  0  0  0  0  0  0  0  0  0  0
  -24.0202  -16.4604   16.3548 C   0  0  0  0  0  0  0  0  0  0  0  0
  -28.8988  -13.2220   18.1486 C   0  0  0  0  0  0  0  0  0  0  0  0
  -25.8380  -30.4390   21.5375 C   0  0  0  0  0  0  0  0  0  0  0  0
  -26.8791  -29.5590   23.5322 C   0  0  0  0  0  0  0  0  0  0  0  0
  -30.1455  -13.6009   18.6446 C   0  0  0  0  0  0  0  0  0  0  0  0
  -23.6623  -29.1565   24.4920 C   0  0  0  0  0  0  0  0  0  0  0  0
  -23.0744  -28.4603   25.5481 C   0  0  0  0  0  0  0  0  0  0  0  0
  -29.3379  -13.2890   20.8962 C   0  0  0  0  0  0  0  0  0  0  0  0
  -23.9670  -30.0742   27.1088 C   0  0  0  0  0  0  0  0  0  0  0  0
  -27.7152  -21.1720   23.2657 C   0  0  0  0  0  0  0  0  0  0  0  0
  -27.7548  -28.9796   21.3563 C   0  0  0  0  0  0  0  0  0  0  0  0
  -29.9654  -28.7529   20.1035 C   0  0  0  0  0  0  0  0  0  0  0  0
  -21.6756  -16.2506   16.9431 C   0  0  0  0  0  0  0  0  0  0  0  0
  -27.8572  -12.8836   19.0245 C   0  0  0  0  0  0  0  0  0  0  0  0
  -23.0318  -16.1909   17.3166 C   0  0  0  0  0  0  0  0  0  0  0  0
  -28.0797  -12.9036   20.4087 C   0  0  0  0  0  0  0  0  0  0  0  0
  -25.8931  -30.3388   22.9277 C   0  0  0  0  0  0  0  0  0  0  0  0
  -30.3643  -13.6373   20.0186 C   0  0  0  0  0  0  0  0  0  0  0  0
  -24.4027  -30.3115   24.7443 C   0  0  0  0  0  0  0  0  0  0  0  0
  -23.2268  -28.9192   26.8565 C   0  0  0  0  0  0  0  0  0  0  0  0
  -24.5550  -30.7703   26.0527 C   0  0  0  0  0  0  0  0  0  0  0  0
  -28.7164  -28.2770   20.5452 C   0  0  0  0  0  0  0  0  0  0  0  0
  -28.0922  -20.8967   21.9679 C   0  0  0  0  0  0  0  0  0  0  0  0
  -30.4896  -27.7147   19.3728 C   0  0  0  0  0  0  0  0  0  0  0  0
  -27.7960  -18.8397   22.6685 C   0  0  0  0  0  0  0  0  0  0  0  0
  -30.5956  -30.0202   20.3332 C   0  0  0  0  0  0  0  0  0  0  0  0
  -24.9664  -14.0575   19.6315 C   0  0  0  0  0  0  0  0  0  0  0  0
  -24.7297  -11.4400   21.5329 C   0  0  0  0  0  0  0  0  0  0  0  0
  -34.0197  -15.6341   22.6467 C   0  0  0  0  0  0  0  0  0  0  0  0
  -26.3161   -9.0295   23.3547 C   0  0  0  0  0  0  0  0  0  0  0  0
  -28.8068  -21.7152   19.6877 C   0  0  0  0  0  0  0  0  0  0  0  0
  -20.5674  -16.0180   17.9394 C   0  0  0  0  0  0  0  0  0  0  0  0
  -26.5263  -12.4512   18.4730 C   0  0  0  0  0  0  0  0  0  0  0  0
  -27.0006  -12.5300   21.3908 C   0  0  0  0  0  0  0  0  0  0  0  0
  -21.0286  -15.3051   19.2080 C   0  0  0  0  0  0  0  0  0  0  0  0
  -28.8064  -23.9871   16.7727 C   0  0  0  0  0  0  0  0  0  0  0  0
  -22.3125  -15.9357   19.7380 C   0  0  0  0  0  0  0  0  0  0  0  0
  -29.1405  -25.3764   17.3180 C   0  0  0  0  0  0  0  0  0  0  0  0
  -29.4431  -22.8648   17.5807 C   0  0  0  0  0  0  0  0  0  0  0  0
  -28.9402  -24.2627   19.5966 C   0  0  0  0  0  0  0  0  0  0  0  0
  -23.4514  -15.8077   18.7192 C   0  0  1  0  0  0  0  0  0  0  0  0
  -25.3829  -12.6231   19.4681 C   0  0  1  0  0  0  0  0  0  0  0  0
  -29.6459  -25.3492   18.7702 C   0  0  2  0  0  0  0  0  0  0  0  0
  -25.8555   -7.0516   24.8290 C   0  0  0  0  0  0  0  0  0  0  0  0
  -30.7574  -15.5641   24.5832 C   0  0  0  0  0  0  0  0  0  0  0  0
  -26.2634  -16.9222   23.0284 C   0  0  0  0  0  0  0  0  0  0  0  0
  -28.0366  -16.6479   21.3144 C   0  0  0  0  0  0  0  0  0  0  0  0
  -23.9712  -13.3197   23.8135 C   0  0  0  0  0  0  0  0  0  0  0  0
  -24.4534  -11.4575   25.4159 C   0  0  0  0  0  0  0  0  0  0  0  0
  -22.6418  -11.2035   23.7199 C   0  0  0  0  0  0  0  0  0  0  0  0
  -34.7920  -18.5797   23.0105 C   0  0  0  0  0  0  0  0  0  0  0  0
  -32.9120  -19.9224   23.9384 C   0  0  0  0  0  0  0  0  0  0  0  0
  -32.9711  -19.3873   21.4966 C   0  0  0  0  0  0  0  0  0  0  0  0
  -33.8811  -12.6096   23.1615 C   0  0  0  0  0  0  0  0  0  0  0  0
  -33.9406  -12.2722   20.6877 C   0  0  0  0  0  0  0  0  0  0  0  0
  -27.7315   -7.1868   21.5216 C   0  0  0  0  0  0  0  0  0  0  0  0
  -34.2869  -14.5704   21.5946 C   0  0  0  0  0  0  0  0  0  0  0  0
  -30.9512  -17.6427   23.1206 C   0  0  0  0  0  0  0  0  0  0  0  0
  -28.6534  -16.6512   23.7708 C   0  0  0  0  0  0  0  0  0  0  0  0
  -31.9828  -13.4393   21.7498 C   0  0  0  0  0  0  0  0  0  1  0  0
  -25.0565  -11.1326   22.9743 C   0  0  1  0  0  0  0  0  0  0  0  0
  -26.1316   -7.5237   23.4099 C   0  0  2  0  0  0  0  0  0  0  0  0
  -30.1411  -16.3607   23.4224 C   0  0  2  0  0  0  0  0  0  0  0  0
  -32.4893  -17.5080   23.2048 C   0  0  2  0  0  0  0  0  0  0  0  0
  -27.7288  -17.3010   22.6826 C   0  0  0  0  0  0  0  0  0  0  0  0
  -24.0507  -11.7873   23.9627 C   0  0  0  0  0  0  0  0  0  0  0  0
  -33.2714  -18.8357   22.9037 C   0  0  0  0  0  0  0  0  0  0  0  0
  -33.5132  -13.2447   21.8083 C   0  0  0  0  0  0  0  0  0  0  0  0
  -28.4622  -27.0333   20.1297 N   0  0  0  0  0  0  0  0  0  0  0  0
  -28.1395  -19.5599   21.6238 N   0  0  0  0  0  0  0  0  0  0  0  0
  -29.5587  -26.7190   19.4192 N   0  0  0  0  0  0  0  0  0  0  0  0
  -25.7146  -12.1201   20.8027 N   0  0  0  0  0  0  0  0  0  0  0  0
  -29.0445  -22.9245   18.9900 N   0  0  0  0  0  0  0  0  0  0  0  0
  -31.6513  -27.5656   18.7015 N   0  0  0  0  0  0  0  0  0  0  0  0
  -29.9181  -30.9729   21.1062 N   0  0  0  0  0  0  0  0  0  0  0  0
  -28.4165  -21.8961   21.0170 N   0  0  0  0  0  0  0  0  0  0  0  0
  -23.9967  -14.4673   18.7364 N   0  0  0  0  0  0  0  0  0  0  0  0
  -25.1326   -9.6791   23.0745 N   0  0  0  0  0  0  0  0  0  0  0  0
  -32.9329  -16.4309   22.3425 N   0  0  0  0  0  0  0  0  0  0  0  0
  -27.3560   -6.8333   22.9148 N   0  3  0  0  0  0  0  0  0  0  0  0
  -31.7188  -30.3054   19.8530 O   0  0  0  0  0  0  0  0  0  0  0  0
  -25.4852  -14.7414   20.5060 O   0  0  0  0  0  0  0  0  0  0  0  0
  -23.6434  -11.0834   21.0698 O   0  0  0  0  0  0  0  0  0  0  0  0
  -34.7200  -15.7372   23.6520 O   0  0  0  0  0  0  0  0  0  0  0  0
  -27.4009   -9.5751   23.5451 O   0  0  0  0  0  0  0  0  0  0  0  0
  -28.9266  -20.6172   19.1398 O   0  0  0  0  0  0  0  0  0  0  0  0
  -24.9851  -31.0019   23.6947 O   0  0  0  0  0  0  0  0  0  0  0  0
  -31.5886  -14.0101   20.5087 O   0  0  0  0  0  0  0  0  0  1  0  0
  -22.6608  -28.2514   27.8704 F   0  0  0  0  0  0  0  0  0  0  0  0
  -25.2641  -31.8800   26.3012 F   0  0  0  0  0  0  0  0  0  0  0  0
  -27.4030  -19.7050   24.0975 S   0  0  0  0  0  0  0  0  0  0  0  0
  1  2  1  0  0  0  0
  1  5  2  0  0  0  0
  2  6  2  0  0  0  0
  3  8  2  0  0  0  0
  3 16  1  0  0  0  0
  4  9  1  0  0  0  0
  4 16  2  0  0  0  0
  5 18  1  0  0  0  0
  6 20  1  0  0  0  0
  7 10  2  0  0  0  0
  7 19  1  0  0  0  0
  8 22  1  0  0  0  0
  9 22  2  0  0  0  0
 10 23  1  0  0  0  0
 11 12  2  0  0  0  0
 11 24  1  0  0  0  0
 12 25  1  0  0  0  0
 13 21  1  0  0  0  0
 13 23  2  0  0  0  0
 14 25  2  0  0  0  0
 14 26  1  0  0  0  0
 15 28  2  0  0  0  0
 15 96  1  0  0  0  0
 16 27  1  0  0  0  0
 17 27  1  0  0  0  0
 17 29  2  0  0  0  0
 17 31  1  0  0  0  0
 18 20  2  0  0  0  0
 18 37  1  0  0  0  0
 19 21  2  0  0  0  0
 19 38  1  0  0  0  0
 20 46  1  0  0  0  0
 21 39  1  0  0  0  0
 22 92  1  0  0  0  0
 23 93  1  0  0  0  0
 24 26  2  0  0  0  0
 24 92  1  0  0  0  0
 25 94  1  0  0  0  0
 26 95  1  0  0  0  0
 27 74  2  0  0  0  0
 28 75  1  0  0  0  0
 28 81  1  0  0  0  0
 29 76  1  0  0  0  0
 29 79  1  0  0  0  0
 30 70  1  0  0  0  0
 30 75  2  0  0  0  0
 30 96  1  0  0  0  0
 31 80  1  0  0  0  0
 31 86  2  0  0  0  0
 32 47  1  0  0  0  0
 32 82  1  0  0  0  0
 32 87  2  0  0  0  0
 33 66  1  0  0  0  0
 33 77  1  0  0  0  0
 33 88  2  0  0  0  0
 34 62  1  0  0  0  0
 34 84  1  0  0  0  0
 34 89  2  0  0  0  0
 35 67  1  0  0  0  0
 35 83  1  0  0  0  0
 35 90  2  0  0  0  0
 36 78  1  0  0  0  0
 36 81  1  0  0  0  0
 36 91  2  0  0  0  0
 37 40  1  0  0  0  0
 38 47  1  0  0  0  0
 39 77  1  0  0  0  0
 40 42  1  0  0  0  0
 41 43  1  0  0  0  0
 41 44  1  0  0  0  0
 42 46  1  0  0  0  0
 43 48  1  0  0  0  0
 44 78  1  0  0  0  0
 45 48  1  0  0  0  0
 45 78  1  0  0  0  0
 46 82  1  0  0  0  0
 47 77  1  0  0  0  0
 48 76  1  0  0  0  0
 49 67  1  0  0  0  0
 50 68  1  0  0  0  0
 51 70  1  0  0  0  0
 52 70  1  0  0  0  0
 53 71  1  0  0  0  0
 54 71  1  0  0  0  0
 55 71  1  0  0  0  0
 56 72  1  0  0  0  0
 57 72  1  0  0  0  0
 58 72  1  0  0  0  0
 59 73  1  0  0  0  0
 60 73  1  0  0  0  0
 61 85  1  0  0  0  0
 62 73  1  0  0  0  0
 63 68  1  0  0  0  0
 63 69  1  0  0  0  0
 64 68  1  0  0  0  0
 64 70  1  0  0  0  0
 65 73  1  0  0  0  0
 65 93  1  0  0  0  0
 66 71  1  0  0  0  0
 66 83  1  0  0  0  0
 67 85  1  0  0  0  0
 69 72  1  0  0  0  0
 69 84  1  0  0  0  0
 74 76  1  0  0  0  0
M  CHG  1  85   1
M  ISO  4  36 100  65 101  81 100  93 101
M  END
> <Batch ID>
0145

> <Smiles>
CNC(C)C(=O)NC(C(=O)N1Cc2cc([101O:1][101CH2:1]C(C)(C)CC(=O)NC(CC(C)CC(C)(C)c3nc([100NH:0][100C:0](=O)N4CCCC(n5nc(-c6ccc(Oc7ccc(F)cc7F)cc6)c(C(N)=O)c5N)C4)cs3)C(C)(C)C)ccc2CC1C(=O)NC1CCCc2ccccc21)C(C)(C)C

> <Shape>
0.233

> <Color>
0.060

> <Negative vol penalty>
0.000

$$$$

  -OEChem-04052303073D

 86 95  0     1  0  0  0  0  0999 V2000
  -28.5793  -36.1394   24.9799 C   0  0  0  0  0  0  0  0  0  0  0  0
  -28.9582  -35.0519   24.1994 C   0  0  0  0  0  0  0  0  0  0  0  0
  -24.4101   -9.2878   22.2941 C   0  0  0  0  0  0  0  0  0  0  0  0
  -23.4843  -10.2682   20.2894 C   0  0  0  0  0  0  0  0  0  0  0  0
  -27.4792  -36.0363   25.8302 C   0  0  0  0  0  0  0  0  0  0  0  0
  -28.2376  -33.8601   24.2695 C   0  0  0  0  0  0  0  0  0  0  0  0
  -27.1435  -29.9447   19.6894 C   0  0  0  0  0  0  0  0  0  0  0  0
  -23.4009   -8.3250   22.2893 C   0  0  0  0  0  0  0  0  0  0  0  0
  -22.4751   -9.3053   20.2846 C   0  0  0  0  0  0  0  0  0  0  0  0
  -27.7538  -28.7496   19.3110 C   0  0  0  0  0  0  0  0  0  0  0  0
  -22.7143   -5.4441   20.6576 C   0  0  0  0  0  0  0  0  0  0  0  0
  -23.0816   -4.1189   20.8905 C   0  0  0  0  0  0  0  0  0  0  0  0
  -30.2720  -19.3845   18.1659 C   0  0  0  0  0  0  0  0  0  0  0  0
  -29.5531  -18.1916   18.4177 C   0  0  0  0  0  0  0  0  0  0  0  0
  -26.0749  -27.5146   20.5256 C   0  0  0  0  0  0  0  0  0  0  0  0
  -21.6462   -4.0623   22.8331 C   0  0  0  0  0  0  0  0  0  0  0  0
  -24.4518  -10.2595   21.2942 C   0  0  0  0  0  0  0  0  0  0  0  0
  -26.7531  -11.1699   20.6755 C   0  0  0  0  0  0  0  0  0  0  0  0
  -26.7390  -34.8457   25.9036 C   0  0  0  0  0  0  0  0  0  0  0  0
  -25.9987  -29.9340   20.4991 C   0  0  0  0  0  0  0  0  0  0  0  0
  -27.1274  -33.7405   25.1226 C   0  0  0  0  0  0  0  0  0  0  0  0
  -25.4505  -28.7108   20.9108 C   0  0  0  0  0  0  0  0  0  0  0  0
  -22.4334   -8.3337   21.2846 C   0  0  0  0  0  0  0  0  0  0  0  0
  -27.2212  -27.5345   19.7315 C   0  0  0  0  0  0  0  0  0  0  0  0
  -21.8129   -6.0786   21.5125 C   0  0  0  0  0  0  0  0  0  0  0  0
  -22.5476   -3.4280   21.9782 C   0  0  0  0  0  0  0  0  0  0  0  0
  -21.2789   -5.3877   22.6002 C   0  0  0  0  0  0  0  0  0  0  0  0
  -25.4937  -11.2547   21.2988 C   0  0  0  0  0  0  0  0  0  0  0  0
  -27.3653  -12.3624   20.9749 C   0  0  0  0  0  0  0  0  0  0  0  0
  -29.9401  -20.2519   19.1805 C   0  0  0  0  0  0  0  0  0  0  0  0
  -28.8335  -18.4150   19.5685 C   0  0  0  0  0  0  0  0  0  0  0  0
  -27.3188  -10.1082   19.8955 C   0  0  0  0  0  0  0  0  0  0  0  0
  -29.3175  -24.5501   19.5877 C   0  0  0  0  0  0  0  0  0  0  0  0
  -25.2856  -31.0461   23.3902 C   0  0  0  0  0  0  0  0  0  0  0  0
  -22.2975  -30.0558   22.6073 C   0  0  0  0  0  0  0  0  0  0  0  0
  -20.3264  -27.9968   20.7307 C   0  0  0  0  0  0  0  0  0  0  0  0
  -27.2528  -17.9078   21.4633 C   0  0  0  0  0  0  0  0  0  0  0  0
  -25.5859  -34.7664   26.8725 C   0  0  0  0  0  0  0  0  0  0  0  0
  -25.3367  -31.2309   20.8764 C   0  0  0  0  0  0  0  0  0  0  0  0
  -24.2112  -28.6444   21.7642 C   0  0  0  0  0  0  0  0  0  0  0  0
  -24.6495  -33.5898   26.6100 C   0  0  0  0  0  0  0  0  0  0  0  0
  -26.0560  -16.0117   24.2291 C   0  0  0  0  0  0  0  0  0  0  0  0
  -25.4496  -32.3111   26.3827 C   0  0  0  0  0  0  0  0  0  0  0  0
  -25.9066  -14.5981   23.6620 C   0  0  0  0  0  0  0  0  0  0  0  0
  -31.5950  -23.5369   19.4633 C   0  0  0  0  0  0  0  0  0  0  0  0
  -25.6820  -17.0777   23.2008 C   0  0  0  0  0  0  0  0  0  0  0  0
  -31.2662  -22.3040   18.6220 C   0  0  0  0  0  0  0  0  0  0  0  0
  -29.8503  -22.3273   20.5882 C   0  0  0  0  0  0  0  0  0  0  0  0
  -26.2257  -15.5527   21.3439 C   0  0  0  0  0  0  0  0  0  0  0  0
  -26.3560  -32.4388   25.1524 C   0  0  1  0  0  0  0  0  0  0  0  0
  -30.3532  -23.7462   20.3170 C   0  0  2  0  0  0  0  0  0  0  0  0
  -24.4727  -31.1185   22.1287 C   0  0  1  0  0  0  0  0  0  0  0  0
  -26.6533  -14.4465   22.3222 C   0  0  2  0  0  0  0  0  0  0  0  0
  -17.9233  -27.3895   20.3386 C   0  0  0  0  0  0  0  0  0  0  0  0
  -28.1927  -25.5836   21.5924 C   0  0  0  0  0  0  0  0  0  0  0  0
  -29.9471  -26.8811   20.3186 C   0  0  0  0  0  0  0  0  0  0  0  0
  -22.2761  -28.4686   25.2131 C   0  0  0  0  0  0  0  0  0  0  0  0
  -20.3242  -27.1747   24.3276 C   0  0  0  0  0  0  0  0  0  0  0  0
  -20.1282  -29.6357   24.6848 C   0  0  0  0  0  0  0  0  0  0  0  0
  -20.4577  -28.8306   17.8940 C   0  0  0  0  0  0  0  0  0  0  0  0
  -21.5227  -28.7695   22.7620 C   0  0  1  0  0  0  0  0  0  0  0  0
  -19.0836  -28.2710   19.9033 C   0  0  2  0  0  0  0  0  0  0  0  0
  -28.8254  -25.8512   20.2304 C   0  0  0  0  0  0  0  0  0  1  0  0
  -21.0873  -28.5131   24.2324 C   0  0  0  0  0  0  0  0  0  0  0  0
  -25.3151  -12.4096   21.9455 N   0  0  0  0  0  0  0  0  0  0  0  0
  -26.4705  -13.0615   21.7302 N   0  0  0  0  0  0  0  0  0  0  0  0
  -30.3332  -21.5462   19.4496 N   0  0  3  0  0  0  0  0  0  0  0  0
  -23.6041  -29.9397   22.1122 N   0  0  0  0  0  0  0  0  0  0  0  0
  -26.4314  -16.8733   21.9592 N   0  0  0  0  0  0  0  0  0  0  0  0
  -28.5765  -12.8705   20.6632 N   0  0  0  0  0  0  0  0  0  0  0  0
  -26.5537   -8.9530   19.6848 N   0  0  0  0  0  0  0  0  0  0  0  0
  -27.9415  -17.5869   20.2941 N   0  0  0  0  0  0  0  0  0  0  0  0
  -25.5853  -32.2788   23.9380 N   0  0  0  0  0  0  0  0  0  0  0  0
  -20.4153  -28.8437   21.8151 N   0  0  0  0  0  0  0  0  0  0  0  0
  -19.3543  -28.0131   18.4607 N   0  3  0  0  0  0  0  0  0  0  0  0
  -28.4751  -10.1750   19.4138 O   0  0  0  0  0  0  0  0  0  0  0  0
  -28.8862  -24.1585   18.5009 O   0  0  0  0  0  0  0  0  0  0  0  0
  -25.6153  -29.9527   23.8346 O   0  0  0  0  0  0  0  0  0  0  0  0
  -21.7607  -31.1250   22.9078 O   0  0  0  0  0  0  0  0  0  0  0  0
  -21.1355  -27.1166   20.4456 O   0  0  0  0  0  0  0  0  0  0  0  0
  -27.3599  -18.9885   22.0488 O   0  0  0  0  0  0  0  0  0  0  0  0
  -29.0638  -19.6685   20.0398 O   0  0  0  0  0  0  0  0  0  0  0  0
  -21.4486   -7.3941   21.2795 O   0  0  0  0  0  0  0  0  0  0  0  0
  -27.8153  -26.3666   19.3642 O   0  0  0  0  0  0  0  0  0  1  0  0
  -22.8993   -2.1548   22.2009 F   0  0  0  0  0  0  0  0  0  0  0  0
  -20.4116   -5.9915   23.4243 F   0  0  0  0  0  0  0  0  0  0  0  0
  1  2  1  0  0  0  0
  1  5  2  0  0  0  0
  2  6  2  0  0  0  0
  3  8  2  0  0  0  0
  3 17  1  0  0  0  0
  4  9  1  0  0  0  0
  4 17  2  0  0  0  0
  5 19  1  0  0  0  0
  6 21  1  0  0  0  0
  7 10  2  0  0  0  0
  7 20  1  0  0  0  0
  8 23  1  0  0  0  0
  9 23  2  0  0  0  0
 10 24  1  0  0  0  0
 11 12  2  0  0  0  0
 11 25  1  0  0  0  0
 12 26  1  0  0  0  0
 13 14  1  0  0  0  0
 13 30  2  0  0  0  0
 14 31  2  0  0  0  0
 15 22  1  0  0  0  0
 15 24  2  0  0  0  0
 16 26  2  0  0  0  0
 16 27  1  0  0  0  0
 17 28  1  0  0  0  0
 18 28  1  0  0  0  0
 18 29  2  0  0  0  0
 18 32  1  0  0  0  0
 19 21  2  0  0  0  0
 19 38  1  0  0  0  0
 20 22  2  0  0  0  0
 20 39  1  0  0  0  0
 21 50  1  0  0  0  0
 22 40  1  0  0  0  0
 23 83  1  0  0  0  0
 24 84  1  0  0  0  0
 25 27  2  0  0  0  0
 25 83  1  0  0  0  0
 26 85  1  0  0  0  0
 27 86  1  0  0  0  0
 28 65  2  0  0  0  0
 29 66  1  0  0  0  0
 29 70  1  0  0  0  0
 30 67  1  0  0  0  0
 30 82  1  0  0  0  0
 31 72  1  0  0  0  0
 31 82  1  0  0  0  0
 32 71  1  0  0  0  0
 32 76  2  0  0  0  0
 33 51  1  0  0  0  0
 33 63  1  0  0  0  0
 33 77  2  0  0  0  0
 34 52  1  0  0  0  0
 34 73  1  0  0  0  0
 34 78  2  0  0  0  0
 35 61  1  0  0  0  0
 35 68  1  0  0  0  0
 35 79  2  0  0  0  0
 36 62  1  0  0  0  0
 36 74  1  0  0  0  0
 36 80  2  0  0  0  0
 37 69  1  0  0  0  0
 37 72  1  0  0  0  0
 37 81  2  0  0  0  0
 38 41  1  0  0  0  0
 39 52  1  0  0  0  0
 40 68  1  0  0  0  0
 41 43  1  0  0  0  0
 42 44  1  0  0  0  0
 42 46  1  0  0  0  0
 43 50  1  0  0  0  0
 44 53  1  0  0  0  0
 45 47  1  0  0  0  0
 45 51  1  0  0  0  0
 46 69  1  0  0  0  0
 47 67  1  0  0  0  0
 48 51  1  0  0  0  0
 48 67  1  0  0  0  0
 49 53  1  0  0  0  0
 49 69  1  0  0  0  0
 50 73  1  0  0  0  0
 52 68  1  0  0  0  0
 53 66  1  0  0  0  0
 54 62  1  0  0  0  0
 55 63  1  0  0  0  0
 56 63  1  0  0  0  0
 57 64  1  0  0  0  0
 58 64  1  0  0  0  0
 59 64  1  0  0  0  0
 60 75  1  0  0  0  0
 61 64  1  0  0  0  0
 61 74  1  0  0  0  0
 62 75  1  0  0  0  0
 63 84  1  0  0  0  0
 65 66  1  0  0  0  0
M  CHG  1  75   1
M  ISO  4  37 100  63 101  72 100  84 101
M  END
> <Batch ID>
0145

> <Smiles>
CNC(C)C(=O)NC(C(=O)N1Cc2cc([101O:1][101C:1](C)(C)C(=O)C3CCN(c4ccc([100NH:0][100C:0](=O)N5CCCC(n6nc(-c7ccc(Oc8ccc(F)cc8F)cc7)c(C(N)=O)c6N)C5)o4)C3)ccc2CC1C(=O)NC1CCCc2ccccc21)C(C)(C)C

> <Shape>
0.342

> <Color>
0.089

> <Negative vol penalty>
0.000

$$$$

  -OEChem-04052303073D

 84 93  0     1  0  0  0  0  0999 V2000
  -25.8684  -21.0856   16.2354 C   0  0  0  0  0  0  0  0  0  0  0  0
  -26.7297  -20.0517   16.5885 C   0  0  0  0  0  0  0  0  0  0  0  0
  -23.4191  -28.6548   22.2221 C   0  0  0  0  0  0  0  0  0  0  0  0
  -25.5382  -29.6426   21.6131 C   0  0  0  0  0  0  0  0  0  0  0  0
  -24.6640  -21.2516   16.9178 C   0  0  0  0  0  0  0  0  0  0  0  0
  -26.3875  -19.1838   17.6249 C   0  0  0  0  0  0  0  0  0  0  0  0
  -27.2576  -14.3321   16.4635 C   0  0  0  0  0  0  0  0  0  0  0  0
  -30.4120  -19.8264   17.8262 C   0  0  0  0  0  0  0  0  0  0  0  0
  -30.8721  -18.5532   17.4849 C   0  0  0  0  0  0  0  0  0  0  0  0
  -23.0857  -29.8081   22.9324 C   0  0  0  0  0  0  0  0  0  0  0  0
  -25.2047  -30.7959   22.3233 C   0  0  0  0  0  0  0  0  0  0  0  0
  -28.5768  -13.8868   16.5358 C   0  0  0  0  0  0  0  0  0  0  0  0
  -25.1507  -31.8069   25.5491 C   0  0  0  0  0  0  0  0  0  0  0  0
  -26.1251  -32.3615   26.3790 C   0  0  0  0  0  0  0  0  0  0  0  0
  -30.8305  -17.8229   19.8304 C   0  0  0  0  0  0  0  0  0  0  0  0
  -28.1205  -12.9044   18.6913 C   0  0  0  0  0  0  0  0  0  0  0  0
  -26.0402  -34.4139   25.1072 C   0  0  0  0  0  0  0  0  0  0  0  0
  -24.6455  -28.5721   21.5626 C   0  0  0  0  0  0  0  0  0  0  0  0
  -24.7269  -27.1111   19.4730 C   0  0  0  0  0  0  0  0  0  0  0  0
  -24.3024  -20.3795   17.9567 C   0  0  0  0  0  0  0  0  0  0  0  0
  -26.3614  -14.0759   17.5112 C   0  0  0  0  0  0  0  0  0  0  0  0
  -25.1777  -19.3392   18.3227 C   0  0  0  0  0  0  0  0  0  0  0  0
  -30.3812  -19.0771   20.1421 C   0  0  0  0  0  0  0  0  0  0  0  0
  -26.7899  -13.3454   18.6287 C   0  0  0  0  0  0  0  0  0  0  0  0
  -30.1958  -20.0191   19.1611 C   0  0  0  0  0  0  0  0  0  0  0  0
  -31.0802  -17.5619   18.4755 C   0  0  0  0  0  0  0  0  0  0  0  0
  -23.9784  -30.8786   22.9830 C   0  0  0  0  0  0  0  0  0  0  0  0
  -29.0092  -13.1753   17.6511 C   0  0  0  0  0  0  0  0  0  0  0  0
  -24.6211  -32.5559   24.4982 C   0  0  0  0  0  0  0  0  0  0  0  0
  -26.5698  -33.6649   26.1581 C   0  0  0  0  0  0  0  0  0  0  0  0
  -25.0658  -33.8593   24.2773 C   0  0  0  0  0  0  0  0  0  0  0  0
  -24.9908  -27.3808   20.8292 C   0  0  0  0  0  0  0  0  0  0  0  0
  -25.2514  -25.8590   19.2636 C   0  0  0  0  0  0  0  0  0  0  0  0
  -24.0669  -27.9200   18.4902 C   0  0  0  0  0  0  0  0  0  0  0  0
  -24.6933  -15.8800   19.5277 C   0  0  0  0  0  0  0  0  0  0  0  0
  -23.4218  -13.0302   20.4134 C   0  0  0  0  0  0  0  0  0  0  0  0
  -31.8129  -15.1915   18.9099 C   0  0  0  0  0  0  0  0  0  0  0  0
  -23.7587   -9.6391   20.5967 C   0  0  0  0  0  0  0  0  0  0  0  0
  -29.2350  -22.2141   19.7753 C   0  0  0  0  0  0  0  0  0  0  0  0
  -23.0118  -20.6276   18.6966 C   0  0  0  0  0  0  0  0  0  0  0  0
  -24.9345  -14.5400   17.4058 C   0  0  0  0  0  0  0  0  0  0  0  0
  -29.9306  -20.0515   21.1907 C   0  0  0  0  0  0  0  0  0  0  0  0
  -25.8617  -13.0266   19.7711 C   0  0  0  0  0  0  0  0  0  0  0  0
  -22.5514  -19.4372   19.5341 C   0  0  0  0  0  0  0  0  0  0  0  0
  -26.9944  -22.4310   22.5599 C   0  0  0  0  0  0  0  0  0  0  0  0
  -23.7142  -18.8728   20.3442 C   0  0  0  0  0  0  0  0  0  0  0  0
  -26.2233  -23.7106   22.2256 C   0  0  0  0  0  0  0  0  0  0  0  0
  -28.4711  -22.5790   22.2090 C   0  0  0  0  0  0  0  0  0  0  0  0
  -27.9870  -24.2290   20.4701 C   0  0  0  0  0  0  0  0  0  0  0  0
  -24.8304  -18.3622   19.4250 C   0  0  1  0  0  0  0  0  0  0  0  0
  -24.2461  -14.6674   18.7613 C   0  0  1  0  0  0  0  0  0  0  0  0
  -26.4775  -24.1611   20.7735 C   0  0  2  0  0  0  0  0  0  0  0  0
  -22.5707   -7.5824   21.4067 C   0  0  0  0  0  0  0  0  0  0  0  0
  -31.9446  -12.6715   15.9814 C   0  0  0  0  0  0  0  0  0  0  0  0
  -24.1799  -13.7265   23.2857 C   0  0  0  0  0  0  0  0  0  0  0  0
  -23.8567  -11.3164   23.8816 C   0  0  0  0  0  0  0  0  0  0  0  0
  -21.9336  -12.6575   23.0296 C   0  0  0  0  0  0  0  0  0  0  0  0
  -23.6402   -8.4928   17.8707 C   0  0  0  0  0  0  0  0  0  0  0  0
  -32.3080  -14.0090   18.0828 C   0  0  0  0  0  0  0  0  0  0  0  0
  -23.7718  -11.9743   21.4339 C   0  0  1  0  0  0  0  0  0  0  0  0
  -22.8120   -8.5114   20.2271 C   0  0  2  0  0  0  0  0  0  0  0  0
  -31.2844  -13.5269   17.0547 C   0  0  2  0  0  0  0  0  0  1  0  0
  -23.4538  -12.4262   22.8872 C   0  0  0  0  0  0  0  0  0  0  0  0
  -25.6327  -26.3805   21.4385 N   0  0  0  0  0  0  0  0  0  0  0  0
  -25.7766  -25.4700   20.4606 N   0  0  0  0  0  0  0  0  0  0  0  0
  -29.7521  -20.9748   20.0536 N   0  0  0  0  0  0  0  0  0  0  0  0
  -24.4779  -13.5074   19.6242 N   0  0  0  0  0  0  0  0  0  0  0  0
  -28.6212  -22.9446   20.7983 N   0  0  0  0  0  0  0  0  0  0  0  0
  -25.3097  -25.0639   18.1742 N   0  0  0  0  0  0  0  0  0  0  0  0
  -23.5889  -29.1803   18.8739 N   0  0  0  0  0  0  0  0  0  0  0  0
  -31.5456  -16.3022   18.0936 N   0  0  0  0  0  0  0  0  0  0  0  0
  -24.4766  -17.0744   18.8675 N   0  0  0  0  0  0  0  0  0  0  0  0
  -23.0767  -10.7602   21.0200 N   0  0  0  0  0  0  0  0  0  0  0  0
  -23.3754   -7.7091   19.1046 N   0  3  0  0  0  0  0  0  0  0  0  0
  -23.8914  -27.5297   17.3111 O   0  0  0  0  0  0  0  0  0  0  0  0
  -25.1963  -15.7422   20.6366 O   0  0  0  0  0  0  0  0  0  0  0  0
  -22.2530  -13.4122   20.3150 O   0  0  0  0  0  0  0  0  0  0  0  0
  -31.6824  -15.1283   20.1277 O   0  0  0  0  0  0  0  0  0  0  0  0
  -24.9809   -9.5345   20.5212 O   0  0  0  0  0  0  0  0  0  0  0  0
  -29.2837  -22.6601   18.6191 O   0  0  0  0  0  0  0  0  0  0  0  0
  -23.6533  -32.0042   23.6757 O   0  0  0  0  0  0  0  0  0  0  0  0
  -30.3037  -12.7376   17.7250 O   0  0  0  0  0  0  0  0  0  1  0  0
  -27.5044  -34.1978   26.9560 F   0  0  0  0  0  0  0  0  0  0  0  0
  -24.5599  -34.5841   23.2701 F   0  0  0  0  0  0  0  0  0  0  0  0
  1  2  1  0  0  0  0
  1  5  2  0  0  0  0
  2  6  2  0  0  0  0
  3 10  2  0  0  0  0
  3 18  1  0  0  0  0
  4 11  1  0  0  0  0
  4 18  2  0  0  0  0
  5 20  1  0  0  0  0
  6 22  1  0  0  0  0
  7 12  2  0  0  0  0
  7 21  1  0  0  0  0
  8  9  2  0  0  0  0
  8 25  1  0  0  0  0
  9 26  1  0  0  0  0
 10 27  1  0  0  0  0
 11 27  2  0  0  0  0
 12 28  1  0  0  0  0
 13 14  2  0  0  0  0
 13 29  1  0  0  0  0
 14 30  1  0  0  0  0
 15 23  1  0  0  0  0
 15 26  2  0  0  0  0
 16 24  1  0  0  0  0
 16 28  2  0  0  0  0
 17 30  2  0  0  0  0
 17 31  1  0  0  0  0
 18 32  1  0  0  0  0
 19 32  1  0  0  0  0
 19 33  2  0  0  0  0
 19 34  1  0  0  0  0
 20 22  2  0  0  0  0
 20 40  1  0  0  0  0
 21 24  2  0  0  0  0
 21 41  1  0  0  0  0
 22 50  1  0  0  0  0
 23 25  2  0  0  0  0
 23 42  1  0  0  0  0
 24 43  1  0  0  0  0
 25 66  1  0  0  0  0
 26 71  1  0  0  0  0
 27 81  1  0  0  0  0
 28 82  1  0  0  0  0
 29 31  2  0  0  0  0
 29 81  1  0  0  0  0
 30 83  1  0  0  0  0
 31 84  1  0  0  0  0
 32 64  2  0  0  0  0
 33 65  1  0  0  0  0
 33 69  1  0  0  0  0
 34 70  1  0  0  0  0
 34 75  2  0  0  0  0
 35 51  1  0  0  0  0
 35 72  1  0  0  0  0
 35 76  2  0  0  0  0
 36 60  1  0  0  0  0
 36 67  1  0  0  0  0
 36 77  2  0  0  0  0
 37 59  1  0  0  0  0
 37 71  1  0  0  0  0
 37 78  2  0  0  0  0
 38 61  1  0  0  0  0
 38 73  1  0  0  0  0
 38 79  2  0  0  0  0
 39 66  1  0  0  0  0
 39 68  1  0  0  0  0
 39 80  2  0  0  0  0
 40 44  1  0  0  0  0
 41 51  1  0  0  0  0
 42 66  1  0  0  0  0
 43 67  1  0  0  0  0
 44 46  1  0  0  0  0
 45 47  1  0  0  0  0
 45 48  1  0  0  0  0
 46 50  1  0  0  0  0
 47 52  1  0  0  0  0
 48 68  1  0  0  0  0
 49 52  1  0  0  0  0
 49 68  1  0  0  0  0
 50 72  1  0  0  0  0
 51 67  1  0  0  0  0
 52 65  1  0  0  0  0
 53 61  1  0  0  0  0
 54 62  1  0  0  0  0
 55 63  1  0  0  0  0
 56 63  1  0  0  0  0
 57 63  1  0  0  0  0
 58 74  1  0  0  0  0
 59 62  1  0  0  0  0
 60 63  1  0  0  0  0
 60 73  1  0  0  0  0
 61 74  1  0  0  0  0
 62 82  1  0  0  0  0
 64 65  1  0  0  0  0
M  CHG  1  74   1
M  ISO  4  39 100  62 101  66 100  82 101
M  END
> <Batch ID>
0145

> <Smiles>
CNC(C)C(=O)NC(C(=O)N1Cc2cc([101O:1][101CH:1](C)CC(=O)Nc3ccc4c(c3)C[100N:0]4[100C:0](=O)N3CCCC(n4nc(-c5ccc(Oc6ccc(F)cc6F)cc5)c(C(N)=O)c4N)C3)ccc2CC1C(=O)NC1CCCc2ccccc21)C(C)(C)C

> <Shape>
0.241

> <Color>
0.069

> <Negative vol penalty>
0.000

$$$$

  -OEChem-04052303073D

 95104  0     1  0  0  0  0  0999 V2000
  -25.5265  -34.3313   18.9833 C   0  0  0  0  0  0  0  0  0  0  0  0
  -25.5686  -32.9450   18.8749 C   0  0  0  0  0  0  0  0  0  0  0  0
  -26.4399  -12.1039   21.6376 C   0  0  0  0  0  0  0  0  0  0  0  0
  -25.7110  -13.3492   19.6999 C   0  0  0  0  0  0  0  0  0  0  0  0
  -25.1598  -34.9241   20.1908 C   0  0  0  0  0  0  0  0  0  0  0  0
  -25.2450  -32.1506   19.9742 C   0  0  0  0  0  0  0  0  0  0  0  0
  -22.2027  -28.2906   18.7536 C   0  0  0  0  0  0  0  0  0  0  0  0
  -25.2680  -11.3487   21.5931 C   0  0  0  0  0  0  0  0  0  0  0  0
  -24.5391  -12.5940   19.6553 C   0  0  0  0  0  0  0  0  0  0  0  0
  -22.7906  -27.1865   18.1380 C   0  0  0  0  0  0  0  0  0  0  0  0
  -24.0506   -8.7417   19.8170 C   0  0  0  0  0  0  0  0  0  0  0  0
  -24.1633   -7.3603   19.9738 C   0  0  0  0  0  0  0  0  0  0  0  0
  -29.3290  -23.1020   17.8249 C   0  0  0  0  0  0  0  0  0  0  0  0
  -28.0663  -21.1866   18.5824 C   0  0  0  0  0  0  0  0  0  0  0  0
  -22.8051  -26.0235   20.2514 C   0  0  0  0  0  0  0  0  0  0  0  0
  -29.6325  -22.2667   20.0715 C   0  0  0  0  0  0  0  0  0  0  0  0
  -22.7460   -7.4664   21.9276 C   0  0  0  0  0  0  0  0  0  0  0  0
  -26.6614  -13.1042   20.6910 C   0  0  0  0  0  0  0  0  0  0  0  0
  -28.3860  -22.1035   17.5810 C   0  0  0  0  0  0  0  0  0  0  0  0
  -29.0915  -13.6005   20.0948 C   0  0  0  0  0  0  0  0  0  0  0  0
  -24.8222  -34.1365   21.3028 C   0  0  0  0  0  0  0  0  0  0  0  0
  -21.9210  -28.2735   20.1273 C   0  0  0  0  0  0  0  0  0  0  0  0
  -24.8747  -32.7334   21.1981 C   0  0  0  0  0  0  0  0  0  0  0  0
  -22.2112  -27.1277   20.8815 C   0  0  0  0  0  0  0  0  0  0  0  0
  -29.9523  -23.1836   19.0701 C   0  0  0  0  0  0  0  0  0  0  0  0
  -28.6895  -21.2682   19.8277 C   0  0  0  0  0  0  0  0  0  0  0  0
  -24.3176  -11.5937   20.6020 C   0  0  0  0  0  0  0  0  0  0  0  0
  -23.0946  -26.0538   18.8875 C   0  0  0  0  0  0  0  0  0  0  0  0
  -23.2857   -9.4855   20.7156 C   0  0  0  0  0  0  0  0  0  0  0  0
  -23.5110   -6.7226   21.0291 C   0  0  0  0  0  0  0  0  0  0  0  0
  -22.6334   -8.8479   21.7708 C   0  0  0  0  0  0  0  0  0  0  0  0
  -27.8714  -13.8850   20.7368 C   0  0  0  0  0  0  0  0  0  0  0  0
  -29.9171  -14.6390   20.4506 C   0  0  0  0  0  0  0  0  0  0  0  0
  -27.7398  -22.0196   16.2901 C   0  0  0  0  0  0  0  0  0  0  0  0
  -29.4469  -12.4964   19.2521 C   0  0  0  0  0  0  0  0  0  0  0  0
  -22.8803  -29.9747   22.6351 C   0  0  0  0  0  0  0  0  0  0  0  0
  -20.6350  -28.2240   24.1895 C   0  0  0  0  0  0  0  0  0  0  0  0
  -18.7659  -25.3717   24.3231 C   0  0  0  0  0  0  0  0  0  0  0  0
  -28.8881  -20.2787   22.1359 C   0  0  0  0  0  0  0  0  0  0  0  0
  -24.4777  -34.8229   22.6008 C   0  0  0  0  0  0  0  0  0  0  0  0
  -21.2621  -29.4626   20.7710 C   0  0  0  0  0  0  0  0  0  0  0  0
  -21.9101  -27.0512   22.3553 C   0  0  0  0  0  0  0  0  0  0  0  0
  -23.7870  -33.9080   23.6090 C   0  0  0  0  0  0  0  0  0  0  0  0
  -30.6575  -17.7958   23.9749 C   0  0  0  0  0  0  0  0  0  0  0  0
  -24.5183  -32.5729   23.7067 C   0  0  0  0  0  0  0  0  0  0  0  0
  -30.2596  -16.4858   23.2909 C   0  0  0  0  0  0  0  0  0  0  0  0
  -24.8953  -23.7718   14.9240 C   0  0  0  0  0  0  0  0  0  0  0  0
  -29.4941  -18.7846   24.0268 C   0  0  0  0  0  0  0  0  0  0  0  0
  -25.8995  -22.6345   14.7759 C   0  0  0  0  0  0  0  0  0  0  0  0
  -25.9430  -23.5128   17.0665 C   0  0  0  0  0  0  0  0  0  0  0  0
  -28.4533  -17.7451   22.0506 C   0  0  0  0  0  0  0  0  0  0  0  0
  -24.5066  -31.8377   22.3611 C   0  0  1  0  0  0  0  0  0  0  0  0
  -21.4905  -29.5292   22.2779 C   0  0  1  0  0  0  0  0  0  0  0  0
  -24.5796  -23.7754   16.4219 C   0  0  1  0  0  0  0  0  0  0  0  0
  -29.6107  -16.7421   21.9166 C   0  0  2  0  0  0  0  0  0  0  0  0
  -26.7029  -26.3662   20.1640 C   0  0  0  0  0  0  0  0  0  0  0  0
  -28.9229  -28.1247   17.8176 C   0  0  0  0  0  0  0  0  0  0  0  0
  -17.0470  -24.2072   25.7327 C   0  0  0  0  0  0  0  0  0  0  0  0
  -31.5940  -24.2472   20.7618 C   0  0  0  0  0  0  0  0  0  0  0  0
  -32.1856  -24.0069   18.3774 C   0  0  0  0  0  0  0  0  0  0  0  0
  -22.8042  -27.4500   26.1910 C   0  0  0  0  0  0  0  0  0  0  0  0
  -21.3184  -25.5949   26.9780 C   0  0  0  0  0  0  0  0  0  0  0  0
  -20.5798  -27.9662   27.2109 C   0  0  0  0  0  0  0  0  0  0  0  0
  -29.5812  -26.4399   21.3084 C   0  0  0  0  0  0  0  0  0  0  0  0
  -16.7807  -25.3961   22.1283 C   0  0  0  0  0  0  0  0  0  0  0  0
  -23.9347  -25.0662   16.8938 C   0  0  0  0  0  0  0  0  0  1  0  0
  -27.9319  -25.7333   19.5162 C   0  0  0  0  0  0  0  0  0  0  0  0
  -29.2029  -27.9188   19.3039 C   0  0  0  0  0  0  0  0  0  0  0  0
  -30.4708  -25.7344   19.0051 C   0  0  0  0  0  0  0  0  0  0  0  0
  -20.6258  -26.9018   24.9181 C   0  0  1  0  0  0  0  0  0  0  0  0
  -17.2834  -25.1492   24.5624 C   0  0  2  0  0  0  0  0  0  0  0  0
  -30.9941  -24.2881   19.3400 C   0  0  0  0  0  0  0  0  0  0  0  0
  -21.3396  -26.9801   26.2971 C   0  0  0  0  0  0  0  0  0  0  0  0
  -29.2952  -26.4298   19.7898 C   0  0  0  0  0  0  0  0  0  0  0  0
  -27.9137  -15.0156   21.4468 N   0  0  0  0  0  0  0  0  0  0  0  0
  -29.1704  -15.4506   21.2531 N   0  0  0  0  0  0  0  0  0  0  0  0
  -26.6143  -22.6711   16.0615 N   0  0  0  0  0  0  0  0  0  0  0  0
  -21.2714  -28.2417   22.9402 N   0  0  0  0  0  0  0  0  0  0  0  0
  -28.9323  -18.9813   22.6887 N   0  0  0  0  0  0  0  0  0  0  0  0
  -31.2016  -14.9279   20.1522 N   0  0  0  0  0  0  0  0  0  0  0  0
  -28.4784  -11.5181   18.9887 N   0  0  0  0  0  0  0  0  0  0  0  0
  -28.3629  -20.3380   20.8454 N   0  0  0  0  0  0  0  0  0  0  0  0
  -23.2187  -31.2176   22.1351 N   0  0  0  0  0  0  0  0  0  0  0  0
  -19.2294  -26.4856   24.9908 N   0  0  0  0  0  0  0  0  0  0  0  0
  -28.2773  -21.2790   15.3062 N   0  3  0  0  0  0  0  0  0  0  0  0
  -16.6455  -24.5622   23.3502 N   0  3  0  0  0  0  0  0  0  0  0  0
  -30.5944  -12.3720   18.7609 O   0  0  0  0  0  0  0  0  0  0  0  0
  -23.5924  -29.2454   23.3154 O   0  0  0  0  0  0  0  0  0  0  0  0
  -20.0913  -29.2031   24.7064 O   0  0  0  0  0  0  0  0  0  0  0  0
  -19.4455  -24.6294   23.6177 O   0  0  0  0  0  0  0  0  0  0  0  0
  -29.3120  -21.2608   22.7506 O   0  0  0  0  0  0  0  0  0  0  0  0
  -23.1741  -10.8568   20.5581 O   0  0  0  0  0  0  0  0  0  0  0  0
  -23.6739  -24.9661   18.2843 O   0  0  0  0  0  0  0  0  0  1  0  0
  -23.6181   -5.3959   21.1786 F   0  0  0  0  0  0  0  0  0  0  0  0
  -21.8961   -9.5570   22.6365 F   0  0  0  0  0  0  0  0  0  0  0  0
  1  2  1  0  0  0  0
  1  5  2  0  0  0  0
  2  6  2  0  0  0  0
  3  8  2  0  0  0  0
  3 18  1  0  0  0  0
  4  9  1  0  0  0  0
  4 18  2  0  0  0  0
  5 21  1  0  0  0  0
  6 23  1  0  0  0  0
  7 10  2  0  0  0  0
  7 22  1  0  0  0  0
  8 27  1  0  0  0  0
  9 27  2  0  0  0  0
 10 28  1  0  0  0  0
 11 12  2  0  0  0  0
 11 29  1  0  0  0  0
 12 30  1  0  0  0  0
 13 19  1  0  0  0  0
 13 25  2  0  0  0  0
 14 19  2  0  0  0  0
 14 26  1  0  0  0  0
 15 24  1  0  0  0  0
 15 28  2  0  0  0  0
 16 25  1  0  0  0  0
 16 26  2  0  0  0  0
 17 30  2  0  0  0  0
 17 31  1  0  0  0  0
 18 32  1  0  0  0  0
 19 34  1  0  0  0  0
 20 32  1  0  0  0  0
 20 33  2  0  0  0  0
 20 35  1  0  0  0  0
 21 23  2  0  0  0  0
 21 40  1  0  0  0  0
 22 24  2  0  0  0  0
 22 41  1  0  0  0  0
 23 52  1  0  0  0  0
 24 42  1  0  0  0  0
 25 72  1  0  0  0  0
 26 82  1  0  0  0  0
 27 92  1  0  0  0  0
 28 93  1  0  0  0  0
 29 31  2  0  0  0  0
 29 92  1  0  0  0  0
 30 94  1  0  0  0  0
 31 95  1  0  0  0  0
 32 75  2  0  0  0  0
 33 76  1  0  0  0  0
 33 80  1  0  0  0  0
 34 77  1  0  0  0  0
 34 85  2  0  0  0  0
 35 81  1  0  0  0  0
 35 87  2  0  0  0  0
 36 53  1  0  0  0  0
 36 83  1  0  0  0  0
 36 88  2  0  0  0  0
 37 70  1  0  0  0  0
 37 78  1  0  0  0  0
 37 89  2  0  0  0  0
 38 71  1  0  0  0  0
 38 84  1  0  0  0  0
 38 90  2  0  0  0  0
 39 79  1  0  0  0  0
 39 82  1  0  0  0  0
 39 91  2  0  0  0  0
 40 43  1  0  0  0  0
 41 53  1  0  0  0  0
 42 78  1  0  0  0  0
 43 45  1  0  0  0  0
 44 46  1  0  0  0  0
 44 48  1  0  0  0  0
 45 52  1  0  0  0  0
 46 55  1  0  0  0  0
 47 49  1  0  0  0  0
 47 54  1  0  0  0  0
 48 79  1  0  0  0  0
 49 77  1  0  0  0  0
 50 54  1  0  0  0  0
 50 77  1  0  0  0  0
 51 55  1  0  0  0  0
 51 79  1  0  0  0  0
 52 83  1  0  0  0  0
 53 78  1  0  0  0  0
 54 66  1  0  0  0  0
 55 76  1  0  0  0  0
 56 67  1  0  0  0  0
 57 68  1  0  0  0  0
 58 71  1  0  0  0  0
 59 72  1  0  0  0  0
 60 72  1  0  0  0  0
 61 73  1  0  0  0  0
 62 73  1  0  0  0  0
 63 73  1  0  0  0  0
 64 74  1  0  0  0  0
 65 86  1  0  0  0  0
 66 93  1  0  0  0  0
 67 74  1  0  0  0  0
 68 74  1  0  0  0  0
 69 72  1  0  0  0  0
 69 74  1  0  0  0  0
 70 73  1  0  0  0  0
 70 84  1  0  0  0  0
 71 86  1  0  0  0  0
 75 76  1  0  0  0  0
M  CHG  2  85   1  86   1
M  ISO  4  39 100  66 101  82 100  93 101
M  END
> <Batch ID>
0145

> <Smiles>
CCC(C)(CC)CC(C)(C)c1cc([100NH:0][100C:0](=O)N2CCCC(n3nc(-c4ccc(Oc5ccc(F)cc5F)cc4)c(C(N)=O)c3N)C2)cc(C(=N)N2CCC([101CH2:1][101O:1]c3ccc4c(c3)CN(C(=O)C(NC(=O)C(C)NC)C(C)(C)C)C(C(=O)NC3CCCc5ccccc53)C4)C2)c1

> <Shape>
0.280

> <Color>
0.041

> <Negative vol penalty>
0.000

$$$$

  -OEChem-04052303073D

 86 95  0     1  0  0  0  0  0999 V2000
  -27.2175  -32.1040   27.7716 C   0  0  0  0  0  0  0  0  0  0  0  0
  -27.5048  -31.1218   26.8291 C   0  0  0  0  0  0  0  0  0  0  0  0
  -24.9012  -11.9325   20.5841 C   0  0  0  0  0  0  0  0  0  0  0  0
  -25.4923  -13.1102   22.6092 C   0  0  0  0  0  0  0  0  0  0  0  0
  -25.8931  -32.4556   28.0288 C   0  0  0  0  0  0  0  0  0  0  0  0
  -26.4675  -30.4898   26.1441 C   0  0  0  0  0  0  0  0  0  0  0  0
  -27.3897  -30.0676   21.1827 C   0  0  0  0  0  0  0  0  0  0  0  0
  -29.5078  -21.3142   23.2109 C   0  0  0  0  0  0  0  0  0  0  0  0
  -28.5855  -20.6302   22.4190 C   0  0  0  0  0  0  0  0  0  0  0  0
  -25.3462  -10.7374   21.1493 C   0  0  0  0  0  0  0  0  0  0  0  0
  -25.9372  -11.9150   23.1744 C   0  0  0  0  0  0  0  0  0  0  0  0
  -28.2615  -29.0565   20.7809 C   0  0  0  0  0  0  0  0  0  0  0  0
  -24.1973   -8.4443   23.3526 C   0  0  0  0  0  0  0  0  0  0  0  0
  -23.3897   -7.3168   23.2040 C   0  0  0  0  0  0  0  0  0  0  0  0
  -29.8219  -21.2547   20.4395 C   0  0  0  0  0  0  0  0  0  0  0  0
  -26.3758  -27.6811   20.1714 C   0  0  0  0  0  0  0  0  0  0  0  0
  -25.1823   -6.1859   22.0444 C   0  0  0  0  0  0  0  0  0  0  0  0
  -24.9743  -13.1189   21.3141 C   0  0  0  0  0  0  0  0  0  0  0  0
  -30.7442  -21.9388   21.2314 C   0  0  0  0  0  0  0  0  0  0  0  0
  -23.2170  -14.8940   20.7957 C   0  0  0  0  0  0  0  0  0  0  0  0
  -24.8396  -31.8344   27.3397 C   0  0  0  0  0  0  0  0  0  0  0  0
  -26.0019  -29.8885   21.0918 C   0  0  0  0  0  0  0  0  0  0  0  0
  -25.1277  -30.8325   26.3934 C   0  0  0  0  0  0  0  0  0  0  0  0
  -25.4886  -28.6924   20.5703 C   0  0  0  0  0  0  0  0  0  0  0  0
  -30.5871  -21.9686   22.6171 C   0  0  0  0  0  0  0  0  0  0  0  0
  -28.7426  -20.6004   21.0333 C   0  0  0  0  0  0  0  0  0  0  0  0
  -25.8641  -10.7287   22.4444 C   0  0  0  0  0  0  0  0  0  0  0  0
  -27.7546  -27.8619   20.2778 C   0  0  0  0  0  0  0  0  0  0  0  0
  -25.4973   -8.4427   22.8471 C   0  0  0  0  0  0  0  0  0  0  0  0
  -23.8822   -6.1876   22.5498 C   0  0  0  0  0  0  0  0  0  0  0  0
  -25.9899   -7.3135   22.1930 C   0  0  0  0  0  0  0  0  0  0  0  0
  -24.5154  -14.3539   20.7306 C   0  0  0  0  0  0  0  0  0  0  0  0
  -23.2982  -16.0692   20.0895 C   0  0  0  0  0  0  0  0  0  0  0  0
  -31.8778  -22.6236   20.5847 C   0  0  0  0  0  0  0  0  0  0  0  0
  -22.0426  -14.3794   21.4372 C   0  0  0  0  0  0  0  0  0  0  0  0
  -23.6075  -29.8204   23.1813 C   0  0  0  0  0  0  0  0  0  0  0  0
  -21.7883  -29.6574   20.5006 C   0  0  0  0  0  0  0  0  0  0  0  0
  -21.5643  -28.8309   17.1970 C   0  0  0  0  0  0  0  0  0  0  0  0
  -27.8142  -19.7776   18.8407 C   0  0  0  0  0  0  0  0  0  0  0  0
  -23.4217  -32.2145   27.6859 C   0  0  0  0  0  0  0  0  0  0  0  0
  -25.0754  -30.9992   21.5045 C   0  0  0  0  0  0  0  0  0  0  0  0
  -24.0071  -28.4583   20.4333 C   0  0  0  0  0  0  0  0  0  0  0  0
  -22.3988  -31.7619   26.6471 C   0  0  0  0  0  0  0  0  0  0  0  0
  -25.7096  -18.1196   16.4957 C   0  0  0  0  0  0  0  0  0  0  0  0
  -22.6473  -30.3100   26.2506 C   0  0  0  0  0  0  0  0  0  0  0  0
  -25.0418  -17.0187   17.3229 C   0  0  0  0  0  0  0  0  0  0  0  0
  -32.2901  -26.0813   19.6350 C   0  0  0  0  0  0  0  0  0  0  0  0
  -27.1602  -18.3454   16.9181 C   0  0  0  0  0  0  0  0  0  0  0  0
  -32.8161  -24.6528   19.5554 C   0  0  0  0  0  0  0  0  0  0  0  0
  -30.5119  -24.6633   20.3982 C   0  0  0  0  0  0  0  0  0  0  0  0
  -26.6905  -17.4889   19.1797 C   0  0  0  0  0  0  0  0  0  0  0  0
  -24.0313  -30.1416   25.6119 C   0  0  1  0  0  0  0  0  0  0  0  0
  -23.6718  -30.5099   21.8479 C   0  0  1  0  0  0  0  0  0  0  0  0
  -30.7719  -25.9072   19.5448 C   0  0  1  0  0  0  0  0  0  0  0  0
  -25.2084  -17.2700   18.8344 C   0  0  2  0  0  0  0  0  0  0  0  0
  -31.5617  -22.6934   23.4864 C   0  0  0  0  0  0  0  0  0  0  0  0
  -19.9384  -28.7743   15.2864 C   0  0  0  0  0  0  0  0  0  0  0  0
  -20.4812  -27.1700   21.6897 C   0  0  0  0  0  0  0  0  0  0  0  0
  -19.5965  -26.6304   19.4105 C   0  0  0  0  0  0  0  0  0  0  0  0
  -18.8990  -28.7366   20.5508 C   0  0  0  0  0  0  0  0  0  0  0  0
  -23.1953  -30.7158   15.6015 C   0  0  0  0  0  0  0  0  0  0  0  0
  -30.0013  -27.1270   20.0170 C   0  0  0  0  0  0  0  0  0  1  0  0
  -21.2495  -28.5398   19.6405 C   0  0  1  0  0  0  0  0  0  0  0  0
  -21.0044  -29.5864   16.0054 C   0  0  2  0  0  0  0  0  0  0  0  0
  -20.0845  -27.7725   20.3272 C   0  0  0  0  0  0  0  0  0  0  0  0
  -25.3596  -15.1228   20.0377 N   0  0  0  0  0  0  0  0  0  0  0  0
  -24.5899  -16.1580   19.6608 N   0  0  0  0  0  0  0  0  0  0  0  0
  -31.7459  -23.8822   20.2079 N   0  0  0  0  0  0  0  0  0  0  0  0
  -23.1418  -29.5719   20.8561 N   0  0  0  0  0  0  0  0  0  0  0  0
  -27.2400  -18.5812   18.3614 N   0  0  0  0  0  0  0  0  0  0  0  0
  -22.3900  -17.0250   19.7996 N   0  0  0  0  0  0  0  0  0  0  0  0
  -22.1345  -13.1586   22.1195 N   0  0  0  0  0  0  0  0  0  0  0  0
  -27.8054  -19.9054   20.2293 N   0  0  0  0  0  0  0  0  0  0  0  0
  -24.0155  -30.6069   24.2416 N   0  0  0  0  0  0  0  0  0  0  0  0
  -20.8947  -29.1442   18.3610 N   0  0  0  0  0  0  0  0  0  0  0  0
  -33.0162  -21.9637   20.3925 N   0  3  0  0  0  0  0  0  0  0  0  0
  -22.0904  -29.9005   15.0344 N   0  3  0  0  0  0  0  0  0  0  0  0
  -20.9401  -14.9762   21.3924 O   0  0  0  0  0  0  0  0  0  0  0  0
  -23.2152  -28.6611   23.2437 O   0  0  0  0  0  0  0  0  0  0  0  0
  -21.0377  -30.5762   20.8384 O   0  0  0  0  0  0  0  0  0  0  0  0
  -22.4995  -28.0389   17.1040 O   0  0  0  0  0  0  0  0  0  0  0  0
  -28.2548  -20.6384   18.0747 O   0  0  0  0  0  0  0  0  0  0  0  0
  -26.2981   -9.5626   22.9963 O   0  0  0  0  0  0  0  0  0  0  0  0
  -28.6032  -26.8731   19.8855 O   0  0  0  0  0  0  0  0  0  1  0  0
  -23.1072   -5.1043   22.4085 F   0  0  0  0  0  0  0  0  0  0  0  0
  -27.2384   -7.3055   21.7063 F   0  0  0  0  0  0  0  0  0  0  0  0
  1  2  1  0  0  0  0
  1  5  2  0  0  0  0
  2  6  2  0  0  0  0
  3 10  2  0  0  0  0
  3 18  1  0  0  0  0
  4 11  1  0  0  0  0
  4 18  2  0  0  0  0
  5 21  1  0  0  0  0
  6 23  1  0  0  0  0
  7 12  2  0  0  0  0
  7 22  1  0  0  0  0
  8  9  2  0  0  0  0
  8 25  1  0  0  0  0
  9 26  1  0  0  0  0
 10 27  1  0  0  0  0
 11 27  2  0  0  0  0
 12 28  1  0  0  0  0
 13 14  2  0  0  0  0
 13 29  1  0  0  0  0
 14 30  1  0  0  0  0
 15 19  1  0  0  0  0
 15 26  2  0  0  0  0
 16 24  1  0  0  0  0
 16 28  2  0  0  0  0
 17 30  2  0  0  0  0
 17 31  1  0  0  0  0
 18 32  1  0  0  0  0
 19 25  2  0  0  0  0
 19 34  1  0  0  0  0
 20 32  1  0  0  0  0
 20 33  2  0  0  0  0
 20 35  1  0  0  0  0
 21 23  2  0  0  0  0
 21 40  1  0  0  0  0
 22 24  2  0  0  0  0
 22 41  1  0  0  0  0
 23 52  1  0  0  0  0
 24 42  1  0  0  0  0
 25 56  1  0  0  0  0
 26 73  1  0  0  0  0
 27 83  1  0  0  0  0
 28 84  1  0  0  0  0
 29 31  2  0  0  0  0
 29 83  1  0  0  0  0
 30 85  1  0  0  0  0
 31 86  1  0  0  0  0
 32 66  2  0  0  0  0
 33 67  1  0  0  0  0
 33 71  1  0  0  0  0
 34 68  1  0  0  0  0
 34 76  2  0  0  0  0
 35 72  1  0  0  0  0
 35 78  2  0  0  0  0
 36 53  1  0  0  0  0
 36 74  1  0  0  0  0
 36 79  2  0  0  0  0
 37 63  1  0  0  0  0
 37 69  1  0  0  0  0
 37 80  2  0  0  0  0
 38 64  1  0  0  0  0
 38 75  1  0  0  0  0
 38 81  2  0  0  0  0
 39 70  1  0  0  0  0
 39 73  1  0  0  0  0
 39 82  2  0  0  0  0
 40 43  1  0  0  0  0
 41 53  1  0  0  0  0
 42 69  1  0  0  0  0
 43 45  1  0  0  0  0
 44 46  1  0  0  0  0
 44 48  1  0  0  0  0
 45 52  1  0  0  0  0
 46 55  1  0  0  0  0
 47 49  1  0  0  0  0
 47 54  1  0  0  0  0
 48 70  1  0  0  0  0
 49 68  1  0  0  0  0
 50 54  1  0  0  0  0
 50 68  1  0  0  0  0
 51 55  1  0  0  0  0
 51 70  1  0  0  0  0
 52 74  1  0  0  0  0
 53 69  1  0  0  0  0
 54 62  1  0  0  0  0
 55 67  1  0  0  0  0
 57 64  1  0  0  0  0
 58 65  1  0  0  0  0
 59 65  1  0  0  0  0
 60 65  1  0  0  0  0
 61 77  1  0  0  0  0
 62 84  1  0  0  0  0
 63 65  1  0  0  0  0
 63 75  1  0  0  0  0
 64 77  1  0  0  0  0
 66 67  1  0  0  0  0
M  CHG  2  76   1  77   1
M  ISO  4  39 100  62 101  73 100  84 101
M  END
> <Batch ID>
0145

> <Smiles>
CNC(C)C(=O)NC(C(=O)N1Cc2cc([101O:1][101CH2:1]C3CCN(C(=N)c4cc([100NH:0][100C:0](=O)N5CCCC(n6nc(-c7ccc(Oc8ccc(F)cc8F)cc7)c(C(N)=O)c6N)C5)ccc4C)C3)ccc2CC1C(=O)NC1CCCc2ccccc21)C(C)(C)C

> <Shape>
0.246

> <Color>
0.093

> <Negative vol penalty>
0.000

$$$$

  -OEChem-04052303073D

 95103  0     1  0  0  0  0  0999 V2000
  -16.9945  -28.8061   24.4357 C   0  0  0  0  0  0  0  0  0  0  0  0
  -17.6610  -27.8060   23.7349 C   0  0  0  0  0  0  0  0  0  0  0  0
  -30.4866  -19.3526   18.2212 C   0  0  0  0  0  0  0  0  0  0  0  0
  -28.1469  -19.7416   18.6813 C   0  0  0  0  0  0  0  0  0  0  0  0
  -17.3412  -30.1423   24.2403 C   0  0  0  0  0  0  0  0  0  0  0  0
  -18.6740  -28.1418   22.8373 C   0  0  0  0  0  0  0  0  0  0  0  0
  -22.7493  -25.1728   23.3077 C   0  0  0  0  0  0  0  0  0  0  0  0
  -30.4795  -20.3995   17.2996 C   0  0  0  0  0  0  0  0  0  0  0  0
  -28.1398  -20.7886   17.7596 C   0  0  0  0  0  0  0  0  0  0  0  0
  -22.6792  -23.9007   22.7415 C   0  0  0  0  0  0  0  0  0  0  0  0
  -31.1682  -23.2032   15.0904 C   0  0  0  0  0  0  0  0  0  0  0  0
  -32.2290  -24.1080   15.1286 C   0  0  0  0  0  0  0  0  0  0  0  0
  -21.9969  -12.0292   22.4745 C   0  0  0  0  0  0  0  0  0  0  0  0
  -24.0821  -11.3326   21.4727 C   0  0  0  0  0  0  0  0  0  0  0  0
  -23.9300  -24.6871   20.8346 C   0  0  0  0  0  0  0  0  0  0  0  0
  -23.2205  -13.5499   21.0506 C   0  0  0  0  0  0  0  0  0  0  0  0
  -31.6558  -24.6839   17.4039 C   0  0  0  0  0  0  0  0  0  0  0  0
  -29.3203  -19.0236   18.9121 C   0  0  0  0  0  0  0  0  0  0  0  0
  -22.9792  -11.0579   22.2812 C   0  0  0  0  0  0  0  0  0  0  0  0
  -29.6108  -18.0223   21.2403 C   0  0  0  0  0  0  0  0  0  0  0  0
  -18.3655  -30.4939   23.3471 C   0  0  0  0  0  0  0  0  0  0  0  0
  -23.4021  -26.2161   22.6355 C   0  0  0  0  0  0  0  0  0  0  0  0
  -19.0338  -29.4841   22.6287 C   0  0  0  0  0  0  0  0  0  0  0  0
  -24.0093  -25.9709   21.3956 C   0  0  0  0  0  0  0  0  0  0  0  0
  -22.1175  -13.2752   21.8591 C   0  0  0  0  0  0  0  0  0  0  0  0
  -24.2028  -12.5786   20.8574 C   0  0  0  0  0  0  0  0  0  0  0  0
  -29.3061  -21.1175   17.0688 C   0  0  0  0  0  0  0  0  0  0  0  0
  -23.2670  -23.6585   21.5034 C   0  0  0  0  0  0  0  0  0  0  0  0
  -30.3511  -23.0387   16.2089 C   0  0  0  0  0  0  0  0  0  0  0  0
  -32.4728  -24.8484   16.2854 C   0  0  0  0  0  0  0  0  0  0  0  0
  -30.5949  -23.7790   17.3657 C   0  0  0  0  0  0  0  0  0  0  0  0
  -29.3269  -17.9418   19.8638 C   0  0  0  0  0  0  0  0  0  0  0  0
  -29.4844  -16.7318   21.6930 C   0  0  0  0  0  0  0  0  0  0  0  0
  -22.8539   -9.7665   22.9198 C   0  0  0  0  0  0  0  0  0  0  0  0
  -29.9576  -19.1618   22.0384 C   0  0  0  0  0  0  0  0  0  0  0  0
  -22.5113  -29.0335   21.4640 C   0  0  0  0  0  0  0  0  0  0  0  0
  -23.7961  -20.0851   21.2053 C   0  0  0  0  0  0  0  0  0  0  0  0
  -25.6904  -29.3726   20.9157 C   0  0  0  0  0  0  0  0  0  0  0  0
  -28.7191  -27.8819   20.4140 C   0  0  0  0  0  0  0  0  0  0  0  0
  -26.3891  -12.0068   19.7440 C   0  0  0  0  0  0  0  0  0  0  0  0
  -18.6728  -31.9550   23.1338 C   0  0  0  0  0  0  0  0  0  0  0  0
  -23.4921  -27.5759   23.2721 C   0  0  0  0  0  0  0  0  0  0  0  0
  -24.7394  -27.0518   20.6426 C   0  0  0  0  0  0  0  0  0  0  0  0
  -20.0120  -32.2014   22.4438 C   0  0  0  0  0  0  0  0  0  0  0  0
  -29.9113  -12.1916   20.2306 C   0  0  0  0  0  0  0  0  0  0  0  0
  -20.1691  -31.2797   21.2386 C   0  0  0  0  0  0  0  0  0  0  0  0
  -30.1862  -13.6942   20.3232 C   0  0  0  0  0  0  0  0  0  0  0  0
  -28.8137  -11.8772   19.2156 C   0  0  0  0  0  0  0  0  0  0  0  0
  -27.8349  -14.1200   19.5002 C   0  0  0  0  0  0  0  0  0  0  0  0
  -20.1549  -29.8068   21.6649 C   0  0  1  0  0  0  0  0  0  0  0  0
  -23.7376  -28.6932   22.2627 C   0  0  1  0  0  0  0  0  0  0  0  0
  -28.8879  -14.4913   20.5571 C   0  0  2  0  0  0  0  0  0  0  0  0
  -31.1272  -28.4189   19.9557 C   0  0  0  0  0  0  0  0  0  0  0  0
  -21.1857  -18.5615   20.3499 C   0  0  0  0  0  0  0  0  0  0  0  0
  -24.7532  -19.1212   23.2515 C   0  0  0  0  0  0  0  0  0  0  0  0
  -24.5116  -17.6224   21.2685 C   0  0  0  0  0  0  0  0  0  0  0  0
  -24.9956  -29.9981   18.0112 C   0  0  0  0  0  0  0  0  0  0  0  0
  -27.3937  -29.5857   17.4217 C   0  0  0  0  0  0  0  0  0  0  0  0
  -26.7958  -31.4347   18.9859 C   0  0  0  0  0  0  0  0  0  0  0  0
  -18.8578  -15.6878   23.7610 C   0  0  0  0  0  0  0  0  0  0  0  0
  -20.5489  -17.1888   24.8013 C   0  0  0  0  0  0  0  0  0  0  0  0
  -29.6053  -26.5916   22.9257 C   0  0  0  0  0  0  0  0  0  0  0  0
  -21.0571  -14.3246   22.0685 C   0  0  0  0  0  0  0  0  0  0  0  0
  -23.1415  -21.3061   21.8297 C   0  0  0  0  0  0  0  0  0  1  0  0
  -21.2623  -15.2753   23.2612 C   0  0  0  0  0  0  0  0  0  0  0  0
  -22.4538  -18.3818   22.5660 C   0  0  0  0  0  0  0  0  0  0  0  0
  -20.1305  -17.3631   22.2972 C   0  0  0  0  0  0  0  0  0  0  0  0
  -26.6200  -29.0389   19.7740 C   0  0  1  0  0  0  0  0  0  0  0  0
  -30.0835  -28.1419   21.0266 C   0  0  2  0  0  0  0  0  0  0  0  0
  -21.4721  -17.6928   21.5796 C   0  0  1  0  0  0  0  0  0  0  0  0
  -23.8639  -18.7842   22.0357 C   0  0  0  0  0  0  0  0  0  0  0  0
  -26.4359  -29.9943   18.5612 C   0  0  0  0  0  0  0  0  0  0  0  0
  -20.2068  -16.4010   23.5217 C   0  0  0  0  0  0  0  0  0  0  0  0
  -29.0419  -16.6984   19.4680 N   0  0  0  0  0  0  0  0  0  0  0  0
  -29.1460  -15.9857   20.6026 N   0  0  0  0  0  0  0  0  0  0  0  0
  -24.7947  -28.3661   21.3036 N   0  0  0  0  0  0  0  0  0  0  0  0
  -27.6132  -12.6655   19.5025 N   0  0  0  0  0  0  0  0  0  0  0  0
  -29.6308  -16.1737   22.9135 N   0  0  0  0  0  0  0  0  0  0  0  0
  -21.7953   -9.4928   23.7007 N   0  0  0  0  0  0  0  0  0  0  0  0
  -30.0437  -20.4136   21.4139 N   0  0  0  0  0  0  0  0  0  0  0  0
  -25.3244  -12.8581   20.0379 N   0  0  0  0  0  0  0  0  0  0  0  0
  -21.4331  -29.4321   22.2308 N   0  0  0  0  0  0  0  0  0  0  0  0
  -27.9677  -29.0352   20.3326 N   0  0  0  0  0  0  0  0  0  0  0  0
  -23.7934   -8.8232   22.7388 N   0  3  0  0  0  0  0  0  0  0  0  0
  -30.5276  -26.9622   21.8216 N   0  3  0  0  0  0  0  0  0  0  0  0
  -30.2005  -19.0700   23.2656 O   0  0  0  0  0  0  0  0  0  0  0  0
  -22.5416  -28.9428   20.2423 O   0  0  0  0  0  0  0  0  0  0  0  0
  -24.1989  -20.1215   20.0396 O   0  0  0  0  0  0  0  0  0  0  0  0
  -25.7615  -30.4829   21.4486 O   0  0  0  0  0  0  0  0  0  0  0  0
  -28.3575  -26.7680   20.0414 O   0  0  0  0  0  0  0  0  0  0  0  0
  -26.2984  -10.7766   19.7207 O   0  0  0  0  0  0  0  0  0  0  0  0
  -29.2988  -22.1394   16.1697 O   0  0  0  0  0  0  0  0  0  0  0  0
  -23.1988  -22.4059   20.9428 O   0  0  0  0  0  0  0  0  0  1  0  0
  -33.4925  -25.7162   16.3224 F   0  0  0  0  0  0  0  0  0  0  0  0
  -29.8141  -23.6245   18.4438 F   0  0  0  0  0  0  0  0  0  0  0  0
  1  2  1  0  0  0  0
  1  5  2  0  0  0  0
  2  6  2  0  0  0  0
  3  8  2  0  0  0  0
  3 18  1  0  0  0  0
  4  9  1  0  0  0  0
  4 18  2  0  0  0  0
  5 21  1  0  0  0  0
  6 23  1  0  0  0  0
  7 10  2  0  0  0  0
  7 22  1  0  0  0  0
  8 27  1  0  0  0  0
  9 27  2  0  0  0  0
 10 28  1  0  0  0  0
 11 12  2  0  0  0  0
 11 29  1  0  0  0  0
 12 30  1  0  0  0  0
 13 19  1  0  0  0  0
 13 25  2  0  0  0  0
 14 19  2  0  0  0  0
 14 26  1  0  0  0  0
 15 24  1  0  0  0  0
 15 28  2  0  0  0  0
 16 25  1  0  0  0  0
 16 26  2  0  0  0  0
 17 30  2  0  0  0  0
 17 31  1  0  0  0  0
 18 32  1  0  0  0  0
 19 34  1  0  0  0  0
 20 32  1  0  0  0  0
 20 33  2  0  0  0  0
 20 35  1  0  0  0  0
 21 23  2  0  0  0  0
 21 41  1  0  0  0  0
 22 24  2  0  0  0  0
 22 42  1  0  0  0  0
 23 50  1  0  0  0  0
 24 43  1  0  0  0  0
 25 63  1  0  0  0  0
 26 81  1  0  0  0  0
 27 92  1  0  0  0  0
 28 93  1  0  0  0  0
 29 31  2  0  0  0  0
 29 92  1  0  0  0  0
 30 94  1  0  0  0  0
 31 95  1  0  0  0  0
 32 74  2  0  0  0  0
 33 75  1  0  0  0  0
 33 78  1  0  0  0  0
 34 79  1  0  0  0  0
 34 84  2  0  0  0  0
 35 80  1  0  0  0  0
 35 86  2  0  0  0  0
 36 51  1  0  0  0  0
 36 82  1  0  0  0  0
 36 87  2  0  0  0  0
 37 64  1  0  0  0  0
 37 71  1  0  0  0  0
 37 88  2  0  0  0  0
 38 68  1  0  0  0  0
 38 76  1  0  0  0  0
 38 89  2  0  0  0  0
 39 69  1  0  0  0  0
 39 83  1  0  0  0  0
 39 90  2  0  0  0  0
 40 77  1  0  0  0  0
 40 81  1  0  0  0  0
 40 91  2  0  0  0  0
 41 44  1  0  0  0  0
 42 51  1  0  0  0  0
 43 76  1  0  0  0  0
 44 46  1  0  0  0  0
 45 47  1  0  0  0  0
 45 48  1  0  0  0  0
 46 50  1  0  0  0  0
 47 52  1  0  0  0  0
 48 77  1  0  0  0  0
 49 52  1  0  0  0  0
 49 77  1  0  0  0  0
 50 82  1  0  0  0  0
 51 76  1  0  0  0  0
 52 75  1  0  0  0  0
 53 69  1  0  0  0  0
 54 70  1  0  0  0  0
 55 71  1  0  0  0  0
 56 71  1  0  0  0  0
 57 72  1  0  0  0  0
 58 72  1  0  0  0  0
 59 72  1  0  0  0  0
 60 73  1  0  0  0  0
 61 73  1  0  0  0  0
 62 85  1  0  0  0  0
 63 65  1  0  0  0  0
 64 93  1  0  0  0  0
 65 73  1  0  0  0  0
 66 70  1  0  0  0  0
 66 71  1  0  0  0  0
 67 70  1  0  0  0  0
 67 73  1  0  0  0  0
 68 72  1  0  0  0  0
 68 83  1  0  0  0  0
 69 85  1  0  0  0  0
 74 75  1  0  0  0  0
M  CHG  2  84   1  85   1
M  ISO  4  40 100  64 101  81 100  93 101
M  END
> <Batch ID>
0145

> <Smiles>
CNC(C)C(=O)NC(C(=O)N1Cc2cc([101O:1][101CH2:1]C(=O)C(C)(C)CC(C)CC(C)(C)CCc3cc([100NH:0][100C:0](=O)N4CCCC(n5nc(-c6ccc(Oc7ccc(F)cc7F)cc6)c(C(N)=O)c5N)C4)cc(C(=N)N)c3)ccc2CC1C(=O)NC1CCCc2ccccc21)C(C)(C)C

> <Shape>
0.274

> <Color>
0.068

> <Negative vol penalty>
0.000

$$$$

  -OEChem-04052303073D

 89 98  0     1  0  0  0  0  0999 V2000
  -29.6348  -26.5296   15.7515 C   0  0  0  0  0  0  0  0  0  0  0  0
  -28.4118  -26.3974   16.4014 C   0  0  0  0  0  0  0  0  0  0  0  0
  -24.1598   -9.5563   22.0481 C   0  0  0  0  0  0  0  0  0  0  0  0
  -22.8918   -9.9486   20.0293 C   0  0  0  0  0  0  0  0  0  0  0  0
  -30.7076  -27.1355   16.4040 C   0  0  0  0  0  0  0  0  0  0  0  0
  -28.2614  -26.8700   17.7046 C   0  0  0  0  0  0  0  0  0  0  0  0
  -23.9480  -29.4431   18.3521 C   0  0  0  0  0  0  0  0  0  0  0  0
  -19.9510  -18.0251   16.8806 C   0  0  0  0  0  0  0  0  0  0  0  0
  -21.0413  -17.4713   17.5516 C   0  0  0  0  0  0  0  0  0  0  0  0
  -23.3849   -8.4278   22.3155 C   0  0  0  0  0  0  0  0  0  0  0  0
  -22.1170   -8.8200   20.2967 C   0  0  0  0  0  0  0  0  0  0  0  0
  -22.7778  -28.6987   18.4947 C   0  0  0  0  0  0  0  0  0  0  0  0
  -23.2121   -5.2187   21.2644 C   0  0  0  0  0  0  0  0  0  0  0  0
  -23.8737   -4.0586   21.6668 C   0  0  0  0  0  0  0  0  0  0  0  0
  -20.8532  -19.1702   19.2591 C   0  0  0  0  0  0  0  0  0  0  0  0
  -22.8843  -29.0006   20.8857 C   0  0  0  0  0  0  0  0  0  0  0  0
  -22.6391   -4.0747   23.7435 C   0  0  0  0  0  0  0  0  0  0  0  0
  -23.9132  -10.3168   20.9050 C   0  0  0  0  0  0  0  0  0  0  0  0
  -19.7630  -19.7240   18.5880 C   0  0  0  0  0  0  0  0  0  0  0  0
  -25.9088  -11.5376   19.8878 C   0  0  0  0  0  0  0  0  0  0  0  0
  -30.5675  -27.6245   17.7124 C   0  0  0  0  0  0  0  0  0  0  0  0
  -24.6022  -29.9635   19.4780 C   0  0  0  0  0  0  0  0  0  0  0  0
  -29.3338  -27.4818   18.3757 C   0  0  0  0  0  0  0  0  0  0  0  0
  -24.0612  -29.7534   20.7545 C   0  0  0  0  0  0  0  0  0  0  0  0
  -19.3119  -19.1515   17.3987 C   0  0  0  0  0  0  0  0  0  0  0  0
  -21.4923  -18.0438   18.7409 C   0  0  0  0  0  0  0  0  0  0  0  0
  -22.3635   -8.0596   21.4398 C   0  0  0  0  0  0  0  0  0  0  0  0
  -22.2474  -28.4749   19.7618 C   0  0  0  0  0  0  0  0  0  0  0  0
  -22.2640   -5.8069   22.1016 C   0  0  0  0  0  0  0  0  0  0  0  0
  -23.5872   -3.4866   22.9063 C   0  0  0  0  0  0  0  0  0  0  0  0
  -21.9775   -5.2349   23.3411 C   0  0  0  0  0  0  0  0  0  0  0  0
  -24.7129  -11.4830   20.6285 C   0  0  0  0  0  0  0  0  0  0  0  0
  -26.2706  -12.8623   19.9170 C   0  0  0  0  0  0  0  0  0  0  0  0
  -18.9818  -23.3680   19.2659 C   0  0  0  0  0  0  0  0  0  0  0  0
  -19.1013  -20.9140   19.1521 C   0  0  0  0  0  0  0  0  0  0  0  0
  -26.6283  -10.4851   19.2319 C   0  0  0  0  0  0  0  0  0  0  0  0
  -27.4652  -29.5549   20.7971 C   0  0  0  0  0  0  0  0  0  0  0  0
  -26.4753  -31.9476   22.7511 C   0  0  0  0  0  0  0  0  0  0  0  0
  -23.8736  -33.6609   24.1448 C   0  0  0  0  0  0  0  0  0  0  0  0
  -23.1741  -17.9252   20.6127 C   0  0  0  0  0  0  0  0  0  0  0  0
  -31.7693  -28.2295   18.3939 C   0  0  0  0  0  0  0  0  0  0  0  0
  -25.8489  -30.7869   19.3052 C   0  0  0  0  0  0  0  0  0  0  0  0
  -24.7141  -30.3076   21.9935 C   0  0  0  0  0  0  0  0  0  0  0  0
  -31.4194  -29.0404   19.6390 C   0  0  0  0  0  0  0  0  0  0  0  0
  -25.8822  -16.7915   22.6272 C   0  0  0  0  0  0  0  0  0  0  0  0
  -30.4409  -28.2702   20.5201 C   0  0  0  0  0  0  0  0  0  0  0  0
  -26.0025  -15.3079   22.2713 C   0  0  0  0  0  0  0  0  0  0  0  0
  -21.0411  -23.7671   18.1640 C   0  0  0  0  0  0  0  0  0  0  0  0
  -24.4260  -17.2527   22.6512 C   0  0  0  0  0  0  0  0  0  0  0  0
  -20.6277  -22.3310   17.8593 C   0  0  0  0  0  0  0  0  0  0  0  0
  -23.7800  -15.4694   21.0791 C   0  0  0  0  0  0  0  0  0  0  0  0
  -29.1242  -28.0042   19.7804 C   0  0  1  0  0  0  0  0  0  0  0  0
  -26.7128  -30.8341   20.5617 C   0  0  1  0  0  0  0  0  0  0  0  0
  -25.2320  -14.9741   20.9788 C   0  0  2  0  0  0  0  0  0  0  0  0
  -19.7504  -24.4910   18.5973 C   0  0  1  0  0  0  0  0  0  0  0  0
  -18.1461  -19.7254   16.6623 C   0  0  0  0  0  0  0  0  0  0  0  0
  -18.9504  -24.9999   17.3974 C   0  0  0  0  0  0  0  0  0  0  0  0
  -23.3775  -35.5407   25.7315 C   0  0  0  0  0  0  0  0  0  0  0  0
  -27.1501  -30.1323   25.1089 C   0  0  0  0  0  0  0  0  0  0  0  0
  -25.7813  -31.6366   26.5690 C   0  0  0  0  0  0  0  0  0  0  0  0
  -27.8057  -32.5263   25.4144 C   0  0  0  0  0  0  0  0  0  0  0  0
  -22.4904  -35.2222   22.0454 C   0  0  0  0  0  0  0  0  0  0  0  0
  -20.0436  -25.6224   19.5773 C   0  0  0  0  0  0  0  0  0  0  0  0
  -20.8558  -26.7344   18.9311 C   0  0  0  0  0  0  0  0  0  1  0  0
  -25.7307  -32.0180   24.0624 C   0  0  1  0  0  0  0  0  0  0  0  0
  -23.6044  -35.1487   24.2797 C   0  0  2  0  0  0  0  0  0  0  0  0
  -26.6055  -31.5661   25.2657 C   0  0  0  0  0  0  0  0  0  0  0  0
  -24.3399  -12.6779   21.0944 N   0  0  0  0  0  0  0  0  0  0  0  0
  -25.3071  -13.4959   20.6453 N   0  0  0  0  0  0  0  0  0  0  0  0
  -19.5222  -22.1171   18.8037 N   0  0  0  0  0  0  0  0  0  0  0  0
  -25.9346  -31.1008   21.7730 N   0  0  0  0  0  0  0  0  0  0  0  0
  -23.7610  -16.9067   21.3931 N   0  0  0  0  0  0  0  0  0  0  0  0
  -27.3157  -13.5353   19.3905 N   0  0  0  0  0  0  0  0  0  0  0  0
  -26.1166   -9.1821   19.3011 N   0  0  0  0  0  0  0  0  0  0  0  0
  -22.5999  -17.4808   19.4222 N   0  0  0  0  0  0  0  0  0  0  0  0
  -28.3058  -29.1976   19.7603 N   0  0  0  0  0  0  0  0  0  0  0  0
  -25.2236  -33.3817   24.1711 N   0  0  0  0  0  0  0  0  0  0  0  0
  -18.0900  -20.7583   20.0015 N   0  3  0  0  0  0  0  0  0  0  0  0
  -22.3955  -35.5296   23.4957 N   0  3  0  0  0  0  0  0  0  0  0  0
  -18.0411  -23.4482   20.0360 O   0  0  0  0  0  0  0  0  0  0  0  0
  -27.7021  -10.6911   18.6171 O   0  0  0  0  0  0  0  0  0  0  0  0
  -27.2966  -28.9386   21.8428 O   0  0  0  0  0  0  0  0  0  0  0  0
  -27.4950  -32.6245   22.5975 O   0  0  0  0  0  0  0  0  0  0  0  0
  -22.9759  -32.8291   24.0315 O   0  0  0  0  0  0  0  0  0  0  0  0
  -23.2045  -19.1084   20.9608 O   0  0  0  0  0  0  0  0  0  0  0  0
  -21.6074   -6.9583   21.7003 O   0  0  0  0  0  0  0  0  0  0  0  0
  -21.1057  -27.7481   19.9039 O   0  0  0  0  0  0  0  0  0  1  0  0
  -24.2216   -2.3716   23.2919 F   0  0  0  0  0  0  0  0  0  0  0  0
  -21.0668   -5.7948   24.1492 F   0  0  0  0  0  0  0  0  0  0  0  0
  1  2  1  0  0  0  0
  1  5  2  0  0  0  0
  2  6  2  0  0  0  0
  3 10  2  0  0  0  0
  3 18  1  0  0  0  0
  4 11  1  0  0  0  0
  4 18  2  0  0  0  0
  5 21  1  0  0  0  0
  6 23  1  0  0  0  0
  7 12  2  0  0  0  0
  7 22  1  0  0  0  0
  8  9  2  0  0  0  0
  8 25  1  0  0  0  0
  9 26  1  0  0  0  0
 10 27  1  0  0  0  0
 11 27  2  0  0  0  0
 12 28  1  0  0  0  0
 13 14  2  0  0  0  0
 13 29  1  0  0  0  0
 14 30  1  0  0  0  0
 15 19  1  0  0  0  0
 15 26  2  0  0  0  0
 16 24  1  0  0  0  0
 16 28  2  0  0  0  0
 17 30  2  0  0  0  0
 17 31  1  0  0  0  0
 18 32  1  0  0  0  0
 19 25  2  0  0  0  0
 19 35  1  0  0  0  0
 20 32  1  0  0  0  0
 20 33  2  0  0  0  0
 20 36  1  0  0  0  0
 21 23  2  0  0  0  0
 21 41  1  0  0  0  0
 22 24  2  0  0  0  0
 22 42  1  0  0  0  0
 23 52  1  0  0  0  0
 24 43  1  0  0  0  0
 25 56  1  0  0  0  0
 26 75  1  0  0  0  0
 27 86  1  0  0  0  0
 28 87  1  0  0  0  0
 29 31  2  0  0  0  0
 29 86  1  0  0  0  0
 30 88  1  0  0  0  0
 31 89  1  0  0  0  0
 32 68  2  0  0  0  0
 33 69  1  0  0  0  0
 33 73  1  0  0  0  0
 34 55  1  0  0  0  0
 34 70  1  0  0  0  0
 34 80  2  0  0  0  0
 35 70  1  0  0  0  0
 35 78  2  0  0  0  0
 36 74  1  0  0  0  0
 36 81  2  0  0  0  0
 37 53  1  0  0  0  0
 37 76  1  0  0  0  0
 37 82  2  0  0  0  0
 38 65  1  0  0  0  0
 38 71  1  0  0  0  0
 38 83  2  0  0  0  0
 39 66  1  0  0  0  0
 39 77  1  0  0  0  0
 39 84  2  0  0  0  0
 40 72  1  0  0  0  0
 40 75  1  0  0  0  0
 40 85  2  0  0  0  0
 41 44  1  0  0  0  0
 42 53  1  0  0  0  0
 43 71  1  0  0  0  0
 44 46  1  0  0  0  0
 45 47  1  0  0  0  0
 45 49  1  0  0  0  0
 46 52  1  0  0  0  0
 47 54  1  0  0  0  0
 48 50  1  0  0  0  0
 48 55  1  0  0  0  0
 49 72  1  0  0  0  0
 50 70  1  0  0  0  0
 51 54  1  0  0  0  0
 51 72  1  0  0  0  0
 52 76  1  0  0  0  0
 53 71  1  0  0  0  0
 54 69  1  0  0  0  0
 55 57  1  0  0  0  0
 55 63  1  0  0  0  0
 58 66  1  0  0  0  0
 59 67  1  0  0  0  0
 60 67  1  0  0  0  0
 61 67  1  0  0  0  0
 62 79  1  0  0  0  0
 63 64  1  0  0  0  0
 64 87  1  0  0  0  0
 65 67  1  0  0  0  0
 65 77  1  0  0  0  0
 66 79  1  0  0  0  0
 68 69  1  0  0  0  0
M  CHG  2  78   1  79   1
M  ISO  4  40 100  64 101  75 100  87 101
M  END
> <Batch ID>
0145

> <Smiles>
CNC(C)C(=O)NC(C(=O)N1Cc2cc([101O:1][101CH2:1]CC3(C)CCN(C(=N)c4cc([100NH:0][100C:0](=O)N5CCCC(n6nc(-c7ccc(Oc8ccc(F)cc8F)cc7)c(C(N)=O)c6N)C5)ccc4C)C3=O)ccc2CC1C(=O)NC1CCCc2ccccc21)C(C)(C)C

> <Shape>
0.249

> <Color>
0.107

> <Negative vol penalty>
0.000

$$$$

  -OEChem-04052303073D

 88 97  0     1  0  0  0  0  0999 V2000
  -16.5698  -29.8969   24.3244 C   0  0  0  0  0  0  0  0  0  0  0  0
  -17.4893  -29.0761   24.9695 C   0  0  0  0  0  0  0  0  0  0  0  0
  -33.2916  -16.7200   23.3364 C   0  0  0  0  0  0  0  0  0  0  0  0
  -22.8578  -10.2197   20.0124 C   0  0  0  0  0  0  0  0  0  0  0  0
  -23.7219  -10.0492   22.2621 C   0  0  0  0  0  0  0  0  0  0  0  0
  -32.6191  -17.6245   24.1581 C   0  0  0  0  0  0  0  0  0  0  0  0
  -16.5817  -29.9968   22.9338 C   0  0  0  0  0  0  0  0  0  0  0  0
  -18.4206  -28.3538   24.2242 C   0  0  0  0  0  0  0  0  0  0  0  0
  -25.1389  -25.8906   24.5609 C   0  0  0  0  0  0  0  0  0  0  0  0
  -32.5773  -15.9388   22.4279 C   0  0  0  0  0  0  0  0  0  0  0  0
  -22.0167   -9.1333   20.2531 C   0  0  0  0  0  0  0  0  0  0  0  0
  -22.8807   -8.9628   22.5029 C   0  0  0  0  0  0  0  0  0  0  0  0
  -25.8620  -24.7090   24.4037 C   0  0  0  0  0  0  0  0  0  0  0  0
  -19.6217   -8.4529   23.2373 C   0  0  0  0  0  0  0  0  0  0  0  0
  -18.9205   -8.4328   24.4429 C   0  0  0  0  0  0  0  0  0  0  0  0
  -30.5181  -16.9665   23.1630 C   0  0  0  0  0  0  0  0  0  0  0  0
  -25.8400  -25.0209   22.0117 C   0  0  0  0  0  0  0  0  0  0  0  0
  -19.9986   -6.3534   25.0353 C   0  0  0  0  0  0  0  0  0  0  0  0
  -23.7104  -10.6776   21.0169 C   0  0  0  0  0  0  0  0  0  0  0  0
  -31.2324  -17.7477   24.0714 C   0  0  0  0  0  0  0  0  0  0  0  0
  -24.2930  -13.1610   20.9822 C   0  0  0  0  0  0  0  0  0  0  0  0
  -17.5198  -29.2828   22.1717 C   0  0  0  0  0  0  0  0  0  0  0  0
  -24.7509  -26.6418   23.4421 C   0  0  0  0  0  0  0  0  0  0  0  0
  -18.4441  -28.4431   22.8220 C   0  0  0  0  0  0  0  0  0  0  0  0
  -25.1143  -26.2130   22.1576 C   0  0  0  0  0  0  0  0  0  0  0  0
  -31.1906  -16.0620   22.3412 C   0  0  0  0  0  0  0  0  0  0  0  0
  -22.0281   -8.5049   21.4983 C   0  0  0  0  0  0  0  0  0  0  0  0
  -26.2102  -24.2725   23.1288 C   0  0  0  0  0  0  0  0  0  0  0  0
  -20.5113   -7.4232   22.9306 C   0  0  0  0  0  0  0  0  0  0  0  0
  -19.1090   -7.3831   25.3419 C   0  0  0  0  0  0  0  0  0  0  0  0
  -20.6998   -6.3735   23.8296 C   0  0  0  0  0  0  0  0  0  0  0  0
  -24.5799  -11.7994   20.7687 C   0  0  0  0  0  0  0  0  0  0  0  0
  -25.4352  -13.8176   20.5942 C   0  0  0  0  0  0  0  0  0  0  0  0
  -30.5210  -18.7035   24.9389 C   0  0  0  0  0  0  0  0  0  0  0  0
  -23.1005  -13.7771   21.4864 C   0  0  0  0  0  0  0  0  0  0  0  0
  -21.9662  -27.5233   22.1882 C   0  0  0  0  0  0  0  0  0  0  0  0
  -23.8547  -29.2369   20.1833 C   0  0  0  0  0  0  0  0  0  0  0  0
  -26.9088  -29.6361   18.7137 C   0  0  0  0  0  0  0  0  0  0  0  0
  -30.9799  -14.3232   20.5306 C   0  0  0  0  0  0  0  0  0  0  0  0
  -17.4632  -29.3861   20.6681 C   0  0  0  0  0  0  0  0  0  0  0  0
  -23.9942  -27.9281   23.6302 C   0  0  0  0  0  0  0  0  0  0  0  0
  -24.7395  -26.9937   20.9253 C   0  0  0  0  0  0  0  0  0  0  0  0
  -18.7247  -28.8778   19.9747 C   0  0  0  0  0  0  0  0  0  0  0  0
  -29.5231  -12.1380   18.1264 C   0  0  0  0  0  0  0  0  0  0  0  0
  -19.1506  -27.5347   20.5590 C   0  0  0  0  0  0  0  0  0  0  0  0
  -28.0836  -11.9671   18.6171 C   0  0  0  0  0  0  0  0  0  0  0  0
  -29.3183  -21.5009   22.9877 C   0  0  0  0  0  0  0  0  0  0  0  0
  -30.5119  -12.2228   19.2878 C   0  0  0  0  0  0  0  0  0  0  0  0
  -30.1871  -20.2535   23.0838 C   0  0  0  0  0  0  0  0  0  0  0  0
  -28.7526  -13.0639   20.7934 C   0  0  0  0  0  0  0  0  0  0  0  0
  -19.4858  -27.6630   22.0499 C   0  0  1  0  0  0  0  0  0  0  0  0
  -23.2076  -28.3452   22.3914 C   0  0  1  0  0  0  0  0  0  0  0  0
  -27.7131  -13.0388   19.6610 C   0  0  2  0  0  0  0  0  0  0  0  0
  -28.0371  -21.1378   23.7691 C   0  0  2  0  0  0  0  0  0  0  0  0
  -28.6100  -20.3305   24.9948 C   0  0  0  0  0  0  0  0  0  0  0  0
  -27.1202  -20.2877   22.8606 C   0  0  0  0  0  0  0  0  0  0  0  0
  -27.6424  -19.2789   25.5470 C   0  0  0  0  0  0  0  0  0  0  0  0
  -29.1131  -21.2176   26.1464 C   0  0  0  0  0  0  0  0  0  0  0  0
  -28.1380  -31.1055   17.0928 C   0  0  0  0  0  0  0  0  0  0  0  0
  -22.3969  -27.8936   17.8638 C   0  0  0  0  0  0  0  0  0  0  0  0
  -24.2496  -28.6439   16.3562 C   0  0  0  0  0  0  0  0  0  0  0  0
  -22.8467  -30.3324   17.5409 C   0  0  0  0  0  0  0  0  0  0  0  0
  -28.8861  -30.4406   20.7635 C   0  0  0  0  0  0  0  0  0  0  0  0
  -27.2656  -22.4063   24.1580 C   0  0  0  0  0  0  0  0  0  1  0  0
  -24.5230  -28.9713   18.8560 C   0  0  1  0  0  0  0  0  0  0  0  0
  -27.7980  -30.8560   18.5540 C   0  0  2  0  0  0  0  0  0  0  0  0
  -23.5096  -28.9444   17.6771 C   0  0  0  0  0  0  0  0  0  0  0  0
  -25.8081  -11.6014   20.2825 N   0  0  0  0  0  0  0  0  0  0  0  0
  -26.3030  -12.8472   20.1873 N   0  0  0  0  0  0  0  0  0  0  0  0
  -29.8122  -19.6778   24.3894 N   0  0  0  0  0  0  0  0  0  0  0  0
  -23.9944  -28.2415   21.1608 N   0  0  0  0  0  0  0  0  0  0  0  0
  -30.0990  -13.2617   20.2339 N   0  0  0  0  0  0  0  0  0  0  0  0
  -25.7719  -15.1246   20.5647 N   0  0  0  0  0  0  0  0  0  0  0  0
  -22.0211  -12.9551   21.8379 N   0  0  0  0  0  0  0  0  0  0  0  0
  -30.4659  -15.2681   21.4181 N   0  0  0  0  0  0  0  0  0  0  0  0
  -20.7947  -28.2553   22.2244 N   0  0  0  0  0  0  0  0  0  0  0  0
  -25.5723  -29.9755   18.7191 N   0  0  0  0  0  0  0  0  0  0  0  0
  -30.6006  -18.5715   26.2597 N   0  3  0  0  0  0  0  0  0  0  0  0
  -29.0704  -30.6717   19.3077 N   0  3  0  0  0  0  0  0  0  0  0  0
  -22.9895  -15.0208   21.6058 O   0  0  0  0  0  0  0  0  0  0  0  0
  -22.0641  -26.3148   22.0103 O   0  0  0  0  0  0  0  0  0  0  0  0
  -23.2376  -30.2921   20.3492 O   0  0  0  0  0  0  0  0  0  0  0  0
  -27.3549  -28.4958   18.8191 O   0  0  0  0  0  0  0  0  0  0  0  0
  -32.0968  -14.4035   20.0129 O   0  0  0  0  0  0  0  0  0  0  0  0
  -21.2073   -7.4449   21.7336 O   0  0  0  0  0  0  0  0  0  0  0  0
  -26.9154  -23.1192   22.9725 O   0  0  0  0  0  0  0  0  0  1  0  0
  -18.4367   -7.3647   26.5003 F   0  0  0  0  0  0  0  0  0  0  0  0
  -21.5540   -5.3820   23.5411 F   0  0  0  0  0  0  0  0  0  0  0  0
  1  2  1  0  0  0  0
  1  7  2  0  0  0  0
  2  8  2  0  0  0  0
  3  6  2  0  0  0  0
  3 10  1  0  0  0  0
  4 11  2  0  0  0  0
  4 19  1  0  0  0  0
  5 12  1  0  0  0  0
  5 19  2  0  0  0  0
  6 20  1  0  0  0  0
  7 22  1  0  0  0  0
  8 24  1  0  0  0  0
  9 13  2  0  0  0  0
  9 23  1  0  0  0  0
 10 26  2  0  0  0  0
 11 27  1  0  0  0  0
 12 27  2  0  0  0  0
 13 28  1  0  0  0  0
 14 15  2  0  0  0  0
 14 29  1  0  0  0  0
 15 30  1  0  0  0  0
 16 20  2  0  0  0  0
 16 26  1  0  0  0  0
 17 25  1  0  0  0  0
 17 28  2  0  0  0  0
 18 30  2  0  0  0  0
 18 31  1  0  0  0  0
 19 32  1  0  0  0  0
 20 34  1  0  0  0  0
 21 32  1  0  0  0  0
 21 33  2  0  0  0  0
 21 35  1  0  0  0  0
 22 24  2  0  0  0  0
 22 40  1  0  0  0  0
 23 25  2  0  0  0  0
 23 41  1  0  0  0  0
 24 51  1  0  0  0  0
 25 42  1  0  0  0  0
 26 75  1  0  0  0  0
 27 85  1  0  0  0  0
 28 86  1  0  0  0  0
 29 31  2  0  0  0  0
 29 85  1  0  0  0  0
 30 87  1  0  0  0  0
 31 88  1  0  0  0  0
 32 68  2  0  0  0  0
 33 69  1  0  0  0  0
 33 73  1  0  0  0  0
 34 70  1  0  0  0  0
 34 78  2  0  0  0  0
 35 74  1  0  0  0  0
 35 80  2  0  0  0  0
 36 52  1  0  0  0  0
 36 76  1  0  0  0  0
 36 81  2  0  0  0  0
 37 65  1  0  0  0  0
 37 71  1  0  0  0  0
 37 82  2  0  0  0  0
 38 66  1  0  0  0  0
 38 77  1  0  0  0  0
 38 83  2  0  0  0  0
 39 72  1  0  0  0  0
 39 75  1  0  0  0  0
 39 84  2  0  0  0  0
 40 43  1  0  0  0  0
 41 52  1  0  0  0  0
 42 71  1  0  0  0  0
 43 45  1  0  0  0  0
 44 46  1  0  0  0  0
 44 48  1  0  0  0  0
 45 51  1  0  0  0  0
 46 53  1  0  0  0  0
 47 49  1  0  0  0  0
 47 54  1  0  0  0  0
 48 72  1  0  0  0  0
 49 70  1  0  0  0  0
 50 53  1  0  0  0  0
 50 72  1  0  0  0  0
 51 76  1  0  0  0  0
 52 71  1  0  0  0  0
 53 69  1  0  0  0  0
 54 55  1  0  0  0  0
 54 56  1  0  0  0  0
 54 64  1  0  0  0  0
 55 57  1  0  0  0  0
 55 58  1  0  0  0  0
 55 70  1  0  0  0  0
 59 66  1  0  0  0  0
 60 67  1  0  0  0  0
 61 67  1  0  0  0  0
 62 67  1  0  0  0  0
 63 79  1  0  0  0  0
 64 86  1  0  0  0  0
 65 67  1  0  0  0  0
 65 77  1  0  0  0  0
 66 79  1  0  0  0  0
 68 69  1  0  0  0  0
M  CHG  2  78   1  79   1
M  ISO  4  39 100  64 101  75 100  86 101
M  END
> <Batch ID>
0145

> <Smiles>
CNC(C)C(=O)NC(C(=O)N1Cc2cc([101O:1][101CH2:1]C3(C)CCN(C(=N)c4cccc([100NH:0][100C:0](=O)N5CCCC(n6nc(-c7ccc(Oc8ccc(F)cc8F)cc7)c(C(N)=O)c6N)C5)c4)C3(C)C)ccc2CC1C(=O)NC1CCCc2ccccc21)C(C)(C)C

> <Shape>
0.259

> <Color>
0.184

> <Negative vol penalty>
0.000

$$$$

  -OEChem-04052303073D

 86 95  0     1  0  0  0  0  0999 V2000
  -19.0030  -24.0461   22.4991 C   0  0  0  0  0  0  0  0  0  0  0  0
  -20.3047  -24.2094   22.0361 C   0  0  0  0  0  0  0  0  0  0  0  0
  -22.9191  -10.4107   20.3469 C   0  0  0  0  0  0  0  0  0  0  0  0
  -24.6048   -9.6884   21.9197 C   0  0  0  0  0  0  0  0  0  0  0  0
  -18.1874  -25.1606   22.6903 C   0  0  0  0  0  0  0  0  0  0  0  0
  -20.7912  -25.4873   21.7629 C   0  0  0  0  0  0  0  0  0  0  0  0
  -25.4607  -26.2183   23.5811 C   0  0  0  0  0  0  0  0  0  0  0  0
  -21.9201   -9.9804   21.2200 C   0  0  0  0  0  0  0  0  0  0  0  0
  -23.6058   -9.2581   22.7928 C   0  0  0  0  0  0  0  0  0  0  0  0
  -26.5187  -25.6689   22.8583 C   0  0  0  0  0  0  0  0  0  0  0  0
  -21.5402   -6.5991   23.0989 C   0  0  0  0  0  0  0  0  0  0  0  0
  -21.6965   -5.3487   23.6967 C   0  0  0  0  0  0  0  0  0  0  0  0
  -26.9621  -27.8279   21.8778 C   0  0  0  0  0  0  0  0  0  0  0  0
  -25.9749  -20.5949   19.3180 C   0  0  0  0  0  0  0  0  0  0  0  0
  -27.7740  -19.0577   19.8045 C   0  0  0  0  0  0  0  0  0  0  0  0
  -25.7947  -18.2773   18.6597 C   0  0  0  0  0  0  0  0  0  0  0  0
  -21.6620   -6.3872   25.8779 C   0  0  0  0  0  0  0  0  0  0  0  0
  -24.2615  -10.2647   20.6967 C   0  0  0  0  0  0  0  0  0  0  0  0
  -25.5249  -10.2603   18.4805 C   0  0  0  0  0  0  0  0  0  0  0  0
  -18.6673  -26.4536   22.4285 C   0  0  0  0  0  0  0  0  0  0  0  0
  -25.1380  -27.5766   23.4492 C   0  0  0  0  0  0  0  0  0  0  0  0
  -19.9808  -26.6201   21.9494 C   0  0  0  0  0  0  0  0  0  0  0  0
  -25.9011  -28.3927   22.6020 C   0  0  0  0  0  0  0  0  0  0  0  0
  -27.2343  -20.3426   19.8618 C   0  0  0  0  0  0  0  0  0  0  0  0
  -25.2550  -19.5623   18.7170 C   0  0  0  0  0  0  0  0  0  0  0  0
  -27.0542  -18.0250   19.2035 C   0  0  0  0  0  0  0  0  0  0  0  0
  -22.2634   -9.4041   22.4430 C   0  0  0  0  0  0  0  0  0  0  0  0
  -27.2678  -26.4730   22.0042 C   0  0  0  0  0  0  0  0  0  0  0  0
  -21.4448   -7.7437   23.8904 C   0  0  0  0  0  0  0  0  0  0  0  0
  -21.7574   -5.2427   25.0863 C   0  0  0  0  0  0  0  0  0  0  0  0
  -21.5057   -7.6377   25.2799 C   0  0  0  0  0  0  0  0  0  0  0  0
  -25.2939  -10.7085   19.7949 C   0  0  0  0  0  0  0  0  0  0  0  0
  -26.6114  -10.9857   18.0564 C   0  0  0  0  0  0  0  0  0  0  0  0
  -28.6066  -23.7244   20.5832 C   0  0  0  0  0  0  0  0  0  0  0  0
  -24.8204   -9.2763   17.7117 C   0  0  0  0  0  0  0  0  0  0  0  0
  -28.0261  -24.9231   20.4252 C   0  0  0  0  0  0  0  0  0  1  0  0
  -22.5892  -29.1895   22.4464 C   0  0  0  0  0  0  0  0  0  0  0  0
  -24.2936  -31.7532   23.4684 C   0  0  0  0  0  0  0  0  0  0  0  0
  -27.3443  -33.1060   24.1829 C   0  0  0  0  0  0  0  0  0  0  0  0
  -28.8395  -16.3007   19.6348 C   0  0  0  0  0  0  0  0  0  0  0  0
  -17.7330  -27.6243   22.6051 C   0  0  0  0  0  0  0  0  0  0  0  0
  -24.0106  -28.1598   24.2562 C   0  0  0  0  0  0  0  0  0  0  0  0
  -25.6083  -29.8612   22.4403 C   0  0  0  0  0  0  0  0  0  0  0  0
  -29.5688  -23.4424   21.7029 C   0  0  0  0  0  0  0  0  0  0  0  0
  -28.3201  -22.5601   19.6685 C   0  0  0  0  0  0  0  0  0  0  0  0
  -18.4475  -28.9726   22.6491 C   0  0  0  0  0  0  0  0  0  0  0  0
  -29.0908  -22.2266   22.4890 C   0  0  0  0  0  0  0  0  0  0  0  0
  -30.5352  -13.1711   19.7183 C   0  0  0  0  0  0  0  0  0  0  0  0
  -19.4721  -29.0707   21.5234 C   0  0  0  0  0  0  0  0  0  0  0  0
  -29.4050  -12.1437   19.6217 C   0  0  0  0  0  0  0  0  0  0  0  0
  -28.8511  -21.0211   21.5788 C   0  0  0  0  0  0  0  0  0  0  0  0
  -30.1287  -14.3847   20.5523 C   0  0  0  0  0  0  0  0  0  0  0  0
  -27.7490  -14.0066   20.0390 C   0  0  0  0  0  0  0  0  0  0  0  0
  -20.5528  -27.9920   21.6654 C   0  0  1  0  0  0  0  0  0  0  0  0
  -23.4464  -29.4430   23.6542 C   0  0  1  0  0  0  0  0  0  0  0  0
  -28.0890  -12.7959   19.1545 C   0  0  2  0  0  0  0  0  0  0  0  0
  -27.0654  -25.2389   19.3244 C   0  0  0  0  0  0  0  0  0  0  0  0
  -28.4217  -35.2342   24.9621 C   0  0  0  0  0  0  0  0  0  0  0  0
  -23.8839  -32.9711   20.7010 C   0  0  0  0  0  0  0  0  0  0  0  0
  -25.7265  -34.5862   21.2155 C   0  0  0  0  0  0  0  0  0  0  0  0
  -23.6490  -34.5856   22.5964 C   0  0  0  0  0  0  0  0  0  0  0  0
  -28.4583  -31.7963   26.5917 C   0  0  0  0  0  0  0  0  0  0  0  0
  -25.3004  -32.6868   22.8408 C   0  0  1  0  0  0  0  0  0  0  0  0
  -27.8413  -33.8928   25.3822 C   0  0  2  0  0  0  0  0  0  0  0  0
  -24.6445  -33.6794   21.8398 C   0  0  0  0  0  0  0  0  0  0  0  0
  -26.1638  -11.6459   20.1804 N   0  0  0  0  0  0  0  0  0  0  0  0
  -26.9520  -11.7926   19.1019 N   0  0  0  0  0  0  0  0  0  0  0  0
  -27.9574  -21.3799   20.4657 N   0  0  2  0  0  0  0  0  0  0  0  0
  -24.4921  -30.3832   23.2458 N   0  0  0  0  0  0  0  0  0  0  0  0
  -28.8760  -14.9525   20.0491 N   0  0  0  0  0  0  0  0  0  0  0  0
  -23.9814  -19.8174   18.1675 N   0  0  0  0  0  0  0  0  0  0  0  0
  -27.2990  -11.0057   16.8948 N   0  0  0  0  0  0  0  0  0  0  0  0
  -25.2445   -7.9425   17.7841 N   0  0  0  0  0  0  0  0  0  0  0  0
  -27.6032  -16.7200   19.1446 N   0  0  0  0  0  0  0  0  0  0  0  0
  -21.5073  -28.3644   22.6875 N   0  0  0  0  0  0  0  0  0  0  0  0
  -26.0046  -33.3297   23.9449 N   0  0  0  0  0  0  0  0  0  0  0  0
  -28.8988  -33.1277   26.1014 N   0  3  0  0  0  0  0  0  0  0  0  0
  -23.8539   -9.5738   16.9694 O   0  0  0  0  0  0  0  0  0  0  0  0
  -22.8865  -29.7056   21.3754 O   0  0  0  0  0  0  0  0  0  0  0  0
  -23.3694  -32.2219   24.1376 O   0  0  0  0  0  0  0  0  0  0  0  0
  -28.0725  -32.3698   23.5209 O   0  0  0  0  0  0  0  0  0  0  0  0
  -29.8392  -17.0220   19.6839 O   0  0  0  0  0  0  0  0  0  0  0  0
  -21.2888   -8.9843   23.2954 O   0  0  0  0  0  0  0  0  0  0  0  0
  -28.3006  -25.9391   21.2970 O   0  0  0  0  0  0  0  0  0  1  0  0
  -21.9060   -4.0417   25.6603 F   0  0  0  0  0  0  0  0  0  0  0  0
  -21.4134   -8.7336   26.0457 F   0  0  0  0  0  0  0  0  0  0  0  0
  1  2  1  0  0  0  0
  1  5  2  0  0  0  0
  2  6  2  0  0  0  0
  3  8  2  0  0  0  0
  3 18  1  0  0  0  0
  4  9  1  0  0  0  0
  4 18  2  0  0  0  0
  5 20  1  0  0  0  0
  6 22  1  0  0  0  0
  7 10  2  0  0  0  0
  7 21  1  0  0  0  0
  8 27  1  0  0  0  0
  9 27  2  0  0  0  0
 10 28  1  0  0  0  0
 11 12  2  0  0  0  0
 11 29  1  0  0  0  0
 12 30  1  0  0  0  0
 13 23  1  0  0  0  0
 13 28  2  0  0  0  0
 14 24  1  0  0  0  0
 14 25  2  0  0  0  0
 15 24  2  0  0  0  0
 15 26  1  0  0  0  0
 16 25  1  0  0  0  0
 16 26  2  0  0  0  0
 17 30  2  0  0  0  0
 17 31  1  0  0  0  0
 18 32  1  0  0  0  0
 19 32  1  0  0  0  0
 19 33  2  0  0  0  0
 19 35  1  0  0  0  0
 20 22  2  0  0  0  0
 20 41  1  0  0  0  0
 21 23  2  0  0  0  0
 21 42  1  0  0  0  0
 22 54  1  0  0  0  0
 23 43  1  0  0  0  0
 24 68  1  0  0  0  0
 25 71  1  0  0  0  0
 26 74  1  0  0  0  0
 27 83  1  0  0  0  0
 28 84  1  0  0  0  0
 29 31  2  0  0  0  0
 29 83  1  0  0  0  0
 30 85  1  0  0  0  0
 31 86  1  0  0  0  0
 32 66  2  0  0  0  0
 33 67  1  0  0  0  0
 33 72  1  0  0  0  0
 34 36  2  0  0  0  0
 34 44  1  0  0  0  0
 34 45  1  0  0  0  0
 35 73  1  0  0  0  0
 35 78  2  0  0  0  0
 36 57  1  0  0  0  0
 36 84  1  0  0  0  0
 37 55  1  0  0  0  0
 37 75  1  0  0  0  0
 37 79  2  0  0  0  0
 38 63  1  0  0  0  0
 38 69  1  0  0  0  0
 38 80  2  0  0  0  0
 39 64  1  0  0  0  0
 39 76  1  0  0  0  0
 39 81  2  0  0  0  0
 40 70  1  0  0  0  0
 40 74  1  0  0  0  0
 40 82  2  0  0  0  0
 41 46  1  0  0  0  0
 42 55  1  0  0  0  0
 43 69  1  0  0  0  0
 44 47  1  0  0  0  0
 45 68  1  0  0  0  0
 46 49  1  0  0  0  0
 47 51  1  0  0  0  0
 48 50  1  0  0  0  0
 48 52  1  0  0  0  0
 49 54  1  0  0  0  0
 50 56  1  0  0  0  0
 51 68  1  0  0  0  0
 52 70  1  0  0  0  0
 53 56  1  0  0  0  0
 53 70  1  0  0  0  0
 54 75  1  0  0  0  0
 55 69  1  0  0  0  0
 56 67  1  0  0  0  0
 58 64  1  0  0  0  0
 59 65  1  0  0  0  0
 60 65  1  0  0  0  0
 61 65  1  0  0  0  0
 62 77  1  0  0  0  0
 63 65  1  0  0  0  0
 63 76  1  0  0  0  0
 64 77  1  0  0  0  0
 66 67  1  0  0  0  0
M  CHG  1  77   1
M  ISO  4  36 101  40 100  74 100  84 101
M  END
> <Batch ID>
0145

> <Smiles>
CNC(C)C(=O)NC(C(=O)N1Cc2cc([101O:1][101C:1](C)=C3CCCN(c4cc(N)cc([100NH:0][100C:0](=O)N5CCCC(n6nc(-c7ccc(Oc8ccc(F)cc8F)cc7)c(C(N)=O)c6N)C5)c4)C3)ccc2CC1C(=O)NC1CCCc2ccccc21)C(C)(C)C

> <Shape>
0.305

> <Color>
0.098

> <Negative vol penalty>
0.000

$$$$

  -OEChem-04052303072D

  0  0  0     0  0  0  0  0  0999 V2000
M  END
$$$$

  -OEChem-04052303073D

 86 94  0     1  0  0  0  0  0999 V2000
  -26.4892  -19.7720   25.5766 C   0  0  0  0  0  0  0  0  0  0  0  0
  -27.2801  -20.5258   24.7154 C   0  0  0  0  0  0  0  0  0  0  0  0
  -22.9949   -9.8800   19.9988 C   0  0  0  0  0  0  0  0  0  0  0  0
  -23.7122   -9.9606   22.3045 C   0  0  0  0  0  0  0  0  0  0  0  0
  -25.1095  -19.7152   25.3842 C   0  0  0  0  0  0  0  0  0  0  0  0
  -26.6917  -21.2225   23.6605 C   0  0  0  0  0  0  0  0  0  0  0  0
  -28.4783  -25.9396   23.2114 C   0  0  0  0  0  0  0  0  0  0  0  0
  -22.2268   -8.7494   20.2772 C   0  0  0  0  0  0  0  0  0  0  0  0
  -22.9441   -8.8300   22.5829 C   0  0  0  0  0  0  0  0  0  0  0  0
  -29.7255  -26.0933   22.6077 C   0  0  0  0  0  0  0  0  0  0  0  0
  -23.1882   -5.4851   22.1554 C   0  0  0  0  0  0  0  0  0  0  0  0
  -23.7726   -4.4775   22.9226 C   0  0  0  0  0  0  0  0  0  0  0  0
  -28.6429  -26.7020   20.5397 C   0  0  0  0  0  0  0  0  0  0  0  0
  -31.8122  -17.4813   21.6449 C   0  0  0  0  0  0  0  0  0  0  0  0
  -22.0431   -4.7431   24.5886 C   0  0  0  0  0  0  0  0  0  0  0  0
  -30.7552  -19.1046   22.9294 C   0  0  0  0  0  0  0  0  0  0  0  0
  -23.7376  -10.4855   21.0124 C   0  0  0  0  0  0  0  0  0  0  0  0
  -24.1249  -12.9984   20.8050 C   0  0  0  0  0  0  0  0  0  0  0  0
  -24.5028  -20.4194   24.3322 C   0  0  0  0  0  0  0  0  0  0  0  0
  -27.3018  -26.1558   22.4796 C   0  0  0  0  0  0  0  0  0  0  0  0
  -25.3027  -21.1741   23.4530 C   0  0  0  0  0  0  0  0  0  0  0  0
  -27.3819  -26.5529   21.1372 C   0  0  0  0  0  0  0  0  0  0  0  0
  -31.9099  -18.7624   22.2608 C   0  0  0  0  0  0  0  0  0  0  0  0
  -22.2014   -8.2245   21.5693 C   0  0  0  0  0  0  0  0  0  0  0  0
  -29.8080  -26.4717   21.2709 C   0  0  0  0  0  0  0  0  0  0  0  0
  -22.0313   -6.1218   22.6047 C   0  0  0  0  0  0  0  0  0  0  0  0
  -23.2001   -4.1064   24.1393 C   0  0  0  0  0  0  0  0  0  0  0  0
  -21.4587   -5.7507   23.8213 C   0  0  0  0  0  0  0  0  0  0  0  0
  -24.5316  -11.6531   20.7253 C   0  0  0  0  0  0  0  0  0  0  0  0
  -25.2363  -13.7157   20.4350 C   0  0  0  0  0  0  0  0  0  0  0  0
  -30.5863  -16.8929   21.8665 C   0  0  0  0  0  0  0  0  0  0  0  0
  -22.8559  -13.5504   21.1800 C   0  0  0  0  0  0  0  0  0  0  0  0
  -24.8231  -24.3544   21.6341 C   0  0  0  0  0  0  0  0  0  0  0  0
  -23.6586  -27.1673   20.5144 C   0  0  0  0  0  0  0  0  0  0  0  0
  -32.4728  -21.9963   21.6727 C   0  0  0  0  0  0  0  0  0  0  0  0
  -24.2987  -30.3218   19.3801 C   0  0  0  0  0  0  0  0  0  0  0  0
  -30.7155  -14.6769   20.6754 C   0  0  0  0  0  0  0  0  0  0  0  0
  -23.0131  -20.2896   24.1358 C   0  0  0  0  0  0  0  0  0  0  0  0
  -25.9645  -26.0118   23.1528 C   0  0  0  0  0  0  0  0  0  0  0  0
  -26.1490  -26.8168   20.3133 C   0  0  0  0  0  0  0  0  0  0  0  0
  -22.4242  -21.3585   23.2188 C   0  0  0  0  0  0  0  0  0  0  0  0
  -29.6038  -12.1946   18.3776 C   0  0  0  0  0  0  0  0  0  0  0  0
  -23.2754  -21.5120   21.9624 C   0  0  0  0  0  0  0  0  0  0  0  0
  -28.1516  -11.9431   18.7901 C   0  0  0  0  0  0  0  0  0  0  0  0
  -30.5003  -12.4532   19.5872 C   0  0  0  0  0  0  0  0  0  0  0  0
  -28.5808  -13.2603   20.9038 C   0  0  0  0  0  0  0  0  0  0  0  0
  -24.6986  -21.9636   22.3121 C   0  0  1  0  0  0  0  0  0  0  0  0
  -24.8252  -25.7580   22.1704 C   0  0  1  0  0  0  0  0  0  0  0  0
  -27.6271  -13.0590   19.7149 C   0  0  2  0  0  0  0  0  0  0  0  0
  -23.1466  -32.3714   18.5033 C   0  0  0  0  0  0  0  0  0  0  0  0
  -23.2478  -25.7834   17.8262 C   0  0  0  0  0  0  0  0  0  0  0  0
  -23.0145  -28.0444   16.7767 C   0  0  0  0  0  0  0  0  0  0  0  0
  -21.3840  -27.3030   18.5129 C   0  0  0  0  0  0  0  0  0  0  0  0
  -30.6313  -25.0064   18.9479 C   0  0  0  0  0  0  0  0  0  0  0  0
  -32.9309  -25.8795   19.4384 C   0  0  0  0  0  0  0  0  0  0  0  0
  -33.3068  -20.4613   19.8745 C   0  0  0  0  0  0  0  0  0  0  0  0
  -25.3015  -31.9830   21.6148 C   0  0  0  0  0  0  0  0  0  0  0  0
  -33.1291  -19.6356   22.1891 C   0  0  0  0  0  0  0  0  0  0  0  0
  -32.3442  -23.0564   20.5847 C   0  0  0  0  0  0  0  0  0  0  0  0
  -31.8139  -24.3910   21.1259 C   0  0  0  0  0  0  0  0  0  0  0  0
  -23.7388  -27.9115   19.2033 C   0  0  1  0  0  0  0  0  0  0  0  0
  -23.6859  -31.6641   19.7368 C   0  0  2  0  0  0  0  0  0  0  0  0
  -22.8697  -27.2538   18.0945 C   0  0  0  0  0  0  0  0  0  0  0  0
  -31.5864  -25.4713   20.0494 C   0  0  0  0  0  0  0  0  0  1  0  0
  -25.8022  -11.5208   20.3351 N   0  0  0  0  0  0  0  0  0  0  0  0
  -26.2034  -12.7923   20.1663 N   0  0  0  0  0  0  0  0  0  0  0  0
  -24.8646  -26.6565   21.0148 N   0  0  0  0  0  0  0  0  0  0  0  0
  -29.9430  -13.5253   20.4148 N   0  0  0  0  0  0  0  0  0  0  0  0
  -25.4708  -15.0398   20.3165 N   0  0  0  0  0  0  0  0  0  0  0  0
  -21.8224  -12.6714   21.5315 N   0  0  0  0  0  0  0  0  0  0  0  0
  -30.0690  -15.6425   21.4463 N   0  0  0  0  0  0  0  0  0  0  0  0
  -24.7208  -23.3800   22.6086 N   0  0  0  0  0  0  0  0  0  0  0  0
  -23.3849  -29.2959   19.4975 N   0  0  0  0  0  0  0  0  0  0  0  0
  -32.9506  -20.7468   21.2625 N   0  0  0  0  0  0  0  0  0  0  0  0
  -24.7041  -32.5448   20.3760 N   0  3  0  0  0  0  0  0  0  0  0  0
  -22.6398  -14.7861   21.1869 O   0  0  0  0  0  0  0  0  0  0  0  0
  -24.9065  -24.1692   20.4256 O   0  0  0  0  0  0  0  0  0  0  0  0
  -22.5674  -27.0499   21.0773 O   0  0  0  0  0  0  0  0  0  0  0  0
  -32.1671  -22.2560   22.8395 O   0  0  0  0  0  0  0  0  0  0  0  0
  -25.4697  -30.1964   19.0288 O   0  0  0  0  0  0  0  0  0  0  0  0
  -31.8558  -14.8093   20.2235 O   0  0  0  0  0  0  0  0  0  0  0  0
  -21.4518   -7.1214   21.8414 O   0  0  0  0  0  0  0  0  0  0  0  0
  -31.0241  -26.6218   20.6790 O   0  0  0  0  0  0  0  0  0  1  0  0
  -23.7605   -3.1378   24.8753 F   0  0  0  0  0  0  0  0  0  0  0  0
  -20.3466   -6.3579   24.2577 F   0  0  0  0  0  0  0  0  0  0  0  0
  -29.5598  -17.8839   22.8133 S   0  0  0  0  0  0  0  0  0  0  0  0
  1  2  1  0  0  0  0
  1  5  2  0  0  0  0
  2  6  2  0  0  0  0
  3  8  2  0  0  0  0
  3 17  1  0  0  0  0
  4  9  1  0  0  0  0
  4 17  2  0  0  0  0
  5 19  1  0  0  0  0
  6 21  1  0  0  0  0
  7 10  2  0  0  0  0
  7 20  1  0  0  0  0
  8 24  1  0  0  0  0
  9 24  2  0  0  0  0
 10 25  1  0  0  0  0
 11 12  2  0  0  0  0
 11 26  1  0  0  0  0
 12 27  1  0  0  0  0
 13 22  1  0  0  0  0
 13 25  2  0  0  0  0
 14 23  1  0  0  0  0
 14 31  2  0  0  0  0
 15 27  2  0  0  0  0
 15 28  1  0  0  0  0
 16 23  2  0  0  0  0
 16 86  1  0  0  0  0
 17 29  1  0  0  0  0
 18 29  1  0  0  0  0
 18 30  2  0  0  0  0
 18 32  1  0  0  0  0
 19 21  2  0  0  0  0
 19 38  1  0  0  0  0
 20 22  2  0  0  0  0
 20 39  1  0  0  0  0
 21 47  1  0  0  0  0
 22 40  1  0  0  0  0
 23 58  1  0  0  0  0
 24 82  1  0  0  0  0
 25 83  1  0  0  0  0
 26 28  2  0  0  0  0
 26 82  1  0  0  0  0
 27 84  1  0  0  0  0
 28 85  1  0  0  0  0
 29 65  2  0  0  0  0
 30 66  1  0  0  0  0
 30 69  1  0  0  0  0
 31 71  1  0  0  0  0
 31 86  1  0  0  0  0
 32 70  1  0  0  0  0
 32 76  2  0  0  0  0
 33 48  1  0  0  0  0
 33 72  1  0  0  0  0
 33 77  2  0  0  0  0
 34 61  1  0  0  0  0
 34 67  1  0  0  0  0
 34 78  2  0  0  0  0
 35 59  1  0  0  0  0
 35 74  1  0  0  0  0
 35 79  2  0  0  0  0
 36 62  1  0  0  0  0
 36 73  1  0  0  0  0
 36 80  2  0  0  0  0
 37 68  1  0  0  0  0
 37 71  1  0  0  0  0
 37 81  2  0  0  0  0
 38 41  1  0  0  0  0
 39 48  1  0  0  0  0
 40 67  1  0  0  0  0
 41 43  1  0  0  0  0
 42 44  1  0  0  0  0
 42 45  1  0  0  0  0
 43 47  1  0  0  0  0
 44 49  1  0  0  0  0
 45 68  1  0  0  0  0
 46 49  1  0  0  0  0
 46 68  1  0  0  0  0
 47 72  1  0  0  0  0
 48 67  1  0  0  0  0
 49 66  1  0  0  0  0
 50 62  1  0  0  0  0
 51 63  1  0  0  0  0
 52 63  1  0  0  0  0
 53 63  1  0  0  0  0
 54 64  1  0  0  0  0
 55 64  1  0  0  0  0
 56 74  1  0  0  0  0
 57 75  1  0  0  0  0
 58 74  1  0  0  0  0
 59 60  1  0  0  0  0
 60 64  1  0  0  0  0
 61 63  1  0  0  0  0
 61 73  1  0  0  0  0
 62 75  1  0  0  0  0
 64 83  1  0  0  0  0
 65 66  1  0  0  0  0
M  CHG  1  75   1
M  ISO  4  37 100  64 101  71 100  83 101
M  END
> <Batch ID>
0145

> <Smiles>
CNC(C)C(=O)NC(C(=O)N1Cc2cc([101O:1][101C:1](C)(C)CCC(=O)N(C)Cc3csc([100NH:0][100C:0](=O)N4CCCC(n5nc(-c6ccc(Oc7ccc(F)cc7F)cc6)c(C(N)=O)c5N)C4)c3)ccc2CC1C(=O)NC1CCCc2ccccc21)C(C)(C)C

> <Shape>
0.259

> <Color>
0.198

> <Negative vol penalty>
0.000

$$$$

  -OEChem-04052303073D

 89 97  0     1  0  0  0  0  0999 V2000
  -27.0197  -27.9020   32.3066 C   0  0  0  0  0  0  0  0  0  0  0  0
  -26.7216  -26.6625   31.7498 C   0  0  0  0  0  0  0  0  0  0  0  0
  -28.0333  -18.8168   21.6234 C   0  0  0  0  0  0  0  0  0  0  0  0
  -23.0444   -9.8738   19.9659 C   0  0  0  0  0  0  0  0  0  0  0  0
  -23.8189   -9.9067   22.2542 C   0  0  0  0  0  0  0  0  0  0  0  0
  -28.7524  -17.7152   22.0870 C   0  0  0  0  0  0  0  0  0  0  0  0
  -26.8015  -29.0661   31.5709 C   0  0  0  0  0  0  0  0  0  0  0  0
  -26.2041  -26.5863   30.4572 C   0  0  0  0  0  0  0  0  0  0  0  0
  -29.6135  -22.8744   25.3105 C   0  0  0  0  0  0  0  0  0  0  0  0
  -27.8924  -19.0309   20.2522 C   0  0  0  0  0  0  0  0  0  0  0  0
  -22.3112   -8.7171   20.2307 C   0  0  0  0  0  0  0  0  0  0  0  0
  -23.0857   -8.7501   22.5190 C   0  0  0  0  0  0  0  0  0  0  0  0
  -30.0960  -22.0111   24.3265 C   0  0  0  0  0  0  0  0  0  0  0  0
  -23.3990   -5.4257   21.9887 C   0  0  0  0  0  0  0  0  0  0  0  0
  -24.0271   -4.4115   22.7115 C   0  0  0  0  0  0  0  0  0  0  0  0
  -29.1898  -17.0418   19.8083 C   0  0  0  0  0  0  0  0  0  0  0  0
  -28.3775  -22.7695   22.8034 C   0  0  0  0  0  0  0  0  0  0  0  0
  -22.3354   -4.5868   24.4275 C   0  0  0  0  0  0  0  0  0  0  0  0
  -23.7983  -10.4686   20.9776 C   0  0  0  0  0  0  0  0  0  0  0  0
  -29.3307  -16.8277   21.1795 C   0  0  0  0  0  0  0  0  0  0  0  0
  -24.1196  -12.9952   20.8334 C   0  0  0  0  0  0  0  0  0  0  0  0
  -26.2901  -29.0036   30.2650 C   0  0  0  0  0  0  0  0  0  0  0  0
  -28.5194  -23.7006   25.0391 C   0  0  0  0  0  0  0  0  0  0  0  0
  -25.9776  -27.7507   29.7038 C   0  0  0  0  0  0  0  0  0  0  0  0
  -27.8976  -23.6452   23.7809 C   0  0  0  0  0  0  0  0  0  0  0  0
  -28.4707  -18.1434   19.3447 C   0  0  0  0  0  0  0  0  0  0  0  0
  -22.3318   -8.1553   21.5073 C   0  0  0  0  0  0  0  0  0  0  0  0
  -29.4794  -21.9587   23.0762 C   0  0  0  0  0  0  0  0  0  0  0  0
  -22.2391   -6.0205   22.4853 C   0  0  0  0  0  0  0  0  0  0  0  0
  -23.4953   -3.9921   23.9309 C   0  0  0  0  0  0  0  0  0  0  0  0
  -21.7073   -5.6011   23.7047 C   0  0  0  0  0  0  0  0  0  0  0  0
  -24.5564  -11.6631   20.7046 C   0  0  0  0  0  0  0  0  0  0  0  0
  -25.2035  -13.7499   20.4566 C   0  0  0  0  0  0  0  0  0  0  0  0
  -30.0798  -15.6789   21.6633 C   0  0  0  0  0  0  0  0  0  0  0  0
  -22.8478  -13.5047   21.2561 C   0  0  0  0  0  0  0  0  0  0  0  0
  -30.7064  -14.7173   20.7274 C   0  0  0  0  0  0  0  0  0  0  0  0
  -26.1711  -26.3448   26.2922 C   0  0  0  0  0  0  0  0  0  0  0  0
  -29.4533  -20.6536   17.8253 C   0  0  0  0  0  0  0  0  0  0  0  0
  -26.8496  -27.0597   23.3873 C   0  0  0  0  0  0  0  0  0  0  0  0
  -28.1770  -27.7227   20.3155 C   0  0  0  0  0  0  0  0  0  0  0  0
  -26.0267  -30.2917   29.5261 C   0  0  0  0  0  0  0  0  0  0  0  0
  -27.9277  -24.6013   26.0892 C   0  0  0  0  0  0  0  0  0  0  0  0
  -26.7019  -24.5272   23.5454 C   0  0  0  0  0  0  0  0  0  0  0  0
  -25.8273  -30.1028   28.0246 C   0  0  0  0  0  0  0  0  0  0  0  0
  -29.5379  -12.4255   18.2296 C   0  0  0  0  0  0  0  0  0  0  0  0
  -24.8724  -28.9442   27.7545 C   0  0  0  0  0  0  0  0  0  0  0  0
  -28.1150  -12.1028   18.6844 C   0  0  0  0  0  0  0  0  0  0  0  0
  -30.4681  -12.6440   19.4185 C   0  0  0  0  0  0  0  0  0  0  0  0
  -28.5652  -13.3734   20.8311 C   0  0  0  0  0  0  0  0  0  0  0  0
  -25.4381  -27.6256   28.2955 C   0  0  1  0  0  0  0  0  0  0  0  0
  -27.3825  -25.9210   25.5147 C   0  0  1  0  0  0  0  0  0  0  0  0
  -27.5903  -13.1735   19.6577 C   0  0  2  0  0  0  0  0  0  0  0  0
  -28.0707  -29.3883   18.4415 C   0  0  0  0  0  0  0  0  0  0  0  0
  -32.2809  -21.4011   20.4046 C   0  0  0  0  0  0  0  0  0  0  0  0
  -29.0146  -19.4704   15.7095 C   0  0  0  0  0  0  0  0  0  0  0  0
  -30.7674  -18.5049   17.1784 C   0  0  0  0  0  0  0  0  0  0  0  0
  -24.1808  -25.8818   22.4966 C   0  0  0  0  0  0  0  0  0  0  0  0
  -24.5938  -26.8474   20.2239 C   0  0  0  0  0  0  0  0  0  0  0  0
  -24.3805  -28.3568   22.1985 C   0  0  0  0  0  0  0  0  0  0  0  0
  -31.0400  -28.4119   20.6109 C   0  0  0  0  0  0  0  0  0  0  0  0
  -28.3182  -18.3755   17.8582 C   0  0  0  0  0  0  0  0  0  0  0  0
  -29.7891  -21.5186   20.7592 C   0  0  0  0  0  0  0  0  0  1  0  0
  -30.7604  -21.2063   18.3858 C   0  0  2  0  0  0  0  0  0  0  0  0
  -26.4636  -26.9486   21.9340 C   0  0  1  0  0  0  0  0  0  0  0  0
  -28.7755  -28.9881   19.7283 C   0  0  2  0  0  0  0  0  0  0  0  0
  -30.9130  -20.9234   19.8956 C   0  0  1  0  0  0  0  0  0  0  0  0
  -29.4200  -19.2450   17.1825 C   0  0  0  0  0  0  0  0  0  0  0  0
  -24.9235  -26.9908   21.7250 C   0  0  0  0  0  0  0  0  0  0  0  0
  -25.8192  -11.5734   20.2789 N   0  0  0  0  0  0  0  0  0  0  0  0
  -30.2526  -15.4182   22.9310 N   0  0  0  0  0  0  0  0  0  0  0  0
  -26.1852  -12.8587   20.1370 N   0  0  0  0  0  0  0  0  0  0  0  0
  -29.9232  -13.6390   20.3400 N   0  0  0  0  0  0  0  0  0  0  0  0
  -26.9449  -25.8641   24.1096 N   0  0  0  0  0  0  0  0  0  0  0  0
  -25.4030  -15.0823   20.3706 N   0  0  0  0  0  0  0  0  0  0  0  0
  -21.8452  -12.5907   21.6078 N   0  0  0  0  0  0  0  0  0  0  0  0
  -26.4572  -27.1103   27.4065 N   0  0  0  0  0  0  0  0  0  0  0  0
  -27.1904  -28.0041   21.2367 N   0  0  0  0  0  0  0  0  0  0  0  0
  -30.8379  -22.6734   18.1097 N   0  3  0  0  0  0  0  0  0  0  0  0
  -30.2215  -28.7868   19.4291 N   0  3  0  0  0  0  0  0  0  0  0  0
  -22.6023  -14.7339   21.3043 O   0  0  0  0  0  0  0  0  0  0  0  0
  -31.8550  -14.9779   20.3941 O   0  0  0  0  0  0  0  0  0  0  0  0
  -25.0579  -26.0041   25.9095 O   0  0  0  0  0  0  0  0  0  0  0  0
  -28.4305  -21.3480   17.8468 O   0  0  0  0  0  0  0  0  0  0  0  0
  -27.0561  -28.1755   23.8729 O   0  0  0  0  0  0  0  0  0  0  0  0
  -28.5450  -26.5970   19.9868 O   0  0  0  0  0  0  0  0  0  0  0  0
  -21.6163   -7.0268   21.7661 O   0  0  0  0  0  0  0  0  0  0  0  0
  -29.9614  -21.1115   22.1126 O   0  0  0  0  0  0  0  0  0  1  0  0
  -24.0977   -3.0171   24.6242 F   0  0  0  0  0  0  0  0  0  0  0  0
  -20.5926   -6.1679   24.1863 F   0  0  0  0  0  0  0  0  0  0  0  0
  1  2  1  0  0  0  0
  1  7  2  0  0  0  0
  2  8  2  0  0  0  0
  3  6  1  0  0  0  0
  3 10  2  0  0  0  0
  4 11  2  0  0  0  0
  4 19  1  0  0  0  0
  5 12  1  0  0  0  0
  5 19  2  0  0  0  0
  6 20  2  0  0  0  0
  7 22  1  0  0  0  0
  8 24  1  0  0  0  0
  9 13  2  0  0  0  0
  9 23  1  0  0  0  0
 10 26  1  0  0  0  0
 11 27  1  0  0  0  0
 12 27  2  0  0  0  0
 13 28  1  0  0  0  0
 14 15  2  0  0  0  0
 14 29  1  0  0  0  0
 15 30  1  0  0  0  0
 16 20  1  0  0  0  0
 16 26  2  0  0  0  0
 17 25  1  0  0  0  0
 17 28  2  0  0  0  0
 18 30  2  0  0  0  0
 18 31  1  0  0  0  0
 19 32  1  0  0  0  0
 20 34  1  0  0  0  0
 21 32  1  0  0  0  0
 21 33  2  0  0  0  0
 21 35  1  0  0  0  0
 22 24  2  0  0  0  0
 22 41  1  0  0  0  0
 23 25  2  0  0  0  0
 23 42  1  0  0  0  0
 24 50  1  0  0  0  0
 25 43  1  0  0  0  0
 26 61  1  0  0  0  0
 27 86  1  0  0  0  0
 28 87  1  0  0  0  0
 29 31  2  0  0  0  0
 29 86  1  0  0  0  0
 30 88  1  0  0  0  0
 31 89  1  0  0  0  0
 32 69  2  0  0  0  0
 33 71  1  0  0  0  0
 33 74  1  0  0  0  0
 34 36  1  0  0  0  0
 34 70  2  0  0  0  0
 35 75  1  0  0  0  0
 35 80  2  0  0  0  0
 36 72  1  0  0  0  0
 36 81  2  0  0  0  0
 37 51  1  0  0  0  0
 37 76  1  0  0  0  0
 37 82  2  0  0  0  0
 38 63  1  0  0  0  0
 38 67  1  0  0  0  0
 38 83  2  0  0  0  0
 39 64  1  0  0  0  0
 39 73  1  0  0  0  0
 39 84  2  0  0  0  0
 40 65  1  0  0  0  0
 40 77  1  0  0  0  0
 40 85  2  0  0  0  0
 41 44  1  0  0  0  0
 42 51  1  0  0  0  0
 43 73  1  0  0  0  0
 44 46  1  0  0  0  0
 45 47  1  0  0  0  0
 45 48  1  0  0  0  0
 46 50  1  0  0  0  0
 47 52  1  0  0  0  0
 48 72  1  0  0  0  0
 49 52  1  0  0  0  0
 49 72  1  0  0  0  0
 50 76  1  0  0  0  0
 51 73  1  0  0  0  0
 52 71  1  0  0  0  0
 53 65  1  0  0  0  0
 54 66  1  0  0  0  0
 55 67  1  0  0  0  0
 56 67  1  0  0  0  0
 57 68  1  0  0  0  0
 58 68  1  0  0  0  0
 59 68  1  0  0  0  0
 60 79  1  0  0  0  0
 61 67  1  0  0  0  0
 62 66  1  0  0  0  0
 62 87  1  0  0  0  0
 63 66  1  0  0  0  0
 63 78  1  0  0  0  0
 64 68  1  0  0  0  0
 64 77  1  0  0  0  0
 65 79  1  0  0  0  0
 69 71  1  0  0  0  0
M  CHG  2  78   1  79   1
M  ISO  4  34 100  36 100  62 101  87 101
M  END
> <Batch ID>
0145

> <Smiles>
CNC(C)C(=O)NC(C(=O)N1Cc2cc([101O:1][101CH2:1]C(C)C(N)C(=O)C(C)(C)Cc3cccc([100C:0](=N)[100C:0](=O)N4CCCC(n5nc(-c6ccc(Oc7ccc(F)cc7F)cc6)c(C(N)=O)c5N)C4)c3)ccc2CC1C(=O)NC1CCCc2ccccc21)C(C)(C)C

> <Shape>
0.261

> <Color>
0.201

> <Negative vol penalty>
0.000

$$$$
