
  -OEChem-04052303103D

 88 97  0     1  0  0  0  0  0999 V2000
  -22.2694  -28.8347   15.1373 C   0  0  0  0  0  0  0  0  0  0  0  0
  -23.2091  -28.1719   15.9202 C   0  0  0  0  0  0  0  0  0  0  0  0
  -23.7569   -9.7852   22.0519 C   0  0  0  0  0  0  0  0  0  0  0  0
  -24.3199  -11.2442   23.8935 C   0  0  0  0  0  0  0  0  0  0  0  0
  -21.9751  -30.1743   15.3879 C   0  0  0  0  0  0  0  0  0  0  0  0
  -23.8560  -28.8487   16.9537 C   0  0  0  0  0  0  0  0  0  0  0  0
  -29.0279  -20.3762   20.2402 C   0  0  0  0  0  0  0  0  0  0  0  0
  -24.0821  -26.1253   21.2171 C   0  0  0  0  0  0  0  0  0  0  0  0
  -28.6954  -19.0382   20.0290 C   0  0  0  0  0  0  0  0  0  0  0  0
  -23.2325   -8.8549   22.9492 C   0  0  0  0  0  0  0  0  0  0  0  0
  -23.7955  -10.3139   24.7909 C   0  0  0  0  0  0  0  0  0  0  0  0
  -25.0469  -25.1209   21.2806 C   0  0  0  0  0  0  0  0  0  0  0  0
  -20.3895   -8.4428   24.7326 C   0  0  0  0  0  0  0  0  0  0  0  0
  -19.1581   -7.8659   24.4224 C   0  0  0  0  0  0  0  0  0  0  0  0
  -26.4698  -26.5779   22.5735 C   0  0  0  0  0  0  0  0  0  0  0  0
  -31.0417  -18.4711   19.9271 C   0  0  0  0  0  0  0  0  0  0  0  0
  -20.1838   -5.6784   24.4188 C   0  0  0  0  0  0  0  0  0  0  0  0
  -24.3007  -10.9798   22.5241 C   0  0  0  0  0  0  0  0  0  0  0  0
  -24.1568  -12.9980   20.9704 C   0  0  0  0  0  0  0  0  0  0  0  0
  -22.6116  -30.8652   16.4311 C   0  0  0  0  0  0  0  0  0  0  0  0
  -24.3088  -27.3694   21.8230 C   0  0  0  0  0  0  0  0  0  0  0  0
  -23.5709  -30.1992   17.2176 C   0  0  0  0  0  0  0  0  0  0  0  0
  -30.3673  -20.7618   20.2948 C   0  0  0  0  0  0  0  0  0  0  0  0
  -25.5052  -27.5956   22.5184 C   0  0  0  0  0  0  0  0  0  0  0  0
  -31.3742  -19.8092   20.1382 C   0  0  0  0  0  0  0  0  0  0  0  0
  -29.7022  -18.0856   19.8725 C   0  0  0  0  0  0  0  0  0  0  0  0
  -23.2518   -9.1192   24.3187 C   0  0  0  0  0  0  0  0  0  0  0  0
  -26.2422  -25.3481   21.9564 C   0  0  0  0  0  0  0  0  0  0  0  0
  -21.5182   -7.6376   24.8858 C   0  0  0  0  0  0  0  0  0  0  0  0
  -19.0552   -6.4837   24.2655 C   0  0  0  0  0  0  0  0  0  0  0  0
  -21.4153   -6.2554   24.7289 C   0  0  0  0  0  0  0  0  0  0  0  0
  -24.8431  -11.9410   21.5977 C   0  0  0  0  0  0  0  0  0  0  0  0
  -25.1086  -13.6123   20.1938 C   0  0  0  0  0  0  0  0  0  0  0  0
  -29.5613  -23.1570   20.2001 C   0  0  0  0  0  0  0  0  0  0  0  0
  -29.4698  -23.6862   21.4311 C   0  0  0  0  0  0  0  0  0  0  0  0
  -22.7819  -13.3896   21.0799 C   0  0  0  0  0  0  0  0  0  0  0  0
  -28.7773  -23.4841   19.0170 C   0  0  0  0  0  0  0  0  0  0  0  0
  -24.5327  -30.3642   20.7815 C   0  0  0  0  0  0  0  0  0  0  0  0
  -24.6746  -31.0435   23.9502 C   0  0  0  0  0  0  0  0  0  0  0  0
  -25.4006  -29.9816   27.1112 C   0  0  0  0  0  0  0  0  0  0  0  0
  -30.2395  -15.6552   19.4838 C   0  0  0  0  0  0  0  0  0  0  0  0
  -22.2952  -32.3258   16.6338 C   0  0  0  0  0  0  0  0  0  0  0  0
  -23.2468  -28.4332   21.7682 C   0  0  0  0  0  0  0  0  0  0  0  0
  -25.7888  -28.9067   23.2031 C   0  0  0  0  0  0  0  0  0  0  0  0
  -30.5943  -22.8134   21.9677 C   0  0  0  0  0  0  0  0  0  0  0  0
  -22.7509  -32.8657   17.9869 C   0  0  0  0  0  0  0  0  0  0  0  0
  -29.8003  -12.1596   18.9692 C   0  0  0  0  0  0  0  0  0  0  0  0
  -24.1789  -32.4207   18.2859 C   0  0  0  0  0  0  0  0  0  0  0  0
  -28.4150  -11.8781   19.5555 C   0  0  0  0  0  0  0  0  0  0  0  0
  -30.5574  -13.2087   19.7814 C   0  0  0  0  0  0  0  0  0  0  0  0
  -28.4447  -14.1831   20.5915 C   0  0  0  0  0  0  0  0  0  0  0  0
  -30.7103  -22.2380   20.5279 C   0  0  1  0  0  0  0  0  0  0  0  0
  -24.2756  -30.8922   18.3636 C   0  0  1  0  0  0  0  0  0  0  0  0
  -23.7981  -29.8394   21.9826 C   0  0  1  0  0  0  0  0  0  0  0  0
  -27.6185  -13.1801   19.7698 C   0  0  2  0  0  0  0  0  0  0  0  0
  -29.0715  -22.7418   17.7332 C   0  0  0  0  0  0  0  0  0  0  0  0
  -33.5479  -19.9243   18.8671 C   0  0  0  0  0  0  0  0  0  0  0  0
  -33.5629  -19.5281   21.3567 C   0  0  0  0  0  0  0  0  0  0  0  0
  -25.4542  -30.7738   29.4917 C   0  0  0  0  0  0  0  0  0  0  0  0
  -27.2457  -32.5834   23.3773 C   0  0  0  0  0  0  0  0  0  0  0  0
  -27.7426  -32.5288   25.8305 C   0  0  0  0  0  0  0  0  0  0  0  0
  -25.7018  -33.6975   24.9988 C   0  0  0  0  0  0  0  0  0  0  0  0
  -23.4061  -27.9624   27.9499 C   0  0  0  0  0  0  0  0  0  0  0  0
  -28.5485  -24.7859   22.1010 C   0  0  0  0  0  0  0  0  0  1  0  0
  -32.8139  -20.2016   20.1920 C   0  0  0  0  0  0  0  0  0  0  0  0
  -25.7825  -31.1707   24.9677 C   0  0  1  0  0  0  0  0  0  0  0  0
  -24.6275  -30.0913   28.4131 C   0  0  2  0  0  0  0  0  0  0  0  0
  -26.6139  -32.4710   24.7791 C   0  0  0  0  0  0  0  0  0  0  0  0
  -26.1313  -11.8840   21.2497 N   0  0  0  0  0  0  0  0  0  0  0  0
  -26.2621  -12.9130   20.3951 N   0  0  0  0  0  0  0  0  0  0  0  0
  -24.7220  -29.9176   23.1159 N   0  0  0  0  0  0  0  0  0  0  0  0
  -29.7433  -14.4157   19.9400 N   0  0  0  0  0  0  0  0  0  0  0  0
  -25.0630  -14.6771   19.3652 N   0  0  0  0  0  0  0  0  0  0  0  0
  -21.9414  -12.6492   21.9224 N   0  0  0  0  0  0  0  0  0  0  0  0
  -29.3639  -16.7264   19.6585 N   0  0  0  0  0  0  0  0  0  0  0  0
  -23.7668  -30.4175   19.6325 N   0  0  0  0  0  0  0  0  0  0  0  0
  -25.1501  -31.0505   26.2769 N   0  0  0  0  0  0  0  0  0  0  0  0
  -24.2423  -28.7374   28.9024 N   0  3  0  0  0  0  0  0  0  0  0  0
  -22.3088  -14.3570   20.4367 O   0  0  0  0  0  0  0  0  0  0  0  0
  -27.8969  -24.3528   19.0569 O   0  0  0  0  0  0  0  0  0  0  0  0
  -25.7070  -30.6975   20.8894 O   0  0  0  0  0  0  0  0  0  0  0  0
  -23.7954  -31.9075   23.9022 O   0  0  0  0  0  0  0  0  0  0  0  0
  -26.1543  -29.0437   26.8610 O   0  0  0  0  0  0  0  0  0  0  0  0
  -31.3477  -15.7541   18.9509 O   0  0  0  0  0  0  0  0  0  0  0  0
  -22.7399   -8.2118   25.1945 O   0  0  0  0  0  0  0  0  0  0  0  0
  -27.1860  -24.3697   22.0194 O   0  0  0  0  0  0  0  0  0  1  0  0
  -17.8722   -5.9296   23.9692 F   0  0  0  0  0  0  0  0  0  0  0  0
  -22.4959   -5.4765   24.8760 F   0  0  0  0  0  0  0  0  0  0  0  0
  1  2  1  0  0  0  0
  1  5  2  0  0  0  0
  2  6  2  0  0  0  0
  3 10  2  0  0  0  0
  3 18  1  0  0  0  0
  4 11  1  0  0  0  0
  4 18  2  0  0  0  0
  5 20  1  0  0  0  0
  6 22  1  0  0  0  0
  7  9  2  0  0  0  0
  7 23  1  0  0  0  0
  8 12  2  0  0  0  0
  8 21  1  0  0  0  0
  9 26  1  0  0  0  0
 10 27  1  0  0  0  0
 11 27  2  0  0  0  0
 12 28  1  0  0  0  0
 13 14  2  0  0  0  0
 13 29  1  0  0  0  0
 14 30  1  0  0  0  0
 15 24  1  0  0  0  0
 15 28  2  0  0  0  0
 16 25  1  0  0  0  0
 16 26  2  0  0  0  0
 17 30  2  0  0  0  0
 17 31  1  0  0  0  0
 18 32  1  0  0  0  0
 19 32  1  0  0  0  0
 19 33  2  0  0  0  0
 19 36  1  0  0  0  0
 20 22  2  0  0  0  0
 20 42  1  0  0  0  0
 21 24  2  0  0  0  0
 21 43  1  0  0  0  0
 22 53  1  0  0  0  0
 23 25  2  0  0  0  0
 23 52  1  0  0  0  0
 24 44  1  0  0  0  0
 25 65  1  0  0  0  0
 26 75  1  0  0  0  0
 27 85  1  0  0  0  0
 28 86  1  0  0  0  0
 29 31  2  0  0  0  0
 29 85  1  0  0  0  0
 30 87  1  0  0  0  0
 31 88  1  0  0  0  0
 32 69  2  0  0  0  0
 33 70  1  0  0  0  0
 33 73  1  0  0  0  0
 34 35  2  0  0  0  0
 34 37  1  0  0  0  0
 34 52  1  0  0  0  0
 35 45  1  0  0  0  0
 35 64  1  0  0  0  0
 36 74  1  0  0  0  0
 36 79  2  0  0  0  0
 37 56  1  0  0  0  0
 37 80  2  0  0  0  0
 38 54  1  0  0  0  0
 38 76  1  0  0  0  0
 38 81  2  0  0  0  0
 39 66  1  0  0  0  0
 39 71  1  0  0  0  0
 39 82  2  0  0  0  0
 40 67  1  0  0  0  0
 40 77  1  0  0  0  0
 40 83  2  0  0  0  0
 41 72  1  0  0  0  0
 41 75  1  0  0  0  0
 41 84  2  0  0  0  0
 42 46  1  0  0  0  0
 43 54  1  0  0  0  0
 44 71  1  0  0  0  0
 45 52  1  0  0  0  0
 46 48  1  0  0  0  0
 47 49  1  0  0  0  0
 47 50  1  0  0  0  0
 48 53  1  0  0  0  0
 49 55  1  0  0  0  0
 50 72  1  0  0  0  0
 51 55  1  0  0  0  0
 51 72  1  0  0  0  0
 53 76  1  0  0  0  0
 54 71  1  0  0  0  0
 55 70  1  0  0  0  0
 57 65  1  0  0  0  0
 58 65  1  0  0  0  0
 59 67  1  0  0  0  0
 60 68  1  0  0  0  0
 61 68  1  0  0  0  0
 62 68  1  0  0  0  0
 63 78  1  0  0  0  0
 64 86  1  0  0  0  0
 66 68  1  0  0  0  0
 66 77  1  0  0  0  0
 67 78  1  0  0  0  0
 69 70  1  0  0  0  0
M  CHG  1  78   1
M  ISO  4  41 100  64 101  75 100  86 101
M  END
> <Batch ID>
0146

> <Smiles>
CNC(C)C(=O)NC(C(=O)N1Cc2cc([101O:1][101CH2:1]C3=C(C(C)=O)C(c4ccc([100NH:0][100C:0](=O)N5CCCC(n6nc(-c7ccc(Oc8ccc(F)cc8F)cc7)c(C(N)=O)c6N)C5)cc4C(C)C)C3)ccc2CC1C(=O)NC1CCCc2ccccc21)C(C)(C)C

> <Shape>
0.271

> <Color>
0.113

> <Negative vol penalty>
0.000

$$$$

  -OEChem-04052303103D

 85 93  0     1  0  0  0  0  0999 V2000
  -16.4485  -28.1432   22.6435 C   0  0  0  0  0  0  0  0  0  0  0  0
  -17.2788  -28.2319   21.5307 C   0  0  0  0  0  0  0  0  0  0  0  0
  -23.5380  -10.0760   22.1036 C   0  0  0  0  0  0  0  0  0  0  0  0
  -24.3619  -11.4412   23.9187 C   0  0  0  0  0  0  0  0  0  0  0  0
  -16.8237  -28.7492   23.8418 C   0  0  0  0  0  0  0  0  0  0  0  0
  -18.4843  -28.9276   21.6154 C   0  0  0  0  0  0  0  0  0  0  0  0
  -24.7554  -25.6619   20.2372 C   0  0  0  0  0  0  0  0  0  0  0  0
  -22.9711   -9.1945   23.0240 C   0  0  0  0  0  0  0  0  0  0  0  0
  -23.7949  -10.5597   24.8391 C   0  0  0  0  0  0  0  0  0  0  0  0
  -25.9772  -25.1636   19.7844 C   0  0  0  0  0  0  0  0  0  0  0  0
  -20.2108   -9.0626   24.9725 C   0  0  0  0  0  0  0  0  0  0  0  0
  -18.9085   -8.6243   24.7329 C   0  0  0  0  0  0  0  0  0  0  0  0
  -27.0580  -27.2436   20.3789 C   0  0  0  0  0  0  0  0  0  0  0  0
  -29.3843  -18.9337   19.2545 C   0  0  0  0  0  0  0  0  0  0  0  0
  -19.6922   -6.3404   24.6512 C   0  0  0  0  0  0  0  0  0  0  0  0
  -31.3138  -19.2791   18.1895 C   0  0  0  0  0  0  0  0  0  0  0  0
  -24.2335  -11.1993   22.5510 C   0  0  0  0  0  0  0  0  0  0  0  0
  -24.2147  -13.2426   21.0237 C   0  0  0  0  0  0  0  0  0  0  0  0
  -18.0389  -29.4445   23.9439 C   0  0  0  0  0  0  0  0  0  0  0  0
  -24.6831  -26.9489   20.7774 C   0  0  0  0  0  0  0  0  0  0  0  0
  -18.8754  -29.5447   22.8158 C   0  0  0  0  0  0  0  0  0  0  0  0
  -25.8393  -27.7435   20.8455 C   0  0  0  0  0  0  0  0  0  0  0  0
  -30.2087  -19.9324   18.6834 C   0  0  0  0  0  0  0  0  0  0  0  0
  -23.0995   -9.4363   24.3917 C   0  0  0  0  0  0  0  0  0  0  0  0
  -27.1256  -25.9526   19.8549 C   0  0  0  0  0  0  0  0  0  0  0  0
  -21.2539   -8.1398   25.0514 C   0  0  0  0  0  0  0  0  0  0  0  0
  -18.6492   -7.2632   24.5723 C   0  0  0  0  0  0  0  0  0  0  0  0
  -20.9946   -6.7787   24.8908 C   0  0  0  0  0  0  0  0  0  0  0  0
  -24.8198  -12.1100   21.6007 C   0  0  0  0  0  0  0  0  0  0  0  0
  -25.1792  -13.7628   20.1957 C   0  0  0  0  0  0  0  0  0  0  0  0
  -30.0443  -17.7413   19.0686 C   0  0  0  0  0  0  0  0  0  0  0  0
  -22.8985  -13.7767   21.2189 C   0  0  0  0  0  0  0  0  0  0  0  0
  -22.5381  -29.6055   22.3322 C   0  0  0  0  0  0  0  0  0  0  0  0
  -29.9884  -23.7364   19.7164 C   0  0  0  0  0  0  0  0  0  0  0  0
  -25.2053  -29.6138   23.8476 C   0  0  0  0  0  0  0  0  0  0  0  0
  -28.1139  -29.0169   25.5272 C   0  0  0  0  0  0  0  0  0  0  0  0
  -30.4482  -15.2578   19.1928 C   0  0  0  0  0  0  0  0  0  0  0  0
  -18.3795  -30.1234   25.2469 C   0  0  0  0  0  0  0  0  0  0  0  0
  -23.3767  -27.5492   21.2207 C   0  0  0  0  0  0  0  0  0  0  0  0
  -25.7074  -29.1347   21.4024 C   0  0  0  0  0  0  0  0  0  0  0  0
  -19.8484  -30.5235   25.3594 C   0  0  0  0  0  0  0  0  0  0  0  0
  -29.6077  -11.8362   18.6796 C   0  0  0  0  0  0  0  0  0  0  0  0
  -20.3138  -31.2115   24.0801 C   0  0  0  0  0  0  0  0  0  0  0  0
  -28.2373  -11.6956   19.3463 C   0  0  0  0  0  0  0  0  0  0  0  0
  -30.5195  -12.7875   19.4525 C   0  0  0  0  0  0  0  0  0  0  0  0
  -28.5748  -13.9698   20.3957 C   0  0  0  0  0  0  0  0  0  0  0  0
  -20.2025  -30.2695   22.8752 C   0  0  1  0  0  0  0  0  0  0  0  0
  -23.5219  -28.4776   22.4398 C   0  0  1  0  0  0  0  0  0  0  0  0
  -27.5989  -13.0719   19.6179 C   0  0  2  0  0  0  0  0  0  0  0  0
  -30.1447  -22.3936   22.4844 C   0  0  0  0  0  0  0  0  0  0  0  0
  -30.4079  -22.0220   17.2840 C   0  0  0  0  0  0  0  0  0  0  0  0
  -29.4595  -29.8255   27.4850 C   0  0  0  0  0  0  0  0  0  0  0  0
  -31.9568  -22.2081   20.0444 C   0  0  0  0  0  0  0  0  0  0  0  0
  -26.0922  -32.0430   22.2300 C   0  0  0  0  0  0  0  0  0  0  0  0
  -28.0592  -32.2576   23.7640 C   0  0  0  0  0  0  0  0  0  0  0  0
  -25.7449  -32.4824   24.6674 C   0  0  0  0  0  0  0  0  0  0  0  0
  -27.9472  -26.3878   26.8758 C   0  0  0  0  0  0  0  0  0  0  0  0
  -28.5109  -24.0485   19.5190 C   0  0  0  0  0  0  0  0  0  1  0  0
  -29.7692  -21.6784   21.1885 C   0  0  0  0  0  0  0  0  0  0  0  0
  -29.9302  -21.4337   18.6270 C   0  0  2  0  0  0  0  0  0  0  0  0
  -26.5878  -30.2026   23.9716 C   0  0  1  0  0  0  0  0  0  0  0  0
  -28.4049  -28.8397   27.0065 C   0  0  2  0  0  0  0  0  0  0  0  0
  -30.4182  -22.2505   19.8909 C   0  0  1  0  0  0  0  0  0  0  0  0
  -26.6164  -31.7222   23.6440 C   0  0  0  0  0  0  0  0  0  0  0  0
  -26.0717  -11.9211   21.1751 N   0  0  0  0  0  0  0  0  0  0  0  0
  -26.2611  -12.9420   20.3219 N   0  0  0  0  0  0  0  0  0  0  0  0
  -24.8385  -29.1204   22.5896 N   0  0  0  0  0  0  0  0  0  0  0  0
  -29.8500  -14.0719   19.6689 N   0  0  0  0  0  0  0  0  0  0  0  0
  -25.1989  -14.8377   19.3792 N   0  0  0  0  0  0  0  0  0  0  0  0
  -22.0350  -13.1184   22.1050 N   0  0  0  0  0  0  0  0  0  0  0  0
  -29.7042  -16.4135   19.4279 N   0  0  0  0  0  0  0  0  0  0  0  0
  -21.2973  -29.3230   22.8708 N   0  0  0  0  0  0  0  0  0  0  0  0
  -27.0533  -29.8719   25.3142 N   0  0  0  0  0  0  0  0  0  0  0  0
  -28.8958  -27.4587   27.2760 N   0  3  0  0  0  0  0  0  0  0  0  0
  -22.4944  -14.7978   20.6125 O   0  0  0  0  0  0  0  0  0  0  0  0
  -22.8789  -30.6559   21.8010 O   0  0  0  0  0  0  0  0  0  0  0  0
  -30.8189  -24.6493   19.7157 O   0  0  0  0  0  0  0  0  0  0  0  0
  -24.4665  -29.5958   24.8360 O   0  0  0  0  0  0  0  0  0  0  0  0
  -28.7648  -28.4561   24.6484 O   0  0  0  0  0  0  0  0  0  0  0  0
  -31.5272  -15.2455   18.5947 O   0  0  0  0  0  0  0  0  0  0  0  0
  -31.2213  -17.9432   18.4201 O   0  0  0  0  0  0  0  0  0  0  0  0
  -22.5462   -8.5765   25.2901 O   0  0  0  0  0  0  0  0  0  0  0  0
  -28.3160  -25.4583   19.4152 O   0  0  0  0  0  0  0  0  0  1  0  0
  -17.3983   -6.8423   24.3437 F   0  0  0  0  0  0  0  0  0  0  0  0
  -21.9923   -5.8874   24.9667 F   0  0  0  0  0  0  0  0  0  0  0  0
  1  2  1  0  0  0  0
  1  5  2  0  0  0  0
  2  6  2  0  0  0  0
  3  8  2  0  0  0  0
  3 17  1  0  0  0  0
  4  9  1  0  0  0  0
  4 17  2  0  0  0  0
  5 19  1  0  0  0  0
  6 21  1  0  0  0  0
  7 10  2  0  0  0  0
  7 20  1  0  0  0  0
  8 24  1  0  0  0  0
  9 24  2  0  0  0  0
 10 25  1  0  0  0  0
 11 12  2  0  0  0  0
 11 26  1  0  0  0  0
 12 27  1  0  0  0  0
 13 22  1  0  0  0  0
 13 25  2  0  0  0  0
 14 23  1  0  0  0  0
 14 31  2  0  0  0  0
 15 27  2  0  0  0  0
 15 28  1  0  0  0  0
 16 23  2  0  0  0  0
 16 81  1  0  0  0  0
 17 29  1  0  0  0  0
 18 29  1  0  0  0  0
 18 30  2  0  0  0  0
 18 32  1  0  0  0  0
 19 21  2  0  0  0  0
 19 38  1  0  0  0  0
 20 22  2  0  0  0  0
 20 39  1  0  0  0  0
 21 47  1  0  0  0  0
 22 40  1  0  0  0  0
 23 60  1  0  0  0  0
 24 82  1  0  0  0  0
 25 83  1  0  0  0  0
 26 28  2  0  0  0  0
 26 82  1  0  0  0  0
 27 84  1  0  0  0  0
 28 85  1  0  0  0  0
 29 65  2  0  0  0  0
 30 66  1  0  0  0  0
 30 69  1  0  0  0  0
 31 71  1  0  0  0  0
 31 81  1  0  0  0  0
 32 70  1  0  0  0  0
 32 75  2  0  0  0  0
 33 48  1  0  0  0  0
 33 72  1  0  0  0  0
 33 76  2  0  0  0  0
 34 58  1  0  0  0  0
 34 63  1  0  0  0  0
 34 77  2  0  0  0  0
 35 61  1  0  0  0  0
 35 67  1  0  0  0  0
 35 78  2  0  0  0  0
 36 62  1  0  0  0  0
 36 73  1  0  0  0  0
 36 79  2  0  0  0  0
 37 68  1  0  0  0  0
 37 71  1  0  0  0  0
 37 80  2  0  0  0  0
 38 41  1  0  0  0  0
 39 48  1  0  0  0  0
 40 67  1  0  0  0  0
 41 43  1  0  0  0  0
 42 44  1  0  0  0  0
 42 45  1  0  0  0  0
 43 47  1  0  0  0  0
 44 49  1  0  0  0  0
 45 68  1  0  0  0  0
 46 49  1  0  0  0  0
 46 68  1  0  0  0  0
 47 72  1  0  0  0  0
 48 67  1  0  0  0  0
 49 66  1  0  0  0  0
 50 59  1  0  0  0  0
 51 60  1  0  0  0  0
 52 62  1  0  0  0  0
 53 63  1  0  0  0  0
 54 64  1  0  0  0  0
 55 64  1  0  0  0  0
 56 64  1  0  0  0  0
 57 74  1  0  0  0  0
 58 83  1  0  0  0  0
 59 63  1  0  0  0  0
 60 63  1  0  0  0  0
 61 64  1  0  0  0  0
 61 73  1  0  0  0  0
 62 74  1  0  0  0  0
 65 66  1  0  0  0  0
M  CHG  1  74   1
M  ISO  4  37 100  58 101  71 100  83 101
M  END
> <Batch ID>
0146

> <Smiles>
CCC(C)(C(=O)[101CH2:1][101O:1]c1ccc2c(c1)CN(C(=O)C(NC(=O)C(C)NC)C(C)(C)C)C(C(=O)NC1CCCc3ccccc31)C2)C(C)c1coc([100NH:0][100C:0](=O)N2CCCC(n3nc(-c4ccc(Oc5ccc(F)cc5F)cc4)c(C(N)=O)c3N)C2)c1

> <Shape>
0.316

> <Color>
0.139

> <Negative vol penalty>
0.000

$$$$

  -OEChem-04052303103D

 85 94  0     1  0  0  0  0  0999 V2000
  -30.7281  -26.3960   17.0886 C   0  0  0  0  0  0  0  0  0  0  0  0
  -29.3411  -26.3184   17.1653 C   0  0  0  0  0  0  0  0  0  0  0  0
  -26.5524  -17.4552   20.3978 C   0  0  0  0  0  0  0  0  0  0  0  0
  -27.9889  -17.1751   18.4755 C   0  0  0  0  0  0  0  0  0  0  0  0
  -31.4619  -26.8431   18.1865 C   0  0  0  0  0  0  0  0  0  0  0  0
  -28.6874  -26.6869   18.3406 C   0  0  0  0  0  0  0  0  0  0  0  0
  -23.2134  -29.3917   18.8154 C   0  0  0  0  0  0  0  0  0  0  0  0
  -27.1695  -16.3685   21.0173 C   0  0  0  0  0  0  0  0  0  0  0  0
  -28.6060  -16.0883   19.0950 C   0  0  0  0  0  0  0  0  0  0  0  0
  -21.9393  -28.8907   19.0788 C   0  0  0  0  0  0  0  0  0  0  0  0
  -27.9374  -12.8183   19.6340 C   0  0  0  0  0  0  0  0  0  0  0  0
  -28.1555  -11.6734   18.8676 C   0  0  0  0  0  0  0  0  0  0  0  0
  -19.4164  -23.0994   19.3901 C   0  0  0  0  0  0  0  0  0  0  0  0
  -22.2114  -29.4420   21.4115 C   0  0  0  0  0  0  0  0  0  0  0  0
  -17.2026  -22.5833   20.2605 C   0  0  0  0  0  0  0  0  0  0  0  0
  -30.5327  -11.8692   19.2515 C   0  0  0  0  0  0  0  0  0  0  0  0
  -26.9621  -17.8585   19.1268 C   0  0  0  0  0  0  0  0  0  0  0  0
  -26.7016  -20.3344   18.5703 C   0  0  0  0  0  0  0  0  0  0  0  0
  -30.8161  -27.2264   19.3725 C   0  0  0  0  0  0  0  0  0  0  0  0
  -24.0017  -29.9125   19.8517 C   0  0  0  0  0  0  0  0  0  0  0  0
  -29.4134  -27.1383   19.4559 C   0  0  0  0  0  0  0  0  0  0  0  0
  -19.3801  -21.9028   18.6961 C   0  0  0  0  0  0  0  0  0  0  0  0
  -23.4941  -29.9513   21.1582 C   0  0  0  0  0  0  0  0  0  0  0  0
  -18.2743  -21.0509   18.7794 C   0  0  0  0  0  0  0  0  0  0  0  0
  -17.1777  -21.3765   19.5578 C   0  0  0  0  0  0  0  0  0  0  0  0
  -18.3135  -23.4387   20.1769 C   0  0  0  0  0  0  0  0  0  0  0  0
  -28.1963  -15.6851   20.3660 C   0  0  0  0  0  0  0  0  0  0  0  0
  -21.4392  -28.9131   20.3775 C   0  0  0  0  0  0  0  0  0  0  0  0
  -29.0170  -13.4887   20.2091 C   0  0  0  0  0  0  0  0  0  0  0  0
  -29.4531  -11.1988   18.6764 C   0  0  0  0  0  0  0  0  0  0  0  0
  -30.3147  -13.0141   20.0179 C   0  0  0  0  0  0  0  0  0  0  0  0
  -26.3247  -18.9807   18.4861 C   0  0  0  0  0  0  0  0  0  0  0  0
  -25.7858  -20.9951   17.7885 C   0  0  0  0  0  0  0  0  0  0  0  0
  -27.7831  -20.9404   19.2907 C   0  0  0  0  0  0  0  0  0  0  0  0
  -26.8090  -29.1519   21.1338 C   0  0  0  0  0  0  0  0  0  0  0  0
  -26.3476  -31.8921   22.8073 C   0  0  0  0  0  0  0  0  0  0  0  0
  -19.3212  -25.6175   20.9393 C   0  0  0  0  0  0  0  0  0  0  0  0
  -24.1554  -34.1932   24.0508 C   0  0  0  0  0  0  0  0  0  0  0  0
  -20.1739  -19.3462   16.1725 C   0  0  0  0  0  0  0  0  0  0  0  0
  -31.6552  -27.6584   20.5490 C   0  0  0  0  0  0  0  0  0  0  0  0
  -25.3635  -30.4736   19.5465 C   0  0  0  0  0  0  0  0  0  0  0  0
  -20.4290  -21.3078   17.8138 C   0  0  0  0  0  0  0  0  0  0  0  0
  -24.2924  -30.5184   22.3025 C   0  0  0  0  0  0  0  0  0  0  0  0
  -18.4891  -19.8397   17.9361 C   0  0  0  0  0  0  0  0  0  0  0  0
  -30.8597  -28.3855   21.6301 C   0  0  0  0  0  0  0  0  0  0  0  0
  -22.9415  -20.3563   13.9872 C   0  0  0  0  0  0  0  0  0  0  0  0
  -29.5700  -27.6328   21.9412 C   0  0  0  0  0  0  0  0  0  0  0  0
  -24.1612  -20.1938   14.8969 C   0  0  0  0  0  0  0  0  0  0  0  0
  -21.8281  -19.3718   14.3393 C   0  0  0  0  0  0  0  0  0  0  0  0
  -22.6485  -19.2098   16.6559 C   0  0  0  0  0  0  0  0  0  0  0  0
  -28.6662  -27.5526   20.7049 C   0  0  1  0  0  0  0  0  0  0  0  0
  -26.2816  -30.5095   20.7644 C   0  0  1  0  0  0  0  0  0  0  0  0
  -23.7584  -20.2338   16.3837 C   0  0  1  0  0  0  0  0  0  0  0  0
  -15.9968  -20.4750   19.6525 C   0  0  0  0  0  0  0  0  0  0  0  0
  -24.0723  -36.3015   25.4092 C   0  0  0  0  0  0  0  0  0  0  0  0
  -26.8068  -30.2691   25.3499 C   0  0  0  0  0  0  0  0  0  0  0  0
  -25.7937  -32.1525   26.6518 C   0  0  0  0  0  0  0  0  0  0  0  0
  -27.8848  -32.5258   25.3438 C   0  0  0  0  0  0  0  0  0  0  0  0
  -22.9675  -35.7249   21.8144 C   0  0  0  0  0  0  0  0  0  0  0  0
  -18.9160  -26.7759   21.8437 C   0  0  0  0  0  0  0  0  0  0  0  0
  -19.9745  -27.8648   21.9305 C   0  0  0  0  0  0  0  0  0  1  0  0
  -25.6905  -32.2456   24.1197 C   0  0  1  0  0  0  0  0  0  0  0  0
  -24.1572  -35.7107   24.0105 C   0  0  2  0  0  0  0  0  0  0  0  0
  -26.5294  -31.7857   25.3453 C   0  0  0  0  0  0  0  0  0  0  0  0
  -25.2527  -18.7911   17.7121 N   0  0  0  0  0  0  0  0  0  0  0  0
  -24.9483  -20.0344   17.3028 N   0  0  0  0  0  0  0  0  0  0  0  0
  -25.6209  -31.0492   21.9545 N   0  0  0  0  0  0  0  0  0  0  0  0
  -19.8015  -20.0684   17.3091 N   0  0  0  0  0  0  0  0  0  0  0  0
  -21.5081  -19.4385   15.7643 N   0  0  0  0  0  0  0  0  0  0  0  0
  -25.6231  -22.2983   17.4762 N   0  0  0  0  0  0  0  0  0  0  0  0
  -28.6293  -20.1155   20.0442 N   0  0  0  0  0  0  0  0  0  0  0  0
  -18.3156  -24.6386   20.8899 N   0  0  0  0  0  0  0  0  0  0  0  0
  -27.9856  -28.8122   20.4938 N   0  0  0  0  0  0  0  0  0  0  0  0
  -25.4355  -33.6813   24.0749 N   0  0  0  0  0  0  0  0  0  0  0  0
  -22.9975  -36.2093   23.2185 N   0  3  0  0  0  0  0  0  0  0  0  0
  -27.9829  -22.1788   19.2800 O   0  0  0  0  0  0  0  0  0  0  0  0
  -26.1948  -28.4642   21.9410 O   0  0  0  0  0  0  0  0  0  0  0  0
  -27.4614  -32.3530   22.5453 O   0  0  0  0  0  0  0  0  0  0  0  0
  -20.3986  -25.5924   20.3538 O   0  0  0  0  0  0  0  0  0  0  0  0
  -23.1217  -33.5285   24.0637 O   0  0  0  0  0  0  0  0  0  0  0  0
  -19.3453  -18.6964   15.5222 O   0  0  0  0  0  0  0  0  0  0  0  0
  -28.7988  -14.6247   20.9703 O   0  0  0  0  0  0  0  0  0  0  0  0
  -20.1873  -28.4207   20.6393 O   0  0  0  0  0  0  0  0  0  1  0  0
  -29.6622  -10.0985   17.9417 F   0  0  0  0  0  0  0  0  0  0  0  0
  -31.3557  -13.6532   20.5688 F   0  0  0  0  0  0  0  0  0  0  0  0
  1  2  1  0  0  0  0
  1  5  2  0  0  0  0
  2  6  2  0  0  0  0
  3  8  2  0  0  0  0
  3 17  1  0  0  0  0
  4  9  1  0  0  0  0
  4 17  2  0  0  0  0
  5 19  1  0  0  0  0
  6 21  1  0  0  0  0
  7 10  2  0  0  0  0
  7 20  1  0  0  0  0
  8 27  1  0  0  0  0
  9 27  2  0  0  0  0
 10 28  1  0  0  0  0
 11 12  2  0  0  0  0
 11 29  1  0  0  0  0
 12 30  1  0  0  0  0
 13 22  1  0  0  0  0
 13 26  2  0  0  0  0
 14 23  1  0  0  0  0
 14 28  2  0  0  0  0
 15 25  2  0  0  0  0
 15 26  1  0  0  0  0
 16 30  2  0  0  0  0
 16 31  1  0  0  0  0
 17 32  1  0  0  0  0
 18 32  1  0  0  0  0
 18 33  2  0  0  0  0
 18 34  1  0  0  0  0
 19 21  2  0  0  0  0
 19 40  1  0  0  0  0
 20 23  2  0  0  0  0
 20 41  1  0  0  0  0
 21 51  1  0  0  0  0
 22 24  2  0  0  0  0
 22 42  1  0  0  0  0
 23 43  1  0  0  0  0
 24 25  1  0  0  0  0
 24 44  1  0  0  0  0
 25 54  1  0  0  0  0
 26 72  1  0  0  0  0
 27 82  1  0  0  0  0
 28 83  1  0  0  0  0
 29 31  2  0  0  0  0
 29 82  1  0  0  0  0
 30 84  1  0  0  0  0
 31 85  1  0  0  0  0
 32 65  2  0  0  0  0
 33 66  1  0  0  0  0
 33 70  1  0  0  0  0
 34 71  1  0  0  0  0
 34 76  2  0  0  0  0
 35 52  1  0  0  0  0
 35 73  1  0  0  0  0
 35 77  2  0  0  0  0
 36 62  1  0  0  0  0
 36 67  1  0  0  0  0
 36 78  2  0  0  0  0
 37 60  1  0  0  0  0
 37 72  1  0  0  0  0
 37 79  2  0  0  0  0
 38 63  1  0  0  0  0
 38 74  1  0  0  0  0
 38 80  2  0  0  0  0
 39 68  1  0  0  0  0
 39 69  1  0  0  0  0
 39 81  2  0  0  0  0
 40 45  1  0  0  0  0
 41 52  1  0  0  0  0
 42 68  1  0  0  0  0
 43 67  1  0  0  0  0
 44 68  1  0  0  0  0
 45 47  1  0  0  0  0
 46 48  1  0  0  0  0
 46 49  1  0  0  0  0
 47 51  1  0  0  0  0
 48 53  1  0  0  0  0
 49 69  1  0  0  0  0
 50 53  1  0  0  0  0
 50 69  1  0  0  0  0
 51 73  1  0  0  0  0
 52 67  1  0  0  0  0
 53 66  1  0  0  0  0
 55 63  1  0  0  0  0
 56 64  1  0  0  0  0
 57 64  1  0  0  0  0
 58 64  1  0  0  0  0
 59 75  1  0  0  0  0
 60 61  1  0  0  0  0
 61 83  1  0  0  0  0
 62 64  1  0  0  0  0
 62 74  1  0  0  0  0
 63 75  1  0  0  0  0
 65 66  1  0  0  0  0
M  CHG  1  75   1
M  ISO  4  39 100  61 101  68 100  83 101
M  END
> <Batch ID>
0146

> <Smiles>
CNC(C)C(=O)NC(C(=O)N1Cc2cc([101O:1][101CH2:1]CC(=O)Nc3cc(C)c4c(c3)C[100N:0]([100C:0](=O)N3CCCC(n5nc(-c6ccc(Oc7ccc(F)cc7F)cc6)c(C(N)=O)c5N)C3)C4)ccc2CC1C(=O)NC1CCCc2ccccc21)C(C)(C)C

> <Shape>
0.277

> <Color>
0.072

> <Negative vol penalty>
0.000

$$$$

  -OEChem-04052303103D

 82 91  0     1  0  0  0  0  0999 V2000
  -19.3773  -24.1004   23.1539 C   0  0  0  0  0  0  0  0  0  0  0  0
  -20.5405  -24.2980   22.4168 C   0  0  0  0  0  0  0  0  0  0  0  0
  -26.1938  -13.0144   21.4477 C   0  0  0  0  0  0  0  0  0  0  0  0
  -26.1239  -13.5490   19.0926 C   0  0  0  0  0  0  0  0  0  0  0  0
  -18.5757  -25.1892   23.4942 C   0  0  0  0  0  0  0  0  0  0  0  0
  -20.9023  -25.5845   22.0187 C   0  0  0  0  0  0  0  0  0  0  0  0
  -25.8187  -26.5395   22.7677 C   0  0  0  0  0  0  0  0  0  0  0  0
  -25.0146  -12.2810   21.3163 C   0  0  0  0  0  0  0  0  0  0  0  0
  -24.9447  -12.8155   18.9612 C   0  0  0  0  0  0  0  0  0  0  0  0
  -26.7184  -26.0086   21.8444 C   0  0  0  0  0  0  0  0  0  0  0  0
  -24.0917   -9.2289   20.1913 C   0  0  0  0  0  0  0  0  0  0  0  0
  -24.0356   -7.9766   20.8031 C   0  0  0  0  0  0  0  0  0  0  0  0
  -27.7176  -22.9689   15.4693 C   0  0  0  0  0  0  0  0  0  0  0  0
  -28.2381  -22.6966   17.8127 C   0  0  0  0  0  0  0  0  0  0  0  0
  -26.8485  -28.1530   20.7472 C   0  0  0  0  0  0  0  0  0  0  0  0
  -28.4543  -20.8238   16.3017 C   0  0  0  0  0  0  0  0  0  0  0  0
  -22.1618   -8.7132   22.1386 C   0  0  0  0  0  0  0  0  0  0  0  0
  -26.7484  -13.6484   20.3359 C   0  0  0  0  0  0  0  0  0  0  0  0
  -29.2835  -13.9325   20.3242 C   0  0  0  0  0  0  0  0  0  0  0  0
  -18.9328  -26.4909   23.1083 C   0  0  0  0  0  0  0  0  0  0  0  0
  -25.4181  -27.8806   22.6810 C   0  0  0  0  0  0  0  0  0  0  0  0
  -20.1040  -26.6916   22.3530 C   0  0  0  0  0  0  0  0  0  0  0  0
  -27.8190  -23.5024   16.7541 C   0  0  0  0  0  0  0  0  0  0  0  0
  -25.9456  -28.6992   21.6722 C   0  0  0  0  0  0  0  0  0  0  0  0
  -28.0352  -21.6296   15.2431 C   0  0  0  0  0  0  0  0  0  0  0  0
  -28.5557  -21.3573   17.5866 C   0  0  0  0  0  0  0  0  0  0  0  0
  -24.3901  -12.1816   20.0730 C   0  0  0  0  0  0  0  0  0  0  0  0
  -27.2312  -26.8146   20.8322 C   0  0  0  0  0  0  0  0  0  0  0  0
  -23.1830  -10.2233   20.5532 C   0  0  0  0  0  0  0  0  0  0  0  0
  -23.0706   -7.7187   21.7767 C   0  0  0  0  0  0  0  0  0  0  0  0
  -22.2180   -9.9655   21.5268 C   0  0  0  0  0  0  0  0  0  0  0  0
  -27.9662  -14.4066   20.4712 C   0  0  0  0  0  0  0  0  0  0  0  0
  -30.0721  -15.0342   20.5500 C   0  0  0  0  0  0  0  0  0  0  0  0
  -29.7525  -12.6142   20.0115 C   0  0  0  0  0  0  0  0  0  0  0  0
  -22.6473  -29.3687   22.2210 C   0  0  0  0  0  0  0  0  0  0  0  0
  -24.4221  -32.0221   22.7971 C   0  0  0  0  0  0  0  0  0  0  0  0
  -27.4951  -33.5065   22.8065 C   0  0  0  0  0  0  0  0  0  0  0  0
  -29.1327  -20.9093   19.9975 C   0  0  0  0  0  0  0  0  0  0  0  0
  -18.0099  -27.6310   23.4591 C   0  0  0  0  0  0  0  0  0  0  0  0
  -24.4675  -28.4452   23.7008 C   0  0  0  0  0  0  0  0  0  0  0  0
  -25.5631  -30.1506   21.5477 C   0  0  0  0  0  0  0  0  0  0  0  0
  -18.6595  -29.0054   23.3197 C   0  0  0  0  0  0  0  0  0  0  0  0
  -30.1177  -19.1786   22.9491 C   0  0  0  0  0  0  0  0  0  0  0  0
  -19.4125  -29.1084   21.9971 C   0  0  0  0  0  0  0  0  0  0  0  0
  -29.8033  -17.7146   22.6329 C   0  0  0  0  0  0  0  0  0  0  0  0
  -28.1695  -25.9985   16.1786 C   0  0  0  0  0  0  0  0  0  0  0  0
  -29.0752  -20.1238   22.3544 C   0  0  0  0  0  0  0  0  0  0  0  0
  -28.5141  -18.4868   20.6010 C   0  0  0  0  0  0  0  0  0  0  0  0
  -27.4821  -24.9260   16.9956 C   0  0  2  0  0  0  0  0  0  0  0  0
  -20.5429  -28.0748   21.9239 C   0  0  1  0  0  0  0  0  0  0  0  0
  -23.7331  -29.6886   23.2091 C   0  0  1  0  0  0  0  0  0  0  0  0
  -28.5168  -25.8332   17.6282 C   0  0  2  0  0  0  0  0  0  0  0  0
  -29.5716  -17.5011   21.1242 C   0  0  2  0  0  0  0  0  0  0  0  0
  -27.9245  -21.0587   13.8698 C   0  0  0  0  0  0  0  0  0  0  0  0
  -28.6242  -35.6947   23.2903 C   0  0  0  0  0  0  0  0  0  0  0  0
  -23.3746  -33.1430   20.1596 C   0  0  0  0  0  0  0  0  0  0  0  0
  -25.2149  -34.8392   20.2300 C   0  0  0  0  0  0  0  0  0  0  0  0
  -23.4857  -34.8022   22.0275 C   0  0  0  0  0  0  0  0  0  0  0  0
  -29.1562  -32.3094   24.9434 C   0  0  0  0  0  0  0  0  0  0  0  0
  -28.1014  -26.8650   18.6195 C   0  0  0  0  0  0  0  0  0  1  0  0
  -25.2296  -32.9735   21.9475 C   0  0  1  0  0  0  0  0  0  0  0  0
  -28.2052  -34.3456   23.8534 C   0  0  2  0  0  0  0  0  0  0  0  0
  -24.3321  -33.9117   21.0921 C   0  0  0  0  0  0  0  0  0  0  0  0
  -27.9166  -15.7081   20.7675 N   0  0  0  0  0  0  0  0  0  0  0  0
  -29.2127  -16.0611   20.8087 N   0  0  0  0  0  0  0  0  0  0  0  0
  -24.6256  -30.6544   22.5650 N   0  0  0  0  0  0  0  0  0  0  0  0
  -28.9121  -19.8664   20.9219 N   0  0  0  0  0  0  0  0  0  0  0  0
  -31.4099  -15.2149   20.5506 N   0  0  0  0  0  0  0  0  0  0  0  0
  -28.8073  -11.5991   19.8100 N   0  0  0  0  0  0  0  0  0  0  0  0
  -28.9798  -20.5380   18.6621 N   0  0  0  0  0  0  0  0  0  0  0  0
  -21.6786  -28.5117   22.7074 N   0  0  0  0  0  0  0  0  0  0  0  0
  -26.1274  -33.6737   22.8596 N   0  0  0  0  0  0  0  0  0  0  0  0
  -29.4241  -33.6412   24.3422 N   0  3  0  0  0  0  0  0  0  0  0  0
  -30.9740  -12.3406   19.9300 O   0  0  0  0  0  0  0  0  0  0  0  0
  -22.6848  -29.8640   21.1007 O   0  0  0  0  0  0  0  0  0  0  0  0
  -23.6448  -32.4757   23.6408 O   0  0  0  0  0  0  0  0  0  0  0  0
  -28.0940  -32.7786   22.0178 O   0  0  0  0  0  0  0  0  0  0  0  0
  -29.4616  -22.0410   20.3623 O   0  0  0  0  0  0  0  0  0  0  0  0
  -23.2396  -11.4658   19.9443 O   0  0  0  0  0  0  0  0  0  0  0  0
  -28.1090  -26.2987   19.9293 O   0  0  0  0  0  0  0  0  0  1  0  0
  -23.0158   -6.5157   22.3630 F   0  0  0  0  0  0  0  0  0  0  0  0
  -21.3416  -10.9165   21.8778 F   0  0  0  0  0  0  0  0  0  0  0  0
  1  2  1  0  0  0  0
  1  5  2  0  0  0  0
  2  6  2  0  0  0  0
  3  8  2  0  0  0  0
  3 18  1  0  0  0  0
  4  9  1  0  0  0  0
  4 18  2  0  0  0  0
  5 20  1  0  0  0  0
  6 22  1  0  0  0  0
  7 10  2  0  0  0  0
  7 21  1  0  0  0  0
  8 27  1  0  0  0  0
  9 27  2  0  0  0  0
 10 28  1  0  0  0  0
 11 12  2  0  0  0  0
 11 29  1  0  0  0  0
 12 30  1  0  0  0  0
 13 23  1  0  0  0  0
 13 25  2  0  0  0  0
 14 23  2  0  0  0  0
 14 26  1  0  0  0  0
 15 24  1  0  0  0  0
 15 28  2  0  0  0  0
 16 25  1  0  0  0  0
 16 26  2  0  0  0  0
 17 30  2  0  0  0  0
 17 31  1  0  0  0  0
 18 32  1  0  0  0  0
 19 32  1  0  0  0  0
 19 33  2  0  0  0  0
 19 34  1  0  0  0  0
 20 22  2  0  0  0  0
 20 39  1  0  0  0  0
 21 24  2  0  0  0  0
 21 40  1  0  0  0  0
 22 50  1  0  0  0  0
 23 49  1  0  0  0  0
 24 41  1  0  0  0  0
 25 54  1  0  0  0  0
 26 70  1  0  0  0  0
 27 79  1  0  0  0  0
 28 80  1  0  0  0  0
 29 31  2  0  0  0  0
 29 79  1  0  0  0  0
 30 81  1  0  0  0  0
 31 82  1  0  0  0  0
 32 64  2  0  0  0  0
 33 65  1  0  0  0  0
 33 68  1  0  0  0  0
 34 69  1  0  0  0  0
 34 74  2  0  0  0  0
 35 51  1  0  0  0  0
 35 71  1  0  0  0  0
 35 75  2  0  0  0  0
 36 61  1  0  0  0  0
 36 66  1  0  0  0  0
 36 76  2  0  0  0  0
 37 62  1  0  0  0  0
 37 72  1  0  0  0  0
 37 77  2  0  0  0  0
 38 67  1  0  0  0  0
 38 70  1  0  0  0  0
 38 78  2  0  0  0  0
 39 42  1  0  0  0  0
 40 51  1  0  0  0  0
 41 66  1  0  0  0  0
 42 44  1  0  0  0  0
 43 45  1  0  0  0  0
 43 47  1  0  0  0  0
 44 50  1  0  0  0  0
 45 53  1  0  0  0  0
 46 49  1  0  0  0  0
 46 52  1  0  0  0  0
 47 67  1  0  0  0  0
 48 53  1  0  0  0  0
 48 67  1  0  0  0  0
 49 52  1  0  0  0  0
 50 71  1  0  0  0  0
 51 66  1  0  0  0  0
 52 60  1  0  0  0  0
 53 65  1  0  0  0  0
 55 62  1  0  0  0  0
 56 63  1  0  0  0  0
 57 63  1  0  0  0  0
 58 63  1  0  0  0  0
 59 73  1  0  0  0  0
 60 80  1  0  0  0  0
 61 63  1  0  0  0  0
 61 72  1  0  0  0  0
 62 73  1  0  0  0  0
 64 65  1  0  0  0  0
M  CHG  1  73   1
M  ISO  4  38 100  60 101  70 100  80 101
M  END
> <Batch ID>
0146

> <Smiles>
CNC(C)C(=O)NC(C(=O)N1Cc2cc([101O:1][101CH2:1]C3CC3c3cc(C)cc([100NH:0][100C:0](=O)N4CCCC(n5nc(-c6ccc(Oc7ccc(F)cc7F)cc6)c(C(N)=O)c5N)C4)c3)ccc2CC1C(=O)NC1CCCc2ccccc21)C(C)(C)C

> <Shape>
0.302

> <Color>
0.111

> <Negative vol penalty>
0.000

$$$$

  -OEChem-04052303103D

 87 96  0     1  0  0  0  0  0999 V2000
  -16.1649  -23.5375   25.5780 C   0  0  0  0  0  0  0  0  0  0  0  0
  -17.4590  -23.2954   26.0277 C   0  0  0  0  0  0  0  0  0  0  0  0
  -23.2442   -9.8231   19.8101 C   0  0  0  0  0  0  0  0  0  0  0  0
  -24.2220   -9.5600   22.0037 C   0  0  0  0  0  0  0  0  0  0  0  0
  -15.9578  -24.0574   24.3010 C   0  0  0  0  0  0  0  0  0  0  0  0
  -18.5467  -23.5722   25.2003 C   0  0  0  0  0  0  0  0  0  0  0  0
  -24.0605  -25.6049   26.9242 C   0  0  0  0  0  0  0  0  0  0  0  0
  -30.8112  -19.5269   21.1801 C   0  0  0  0  0  0  0  0  0  0  0  0
  -30.7451  -18.1490   20.9738 C   0  0  0  0  0  0  0  0  0  0  0  0
  -22.6155   -8.5850   19.9418 C   0  0  0  0  0  0  0  0  0  0  0  0
  -23.5932   -8.3219   22.1355 C   0  0  0  0  0  0  0  0  0  0  0  0
  -25.2737  -24.9540   27.1436 C   0  0  0  0  0  0  0  0  0  0  0  0
  -20.5071   -7.1644   22.8814 C   0  0  0  0  0  0  0  0  0  0  0  0
  -19.8732   -6.8868   24.0924 C   0  0  0  0  0  0  0  0  0  0  0  0
  -25.9705  -25.5104   24.9021 C   0  0  0  0  0  0  0  0  0  0  0  0
  -29.2860  -17.9325   22.8873 C   0  0  0  0  0  0  0  0  0  0  0  0
  -21.3201   -4.9786   24.4124 C   0  0  0  0  0  0  0  0  0  0  0  0
  -24.0476  -10.3106   20.8410 C   0  0  0  0  0  0  0  0  0  0  0  0
  -24.1889  -12.8461   21.0831 C   0  0  0  0  0  0  0  0  0  0  0  0
  -17.0439  -24.3498   23.4611 C   0  0  0  0  0  0  0  0  0  0  0  0
  -23.7883  -26.2051   25.6864 C   0  0  0  0  0  0  0  0  0  0  0  0
  -18.3538  -24.0953   23.9103 C   0  0  0  0  0  0  0  0  0  0  0  0
  -24.7541  -26.1706   24.6705 C   0  0  0  0  0  0  0  0  0  0  0  0
  -30.1147  -20.1076   22.2400 C   0  0  0  0  0  0  0  0  0  0  0  0
  -29.3522  -19.3104   23.0936 C   0  0  0  0  0  0  0  0  0  0  0  0
  -29.9825  -17.3518   21.8274 C   0  0  0  0  0  0  0  0  0  0  0  0
  -22.7899   -7.8344   21.1045 C   0  0  0  0  0  0  0  0  0  0  0  0
  -26.2278  -24.9041   26.1315 C   0  0  0  0  0  0  0  0  0  0  0  0
  -21.5474   -6.3490   22.4357 C   0  0  0  0  0  0  0  0  0  0  0  0
  -20.2797   -5.7940   24.8580 C   0  0  0  0  0  0  0  0  0  0  0  0
  -21.9540   -5.2562   23.2013 C   0  0  0  0  0  0  0  0  0  0  0  0
  -24.6979  -11.5892   20.7053 C   0  0  0  0  0  0  0  0  0  0  0  0
  -25.1820  -13.7337   20.7478 C   0  0  0  0  0  0  0  0  0  0  0  0
  -28.2192  -21.1844   26.0109 C   0  0  0  0  0  0  0  0  0  0  0  0
  -22.9308  -13.1815   21.6836 C   0  0  0  0  0  0  0  0  0  0  0  0
  -28.4712  -22.1856   26.8617 C   0  0  0  0  0  0  0  0  0  0  0  0
  -21.6099  -25.7696   23.4130 C   0  0  0  0  0  0  0  0  0  0  0  0
  -22.9787  -28.4192   22.1368 C   0  0  0  0  0  0  0  0  0  0  0  0
  -25.7241  -30.4320   21.8961 C   0  0  0  0  0  0  0  0  0  0  0  0
  -30.5470  -15.2175   20.6139 C   0  0  0  0  0  0  0  0  0  0  0  0
  -16.7683  -24.8664   22.0712 C   0  0  0  0  0  0  0  0  0  0  0  0
  -22.4856  -26.9265   25.4747 C   0  0  0  0  0  0  0  0  0  0  0  0
  -24.5190  -26.8168   23.3305 C   0  0  0  0  0  0  0  0  0  0  0  0
  -26.8913  -20.9078   25.3810 C   0  0  0  0  0  0  0  0  0  0  0  0
  -17.9911  -25.4835   21.3971 C   0  0  0  0  0  0  0  0  0  0  0  0
  -29.3876  -13.0891   18.0057 C   0  0  0  0  0  0  0  0  0  0  0  0
  -19.2082  -24.5803   21.5693 C   0  0  0  0  0  0  0  0  0  0  0  0
  -28.0223  -12.6126   18.5066 C   0  0  0  0  0  0  0  0  0  0  0  0
  -27.2751  -20.3446   24.0164 C   0  0  0  0  0  0  0  0  0  0  0  0
  -30.3964  -13.2184   19.1456 C   0  0  0  0  0  0  0  0  0  0  0  0
  -28.5853  -13.5623   20.7799 C   0  0  0  0  0  0  0  0  0  0  0  0
  -19.5605  -24.4058   23.0515 C   0  0  1  0  0  0  0  0  0  0  0  0
  -29.2503  -20.2446   25.4405 C   0  0  1  0  0  0  0  0  0  0  0  0
  -22.1082  -27.0588   24.0025 C   0  0  1  0  0  0  0  0  0  0  0  0
  -27.5175  -13.4791   19.6770 C   0  0  2  0  0  0  0  0  0  0  0  0
  -30.2030  -21.5860   22.4375 C   0  0  0  0  0  0  0  0  0  0  0  0
  -29.8373  -22.3923   27.4497 C   0  0  0  0  0  0  0  0  0  0  0  0
  -29.4145  -19.0210   26.3406 C   0  0  0  0  0  0  0  0  0  0  0  0
  -26.5543  -32.5021   20.7459 C   0  0  0  0  0  0  0  0  0  0  0  0
  -23.3368  -26.8369   19.5526 C   0  0  0  0  0  0  0  0  0  0  0  0
  -24.9742  -28.5740   18.7978 C   0  0  0  0  0  0  0  0  0  0  0  0
  -22.6002  -29.2052   19.2321 C   0  0  0  0  0  0  0  0  0  0  0  0
  -26.1409  -31.8344   24.4687 C   0  0  0  0  0  0  0  0  0  0  0  0
  -27.4074  -23.1713   27.2547 C   0  0  0  0  0  0  0  0  0  1  0  0
  -24.1197  -28.6793   21.1831 C   0  0  1  0  0  0  0  0  0  0  0  0
  -25.8791  -31.9394   21.9870 C   0  0  2  0  0  0  0  0  0  0  0  0
  -23.7617  -28.3099   19.7159 C   0  0  0  0  0  0  0  0  0  0  0  0
  -25.9194  -11.6671   20.1706 N   0  0  0  0  0  0  0  0  0  0  0  0
  -26.1862  -12.9836   20.2101 N   0  0  0  0  0  0  0  0  0  0  0  0
  -28.6555  -19.8706   24.1510 N   0  0  3  0  0  0  0  0  0  0  0  0
  -23.2273  -27.5046   23.1700 N   0  0  0  0  0  0  0  0  0  0  0  0
  -29.8513  -14.0563   20.2160 N   0  0  0  0  0  0  0  0  0  0  0  0
  -25.2855  -15.0747   20.8633 N   0  0  0  0  0  0  0  0  0  0  0  0
  -22.0265  -12.1475   21.9618 N   0  0  0  0  0  0  0  0  0  0  0  0
  -29.9163  -15.9520   21.6175 N   0  0  0  0  0  0  0  0  0  0  0  0
  -20.2482  -25.5780   23.5489 N   0  0  0  0  0  0  0  0  0  0  0  0
  -24.4996  -30.0751   21.3722 N   0  0  0  0  0  0  0  0  0  0  0  0
  -26.7005  -32.3049   23.1755 N   0  3  0  0  0  0  0  0  0  0  0  0
  -22.6112  -14.3648   21.9500 O   0  0  0  0  0  0  0  0  0  0  0  0
  -22.4020  -25.0060   22.8734 O   0  0  0  0  0  0  0  0  0  0  0  0
  -21.9086  -29.0112   21.9752 O   0  0  0  0  0  0  0  0  0  0  0  0
  -26.6030  -29.6494   22.2506 O   0  0  0  0  0  0  0  0  0  0  0  0
  -31.6095  -15.5514   20.0832 O   0  0  0  0  0  0  0  0  0  0  0  0
  -22.1763   -6.6264   21.2335 O   0  0  0  0  0  0  0  0  0  0  0  0
  -27.4125  -24.2688   26.3427 O   0  0  0  0  0  0  0  0  0  1  0  0
  -19.6719   -5.5285   26.0217 F   0  0  0  0  0  0  0  0  0  0  0  0
  -22.9537   -4.4700   22.7789 F   0  0  0  0  0  0  0  0  0  0  0  0
  1  2  1  0  0  0  0
  1  5  2  0  0  0  0
  2  6  2  0  0  0  0
  3 10  2  0  0  0  0
  3 18  1  0  0  0  0
  4 11  1  0  0  0  0
  4 18  2  0  0  0  0
  5 20  1  0  0  0  0
  6 22  1  0  0  0  0
  7 12  2  0  0  0  0
  7 21  1  0  0  0  0
  8  9  2  0  0  0  0
  8 24  1  0  0  0  0
  9 26  1  0  0  0  0
 10 27  1  0  0  0  0
 11 27  2  0  0  0  0
 12 28  1  0  0  0  0
 13 14  2  0  0  0  0
 13 29  1  0  0  0  0
 14 30  1  0  0  0  0
 15 23  1  0  0  0  0
 15 28  2  0  0  0  0
 16 25  1  0  0  0  0
 16 26  2  0  0  0  0
 17 30  2  0  0  0  0
 17 31  1  0  0  0  0
 18 32  1  0  0  0  0
 19 32  1  0  0  0  0
 19 33  2  0  0  0  0
 19 35  1  0  0  0  0
 20 22  2  0  0  0  0
 20 41  1  0  0  0  0
 21 23  2  0  0  0  0
 21 42  1  0  0  0  0
 22 52  1  0  0  0  0
 23 43  1  0  0  0  0
 24 25  2  0  0  0  0
 24 56  1  0  0  0  0
 25 70  1  0  0  0  0
 26 75  1  0  0  0  0
 27 84  1  0  0  0  0
 28 85  1  0  0  0  0
 29 31  2  0  0  0  0
 29 84  1  0  0  0  0
 30 86  1  0  0  0  0
 31 87  1  0  0  0  0
 32 68  2  0  0  0  0
 33 69  1  0  0  0  0
 33 73  1  0  0  0  0
 34 36  2  0  0  0  0
 34 44  1  0  0  0  0
 34 53  1  0  0  0  0
 35 74  1  0  0  0  0
 35 79  2  0  0  0  0
 36 57  1  0  0  0  0
 36 64  1  0  0  0  0
 37 54  1  0  0  0  0
 37 76  1  0  0  0  0
 37 80  2  0  0  0  0
 38 65  1  0  0  0  0
 38 71  1  0  0  0  0
 38 81  2  0  0  0  0
 39 66  1  0  0  0  0
 39 77  1  0  0  0  0
 39 82  2  0  0  0  0
 40 72  1  0  0  0  0
 40 75  1  0  0  0  0
 40 83  2  0  0  0  0
 41 45  1  0  0  0  0
 42 54  1  0  0  0  0
 43 71  1  0  0  0  0
 44 49  1  0  0  0  0
 45 47  1  0  0  0  0
 46 48  1  0  0  0  0
 46 50  1  0  0  0  0
 47 52  1  0  0  0  0
 48 55  1  0  0  0  0
 49 70  1  0  0  0  0
 50 72  1  0  0  0  0
 51 55  1  0  0  0  0
 51 72  1  0  0  0  0
 52 76  1  0  0  0  0
 53 58  1  0  0  0  0
 53 70  1  0  0  0  0
 54 71  1  0  0  0  0
 55 69  1  0  0  0  0
 59 66  1  0  0  0  0
 60 67  1  0  0  0  0
 61 67  1  0  0  0  0
 62 67  1  0  0  0  0
 63 78  1  0  0  0  0
 64 85  1  0  0  0  0
 65 67  1  0  0  0  0
 65 77  1  0  0  0  0
 66 78  1  0  0  0  0
 68 69  1  0  0  0  0
M  CHG  1  78   1
M  ISO  4  40 100  64 101  75 100  85 101
M  END
> <Batch ID>
0146

> <Smiles>
CNC(C)C(=O)NC(C(=O)N1Cc2cc([101O:1][101CH2:1]C(C)=C3CCN(c4cc([100NH:0][100C:0](=O)N5CCCC(n6nc(-c7ccc(Oc8ccc(F)cc8F)cc7)c(C(N)=O)c6N)C5)ccc4C)C3C)ccc2CC1C(=O)NC1CCCc2ccccc21)C(C)(C)C

> <Shape>
0.278

> <Color>
0.148

> <Negative vol penalty>
0.000

$$$$

  -OEChem-04052303103D

 88 97  0     1  0  0  0  0  0999 V2000
  -29.2724  -34.9665   21.3811 C   0  0  0  0  0  0  0  0  0  0  0  0
  -30.0040  -33.9043   21.9026 C   0  0  0  0  0  0  0  0  0  0  0  0
  -23.0837   -9.8349   19.9439 C   0  0  0  0  0  0  0  0  0  0  0  0
  -23.8342   -9.8597   22.2402 C   0  0  0  0  0  0  0  0  0  0  0  0
  -30.4129  -18.3709   24.0252 C   0  0  0  0  0  0  0  0  0  0  0  0
  -28.1841  -34.7183   20.5457 C   0  0  0  0  0  0  0  0  0  0  0  0
  -29.6468  -32.5931   21.5900 C   0  0  0  0  0  0  0  0  0  0  0  0
  -33.4222  -27.8325   20.8229 C   0  0  0  0  0  0  0  0  0  0  0  0
  -29.8342  -17.4789   23.1225 C   0  0  0  0  0  0  0  0  0  0  0  0
  -22.3447   -8.6795   20.1978 C   0  0  0  0  0  0  0  0  0  0  0  0
  -23.0952   -8.7042   22.4942 C   0  0  0  0  0  0  0  0  0  0  0  0
  -33.8075  -26.7948   21.6706 C   0  0  0  0  0  0  0  0  0  0  0  0
  -19.8688   -7.8934   23.0886 C   0  0  0  0  0  0  0  0  0  0  0  0
  -19.1074   -7.8566   24.2566 C   0  0  0  0  0  0  0  0  0  0  0  0
  -32.1164  -25.3779   20.6948 C   0  0  0  0  0  0  0  0  0  0  0  0
  -32.0253  -16.6380   22.5487 C   0  0  0  0  0  0  0  0  0  0  0  0
  -20.3557   -5.9301   25.0098 C   0  0  0  0  0  0  0  0  0  0  0  0
  -23.8285  -10.4250   20.9650 C   0  0  0  0  0  0  0  0  0  0  0  0
  -31.7979  -18.3965   24.1897 C   0  0  0  0  0  0  0  0  0  0  0  0
  -24.1578  -12.9511   20.8311 C   0  0  0  0  0  0  0  0  0  0  0  0
  -27.8193  -33.4037   20.2149 C   0  0  0  0  0  0  0  0  0  0  0  0
  -32.3721  -27.6538   19.9108 C   0  0  0  0  0  0  0  0  0  0  0  0
  -28.5517  -32.3271   20.7505 C   0  0  0  0  0  0  0  0  0  0  0  0
  -31.7215  -26.4141   19.8349 C   0  0  0  0  0  0  0  0  0  0  0  0
  -32.6040  -17.5301   23.4514 C   0  0  0  0  0  0  0  0  0  0  0  0
  -30.6403  -16.6124   22.3843 C   0  0  0  0  0  0  0  0  0  0  0  0
  -22.3505   -8.1141   21.4730 C   0  0  0  0  0  0  0  0  0  0  0  0
  -33.1526  -25.5682   21.6087 C   0  0  0  0  0  0  0  0  0  0  0  0
  -20.8737   -6.9485   22.8810 C   0  0  0  0  0  0  0  0  0  0  0  0
  -19.3508   -6.8750   25.2173 C   0  0  0  0  0  0  0  0  0  0  0  0
  -21.1172   -5.9669   23.8417 C   0  0  0  0  0  0  0  0  0  0  0  0
  -24.5924  -11.6183   20.7032 C   0  0  0  0  0  0  0  0  0  0  0  0
  -25.2475  -13.7040   20.4677 C   0  0  0  0  0  0  0  0  0  0  0  0
  -32.3888  -19.3463   25.1493 C   0  0  0  0  0  0  0  0  0  0  0  0
  -22.8830  -13.4629   21.2418 C   0  0  0  0  0  0  0  0  0  0  0  0
  -29.5240  -28.9971   19.4781 C   0  0  0  0  0  0  0  0  0  0  0  0
  -29.4864  -27.1415   16.8177 C   0  0  0  0  0  0  0  0  0  0  0  0
  -30.6333  -24.3580   15.2104 C   0  0  0  0  0  0  0  0  0  0  0  0
  -30.7075  -14.7789   20.6580 C   0  0  0  0  0  0  0  0  0  0  0  0
  -26.6063  -33.1837   19.3461 C   0  0  0  0  0  0  0  0  0  0  0  0
  -31.9863  -28.7746   18.9848 C   0  0  0  0  0  0  0  0  0  0  0  0
  -30.6015  -26.1647   18.8592 C   0  0  0  0  0  0  0  0  0  0  0  0
  -26.5225  -31.7757   18.7623 C   0  0  0  0  0  0  0  0  0  0  0  0
  -29.6151  -12.3451   18.2999 C   0  0  0  0  0  0  0  0  0  0  0  0
  -26.7970  -30.7332   19.8415 C   0  0  0  0  0  0  0  0  0  0  0  0
  -28.1753  -12.0486   18.7255 C   0  0  0  0  0  0  0  0  0  0  0  0
  -33.2762  -22.8278   24.7622 C   0  0  0  0  0  0  0  0  0  0  0  0
  -30.5242  -12.5858   19.5038 C   0  0  0  0  0  0  0  0  0  0  0  0
  -33.3287  -21.5682   25.6205 C   0  0  0  0  0  0  0  0  0  0  0  0
  -28.6080  -13.3088   20.8730 C   0  0  0  0  0  0  0  0  0  0  0  0
  -32.5611  -21.0187   23.3504 C   0  0  0  0  0  0  0  0  0  0  0  0
  -28.2106  -30.8915   20.4146 C   0  0  1  0  0  0  0  0  0  0  0  0
  -30.5630  -28.6456   18.4512 C   0  0  1  0  0  0  0  0  0  0  0  0
  -27.6408  -13.1234   19.6924 C   0  0  2  0  0  0  0  0  0  0  0  0
  -33.3890  -22.3163   23.3135 C   0  0  2  0  0  0  0  0  0  0  0  0
  -34.8514  -22.0162   22.9476 C   0  0  0  0  0  0  0  0  0  0  0  0
  -34.5850  -16.3659   24.4550 C   0  0  0  0  0  0  0  0  0  0  0  0
  -30.3925  -23.0844   13.0616 C   0  0  0  0  0  0  0  0  0  0  0  0
  -26.7983  -26.0534   17.7666 C   0  0  0  0  0  0  0  0  0  0  0  0
  -27.0693  -24.1648   16.1455 C   0  0  0  0  0  0  0  0  0  0  0  0
  -26.9303  -26.5117   15.3116 C   0  0  0  0  0  0  0  0  0  0  0  0
  -33.4930  -24.7207   14.5400 C   0  0  0  0  0  0  0  0  0  0  0  0
  -34.0890  -17.5368   23.6120 C   0  0  0  0  0  0  0  0  0  0  0  0
  -32.8122  -23.3239   22.3181 C   0  0  0  0  0  0  0  0  0  1  0  0
  -29.0252  -25.7400   16.4982 C   0  0  1  0  0  0  0  0  0  0  0  0
  -31.1732  -24.1564   13.8060 C   0  0  2  0  0  0  0  0  0  0  0  0
  -27.4756  -25.6225   16.4503 C   0  0  0  0  0  0  0  0  0  0  0  0
  -25.8595  -11.5264   20.2906 N   0  0  0  0  0  0  0  0  0  0  0  0
  -26.2303  -12.8111   20.1560 N   0  0  0  0  0  0  0  0  0  0  0  0
  -32.7332  -20.5534   24.7390 N   0  0  0  0  0  0  0  0  0  0  0  0
  -30.2566  -27.2936   17.9793 N   0  0  0  0  0  0  0  0  0  0  0  0
  -29.9564  -13.6191   20.3727 N   0  0  0  0  0  0  0  0  0  0  0  0
  -25.4514  -15.0361   20.3874 N   0  0  0  0  0  0  0  0  0  0  0  0
  -21.8744  -12.5505   21.5805 N   0  0  0  0  0  0  0  0  0  0  0  0
  -30.0521  -15.7055   21.4682 N   0  0  0  0  0  0  0  0  0  0  0  0
  -29.1899  -30.3377   19.5043 N   0  0  0  0  0  0  0  0  0  0  0  0
  -29.6916  -25.3642   15.2560 N   0  0  0  0  0  0  0  0  0  0  0  0
  -32.5643  -18.9735   26.4137 N   0  3  0  0  0  0  0  0  0  0  0  0
  -32.6050  -23.7461   13.8554 N   0  3  0  0  0  0  0  0  0  0  0  0
  -22.6402  -14.6926   21.2907 O   0  0  0  0  0  0  0  0  0  0  0  0
  -29.0587  -28.1170   20.1926 O   0  0  0  0  0  0  0  0  0  0  0  0
  -29.1806  -28.0661   16.0605 O   0  0  0  0  0  0  0  0  0  0  0  0
  -31.0066  -23.6872   16.1702 O   0  0  0  0  0  0  0  0  0  0  0  0
  -31.8376  -14.9506   20.1939 O   0  0  0  0  0  0  0  0  0  0  0  0
  -21.6293   -6.9868   21.7212 O   0  0  0  0  0  0  0  0  0  0  0  0
  -33.5263  -24.5539   22.4354 O   0  0  0  0  0  0  0  0  0  1  0  0
  -18.6205   -6.8408   26.3396 F   0  0  0  0  0  0  0  0  0  0  0  0
  -22.0820   -5.0571   23.6485 F   0  0  0  0  0  0  0  0  0  0  0  0
  1  2  1  0  0  0  0
  1  6  2  0  0  0  0
  2  7  2  0  0  0  0
  3 10  2  0  0  0  0
  3 18  1  0  0  0  0
  4 11  1  0  0  0  0
  4 18  2  0  0  0  0
  5  9  2  0  0  0  0
  5 19  1  0  0  0  0
  6 21  1  0  0  0  0
  7 23  1  0  0  0  0
  8 12  2  0  0  0  0
  8 22  1  0  0  0  0
  9 26  1  0  0  0  0
 10 27  1  0  0  0  0
 11 27  2  0  0  0  0
 12 28  1  0  0  0  0
 13 14  2  0  0  0  0
 13 29  1  0  0  0  0
 14 30  1  0  0  0  0
 15 24  1  0  0  0  0
 15 28  2  0  0  0  0
 16 25  1  0  0  0  0
 16 26  2  0  0  0  0
 17 30  2  0  0  0  0
 17 31  1  0  0  0  0
 18 32  1  0  0  0  0
 19 25  2  0  0  0  0
 19 34  1  0  0  0  0
 20 32  1  0  0  0  0
 20 33  2  0  0  0  0
 20 35  1  0  0  0  0
 21 23  2  0  0  0  0
 21 40  1  0  0  0  0
 22 24  2  0  0  0  0
 22 41  1  0  0  0  0
 23 52  1  0  0  0  0
 24 42  1  0  0  0  0
 25 63  1  0  0  0  0
 26 75  1  0  0  0  0
 27 85  1  0  0  0  0
 28 86  1  0  0  0  0
 29 31  2  0  0  0  0
 29 85  1  0  0  0  0
 30 87  1  0  0  0  0
 31 88  1  0  0  0  0
 32 68  2  0  0  0  0
 33 69  1  0  0  0  0
 33 73  1  0  0  0  0
 34 70  1  0  0  0  0
 34 78  2  0  0  0  0
 35 74  1  0  0  0  0
 35 80  2  0  0  0  0
 36 53  1  0  0  0  0
 36 76  1  0  0  0  0
 36 81  2  0  0  0  0
 37 65  1  0  0  0  0
 37 71  1  0  0  0  0
 37 82  2  0  0  0  0
 38 66  1  0  0  0  0
 38 77  1  0  0  0  0
 38 83  2  0  0  0  0
 39 72  1  0  0  0  0
 39 75  1  0  0  0  0
 39 84  2  0  0  0  0
 40 43  1  0  0  0  0
 41 53  1  0  0  0  0
 42 71  1  0  0  0  0
 43 45  1  0  0  0  0
 44 46  1  0  0  0  0
 44 48  1  0  0  0  0
 45 52  1  0  0  0  0
 46 54  1  0  0  0  0
 47 49  1  0  0  0  0
 47 55  1  0  0  0  0
 48 72  1  0  0  0  0
 49 70  1  0  0  0  0
 50 54  1  0  0  0  0
 50 72  1  0  0  0  0
 51 55  1  0  0  0  0
 51 70  1  0  0  0  0
 52 76  1  0  0  0  0
 53 71  1  0  0  0  0
 54 69  1  0  0  0  0
 55 56  1  0  0  0  0
 55 64  1  0  0  0  0
 57 63  1  0  0  0  0
 58 66  1  0  0  0  0
 59 67  1  0  0  0  0
 60 67  1  0  0  0  0
 61 67  1  0  0  0  0
 62 79  1  0  0  0  0
 64 86  1  0  0  0  0
 65 67  1  0  0  0  0
 65 77  1  0  0  0  0
 66 79  1  0  0  0  0
 68 69  1  0  0  0  0
M  CHG  2  78   1  79   1
M  ISO  4  39 100  64 101  75 100  86 101
M  END
> <Batch ID>
0146

> <Smiles>
CCc1cc([100NH:0][100C:0](=O)N2CCCC(n3nc(-c4ccc(Oc5ccc(F)cc5F)cc4)c(C(N)=O)c3N)C2)ccc1C(=N)N1CCC(C)([101CH2:1][101O:1]c2ccc3c(c2)CN(C(=O)C(NC(=O)C(C)NC)C(C)(C)C)C(C(=O)NC2CCCc4ccccc42)C3)C1

> <Shape>
0.210

> <Color>
0.186

> <Negative vol penalty>
0.000

$$$$

  -OEChem-04052303103D

 88 97  0     1  0  0  0  0  0999 V2000
  -26.5507  -37.1216   22.5362 C   0  0  0  0  0  0  0  0  0  0  0  0
  -27.1487  -35.9835   22.0049 C   0  0  0  0  0  0  0  0  0  0  0  0
  -23.7420   -9.7595   20.1534 C   0  0  0  0  0  0  0  0  0  0  0  0
  -22.8358  -11.3702   21.7095 C   0  0  0  0  0  0  0  0  0  0  0  0
  -25.6121  -37.0011   23.5602 C   0  0  0  0  0  0  0  0  0  0  0  0
  -26.8094  -34.7241   22.4981 C   0  0  0  0  0  0  0  0  0  0  0  0
  -26.4506  -29.5004   19.3216 C   0  0  0  0  0  0  0  0  0  0  0  0
  -22.7305   -8.8614   20.4940 C   0  0  0  0  0  0  0  0  0  0  0  0
  -21.8243  -10.4721   22.0501 C   0  0  0  0  0  0  0  0  0  0  0  0
  -27.3384  -28.4376   19.1608 C   0  0  0  0  0  0  0  0  0  0  0  0
  -19.4614   -8.3983   19.7652 C   0  0  0  0  0  0  0  0  0  0  0  0
  -18.8131   -7.7282   18.7278 C   0  0  0  0  0  0  0  0  0  0  0  0
  -26.2065  -27.2341   20.9185 C   0  0  0  0  0  0  0  0  0  0  0  0
  -31.0207  -18.8247   21.9050 C   0  0  0  0  0  0  0  0  0  0  0  0
  -19.5257   -5.6117   19.6495 C   0  0  0  0  0  0  0  0  0  0  0  0
  -23.7947  -11.0139   20.7613 C   0  0  0  0  0  0  0  0  0  0  0  0
  -24.8086  -12.9107   19.3896 C   0  0  0  0  0  0  0  0  0  0  0  0
  -25.2540  -35.7390   24.0596 C   0  0  0  0  0  0  0  0  0  0  0  0
  -25.4391  -29.4425   20.2911 C   0  0  0  0  0  0  0  0  0  0  0  0
  -25.8662  -34.5867   23.5307 C   0  0  0  0  0  0  0  0  0  0  0  0
  -25.3056  -28.2965   21.0879 C   0  0  0  0  0  0  0  0  0  0  0  0
  -31.0106  -20.1918   21.5038 C   0  0  0  0  0  0  0  0  0  0  0  0
  -21.7716   -9.2177   21.4422 C   0  0  0  0  0  0  0  0  0  0  0  0
  -27.2183  -27.3053   19.9613 C   0  0  0  0  0  0  0  0  0  0  0  0
  -20.1419   -7.6751   20.7448 C   0  0  0  0  0  0  0  0  0  0  0  0
  -18.8453   -6.3349   18.6699 C   0  0  0  0  0  0  0  0  0  0  0  0
  -20.1741   -6.2818   20.6869 C   0  0  0  0  0  0  0  0  0  0  0  0
  -24.8396  -11.9418   20.4103 C   0  0  0  0  0  0  0  0  0  0  0  0
  -26.0332  -13.5282   19.4649 C   0  0  0  0  0  0  0  0  0  0  0  0
  -29.8184  -20.5491   20.9135 C   0  0  0  0  0  0  0  0  0  0  0  0
  -29.8355  -18.1891   21.6063 C   0  0  0  0  0  0  0  0  0  0  0  0
  -23.7660  -13.2247   18.4568 C   0  0  0  0  0  0  0  0  0  0  0  0
  -24.7162  -31.1356   22.8824 C   0  0  0  0  0  0  0  0  0  0  0  0
  -22.0759  -29.2512   22.9007 C   0  0  0  0  0  0  0  0  0  0  0  0
  -20.6072  -26.3128   21.9757 C   0  0  0  0  0  0  0  0  0  0  0  0
  -30.1560  -15.8261   22.4187 C   0  0  0  0  0  0  0  0  0  0  0  0
  -24.2695  -35.6620   25.1995 C   0  0  0  0  0  0  0  0  0  0  0  0
  -24.4729  -30.5863   20.4339 C   0  0  0  0  0  0  0  0  0  0  0  0
  -24.2242  -28.1763   22.1294 C   0  0  0  0  0  0  0  0  0  0  0  0
  -23.6882  -34.2661   25.4092 C   0  0  0  0  0  0  0  0  0  0  0  0
  -30.1954  -12.2837   22.0628 C   0  0  0  0  0  0  0  0  0  0  0  0
  -24.7953  -33.2172   25.3810 C   0  0  0  0  0  0  0  0  0  0  0  0
  -28.8030  -11.9586   21.5172 C   0  0  0  0  0  0  0  0  0  0  0  0
  -30.1555  -13.4289   23.0731 C   0  0  0  0  0  0  0  0  0  0  0  0
  -28.8366  -22.8365   21.2066 C   0  0  0  0  0  0  0  0  0  0  0  0
  -28.0990  -14.3254   22.0553 C   0  0  0  0  0  0  0  0  0  0  0  0
  -29.7492  -22.2254   19.0450 C   0  0  0  0  0  0  0  0  0  0  0  0
  -25.5060  -33.2015   24.0222 C   0  0  1  0  0  0  0  0  0  0  0  0
  -23.8003  -30.6331   21.8024 C   0  0  1  0  0  0  0  0  0  0  0  0
  -28.9517  -24.0876   20.3232 C   0  0  1  0  0  0  0  0  0  0  0  0
  -28.0972  -13.2214   20.9853 C   0  0  2  0  0  0  0  0  0  0  0  0
  -28.9181  -23.5201   18.8842 C   0  0  0  0  0  0  0  0  0  0  0  0
  -27.4988  -23.1795   18.3934 C   0  0  0  0  0  0  0  0  0  0  0  0
  -29.5758  -24.4743   17.8816 C   0  0  0  0  0  0  0  0  0  0  0  0
  -18.4523  -25.0413   22.1685 C   0  0  0  0  0  0  0  0  0  0  0  0
  -33.5198  -20.3378   21.6723 C   0  0  0  0  0  0  0  0  0  0  0  0
  -32.0752  -21.8376   23.0865 C   0  0  0  0  0  0  0  0  0  0  0  0
  -32.3111  -22.2533   20.6466 C   0  0  0  0  0  0  0  0  0  0  0  0
  -22.7575  -28.5389   25.7883 C   0  0  0  0  0  0  0  0  0  0  0  0
  -21.1824  -26.6011   25.6088 C   0  0  0  0  0  0  0  0  0  0  0  0
  -20.3255  -28.9302   25.3566 C   0  0  0  0  0  0  0  0  0  0  0  0
  -20.2239  -26.2890   19.0411 C   0  0  0  0  0  0  0  0  0  0  0  0
  -27.9029  -25.1379   20.6607 C   0  0  0  0  0  0  0  0  0  1  0  0
  -21.7199  -27.9156   23.5078 C   0  0  1  0  0  0  0  0  0  0  0  0
  -19.2649  -26.0167   21.3313 C   0  0  2  0  0  0  0  0  0  0  0  0
  -32.1600  -21.1077   21.7068 C   0  0  0  0  0  0  0  0  0  0  0  0
  -21.5180  -27.9992   25.0472 C   0  0  0  0  0  0  0  0  0  0  0  0
  -25.9927  -11.9398   21.0845 N   0  0  0  0  0  0  0  0  0  0  0  0
  -26.6975  -12.9151   20.4862 N   0  0  0  0  0  0  0  0  0  0  0  0
  -29.4795  -21.7899   20.4158 N   0  0  3  0  0  0  0  0  0  0  0  0
  -23.3079  -29.3237   22.2352 N   0  0  0  0  0  0  0  0  0  0  0  0
  -29.4764  -14.5922   22.4983 N   0  0  0  0  0  0  0  0  0  0  0  0
  -26.5958  -14.5302   18.7564 N   0  0  0  0  0  0  0  0  0  0  0  0
  -22.5722  -12.4930   18.5179 N   0  0  0  0  0  0  0  0  0  0  0  0
  -29.4216  -16.8515   21.8239 N   0  0  0  0  0  0  0  0  0  0  0  0
  -24.7013  -32.5084   23.0390 N   0  0  0  0  0  0  0  0  0  0  0  0
  -20.5527  -27.4333   22.7774 N   0  0  0  0  0  0  0  0  0  0  0  0
  -19.4596  -25.4252   19.9774 N   0  3  0  0  0  0  0  0  0  0  0  0
  -23.8956  -14.1163   17.5840 O   0  0  0  0  0  0  0  0  0  0  0  0
  -25.3856  -30.3368   23.5269 O   0  0  0  0  0  0  0  0  0  0  0  0
  -21.2868  -30.1933   23.0068 O   0  0  0  0  0  0  0  0  0  0  0  0
  -21.6033  -25.6174   21.7896 O   0  0  0  0  0  0  0  0  0  0  0  0
  -31.3147  -15.9560   22.8219 O   0  0  0  0  0  0  0  0  0  0  0  0
  -20.7843   -8.3417   21.7746 O   0  0  0  0  0  0  0  0  0  0  0  0
  -28.0839  -26.2668   19.8068 O   0  0  0  0  0  0  0  0  0  1  0  0
  -18.2214   -5.6915   17.6744 F   0  0  0  0  0  0  0  0  0  0  0  0
  -20.8252   -5.5815   21.6258 F   0  0  0  0  0  0  0  0  0  0  0  0
  -28.7175  -19.2392   20.8449 S   0  0  0  0  0  0  0  0  0  0  0  0
  1  2  1  0  0  0  0
  1  5  2  0  0  0  0
  2  6  2  0  0  0  0
  3  8  2  0  0  0  0
  3 16  1  0  0  0  0
  4  9  1  0  0  0  0
  4 16  2  0  0  0  0
  5 18  1  0  0  0  0
  6 20  1  0  0  0  0
  7 10  2  0  0  0  0
  7 19  1  0  0  0  0
  8 23  1  0  0  0  0
  9 23  2  0  0  0  0
 10 24  1  0  0  0  0
 11 12  2  0  0  0  0
 11 25  1  0  0  0  0
 12 26  1  0  0  0  0
 13 21  1  0  0  0  0
 13 24  2  0  0  0  0
 14 22  1  0  0  0  0
 14 31  2  0  0  0  0
 15 26  2  0  0  0  0
 15 27  1  0  0  0  0
 16 28  1  0  0  0  0
 17 28  1  0  0  0  0
 17 29  2  0  0  0  0
 17 32  1  0  0  0  0
 18 20  2  0  0  0  0
 18 37  1  0  0  0  0
 19 21  2  0  0  0  0
 19 38  1  0  0  0  0
 20 48  1  0  0  0  0
 21 39  1  0  0  0  0
 22 30  2  0  0  0  0
 22 66  1  0  0  0  0
 23 84  1  0  0  0  0
 24 85  1  0  0  0  0
 25 27  2  0  0  0  0
 25 84  1  0  0  0  0
 26 86  1  0  0  0  0
 27 87  1  0  0  0  0
 28 68  2  0  0  0  0
 29 69  1  0  0  0  0
 29 73  1  0  0  0  0
 30 70  1  0  0  0  0
 30 88  1  0  0  0  0
 31 75  1  0  0  0  0
 31 88  1  0  0  0  0
 32 74  1  0  0  0  0
 32 79  2  0  0  0  0
 33 49  1  0  0  0  0
 33 76  1  0  0  0  0
 33 80  2  0  0  0  0
 34 64  1  0  0  0  0
 34 71  1  0  0  0  0
 34 81  2  0  0  0  0
 35 65  1  0  0  0  0
 35 77  1  0  0  0  0
 35 82  2  0  0  0  0
 36 72  1  0  0  0  0
 36 75  1  0  0  0  0
 36 83  2  0  0  0  0
 37 40  1  0  0  0  0
 38 49  1  0  0  0  0
 39 71  1  0  0  0  0
 40 42  1  0  0  0  0
 41 43  1  0  0  0  0
 41 44  1  0  0  0  0
 42 48  1  0  0  0  0
 43 51  1  0  0  0  0
 44 72  1  0  0  0  0
 45 50  1  0  0  0  0
 45 70  1  0  0  0  0
 46 51  1  0  0  0  0
 46 72  1  0  0  0  0
 47 52  1  0  0  0  0
 47 70  1  0  0  0  0
 48 76  1  0  0  0  0
 49 71  1  0  0  0  0
 50 52  1  0  0  0  0
 50 63  1  0  0  0  0
 51 69  1  0  0  0  0
 52 53  1  0  0  0  0
 52 54  1  0  0  0  0
 55 65  1  0  0  0  0
 56 66  1  0  0  0  0
 57 66  1  0  0  0  0
 58 66  1  0  0  0  0
 59 67  1  0  0  0  0
 60 67  1  0  0  0  0
 61 67  1  0  0  0  0
 62 78  1  0  0  0  0
 63 85  1  0  0  0  0
 64 67  1  0  0  0  0
 64 77  1  0  0  0  0
 65 78  1  0  0  0  0
 68 69  1  0  0  0  0
M  CHG  1  78   1
M  ISO  4  36 100  63 101  75 100  85 101
M  END
> <Batch ID>
0146

> <Smiles>
CNC(C)C(=O)NC(C(=O)N1Cc2cc([101O:1][101CH2:1]C3CN(c4sc([100NH:0][100C:0](=O)N5CCCC(n6nc(-c7ccc(Oc8ccc(F)cc8F)cc7)c(C(N)=O)c6N)C5)cc4C(C)(C)C)CC3(C)C)ccc2CC1C(=O)NC1CCCc2ccccc21)C(C)(C)C

> <Shape>
0.333

> <Color>
0.075

> <Negative vol penalty>
0.000

$$$$

  -OEChem-04052303103D

 85 94  0     1  0  0  0  0  0999 V2000
  -21.7810  -34.5368   18.0831 C   0  0  0  0  0  0  0  0  0  0  0  0
  -22.2739  -33.4324   17.3957 C   0  0  0  0  0  0  0  0  0  0  0  0
  -23.2456   -9.7092   20.9620 C   0  0  0  0  0  0  0  0  0  0  0  0
  -23.8787  -10.4770   23.1635 C   0  0  0  0  0  0  0  0  0  0  0  0
  -29.2774  -19.7854   20.5634 C   0  0  0  0  0  0  0  0  0  0  0  0
  -31.0091  -19.1529   19.0020 C   0  0  0  0  0  0  0  0  0  0  0  0
  -22.3457  -34.9061   19.3032 C   0  0  0  0  0  0  0  0  0  0  0  0
  -23.3328  -32.6972   17.9275 C   0  0  0  0  0  0  0  0  0  0  0  0
  -25.8764  -26.0084   18.2546 C   0  0  0  0  0  0  0  0  0  0  0  0
  -29.1737  -18.4600   20.9853 C   0  0  0  0  0  0  0  0  0  0  0  0
  -30.9055  -17.8274   19.4240 C   0  0  0  0  0  0  0  0  0  0  0  0
  -22.5429   -8.6487   21.5339 C   0  0  0  0  0  0  0  0  0  0  0  0
  -23.1760   -9.4165   23.7355 C   0  0  0  0  0  0  0  0  0  0  0  0
  -27.0471  -25.2887   18.0200 C   0  0  0  0  0  0  0  0  0  0  0  0
  -19.5598   -8.1674   23.0513 C   0  0  0  0  0  0  0  0  0  0  0  0
  -18.2847   -7.8932   22.5570 C   0  0  0  0  0  0  0  0  0  0  0  0
  -27.8919  -25.9725   20.1736 C   0  0  0  0  0  0  0  0  0  0  0  0
  -19.0038   -5.6723   21.9343 C   0  0  0  0  0  0  0  0  0  0  0  0
  -23.9135  -10.6234   21.7768 C   0  0  0  0  0  0  0  0  0  0  0  0
  -30.1951  -20.1319   19.5717 C   0  0  0  0  0  0  0  0  0  0  0  0
  -24.1453  -13.0010   20.8820 C   0  0  0  0  0  0  0  0  0  0  0  0
  -23.4056  -34.1694   19.8549 C   0  0  0  0  0  0  0  0  0  0  0  0
  -25.7088  -26.7258   19.4478 C   0  0  0  0  0  0  0  0  0  0  0  0
  -23.9131  -33.0578   19.1554 C   0  0  0  0  0  0  0  0  0  0  0  0
  -26.7170  -26.6985   20.4220 C   0  0  0  0  0  0  0  0  0  0  0  0
  -29.9877  -17.4810   20.4157 C   0  0  0  0  0  0  0  0  0  0  0  0
  -22.5080   -8.5023   22.9206 C   0  0  0  0  0  0  0  0  0  0  0  0
  -28.0563  -25.2730   18.9783 C   0  0  0  0  0  0  0  0  0  0  0  0
  -20.5570   -7.1942   22.9871 C   0  0  0  0  0  0  0  0  0  0  0  0
  -18.0066   -6.6456   21.9985 C   0  0  0  0  0  0  0  0  0  0  0  0
  -20.2789   -5.9466   22.4286 C   0  0  0  0  0  0  0  0  0  0  0  0
  -24.6401  -11.7188   21.1866 C   0  0  0  0  0  0  0  0  0  0  0  0
  -25.2201  -13.6645   20.3424 C   0  0  0  0  0  0  0  0  0  0  0  0
  -30.3047  -21.5323   19.1256 C   0  0  0  0  0  0  0  0  0  0  0  0
  -22.8316  -13.5438   21.0700 C   0  0  0  0  0  0  0  0  0  0  0  0
  -25.2995  -29.7908   20.1839 C   0  0  0  0  0  0  0  0  0  0  0  0
  -24.8815  -28.6134   23.1774 C   0  0  0  0  0  0  0  0  0  0  0  0
  -25.4619  -26.0965   25.4080 C   0  0  0  0  0  0  0  0  0  0  0  0
  -30.6150  -15.0414   20.3827 C   0  0  0  0  0  0  0  0  0  0  0  0
  -24.0148  -34.6351   21.1536 C   0  0  0  0  0  0  0  0  0  0  0  0
  -24.4289  -27.4754   19.6970 C   0  0  0  0  0  0  0  0  0  0  0  0
  -26.5778  -27.4355   21.7281 C   0  0  0  0  0  0  0  0  0  0  0  0
  -24.8873  -33.5806   21.8298 C   0  0  0  0  0  0  0  0  0  0  0  0
  -29.7426  -11.9466   18.8535 C   0  0  0  0  0  0  0  0  0  0  0  0
  -32.6081  -23.2254   21.3483 C   0  0  0  0  0  0  0  0  0  0  0  0
  -25.8291  -32.9374   20.8169 C   0  0  0  0  0  0  0  0  0  0  0  0
  -28.2967  -11.7169   19.2991 C   0  0  0  0  0  0  0  0  0  0  0  0
  -32.6683  -24.0899   20.0933 C   0  0  0  0  0  0  0  0  0  0  0  0
  -32.0054  -21.9153   20.8568 C   0  0  0  0  0  0  0  0  0  0  0  0
  -30.5797  -12.5937   19.9555 C   0  0  0  0  0  0  0  0  0  0  0  0
  -28.5694  -13.5959   20.9671 C   0  0  0  0  0  0  0  0  0  0  0  0
  -25.0442  -32.2203   19.7117 C   0  0  1  0  0  0  0  0  0  0  0  0
  -24.5799  -28.5894   20.7284 C   0  0  1  0  0  0  0  0  0  0  0  0
  -27.6709  -13.0054   19.8681 C   0  0  2  0  0  0  0  0  0  0  0  0
  -31.3777  -23.7496   19.3419 C   0  0  2  0  0  0  0  0  0  0  0  0
  -25.0264  -25.4354   27.7893 C   0  0  0  0  0  0  0  0  0  0  0  0
  -27.0345  -30.5640   24.1102 C   0  0  0  0  0  0  0  0  0  0  0  0
  -27.2281  -29.2322   26.2213 C   0  0  0  0  0  0  0  0  0  0  0  0
  -25.0758  -30.3571   25.6513 C   0  0  0  0  0  0  0  0  0  0  0  0
  -23.9507  -23.6886   24.5850 C   0  0  0  0  0  0  0  0  0  0  0  0
  -30.1929  -24.5993   19.7766 C   0  0  0  0  0  0  0  0  0  1  0  0
  -25.7904  -28.3139   24.3450 C   0  0  1  0  0  0  0  0  0  0  0  0
  -24.5342  -25.3540   26.3527 C   0  0  2  0  0  0  0  0  0  0  0  0
  -26.2859  -29.6044   25.0566 C   0  0  0  0  0  0  0  0  0  0  0  0
  -25.9289  -11.5740   20.8670 N   0  0  0  0  0  0  0  0  0  0  0  0
  -26.2529  -12.7739   20.3558 N   0  0  0  0  0  0  0  0  0  0  0  0
  -31.1511  -22.3437   19.7357 N   0  0  0  0  0  0  0  0  0  0  0  0
  -25.3104  -28.1590   21.9223 N   0  0  0  0  0  0  0  0  0  0  0  0
  -29.9273  -13.8108   20.4429 N   0  0  0  0  0  0  0  0  0  0  0  0
  -25.3729  -14.9170   19.8625 N   0  0  0  0  0  0  0  0  0  0  0  0
  -21.8456  -12.7256   21.6381 N   0  0  0  0  0  0  0  0  0  0  0  0
  -29.8825  -16.1345   20.8442 N   0  0  0  0  0  0  0  0  0  0  0  0
  -24.5454  -30.9487   20.1897 N   0  0  0  0  0  0  0  0  0  0  0  0
  -25.0545  -27.3990   25.2110 N   0  0  0  0  0  0  0  0  0  0  0  0
  -29.5516  -21.9571   18.1153 N   0  3  0  0  0  0  0  0  0  0  0  0
  -24.4443  -23.9172   25.9674 N   0  3  0  0  0  0  0  0  0  0  0  0
  -22.5365  -14.7143   20.7288 O   0  0  0  0  0  0  0  0  0  0  0  0
  -26.4539  -29.6761   19.7891 O   0  0  0  0  0  0  0  0  0  0  0  0
  -23.8264  -29.2217   23.3730 O   0  0  0  0  0  0  0  0  0  0  0  0
  -26.4512  -25.5745   24.8989 O   0  0  0  0  0  0  0  0  0  0  0  0
  -31.7589  -15.1239   19.9281 O   0  0  0  0  0  0  0  0  0  0  0  0
  -21.8222   -7.4677   23.4790 O   0  0  0  0  0  0  0  0  0  0  0  0
  -29.2003  -24.5718   18.7516 O   0  0  0  0  0  0  0  0  0  1  0  0
  -16.7816   -6.3818   21.5252 F   0  0  0  0  0  0  0  0  0  0  0  0
  -21.2325   -5.0072   22.3652 F   0  0  0  0  0  0  0  0  0  0  0  0
  1  2  1  0  0  0  0
  1  7  2  0  0  0  0
  2  8  2  0  0  0  0
  3 12  2  0  0  0  0
  3 19  1  0  0  0  0
  4 13  1  0  0  0  0
  4 19  2  0  0  0  0
  5 10  2  0  0  0  0
  5 20  1  0  0  0  0
  6 11  1  0  0  0  0
  6 20  2  0  0  0  0
  7 22  1  0  0  0  0
  8 24  1  0  0  0  0
  9 14  2  0  0  0  0
  9 23  1  0  0  0  0
 10 26  1  0  0  0  0
 11 26  2  0  0  0  0
 12 27  1  0  0  0  0
 13 27  2  0  0  0  0
 14 28  1  0  0  0  0
 15 16  2  0  0  0  0
 15 29  1  0  0  0  0
 16 30  1  0  0  0  0
 17 25  1  0  0  0  0
 17 28  2  0  0  0  0
 18 30  2  0  0  0  0
 18 31  1  0  0  0  0
 19 32  1  0  0  0  0
 20 34  1  0  0  0  0
 21 32  1  0  0  0  0
 21 33  2  0  0  0  0
 21 35  1  0  0  0  0
 22 24  2  0  0  0  0
 22 40  1  0  0  0  0
 23 25  2  0  0  0  0
 23 41  1  0  0  0  0
 24 52  1  0  0  0  0
 25 42  1  0  0  0  0
 26 72  1  0  0  0  0
 27 82  1  0  0  0  0
 28 83  1  0  0  0  0
 29 31  2  0  0  0  0
 29 82  1  0  0  0  0
 30 84  1  0  0  0  0
 31 85  1  0  0  0  0
 32 65  2  0  0  0  0
 33 66  1  0  0  0  0
 33 70  1  0  0  0  0
 34 67  1  0  0  0  0
 34 75  2  0  0  0  0
 35 71  1  0  0  0  0
 35 77  2  0  0  0  0
 36 53  1  0  0  0  0
 36 73  1  0  0  0  0
 36 78  2  0  0  0  0
 37 62  1  0  0  0  0
 37 68  1  0  0  0  0
 37 79  2  0  0  0  0
 38 63  1  0  0  0  0
 38 74  1  0  0  0  0
 38 80  2  0  0  0  0
 39 69  1  0  0  0  0
 39 72  1  0  0  0  0
 39 81  2  0  0  0  0
 40 43  1  0  0  0  0
 41 53  1  0  0  0  0
 42 68  1  0  0  0  0
 43 46  1  0  0  0  0
 44 47  1  0  0  0  0
 44 50  1  0  0  0  0
 45 48  1  0  0  0  0
 45 49  1  0  0  0  0
 46 52  1  0  0  0  0
 47 54  1  0  0  0  0
 48 55  1  0  0  0  0
 49 67  1  0  0  0  0
 50 69  1  0  0  0  0
 51 54  1  0  0  0  0
 51 69  1  0  0  0  0
 52 73  1  0  0  0  0
 53 68  1  0  0  0  0
 54 66  1  0  0  0  0
 55 61  1  0  0  0  0
 55 67  1  0  0  0  0
 56 63  1  0  0  0  0
 57 64  1  0  0  0  0
 58 64  1  0  0  0  0
 59 64  1  0  0  0  0
 60 76  1  0  0  0  0
 61 83  1  0  0  0  0
 62 64  1  0  0  0  0
 62 74  1  0  0  0  0
 63 76  1  0  0  0  0
 65 66  1  0  0  0  0
M  CHG  2  75   1  76   1
M  ISO  4  39 100  61 101  72 100  83 101
M  END
> <Batch ID>
0146

> <Smiles>
CNC(C)C(=O)NC(C(=O)N1Cc2cc([101O:1][101CH2:1]C3CCCN3C(=N)c3ccc([100NH:0][100C:0](=O)N4CCCC(n5nc(-c6ccc(Oc7ccc(F)cc7F)cc6)c(C(N)=O)c5N)C4)cc3)ccc2CC1C(=O)NC1CCCc2ccccc21)C(C)(C)C

> <Shape>
0.279

> <Color>
0.170

> <Negative vol penalty>
0.000

$$$$

  -OEChem-04052303103D

 93104  0     1  0  0  0  0  0999 V2000
  -27.5099  -31.5453   19.4630 C   0  0  0  0  0  0  0  0  0  0  0  0
  -28.0500  -30.3247   19.8552 C   0  0  0  0  0  0  0  0  0  0  0  0
  -22.9046  -10.0182   20.0239 C   0  0  0  0  0  0  0  0  0  0  0  0
  -23.6660  -10.0240   22.3168 C   0  0  0  0  0  0  0  0  0  0  0  0
  -26.1638  -31.8195   19.7014 C   0  0  0  0  0  0  0  0  0  0  0  0
  -27.2446  -29.3780   20.4871 C   0  0  0  0  0  0  0  0  0  0  0  0
  -27.9349  -24.7073   18.6559 C   0  0  0  0  0  0  0  0  0  0  0  0
  -22.1006   -8.9108   20.2936 C   0  0  0  0  0  0  0  0  0  0  0  0
  -22.8619   -8.9166   22.5866 C   0  0  0  0  0  0  0  0  0  0  0  0
  -29.0686  -24.0172   19.0828 C   0  0  0  0  0  0  0  0  0  0  0  0
  -22.9748   -5.5747   22.0863 C   0  0  0  0  0  0  0  0  0  0  0  0
  -23.5355   -4.5305   22.8217 C   0  0  0  0  0  0  0  0  0  0  0  0
  -27.7213  -22.7968   20.6685 C   0  0  0  0  0  0  0  0  0  0  0  0
  -32.0245  -17.2565   21.6582 C   0  0  0  0  0  0  0  0  0  0  0  0
  -21.8474   -4.8238   24.5251 C   0  0  0  0  0  0  0  0  0  0  0  0
  -23.6874  -10.5748   21.0355 C   0  0  0  0  0  0  0  0  0  0  0  0
  -24.1632  -13.0757   20.8721 C   0  0  0  0  0  0  0  0  0  0  0  0
  -25.3392  -30.8717   20.3279 C   0  0  0  0  0  0  0  0  0  0  0  0
  -26.6857  -24.4547   19.2407 C   0  0  0  0  0  0  0  0  0  0  0  0
  -25.8866  -29.6402   20.7353 C   0  0  0  0  0  0  0  0  0  0  0  0
  -26.5729  -23.4833   20.2455 C   0  0  0  0  0  0  0  0  0  0  0  0
  -32.1803  -18.5202   22.2977 C   0  0  0  0  0  0  0  0  0  0  0  0
  -22.0792   -8.3600   21.5750 C   0  0  0  0  0  0  0  0  0  0  0  0
  -28.9625  -23.0638   20.0912 C   0  0  0  0  0  0  0  0  0  0  0  0
  -21.8505   -6.2436   22.5703 C   0  0  0  0  0  0  0  0  0  0  0  0
  -22.9718   -4.1550   24.0411 C   0  0  0  0  0  0  0  0  0  0  0  0
  -21.2868   -5.8681   23.7896 C   0  0  0  0  0  0  0  0  0  0  0  0
  -24.5186  -11.7184   20.7573 C   0  0  0  0  0  0  0  0  0  0  0  0
  -31.0512  -18.8903   22.9945 C   0  0  0  0  0  0  0  0  0  0  0  0
  -25.2934  -13.7596   20.4960 C   0  0  0  0  0  0  0  0  0  0  0  0
  -30.7820  -16.7087   21.8909 C   0  0  0  0  0  0  0  0  0  0  0  0
  -22.9224  -13.6656   21.2822 C   0  0  0  0  0  0  0  0  0  0  0  0
  -24.5933  -26.1827   20.8960 C   0  0  0  0  0  0  0  0  0  0  0  0
  -22.7673  -23.5151   20.6269 C   0  0  0  0  0  0  0  0  0  0  0  0
  -22.6235  -20.1377   20.1585 C   0  0  0  0  0  0  0  0  0  0  0  0
  -30.8077  -14.5150   20.6526 C   0  0  0  0  0  0  0  0  0  0  0  0
  -23.9014  -31.2319   20.6069 C   0  0  0  0  0  0  0  0  0  0  0  0
  -25.4677  -25.1886   18.7505 C   0  0  0  0  0  0  0  0  0  0  0  0
  -25.2512  -23.1605   20.8916 C   0  0  0  0  0  0  0  0  0  0  0  0
  -23.0264  -30.0276   20.9448 C   0  0  0  0  0  0  0  0  0  0  0  0
  -29.5639  -12.1240   18.3260 C   0  0  0  0  0  0  0  0  0  0  0  0
  -23.7233  -29.1302   21.9625 C   0  0  0  0  0  0  0  0  0  0  0  0
  -31.3919  -20.2342   25.2193 C   0  0  0  0  0  0  0  0  0  0  0  0
  -29.9211  -20.2345   24.9413 C   0  0  0  0  0  0  0  0  0  0  0  0
  -33.7091  -21.5132   18.4765 C   0  0  0  0  0  0  0  0  0  0  0  0
  -28.1112  -11.9170   18.7605 C   0  0  0  0  0  0  0  0  0  0  0  0
  -32.7164  -20.3493   18.6295 C   0  0  0  0  0  0  0  0  0  0  0  0
  -30.4911  -12.3241   19.5235 C   0  0  0  0  0  0  0  0  0  0  0  0
  -28.6268  -13.1727   20.8923 C   0  0  0  0  0  0  0  0  0  0  0  0
  -34.6175  -21.0847   20.7634 C   0  0  0  0  0  0  0  0  0  0  0  0
  -25.0391  -28.5778   21.4012 C   0  0  1  0  0  0  0  0  0  0  0  0
  -30.9006  -20.1936   23.7888 C   0  0  0  0  0  0  0  0  0  0  0  0
  -24.3360  -25.2181   19.7731 C   0  0  1  0  0  0  0  0  0  0  0  0
  -33.8120  -22.0749   19.9094 C   0  0  2  0  0  0  0  0  0  0  0  0
  -32.4051  -21.8694   20.4849 C   0  0  2  0  0  0  0  0  0  0  0  0
  -27.6450  -13.0315   19.7176 C   0  0  2  0  0  0  0  0  0  0  0  0
  -32.3911  -20.3798   20.1306 C   0  0  2  0  0  0  0  0  0  0  0  0
  -35.2565  -20.5946   24.4516 C   0  0  0  0  0  0  0  0  0  0  0  0
  -20.9926  -18.2351   20.0256 C   0  0  0  0  0  0  0  0  0  0  0  0
  -22.4535  -23.5754   23.6613 C   0  0  0  0  0  0  0  0  0  0  0  0
  -21.6580  -21.2038   23.5563 C   0  0  0  0  0  0  0  0  0  0  0  0
  -20.3665  -23.0026   22.4078 C   0  0  0  0  0  0  0  0  0  0  0  0
  -35.5146  -17.8810   21.6478 C   0  0  0  0  0  0  0  0  0  0  0  0
  -34.4023  -17.6506   23.8660 C   0  0  0  0  0  0  0  0  0  0  0  0
  -23.4184  -19.4979   17.3805 C   0  0  0  0  0  0  0  0  0  0  0  0
  -31.3038  -22.7084   19.8728 C   0  0  0  0  0  0  0  0  0  1  0  0
  -35.7787  -19.6984   23.3344 C   0  0  0  0  0  0  0  0  0  0  0  0
  -33.4530  -19.3500   22.2099 C   0  0  1  0  0  0  0  0  0  0  0  0
  -22.5824  -22.2592   21.4439 C   0  0  1  0  0  0  0  0  0  0  0  0
  -21.7666  -19.2836   19.2417 C   0  0  2  0  0  0  0  0  0  0  0  0
  -21.7905  -22.5175   22.7567 C   0  0  0  0  0  0  0  0  0  0  0  0
  -34.7625  -18.6622   22.7516 C   0  0  0  0  0  0  0  0  0  0  0  0
  -25.7761  -11.5481   20.3407 N   0  0  0  0  0  0  0  0  0  0  0  0
  -26.2208  -12.8074   20.1903 N   0  0  0  0  0  0  0  0  0  0  0  0
  -24.0905  -23.9093   20.3823 N   0  0  0  0  0  0  0  0  0  0  0  0
  -29.9887  -13.3981   20.3831 N   0  0  0  0  0  0  0  0  0  0  0  0
  -25.5744  -15.0765   20.4002 N   0  0  0  0  0  0  0  0  0  0  0  0
  -21.8638  -12.8176   21.6351 N   0  0  0  0  0  0  0  0  0  0  0  0
  -30.2114  -15.4871   21.4551 N   0  0  0  0  0  0  0  0  0  0  0  0
  -24.7798  -27.4885   20.4844 N   0  0  0  0  0  0  0  0  0  0  0  0
  -21.9636  -21.2816   20.5552 N   0  0  0  0  0  0  0  0  0  0  0  0
  -33.6737  -19.8833   20.8294 N   0  3  2  0  0  0  0  0  0  0  0  0
  -22.6187  -18.5856   18.2379 N   0  3  0  0  0  0  0  0  0  0  0  0
  -22.7521  -14.9079   21.3184 O   0  0  0  0  0  0  0  0  0  0  0  0
  -24.6193  -25.7728   22.0506 O   0  0  0  0  0  0  0  0  0  0  0  0
  -21.7745  -24.1201   20.2147 O   0  0  0  0  0  0  0  0  0  0  0  0
  -23.7628  -19.8201   20.4926 O   0  0  0  0  0  0  0  0  0  0  0  0
  -31.9438  -14.6153   20.1821 O   0  0  0  0  0  0  0  0  0  0  0  0
  -21.2946   -7.2796   21.8386 O   0  0  0  0  0  0  0  0  0  0  0  0
  -30.0676  -22.3892   20.5102 O   0  0  0  0  0  0  0  0  0  1  0  0
  -23.5094   -3.1512   24.7464 F   0  0  0  0  0  0  0  0  0  0  0  0
  -20.2059   -6.5061   24.2592 F   0  0  0  0  0  0  0  0  0  0  0  0
  -29.8098  -17.7167   22.8763 S   0  0  0  0  0  0  0  0  0  0  0  0
  1  2  1  0  0  0  0
  1  5  2  0  0  0  0
  2  6  2  0  0  0  0
  3  8  2  0  0  0  0
  3 16  1  0  0  0  0
  4  9  1  0  0  0  0
  4 16  2  0  0  0  0
  5 18  1  0  0  0  0
  6 20  1  0  0  0  0
  7 10  2  0  0  0  0
  7 19  1  0  0  0  0
  8 23  1  0  0  0  0
  9 23  2  0  0  0  0
 10 24  1  0  0  0  0
 11 12  2  0  0  0  0
 11 25  1  0  0  0  0
 12 26  1  0  0  0  0
 13 21  1  0  0  0  0
 13 24  2  0  0  0  0
 14 22  1  0  0  0  0
 14 31  2  0  0  0  0
 15 26  2  0  0  0  0
 15 27  1  0  0  0  0
 16 28  1  0  0  0  0
 17 28  1  0  0  0  0
 17 30  2  0  0  0  0
 17 32  1  0  0  0  0
 18 20  2  0  0  0  0
 18 37  1  0  0  0  0
 19 21  2  0  0  0  0
 19 38  1  0  0  0  0
 20 51  1  0  0  0  0
 21 39  1  0  0  0  0
 22 29  2  0  0  0  0
 22 68  1  0  0  0  0
 23 89  1  0  0  0  0
 24 90  1  0  0  0  0
 25 27  2  0  0  0  0
 25 89  1  0  0  0  0
 26 91  1  0  0  0  0
 27 92  1  0  0  0  0
 28 73  2  0  0  0  0
 29 52  1  0  0  0  0
 29 93  1  0  0  0  0
 30 74  1  0  0  0  0
 30 77  1  0  0  0  0
 31 79  1  0  0  0  0
 31 93  1  0  0  0  0
 32 78  1  0  0  0  0
 32 84  2  0  0  0  0
 33 53  1  0  0  0  0
 33 80  1  0  0  0  0
 33 85  2  0  0  0  0
 34 69  1  0  0  0  0
 34 75  1  0  0  0  0
 34 86  2  0  0  0  0
 35 70  1  0  0  0  0
 35 81  1  0  0  0  0
 35 87  2  0  0  0  0
 36 76  1  0  0  0  0
 36 79  1  0  0  0  0
 36 88  2  0  0  0  0
 37 40  1  0  0  0  0
 38 53  1  0  0  0  0
 39 75  1  0  0  0  0
 40 42  1  0  0  0  0
 41 46  1  0  0  0  0
 41 48  1  0  0  0  0
 42 51  1  0  0  0  0
 43 44  1  0  0  0  0
 43 52  1  0  0  0  0
 44 52  1  0  0  0  0
 45 47  1  0  0  0  0
 45 54  1  0  0  0  0
 46 56  1  0  0  0  0
 47 57  1  0  0  0  0
 48 76  1  0  0  0  0
 49 56  1  0  0  0  0
 49 76  1  0  0  0  0
 50 54  1  0  0  0  0
 50 82  1  0  0  0  0
 51 80  1  0  0  0  0
 53 75  1  0  0  0  0
 54 55  1  0  0  0  0
 55 57  1  0  0  0  0
 55 66  1  0  0  0  0
 56 74  1  0  0  0  0
 57 82  1  0  0  0  0
 58 67  1  0  0  0  0
 59 70  1  0  0  0  0
 60 71  1  0  0  0  0
 61 71  1  0  0  0  0
 62 71  1  0  0  0  0
 63 72  1  0  0  0  0
 64 72  1  0  0  0  0
 65 83  1  0  0  0  0
 66 90  1  0  0  0  0
 67 72  1  0  0  0  0
 68 72  1  0  0  0  0
 68 82  1  0  0  0  0
 69 71  1  0  0  0  0
 69 81  1  0  0  0  0
 70 83  1  0  0  0  0
 73 74  1  0  0  0  0
M  CHG  2  82   1  83   1
M  ISO  4  36 100  66 101  79 100  90 101
M  END
> <Batch ID>
0146

> <Smiles>
CCC(C)(C)C(c1cc([100NH:0][100C:0](=O)N2CCCC(n3nc(-c4ccc(Oc5ccc(F)cc5F)cc4)c(C(N)=O)c3N)C2)sc1C1CC1)N1CC2CCC1C2[101CH2:1][101O:1]c1ccc2c(c1)CN(C(=O)C(NC(=O)C(C)NC)C(C)(C)C)C(C(=O)NC1CCCc3ccccc31)C2

> <Shape>
0.258

> <Color>
0.185

> <Negative vol penalty>
0.000

$$$$

  -OEChem-04052303103D

 83 92  0     1  0  0  0  0  0999 V2000
  -19.8174  -32.2648   21.6992 C   0  0  0  0  0  0  0  0  0  0  0  0
  -20.8474  -31.3455   21.8705 C   0  0  0  0  0  0  0  0  0  0  0  0
  -23.4388  -10.8188   23.2189 C   0  0  0  0  0  0  0  0  0  0  0  0
  -24.0107   -9.3501   21.3878 C   0  0  0  0  0  0  0  0  0  0  0  0
  -18.5538  -32.0004   22.2259 C   0  0  0  0  0  0  0  0  0  0  0  0
  -20.6147  -30.1617   22.5696 C   0  0  0  0  0  0  0  0  0  0  0  0
  -22.5888  -26.1158   20.2504 C   0  0  0  0  0  0  0  0  0  0  0  0
  -22.7930   -9.7638   23.8634 C   0  0  0  0  0  0  0  0  0  0  0  0
  -23.3649   -8.2950   22.0323 C   0  0  0  0  0  0  0  0  0  0  0  0
  -23.9622  -25.9143   20.3807 C   0  0  0  0  0  0  0  0  0  0  0  0
  -19.8313   -8.1499   23.6436 C   0  0  0  0  0  0  0  0  0  0  0  0
  -18.5781   -8.4021   24.2017 C   0  0  0  0  0  0  0  0  0  0  0  0
  -31.0609  -19.8372   20.3808 C   0  0  0  0  0  0  0  0  0  0  0  0
  -31.1612  -18.4209   20.2616 C   0  0  0  0  0  0  0  0  0  0  0  0
  -23.5520  -24.2693   22.0968 C   0  0  0  0  0  0  0  0  0  0  0  0
  -19.4270   -7.7973   26.3813 C   0  0  0  0  0  0  0  0  0  0  0  0
  -24.0476  -10.6120   21.9810 C   0  0  0  0  0  0  0  0  0  0  0  0
  -24.1448  -12.9200   20.8987 C   0  0  0  0  0  0  0  0  0  0  0  0
  -18.3029  -30.8083   22.9235 C   0  0  0  0  0  0  0  0  0  0  0  0
  -21.6856  -25.4023   21.0514 C   0  0  0  0  0  0  0  0  0  0  0  0
  -19.3469  -29.8817   23.1073 C   0  0  0  0  0  0  0  0  0  0  0  0
  -22.1675  -24.4617   21.9729 C   0  0  0  0  0  0  0  0  0  0  0  0
  -22.7561   -8.5019   23.2702 C   0  0  0  0  0  0  0  0  0  0  0  0
  -24.4441  -24.9931   21.3060 C   0  0  0  0  0  0  0  0  0  0  0  0
  -20.8824   -7.7213   24.4544 C   0  0  0  0  0  0  0  0  0  0  0  0
  -18.3759   -8.2259   25.5705 C   0  0  0  0  0  0  0  0  0  0  0  0
  -20.6802   -7.5451   25.8232 C   0  0  0  0  0  0  0  0  0  0  0  0
  -24.7144  -11.7015   21.3144 C   0  0  0  0  0  0  0  0  0  0  0  0
  -25.1856  -13.6069   20.3231 C   0  0  0  0  0  0  0  0  0  0  0  0
  -29.8291  -20.2307   20.8555 C   0  0  0  0  0  0  0  0  0  0  0  0
  -30.0020  -17.7857   20.6500 C   0  0  0  0  0  0  0  0  0  0  0  0
  -22.7955  -13.3890   21.0220 C   0  0  0  0  0  0  0  0  0  0  0  0
  -19.5136  -26.1926   23.2334 C   0  0  0  0  0  0  0  0  0  0  0  0
  -18.8101  -23.0282   23.1137 C   0  0  0  0  0  0  0  0  0  0  0  0
  -20.6460  -19.9275   22.9333 C   0  0  0  0  0  0  0  0  0  0  0  0
  -30.4795  -15.3327   20.3325 C   0  0  0  0  0  0  0  0  0  0  0  0
  -16.9334  -30.5881   23.5155 C   0  0  0  0  0  0  0  0  0  0  0  0
  -20.2061  -25.6118   20.8799 C   0  0  0  0  0  0  0  0  0  0  0  0
  -21.2388  -23.6555   22.8423 C   0  0  0  0  0  0  0  0  0  0  0  0
  -16.6704  -29.1399   23.9201 C   0  0  0  0  0  0  0  0  0  0  0  0
  -29.9809  -23.9417   21.1125 C   0  0  0  0  0  0  0  0  0  0  0  0
  -29.8383  -12.0746   19.0477 C   0  0  0  0  0  0  0  0  0  0  0  0
  -17.8569  -28.5789   24.6974 C   0  0  0  0  0  0  0  0  0  0  0  0
  -28.6060  -24.2519   21.6905 C   0  0  0  0  0  0  0  0  0  0  0  0
  -28.4012  -11.7873   19.4887 C   0  0  0  0  0  0  0  0  0  0  0  0
  -30.4331  -22.5272   21.4630 C   0  0  0  0  0  0  0  0  0  0  0  0
  -30.6096  -12.8615   20.1057 C   0  0  0  0  0  0  0  0  0  0  0  0
  -28.0467  -21.7884   21.5816 C   0  0  0  0  0  0  0  0  0  0  0  0
  -28.5191  -13.8080   21.0018 C   0  0  0  0  0  0  0  0  0  0  0  0
  -19.1271  -28.5750   23.8383 C   0  0  1  0  0  0  0  0  0  0  0  0
  -19.3985  -25.2036   22.1081 C   0  0  1  0  0  0  0  0  0  0  0  0
  -27.5836  -23.2101   21.2293 C   0  0  1  0  0  0  0  0  0  0  0  0
  -27.6828  -13.0736   19.9412 C   0  0  2  0  0  0  0  0  0  0  0  0
  -19.9894  -17.6951   21.9939 C   0  0  0  0  0  0  0  0  0  0  0  0
  -17.9698  -22.3947   25.9777 C   0  0  0  0  0  0  0  0  0  0  0  0
  -18.8460  -20.0728   25.6472 C   0  0  0  0  0  0  0  0  0  0  0  0
  -16.9612  -20.9047   24.2407 C   0  0  0  0  0  0  0  0  0  0  0  0
  -23.0106  -19.8504   21.1553 C   0  0  0  0  0  0  0  0  0  0  0  0
  -26.2124  -23.4953   21.8406 C   0  0  0  0  0  0  0  0  0  1  0  0
  -19.2928  -21.7975   23.8425 C   0  0  1  0  0  0  0  0  0  0  0  0
  -20.7382  -18.9941   21.7397 C   0  0  2  0  0  0  0  0  0  0  0  0
  -18.2843  -21.3149   24.9231 C   0  0  0  0  0  0  0  0  0  0  0  0
  -26.0160  -11.6163   21.0272 N   0  0  0  0  0  0  0  0  0  0  0  0
  -26.2729  -12.7898   20.4247 N   0  0  0  0  0  0  0  0  0  0  0  0
  -29.4071  -21.5461   21.0866 N   0  0  2  0  0  0  0  0  0  0  0  0
  -19.8010  -23.9008   22.6418 N   0  0  0  0  0  0  0  0  0  0  0  0
  -29.8708  -14.0686   20.4825 N   0  0  0  0  0  0  0  0  0  0  0  0
  -25.2677  -14.8240   19.7449 N   0  0  0  0  0  0  0  0  0  0  0  0
  -21.8526  -12.5563   21.6400 N   0  0  0  0  0  0  0  0  0  0  0  0
  -29.6692  -16.4091   20.6922 N   0  0  0  0  0  0  0  0  0  0  0  0
  -19.1020  -27.4699   22.9040 N   0  0  0  0  0  0  0  0  0  0  0  0
  -19.5885  -20.8045   22.8154 N   0  0  0  0  0  0  0  0  0  0  0  0
  -22.1622  -18.6663   21.4473 N   0  3  0  0  0  0  0  0  0  0  0  0
  -22.4330  -14.5063   20.5820 O   0  0  0  0  0  0  0  0  0  0  0  0
  -19.9426  -25.8238   24.3204 O   0  0  0  0  0  0  0  0  0  0  0  0
  -17.5988  -23.2052   22.9622 O   0  0  0  0  0  0  0  0  0  0  0  0
  -21.4311  -19.8807   23.8777 O   0  0  0  0  0  0  0  0  0  0  0  0
  -31.6247  -15.4531   19.8900 O   0  0  0  0  0  0  0  0  0  0  0  0
  -22.1262   -7.4721   23.8989 O   0  0  0  0  0  0  0  0  0  0  0  0
  -25.7842  -24.7949   21.4357 O   0  0  0  0  0  0  0  0  0  1  0  0
  -17.1728   -8.4696   26.1065 F   0  0  0  0  0  0  0  0  0  0  0  0
  -21.6865   -7.1347   26.6073 F   0  0  0  0  0  0  0  0  0  0  0  0
  -28.7997  -18.8954   21.1554 S   0  0  0  0  0  0  0  0  0  0  0  0
  1  2  1  0  0  0  0
  1  5  2  0  0  0  0
  2  6  2  0  0  0  0
  3  8  2  0  0  0  0
  3 17  1  0  0  0  0
  4  9  1  0  0  0  0
  4 17  2  0  0  0  0
  5 19  1  0  0  0  0
  6 21  1  0  0  0  0
  7 10  2  0  0  0  0
  7 20  1  0  0  0  0
  8 23  1  0  0  0  0
  9 23  2  0  0  0  0
 10 24  1  0  0  0  0
 11 12  2  0  0  0  0
 11 25  1  0  0  0  0
 12 26  1  0  0  0  0
 13 14  1  0  0  0  0
 13 30  2  0  0  0  0
 14 31  2  0  0  0  0
 15 22  1  0  0  0  0
 15 24  2  0  0  0  0
 16 26  2  0  0  0  0
 16 27  1  0  0  0  0
 17 28  1  0  0  0  0
 18 28  1  0  0  0  0
 18 29  2  0  0  0  0
 18 32  1  0  0  0  0
 19 21  2  0  0  0  0
 19 37  1  0  0  0  0
 20 22  2  0  0  0  0
 20 38  1  0  0  0  0
 21 50  1  0  0  0  0
 22 39  1  0  0  0  0
 23 79  1  0  0  0  0
 24 80  1  0  0  0  0
 25 27  2  0  0  0  0
 25 79  1  0  0  0  0
 26 81  1  0  0  0  0
 27 82  1  0  0  0  0
 28 63  2  0  0  0  0
 29 64  1  0  0  0  0
 29 68  1  0  0  0  0
 30 65  1  0  0  0  0
 30 83  1  0  0  0  0
 31 70  1  0  0  0  0
 31 83  1  0  0  0  0
 32 69  1  0  0  0  0
 32 74  2  0  0  0  0
 33 51  1  0  0  0  0
 33 71  1  0  0  0  0
 33 75  2  0  0  0  0
 34 60  1  0  0  0  0
 34 66  1  0  0  0  0
 34 76  2  0  0  0  0
 35 61  1  0  0  0  0
 35 72  1  0  0  0  0
 35 77  2  0  0  0  0
 36 67  1  0  0  0  0
 36 70  1  0  0  0  0
 36 78  2  0  0  0  0
 37 40  1  0  0  0  0
 38 51  1  0  0  0  0
 39 66  1  0  0  0  0
 40 43  1  0  0  0  0
 41 44  1  0  0  0  0
 41 46  1  0  0  0  0
 42 45  1  0  0  0  0
 42 47  1  0  0  0  0
 43 50  1  0  0  0  0
 44 52  1  0  0  0  0
 45 53  1  0  0  0  0
 46 65  1  0  0  0  0
 47 67  1  0  0  0  0
 48 52  1  0  0  0  0
 48 65  1  0  0  0  0
 49 53  1  0  0  0  0
 49 67  1  0  0  0  0
 50 71  1  0  0  0  0
 51 66  1  0  0  0  0
 52 59  1  0  0  0  0
 53 64  1  0  0  0  0
 54 61  1  0  0  0  0
 55 62  1  0  0  0  0
 56 62  1  0  0  0  0
 57 62  1  0  0  0  0
 58 73  1  0  0  0  0
 59 80  1  0  0  0  0
 60 62  1  0  0  0  0
 60 72  1  0  0  0  0
 61 73  1  0  0  0  0
 63 64  1  0  0  0  0
M  CHG  1  73   1
M  ISO  4  36 100  59 101  70 100  80 101
M  END
> <Batch ID>
0146

> <Smiles>
CNC(C)C(=O)NC(C(=O)N1Cc2cc([101O:1][101CH2:1]C3CCCN(c4ccc([100NH:0][100C:0](=O)N5CCCC(n6nc(-c7ccc(Oc8ccc(F)cc8F)cc7)c(C(N)=O)c6N)C5)s4)C3)ccc2CC1C(=O)NC1CCCc2ccccc21)C(C)(C)C

> <Shape>
0.229

> <Color>
0.145

> <Negative vol penalty>
0.000

$$$$

  -OEChem-04052303103D

 85 94  0     1  0  0  0  0  0999 V2000
  -27.0602  -37.4437   24.1881 C   0  0  0  0  0  0  0  0  0  0  0  0
  -27.2250  -36.1302   24.6157 C   0  0  0  0  0  0  0  0  0  0  0  0
  -23.5931   -9.1202   19.5427 C   0  0  0  0  0  0  0  0  0  0  0  0
  -24.2885   -9.4418   21.8340 C   0  0  0  0  0  0  0  0  0  0  0  0
  -25.8817  -37.8246   23.5479 C   0  0  0  0  0  0  0  0  0  0  0  0
  -26.2106  -35.1969   24.4043 C   0  0  0  0  0  0  0  0  0  0  0  0
  -27.4225  -29.2001   20.6016 C   0  0  0  0  0  0  0  0  0  0  0  0
  -22.5421   -8.3115   19.9752 C   0  0  0  0  0  0  0  0  0  0  0  0
  -23.2374   -8.6332   22.2665 C   0  0  0  0  0  0  0  0  0  0  0  0
  -27.6309  -27.9293   20.0651 C   0  0  0  0  0  0  0  0  0  0  0  0
  -22.5564   -5.3276   22.4658 C   0  0  0  0  0  0  0  0  0  0  0  0
  -22.8361   -4.3649   23.4357 C   0  0  0  0  0  0  0  0  0  0  0  0
  -25.2871  -27.4102   20.3563 C   0  0  0  0  0  0  0  0  0  0  0  0
  -25.0884  -19.1319   17.5892 C   0  0  0  0  0  0  0  0  0  0  0  0
  -21.2342   -5.3964   24.9213 C   0  0  0  0  0  0  0  0  0  0  0  0
  -23.9991  -17.3545   16.5613 C   0  0  0  0  0  0  0  0  0  0  0  0
  -24.4664   -9.6853   20.4721 C   0  0  0  0  0  0  0  0  0  0  0  0
  -26.6064  -10.1568   19.1662 C   0  0  0  0  0  0  0  0  0  0  0  0
  -24.8563  -36.8933   23.3200 C   0  0  0  0  0  0  0  0  0  0  0  0
  -26.1410  -29.5867   21.0037 C   0  0  0  0  0  0  0  0  0  0  0  0
  -25.0167  -35.5660   23.7617 C   0  0  0  0  0  0  0  0  0  0  0  0
  -25.0698  -28.6863   20.8829 C   0  0  0  0  0  0  0  0  0  0  0  0
  -24.8115  -17.7344   17.6069 C   0  0  0  0  0  0  0  0  0  0  0  0
  -22.3642   -8.0681   21.3371 C   0  0  0  0  0  0  0  0  0  0  0  0
  -26.5659  -27.0366   19.9430 C   0  0  0  0  0  0  0  0  0  0  0  0
  -21.6157   -6.3247   22.7237 C   0  0  0  0  0  0  0  0  0  0  0  0
  -22.1750   -4.3993   24.6635 C   0  0  0  0  0  0  0  0  0  0  0  0
  -20.9546   -6.3591   23.9514 C   0  0  0  0  0  0  0  0  0  0  0  0
  -25.5526  -10.5202   20.0260 C   0  0  0  0  0  0  0  0  0  0  0  0
  -24.4773  -19.7670   16.5304 C   0  0  0  0  0  0  0  0  0  0  0  0
  -27.3670  -11.2951   19.0551 C   0  0  0  0  0  0  0  0  0  0  0  0
  -26.8739   -8.9025   18.5253 C   0  0  0  0  0  0  0  0  0  0  0  0
  -26.1905  -24.2645   17.6376 C   0  0  0  0  0  0  0  0  0  0  0  0
  -23.9618  -32.2773   22.4486 C   0  0  0  0  0  0  0  0  0  0  0  0
  -22.3568  -30.9417   20.2012 C   0  0  0  0  0  0  0  0  0  0  0  0
  -20.2257  -30.2216   17.6367 C   0  0  0  0  0  0  0  0  0  0  0  0
  -26.1268  -17.1087   19.6624 C   0  0  0  0  0  0  0  0  0  0  0  0
  -23.5810  -37.3631   22.6661 C   0  0  0  0  0  0  0  0  0  0  0  0
  -25.8817  -30.9234   21.6440 C   0  0  0  0  0  0  0  0  0  0  0  0
  -23.7152  -29.1331   21.3606 C   0  0  0  0  0  0  0  0  0  0  0  0
  -22.7078  -36.2242   22.1460 C   0  0  0  0  0  0  0  0  0  0  0  0
  -28.5633  -15.2505   21.4755 C   0  0  0  0  0  0  0  0  0  0  0  0
  -22.5809  -35.1260   23.1970 C   0  0  0  0  0  0  0  0  0  0  0  0
  -25.9473  -21.6992   15.8209 C   0  0  0  0  0  0  0  0  0  0  0  0
  -23.9060  -22.1232   17.2534 C   0  0  0  0  0  0  0  0  0  0  0  0
  -25.9816  -23.1739   15.4160 C   0  0  0  0  0  0  0  0  0  0  0  0
  -23.9253  -23.6014   16.8604 C   0  0  0  0  0  0  0  0  0  0  0  0
  -28.1672  -13.7934   21.2263 C   0  0  0  0  0  0  0  0  0  0  0  0
  -27.3400  -16.1556   21.6103 C   0  0  0  0  0  0  0  0  0  0  0  0
  -25.9815  -14.6102   20.2556 C   0  0  0  0  0  0  0  0  0  0  0  0
  -23.9494  -34.5188   23.5286 C   0  0  1  0  0  0  0  0  0  0  0  0
  -24.5209  -21.2381   16.1581 C   0  0  0  0  0  0  0  0  0  0  0  0
  -25.2979  -24.0985   16.4182 C   0  0  0  0  0  0  0  0  0  0  0  0
  -24.5063  -31.5104   21.2795 C   0  0  1  0  0  0  0  0  0  0  0  0
  -27.1809  -13.6711   20.0483 C   0  0  2  0  0  0  0  0  0  0  0  0
  -17.7981  -30.3142   17.0078 C   0  0  0  0  0  0  0  0  0  0  0  0
  -21.8132  -28.5065   21.9557 C   0  0  0  0  0  0  0  0  0  0  0  0
  -19.7480  -28.0830   20.6051 C   0  0  0  0  0  0  0  0  0  0  0  0
  -19.9690  -30.1952   21.9138 C   0  0  0  0  0  0  0  0  0  0  0  0
  -20.7628  -32.0486   15.3712 C   0  0  0  0  0  0  0  0  0  0  0  0
  -25.6852  -25.1990   18.7161 C   0  0  0  0  0  0  0  0  0  1  0  0
  -21.3525  -29.8834   19.8208 C   0  0  1  0  0  0  0  0  0  0  0  0
  -19.1333  -31.0414   16.9740 C   0  0  2  0  0  0  0  0  0  0  0  0
  -20.7461  -29.1686   21.0613 C   0  0  0  0  0  0  0  0  0  0  0  0
  -25.6332  -11.7900   20.4324 N   0  0  0  0  0  0  0  0  0  0  0  0
  -26.7468  -12.2345   19.8254 N   0  0  0  0  0  0  0  0  0  0  0  0
  -23.4680  -30.5219   20.9426 N   0  0  0  0  0  0  0  0  0  0  0  0
  -26.4533  -15.9893   20.4567 N   0  0  0  0  0  0  0  0  0  0  0  0
  -28.4990  -11.5742   18.3747 N   0  0  0  0  0  0  0  0  0  0  0  0
  -27.6691   -7.9647   19.1979 N   0  0  0  0  0  0  0  0  0  0  0  0
  -25.3027  -16.8230   18.5743 N   0  0  0  0  0  0  0  0  0  0  0  0
  -24.3600  -33.5999   22.4886 N   0  0  0  0  0  0  0  0  0  0  0  0
  -20.3674  -30.5425   18.9701 N   0  0  0  0  0  0  0  0  0  0  0  0
  -19.4828  -31.3165   15.5516 N   0  3  0  0  0  0  0  0  0  0  0  0
  -26.4347   -8.6282   17.3828 O   0  0  0  0  0  0  0  0  0  0  0  0
  -27.2619  -23.6676   17.7313 O   0  0  0  0  0  0  0  0  0  0  0  0
  -23.2325  -31.7121   23.2551 O   0  0  0  0  0  0  0  0  0  0  0  0
  -22.1611  -32.1106   19.8567 O   0  0  0  0  0  0  0  0  0  0  0  0
  -20.8847  -29.3780   17.0327 O   0  0  0  0  0  0  0  0  0  0  0  0
  -26.5692  -18.2329   19.9121 O   0  0  0  0  0  0  0  0  0  0  0  0
  -21.3386   -7.2792   21.7594 O   0  0  0  0  0  0  0  0  0  0  0  0
  -26.7755  -25.7992   19.4141 O   0  0  0  0  0  0  0  0  0  1  0  0
  -22.4425   -3.4739   25.5942 F   0  0  0  0  0  0  0  0  0  0  0  0
  -20.0490   -7.3139   24.2045 F   0  0  0  0  0  0  0  0  0  0  0  0
  -23.5738  -18.6799   15.5639 S   0  0  0  0  0  0  0  0  0  0  0  0
  1  2  1  0  0  0  0
  1  5  2  0  0  0  0
  2  6  2  0  0  0  0
  3  8  2  0  0  0  0
  3 17  1  0  0  0  0
  4  9  1  0  0  0  0
  4 17  2  0  0  0  0
  5 19  1  0  0  0  0
  6 21  1  0  0  0  0
  7 10  2  0  0  0  0
  7 20  1  0  0  0  0
  8 24  1  0  0  0  0
  9 24  2  0  0  0  0
 10 25  1  0  0  0  0
 11 12  2  0  0  0  0
 11 26  1  0  0  0  0
 12 27  1  0  0  0  0
 13 22  1  0  0  0  0
 13 25  2  0  0  0  0
 14 23  1  0  0  0  0
 14 30  2  0  0  0  0
 15 27  2  0  0  0  0
 15 28  1  0  0  0  0
 16 23  2  0  0  0  0
 16 85  1  0  0  0  0
 17 29  1  0  0  0  0
 18 29  1  0  0  0  0
 18 31  2  0  0  0  0
 18 32  1  0  0  0  0
 19 21  2  0  0  0  0
 19 38  1  0  0  0  0
 20 22  2  0  0  0  0
 20 39  1  0  0  0  0
 21 51  1  0  0  0  0
 22 40  1  0  0  0  0
 23 71  1  0  0  0  0
 24 81  1  0  0  0  0
 25 82  1  0  0  0  0
 26 28  2  0  0  0  0
 26 81  1  0  0  0  0
 27 83  1  0  0  0  0
 28 84  1  0  0  0  0
 29 65  2  0  0  0  0
 30 52  1  0  0  0  0
 30 85  1  0  0  0  0
 31 66  1  0  0  0  0
 31 69  1  0  0  0  0
 32 70  1  0  0  0  0
 32 75  2  0  0  0  0
 33 53  1  0  0  0  0
 33 61  1  0  0  0  0
 33 76  2  0  0  0  0
 34 54  1  0  0  0  0
 34 72  1  0  0  0  0
 34 77  2  0  0  0  0
 35 62  1  0  0  0  0
 35 67  1  0  0  0  0
 35 78  2  0  0  0  0
 36 63  1  0  0  0  0
 36 73  1  0  0  0  0
 36 79  2  0  0  0  0
 37 68  1  0  0  0  0
 37 71  1  0  0  0  0
 37 80  2  0  0  0  0
 38 41  1  0  0  0  0
 39 54  1  0  0  0  0
 40 67  1  0  0  0  0
 41 43  1  0  0  0  0
 42 48  1  0  0  0  0
 42 49  1  0  0  0  0
 43 51  1  0  0  0  0
 44 46  1  0  0  0  0
 44 52  1  0  0  0  0
 45 47  1  0  0  0  0
 45 52  1  0  0  0  0
 46 53  1  0  0  0  0
 47 53  1  0  0  0  0
 48 55  1  0  0  0  0
 49 68  1  0  0  0  0
 50 55  1  0  0  0  0
 50 68  1  0  0  0  0
 51 72  1  0  0  0  0
 54 67  1  0  0  0  0
 55 66  1  0  0  0  0
 56 63  1  0  0  0  0
 57 64  1  0  0  0  0
 58 64  1  0  0  0  0
 59 64  1  0  0  0  0
 60 74  1  0  0  0  0
 61 82  1  0  0  0  0
 62 64  1  0  0  0  0
 62 73  1  0  0  0  0
 63 74  1  0  0  0  0
 65 66  1  0  0  0  0
M  CHG  1  74   1
M  ISO  4  37 100  61 101  71 100  82 101
M  END
> <Batch ID>
0146

> <Smiles>
CNC(C)C(=O)NC(C(=O)N1Cc2cc([101O:1][101CH2:1]C(=O)C3CCC(c4cc([100NH:0][100C:0](=O)N5CCCC(n6nc(-c7ccc(Oc8ccc(F)cc8F)cc7)c(C(N)=O)c6N)C5)cs4)CC3)ccc2CC1C(=O)NC1CCCc2ccccc21)C(C)(C)C

> <Shape>
0.266

> <Color>
0.113

> <Negative vol penalty>
0.000

$$$$

  -OEChem-04052303103D

 88 96  0     1  0  0  0  0  0999 V2000
  -28.9059  -23.2906   17.8161 C   0  0  0  0  0  0  0  0  0  0  0  0
  -27.7061  -23.4890   18.4918 C   0  0  0  0  0  0  0  0  0  0  0  0
  -25.3944  -13.8525   20.4079 C   0  0  0  0  0  0  0  0  0  0  0  0
  -23.5089  -15.1562   21.1709 C   0  0  0  0  0  0  0  0  0  0  0  0
  -30.0519  -23.9761   18.2168 C   0  0  0  0  0  0  0  0  0  0  0  0
  -27.6520  -24.3722   19.5695 C   0  0  0  0  0  0  0  0  0  0  0  0
  -23.5932  -27.3960   19.4009 C   0  0  0  0  0  0  0  0  0  0  0  0
  -25.8357  -24.5247   24.9453 C   0  0  0  0  0  0  0  0  0  0  0  0
  -26.4533  -23.7069   23.9991 C   0  0  0  0  0  0  0  0  0  0  0  0
  -24.9013  -12.7402   21.0900 C   0  0  0  0  0  0  0  0  0  0  0  0
  -23.0158  -14.0439   21.8529 C   0  0  0  0  0  0  0  0  0  0  0  0
  -22.3742  -26.8482   19.7980 C   0  0  0  0  0  0  0  0  0  0  0  0
  -22.5148  -10.3902   20.6264 C   0  0  0  0  0  0  0  0  0  0  0  0
  -22.5149   -9.1667   19.9567 C   0  0  0  0  0  0  0  0  0  0  0  0
  -22.6101  -27.9020   21.9551 C   0  0  0  0  0  0  0  0  0  0  0  0
  -24.2871  -22.9947   23.2007 C   0  0  0  0  0  0  0  0  0  0  0  0
  -23.9495   -8.2334   21.6620 C   0  0  0  0  0  0  0  0  0  0  0  0
  -24.6982  -15.0606   20.4484 C   0  0  0  0  0  0  0  0  0  0  0  0
  -24.9294  -16.5856   18.4165 C   0  0  0  0  0  0  0  0  0  0  0  0
  -30.0096  -24.8755   19.2938 C   0  0  0  0  0  0  0  0  0  0  0  0
  -24.3363  -28.1933   20.2832 C   0  0  0  0  0  0  0  0  0  0  0  0
  -28.7988  -25.0694   19.9858 C   0  0  0  0  0  0  0  0  0  0  0  0
  -23.8370  -28.4609   21.5659 C   0  0  0  0  0  0  0  0  0  0  0  0
  -24.4437  -24.5775   25.0193 C   0  0  0  0  0  0  0  0  0  0  0  0
  -25.6790  -22.9419   23.1268 C   0  0  0  0  0  0  0  0  0  0  0  0
  -23.6695  -23.8125   24.1470 C   0  0  0  0  0  0  0  0  0  0  0  0
  -23.7120  -12.8359   21.8124 C   0  0  0  0  0  0  0  0  0  0  0  0
  -21.8838  -27.0988   21.0762 C   0  0  0  0  0  0  0  0  0  0  0  0
  -23.2321  -10.5354   21.8138 C   0  0  0  0  0  0  0  0  0  0  0  0
  -23.2322   -8.0882   20.4745 C   0  0  0  0  0  0  0  0  0  0  0  0
  -23.9494   -9.4570   22.3316 C   0  0  0  0  0  0  0  0  0  0  0  0
  -25.2074  -16.2101   19.7445 C   0  0  0  0  0  0  0  0  0  0  0  0
  -25.6500  -17.7396   18.2280 C   0  0  0  0  0  0  0  0  0  0  0  0
  -24.0944  -15.9483   17.4406 C   0  0  0  0  0  0  0  0  0  0  0  0
  -27.2124  -27.9792   21.6197 C   0  0  0  0  0  0  0  0  0  0  0  0
  -20.1291  -24.2424   23.1740 C   0  0  0  0  0  0  0  0  0  0  0  0
  -26.5060  -30.9574   22.6936 C   0  0  0  0  0  0  0  0  0  0  0  0
  -24.1152  -33.2601   23.4863 C   0  0  0  0  0  0  0  0  0  0  0  0
  -27.6761  -21.9428   21.9607 C   0  0  0  0  0  0  0  0  0  0  0  0
  -31.2852  -25.5579   19.7203 C   0  0  0  0  0  0  0  0  0  0  0  0
  -25.6366  -28.7988   19.8305 C   0  0  0  0  0  0  0  0  0  0  0  0
  -24.5865  -29.3270   22.5439 C   0  0  0  0  0  0  0  0  0  0  0  0
  -31.0572  -26.7586   20.6350 C   0  0  0  0  0  0  0  0  0  0  0  0
  -29.6175  -19.9639   19.7264 C   0  0  0  0  0  0  0  0  0  0  0  0
  -30.0595  -26.4099   21.7349 C   0  0  0  0  0  0  0  0  0  0  0  0
  -28.6795  -18.8142   19.3519 C   0  0  0  0  0  0  0  0  0  0  0  0
  -29.4477  -20.3820   21.1859 C   0  0  0  0  0  0  0  0  0  0  0  0
  -27.1315  -19.5432   21.2118 C   0  0  0  0  0  0  0  0  0  0  0  0
  -28.6943  -26.0379   21.1439 C   0  0  1  0  0  0  0  0  0  0  0  0
  -26.5561  -29.1744   20.9884 C   0  0  1  0  0  0  0  0  0  0  0  0
  -27.2201  -19.1305   19.7334 C   0  0  2  0  0  0  0  0  0  0  0  0
  -23.2665  -26.7520   25.4341 C   0  0  0  0  0  0  0  0  0  0  0  0
  -18.0422  -22.3102   22.0109 C   0  0  0  0  0  0  0  0  0  0  0  0
  -23.8430  -35.5913   24.3745 C   0  0  0  0  0  0  0  0  0  0  0  0
  -18.1269  -25.3533   22.1105 C   0  0  0  0  0  0  0  0  0  0  0  0
  -27.1355  -29.9566   25.5065 C   0  0  0  0  0  0  0  0  0  0  0  0
  -25.9584  -31.9724   26.4117 C   0  0  0  0  0  0  0  0  0  0  0  0
  -27.9951  -32.2495   24.9983 C   0  0  0  0  0  0  0  0  0  0  0  0
  -22.7712  -34.1704   21.0116 C   0  0  0  0  0  0  0  0  0  0  0  0
  -23.8087  -25.4622   26.0421 C   0  0  0  0  0  0  0  0  0  0  0  0
  -21.4231  -23.4459   23.1246 C   0  0  0  0  0  0  0  0  0  0  0  0
  -18.9795  -23.1795   21.1794 C   0  0  0  0  0  0  0  0  0  0  0  0
  -20.3210  -25.3164   20.8849 C   0  0  0  0  0  0  0  0  0  1  0  0
  -25.8281  -31.5188   23.9201 C   0  0  1  0  0  0  0  0  0  0  0  0
  -23.9732  -34.7286   23.1288 C   0  0  2  0  0  0  0  0  0  0  0  0
  -19.3955  -24.5207   21.8372 C   0  0  2  0  0  0  0  0  0  0  0  0
  -26.7158  -31.4064   25.1916 C   0  0  0  0  0  0  0  0  0  0  0  0
  -26.0397  -17.0568   20.3563 N   0  0  0  0  0  0  0  0  0  0  0  0
  -26.2911  -17.9757   19.4084 N   0  0  0  0  0  0  0  0  0  0  0  0
  -25.8561  -29.8909   22.0565 N   0  0  0  0  0  0  0  0  0  0  0  0
  -28.0408  -20.6699   21.4732 N   0  0  0  0  0  0  0  0  0  0  0  0
  -25.7915  -18.5651   17.1693 N   0  0  0  0  0  0  0  0  0  0  0  0
  -23.4262  -14.7700   17.8003 N   0  0  0  0  0  0  0  0  0  0  0  0
  -26.3071  -22.1109   22.1662 N   0  0  0  0  0  0  0  0  0  0  0  0
  -22.2849  -23.8525   24.2075 N   0  0  0  0  0  0  0  0  0  0  0  0
  -27.9748  -27.2286   20.7451 N   0  0  0  0  0  0  0  0  0  0  0  0
  -25.4381  -32.8834   23.5824 N   0  0  0  0  0  0  0  0  0  0  0  0
  -22.7656  -34.9411   22.2817 N   0  3  0  0  0  0  0  0  0  0  0  0
  -23.9583  -16.4011   16.2787 O   0  0  0  0  0  0  0  0  0  0  0  0
  -27.0409  -27.7553   22.8122 O   0  0  0  0  0  0  0  0  0  0  0  0
  -19.6859  -24.6659   24.2449 O   0  0  0  0  0  0  0  0  0  0  0  0
  -27.5693  -31.4518   22.3107 O   0  0  0  0  0  0  0  0  0  0  0  0
  -23.1491  -32.5219   23.6663 O   0  0  0  0  0  0  0  0  0  0  0  0
  -28.5134  -22.8280   22.1540 O   0  0  0  0  0  0  0  0  0  0  0  0
  -23.2304  -11.7506   22.4779 O   0  0  0  0  0  0  0  0  0  0  0  0
  -20.6945  -26.5648   21.4665 O   0  0  0  0  0  0  0  0  0  1  0  0
  -23.2309   -6.9129   19.8321 F   0  0  0  0  0  0  0  0  0  0  0  0
  -24.6395   -9.5901   23.4727 F   0  0  0  0  0  0  0  0  0  0  0  0
  1  2  1  0  0  0  0
  1  5  2  0  0  0  0
  2  6  2  0  0  0  0
  3 10  2  0  0  0  0
  3 18  1  0  0  0  0
  4 11  1  0  0  0  0
  4 18  2  0  0  0  0
  5 20  1  0  0  0  0
  6 22  1  0  0  0  0
  7 12  2  0  0  0  0
  7 21  1  0  0  0  0
  8  9  2  0  0  0  0
  8 24  1  0  0  0  0
  9 25  1  0  0  0  0
 10 27  1  0  0  0  0
 11 27  2  0  0  0  0
 12 28  1  0  0  0  0
 13 14  2  0  0  0  0
 13 29  1  0  0  0  0
 14 30  1  0  0  0  0
 15 23  1  0  0  0  0
 15 28  2  0  0  0  0
 16 25  2  0  0  0  0
 16 26  1  0  0  0  0
 17 30  2  0  0  0  0
 17 31  1  0  0  0  0
 18 32  1  0  0  0  0
 19 32  1  0  0  0  0
 19 33  2  0  0  0  0
 19 34  1  0  0  0  0
 20 22  2  0  0  0  0
 20 40  1  0  0  0  0
 21 23  2  0  0  0  0
 21 41  1  0  0  0  0
 22 49  1  0  0  0  0
 23 42  1  0  0  0  0
 24 26  2  0  0  0  0
 24 60  1  0  0  0  0
 25 74  1  0  0  0  0
 26 75  1  0  0  0  0
 27 85  1  0  0  0  0
 28 86  1  0  0  0  0
 29 31  2  0  0  0  0
 29 85  1  0  0  0  0
 30 87  1  0  0  0  0
 31 88  1  0  0  0  0
 32 68  2  0  0  0  0
 33 69  1  0  0  0  0
 33 72  1  0  0  0  0
 34 73  1  0  0  0  0
 34 79  2  0  0  0  0
 35 50  1  0  0  0  0
 35 76  1  0  0  0  0
 35 80  2  0  0  0  0
 36 61  1  0  0  0  0
 36 66  1  0  0  0  0
 36 81  2  0  0  0  0
 37 64  1  0  0  0  0
 37 70  1  0  0  0  0
 37 82  2  0  0  0  0
 38 65  1  0  0  0  0
 38 77  1  0  0  0  0
 38 83  2  0  0  0  0
 39 71  1  0  0  0  0
 39 74  1  0  0  0  0
 39 84  2  0  0  0  0
 40 43  1  0  0  0  0
 41 50  1  0  0  0  0
 42 70  1  0  0  0  0
 43 45  1  0  0  0  0
 44 46  1  0  0  0  0
 44 47  1  0  0  0  0
 45 49  1  0  0  0  0
 46 51  1  0  0  0  0
 47 71  1  0  0  0  0
 48 51  1  0  0  0  0
 48 71  1  0  0  0  0
 49 76  1  0  0  0  0
 50 70  1  0  0  0  0
 51 69  1  0  0  0  0
 52 60  1  0  0  0  0
 53 62  1  0  0  0  0
 54 65  1  0  0  0  0
 55 66  1  0  0  0  0
 56 67  1  0  0  0  0
 57 67  1  0  0  0  0
 58 67  1  0  0  0  0
 59 78  1  0  0  0  0
 61 75  1  0  0  0  0
 62 66  1  0  0  0  0
 63 66  1  0  0  0  0
 63 86  1  0  0  0  0
 64 67  1  0  0  0  0
 64 77  1  0  0  0  0
 65 78  1  0  0  0  0
 68 69  1  0  0  0  0
M  CHG  1  78   1
M  ISO  4  39 100  63 101  74 100  86 101
M  END
> <Batch ID>
0146

> <Smiles>
CCc1ccc([100NH:0][100C:0](=O)N2CCCC(n3nc(-c4ccc(Oc5ccc(F)cc5F)cc4)c(C(N)=O)c3N)C2)cc1NCC(=O)C(C)(CC)[101CH2:1][101O:1]c1ccc2c(c1)CN(C(=O)C(NC(=O)C(C)NC)C(C)(C)C)C(C(=O)NC1CCCc3ccccc31)C2

> <Shape>
0.280

> <Color>
0.057

> <Negative vol penalty>
0.000

$$$$

  -OEChem-04052303103D

 85 94  0     1  0  0  0  0  0999 V2000
  -20.6199  -25.8934   30.8441 C   0  0  0  0  0  0  0  0  0  0  0  0
  -21.6123  -25.1790   30.1808 C   0  0  0  0  0  0  0  0  0  0  0  0
  -23.0751   -9.8685   19.9401 C   0  0  0  0  0  0  0  0  0  0  0  0
  -23.8345   -9.8745   22.2337 C   0  0  0  0  0  0  0  0  0  0  0  0
  -20.4028  -25.6834   32.2053 C   0  0  0  0  0  0  0  0  0  0  0  0
  -22.3891  -24.2547   30.8786 C   0  0  0  0  0  0  0  0  0  0  0  0
  -22.9651  -19.9024   28.3546 C   0  0  0  0  0  0  0  0  0  0  0  0
  -22.3308   -8.7155   20.1895 C   0  0  0  0  0  0  0  0  0  0  0  0
  -23.0901   -8.7215   22.4832 C   0  0  0  0  0  0  0  0  0  0  0  0
  -23.8940  -19.8874   27.3150 C   0  0  0  0  0  0  0  0  0  0  0  0
  -19.8615   -7.9247   23.0846 C   0  0  0  0  0  0  0  0  0  0  0  0
  -19.1042   -7.8847   24.2553 C   0  0  0  0  0  0  0  0  0  0  0  0
  -25.4978  -18.8264   28.7714 C   0  0  0  0  0  0  0  0  0  0  0  0
  -29.8028  -17.7454   22.7524 C   0  0  0  0  0  0  0  0  0  0  0  0
  -31.5824  -19.3772   22.8368 C   0  0  0  0  0  0  0  0  0  0  0  0
  -31.8682  -17.3428   21.5654 C   0  0  0  0  0  0  0  0  0  0  0  0
  -20.3447   -5.9465   24.9914 C   0  0  0  0  0  0  0  0  0  0  0  0
  -23.8270  -10.4479   20.9622 C   0  0  0  0  0  0  0  0  0  0  0  0
  -24.1698  -12.9730   20.8431 C   0  0  0  0  0  0  0  0  0  0  0  0
  -21.1709  -24.7491   32.9179 C   0  0  0  0  0  0  0  0  0  0  0  0
  -23.2999  -19.3885   29.6156 C   0  0  0  0  0  0  0  0  0  0  0  0
  -22.1830  -24.0329   32.2508 C   0  0  0  0  0  0  0  0  0  0  0  0
  -24.5706  -18.8337   29.8246 C   0  0  0  0  0  0  0  0  0  0  0  0
  -30.3007  -18.9675   23.2043 C   0  0  0  0  0  0  0  0  0  0  0  0
  -30.5866  -16.9330   21.9329 C   0  0  0  0  0  0  0  0  0  0  0  0
  -32.3662  -18.5649   22.0173 C   0  0  0  0  0  0  0  0  0  0  0  0
  -22.3382   -8.1420   21.4610 C   0  0  0  0  0  0  0  0  0  0  0  0
  -25.1615  -19.3519   27.5241 C   0  0  0  0  0  0  0  0  0  0  0  0
  -20.8603   -6.9756   22.8673 C   0  0  0  0  0  0  0  0  0  0  0  0
  -19.3458   -6.8956   25.2087 C   0  0  0  0  0  0  0  0  0  0  0  0
  -21.1019   -5.9865   23.8207 C   0  0  0  0  0  0  0  0  0  0  0  0
  -24.5966  -11.6386   20.7051 C   0  0  0  0  0  0  0  0  0  0  0  0
  -25.2624  -13.7222   20.4803 C   0  0  0  0  0  0  0  0  0  0  0  0
  -27.8302  -20.5053   25.4187 C   0  0  0  0  0  0  0  0  0  0  0  0
  -26.9011  -20.4133   26.3760 C   0  0  0  0  0  0  0  0  0  1  0  0
  -22.8994  -13.4891   21.2618 C   0  0  0  0  0  0  0  0  0  0  0  0
  -23.5215  -20.6015   32.5454 C   0  0  0  0  0  0  0  0  0  0  0  0
  -24.0224  -17.5041   33.3686 C   0  0  0  0  0  0  0  0  0  0  0  0
  -25.0392  -14.3848   32.4294 C   0  0  0  0  0  0  0  0  0  0  0  0
  -30.7289  -14.7657   20.6567 C   0  0  0  0  0  0  0  0  0  0  0  0
  -20.9312  -24.5907   34.3985 C   0  0  0  0  0  0  0  0  0  0  0  0
  -22.2776  -19.3879   30.7190 C   0  0  0  0  0  0  0  0  0  0  0  0
  -24.9726  -18.2510   31.1540 C   0  0  0  0  0  0  0  0  0  0  0  0
  -28.7608  -21.6615   25.2311 C   0  0  0  0  0  0  0  0  0  0  0  0
  -28.1750  -19.4166   24.4474 C   0  0  0  0  0  0  0  0  0  0  0  0
  -21.5467  -23.3219   34.9829 C   0  0  0  0  0  0  0  0  0  0  0  0
  -29.6142  -12.3530   18.2874 C   0  0  0  0  0  0  0  0  0  0  0  0
  -22.9812  -23.1501   34.4934 C   0  0  0  0  0  0  0  0  0  0  0  0
  -28.1743  -12.0619   18.7165 C   0  0  0  0  0  0  0  0  0  0  0  0
  -30.0034  -21.0045   24.6368 C   0  0  0  0  0  0  0  0  0  0  0  0
  -30.5291  -12.5811   19.4894 C   0  0  0  0  0  0  0  0  0  0  0  0
  -28.6220  -13.3059   20.8704 C   0  0  0  0  0  0  0  0  0  0  0  0
  -23.0297  -23.0037   32.9677 C   0  0  1  0  0  0  0  0  0  0  0  0
  -22.8994  -19.3051   32.1096 C   0  0  1  0  0  0  0  0  0  0  0  0
  -27.6495  -13.1333   19.6923 C   0  0  2  0  0  0  0  0  0  0  0  0
  -25.3732  -12.0669   33.3313 C   0  0  0  0  0  0  0  0  0  0  0  0
  -26.5730  -18.4198   34.7707 C   0  0  0  0  0  0  0  0  0  0  0  0
  -27.3242  -16.0319   34.8126 C   0  0  0  0  0  0  0  0  0  0  0  0
  -25.2508  -16.7067   36.0244 C   0  0  0  0  0  0  0  0  0  0  0  0
  -34.2731  -18.6021   20.4087 C   0  0  0  0  0  0  0  0  0  0  0  0
  -23.0723  -13.2400   30.5374 C   0  0  0  0  0  0  0  0  0  0  0  0
  -25.2355  -16.6150   33.4979 C   0  0  1  0  0  0  0  0  0  0  0  0
  -24.4127  -13.0171   32.6332 C   0  0  2  0  0  0  0  0  0  0  0  0
  -26.0893  -16.9560   34.7518 C   0  0  0  0  0  0  0  0  0  0  0  0
  -25.8616  -11.5424   20.2871 N   0  0  0  0  0  0  0  0  0  0  0  0
  -26.2390  -12.8259   20.1592 N   0  0  0  0  0  0  0  0  0  0  0  0
  -29.5249  -19.7714   24.0163 N   0  0  3  0  0  0  0  0  0  0  0  0
  -23.9402  -18.2793   32.2032 N   0  0  0  0  0  0  0  0  0  0  0  0
  -29.9703  -13.6119   20.3669 N   0  0  0  0  0  0  0  0  0  0  0  0
  -25.4733  -15.0536   20.4078 N   0  0  0  0  0  0  0  0  0  0  0  0
  -21.8871  -12.5802   21.5986 N   0  0  0  0  0  0  0  0  0  0  0  0
  -30.0817  -15.6907   21.4753 N   0  0  0  0  0  0  0  0  0  0  0  0
  -33.6619  -18.9796   21.6454 N   0  0  0  0  0  0  0  0  0  0  0  0
  -22.6409  -21.6660   32.5757 N   0  0  0  0  0  0  0  0  0  0  0  0
  -24.7411  -15.2428   33.4667 N   0  0  0  0  0  0  0  0  0  0  0  0
  -24.0322  -12.4210   31.3214 N   0  3  0  0  0  0  0  0  0  0  0  0
  -22.6636  -14.7198   21.3195 O   0  0  0  0  0  0  0  0  0  0  0  0
  -24.7120  -20.6334   32.8341 O   0  0  0  0  0  0  0  0  0  0  0  0
  -23.1752  -17.5053   34.2652 O   0  0  0  0  0  0  0  0  0  0  0  0
  -25.7276  -14.6628   31.4499 O   0  0  0  0  0  0  0  0  0  0  0  0
  -31.8582  -14.9341   20.1894 O   0  0  0  0  0  0  0  0  0  0  0  0
  -21.6118   -7.0171   21.7048 O   0  0  0  0  0  0  0  0  0  0  0  0
  -26.0703  -19.3366   26.5113 O   0  0  0  0  0  0  0  0  0  1  0  0
  -18.6196   -6.8582   26.3336 F   0  0  0  0  0  0  0  0  0  0  0  0
  -22.0610   -5.0728   23.6180 F   0  0  0  0  0  0  0  0  0  0  0  0
  1  2  1  0  0  0  0
  1  5  2  0  0  0  0
  2  6  2  0  0  0  0
  3  8  2  0  0  0  0
  3 18  1  0  0  0  0
  4  9  1  0  0  0  0
  4 18  2  0  0  0  0
  5 20  1  0  0  0  0
  6 22  1  0  0  0  0
  7 10  2  0  0  0  0
  7 21  1  0  0  0  0
  8 27  1  0  0  0  0
  9 27  2  0  0  0  0
 10 28  1  0  0  0  0
 11 12  2  0  0  0  0
 11 29  1  0  0  0  0
 12 30  1  0  0  0  0
 13 23  1  0  0  0  0
 13 28  2  0  0  0  0
 14 24  2  0  0  0  0
 14 25  1  0  0  0  0
 15 24  1  0  0  0  0
 15 26  2  0  0  0  0
 16 25  2  0  0  0  0
 16 26  1  0  0  0  0
 17 30  2  0  0  0  0
 17 31  1  0  0  0  0
 18 32  1  0  0  0  0
 19 32  1  0  0  0  0
 19 33  2  0  0  0  0
 19 36  1  0  0  0  0
 20 22  2  0  0  0  0
 20 41  1  0  0  0  0
 21 23  2  0  0  0  0
 21 42  1  0  0  0  0
 22 53  1  0  0  0  0
 23 43  1  0  0  0  0
 24 67  1  0  0  0  0
 25 72  1  0  0  0  0
 26 73  1  0  0  0  0
 27 82  1  0  0  0  0
 28 83  1  0  0  0  0
 29 31  2  0  0  0  0
 29 82  1  0  0  0  0
 30 84  1  0  0  0  0
 31 85  1  0  0  0  0
 32 65  2  0  0  0  0
 33 66  1  0  0  0  0
 33 70  1  0  0  0  0
 34 35  2  0  0  0  0
 34 44  1  0  0  0  0
 34 45  1  0  0  0  0
 35 83  1  0  0  0  0
 36 71  1  0  0  0  0
 36 77  2  0  0  0  0
 37 54  1  0  0  0  0
 37 74  1  0  0  0  0
 37 78  2  0  0  0  0
 38 62  1  0  0  0  0
 38 68  1  0  0  0  0
 38 79  2  0  0  0  0
 39 63  1  0  0  0  0
 39 75  1  0  0  0  0
 39 80  2  0  0  0  0
 40 69  1  0  0  0  0
 40 72  1  0  0  0  0
 40 81  2  0  0  0  0
 41 46  1  0  0  0  0
 42 54  1  0  0  0  0
 43 68  1  0  0  0  0
 44 50  1  0  0  0  0
 45 67  1  0  0  0  0
 46 48  1  0  0  0  0
 47 49  1  0  0  0  0
 47 51  1  0  0  0  0
 48 53  1  0  0  0  0
 49 55  1  0  0  0  0
 50 67  1  0  0  0  0
 51 69  1  0  0  0  0
 52 55  1  0  0  0  0
 52 69  1  0  0  0  0
 53 74  1  0  0  0  0
 54 68  1  0  0  0  0
 55 66  1  0  0  0  0
 56 63  1  0  0  0  0
 57 64  1  0  0  0  0
 58 64  1  0  0  0  0
 59 64  1  0  0  0  0
 60 73  1  0  0  0  0
 61 76  1  0  0  0  0
 62 64  1  0  0  0  0
 62 75  1  0  0  0  0
 63 76  1  0  0  0  0
 65 66  1  0  0  0  0
M  CHG  1  76   1
M  ISO  4  35 101  40 100  72 100  83 101
M  END
> <Batch ID>
0146

> <Smiles>
CNc1cc([100NH:0][100C:0](=O)N2CCCC(n3nc(-c4ccc(Oc5ccc(F)cc5F)cc4)c(C(N)=O)c3N)C2)cc(N2CCC(=[101CH:1][101O:1]c3ccc4c(c3)CN(C(=O)C(NC(=O)C(C)NC)C(C)(C)C)C(C(=O)NC3CCCc5ccccc53)C4)C2)c1

> <Shape>
0.168

> <Color>
0.192

> <Negative vol penalty>
0.000

$$$$

  -OEChem-04052303103D

 83 92  0     1  0  0  0  0  0999 V2000
  -30.9971  -31.3270   15.6135 C   0  0  0  0  0  0  0  0  0  0  0  0
  -30.9667  -30.3973   16.6479 C   0  0  0  0  0  0  0  0  0  0  0  0
  -22.8925  -10.6883   19.6921 C   0  0  0  0  0  0  0  0  0  0  0  0
  -23.6251   -9.7935   21.8134 C   0  0  0  0  0  0  0  0  0  0  0  0
  -30.0814  -32.3782   15.5953 C   0  0  0  0  0  0  0  0  0  0  0  0
  -30.0211  -30.5189   17.6656 C   0  0  0  0  0  0  0  0  0  0  0  0
  -27.8201  -26.1041   18.8103 C   0  0  0  0  0  0  0  0  0  0  0  0
  -21.9734   -9.6463   19.5699 C   0  0  0  0  0  0  0  0  0  0  0  0
  -22.7059   -8.7515   21.6912 C   0  0  0  0  0  0  0  0  0  0  0  0
  -28.5474  -25.2165   19.6020 C   0  0  0  0  0  0  0  0  0  0  0  0
  -22.4717   -5.8186   20.0256 C   0  0  0  0  0  0  0  0  0  0  0  0
  -22.9112   -4.5286   20.3230 C   0  0  0  0  0  0  0  0  0  0  0  0
  -27.2908  -25.9220   21.5366 C   0  0  0  0  0  0  0  0  0  0  0  0
  -30.1072  -19.9749   19.2720 C   0  0  0  0  0  0  0  0  0  0  0  0
  -21.2448   -4.3625   22.0645 C   0  0  0  0  0  0  0  0  0  0  0  0
  -23.7184  -10.7619   20.8138 C   0  0  0  0  0  0  0  0  0  0  0  0
  -24.4568  -13.0924   21.5429 C   0  0  0  0  0  0  0  0  0  0  0  0
  -29.1179  -32.5073   16.6081 C   0  0  0  0  0  0  0  0  0  0  0  0
  -26.8285  -26.9166   19.3786 C   0  0  0  0  0  0  0  0  0  0  0  0
  -29.0925  -31.5736   17.6617 C   0  0  0  0  0  0  0  0  0  0  0  0
  -26.5506  -26.8172   20.7494 C   0  0  0  0  0  0  0  0  0  0  0  0
  -29.8519  -18.6070   19.0478 C   0  0  0  0  0  0  0  0  0  0  0  0
  -21.8801   -8.6779   20.5694 C   0  0  0  0  0  0  0  0  0  0  0  0
  -28.2848  -25.1274   20.9659 C   0  0  0  0  0  0  0  0  0  0  0  0
  -21.4188   -6.3805   20.7477 C   0  0  0  0  0  0  0  0  0  0  0  0
  -22.2977   -3.8005   21.3424 C   0  0  0  0  0  0  0  0  0  0  0  0
  -20.8053   -5.6525   21.7670 C   0  0  0  0  0  0  0  0  0  0  0  0
  -24.6685  -11.8378   20.9403 C   0  0  0  0  0  0  0  0  0  0  0  0
  -29.2574  -18.0095   20.1207 C   0  0  0  0  0  0  0  0  0  0  0  0
  -25.6568  -13.7463   21.4053 C   0  0  0  0  0  0  0  0  0  0  0  0
  -29.6783  -20.3491   20.5359 C   0  0  0  0  0  0  0  0  0  0  0  0
  -23.2806  -13.6195   22.1709 C   0  0  0  0  0  0  0  0  0  0  0  0
  -26.3973  -30.0514   19.6795 C   0  0  0  0  0  0  0  0  0  0  0  0
  -23.5202  -29.1473   20.8741 C   0  0  0  0  0  0  0  0  0  0  0  0
  -21.6380  -26.7311   22.3795 C   0  0  0  0  0  0  0  0  0  0  0  0
  -29.9055  -15.1513   17.9856 C   0  0  0  0  0  0  0  0  0  0  0  0
  -28.1792  -33.6872   16.5709 C   0  0  0  0  0  0  0  0  0  0  0  0
  -26.0345  -27.8497   18.5061 C   0  0  0  0  0  0  0  0  0  0  0  0
  -25.4824  -27.6528   21.4046 C   0  0  0  0  0  0  0  0  0  0  0  0
  -30.0692  -17.6449   17.9526 C   0  0  0  0  0  0  0  0  0  0  0  0
  -28.9641  -16.5800   19.9175 C   0  0  0  0  0  0  0  0  0  0  0  0
  -26.9684  -33.5314   17.4874 C   0  0  0  0  0  0  0  0  0  0  0  0
  -30.1948  -12.0563   19.9408 C   0  0  0  0  0  0  0  0  0  0  0  0
  -27.4010  -33.0363   18.8638 C   0  0  0  0  0  0  0  0  0  0  0  0
  -28.7511  -11.8081   20.3834 C   0  0  0  0  0  0  0  0  0  0  0  0
  -30.2665  -12.7875   18.6018 C   0  0  0  0  0  0  0  0  0  0  0  0
  -28.0394  -13.7720   18.9743 C   0  0  0  0  0  0  0  0  0  0  0  0
  -28.0659  -31.6577   18.7704 C   0  0  1  0  0  0  0  0  0  0  0  0
  -25.4004  -28.9995   19.2828 C   0  0  1  0  0  0  0  0  0  0  0  0
  -27.9264  -13.1094   20.3535 C   0  0  1  0  0  0  0  0  0  0  0  0
  -19.3304  -26.2982   23.2655 C   0  0  0  0  0  0  0  0  0  0  0  0
  -24.1484  -30.8429   23.3319 C   0  0  0  0  0  0  0  0  0  0  0  0
  -22.3147  -29.6427   24.5424 C   0  0  0  0  0  0  0  0  0  0  0  0
  -21.7875  -31.0109   22.5243 C   0  0  0  0  0  0  0  0  0  0  0  0
  -31.1372  -23.6796   22.6020 C   0  0  0  0  0  0  0  0  0  0  0  0
  -30.9058  -25.2314   20.6503 C   0  0  0  0  0  0  0  0  0  0  0  0
  -21.2013  -24.5030   20.4811 C   0  0  0  0  0  0  0  0  0  0  0  0
  -30.3399  -22.7519   20.4142 C   0  0  0  0  0  0  0  0  0  0  0  0
  -22.9920  -28.8055   22.2464 C   0  0  1  0  0  0  0  0  0  0  0  0
  -20.2560  -26.1882   22.0638 C   0  0  2  0  0  0  0  0  0  0  0  0
  -22.8322  -30.0610   23.1496 C   0  0  0  0  0  0  0  0  0  0  0  0
  -30.3377  -23.9840   21.3323 C   0  0  0  0  0  0  0  0  0  1  0  0
  -25.9056  -11.7007   20.4558 N   0  0  0  0  0  0  0  0  0  0  0  0
  -26.4820  -12.8776   20.7537 N   0  0  0  0  0  0  0  0  0  0  0  0
  -24.7377  -28.5547   20.5104 N   0  0  0  0  0  0  0  0  0  0  0  0
  -29.5522  -16.3799   18.5546 N   0  0  0  0  0  0  0  0  0  0  0  0
  -29.4451  -13.9966   18.6258 N   0  0  0  0  0  0  0  0  0  0  0  0
  -26.0759  -14.9738   21.7791 N   0  0  0  0  0  0  0  0  0  0  0  0
  -22.1347  -12.8144   22.2261 N   0  0  0  0  0  0  0  0  0  0  0  0
  -29.7664  -21.5877   21.0830 N   0  0  0  0  0  0  0  0  0  0  0  0
  -27.0656  -30.6236   18.6139 N   0  0  0  0  0  0  0  0  0  0  0  0
  -21.7556  -28.0608   22.0342 N   0  0  0  0  0  0  0  0  0  0  0  0
  -20.3410  -24.7546   21.6658 N   0  3  0  0  0  0  0  0  0  0  0  0
  -23.2417  -14.7766   22.6538 O   0  0  0  0  0  0  0  0  0  0  0  0
  -26.5479  -30.3248   20.8645 O   0  0  0  0  0  0  0  0  0  0  0  0
  -22.8726  -29.9063   20.1487 O   0  0  0  0  0  0  0  0  0  0  0  0
  -22.5235  -26.0452   22.8855 O   0  0  0  0  0  0  0  0  0  0  0  0
  -30.6394  -15.0881   16.9913 O   0  0  0  0  0  0  0  0  0  0  0  0
  -20.9832   -7.6610   20.4506 O   0  0  0  0  0  0  0  0  0  0  0  0
  -28.9969  -24.2583   21.7447 O   0  0  0  0  0  0  0  0  0  1  0  0
  -22.7188   -2.5612   21.6269 F   0  0  0  0  0  0  0  0  0  0  0  0
  -19.7926   -6.1866   22.4634 F   0  0  0  0  0  0  0  0  0  0  0  0
  -28.9812  -19.0306   21.4147 S   0  0  0  0  0  0  0  0  0  0  0  0
  1  2  1  0  0  0  0
  1  5  2  0  0  0  0
  2  6  2  0  0  0  0
  3  8  2  0  0  0  0
  3 16  1  0  0  0  0
  4  9  1  0  0  0  0
  4 16  2  0  0  0  0
  5 18  1  0  0  0  0
  6 20  1  0  0  0  0
  7 10  2  0  0  0  0
  7 19  1  0  0  0  0
  8 23  1  0  0  0  0
  9 23  2  0  0  0  0
 10 24  1  0  0  0  0
 11 12  2  0  0  0  0
 11 25  1  0  0  0  0
 12 26  1  0  0  0  0
 13 21  1  0  0  0  0
 13 24  2  0  0  0  0
 14 22  1  0  0  0  0
 14 31  2  0  0  0  0
 15 26  2  0  0  0  0
 15 27  1  0  0  0  0
 16 28  1  0  0  0  0
 17 28  1  0  0  0  0
 17 30  2  0  0  0  0
 17 32  1  0  0  0  0
 18 20  2  0  0  0  0
 18 37  1  0  0  0  0
 19 21  2  0  0  0  0
 19 38  1  0  0  0  0
 20 48  1  0  0  0  0
 21 39  1  0  0  0  0
 22 29  2  0  0  0  0
 22 40  1  0  0  0  0
 23 79  1  0  0  0  0
 24 80  1  0  0  0  0
 25 27  2  0  0  0  0
 25 79  1  0  0  0  0
 26 81  1  0  0  0  0
 27 82  1  0  0  0  0
 28 63  2  0  0  0  0
 29 41  1  0  0  0  0
 29 83  1  0  0  0  0
 30 64  1  0  0  0  0
 30 68  1  0  0  0  0
 31 70  1  0  0  0  0
 31 83  1  0  0  0  0
 32 69  1  0  0  0  0
 32 74  2  0  0  0  0
 33 49  1  0  0  0  0
 33 71  1  0  0  0  0
 33 75  2  0  0  0  0
 34 59  1  0  0  0  0
 34 65  1  0  0  0  0
 34 76  2  0  0  0  0
 35 60  1  0  0  0  0
 35 72  1  0  0  0  0
 35 77  2  0  0  0  0
 36 66  1  0  0  0  0
 36 67  1  0  0  0  0
 36 78  2  0  0  0  0
 37 42  1  0  0  0  0
 38 49  1  0  0  0  0
 39 65  1  0  0  0  0
 40 66  1  0  0  0  0
 41 66  1  0  0  0  0
 42 44  1  0  0  0  0
 43 45  1  0  0  0  0
 43 46  1  0  0  0  0
 44 48  1  0  0  0  0
 45 50  1  0  0  0  0
 46 67  1  0  0  0  0
 47 50  1  0  0  0  0
 47 67  1  0  0  0  0
 48 71  1  0  0  0  0
 49 65  1  0  0  0  0
 50 64  1  0  0  0  0
 51 60  1  0  0  0  0
 52 61  1  0  0  0  0
 53 61  1  0  0  0  0
 54 61  1  0  0  0  0
 55 62  1  0  0  0  0
 56 62  1  0  0  0  0
 57 73  1  0  0  0  0
 58 62  1  0  0  0  0
 58 70  1  0  0  0  0
 59 61  1  0  0  0  0
 59 72  1  0  0  0  0
 60 73  1  0  0  0  0
 62 80  1  0  0  0  0
 63 64  1  0  0  0  0
M  CHG  1  73   1
M  ISO  4  36 100  62 101  66 100  80 101
M  END
> <Batch ID>
0146

> <Smiles>
CNC(C)C(=O)NC(C(=O)N1Cc2cc([101O:1][101C:1](C)(C)CNc3cc4c(s3)C[100N:0]([100C:0](=O)N3CCCC(n5nc(-c6ccc(Oc7ccc(F)cc7F)cc6)c(C(N)=O)c5N)C3)C4)ccc2CC1C(=O)NC1CCCc2ccccc21)C(C)(C)C

> <Shape>
0.296

> <Color>
0.109

> <Negative vol penalty>
0.000

$$$$

  -OEChem-04052303103D

 84 93  0     1  0  0  0  0  0999 V2000
  -26.2968  -34.4709   25.3235 C   0  0  0  0  0  0  0  0  0  0  0  0
  -26.7899  -33.2868   24.7848 C   0  0  0  0  0  0  0  0  0  0  0  0
  -27.8959  -12.9544   21.2726 C   0  0  0  0  0  0  0  0  0  0  0  0
  -27.2099  -13.0095   18.9567 C   0  0  0  0  0  0  0  0  0  0  0  0
  -24.9522  -34.5666   25.6796 C   0  0  0  0  0  0  0  0  0  0  0  0
  -25.9388  -32.1973   24.6028 C   0  0  0  0  0  0  0  0  0  0  0  0
  -26.5540  -29.9838   20.0899 C   0  0  0  0  0  0  0  0  0  0  0  0
  -28.1864  -11.5953   21.1543 C   0  0  0  0  0  0  0  0  0  0  0  0
  -27.5005  -11.6504   18.8383 C   0  0  0  0  0  0  0  0  0  0  0  0
  -27.6539  -29.1405   19.9389 C   0  0  0  0  0  0  0  0  0  0  0  0
  -27.7208   -8.1151   18.0237 C   0  0  0  0  0  0  0  0  0  0  0  0
  -26.7915   -7.3082   17.3673 C   0  0  0  0  0  0  0  0  0  0  0  0
  -26.2239  -27.2261   20.2695 C   0  0  0  0  0  0  0  0  0  0  0  0
  -27.2749  -22.3891   19.0190 C   0  0  0  0  0  0  0  0  0  0  0  0
  -25.1181   -7.9029   19.0055 C   0  0  0  0  0  0  0  0  0  0  0  0
  -29.1522  -22.1710   17.6660 C   0  0  0  0  0  0  0  0  0  0  0  0
  -27.4075  -13.6615   20.1738 C   0  0  0  0  0  0  0  0  0  0  0  0
  -27.9794  -16.1451   20.0626 C   0  0  0  0  0  0  0  0  0  0  0  0
  -24.0821  -33.4810   25.4930 C   0  0  0  0  0  0  0  0  0  0  0  0
  -25.2805  -29.4542   20.3430 C   0  0  0  0  0  0  0  0  0  0  0  0
  -24.5816  -32.2782   24.9580 C   0  0  0  0  0  0  0  0  0  0  0  0
  -25.1090  -28.0647   20.4207 C   0  0  0  0  0  0  0  0  0  0  0  0
  -28.6757  -22.6104   18.8815 C   0  0  0  0  0  0  0  0  0  0  0  0
  -27.9888  -10.9433   19.9371 C   0  0  0  0  0  0  0  0  0  0  0  0
  -27.4895  -27.7616   20.0316 C   0  0  0  0  0  0  0  0  0  0  0  0
  -27.3488   -8.8158   19.1711 C   0  0  0  0  0  0  0  0  0  0  0  0
  -25.4902   -7.2021   17.8582 C   0  0  0  0  0  0  0  0  0  0  0  0
  -26.0475   -8.7097   19.6619 C   0  0  0  0  0  0  0  0  0  0  0  0
  -27.1067  -15.0653   20.2956 C   0  0  0  0  0  0  0  0  0  0  0  0
  -26.7340  -21.7891   17.9030 C   0  0  0  0  0  0  0  0  0  0  0  0
  -27.2192  -17.2612   20.3134 C   0  0  0  0  0  0  0  0  0  0  0  0
  -29.3542  -16.1397   19.6557 C   0  0  0  0  0  0  0  0  0  0  0  0
  -23.1870  -29.6867   22.7236 C   0  0  0  0  0  0  0  0  0  0  0  0
  -29.6249  -24.7594   19.8148 C   0  0  0  0  0  0  0  0  0  0  0  0
  -21.2958  -27.9888   20.7080 C   0  0  0  0  0  0  0  0  0  0  0  0
  -21.0715  -25.8347   18.0705 C   0  0  0  0  0  0  0  0  0  0  0  0
  -22.3545  -19.9394   19.4794 C   0  0  0  0  0  0  0  0  0  0  0  0
  -22.6471  -33.6162   25.9370 C   0  0  0  0  0  0  0  0  0  0  0  0
  -24.0995  -30.3761   20.4768 C   0  0  0  0  0  0  0  0  0  0  0  0
  -23.7592  -27.4450   20.6709 C   0  0  0  0  0  0  0  0  0  0  0  0
  -21.7283  -32.5401   25.3641 C   0  0  0  0  0  0  0  0  0  0  0  0
  -22.6438  -17.7552   22.4191 C   0  0  0  0  0  0  0  0  0  0  0  0
  -22.3676  -31.1622   25.5045 C   0  0  0  0  0  0  0  0  0  0  0  0
  -23.8787  -16.9153   22.0825 C   0  0  0  0  0  0  0  0  0  0  0  0
  -24.2426  -22.5036   17.7278 C   0  0  0  0  0  0  0  0  0  0  0  0
  -21.8888  -18.1948   21.1659 C   0  0  0  0  0  0  0  0  0  0  0  0
  -22.9357  -21.7405   17.8725 C   0  0  0  0  0  0  0  0  0  0  0  0
  -24.7370  -20.3615   18.6492 C   0  0  0  0  0  0  0  0  0  0  0  0
  -23.9408  -18.0121   19.8156 C   0  0  0  0  0  0  0  0  0  0  0  0
  -23.6842  -31.0827   24.7224 C   0  0  1  0  0  0  0  0  0  0  0  0
  -25.2962  -21.3898   17.6517 C   0  0  2  0  0  0  0  0  0  0  0  0
  -22.9377  -29.7515   21.2433 C   0  0  1  0  0  0  0  0  0  0  0  0
  -24.7715  -17.6259   21.0464 C   0  0  2  0  0  0  0  0  0  0  0  0
  -19.3926  -24.5973   16.6750 C   0  0  0  0  0  0  0  0  0  0  0  0
  -20.8893  -25.9880   22.9755 C   0  0  0  0  0  0  0  0  0  0  0  0
  -20.0310  -24.3526   21.2853 C   0  0  0  0  0  0  0  0  0  0  0  0
  -18.8272  -26.5054   21.6586 C   0  0  0  0  0  0  0  0  0  0  0  0
  -21.9344  -27.2162   15.5995 C   0  0  0  0  0  0  0  0  0  0  0  0
  -29.5192  -23.2391   19.9244 C   0  0  0  0  0  0  0  0  0  0  0  0
  -28.3365  -25.5397   19.9894 C   0  0  0  0  0  0  0  0  0  1  0  0
  -21.0502  -26.5210   20.4544 C   0  0  1  0  0  0  0  0  0  0  0  0
  -20.2199  -25.8657   16.8143 C   0  0  2  0  0  0  0  0  0  0  0  0
  -20.2253  -25.8532   21.5907 C   0  0  0  0  0  0  0  0  0  0  0  0
  -25.8856  -15.4599   20.6662 N   0  0  0  0  0  0  0  0  0  0  0  0
  -25.9856  -16.8001   20.6680 N   0  0  0  0  0  0  0  0  0  0  0  0
  -22.6365  -28.3884   20.8010 N   0  0  0  0  0  0  0  0  0  0  0  0
  -22.7946  -18.8339   20.2137 N   0  0  0  0  0  0  0  0  0  0  0  0
  -23.2834  -20.5461   18.6303 N   0  0  0  0  0  0  0  0  0  0  0  0
  -27.4924  -18.5823   20.2632 N   0  0  0  0  0  0  0  0  0  0  0  0
  -29.9826  -14.9054   19.4410 N   0  0  0  0  0  0  0  0  0  0  0  0
  -23.4229  -30.9162   23.3087 N   0  0  0  0  0  0  0  0  0  0  0  0
  -20.4321  -26.4324   19.1359 N   0  0  0  0  0  0  0  0  0  0  0  0
  -21.0829  -25.9988   15.6066 N   0  3  0  0  0  0  0  0  0  0  0  0
  -30.0108  -17.1976   19.5034 O   0  0  0  0  0  0  0  0  0  0  0  0
  -23.1654  -28.6019   23.2931 O   0  0  0  0  0  0  0  0  0  0  0  0
  -30.6964  -25.3233   19.5960 O   0  0  0  0  0  0  0  0  0  0  0  0
  -20.3338  -28.7537   20.8124 O   0  0  0  0  0  0  0  0  0  0  0  0
  -22.1904  -25.3273   18.1044 O   0  0  0  0  0  0  0  0  0  0  0  0
  -21.2104  -20.3893   19.6193 O   0  0  0  0  0  0  0  0  0  0  0  0
  -28.2724   -9.6171   19.8212 O   0  0  0  0  0  0  0  0  0  0  0  0
  -28.5726  -26.9277   19.8839 O   0  0  0  0  0  0  0  0  0  1  0  0
  -24.5974   -6.4284   17.2268 F   0  0  0  0  0  0  0  0  0  0  0  0
  -25.6840   -9.3814   20.7630 F   0  0  0  0  0  0  0  0  0  0  0  0
  -27.9131  -21.4950   16.6965 S   0  0  0  0  0  0  0  0  0  0  0  0
  1  2  1  0  0  0  0
  1  5  2  0  0  0  0
  2  6  2  0  0  0  0
  3  8  2  0  0  0  0
  3 17  1  0  0  0  0
  4  9  1  0  0  0  0
  4 17  2  0  0  0  0
  5 19  1  0  0  0  0
  6 21  1  0  0  0  0
  7 10  2  0  0  0  0
  7 20  1  0  0  0  0
  8 24  1  0  0  0  0
  9 24  2  0  0  0  0
 10 25  1  0  0  0  0
 11 12  2  0  0  0  0
 11 26  1  0  0  0  0
 12 27  1  0  0  0  0
 13 22  1  0  0  0  0
 13 25  2  0  0  0  0
 14 23  1  0  0  0  0
 14 30  2  0  0  0  0
 15 27  2  0  0  0  0
 15 28  1  0  0  0  0
 16 23  2  0  0  0  0
 16 84  1  0  0  0  0
 17 29  1  0  0  0  0
 18 29  1  0  0  0  0
 18 31  2  0  0  0  0
 18 32  1  0  0  0  0
 19 21  2  0  0  0  0
 19 38  1  0  0  0  0
 20 22  2  0  0  0  0
 20 39  1  0  0  0  0
 21 50  1  0  0  0  0
 22 40  1  0  0  0  0
 23 59  1  0  0  0  0
 24 80  1  0  0  0  0
 25 81  1  0  0  0  0
 26 28  2  0  0  0  0
 26 80  1  0  0  0  0
 27 82  1  0  0  0  0
 28 83  1  0  0  0  0
 29 64  2  0  0  0  0
 30 51  1  0  0  0  0
 30 84  1  0  0  0  0
 31 65  1  0  0  0  0
 31 69  1  0  0  0  0
 32 70  1  0  0  0  0
 32 74  2  0  0  0  0
 33 52  1  0  0  0  0
 33 71  1  0  0  0  0
 33 75  2  0  0  0  0
 34 59  1  0  0  0  0
 34 60  1  0  0  0  0
 34 76  2  0  0  0  0
 35 61  1  0  0  0  0
 35 66  1  0  0  0  0
 35 77  2  0  0  0  0
 36 62  1  0  0  0  0
 36 72  1  0  0  0  0
 36 78  2  0  0  0  0
 37 67  1  0  0  0  0
 37 68  1  0  0  0  0
 37 79  2  0  0  0  0
 38 41  1  0  0  0  0
 39 52  1  0  0  0  0
 40 66  1  0  0  0  0
 41 43  1  0  0  0  0
 42 44  1  0  0  0  0
 42 46  1  0  0  0  0
 43 50  1  0  0  0  0
 44 53  1  0  0  0  0
 45 47  1  0  0  0  0
 45 51  1  0  0  0  0
 46 67  1  0  0  0  0
 47 68  1  0  0  0  0
 48 51  1  0  0  0  0
 48 68  1  0  0  0  0
 49 53  1  0  0  0  0
 49 67  1  0  0  0  0
 50 71  1  0  0  0  0
 52 66  1  0  0  0  0
 53 65  1  0  0  0  0
 54 62  1  0  0  0  0
 55 63  1  0  0  0  0
 56 63  1  0  0  0  0
 57 63  1  0  0  0  0
 58 73  1  0  0  0  0
 60 81  1  0  0  0  0
 61 63  1  0  0  0  0
 61 72  1  0  0  0  0
 62 73  1  0  0  0  0
 64 65  1  0  0  0  0
M  CHG  1  73   1
M  ISO  4  37 100  60 101  68 100  81 101
M  END
> <Batch ID>
0146

> <Smiles>
CNC(C)C(=O)NC(C(=O)N1Cc2cc([101O:1][101CH2:1]C(=O)Cc3csc(C4CC[100N:0]([100C:0](=O)N5CCCC(n6nc(-c7ccc(Oc8ccc(F)cc8F)cc7)c(C(N)=O)c6N)C5)C4)c3)ccc2CC1C(=O)NC1CCCc2ccccc21)C(C)(C)C

> <Shape>
0.222

> <Color>
0.101

> <Negative vol penalty>
0.000

$$$$

  -OEChem-04052303103D

 88 97  0     1  0  0  0  0  0999 V2000
  -20.3297  -34.0680   20.5752 C   0  0  0  0  0  0  0  0  0  0  0  0
  -21.5423  -33.4432   20.3021 C   0  0  0  0  0  0  0  0  0  0  0  0
  -24.3404   -9.7618   21.2636 C   0  0  0  0  0  0  0  0  0  0  0  0
  -24.9684  -10.7141   23.3933 C   0  0  0  0  0  0  0  0  0  0  0  0
  -19.5421  -33.6250   21.6369 C   0  0  0  0  0  0  0  0  0  0  0  0
  -21.9685  -32.3755   21.0913 C   0  0  0  0  0  0  0  0  0  0  0  0
  -25.1463  -27.4748   19.2500 C   0  0  0  0  0  0  0  0  0  0  0  0
  -24.0020   -8.5665   21.8978 C   0  0  0  0  0  0  0  0  0  0  0  0
  -24.6300   -9.5188   24.0276 C   0  0  0  0  0  0  0  0  0  0  0  0
  -26.5037  -27.1614   19.3069 C   0  0  0  0  0  0  0  0  0  0  0  0
  -22.6322   -5.3855   23.0024 C   0  0  0  0  0  0  0  0  0  0  0  0
  -21.4325   -4.7748   22.6374 C   0  0  0  0  0  0  0  0  0  0  0  0
  -26.1268  -25.9253   21.3438 C   0  0  0  0  0  0  0  0  0  0  0  0
  -30.0905  -19.9428   20.0169 C   0  0  0  0  0  0  0  0  0  0  0  0
  -20.2173   -6.7399   23.3434 C   0  0  0  0  0  0  0  0  0  0  0  0
  -24.8237  -10.8357   22.0113 C   0  0  0  0  0  0  0  0  0  0  0  0
  -24.3319  -13.1719   21.1127 C   0  0  0  0  0  0  0  0  0  0  0  0
  -19.9543  -32.5451   22.4336 C   0  0  0  0  0  0  0  0  0  0  0  0
  -24.2694  -27.0242   20.2472 C   0  0  0  0  0  0  0  0  0  0  0  0
  -21.1863  -31.9185   22.1655 C   0  0  0  0  0  0  0  0  0  0  0  0
  -24.7583  -26.2322   21.2959 C   0  0  0  0  0  0  0  0  0  0  0  0
  -29.0673  -19.1119   20.5325 C   0  0  0  0  0  0  0  0  0  0  0  0
  -24.1468   -8.4450   23.2798 C   0  0  0  0  0  0  0  0  0  0  0  0
  -26.9946  -26.3890   20.3554 C   0  0  0  0  0  0  0  0  0  0  0  0
  -22.6245   -6.6735   23.5379 C   0  0  0  0  0  0  0  0  0  0  0  0
  -20.2250   -5.4519   22.8079 C   0  0  0  0  0  0  0  0  0  0  0  0
  -21.4170   -7.3507   23.7084 C   0  0  0  0  0  0  0  0  0  0  0  0
  -25.1740  -12.0705   21.3567 C   0  0  0  0  0  0  0  0  0  0  0  0
  -29.6991  -21.2358   20.2752 C   0  0  0  0  0  0  0  0  0  0  0  0
  -28.1237  -19.9564   21.0694 C   0  0  0  0  0  0  0  0  0  0  0  0
  -25.1348  -14.0822   20.4698 C   0  0  0  0  0  0  0  0  0  0  0  0
  -29.7196  -23.6048   19.6829 C   0  0  0  0  0  0  0  0  0  0  0  0
  -22.9477  -13.3558   21.4381 C   0  0  0  0  0  0  0  0  0  0  0  0
  -30.4296  -22.4827   19.9327 C   0  0  0  0  0  0  0  0  0  0  0  0
  -22.3997  -28.4360   22.3954 C   0  0  0  0  0  0  0  0  0  0  0  0
  -31.1439  -25.5503   20.3920 C   0  0  0  0  0  0  0  0  0  0  0  0
  -21.4206  -25.3966   22.9661 C   0  0  0  0  0  0  0  0  0  0  0  0
  -22.1053  -22.0565   22.8199 C   0  0  0  0  0  0  0  0  0  0  0  0
  -29.9548  -16.8236   19.9646 C   0  0  0  0  0  0  0  0  0  0  0  0
  -19.0914  -32.1323   23.5996 C   0  0  0  0  0  0  0  0  0  0  0  0
  -22.8034  -27.3485   20.1570 C   0  0  0  0  0  0  0  0  0  0  0  0
  -23.8550  -25.7068   22.3805 C   0  0  0  0  0  0  0  0  0  0  0  0
  -19.4379  -30.7535   24.1556 C   0  0  0  0  0  0  0  0  0  0  0  0
  -29.7758  -13.5772   18.5134 C   0  0  0  0  0  0  0  0  0  0  0  0
  -20.9467  -30.6114   24.3288 C   0  0  0  0  0  0  0  0  0  0  0  0
  -26.5397  -19.9954   23.1578 C   0  0  0  0  0  0  0  0  0  0  0  0
  -26.8906  -18.5607   22.9149 C   0  0  0  0  0  0  0  0  0  0  0  0
  -28.4934  -12.9864   19.1037 C   0  0  0  0  0  0  0  0  0  0  0  0
  -30.5203  -14.4436   19.5277 C   0  0  0  0  0  0  0  0  0  0  0  0
  -28.4299  -14.9056   20.7467 C   0  0  0  0  0  0  0  0  0  0  0  0
  -21.6711  -30.7412   22.9835 C   0  0  1  0  0  0  0  0  0  0  0  0
  -26.8199  -19.5220   21.7478 C   0  0  0  0  0  0  0  0  0  0  0  0
  -22.0897  -27.2676   21.5029 C   0  0  1  0  0  0  0  0  0  0  0  0
  -27.6119  -14.0778   19.7421 C   0  0  2  0  0  0  0  0  0  0  0  0
  -31.9278  -22.3586   19.8874 C   0  0  0  0  0  0  0  0  0  0  0  0
  -31.6912  -26.9484   20.2320 C   0  0  0  0  0  0  0  0  0  0  0  0
  -21.1278  -19.8181   23.3958 C   0  0  0  0  0  0  0  0  0  0  0  0
  -30.8958  -24.9273   17.9117 C   0  0  0  0  0  0  0  0  0  0  0  0
  -22.0688  -25.8735   25.9093 C   0  0  0  0  0  0  0  0  0  0  0  0
  -21.9905  -23.3952   26.2562 C   0  0  0  0  0  0  0  0  0  0  0  0
  -19.9487  -24.6120   25.4992 C   0  0  0  0  0  0  0  0  0  0  0  0
  -22.1382  -21.1848   19.9918 C   0  0  0  0  0  0  0  0  0  0  0  0
  -29.0152  -25.9707   19.1730 C   0  0  0  0  0  0  0  0  0  1  0  0
  -21.8664  -24.2844   23.8845 C   0  0  1  0  0  0  0  0  0  0  0  0
  -21.2852  -20.8810   22.3196 C   0  0  2  0  0  0  0  0  0  0  0  0
  -30.2132  -24.9945   19.2896 C   0  0  1  0  0  0  0  0  0  0  0  0
  -21.4862  -24.5527   25.3680 C   0  0  0  0  0  0  0  0  0  0  0  0
  -26.4165  -12.2615   20.9054 N   0  0  0  0  0  0  0  0  0  0  0  0
  -26.3611  -13.4935   20.3714 N   0  0  0  0  0  0  0  0  0  0  0  0
  -22.4306  -26.0562   22.2516 N   0  0  0  0  0  0  0  0  0  0  0  0
  -29.6238  -15.4575   20.0873 N   0  0  0  0  0  0  0  0  0  0  0  0
  -24.9043  -15.3208   19.9848 N   0  0  0  0  0  0  0  0  0  0  0  0
  -22.2734  -12.3201   22.0992 N   0  0  0  0  0  0  0  0  0  0  0  0
  -29.0113  -17.6963   20.5058 N   0  0  0  0  0  0  0  0  0  0  0  0
  -21.5525  -29.5143   22.2252 N   0  0  0  0  0  0  0  0  0  0  0  0
  -21.3059  -23.0537   23.3371 N   0  0  0  0  0  0  0  0  0  0  0  0
  -21.9418  -20.2577   21.1359 N   0  3  0  0  0  0  0  0  0  0  0  0
  -22.3229  -14.4009   21.1365 O   0  0  0  0  0  0  0  0  0  0  0  0
  -23.3372  -28.3639   23.1813 O   0  0  0  0  0  0  0  0  0  0  0  0
  -31.4033  -24.9069   21.4125 O   0  0  0  0  0  0  0  0  0  0  0  0
  -20.2197  -25.6653   22.8804 O   0  0  0  0  0  0  0  0  0  0  0  0
  -23.3326  -22.0853   22.7613 O   0  0  0  0  0  0  0  0  0  0  0  0
  -30.9850  -17.1931   19.3954 O   0  0  0  0  0  0  0  0  0  0  0  0
  -28.5013  -21.2528   20.9167 O   0  0  0  0  0  0  0  0  0  0  0  0
  -23.8165   -7.2788   23.8991 O   0  0  0  0  0  0  0  0  0  0  0  0
  -28.3191  -26.0822   20.4137 O   0  0  0  0  0  0  0  0  0  1  0  0
  -19.0731   -4.8659   22.4559 F   0  0  0  0  0  0  0  0  0  0  0  0
  -21.4033   -8.5887   24.2213 F   0  0  0  0  0  0  0  0  0  0  0  0
  1  2  1  0  0  0  0
  1  5  2  0  0  0  0
  2  6  2  0  0  0  0
  3  8  2  0  0  0  0
  3 16  1  0  0  0  0
  4  9  1  0  0  0  0
  4 16  2  0  0  0  0
  5 18  1  0  0  0  0
  6 20  1  0  0  0  0
  7 10  2  0  0  0  0
  7 19  1  0  0  0  0
  8 23  1  0  0  0  0
  9 23  2  0  0  0  0
 10 24  1  0  0  0  0
 11 12  2  0  0  0  0
 11 25  1  0  0  0  0
 12 26  1  0  0  0  0
 13 21  1  0  0  0  0
 13 24  2  0  0  0  0
 14 22  1  0  0  0  0
 14 29  2  0  0  0  0
 15 26  2  0  0  0  0
 15 27  1  0  0  0  0
 16 28  1  0  0  0  0
 17 28  1  0  0  0  0
 17 31  2  0  0  0  0
 17 33  1  0  0  0  0
 18 20  2  0  0  0  0
 18 40  1  0  0  0  0
 19 21  2  0  0  0  0
 19 41  1  0  0  0  0
 20 51  1  0  0  0  0
 21 42  1  0  0  0  0
 22 30  2  0  0  0  0
 22 74  1  0  0  0  0
 23 85  1  0  0  0  0
 24 86  1  0  0  0  0
 25 27  2  0  0  0  0
 25 85  1  0  0  0  0
 26 87  1  0  0  0  0
 27 88  1  0  0  0  0
 28 68  2  0  0  0  0
 29 34  1  0  0  0  0
 29 84  1  0  0  0  0
 30 52  1  0  0  0  0
 30 84  1  0  0  0  0
 31 69  1  0  0  0  0
 31 72  1  0  0  0  0
 32 34  2  0  0  0  0
 32 66  1  0  0  0  0
 33 73  1  0  0  0  0
 33 78  2  0  0  0  0
 34 55  1  0  0  0  0
 35 53  1  0  0  0  0
 35 75  1  0  0  0  0
 35 79  2  0  0  0  0
 36 56  1  0  0  0  0
 36 66  1  0  0  0  0
 36 80  2  0  0  0  0
 37 64  1  0  0  0  0
 37 70  1  0  0  0  0
 37 81  2  0  0  0  0
 38 65  1  0  0  0  0
 38 76  1  0  0  0  0
 38 82  2  0  0  0  0
 39 71  1  0  0  0  0
 39 74  1  0  0  0  0
 39 83  2  0  0  0  0
 40 43  1  0  0  0  0
 41 53  1  0  0  0  0
 42 70  1  0  0  0  0
 43 45  1  0  0  0  0
 44 48  1  0  0  0  0
 44 49  1  0  0  0  0
 45 51  1  0  0  0  0
 46 47  1  0  0  0  0
 46 52  1  0  0  0  0
 47 52  1  0  0  0  0
 48 54  1  0  0  0  0
 49 71  1  0  0  0  0
 50 54  1  0  0  0  0
 50 71  1  0  0  0  0
 51 75  1  0  0  0  0
 53 70  1  0  0  0  0
 54 69  1  0  0  0  0
 57 65  1  0  0  0  0
 58 66  1  0  0  0  0
 59 67  1  0  0  0  0
 60 67  1  0  0  0  0
 61 67  1  0  0  0  0
 62 77  1  0  0  0  0
 63 66  1  0  0  0  0
 63 86  1  0  0  0  0
 64 67  1  0  0  0  0
 64 76  1  0  0  0  0
 65 77  1  0  0  0  0
 68 69  1  0  0  0  0
M  CHG  1  77   1
M  ISO  4  39 100  63 101  74 100  86 101
M  END
> <Batch ID>
0146

> <Smiles>
CNC(C)C(=O)NC(C(=O)N1Cc2cc([101O:1][101CH2:1]C(C)(C=C(C)c3cc([100NH:0][100C:0](=O)N4CCCC(n5nc(-c6ccc(Oc7ccc(F)cc7F)cc6)c(C(N)=O)c5N)C4)c(C4CC4)o3)C(C)=O)ccc2CC1C(=O)NC1CCCc2ccccc21)C(C)(C)C

> <Shape>
0.279

> <Color>
0.147

> <Negative vol penalty>
0.000

$$$$

  -OEChem-04052303103D

 94103  0     1  0  0  0  0  0999 V2000
  -24.3323  -35.0749   20.1482 C   0  0  0  0  0  0  0  0  0  0  0  0
  -24.3858  -33.7663   19.6790 C   0  0  0  0  0  0  0  0  0  0  0  0
  -26.6564  -12.3703   21.7647 C   0  0  0  0  0  0  0  0  0  0  0  0
  -25.9377  -13.8623   20.0055 C   0  0  0  0  0  0  0  0  0  0  0  0
  -24.1861  -35.3194   21.5130 C   0  0  0  0  0  0  0  0  0  0  0  0
  -24.2943  -32.7014   20.5746 C   0  0  0  0  0  0  0  0  0  0  0  0
  -21.6275  -27.2778   19.5855 C   0  0  0  0  0  0  0  0  0  0  0  0
  -25.3884  -11.7897   21.7903 C   0  0  0  0  0  0  0  0  0  0  0  0
  -24.6697  -13.2816   20.0311 C   0  0  0  0  0  0  0  0  0  0  0  0
  -22.1403  -26.0320   19.2263 C   0  0  0  0  0  0  0  0  0  0  0  0
  -23.6450   -9.5331   19.9733 C   0  0  0  0  0  0  0  0  0  0  0  0
  -23.5703   -8.1411   20.0205 C   0  0  0  0  0  0  0  0  0  0  0  0
  -27.9011  -23.8891   20.0577 C   0  0  0  0  0  0  0  0  0  0  0  0
  -28.4840  -21.5793   19.6554 C   0  0  0  0  0  0  0  0  0  0  0  0
  -22.1789  -25.3848   21.5499 C   0  0  0  0  0  0  0  0  0  0  0  0
  -29.0805  -22.6289   21.7482 C   0  0  0  0  0  0  0  0  0  0  0  0
  -22.3725   -8.2764   22.1144 C   0  0  0  0  0  0  0  0  0  0  0  0
  -26.9310  -13.4067   20.8723 C   0  0  0  0  0  0  0  0  0  0  0  0
  -27.8966  -22.7694   19.2260 C   0  0  0  0  0  0  0  0  0  0  0  0
  -29.3409  -13.6129   20.0614 C   0  0  0  0  0  0  0  0  0  0  0  0
  -24.0830  -34.2570   22.4247 C   0  0  0  0  0  0  0  0  0  0  0  0
  -21.3965  -27.5909   20.9327 C   0  0  0  0  0  0  0  0  0  0  0  0
  -24.1480  -32.9320   21.9531 C   0  0  0  0  0  0  0  0  0  0  0  0
  -21.6608  -26.6343   21.9233 C   0  0  0  0  0  0  0  0  0  0  0  0
  -28.4931  -23.8189   21.3188 C   0  0  0  0  0  0  0  0  0  0  0  0
  -29.0760  -21.5091   20.9165 C   0  0  0  0  0  0  0  0  0  0  0  0
  -24.3951  -12.2453   20.9235 C   0  0  0  0  0  0  0  0  0  0  0  0
  -22.4187  -25.0864   20.2088 C   0  0  0  0  0  0  0  0  0  0  0  0
  -23.0835  -10.2968   20.9967 C   0  0  0  0  0  0  0  0  0  0  0  0
  -22.9340   -7.5127   21.0910 C   0  0  0  0  0  0  0  0  0  0  0  0
  -22.4472   -9.6684   22.0672 C   0  0  0  0  0  0  0  0  0  0  0  0
  -28.2405  -14.0073   20.8458 C   0  0  0  0  0  0  0  0  0  0  0  0
  -30.3380  -14.4945   20.4007 C   0  0  0  0  0  0  0  0  0  0  0  0
  -27.2705  -22.8439   17.8938 C   0  0  0  0  0  0  0  0  0  0  0  0
  -29.4519  -12.5451   19.1111 C   0  0  0  0  0  0  0  0  0  0  0  0
  -22.5263  -29.7669   22.9556 C   0  0  0  0  0  0  0  0  0  0  0  0
  -27.6701  -27.5652   23.4546 C   0  0  0  0  0  0  0  0  0  0  0  0
  -20.2611  -28.5421   24.9282 C   0  0  0  0  0  0  0  0  0  0  0  0
  -18.2674  -25.9011   25.7633 C   0  0  0  0  0  0  0  0  0  0  0  0
  -30.3003  -20.0603   22.5744 C   0  0  0  0  0  0  0  0  0  0  0  0
  -23.9736  -34.5709   23.8958 C   0  0  0  0  0  0  0  0  0  0  0  0
  -20.8180  -28.9294   21.3015 C   0  0  0  0  0  0  0  0  0  0  0  0
  -21.4114  -26.9136   23.3821 C   0  0  0  0  0  0  0  0  0  0  0  0
  -23.5074  -33.3864   24.7384 C   0  0  0  0  0  0  0  0  0  0  0  0
  -31.8550  -17.2123   24.0403 C   0  0  0  0  0  0  0  0  0  0  0  0
  -24.2752  -32.1249   24.3568 C   0  0  0  0  0  0  0  0  0  0  0  0
  -31.2091  -16.0315   23.3118 C   0  0  0  0  0  0  0  0  0  0  0  0
  -23.9564  -21.9048   16.8022 C   0  0  0  0  0  0  0  0  0  0  0  0
  -30.8574  -18.3436   24.2825 C   0  0  0  0  0  0  0  0  0  0  0  0
  -25.2797  -22.5891   16.4748 C   0  0  0  0  0  0  0  0  0  0  0  0
  -29.4964  -17.6267   22.3582 C   0  0  0  0  0  0  0  0  0  0  0  0
  -25.1325  -22.1316   18.8860 C   0  0  0  0  0  0  0  0  0  0  0  0
  -24.0272  -31.7503   22.8906 C   0  0  1  0  0  0  0  0  0  0  0  0
  -21.1050  -29.3269   22.7462 C   0  0  1  0  0  0  0  0  0  0  0  0
  -30.4785  -16.4890   22.0341 C   0  0  2  0  0  0  0  0  0  0  0  0
  -23.7150  -22.2173   18.2912 C   0  0  2  0  0  0  0  0  0  0  0  0
  -26.8749  -28.1137   22.2923 C   0  0  0  0  0  0  0  0  0  0  0  0
  -22.7732  -21.1964   18.9312 C   0  0  0  0  0  0  0  0  0  0  0  0
  -16.5497  -25.1845   27.4465 C   0  0  0  0  0  0  0  0  0  0  0  0
  -25.7801  -26.4287   24.6736 C   0  0  0  0  0  0  0  0  0  0  0  0
  -28.1403  -25.9438   25.2978 C   0  0  0  0  0  0  0  0  0  0  0  0
  -22.4646  -28.1314   26.9985 C   0  0  0  0  0  0  0  0  0  0  0  0
  -20.9243  -26.5885   28.2295 C   0  0  0  0  0  0  0  0  0  0  0  0
  -20.3060  -28.9864   27.9280 C   0  0  0  0  0  0  0  0  0  0  0  0
  -16.2056  -25.5291   23.6730 C   0  0  0  0  0  0  0  0  0  0  0  0
  -28.4971  -25.0161   22.2085 C   0  0  0  0  0  0  0  0  0  0  0  0
  -23.1360  -23.6297   18.4711 C   0  0  0  0  0  0  0  0  0  1  0  0
  -27.2507  -25.0665   23.1148 C   0  0  0  0  0  0  0  0  0  0  0  0
  -20.2174  -27.4243   25.9420 C   0  0  1  0  0  0  0  0  0  0  0  0
  -16.7861  -25.8194   26.0850 C   0  0  2  0  0  0  0  0  0  0  0  0
  -27.2045  -26.2491   24.1142 C   0  0  0  0  0  0  0  0  0  0  0  0
  -20.9847  -27.7778   27.2473 C   0  0  0  0  0  0  0  0  0  0  0  0
  -28.5126  -15.0576   21.6248 N   0  0  0  0  0  0  0  0  0  0  0  0
  -29.7954  -15.3306   21.3316 N   0  0  0  0  0  0  0  0  0  0  0  0
  -25.9913  -22.5442   17.7605 N   0  0  0  0  0  0  0  0  0  0  0  0
  -20.8508  -28.2390   23.6928 N   0  0  0  0  0  0  0  0  0  0  0  0
  -30.2073  -18.7273   23.0275 N   0  0  0  0  0  0  0  0  0  0  0  0
  -31.6172  -14.6283   19.9906 N   0  0  0  0  0  0  0  0  0  0  0  0
  -28.3314  -11.7348   18.8826 N   0  0  0  0  0  0  0  0  0  0  0  0
  -29.6708  -20.2994   21.3533 N   0  0  0  0  0  0  0  0  0  0  0  0
  -22.7348  -31.1162   22.7427 N   0  0  0  0  0  0  0  0  0  0  0  0
  -18.8068  -27.1116   26.1442 N   0  0  0  0  0  0  0  0  0  0  0  0
  -28.0031  -23.2135   16.8474 N   0  3  0  0  0  0  0  0  0  0  0  0
  -16.0770  -25.0056   25.0574 N   0  3  0  0  0  0  0  0  0  0  0  0
  -30.5182  -12.3060   18.4951 O   0  0  0  0  0  0  0  0  0  0  0  0
  -23.3710  -28.9434   23.2874 O   0  0  0  0  0  0  0  0  0  0  0  0
  -28.6701  -28.1712   23.8471 O   0  0  0  0  0  0  0  0  0  0  0  0
  -19.7831  -29.6414   25.2191 O   0  0  0  0  0  0  0  0  0  0  0  0
  -18.8852  -24.9815   25.2311 O   0  0  0  0  0  0  0  0  0  0  0  0
  -30.9177  -20.9197   23.2086 O   0  0  0  0  0  0  0  0  0  0  0  0
  -23.1578  -11.6788   20.9480 O   0  0  0  0  0  0  0  0  0  0  0  0
  -22.9198  -23.8699   19.8610 O   0  0  0  0  0  0  0  0  0  1  0  0
  -22.8610   -6.1759   21.1355 F   0  0  0  0  0  0  0  0  0  0  0  0
  -21.9049  -10.3968   23.0527 F   0  0  0  0  0  0  0  0  0  0  0  0
  1  2  1  0  0  0  0
  1  5  2  0  0  0  0
  2  6  2  0  0  0  0
  3  8  2  0  0  0  0
  3 18  1  0  0  0  0
  4  9  1  0  0  0  0
  4 18  2  0  0  0  0
  5 21  1  0  0  0  0
  6 23  1  0  0  0  0
  7 10  2  0  0  0  0
  7 22  1  0  0  0  0
  8 27  1  0  0  0  0
  9 27  2  0  0  0  0
 10 28  1  0  0  0  0
 11 12  2  0  0  0  0
 11 29  1  0  0  0  0
 12 30  1  0  0  0  0
 13 19  1  0  0  0  0
 13 25  2  0  0  0  0
 14 19  2  0  0  0  0
 14 26  1  0  0  0  0
 15 24  1  0  0  0  0
 15 28  2  0  0  0  0
 16 25  1  0  0  0  0
 16 26  2  0  0  0  0
 17 30  2  0  0  0  0
 17 31  1  0  0  0  0
 18 32  1  0  0  0  0
 19 34  1  0  0  0  0
 20 32  1  0  0  0  0
 20 33  2  0  0  0  0
 20 35  1  0  0  0  0
 21 23  2  0  0  0  0
 21 41  1  0  0  0  0
 22 24  2  0  0  0  0
 22 42  1  0  0  0  0
 23 53  1  0  0  0  0
 24 43  1  0  0  0  0
 25 66  1  0  0  0  0
 26 80  1  0  0  0  0
 27 91  1  0  0  0  0
 28 92  1  0  0  0  0
 29 31  2  0  0  0  0
 29 91  1  0  0  0  0
 30 93  1  0  0  0  0
 31 94  1  0  0  0  0
 32 73  2  0  0  0  0
 33 74  1  0  0  0  0
 33 78  1  0  0  0  0
 34 75  1  0  0  0  0
 34 83  2  0  0  0  0
 35 79  1  0  0  0  0
 35 85  2  0  0  0  0
 36 54  1  0  0  0  0
 36 81  1  0  0  0  0
 36 86  2  0  0  0  0
 37 57  1  0  0  0  0
 37 71  1  0  0  0  0
 37 87  2  0  0  0  0
 38 69  1  0  0  0  0
 38 76  1  0  0  0  0
 38 88  2  0  0  0  0
 39 70  1  0  0  0  0
 39 82  1  0  0  0  0
 39 89  2  0  0  0  0
 40 77  1  0  0  0  0
 40 80  1  0  0  0  0
 40 90  2  0  0  0  0
 41 44  1  0  0  0  0
 42 54  1  0  0  0  0
 43 76  1  0  0  0  0
 44 46  1  0  0  0  0
 45 47  1  0  0  0  0
 45 49  1  0  0  0  0
 46 53  1  0  0  0  0
 47 55  1  0  0  0  0
 48 50  1  0  0  0  0
 48 56  1  0  0  0  0
 49 77  1  0  0  0  0
 50 75  1  0  0  0  0
 51 55  1  0  0  0  0
 51 77  1  0  0  0  0
 52 56  1  0  0  0  0
 52 75  1  0  0  0  0
 53 81  1  0  0  0  0
 54 76  1  0  0  0  0
 55 74  1  0  0  0  0
 56 58  1  0  0  0  0
 56 67  1  0  0  0  0
 59 70  1  0  0  0  0
 60 71  1  0  0  0  0
 61 71  1  0  0  0  0
 62 72  1  0  0  0  0
 63 72  1  0  0  0  0
 64 72  1  0  0  0  0
 65 84  1  0  0  0  0
 66 68  1  0  0  0  0
 67 92  1  0  0  0  0
 68 71  1  0  0  0  0
 69 72  1  0  0  0  0
 69 82  1  0  0  0  0
 70 84  1  0  0  0  0
 73 74  1  0  0  0  0
M  CHG  2  83   1  84   1
M  ISO  4  40 100  67 101  80 100  92 101
M  END
> <Batch ID>
0146

> <Smiles>
CNC(C)C(=O)NC(C(=O)N1Cc2cc([101O:1][101CH2:1]C3(C)CCN(C(=N)c4cc(CCC(C)(C)C(C)=O)cc([100NH:0][100C:0](=O)N5CCCC(n6nc(-c7ccc(Oc8ccc(F)cc8F)cc7)c(C(N)=O)c6N)C5)c4)C3)ccc2CC1C(=O)NC1CCCc2ccccc21)C(C)(C)C

> <Shape>
0.232

> <Color>
0.065

> <Negative vol penalty>
0.000

$$$$

  -OEChem-04052303103D

 87 95  0     1  0  0  0  0  0999 V2000
  -24.6737  -36.1408   23.9629 C   0  0  0  0  0  0  0  0  0  0  0  0
  -24.8381  -34.7635   24.0693 C   0  0  0  0  0  0  0  0  0  0  0  0
  -23.0775   -9.8636   19.9454 C   0  0  0  0  0  0  0  0  0  0  0  0
  -23.8344   -9.8794   22.2397 C   0  0  0  0  0  0  0  0  0  0  0  0
  -25.0589  -36.7997   22.7961 C   0  0  0  0  0  0  0  0  0  0  0  0
  -25.3870  -34.0440   23.0083 C   0  0  0  0  0  0  0  0  0  0  0  0
  -29.0079  -29.1192   23.3824 C   0  0  0  0  0  0  0  0  0  0  0  0
  -22.3340   -8.7109   20.1986 C   0  0  0  0  0  0  0  0  0  0  0  0
  -23.0908   -8.7267   22.4929 C   0  0  0  0  0  0  0  0  0  0  0  0
  -28.7488  -27.7538   23.2714 C   0  0  0  0  0  0  0  0  0  0  0  0
  -19.8623   -7.9292   23.0941 C   0  0  0  0  0  0  0  0  0  0  0  0
  -19.1038   -7.8931   24.2641 C   0  0  0  0  0  0  0  0  0  0  0  0
  -29.3940  -27.8265   20.9481 C   0  0  0  0  0  0  0  0  0  0  0  0
  -30.5807  -19.8750   21.4743 C   0  0  0  0  0  0  0  0  0  0  0  0
  -29.5131  -17.8942   22.3538 C   0  0  0  0  0  0  0  0  0  0  0  0
  -31.1471  -17.7013   20.5847 C   0  0  0  0  0  0  0  0  0  0  0  0
  -20.3454   -5.9591   25.0093 C   0  0  0  0  0  0  0  0  0  0  0  0
  -23.8278  -10.4478   20.9660 C   0  0  0  0  0  0  0  0  0  0  0  0
  -24.1683  -12.9727   20.8372 C   0  0  0  0  0  0  0  0  0  0  0  0
  -25.6216  -36.0893   21.7241 C   0  0  0  0  0  0  0  0  0  0  0  0
  -29.4524  -29.8519   22.2725 C   0  0  0  0  0  0  0  0  0  0  0  0
  -25.7788  -34.6938   21.8256 C   0  0  0  0  0  0  0  0  0  0  0  0
  -29.6606  -29.2005   21.0484 C   0  0  0  0  0  0  0  0  0  0  0  0
  -29.6802  -19.2790   22.3572 C   0  0  0  0  0  0  0  0  0  0  0  0
  -31.3142  -19.0861   20.5880 C   0  0  0  0  0  0  0  0  0  0  0  0
  -30.2466  -17.1053   21.4676 C   0  0  0  0  0  0  0  0  0  0  0  0
  -22.3406   -8.1425   21.4723 C   0  0  0  0  0  0  0  0  0  0  0  0
  -28.9390  -27.1078   22.0533 C   0  0  0  0  0  0  0  0  0  0  0  0
  -20.8623   -6.9802   22.8816 C   0  0  0  0  0  0  0  0  0  0  0  0
  -19.3454   -6.9081   25.2217 C   0  0  0  0  0  0  0  0  0  0  0  0
  -21.1038   -5.9952   23.8392 C   0  0  0  0  0  0  0  0  0  0  0  0
  -24.5965  -11.6382   20.7049 C   0  0  0  0  0  0  0  0  0  0  0  0
  -25.2605  -13.7215   20.4726 C   0  0  0  0  0  0  0  0  0  0  0  0
  -22.8970  -13.4893   21.2525 C   0  0  0  0  0  0  0  0  0  0  0  0
  -28.3092  -32.2985   20.5959 C   0  0  0  0  0  0  0  0  0  0  0  0
  -27.9971  -23.6305   22.8255 C   0  0  0  0  0  0  0  0  0  0  0  0
  -31.1895  -32.1244   19.1140 C   0  0  0  0  0  0  0  0  0  0  0  0
  -33.9047  -30.2364   18.2712 C   0  0  0  0  0  0  0  0  0  0  0  0
  -30.7258  -14.7709   20.6507 C   0  0  0  0  0  0  0  0  0  0  0  0
  -25.9791  -36.8384   20.4648 C   0  0  0  0  0  0  0  0  0  0  0  0
  -29.7530  -31.3187   22.4156 C   0  0  0  0  0  0  0  0  0  0  0  0
  -30.1558  -29.9377   19.8319 C   0  0  0  0  0  0  0  0  0  0  0  0
  -26.8986  -36.0558   19.5308 C   0  0  0  0  0  0  0  0  0  0  0  0
  -29.6160  -12.3478   18.2898 C   0  0  0  0  0  0  0  0  0  0  0  0
  -26.3977  -34.6247   19.3643 C   0  0  0  0  0  0  0  0  0  0  0  0
  -28.1759  -12.0570   18.7185 C   0  0  0  0  0  0  0  0  0  0  0  0
  -30.5293  -12.5815   19.4918 C   0  0  0  0  0  0  0  0  0  0  0  0
  -28.6202  -13.3099   20.8679 C   0  0  0  0  0  0  0  0  0  0  0  0
  -26.3933  -33.8821   20.7059 C   0  0  1  0  0  0  0  0  0  0  0  0
  -29.7102  -32.0697   21.0884 C   0  0  1  0  0  0  0  0  0  0  0  0
  -27.6490  -13.1318   19.6894 C   0  0  2  0  0  0  0  0  0  0  0  0
  -36.0791  -30.3591   17.0245 C   0  0  0  0  0  0  0  0  0  0  0  0
  -29.6783  -31.9689   16.4679 C   0  0  0  0  0  0  0  0  0  0  0  0
  -31.7860  -31.1510   15.3923 C   0  0  0  0  0  0  0  0  0  0  0  0
  -31.7137  -33.4214   16.4231 C   0  0  0  0  0  0  0  0  0  0  0  0
  -26.2655  -20.8068   24.8802 C   0  0  0  0  0  0  0  0  0  0  0  0
  -25.3983  -21.9269   22.8223 C   0  0  0  0  0  0  0  0  0  0  0  0
  -35.4696  -29.6261   20.7079 C   0  0  0  0  0  0  0  0  0  0  0  0
  -28.8863  -20.1330   23.3164 C   0  0  0  0  0  0  0  0  0  0  0  0
  -27.4897  -22.7773   23.9781 C   0  0  0  0  0  0  0  0  0  0  0  0
  -28.2284  -25.1010   23.1133 C   0  0  0  0  0  0  0  0  0  1  0  0
  -27.5529  -20.5766   22.6969 C   0  0  0  0  0  0  0  0  0  0  0  0
  -31.7329  -31.3819   17.9171 C   0  0  1  0  0  0  0  0  0  0  0  0
  -35.3940  -30.5117   18.3737 C   0  0  2  0  0  0  0  0  0  0  0  0
  -31.2165  -31.9670   16.5723 C   0  0  0  0  0  0  0  0  0  0  0  0
  -26.6778  -21.5175   23.5736 C   0  0  0  0  0  0  0  0  0  0  0  0
  -25.8620  -11.5416   20.2886 N   0  0  0  0  0  0  0  0  0  0  0  0
  -26.2383  -12.8249   20.1561 N   0  0  0  0  0  0  0  0  0  0  0  0
  -30.4295  -31.3719   20.0207 N   0  0  0  0  0  0  0  0  0  0  0  0
  -29.9686  -13.6152   20.3647 N   0  0  0  0  0  0  0  0  0  0  0  0
  -32.2248  -19.6892   19.6952 N   0  0  0  0  0  0  0  0  0  0  0  0
  -25.4702  -15.0528   20.3950 N   0  0  0  0  0  0  0  0  0  0  0  0
  -21.8851  -12.5808   21.5918 N   0  0  0  0  0  0  0  0  0  0  0  0
  -30.0769  -15.6986   21.4649 N   0  0  0  0  0  0  0  0  0  0  0  0
  -27.7341  -33.4668   21.0582 N   0  0  0  0  0  0  0  0  0  0  0  0
  -33.1852  -31.3926   18.0550 N   0  0  0  0  0  0  0  0  0  0  0  0
  -36.0307  -29.5662   19.3337 N   0  3  0  0  0  0  0  0  0  0  0  0
  -22.6599  -14.7200   21.3051 O   0  0  0  0  0  0  0  0  0  0  0  0
  -27.7891  -31.4767   19.8504 O   0  0  0  0  0  0  0  0  0  0  0  0
  -28.2188  -23.1430   21.7172 O   0  0  0  0  0  0  0  0  0  0  0  0
  -31.4365  -33.3260   19.2435 O   0  0  0  0  0  0  0  0  0  0  0  0
  -33.4276  -29.1079   18.3693 O   0  0  0  0  0  0  0  0  0  0  0  0
  -31.8555  -14.9386   20.1840 O   0  0  0  0  0  0  0  0  0  0  0  0
  -21.6150   -7.0179   21.7198 O   0  0  0  0  0  0  0  0  0  0  0  0
  -28.6862  -25.7753   21.9420 O   0  0  0  0  0  0  0  0  0  1  0  0
  -18.6180   -6.8745   26.3460 F   0  0  0  0  0  0  0  0  0  0  0  0
  -22.0640   -5.0815   23.6412 F   0  0  0  0  0  0  0  0  0  0  0  0
  1  2  1  0  0  0  0
  1  5  2  0  0  0  0
  2  6  2  0  0  0  0
  3  8  2  0  0  0  0
  3 18  1  0  0  0  0
  4  9  1  0  0  0  0
  4 18  2  0  0  0  0
  5 20  1  0  0  0  0
  6 22  1  0  0  0  0
  7 10  2  0  0  0  0
  7 21  1  0  0  0  0
  8 27  1  0  0  0  0
  9 27  2  0  0  0  0
 10 28  1  0  0  0  0
 11 12  2  0  0  0  0
 11 29  1  0  0  0  0
 12 30  1  0  0  0  0
 13 23  1  0  0  0  0
 13 28  2  0  0  0  0
 14 24  1  0  0  0  0
 14 25  2  0  0  0  0
 15 24  2  0  0  0  0
 15 26  1  0  0  0  0
 16 25  1  0  0  0  0
 16 26  2  0  0  0  0
 17 30  2  0  0  0  0
 17 31  1  0  0  0  0
 18 32  1  0  0  0  0
 19 32  1  0  0  0  0
 19 33  2  0  0  0  0
 19 34  1  0  0  0  0
 20 22  2  0  0  0  0
 20 40  1  0  0  0  0
 21 23  2  0  0  0  0
 21 41  1  0  0  0  0
 22 49  1  0  0  0  0
 23 42  1  0  0  0  0
 24 59  1  0  0  0  0
 25 71  1  0  0  0  0
 26 74  1  0  0  0  0
 27 84  1  0  0  0  0
 28 85  1  0  0  0  0
 29 31  2  0  0  0  0
 29 84  1  0  0  0  0
 30 86  1  0  0  0  0
 31 87  1  0  0  0  0
 32 67  2  0  0  0  0
 33 68  1  0  0  0  0
 33 72  1  0  0  0  0
 34 73  1  0  0  0  0
 34 78  2  0  0  0  0
 35 50  1  0  0  0  0
 35 75  1  0  0  0  0
 35 79  2  0  0  0  0
 36 60  1  0  0  0  0
 36 61  1  0  0  0  0
 36 80  2  0  0  0  0
 37 63  1  0  0  0  0
 37 69  1  0  0  0  0
 37 81  2  0  0  0  0
 38 64  1  0  0  0  0
 38 76  1  0  0  0  0
 38 82  2  0  0  0  0
 39 70  1  0  0  0  0
 39 74  1  0  0  0  0
 39 83  2  0  0  0  0
 40 43  1  0  0  0  0
 41 50  1  0  0  0  0
 42 69  1  0  0  0  0
 43 45  1  0  0  0  0
 44 46  1  0  0  0  0
 44 47  1  0  0  0  0
 45 49  1  0  0  0  0
 46 51  1  0  0  0  0
 47 70  1  0  0  0  0
 48 51  1  0  0  0  0
 48 70  1  0  0  0  0
 49 75  1  0  0  0  0
 50 69  1  0  0  0  0
 51 68  1  0  0  0  0
 52 64  1  0  0  0  0
 53 65  1  0  0  0  0
 54 65  1  0  0  0  0
 55 65  1  0  0  0  0
 56 66  1  0  0  0  0
 57 66  1  0  0  0  0
 58 77  1  0  0  0  0
 59 62  1  0  0  0  0
 60 66  1  0  0  0  0
 61 85  1  0  0  0  0
 62 66  1  0  0  0  0
 63 65  1  0  0  0  0
 63 76  1  0  0  0  0
 64 77  1  0  0  0  0
 67 68  1  0  0  0  0
M  CHG  1  77   1
M  ISO  4  39 100  61 101  74 100  85 101
M  END
> <Batch ID>
0146

> <Smiles>
CNC(C)C(=O)NC(C(=O)N1Cc2cc([101O:1][101CH2:1]C(=O)CC(C)(C)CCc3cc(N)cc([100NH:0][100C:0](=O)N4CCCC(n5nc(-c6ccc(Oc7ccc(F)cc7F)cc6)c(C(N)=O)c5N)C4)c3)ccc2CC1C(=O)NC1CCCc2ccccc21)C(C)(C)C

> <Shape>
0.235

> <Color>
0.180

> <Negative vol penalty>
0.000

$$$$

  -OEChem-04052303103D

 86 95  0     1  0  0  0  0  0999 V2000
  -29.0025  -33.9225   30.5574 C   0  0  0  0  0  0  0  0  0  0  0  0
  -29.2210  -32.5538   30.6772 C   0  0  0  0  0  0  0  0  0  0  0  0
  -23.1157   -9.7878   19.9541 C   0  0  0  0  0  0  0  0  0  0  0  0
  -23.8433   -9.8580   22.2568 C   0  0  0  0  0  0  0  0  0  0  0  0
  -28.2504  -34.4166   29.4924 C   0  0  0  0  0  0  0  0  0  0  0  0
  -28.6867  -31.6783   29.7325 C   0  0  0  0  0  0  0  0  0  0  0  0
  -30.0930  -25.4666   26.4532 C   0  0  0  0  0  0  0  0  0  0  0  0
  -31.1642  -19.1781   20.5333 C   0  0  0  0  0  0  0  0  0  0  0  0
  -31.0237  -17.7906   20.5533 C   0  0  0  0  0  0  0  0  0  0  0  0
  -22.3915   -8.6253   20.2183 C   0  0  0  0  0  0  0  0  0  0  0  0
  -23.1191   -8.6956   22.5211 C   0  0  0  0  0  0  0  0  0  0  0  0
  -29.5055  -24.2296   26.1916 C   0  0  0  0  0  0  0  0  0  0  0  0
  -19.8993   -7.8457   23.0969 C   0  0  0  0  0  0  0  0  0  0  0  0
  -19.1271   -7.8150   24.2580 C   0  0  0  0  0  0  0  0  0  0  0  0
  -29.3647  -17.9838   22.2991 C   0  0  0  0  0  0  0  0  0  0  0  0
  -28.2892  -25.2035   24.3501 C   0  0  0  0  0  0  0  0  0  0  0  0
  -20.3964   -5.9188   25.0520 C   0  0  0  0  0  0  0  0  0  0  0  0
  -23.8417  -10.4041   20.9733 C   0  0  0  0  0  0  0  0  0  0  0  0
  -29.5053  -19.3714   22.2790 C   0  0  0  0  0  0  0  0  0  0  0  0
  -24.1349  -12.9325   20.8044 C   0  0  0  0  0  0  0  0  0  0  0  0
  -27.7147  -33.5475   28.5289 C   0  0  0  0  0  0  0  0  0  0  0  0
  -29.7741  -26.5857   25.6707 C   0  0  0  0  0  0  0  0  0  0  0  0
  -27.9256  -32.1611   28.6544 C   0  0  0  0  0  0  0  0  0  0  0  0
  -28.8759  -26.4530   24.6022 C   0  0  0  0  0  0  0  0  0  0  0  0
  -30.4051  -19.9686   21.3962 C   0  0  0  0  0  0  0  0  0  0  0  0
  -30.1239  -17.1934   21.4362 C   0  0  0  0  0  0  0  0  0  0  0  0
  -22.3931   -8.0793   21.5019 C   0  0  0  0  0  0  0  0  0  0  0  0
  -28.6013  -24.0985   25.1418 C   0  0  0  0  0  0  0  0  0  0  0  0
  -20.9200   -6.9129   22.9132 C   0  0  0  0  0  0  0  0  0  0  0  0
  -19.3757   -6.8516   25.2356 C   0  0  0  0  0  0  0  0  0  0  0  0
  -21.1686   -5.9494   23.8908 C   0  0  0  0  0  0  0  0  0  0  0  0
  -24.5905  -11.6045   20.7008 C   0  0  0  0  0  0  0  0  0  0  0  0
  -25.2169  -13.6961   20.4401 C   0  0  0  0  0  0  0  0  0  0  0  0
  -28.6939  -20.1889   23.1986 C   0  0  0  0  0  0  0  0  0  0  0  0
  -22.8488  -13.4313   21.1951 C   0  0  0  0  0  0  0  0  0  0  0  0
  -28.4350  -29.4120   26.2386 C   0  0  0  0  0  0  0  0  0  0  0  0
  -29.2228  -29.9709   23.1420 C   0  0  0  0  0  0  0  0  0  0  0  0
  -29.9335  -28.6948   20.0576 C   0  0  0  0  0  0  0  0  0  0  0  0
  -30.6583  -14.8550   20.6663 C   0  0  0  0  0  0  0  0  0  0  0  0
  -26.8686  -34.1242   27.4216 C   0  0  0  0  0  0  0  0  0  0  0  0
  -30.4368  -27.9070   25.9491 C   0  0  0  0  0  0  0  0  0  0  0  0
  -28.5154  -27.6190   23.7197 C   0  0  0  0  0  0  0  0  0  0  0  0
  -26.6525  -33.1622   26.2561 C   0  0  0  0  0  0  0  0  0  0  0  0
  -29.6251  -12.3702   18.3349 C   0  0  0  0  0  0  0  0  0  0  0  0
  -25.7045  -21.2095   21.4283 C   0  0  0  0  0  0  0  0  0  0  0  0
  -26.2675  -31.7787   26.7702 C   0  0  0  0  0  0  0  0  0  0  0  0
  -28.1857  -12.0588   18.7511 C   0  0  0  0  0  0  0  0  0  0  0  0
  -25.2731  -21.3139   22.8874 C   0  0  0  0  0  0  0  0  0  0  0  0
  -26.9438  -20.3250   21.4796 C   0  0  0  0  0  0  0  0  0  0  0  0
  -30.5187  -12.6425   19.5436 C   0  0  0  0  0  0  0  0  0  0  0  0
  -28.5787  -13.3571   20.8834 C   0  0  0  0  0  0  0  0  0  0  0  0
  -27.3833  -31.1816   27.6362 C   0  0  1  0  0  0  0  0  0  0  0  0
  -29.6480  -29.0964   25.4100 C   0  0  1  0  0  0  0  0  0  0  0  0
  -27.6260  -13.1397   19.6965 C   0  0  2  0  0  0  0  0  0  0  0  0
  -26.5913  -21.4051   23.6619 C   0  0  2  0  0  0  0  0  0  0  0  0
  -30.5729  -21.4522   21.3552 C   0  0  0  0  0  0  0  0  0  0  0  0
  -30.5000  -29.3999   17.7168 C   0  0  0  0  0  0  0  0  0  0  0  0
  -26.3060  -30.7306   22.6676 C   0  0  0  0  0  0  0  0  0  0  0  0
  -26.7176  -30.4972   20.2091 C   0  0  0  0  0  0  0  0  0  0  0  0
  -27.9682  -32.2086   21.5243 C   0  0  0  0  0  0  0  0  0  0  0  0
  -32.5464  -27.3078   20.1481 C   0  0  0  0  0  0  0  0  0  0  0  0
  -27.1083  -22.8299   23.7936 C   0  0  0  0  0  0  0  0  0  1  0  0
  -28.5412  -29.7629   21.8111 C   0  0  1  0  0  0  0  0  0  0  0  0
  -31.0511  -28.9968   19.0756 C   0  0  2  0  0  0  0  0  0  0  0  0
  -27.3884  -30.7781   21.5707 C   0  0  0  0  0  0  0  0  0  0  0  0
  -25.8627  -11.5255   20.3017 N   0  0  0  0  0  0  0  0  0  0  0  0
  -26.2158  -12.8134   20.1513 N   0  0  0  0  0  0  0  0  0  0  0  0
  -27.5076  -20.6215   22.8079 N   0  0  0  0  0  0  0  0  0  0  0  0
  -29.1850  -28.8915   24.0360 N   0  0  0  0  0  0  0  0  0  0  0  0
  -29.9272  -13.6800   20.3913 N   0  0  0  0  0  0  0  0  0  0  0  0
  -25.4019  -15.0297   20.3417 N   0  0  0  0  0  0  0  0  0  0  0  0
  -21.8505  -12.5092   21.5379 N   0  0  0  0  0  0  0  0  0  0  0  0
  -29.9814  -15.7838   21.4561 N   0  0  0  0  0  0  0  0  0  0  0  0
  -28.4521  -30.6731   26.8034 N   0  0  0  0  0  0  0  0  0  0  0  0
  -29.5942  -29.8046   20.8022 N   0  0  0  0  0  0  0  0  0  0  0  0
  -29.1671  -20.4768   24.4075 N   0  3  0  0  0  0  0  0  0  0  0  0
  -31.9191  -27.7990   18.8943 N   0  3  0  0  0  0  0  0  0  0  0  0
  -22.5874  -14.6578   21.2232 O   0  0  0  0  0  0  0  0  0  0  0  0
  -27.5486  -28.5741   26.3557 O   0  0  0  0  0  0  0  0  0  0  0  0
  -29.7749  -31.0487   23.3768 O   0  0  0  0  0  0  0  0  0  0  0  0
  -29.4111  -27.5863   20.1518 O   0  0  0  0  0  0  0  0  0  0  0  0
  -31.7903  -15.0366   20.2104 O   0  0  0  0  0  0  0  0  0  0  0  0
  -21.6863   -6.9451   21.7602 O   0  0  0  0  0  0  0  0  0  0  0  0
  -28.0259  -22.8924   24.8847 O   0  0  0  0  0  0  0  0  0  1  0  0
  -18.6351   -6.8232   26.3514 F   0  0  0  0  0  0  0  0  0  0  0  0
  -22.1486   -5.0514   23.7205 F   0  0  0  0  0  0  0  0  0  0  0  0
  1  2  1  0  0  0  0
  1  5  2  0  0  0  0
  2  6  2  0  0  0  0
  3 10  2  0  0  0  0
  3 18  1  0  0  0  0
  4 11  1  0  0  0  0
  4 18  2  0  0  0  0
  5 21  1  0  0  0  0
  6 23  1  0  0  0  0
  7 12  2  0  0  0  0
  7 22  1  0  0  0  0
  8  9  2  0  0  0  0
  8 25  1  0  0  0  0
  9 26  1  0  0  0  0
 10 27  1  0  0  0  0
 11 27  2  0  0  0  0
 12 28  1  0  0  0  0
 13 14  2  0  0  0  0
 13 29  1  0  0  0  0
 14 30  1  0  0  0  0
 15 19  1  0  0  0  0
 15 26  2  0  0  0  0
 16 24  1  0  0  0  0
 16 28  2  0  0  0  0
 17 30  2  0  0  0  0
 17 31  1  0  0  0  0
 18 32  1  0  0  0  0
 19 25  2  0  0  0  0
 19 34  1  0  0  0  0
 20 32  1  0  0  0  0
 20 33  2  0  0  0  0
 20 35  1  0  0  0  0
 21 23  2  0  0  0  0
 21 40  1  0  0  0  0
 22 24  2  0  0  0  0
 22 41  1  0  0  0  0
 23 52  1  0  0  0  0
 24 42  1  0  0  0  0
 25 56  1  0  0  0  0
 26 73  1  0  0  0  0
 27 83  1  0  0  0  0
 28 84  1  0  0  0  0
 29 31  2  0  0  0  0
 29 83  1  0  0  0  0
 30 85  1  0  0  0  0
 31 86  1  0  0  0  0
 32 66  2  0  0  0  0
 33 67  1  0  0  0  0
 33 71  1  0  0  0  0
 34 68  1  0  0  0  0
 34 76  2  0  0  0  0
 35 72  1  0  0  0  0
 35 78  2  0  0  0  0
 36 53  1  0  0  0  0
 36 74  1  0  0  0  0
 36 79  2  0  0  0  0
 37 63  1  0  0  0  0
 37 69  1  0  0  0  0
 37 80  2  0  0  0  0
 38 64  1  0  0  0  0
 38 75  1  0  0  0  0
 38 81  2  0  0  0  0
 39 70  1  0  0  0  0
 39 73  1  0  0  0  0
 39 82  2  0  0  0  0
 40 43  1  0  0  0  0
 41 53  1  0  0  0  0
 42 69  1  0  0  0  0
 43 46  1  0  0  0  0
 44 47  1  0  0  0  0
 44 50  1  0  0  0  0
 45 48  1  0  0  0  0
 45 49  1  0  0  0  0
 46 52  1  0  0  0  0
 47 54  1  0  0  0  0
 48 55  1  0  0  0  0
 49 68  1  0  0  0  0
 50 70  1  0  0  0  0
 51 54  1  0  0  0  0
 51 70  1  0  0  0  0
 52 74  1  0  0  0  0
 53 69  1  0  0  0  0
 54 67  1  0  0  0  0
 55 62  1  0  0  0  0
 55 68  1  0  0  0  0
 57 64  1  0  0  0  0
 58 65  1  0  0  0  0
 59 65  1  0  0  0  0
 60 65  1  0  0  0  0
 61 77  1  0  0  0  0
 62 84  1  0  0  0  0
 63 65  1  0  0  0  0
 63 75  1  0  0  0  0
 64 77  1  0  0  0  0
 66 67  1  0  0  0  0
M  CHG  2  76   1  77   1
M  ISO  4  39 100  62 101  73 100  84 101
M  END
> <Batch ID>
0146

> <Smiles>
CNC(C)C(=O)NC(C(=O)N1Cc2cc([101O:1][101CH2:1]C3CCCN3C(=N)c3cc([100NH:0][100C:0](=O)N4CCCC(n5nc(-c6ccc(Oc7ccc(F)cc7F)cc6)c(C(N)=O)c5N)C4)ccc3C)ccc2CC1C(=O)NC1CCCc2ccccc21)C(C)(C)C

> <Shape>
0.249

> <Color>
0.190

> <Negative vol penalty>
0.000

$$$$

  -OEChem-04052303103D

 87 96  0     1  0  0  0  0  0999 V2000
  -30.1472  -36.3928   23.3207 C   0  0  0  0  0  0  0  0  0  0  0  0
  -30.1598  -35.4659   22.2833 C   0  0  0  0  0  0  0  0  0  0  0  0
  -24.6711   -8.9272   21.9926 C   0  0  0  0  0  0  0  0  0  0  0  0
  -23.3661   -9.6962   20.1104 C   0  0  0  0  0  0  0  0  0  0  0  0
  -29.5683  -36.0596   24.5445 C   0  0  0  0  0  0  0  0  0  0  0  0
  -29.5946  -34.2049   22.4695 C   0  0  0  0  0  0  0  0  0  0  0  0
  -26.0982  -29.0717   18.8999 C   0  0  0  0  0  0  0  0  0  0  0  0
  -23.5346   -8.3282   22.5359 C   0  0  0  0  0  0  0  0  0  0  0  0
  -22.2296   -9.0970   20.6536 C   0  0  0  0  0  0  0  0  0  0  0  0
  -26.1611  -27.7023   18.6461 C   0  0  0  0  0  0  0  0  0  0  0  0
  -21.7353   -5.5060   22.0553 C   0  0  0  0  0  0  0  0  0  0  0  0
  -21.8624   -4.2108   22.5572 C   0  0  0  0  0  0  0  0  0  0  0  0
  -25.1187  -27.2655   20.7773 C   0  0  0  0  0  0  0  0  0  0  0  0
  -26.4954  -18.6276   17.1747 C   0  0  0  0  0  0  0  0  0  0  0  0
  -21.1808   -4.9898   24.7402 C   0  0  0  0  0  0  0  0  0  0  0  0
  -25.0800  -16.9847   16.3382 C   0  0  0  0  0  0  0  0  0  0  0  0
  -24.5868   -9.6113   20.7799 C   0  0  0  0  0  0  0  0  0  0  0  0
  -26.6896   -9.6482   19.3360 C   0  0  0  0  0  0  0  0  0  0  0  0
  -28.9870  -34.7973   24.7427 C   0  0  0  0  0  0  0  0  0  0  0  0
  -25.5540  -29.5487   20.1011 C   0  0  0  0  0  0  0  0  0  0  0  0
  -29.0085  -33.8541   23.6976 C   0  0  0  0  0  0  0  0  0  0  0  0
  -25.0477  -28.6416   21.0428 C   0  0  0  0  0  0  0  0  0  0  0  0
  -26.0052  -17.2966   17.3099 C   0  0  0  0  0  0  0  0  0  0  0  0
  -22.3139   -8.4130   21.8664 C   0  0  0  0  0  0  0  0  0  0  0  0
  -25.6740  -26.7988   19.5861 C   0  0  0  0  0  0  0  0  0  0  0  0
  -21.3311   -6.5432   22.8959 C   0  0  0  0  0  0  0  0  0  0  0  0
  -21.5851   -3.9527   23.8996 C   0  0  0  0  0  0  0  0  0  0  0  0
  -21.0538   -6.2850   24.2384 C   0  0  0  0  0  0  0  0  0  0  0  0
  -25.7603  -10.2308   20.2185 C   0  0  0  0  0  0  0  0  0  0  0  0
  -25.9262  -19.2823   16.1045 C   0  0  0  0  0  0  0  0  0  0  0  0
  -27.6099  -10.6405   19.1022 C   0  0  0  0  0  0  0  0  0  0  0  0
  -26.7182   -8.3280   18.7775 C   0  0  0  0  0  0  0  0  0  0  0  0
  -26.2432  -20.6686   15.7172 C   0  0  0  0  0  0  0  0  0  0  0  0
  -26.6687  -31.2320   22.5563 C   0  0  0  0  0  0  0  0  0  0  0  0
  -23.5683  -31.1644   23.5075 C   0  0  0  0  0  0  0  0  0  0  0  0
  -20.5320  -29.6115   23.3806 C   0  0  0  0  0  0  0  0  0  0  0  0
  -27.3311  -16.6047   19.3371 C   0  0  0  0  0  0  0  0  0  0  0  0
  -28.4152  -34.4662   26.0985 C   0  0  0  0  0  0  0  0  0  0  0  0
  -25.4691  -31.0300   20.3481 C   0  0  0  0  0  0  0  0  0  0  0  0
  -24.4353  -29.1033   22.3390 C   0  0  0  0  0  0  0  0  0  0  0  0
  -27.5044  -33.2412   26.0927 C   0  0  0  0  0  0  0  0  0  0  0  0
  -29.5553  -14.5036   21.1580 C   0  0  0  0  0  0  0  0  0  0  0  0
  -28.1525  -32.0977   25.3187 C   0  0  0  0  0  0  0  0  0  0  0  0
  -28.9223  -13.1154   21.0383 C   0  0  0  0  0  0  0  0  0  0  0  0
  -24.8563  -22.9833   18.1249 C   0  0  0  0  0  0  0  0  0  0  0  0
  -28.4988  -15.5995   21.2868 C   0  0  0  0  0  0  0  0  0  0  0  0
  -24.9413  -21.5649   17.5765 C   0  0  0  0  0  0  0  0  0  0  0  0
  -26.8350  -14.2058   20.1212 C   0  0  0  0  0  0  0  0  0  0  0  0
  -28.3834  -32.4847   23.8530 C   0  0  1  0  0  0  0  0  0  0  0  0
  -25.3631  -31.3838   21.8283 C   0  0  1  0  0  0  0  0  0  0  0  0
  -27.8582  -13.0755   19.9240 C   0  0  2  0  0  0  0  0  0  0  0  0
  -26.2999  -23.5212   18.0244 C   0  0  2  0  0  0  0  0  0  0  0  0
  -26.7775  -22.9415   16.6394 C   0  0  0  0  0  0  0  0  0  0  0  0
  -27.1192  -22.9837   19.2197 C   0  0  0  0  0  0  0  0  0  0  0  0
  -28.2871  -22.6920   16.5629 C   0  0  0  0  0  0  0  0  0  0  0  0
  -26.3351  -23.7779   15.4265 C   0  0  0  0  0  0  0  0  0  0  0  0
  -18.1997  -29.7679   24.2935 C   0  0  0  0  0  0  0  0  0  0  0  0
  -24.5424  -30.0585   26.1792 C   0  0  0  0  0  0  0  0  0  0  0  0
  -22.1894  -29.3560   26.6671 C   0  0  0  0  0  0  0  0  0  0  0  0
  -22.7294  -31.7717   26.3581 C   0  0  0  0  0  0  0  0  0  0  0  0
  -19.3721  -29.9444   20.6782 C   0  0  0  0  0  0  0  0  0  0  0  0
  -26.3103  -25.0540   18.1006 C   0  0  0  0  0  0  0  0  0  1  0  0
  -22.7286  -30.2352   24.3504 C   0  0  1  0  0  0  0  0  0  0  0  0
  -19.1320  -30.1535   23.1556 C   0  0  2  0  0  0  0  0  0  0  0  0
  -23.0607  -30.3462   25.8652 C   0  0  0  0  0  0  0  0  0  0  0  0
  -26.0628  -11.4953   20.5247 N   0  0  0  0  0  0  0  0  0  0  0  0
  -27.1925  -11.7152   19.8308 N   0  0  0  0  0  0  0  0  0  0  0  0
  -26.0237  -21.6508   16.5778 N   0  0  0  0  0  0  0  0  0  0  0  0
  -24.3808  -30.5612   22.5371 N   0  0  0  0  0  0  0  0  0  0  0  0
  -27.5275  -15.5019   20.1950 N   0  0  0  0  0  0  0  0  0  0  0  0
  -28.7276  -10.6898   18.3466 N   0  0  0  0  0  0  0  0  0  0  0  0
  -25.6952   -7.4342   19.1225 N   0  0  0  0  0  0  0  0  0  0  0  0
  -26.4071  -16.3837   18.3163 N   0  0  0  0  0  0  0  0  0  0  0  0
  -27.1449  -32.4058   23.1083 N   0  0  0  0  0  0  0  0  0  0  0  0
  -21.3382  -30.5291   24.0204 N   0  0  0  0  0  0  0  0  0  0  0  0
  -26.7462  -20.9110   14.5103 N   0  3  0  0  0  0  0  0  0  0  0  0
  -18.5677  -29.6190   21.8840 N   0  3  0  0  0  0  0  0  0  0  0  0
  -27.6329   -7.9468   18.0085 O   0  0  0  0  0  0  0  0  0  0  0  0
  -27.2037  -30.1310   22.6142 O   0  0  0  0  0  0  0  0  0  0  0  0
  -23.5002  -32.3813   23.6982 O   0  0  0  0  0  0  0  0  0  0  0  0
  -20.8749  -28.4853   23.0277 O   0  0  0  0  0  0  0  0  0  0  0  0
  -27.9580  -17.6576   19.4798 O   0  0  0  0  0  0  0  0  0  0  0  0
  -21.2047   -7.8284   22.3960 O   0  0  0  0  0  0  0  0  0  0  0  0
  -25.7347  -25.4616   19.3412 O   0  0  0  0  0  0  0  0  0  1  0  0
  -21.7056   -2.7085   24.3810 F   0  0  0  0  0  0  0  0  0  0  0  0
  -20.6639   -7.2771   25.0505 F   0  0  0  0  0  0  0  0  0  0  0  0
  -24.8057  -18.2935   15.2685 S   0  0  0  0  0  0  0  0  0  0  0  0
  1  2  1  0  0  0  0
  1  5  2  0  0  0  0
  2  6  2  0  0  0  0
  3  8  2  0  0  0  0
  3 17  1  0  0  0  0
  4  9  1  0  0  0  0
  4 17  2  0  0  0  0
  5 19  1  0  0  0  0
  6 21  1  0  0  0  0
  7 10  2  0  0  0  0
  7 20  1  0  0  0  0
  8 24  1  0  0  0  0
  9 24  2  0  0  0  0
 10 25  1  0  0  0  0
 11 12  2  0  0  0  0
 11 26  1  0  0  0  0
 12 27  1  0  0  0  0
 13 22  1  0  0  0  0
 13 25  2  0  0  0  0
 14 23  1  0  0  0  0
 14 30  2  0  0  0  0
 15 27  2  0  0  0  0
 15 28  1  0  0  0  0
 16 23  2  0  0  0  0
 16 87  1  0  0  0  0
 17 29  1  0  0  0  0
 18 29  1  0  0  0  0
 18 31  2  0  0  0  0
 18 32  1  0  0  0  0
 19 21  2  0  0  0  0
 19 38  1  0  0  0  0
 20 22  2  0  0  0  0
 20 39  1  0  0  0  0
 21 49  1  0  0  0  0
 22 40  1  0  0  0  0
 23 73  1  0  0  0  0
 24 83  1  0  0  0  0
 25 84  1  0  0  0  0
 26 28  2  0  0  0  0
 26 83  1  0  0  0  0
 27 85  1  0  0  0  0
 28 86  1  0  0  0  0
 29 66  2  0  0  0  0
 30 33  1  0  0  0  0
 30 87  1  0  0  0  0
 31 67  1  0  0  0  0
 31 71  1  0  0  0  0
 32 72  1  0  0  0  0
 32 78  2  0  0  0  0
 33 68  1  0  0  0  0
 33 76  2  0  0  0  0
 34 50  1  0  0  0  0
 34 74  1  0  0  0  0
 34 79  2  0  0  0  0
 35 63  1  0  0  0  0
 35 69  1  0  0  0  0
 35 80  2  0  0  0  0
 36 64  1  0  0  0  0
 36 75  1  0  0  0  0
 36 81  2  0  0  0  0
 37 70  1  0  0  0  0
 37 73  1  0  0  0  0
 37 82  2  0  0  0  0
 38 41  1  0  0  0  0
 39 50  1  0  0  0  0
 40 69  1  0  0  0  0
 41 43  1  0  0  0  0
 42 44  1  0  0  0  0
 42 46  1  0  0  0  0
 43 49  1  0  0  0  0
 44 51  1  0  0  0  0
 45 47  1  0  0  0  0
 45 52  1  0  0  0  0
 46 70  1  0  0  0  0
 47 68  1  0  0  0  0
 48 51  1  0  0  0  0
 48 70  1  0  0  0  0
 49 74  1  0  0  0  0
 50 69  1  0  0  0  0
 51 67  1  0  0  0  0
 52 53  1  0  0  0  0
 52 54  1  0  0  0  0
 52 62  1  0  0  0  0
 53 55  1  0  0  0  0
 53 56  1  0  0  0  0
 53 68  1  0  0  0  0
 57 64  1  0  0  0  0
 58 65  1  0  0  0  0
 59 65  1  0  0  0  0
 60 65  1  0  0  0  0
 61 77  1  0  0  0  0
 62 84  1  0  0  0  0
 63 65  1  0  0  0  0
 63 75  1  0  0  0  0
 64 77  1  0  0  0  0
 66 67  1  0  0  0  0
M  CHG  2  76   1  77   1
M  ISO  4  37 100  62 101  73 100  84 101
M  END
> <Batch ID>
0146

> <Smiles>
CNC(C)C(=O)NC(C(=O)N1Cc2cc([101O:1][101CH2:1]C3(C)CCN(C(=N)c4cc([100NH:0][100C:0](=O)N5CCCC(n6nc(-c7ccc(Oc8ccc(F)cc8F)cc7)c(C(N)=O)c6N)C5)cs4)C3(C)C)ccc2CC1C(=O)NC1CCCc2ccccc21)C(C)(C)C

> <Shape>
0.259

> <Color>
0.103

> <Negative vol penalty>
0.000

$$$$

  -OEChem-04052303103D

 83 92  0     1  0  0  0  0  0999 V2000
  -30.7586  -32.8933   24.3657 C   0  0  0  0  0  0  0  0  0  0  0  0
  -30.2442  -31.6585   23.9834 C   0  0  0  0  0  0  0  0  0  0  0  0
  -22.8664  -10.3161   20.5884 C   0  0  0  0  0  0  0  0  0  0  0  0
  -24.5482   -9.1379   21.8613 C   0  0  0  0  0  0  0  0  0  0  0  0
  -29.9018  -33.8914   24.8278 C   0  0  0  0  0  0  0  0  0  0  0  0
  -28.8725  -31.4208   24.0641 C   0  0  0  0  0  0  0  0  0  0  0  0
  -27.0538  -29.1192   19.9362 C   0  0  0  0  0  0  0  0  0  0  0  0
  -22.0491   -9.1862   20.6224 C   0  0  0  0  0  0  0  0  0  0  0  0
  -23.7310   -8.0080   21.8954 C   0  0  0  0  0  0  0  0  0  0  0  0
  -27.2774  -27.7479   19.8211 C   0  0  0  0  0  0  0  0  0  0  0  0
  -21.0323   -6.9392   23.6260 C   0  0  0  0  0  0  0  0  0  0  0  0
  -20.8985   -6.2745   24.8449 C   0  0  0  0  0  0  0  0  0  0  0  0
  -25.0325  -27.3230   20.5952 C   0  0  0  0  0  0  0  0  0  0  0  0
  -28.5824  -20.5349   19.4179 C   0  0  0  0  0  0  0  0  0  0  0  0
  -21.8029   -4.2674   23.8495 C   0  0  0  0  0  0  0  0  0  0  0  0
  -24.1160  -10.2919   21.2078 C   0  0  0  0  0  0  0  0  0  0  0  0
  -24.9939  -12.5127   22.1050 C   0  0  0  0  0  0  0  0  0  0  0  0
  -28.5178  -33.6690   24.9050 C   0  0  0  0  0  0  0  0  0  0  0  0
  -25.8194  -29.6032   20.3927 C   0  0  0  0  0  0  0  0  0  0  0  0
  -27.9965  -32.4164   24.5289 C   0  0  0  0  0  0  0  0  0  0  0  0
  -24.7949  -28.7009   20.7127 C   0  0  0  0  0  0  0  0  0  0  0  0
  -28.3194  -19.2187   18.9881 C   0  0  0  0  0  0  0  0  0  0  0  0
  -22.4814   -8.0322   21.2759 C   0  0  0  0  0  0  0  0  0  0  0  0
  -26.2677  -26.8494   20.1534 C   0  0  0  0  0  0  0  0  0  0  0  0
  -21.5512   -6.2680   22.5188 C   0  0  0  0  0  0  0  0  0  0  0  0
  -21.2839   -4.9386   24.9567 C   0  0  0  0  0  0  0  0  0  0  0  0
  -21.9366   -4.9321   22.6306 C   0  0  0  0  0  0  0  0  0  0  0  0
  -24.9609  -11.4585   21.1726 C   0  0  0  0  0  0  0  0  0  0  0  0
  -28.3255  -18.3267   20.0206 C   0  0  0  0  0  0  0  0  0  0  0  0
  -25.9568  -13.3662   21.6243 C   0  0  0  0  0  0  0  0  0  0  0  0
  -28.7760  -20.5691   20.7901 C   0  0  0  0  0  0  0  0  0  0  0  0
  -24.2233  -12.7034   23.2989 C   0  0  0  0  0  0  0  0  0  0  0  0
  -24.8697  -31.3229   22.8917 C   0  0  0  0  0  0  0  0  0  0  0  0
  -27.8162  -23.6249   20.7770 C   0  0  0  0  0  0  0  0  0  0  0  0
  -22.0061  -31.2344   21.3704 C   0  0  0  0  0  0  0  0  0  0  0  0
  -19.9504  -29.6501   19.1544 C   0  0  0  0  0  0  0  0  0  0  0  0
  -28.0402  -16.1074   17.1673 C   0  0  0  0  0  0  0  0  0  0  0  0
  -27.6366  -34.7621   25.4556 C   0  0  0  0  0  0  0  0  0  0  0  0
  -25.5850  -31.0861   20.4858 C   0  0  0  0  0  0  0  0  0  0  0  0
  -23.4450  -29.1700   21.1883 C   0  0  0  0  0  0  0  0  0  0  0  0
  -28.0467  -18.5482   17.7041 C   0  0  0  0  0  0  0  0  0  0  0  0
  -28.0418  -16.9405   19.6097 C   0  0  0  0  0  0  0  0  0  0  0  0
  -26.1537  -34.5575   25.1567 C   0  0  0  0  0  0  0  0  0  0  0  0
  -29.3613  -12.7671   17.9304 C   0  0  0  0  0  0  0  0  0  0  0  0
  -25.7415  -33.1203   25.4590 C   0  0  0  0  0  0  0  0  0  0  0  0
  -28.3060  -12.2036   18.8847 C   0  0  0  0  0  0  0  0  0  0  0  0
  -28.7629  -13.7577   16.9338 C   0  0  0  0  0  0  0  0  0  0  0  0
  -26.9227  -14.2722   18.4885 C   0  0  0  0  0  0  0  0  0  0  0  0
  -26.5116  -32.1287   24.5786 C   0  0  1  0  0  0  0  0  0  0  0  0
  -24.4627  -31.4542   21.4513 C   0  0  1  0  0  0  0  0  0  0  0  0
  -27.5001  -13.3328   19.5555 C   0  0  1  0  0  0  0  0  0  0  0  0
  -17.6567  -29.7928   18.1465 C   0  0  0  0  0  0  0  0  0  0  0  0
  -20.8031  -30.1660   23.9630 C   0  0  0  0  0  0  0  0  0  0  0  0
  -18.7952  -29.4453   22.6525 C   0  0  0  0  0  0  0  0  0  0  0  0
  -19.3962  -31.8629   22.7816 C   0  0  0  0  0  0  0  0  0  0  0  0
  -21.0438  -29.9433   16.4199 C   0  0  0  0  0  0  0  0  0  0  0  0
  -29.1851  -23.0208   21.0077 C   0  0  0  0  0  0  0  0  0  0  0  0
  -27.8082  -25.0392   20.2301 C   0  0  0  0  0  0  0  0  0  1  0  0
  -20.8161  -30.3057   21.3849 C   0  0  1  0  0  0  0  0  0  0  0  0
  -19.1208  -30.1758   17.9969 C   0  0  2  0  0  0  0  0  0  0  0  0
  -19.9786  -30.4358   22.6884 C   0  0  0  0  0  0  0  0  0  0  0  0
  -25.8332  -11.6250   20.1749 N   0  0  0  0  0  0  0  0  0  0  0  0
  -26.4235  -12.7938   20.4777 N   0  0  0  0  0  0  0  0  0  0  0  0
  -23.2667  -30.6292   21.2686 N   0  0  0  0  0  0  0  0  0  0  0  0
  -27.9338  -17.1204   18.1267 N   0  0  0  0  0  0  0  0  0  0  0  0
  -27.9897  -14.7874   17.6260 N   0  0  0  0  0  0  0  0  0  0  0  0
  -26.4412  -14.5429   22.0748 N   0  0  0  0  0  0  0  0  0  0  0  0
  -23.2771  -11.7294   23.6461 N   0  0  0  0  0  0  0  0  0  0  0  0
  -29.0486  -21.6676   21.5384 N   0  0  0  0  0  0  0  0  0  0  0  0
  -25.9559  -32.1017   23.2426 N   0  0  0  0  0  0  0  0  0  0  0  0
  -20.0675  -30.5823   20.1636 N   0  0  0  0  0  0  0  0  0  0  0  0
  -19.6220  -29.6225   16.7070 N   0  3  0  0  0  0  0  0  0  0  0  0
  -24.3578  -13.7158   24.0272 O   0  0  0  0  0  0  0  0  0  0  0  0
  -24.2438  -30.5717   23.6303 O   0  0  0  0  0  0  0  0  0  0  0  0
  -26.7726  -23.0180   21.0142 O   0  0  0  0  0  0  0  0  0  0  0  0
  -21.8235  -32.4524   21.4394 O   0  0  0  0  0  0  0  0  0  0  0  0
  -20.4421  -28.5237   19.1640 O   0  0  0  0  0  0  0  0  0  0  0  0
  -28.2264  -16.3678   15.9720 O   0  0  0  0  0  0  0  0  0  0  0  0
  -21.6841   -6.9296   21.3095 O   0  0  0  0  0  0  0  0  0  0  0  0
  -26.4858  -25.4965   20.0415 O   0  0  0  0  0  0  0  0  0  1  0  0
  -21.1568   -4.3008   26.1277 F   0  0  0  0  0  0  0  0  0  0  0  0
  -22.4369   -4.2824   21.5707 F   0  0  0  0  0  0  0  0  0  0  0  0
  -28.6361  -19.0040   21.5165 S   0  0  0  0  0  0  0  0  0  0  0  0
  1  2  1  0  0  0  0
  1  5  2  0  0  0  0
  2  6  2  0  0  0  0
  3  8  2  0  0  0  0
  3 16  1  0  0  0  0
  4  9  1  0  0  0  0
  4 16  2  0  0  0  0
  5 18  1  0  0  0  0
  6 20  1  0  0  0  0
  7 10  2  0  0  0  0
  7 19  1  0  0  0  0
  8 23  1  0  0  0  0
  9 23  2  0  0  0  0
 10 24  1  0  0  0  0
 11 12  2  0  0  0  0
 11 25  1  0  0  0  0
 12 26  1  0  0  0  0
 13 21  1  0  0  0  0
 13 24  2  0  0  0  0
 14 22  1  0  0  0  0
 14 31  2  0  0  0  0
 15 26  2  0  0  0  0
 15 27  1  0  0  0  0
 16 28  1  0  0  0  0
 17 28  1  0  0  0  0
 17 30  2  0  0  0  0
 17 32  1  0  0  0  0
 18 20  2  0  0  0  0
 18 38  1  0  0  0  0
 19 21  2  0  0  0  0
 19 39  1  0  0  0  0
 20 49  1  0  0  0  0
 21 40  1  0  0  0  0
 22 29  2  0  0  0  0
 22 41  1  0  0  0  0
 23 79  1  0  0  0  0
 24 80  1  0  0  0  0
 25 27  2  0  0  0  0
 25 79  1  0  0  0  0
 26 81  1  0  0  0  0
 27 82  1  0  0  0  0
 28 62  2  0  0  0  0
 29 42  1  0  0  0  0
 29 83  1  0  0  0  0
 30 63  1  0  0  0  0
 30 67  1  0  0  0  0
 31 69  1  0  0  0  0
 31 83  1  0  0  0  0
 32 68  1  0  0  0  0
 32 73  2  0  0  0  0
 33 50  1  0  0  0  0
 33 70  1  0  0  0  0
 33 74  2  0  0  0  0
 34 57  1  0  0  0  0
 34 58  1  0  0  0  0
 34 75  2  0  0  0  0
 35 59  1  0  0  0  0
 35 64  1  0  0  0  0
 35 76  2  0  0  0  0
 36 60  1  0  0  0  0
 36 71  1  0  0  0  0
 36 77  2  0  0  0  0
 37 65  1  0  0  0  0
 37 66  1  0  0  0  0
 37 78  2  0  0  0  0
 38 43  1  0  0  0  0
 39 50  1  0  0  0  0
 40 64  1  0  0  0  0
 41 65  1  0  0  0  0
 42 65  1  0  0  0  0
 43 45  1  0  0  0  0
 44 46  1  0  0  0  0
 44 47  1  0  0  0  0
 45 49  1  0  0  0  0
 46 51  1  0  0  0  0
 47 66  1  0  0  0  0
 48 51  1  0  0  0  0
 48 66  1  0  0  0  0
 49 70  1  0  0  0  0
 50 64  1  0  0  0  0
 51 63  1  0  0  0  0
 52 60  1  0  0  0  0
 53 61  1  0  0  0  0
 54 61  1  0  0  0  0
 55 61  1  0  0  0  0
 56 72  1  0  0  0  0
 57 69  1  0  0  0  0
 58 80  1  0  0  0  0
 59 61  1  0  0  0  0
 59 71  1  0  0  0  0
 60 72  1  0  0  0  0
 62 63  1  0  0  0  0
M  CHG  1  72   1
M  ISO  4  37 100  58 101  65 100  80 101
M  END
> <Batch ID>
0146

> <Smiles>
CNC(C)C(=O)NC(C(=O)N1Cc2cc([101O:1][101CH2:1]C(=O)CNc3cc4c(s3)C[100N:0]([100C:0](=O)N3CCCC(n5nc(-c6ccc(Oc7ccc(F)cc7F)cc6)c(C(N)=O)c5N)C3)C4)ccc2CC1C(=O)NC1CCCc2ccccc21)C(C)(C)C

> <Shape>
0.335

> <Color>
0.128

> <Negative vol penalty>
0.000

$$$$

  -OEChem-04052303103D

 83 92  0     1  0  0  0  0  0999 V2000
  -30.7586  -32.8933   24.3657 C   0  0  0  0  0  0  0  0  0  0  0  0
  -30.2442  -31.6585   23.9834 C   0  0  0  0  0  0  0  0  0  0  0  0
  -22.8664  -10.3161   20.5884 C   0  0  0  0  0  0  0  0  0  0  0  0
  -24.5482   -9.1379   21.8613 C   0  0  0  0  0  0  0  0  0  0  0  0
  -29.9018  -33.8914   24.8278 C   0  0  0  0  0  0  0  0  0  0  0  0
  -28.8725  -31.4208   24.0641 C   0  0  0  0  0  0  0  0  0  0  0  0
  -27.0538  -29.1192   19.9362 C   0  0  0  0  0  0  0  0  0  0  0  0
  -22.0491   -9.1862   20.6224 C   0  0  0  0  0  0  0  0  0  0  0  0
  -23.7310   -8.0080   21.8954 C   0  0  0  0  0  0  0  0  0  0  0  0
  -27.2774  -27.7479   19.8211 C   0  0  0  0  0  0  0  0  0  0  0  0
  -21.0323   -6.9392   23.6260 C   0  0  0  0  0  0  0  0  0  0  0  0
  -20.8985   -6.2745   24.8449 C   0  0  0  0  0  0  0  0  0  0  0  0
  -25.0325  -27.3230   20.5952 C   0  0  0  0  0  0  0  0  0  0  0  0
  -28.5824  -20.5349   19.4179 C   0  0  0  0  0  0  0  0  0  0  0  0
  -21.8029   -4.2674   23.8495 C   0  0  0  0  0  0  0  0  0  0  0  0
  -24.1160  -10.2919   21.2078 C   0  0  0  0  0  0  0  0  0  0  0  0
  -24.9939  -12.5127   22.1050 C   0  0  0  0  0  0  0  0  0  0  0  0
  -28.5178  -33.6690   24.9050 C   0  0  0  0  0  0  0  0  0  0  0  0
  -25.8194  -29.6032   20.3927 C   0  0  0  0  0  0  0  0  0  0  0  0
  -27.9965  -32.4164   24.5289 C   0  0  0  0  0  0  0  0  0  0  0  0
  -24.7949  -28.7009   20.7127 C   0  0  0  0  0  0  0  0  0  0  0  0
  -28.3194  -19.2187   18.9881 C   0  0  0  0  0  0  0  0  0  0  0  0
  -22.4814   -8.0322   21.2759 C   0  0  0  0  0  0  0  0  0  0  0  0
  -26.2677  -26.8494   20.1534 C   0  0  0  0  0  0  0  0  0  0  0  0
  -21.5512   -6.2680   22.5188 C   0  0  0  0  0  0  0  0  0  0  0  0
  -21.2839   -4.9386   24.9567 C   0  0  0  0  0  0  0  0  0  0  0  0
  -21.9366   -4.9321   22.6306 C   0  0  0  0  0  0  0  0  0  0  0  0
  -24.9609  -11.4585   21.1726 C   0  0  0  0  0  0  0  0  0  0  0  0
  -28.3255  -18.3267   20.0206 C   0  0  0  0  0  0  0  0  0  0  0  0
  -25.9568  -13.3662   21.6243 C   0  0  0  0  0  0  0  0  0  0  0  0
  -28.7760  -20.5691   20.7901 C   0  0  0  0  0  0  0  0  0  0  0  0
  -24.2233  -12.7034   23.2989 C   0  0  0  0  0  0  0  0  0  0  0  0
  -24.8697  -31.3229   22.8917 C   0  0  0  0  0  0  0  0  0  0  0  0
  -27.8162  -23.6249   20.7770 C   0  0  0  0  0  0  0  0  0  0  0  0
  -22.0061  -31.2344   21.3704 C   0  0  0  0  0  0  0  0  0  0  0  0
  -19.9504  -29.6501   19.1544 C   0  0  0  0  0  0  0  0  0  0  0  0
  -28.0402  -16.1074   17.1673 C   0  0  0  0  0  0  0  0  0  0  0  0
  -27.6366  -34.7621   25.4556 C   0  0  0  0  0  0  0  0  0  0  0  0
  -25.5850  -31.0861   20.4858 C   0  0  0  0  0  0  0  0  0  0  0  0
  -23.4450  -29.1700   21.1883 C   0  0  0  0  0  0  0  0  0  0  0  0
  -28.0467  -18.5482   17.7041 C   0  0  0  0  0  0  0  0  0  0  0  0
  -28.0418  -16.9405   19.6097 C   0  0  0  0  0  0  0  0  0  0  0  0
  -26.1537  -34.5575   25.1567 C   0  0  0  0  0  0  0  0  0  0  0  0
  -29.3613  -12.7671   17.9304 C   0  0  0  0  0  0  0  0  0  0  0  0
  -25.7415  -33.1203   25.4590 C   0  0  0  0  0  0  0  0  0  0  0  0
  -28.3060  -12.2036   18.8847 C   0  0  0  0  0  0  0  0  0  0  0  0
  -28.7629  -13.7577   16.9338 C   0  0  0  0  0  0  0  0  0  0  0  0
  -26.9227  -14.2722   18.4885 C   0  0  0  0  0  0  0  0  0  0  0  0
  -26.5116  -32.1287   24.5786 C   0  0  1  0  0  0  0  0  0  0  0  0
  -24.4627  -31.4542   21.4513 C   0  0  1  0  0  0  0  0  0  0  0  0
  -27.5001  -13.3328   19.5555 C   0  0  1  0  0  0  0  0  0  0  0  0
  -17.6567  -29.7928   18.1465 C   0  0  0  0  0  0  0  0  0  0  0  0
  -20.8031  -30.1660   23.9630 C   0  0  0  0  0  0  0  0  0  0  0  0
  -18.7952  -29.4453   22.6525 C   0  0  0  0  0  0  0  0  0  0  0  0
  -19.3962  -31.8629   22.7816 C   0  0  0  0  0  0  0  0  0  0  0  0
  -21.0438  -29.9433   16.4199 C   0  0  0  0  0  0  0  0  0  0  0  0
  -29.1851  -23.0208   21.0077 C   0  0  0  0  0  0  0  0  0  0  0  0
  -27.8082  -25.0392   20.2301 C   0  0  0  0  0  0  0  0  0  1  0  0
  -20.8161  -30.3057   21.3849 C   0  0  1  0  0  0  0  0  0  0  0  0
  -19.1208  -30.1758   17.9969 C   0  0  2  0  0  0  0  0  0  0  0  0
  -19.9786  -30.4358   22.6884 C   0  0  0  0  0  0  0  0  0  0  0  0
  -25.8332  -11.6250   20.1749 N   0  0  0  0  0  0  0  0  0  0  0  0
  -26.4235  -12.7938   20.4777 N   0  0  0  0  0  0  0  0  0  0  0  0
  -23.2667  -30.6292   21.2686 N   0  0  0  0  0  0  0  0  0  0  0  0
  -27.9338  -17.1204   18.1267 N   0  0  0  0  0  0  0  0  0  0  0  0
  -27.9897  -14.7874   17.6260 N   0  0  0  0  0  0  0  0  0  0  0  0
  -26.4412  -14.5429   22.0748 N   0  0  0  0  0  0  0  0  0  0  0  0
  -23.2771  -11.7294   23.6461 N   0  0  0  0  0  0  0  0  0  0  0  0
  -29.0486  -21.6676   21.5384 N   0  0  0  0  0  0  0  0  0  0  0  0
  -25.9559  -32.1017   23.2426 N   0  0  0  0  0  0  0  0  0  0  0  0
  -20.0675  -30.5823   20.1636 N   0  0  0  0  0  0  0  0  0  0  0  0
  -19.6220  -29.6225   16.7070 N   0  3  0  0  0  0  0  0  0  0  0  0
  -24.3578  -13.7158   24.0272 O   0  0  0  0  0  0  0  0  0  0  0  0
  -24.2438  -30.5717   23.6303 O   0  0  0  0  0  0  0  0  0  0  0  0
  -26.7726  -23.0180   21.0142 O   0  0  0  0  0  0  0  0  0  0  0  0
  -21.8235  -32.4524   21.4394 O   0  0  0  0  0  0  0  0  0  0  0  0
  -20.4421  -28.5237   19.1640 O   0  0  0  0  0  0  0  0  0  0  0  0
  -28.2264  -16.3678   15.9720 O   0  0  0  0  0  0  0  0  0  0  0  0
  -21.6841   -6.9296   21.3095 O   0  0  0  0  0  0  0  0  0  0  0  0
  -26.4858  -25.4965   20.0415 O   0  0  0  0  0  0  0  0  0  1  0  0
  -21.1568   -4.3008   26.1277 F   0  0  0  0  0  0  0  0  0  0  0  0
  -22.4369   -4.2824   21.5707 F   0  0  0  0  0  0  0  0  0  0  0  0
  -28.6361  -19.0040   21.5165 S   0  0  0  0  0  0  0  0  0  0  0  0
  1  2  1  0  0  0  0
  1  5  2  0  0  0  0
  2  6  2  0  0  0  0
  3  8  2  0  0  0  0
  3 16  1  0  0  0  0
  4  9  1  0  0  0  0
  4 16  2  0  0  0  0
  5 18  1  0  0  0  0
  6 20  1  0  0  0  0
  7 10  2  0  0  0  0
  7 19  1  0  0  0  0
  8 23  1  0  0  0  0
  9 23  2  0  0  0  0
 10 24  1  0  0  0  0
 11 12  2  0  0  0  0
 11 25  1  0  0  0  0
 12 26  1  0  0  0  0
 13 21  1  0  0  0  0
 13 24  2  0  0  0  0
 14 22  1  0  0  0  0
 14 31  2  0  0  0  0
 15 26  2  0  0  0  0
 15 27  1  0  0  0  0
 16 28  1  0  0  0  0
 17 28  1  0  0  0  0
 17 30  2  0  0  0  0
 17 32  1  0  0  0  0
 18 20  2  0  0  0  0
 18 38  1  0  0  0  0
 19 21  2  0  0  0  0
 19 39  1  0  0  0  0
 20 49  1  0  0  0  0
 21 40  1  0  0  0  0
 22 29  2  0  0  0  0
 22 41  1  0  0  0  0
 23 79  1  0  0  0  0
 24 80  1  0  0  0  0
 25 27  2  0  0  0  0
 25 79  1  0  0  0  0
 26 81  1  0  0  0  0
 27 82  1  0  0  0  0
 28 62  2  0  0  0  0
 29 42  1  0  0  0  0
 29 83  1  0  0  0  0
 30 63  1  0  0  0  0
 30 67  1  0  0  0  0
 31 69  1  0  0  0  0
 31 83  1  0  0  0  0
 32 68  1  0  0  0  0
 32 73  2  0  0  0  0
 33 50  1  0  0  0  0
 33 70  1  0  0  0  0
 33 74  2  0  0  0  0
 34 57  1  0  0  0  0
 34 58  1  0  0  0  0
 34 75  2  0  0  0  0
 35 59  1  0  0  0  0
 35 64  1  0  0  0  0
 35 76  2  0  0  0  0
 36 60  1  0  0  0  0
 36 71  1  0  0  0  0
 36 77  2  0  0  0  0
 37 65  1  0  0  0  0
 37 66  1  0  0  0  0
 37 78  2  0  0  0  0
 38 43  1  0  0  0  0
 39 50  1  0  0  0  0
 40 64  1  0  0  0  0
 41 65  1  0  0  0  0
 42 65  1  0  0  0  0
 43 45  1  0  0  0  0
 44 46  1  0  0  0  0
 44 47  1  0  0  0  0
 45 49  1  0  0  0  0
 46 51  1  0  0  0  0
 47 66  1  0  0  0  0
 48 51  1  0  0  0  0
 48 66  1  0  0  0  0
 49 70  1  0  0  0  0
 50 64  1  0  0  0  0
 51 63  1  0  0  0  0
 52 60  1  0  0  0  0
 53 61  1  0  0  0  0
 54 61  1  0  0  0  0
 55 61  1  0  0  0  0
 56 72  1  0  0  0  0
 57 69  1  0  0  0  0
 58 80  1  0  0  0  0
 59 61  1  0  0  0  0
 59 71  1  0  0  0  0
 60 72  1  0  0  0  0
 62 63  1  0  0  0  0
M  CHG  1  72   1
M  ISO  4  37 100  58 101  65 100  80 101
M  END
> <Batch ID>
0146

> <Smiles>
CNC(C)C(=O)NC(C(=O)N1Cc2cc([101O:1][101CH2:1]C(=O)CNc3cc4c(s3)C[100N:0]([100C:0](=O)N3CCCC(n5nc(-c6ccc(Oc7ccc(F)cc7F)cc6)c(C(N)=O)c5N)C3)C4)ccc2CC1C(=O)NC1CCCc2ccccc21)C(C)(C)C

> <Shape>
0.335

> <Color>
0.128

> <Negative vol penalty>
0.000

$$$$

  -OEChem-04052303103D

 86 95  0     1  0  0  0  0  0999 V2000
  -28.2222  -27.7578   27.4869 C   0  0  0  0  0  0  0  0  0  0  0  0
  -28.0450  -27.2690   26.1965 C   0  0  0  0  0  0  0  0  0  0  0  0
  -22.9334  -10.2779   20.0083 C   0  0  0  0  0  0  0  0  0  0  0  0
  -23.7526   -9.8976   22.2491 C   0  0  0  0  0  0  0  0  0  0  0  0
  -27.1683  -28.3951   28.1405 C   0  0  0  0  0  0  0  0  0  0  0  0
  -26.8134  -27.4163   25.5594 C   0  0  0  0  0  0  0  0  0  0  0  0
  -27.2818  -28.9612   20.7595 C   0  0  0  0  0  0  0  0  0  0  0  0
  -22.0765   -9.1849   20.1360 C   0  0  0  0  0  0  0  0  0  0  0  0
  -22.8956   -8.8045   22.3769 C   0  0  0  0  0  0  0  0  0  0  0  0
  -27.6478  -28.0031   19.8151 C   0  0  0  0  0  0  0  0  0  0  0  0
  -22.8103   -5.5756   21.3780 C   0  0  0  0  0  0  0  0  0  0  0  0
  -23.3309   -4.4049   21.9293 C   0  0  0  0  0  0  0  0  0  0  0  0
  -25.3419  -27.8005   19.1361 C   0  0  0  0  0  0  0  0  0  0  0  0
  -29.5704  -19.6427   17.4197 C   0  0  0  0  0  0  0  0  0  0  0  0
  -21.7060   -4.5224   23.7134 C   0  0  0  0  0  0  0  0  0  0  0  0
  -23.7716  -10.6343   21.0648 C   0  0  0  0  0  0  0  0  0  0  0  0
  -24.3809  -13.1036   21.2621 C   0  0  0  0  0  0  0  0  0  0  0  0
  -25.9262  -28.5589   27.5074 C   0  0  0  0  0  0  0  0  0  0  0  0
  -25.9394  -29.3388   20.9071 C   0  0  0  0  0  0  0  0  0  0  0  0
  -25.7416  -28.0552   26.2056 C   0  0  0  0  0  0  0  0  0  0  0  0
  -24.9619  -28.7655   20.0814 C   0  0  0  0  0  0  0  0  0  0  0  0
  -29.3941  -18.2466   17.4987 C   0  0  0  0  0  0  0  0  0  0  0  0
  -22.0575   -8.4482   21.3203 C   0  0  0  0  0  0  0  0  0  0  0  0
  -26.6773  -27.4205   19.0052 C   0  0  0  0  0  0  0  0  0  0  0  0
  -21.7375   -6.2198   21.9944 C   0  0  0  0  0  0  0  0  0  0  0  0
  -22.7788   -3.8783   23.0969 C   0  0  0  0  0  0  0  0  0  0  0  0
  -21.1854   -5.6932   23.1621 C   0  0  0  0  0  0  0  0  0  0  0  0
  -24.6574  -11.7630   20.9333 C   0  0  0  0  0  0  0  0  0  0  0  0
  -28.8540  -17.8604   18.6906 C   0  0  0  0  0  0  0  0  0  0  0  0
  -29.1403  -20.2542   18.5869 C   0  0  0  0  0  0  0  0  0  0  0  0
  -25.5372  -13.7781   20.9548 C   0  0  0  0  0  0  0  0  0  0  0  0
  -23.1856  -13.6870   21.7976 C   0  0  0  0  0  0  0  0  0  0  0  0
  -23.8124  -29.1860   23.2641 C   0  0  0  0  0  0  0  0  0  0  0  0
  -21.9787  -30.8837   21.1958 C   0  0  0  0  0  0  0  0  0  0  0  0
  -27.6349  -23.6233   18.4716 C   0  0  0  0  0  0  0  0  0  0  0  0
  -21.3036  -31.7556   17.9662 C   0  0  0  0  0  0  0  0  0  0  0  0
  -29.6380  -14.6520   17.1941 C   0  0  0  0  0  0  0  0  0  0  0  0
  -24.8023  -29.2125   28.2718 C   0  0  0  0  0  0  0  0  0  0  0  0
  -25.5647  -30.3933   21.9121 C   0  0  0  0  0  0  0  0  0  0  0  0
  -23.5097  -29.1511   20.1862 C   0  0  0  0  0  0  0  0  0  0  0  0
  -29.6511  -17.0860   16.6272 C   0  0  0  0  0  0  0  0  0  0  0  0
  -28.6438  -16.4065   18.8043 C   0  0  0  0  0  0  0  0  0  0  0  0
  -23.6428  -29.6605   27.3858 C   0  0  0  0  0  0  0  0  0  0  0  0
  -30.1441  -12.0674   19.7532 C   0  0  0  0  0  0  0  0  0  0  0  0
  -23.2605  -28.5546   26.4072 C   0  0  0  0  0  0  0  0  0  0  0  0
  -28.7252  -11.8403   20.2795 C   0  0  0  0  0  0  0  0  0  0  0  0
  -30.1501  -12.4982   18.2879 C   0  0  0  0  0  0  0  0  0  0  0  0
  -27.8742  -13.4151   18.5061 C   0  0  0  0  0  0  0  0  0  0  0  0
  -24.4281  -28.2177   25.4719 C   0  0  1  0  0  0  0  0  0  0  0  0
  -24.0988  -30.3270   22.3293 C   0  0  1  0  0  0  0  0  0  0  0  0
  -27.8235  -13.0575   19.9974 C   0  0  1  0  0  0  0  0  0  0  0  0
  -31.5166  -21.6951   19.9328 C   0  0  0  0  0  0  0  0  0  0  0  0
  -19.7207  -33.1297   16.5864 C   0  0  0  0  0  0  0  0  0  0  0  0
  -19.8189  -28.7599   21.5629 C   0  0  0  0  0  0  0  0  0  0  0  0
  -18.6999  -29.6417   19.5042 C   0  0  0  0  0  0  0  0  0  0  0  0
  -18.9698  -31.1114   21.5016 C   0  0  0  0  0  0  0  0  0  0  0  0
  -23.4963  -33.4514   16.9292 C   0  0  0  0  0  0  0  0  0  0  0  0
  -26.7698  -24.1999   17.3618 C   0  0  0  0  0  0  0  0  0  0  0  0
  -30.5675  -22.3134   18.9134 C   0  0  0  0  0  0  0  0  0  0  0  0
  -26.0647  -25.4855   17.7657 C   0  0  0  0  0  0  0  0  0  1  0  0
  -29.1447  -21.6939   18.9275 C   0  0  1  0  0  0  0  0  0  0  0  0
  -20.9963  -30.5350   20.1039 C   0  0  1  0  0  0  0  0  0  0  0  0
  -21.0535  -33.1056   17.3185 C   0  0  2  0  0  0  0  0  0  0  0  0
  -19.6482  -30.0031   20.6673 C   0  0  0  0  0  0  0  0  0  0  0  0
  -25.8925  -11.5940   20.4536 N   0  0  0  0  0  0  0  0  0  0  0  0
  -26.4023  -12.8372   20.4788 N   0  0  0  0  0  0  0  0  0  0  0  0
  -23.1924  -30.1819   21.1883 N   0  0  0  0  0  0  0  0  0  0  0  0
  -29.2208  -15.9524   17.4988 N   0  0  0  0  0  0  0  0  0  0  0  0
  -29.2581  -13.6373   18.0779 N   0  0  0  0  0  0  0  0  0  0  0  0
  -25.8882  -15.0783   21.0479 N   0  0  0  0  0  0  0  0  0  0  0  0
  -22.0911  -12.8503   22.0549 N   0  0  0  0  0  0  0  0  0  0  0  0
  -24.5484  -29.2182   24.4332 N   0  0  0  0  0  0  0  0  0  0  0  0
  -28.2543  -22.4599   18.0622 N   0  0  0  0  0  0  0  0  0  0  0  0
  -20.8679  -31.7280   19.2741 N   0  0  0  0  0  0  0  0  0  0  0  0
  -22.1330  -33.4186   16.3399 N   0  3  0  0  0  0  0  0  0  0  0  0
  -23.0854  -14.9165   22.0253 O   0  0  0  0  0  0  0  0  0  0  0  0
  -22.9838  -28.3400   22.9489 O   0  0  0  0  0  0  0  0  0  0  0  0
  -21.6830  -31.7519   22.0207 O   0  0  0  0  0  0  0  0  0  0  0  0
  -27.7488  -24.1455   19.5771 O   0  0  0  0  0  0  0  0  0  0  0  0
  -21.8293  -30.8181   17.3702 O   0  0  0  0  0  0  0  0  0  0  0  0
  -30.3582  -14.4183   16.2153 O   0  0  0  0  0  0  0  0  0  0  0  0
  -21.2212   -7.3816   21.4454 O   0  0  0  0  0  0  0  0  0  0  0  0
  -27.0342  -26.4780   18.0765 O   0  0  0  0  0  0  0  0  0  1  0  0
  -23.2778   -2.7532   23.6254 F   0  0  0  0  0  0  0  0  0  0  0  0
  -20.1539   -6.3069   23.7581 F   0  0  0  0  0  0  0  0  0  0  0  0
  -28.5379  -19.1176   19.7454 S   0  0  0  0  0  0  0  0  0  0  0  0
  1  2  1  0  0  0  0
  1  5  2  0  0  0  0
  2  6  2  0  0  0  0
  3  8  2  0  0  0  0
  3 16  1  0  0  0  0
  4  9  1  0  0  0  0
  4 16  2  0  0  0  0
  5 18  1  0  0  0  0
  6 20  1  0  0  0  0
  7 10  2  0  0  0  0
  7 19  1  0  0  0  0
  8 23  1  0  0  0  0
  9 23  2  0  0  0  0
 10 24  1  0  0  0  0
 11 12  2  0  0  0  0
 11 25  1  0  0  0  0
 12 26  1  0  0  0  0
 13 21  1  0  0  0  0
 13 24  2  0  0  0  0
 14 22  1  0  0  0  0
 14 30  2  0  0  0  0
 15 26  2  0  0  0  0
 15 27  1  0  0  0  0
 16 28  1  0  0  0  0
 17 28  1  0  0  0  0
 17 31  2  0  0  0  0
 17 32  1  0  0  0  0
 18 20  2  0  0  0  0
 18 38  1  0  0  0  0
 19 21  2  0  0  0  0
 19 39  1  0  0  0  0
 20 49  1  0  0  0  0
 21 40  1  0  0  0  0
 22 29  2  0  0  0  0
 22 41  1  0  0  0  0
 23 82  1  0  0  0  0
 24 83  1  0  0  0  0
 25 27  2  0  0  0  0
 25 82  1  0  0  0  0
 26 84  1  0  0  0  0
 27 85  1  0  0  0  0
 28 65  2  0  0  0  0
 29 42  1  0  0  0  0
 29 86  1  0  0  0  0
 30 61  1  0  0  0  0
 30 86  1  0  0  0  0
 31 66  1  0  0  0  0
 31 70  1  0  0  0  0
 32 71  1  0  0  0  0
 32 76  2  0  0  0  0
 33 50  1  0  0  0  0
 33 72  1  0  0  0  0
 33 77  2  0  0  0  0
 34 62  1  0  0  0  0
 34 67  1  0  0  0  0
 34 78  2  0  0  0  0
 35 58  1  0  0  0  0
 35 73  1  0  0  0  0
 35 79  2  0  0  0  0
 36 63  1  0  0  0  0
 36 74  1  0  0  0  0
 36 80  2  0  0  0  0
 37 68  1  0  0  0  0
 37 69  1  0  0  0  0
 37 81  2  0  0  0  0
 38 43  1  0  0  0  0
 39 50  1  0  0  0  0
 40 67  1  0  0  0  0
 41 68  1  0  0  0  0
 42 68  1  0  0  0  0
 43 45  1  0  0  0  0
 44 46  1  0  0  0  0
 44 47  1  0  0  0  0
 45 49  1  0  0  0  0
 46 51  1  0  0  0  0
 47 69  1  0  0  0  0
 48 51  1  0  0  0  0
 48 69  1  0  0  0  0
 49 72  1  0  0  0  0
 50 67  1  0  0  0  0
 51 66  1  0  0  0  0
 52 59  1  0  0  0  0
 53 63  1  0  0  0  0
 54 64  1  0  0  0  0
 55 64  1  0  0  0  0
 56 64  1  0  0  0  0
 57 75  1  0  0  0  0
 58 60  1  0  0  0  0
 59 61  1  0  0  0  0
 60 83  1  0  0  0  0
 61 73  1  0  0  0  0
 62 64  1  0  0  0  0
 62 74  1  0  0  0  0
 63 75  1  0  0  0  0
 65 66  1  0  0  0  0
M  CHG  1  75   1
M  ISO  4  37 100  60 101  68 100  83 101
M  END
> <Batch ID>
0146

> <Smiles>
CCC(NC(=O)C[101CH2:1][101O:1]c1ccc2c(c1)CN(C(=O)C(NC(=O)C(C)NC)C(C)(C)C)C(C(=O)NC1CCCc3ccccc31)C2)c1cc2c(s1)C[100N:0]([100C:0](=O)N1CCCC(n3nc(-c4ccc(Oc5ccc(F)cc5F)cc4)c(C(N)=O)c3N)C1)C2

> <Shape>
0.288

> <Color>
0.185

> <Negative vol penalty>
0.000

$$$$

  -OEChem-04052303103D

 87 96  0     1  0  0  0  0  0999 V2000
  -16.8732  -27.6571   22.6850 C   0  0  0  0  0  0  0  0  0  0  0  0
  -17.7891  -26.6149   22.7869 C   0  0  0  0  0  0  0  0  0  0  0  0
  -23.1408   -9.8155   20.2003 C   0  0  0  0  0  0  0  0  0  0  0  0
  -23.7776  -10.1459   22.5074 C   0  0  0  0  0  0  0  0  0  0  0  0
  -17.3221  -28.9764   22.6421 C   0  0  0  0  0  0  0  0  0  0  0  0
  -19.1546  -26.8914   22.8447 C   0  0  0  0  0  0  0  0  0  0  0  0
  -23.4030  -23.8158   26.0067 C   0  0  0  0  0  0  0  0  0  0  0  0
  -22.3972   -8.6936   20.5662 C   0  0  0  0  0  0  0  0  0  0  0  0
  -23.0339   -9.0239   22.8733 C   0  0  0  0  0  0  0  0  0  0  0  0
  -24.3193  -22.8326   25.6359 C   0  0  0  0  0  0  0  0  0  0  0  0
  -19.7871   -8.2572   23.4125 C   0  0  0  0  0  0  0  0  0  0  0  0
  -18.9695   -8.3623   24.5377 C   0  0  0  0  0  0  0  0  0  0  0  0
  -31.5504  -19.1417   21.8927 C   0  0  0  0  0  0  0  0  0  0  0  0
  -31.6647  -17.8361   21.3584 C   0  0  0  0  0  0  0  0  0  0  0  0
  -26.0143  -24.5262   25.3567 C   0  0  0  0  0  0  0  0  0  0  0  0
  -20.1908   -6.5646   25.5931 C   0  0  0  0  0  0  0  0  0  0  0  0
  -23.8310  -10.5417   21.1709 C   0  0  0  0  0  0  0  0  0  0  0  0
  -24.1515  -13.0331   20.7266 C   0  0  0  0  0  0  0  0  0  0  0  0
  -18.6932  -29.2697   22.7091 C   0  0  0  0  0  0  0  0  0  0  0  0
  -23.7831  -25.1650   26.0448 C   0  0  0  0  0  0  0  0  0  0  0  0
  -19.6223  -28.2158   22.8013 C   0  0  0  0  0  0  0  0  0  0  0  0
  -25.1016  -25.5243   25.7308 C   0  0  0  0  0  0  0  0  0  0  0  0
  -22.3437   -8.2978   21.9027 C   0  0  0  0  0  0  0  0  0  0  0  0
  -25.6244  -23.1881   25.3080 C   0  0  0  0  0  0  0  0  0  0  0  0
  -20.8066   -7.3058   23.3776 C   0  0  0  0  0  0  0  0  0  0  0  0
  -19.1713   -7.5160   25.6280 C   0  0  0  0  0  0  0  0  0  0  0  0
  -21.0084   -6.4595   24.4679 C   0  0  0  0  0  0  0  0  0  0  0  0
  -24.5998  -11.7004   20.7935 C   0  0  0  0  0  0  0  0  0  0  0  0
  -25.2532  -13.7461   20.3213 C   0  0  0  0  0  0  0  0  0  0  0  0
  -30.2810  -19.2310   22.4148 C   0  0  0  0  0  0  0  0  0  0  0  0
  -30.4571  -17.2205   21.5924 C   0  0  0  0  0  0  0  0  0  0  0  0
  -22.8550  -13.5780   21.0059 C   0  0  0  0  0  0  0  0  0  0  0  0
  -22.8690  -27.7971   24.5149 C   0  0  0  0  0  0  0  0  0  0  0  0
  -24.8887  -29.2425   26.6016 C   0  0  0  0  0  0  0  0  0  0  0  0
  -27.5943  -28.9843   28.6655 C   0  0  0  0  0  0  0  0  0  0  0  0
  -30.6908  -14.9033   20.6320 C   0  0  0  0  0  0  0  0  0  0  0  0
  -19.1333  -30.7090   22.6115 C   0  0  0  0  0  0  0  0  0  0  0  0
  -22.7900  -26.2106   26.4726 C   0  0  0  0  0  0  0  0  0  0  0  0
  -25.5654  -26.9565   25.7757 C   0  0  0  0  0  0  0  0  0  0  0  0
  -20.5760  -30.9362   23.0555 C   0  0  0  0  0  0  0  0  0  0  0  0
  -29.7299  -12.1722   18.5595 C   0  0  0  0  0  0  0  0  0  0  0  0
  -21.4964  -29.8892   22.4362 C   0  0  0  0  0  0  0  0  0  0  0  0
  -28.2727  -11.9156   18.9505 C   0  0  0  0  0  0  0  0  0  0  0  0
  -30.5774  -12.5776   19.7642 C   0  0  0  0  0  0  0  0  0  0  0  0
  -28.5920  -13.4477   20.9349 C   0  0  0  0  0  0  0  0  0  0  0  0
  -29.3385  -21.5322   22.5431 C   0  0  0  0  0  0  0  0  0  0  0  0
  -21.1103  -28.4767   22.8914 C   0  0  1  0  0  0  0  0  0  0  0  0
  -23.1459  -27.6098   25.9798 C   0  0  1  0  0  0  0  0  0  0  0  0
  -27.6851  -13.0996   19.7433 C   0  0  2  0  0  0  0  0  0  0  0  0
  -28.5581  -20.1795   23.9747 C   0  0  2  0  0  0  0  0  0  0  0  0
  -27.9512  -21.4038   23.2162 C   0  0  2  0  0  0  0  0  0  0  0  0
  -26.8347  -21.0074   22.2436 C   0  0  0  0  0  0  0  0  0  0  0  0
  -29.0314  -30.3444   30.2090 C   0  0  0  0  0  0  0  0  0  0  0  0
  -27.8485  -18.3040   26.3017 C   0  0  0  0  0  0  0  0  0  0  0  0
  -29.7019  -19.3082   27.6439 C   0  0  0  0  0  0  0  0  0  0  0  0
  -30.2096  -18.0904   25.5120 C   0  0  0  0  0  0  0  0  0  0  0  0
  -26.2628  -30.5179   24.1943 C   0  0  0  0  0  0  0  0  0  0  0  0
  -28.2030  -31.0643   25.6794 C   0  0  0  0  0  0  0  0  0  0  0  0
  -25.9583  -32.0445   26.1517 C   0  0  0  0  0  0  0  0  0  0  0  0
  -26.8951  -27.2952   30.9929 C   0  0  0  0  0  0  0  0  0  0  0  0
  -29.0144  -20.3387   25.4175 C   0  0  0  0  0  0  0  0  0  0  0  0
  -27.5496  -22.6157   24.0345 C   0  0  0  0  0  0  0  0  0  1  0  0
  -26.3580  -29.5889   26.6014 C   0  0  1  0  0  0  0  0  0  0  0  0
  -27.8158  -29.4373   30.0973 C   0  0  2  0  0  0  0  0  0  0  0  0
  -29.2093  -19.0225   26.2155 C   0  0  0  0  0  0  0  0  0  0  0  0
  -26.6866  -30.7771   25.6539 C   0  0  0  0  0  0  0  0  0  0  0  0
  -25.8861  -11.5716   20.4574 N   0  0  0  0  0  0  0  0  0  0  0  0
  -26.2554  -12.8326   20.1754 N   0  0  0  0  0  0  0  0  0  0  0  0
  -29.6386  -20.2291   23.0370 N   0  0  1  0  0  0  0  0  0  0  0  0
  -24.5556  -27.9430   26.1939 N   0  0  0  0  0  0  0  0  0  0  0  0
  -29.9615  -13.7073   20.4637 N   0  0  0  0  0  0  0  0  0  0  0  0
  -25.4528  -15.0591   20.0789 N   0  0  0  0  0  0  0  0  0  0  0  0
  -21.8365  -12.7048   21.4113 N   0  0  0  0  0  0  0  0  0  0  0  0
  -29.9910  -15.9187   21.2830 N   0  0  0  0  0  0  0  0  0  0  0  0
  -21.5871  -28.2308   24.2355 N   0  0  0  0  0  0  0  0  0  0  0  0
  -26.7237  -29.8174   27.9951 N   0  0  0  0  0  0  0  0  0  0  0  0
  -28.0248  -28.2599   30.9867 N   0  3  0  0  0  0  0  0  0  0  0  0
  -22.6028  -14.8006   20.8834 O   0  0  0  0  0  0  0  0  0  0  0  0
  -23.7534  -27.5666   23.6986 O   0  0  0  0  0  0  0  0  0  0  0  0
  -24.0672  -30.0912   26.9574 O   0  0  0  0  0  0  0  0  0  0  0  0
  -28.1419  -27.9929   28.1882 O   0  0  0  0  0  0  0  0  0  0  0  0
  -31.8413  -15.0275   20.2042 O   0  0  0  0  0  0  0  0  0  0  0  0
  -29.6081  -18.0640   22.2360 O   0  0  0  0  0  0  0  0  0  0  0  0
  -21.6180   -7.2032   22.2601 O   0  0  0  0  0  0  0  0  0  0  0  0
  -26.5207  -22.2305   24.9452 O   0  0  0  0  0  0  0  0  0  1  0  0
  -18.3870   -7.6181   26.7090 F   0  0  0  0  0  0  0  0  0  0  0  0
  -21.9870   -5.5444   24.4406 F   0  0  0  0  0  0  0  0  0  0  0  0
  1  2  1  0  0  0  0
  1  5  2  0  0  0  0
  2  6  2  0  0  0  0
  3  8  2  0  0  0  0
  3 17  1  0  0  0  0
  4  9  1  0  0  0  0
  4 17  2  0  0  0  0
  5 19  1  0  0  0  0
  6 21  1  0  0  0  0
  7 10  2  0  0  0  0
  7 20  1  0  0  0  0
  8 23  1  0  0  0  0
  9 23  2  0  0  0  0
 10 24  1  0  0  0  0
 11 12  2  0  0  0  0
 11 25  1  0  0  0  0
 12 26  1  0  0  0  0
 13 14  1  0  0  0  0
 13 30  2  0  0  0  0
 14 31  2  0  0  0  0
 15 22  1  0  0  0  0
 15 24  2  0  0  0  0
 16 26  2  0  0  0  0
 16 27  1  0  0  0  0
 17 28  1  0  0  0  0
 18 28  1  0  0  0  0
 18 29  2  0  0  0  0
 18 32  1  0  0  0  0
 19 21  2  0  0  0  0
 19 37  1  0  0  0  0
 20 22  2  0  0  0  0
 20 38  1  0  0  0  0
 21 47  1  0  0  0  0
 22 39  1  0  0  0  0
 23 84  1  0  0  0  0
 24 85  1  0  0  0  0
 25 27  2  0  0  0  0
 25 84  1  0  0  0  0
 26 86  1  0  0  0  0
 27 87  1  0  0  0  0
 28 67  2  0  0  0  0
 29 68  1  0  0  0  0
 29 72  1  0  0  0  0
 30 69  1  0  0  0  0
 30 83  1  0  0  0  0
 31 74  1  0  0  0  0
 31 83  1  0  0  0  0
 32 73  1  0  0  0  0
 32 78  2  0  0  0  0
 33 48  1  0  0  0  0
 33 75  1  0  0  0  0
 33 79  2  0  0  0  0
 34 63  1  0  0  0  0
 34 70  1  0  0  0  0
 34 80  2  0  0  0  0
 35 64  1  0  0  0  0
 35 76  1  0  0  0  0
 35 81  2  0  0  0  0
 36 71  1  0  0  0  0
 36 74  1  0  0  0  0
 36 82  2  0  0  0  0
 37 40  1  0  0  0  0
 38 48  1  0  0  0  0
 39 70  1  0  0  0  0
 40 42  1  0  0  0  0
 41 43  1  0  0  0  0
 41 44  1  0  0  0  0
 42 47  1  0  0  0  0
 43 49  1  0  0  0  0
 44 71  1  0  0  0  0
 45 49  1  0  0  0  0
 45 71  1  0  0  0  0
 46 51  1  0  0  0  0
 46 69  1  0  0  0  0
 47 75  1  0  0  0  0
 48 70  1  0  0  0  0
 49 68  1  0  0  0  0
 50 51  1  0  0  0  0
 50 61  1  0  0  0  0
 50 69  1  0  0  0  0
 51 52  1  0  0  0  0
 51 62  1  0  0  0  0
 53 64  1  0  0  0  0
 54 65  1  0  0  0  0
 55 65  1  0  0  0  0
 56 65  1  0  0  0  0
 57 66  1  0  0  0  0
 58 66  1  0  0  0  0
 59 66  1  0  0  0  0
 60 77  1  0  0  0  0
 61 65  1  0  0  0  0
 62 85  1  0  0  0  0
 63 66  1  0  0  0  0
 63 76  1  0  0  0  0
 64 77  1  0  0  0  0
 67 68  1  0  0  0  0
M  CHG  1  77   1
M  ISO  4  36 100  62 101  74 100  85 101
M  END
> <Batch ID>
0146

> <Smiles>
CNC(C)C(=O)NC(C(=O)N1Cc2cc([101O:1][101CH2:1]C3(C)CN(c4ccc([100NH:0][100C:0](=O)N5CCCC(n6nc(-c7ccc(Oc8ccc(F)cc8F)cc7)c(C(N)=O)c6N)C5)o4)C3CC(C)(C)C)ccc2CC1C(=O)NC1CCCc2ccccc21)C(C)(C)C

> <Shape>
0.273

> <Color>
0.206

> <Negative vol penalty>
0.000

$$$$

  -OEChem-04052303103D

 86 94  0     1  0  0  0  0  0999 V2000
  -30.3115  -18.3768   16.0325 C   0  0  0  0  0  0  0  0  0  0  0  0
  -29.9341  -18.7301   17.3240 C   0  0  0  0  0  0  0  0  0  0  0  0
  -23.0744   -9.8673   19.9434 C   0  0  0  0  0  0  0  0  0  0  0  0
  -23.8313   -9.8790   22.2377 C   0  0  0  0  0  0  0  0  0  0  0  0
  -31.5856  -18.6992   15.5670 C   0  0  0  0  0  0  0  0  0  0  0  0
  -30.8310  -19.4050   18.1513 C   0  0  0  0  0  0  0  0  0  0  0  0
  -28.6741  -23.2711   20.6102 C   0  0  0  0  0  0  0  0  0  0  0  0
  -32.0606  -16.6114   22.5492 C   0  0  0  0  0  0  0  0  0  0  0  0
  -22.3298   -8.7150   20.1949 C   0  0  0  0  0  0  0  0  0  0  0  0
  -23.0867   -8.7266   22.4892 C   0  0  0  0  0  0  0  0  0  0  0  0
  -27.8924  -22.9616   21.7223 C   0  0  0  0  0  0  0  0  0  0  0  0
  -32.6470  -17.4970   23.4534 C   0  0  0  0  0  0  0  0  0  0  0  0
  -19.3794   -7.9226   21.6440 C   0  0  0  0  0  0  0  0  0  0  0  0
  -18.0731   -7.8757   21.1572 C   0  0  0  0  0  0  0  0  0  0  0  0
  -29.7304  -23.5489   23.1701 C   0  0  0  0  0  0  0  0  0  0  0  0
  -29.8758  -17.4611   23.1339 C   0  0  0  0  0  0  0  0  0  0  0  0
  -18.6339   -5.9296   19.8399 C   0  0  0  0  0  0  0  0  0  0  0  0
  -23.8252  -10.4493   20.9648 C   0  0  0  0  0  0  0  0  0  0  0  0
  -24.1681  -12.9741   20.8398 C   0  0  0  0  0  0  0  0  0  0  0  0
  -32.4952  -19.3870   16.3856 C   0  0  0  0  0  0  0  0  0  0  0  0
  -29.9956  -23.7121   20.7695 C   0  0  0  0  0  0  0  0  0  0  0  0
  -32.1190  -19.7358   17.6968 C   0  0  0  0  0  0  0  0  0  0  0  0
  -30.5259  -23.8658   22.0584 C   0  0  0  0  0  0  0  0  0  0  0  0
  -30.6749  -16.5935   22.3895 C   0  0  0  0  0  0  0  0  0  0  0  0
  -30.4622  -18.3467   24.0381 C   0  0  0  0  0  0  0  0  0  0  0  0
  -22.3359   -8.1446   21.4678 C   0  0  0  0  0  0  0  0  0  0  0  0
  -28.4214  -23.0978   23.0024 C   0  0  0  0  0  0  0  0  0  0  0  0
  -31.8478  -18.3646   24.1978 C   0  0  0  0  0  0  0  0  0  0  0  0
  -20.3130   -6.9730   21.2287 C   0  0  0  0  0  0  0  0  0  0  0  0
  -17.7003   -6.8793   20.2551 C   0  0  0  0  0  0  0  0  0  0  0  0
  -19.9402   -5.9765   20.3267 C   0  0  0  0  0  0  0  0  0  0  0  0
  -24.5951  -11.6393   20.7055 C   0  0  0  0  0  0  0  0  0  0  0  0
  -25.2610  -13.7224   20.4763 C   0  0  0  0  0  0  0  0  0  0  0  0
  -22.8973  -13.4912   21.2559 C   0  0  0  0  0  0  0  0  0  0  0  0
  -32.8479  -22.6123   19.8985 C   0  0  0  0  0  0  0  0  0  0  0  0
  -33.8744  -25.4455   21.0989 C   0  0  0  0  0  0  0  0  0  0  0  0
  -28.2506  -19.3220   24.7452 C   0  0  0  0  0  0  0  0  0  0  0  0
  -33.3183  -28.0704   23.2079 C   0  0  0  0  0  0  0  0  0  0  0  0
  -30.7273  -14.7664   20.6559 C   0  0  0  0  0  0  0  0  0  0  0  0
  -33.8778  -19.6720   15.8547 C   0  0  0  0  0  0  0  0  0  0  0  0
  -30.8170  -24.0674   19.5606 C   0  0  0  0  0  0  0  0  0  0  0  0
  -31.9324  -24.3549   22.2842 C   0  0  0  0  0  0  0  0  0  0  0  0
  -34.6376  -20.7191   16.6651 C   0  0  0  0  0  0  0  0  0  0  0  0
  -29.6151  -12.3479   18.2914 C   0  0  0  0  0  0  0  0  0  0  0  0
  -34.5173  -20.4293   18.1579 C   0  0  0  0  0  0  0  0  0  0  0  0
  -28.1748  -12.0578   18.7197 C   0  0  0  0  0  0  0  0  0  0  0  0
  -30.5288  -12.5790   19.4937 C   0  0  0  0  0  0  0  0  0  0  0  0
  -28.6203  -13.3071   20.8709 C   0  0  0  0  0  0  0  0  0  0  0  0
  -33.0551  -20.4904   18.6157 C   0  0  1  0  0  0  0  0  0  0  0  0
  -32.3190  -24.0166   19.8228 C   0  0  1  0  0  0  0  0  0  0  0  0
  -27.6489  -13.1316   19.6922 C   0  0  2  0  0  0  0  0  0  0  0  0
  -33.3480  -21.4173   25.3754 C   0  0  0  0  0  0  0  0  0  0  0  0
  -34.3536  -30.2149   23.9994 C   0  0  0  0  0  0  0  0  0  0  0  0
  -35.8215  -23.8621   22.8342 C   0  0  0  0  0  0  0  0  0  0  0  0
  -36.1269  -25.9115   24.2396 C   0  0  0  0  0  0  0  0  0  0  0  0
  -36.7749  -25.9451   21.8309 C   0  0  0  0  0  0  0  0  0  0  0  0
  -31.0459  -29.6754   22.1984 C   0  0  0  0  0  0  0  0  0  0  0  0
  -27.7643  -20.3900   25.7151 C   0  0  0  0  0  0  0  0  0  0  0  0
  -26.4767  -21.0622   25.2514 C   0  0  0  0  0  0  0  0  0  0  0  0
  -33.3739  -20.1566   24.5379 C   0  0  0  0  0  0  0  0  0  0  0  0
  -26.6659  -21.7859   23.9261 C   0  0  0  0  0  0  0  0  0  1  0  0
  -34.3250  -25.9316   22.4553 C   0  0  1  0  0  0  0  0  0  0  0  0
  -33.4108  -29.5706   22.9950 C   0  0  2  0  0  0  0  0  0  0  0  0
  -35.7362  -25.4015   22.8360 C   0  0  0  0  0  0  0  0  0  0  0  0
  -25.8604  -11.5422   20.2891 N   0  0  0  0  0  0  0  0  0  0  0  0
  -26.2379  -12.8253   20.1585 N   0  0  0  0  0  0  0  0  0  0  0  0
  -32.6979  -24.6834   21.0702 N   0  0  0  0  0  0  0  0  0  0  0  0
  -29.9690  -13.6119   20.3681 N   0  0  0  0  0  0  0  0  0  0  0  0
  -25.4720  -15.0536   20.4007 N   0  0  0  0  0  0  0  0  0  0  0  0
  -21.8846  -12.5832   21.5939 N   0  0  0  0  0  0  0  0  0  0  0  0
  -29.6382  -19.2196   24.7877 N   0  0  0  0  0  0  0  0  0  0  0  0
  -30.0792  -15.6935   21.4714 N   0  0  0  0  0  0  0  0  0  0  0  0
  -32.6268  -21.8655   18.7570 N   0  0  0  0  0  0  0  0  0  0  0  0
  -34.2220  -27.3865   22.4225 N   0  0  0  0  0  0  0  0  0  0  0  0
  -32.0673  -30.1985   23.1418 N   0  3  0  0  0  0  0  0  0  0  0  0
  -22.6614  -14.7221   21.3103 O   0  0  0  0  0  0  0  0  0  0  0  0
  -33.4159  -22.2346   20.9165 O   0  0  0  0  0  0  0  0  0  0  0  0
  -34.5378  -25.7376   20.1008 O   0  0  0  0  0  0  0  0  0  0  0  0
  -27.4766  -18.6742   24.0484 O   0  0  0  0  0  0  0  0  0  0  0  0
  -32.5263  -27.5569   23.9950 O   0  0  0  0  0  0  0  0  0  0  0  0
  -31.8571  -14.9337   20.1894 O   0  0  0  0  0  0  0  0  0  0  0  0
  -21.6092   -7.0203   21.7136 O   0  0  0  0  0  0  0  0  0  0  0  0
  -27.6608  -22.7958   24.0897 O   0  0  0  0  0  0  0  0  0  1  0  0
  -32.4407  -19.2223   25.0758 O   0  0  0  0  0  0  0  0  0  0  0  0
  -16.4455   -6.8335   19.7889 F   0  0  0  0  0  0  0  0  0  0  0  0
  -20.8323   -5.0607   19.9250 F   0  0  0  0  0  0  0  0  0  0  0  0
  1  2  1  0  0  0  0
  1  5  2  0  0  0  0
  2  6  2  0  0  0  0
  3  9  2  0  0  0  0
  3 18  1  0  0  0  0
  4 10  1  0  0  0  0
  4 18  2  0  0  0  0
  5 20  1  0  0  0  0
  6 22  1  0  0  0  0
  7 11  2  0  0  0  0
  7 21  1  0  0  0  0
  8 12  2  0  0  0  0
  8 24  1  0  0  0  0
  9 26  1  0  0  0  0
 10 26  2  0  0  0  0
 11 27  1  0  0  0  0
 12 28  1  0  0  0  0
 13 14  2  0  0  0  0
 13 29  1  0  0  0  0
 14 30  1  0  0  0  0
 15 23  1  0  0  0  0
 15 27  2  0  0  0  0
 16 24  2  0  0  0  0
 16 25  1  0  0  0  0
 17 30  2  0  0  0  0
 17 31  1  0  0  0  0
 18 32  1  0  0  0  0
 19 32  1  0  0  0  0
 19 33  2  0  0  0  0
 19 34  1  0  0  0  0
 20 22  2  0  0  0  0
 20 40  1  0  0  0  0
 21 23  2  0  0  0  0
 21 41  1  0  0  0  0
 22 49  1  0  0  0  0
 23 42  1  0  0  0  0
 24 72  1  0  0  0  0
 25 28  2  0  0  0  0
 25 71  1  0  0  0  0
 26 82  1  0  0  0  0
 27 83  1  0  0  0  0
 28 84  1  0  0  0  0
 29 31  2  0  0  0  0
 29 82  1  0  0  0  0
 30 85  1  0  0  0  0
 31 86  1  0  0  0  0
 32 65  2  0  0  0  0
 33 66  1  0  0  0  0
 33 69  1  0  0  0  0
 34 70  1  0  0  0  0
 34 76  2  0  0  0  0
 35 50  1  0  0  0  0
 35 73  1  0  0  0  0
 35 77  2  0  0  0  0
 36 62  1  0  0  0  0
 36 67  1  0  0  0  0
 36 78  2  0  0  0  0
 37 58  1  0  0  0  0
 37 71  1  0  0  0  0
 37 79  2  0  0  0  0
 38 63  1  0  0  0  0
 38 74  1  0  0  0  0
 38 80  2  0  0  0  0
 39 68  1  0  0  0  0
 39 72  1  0  0  0  0
 39 81  2  0  0  0  0
 40 43  1  0  0  0  0
 41 50  1  0  0  0  0
 42 67  1  0  0  0  0
 43 45  1  0  0  0  0
 44 46  1  0  0  0  0
 44 47  1  0  0  0  0
 45 49  1  0  0  0  0
 46 51  1  0  0  0  0
 47 68  1  0  0  0  0
 48 51  1  0  0  0  0
 48 68  1  0  0  0  0
 49 73  1  0  0  0  0
 50 67  1  0  0  0  0
 51 66  1  0  0  0  0
 52 60  1  0  0  0  0
 53 63  1  0  0  0  0
 54 64  1  0  0  0  0
 55 64  1  0  0  0  0
 56 64  1  0  0  0  0
 57 75  1  0  0  0  0
 58 59  1  0  0  0  0
 59 61  1  0  0  0  0
 60 84  1  0  0  0  0
 61 83  1  0  0  0  0
 62 64  1  0  0  0  0
 62 74  1  0  0  0  0
 63 75  1  0  0  0  0
 65 66  1  0  0  0  0
M  CHG  1  75   1
M  ISO  4  39 100  61 101  72 100  83 101
M  END
> <Batch ID>
0146

> <Smiles>
CCOc1ccc([100NH:0][100C:0](=O)N2CCCC(n3nc(-c4ccc(Oc5ccc(F)cc5F)cc4)c(C(N)=O)c3N)C2)cc1NC(=O)CC[101CH2:1][101O:1]c1ccc2c(c1)CN(C(=O)C(NC(=O)C(C)NC)C(C)(C)C)C(C(=O)NC1CCCc3ccccc31)C2

> <Shape>
0.173

> <Color>
0.187

> <Negative vol penalty>
0.000

$$$$

  -OEChem-04052303103D

 88 97  0     1  0  0  0  0  0999 V2000
  -33.1286  -32.5184   15.9400 C   0  0  0  0  0  0  0  0  0  0  0  0
  -32.2571  -31.4562   16.1581 C   0  0  0  0  0  0  0  0  0  0  0  0
  -23.9678   -9.6215   21.4334 C   0  0  0  0  0  0  0  0  0  0  0  0
  -24.4674  -10.6971   23.5383 C   0  0  0  0  0  0  0  0  0  0  0  0
  -33.4499  -33.3813   16.9870 C   0  0  0  0  0  0  0  0  0  0  0  0
  -31.7072  -31.2555   17.4237 C   0  0  0  0  0  0  0  0  0  0  0  0
  -26.1107  -29.1275   18.7107 C   0  0  0  0  0  0  0  0  0  0  0  0
  -23.4835   -8.5068   22.1179 C   0  0  0  0  0  0  0  0  0  0  0  0
  -23.9830   -9.5824   24.2229 C   0  0  0  0  0  0  0  0  0  0  0  0
  -25.6473  -27.8613   19.0656 C   0  0  0  0  0  0  0  0  0  0  0  0
  -20.6603   -7.6215   23.7547 C   0  0  0  0  0  0  0  0  0  0  0  0
  -19.4548   -7.0688   23.3226 C   0  0  0  0  0  0  0  0  0  0  0  0
  -30.4889  -19.3044   20.0365 C   0  0  0  0  0  0  0  0  0  0  0  0
  -25.7479  -28.4838   21.3940 C   0  0  0  0  0  0  0  0  0  0  0  0
  -20.5733   -4.9728   22.8831 C   0  0  0  0  0  0  0  0  0  0  0  0
  -24.4598  -10.7166   22.1436 C   0  0  0  0  0  0  0  0  0  0  0  0
  -30.2208  -20.6997   20.1435 C   0  0  0  0  0  0  0  0  0  0  0  0
  -24.2300  -13.0011   21.0318 C   0  0  0  0  0  0  0  0  0  0  0  0
  -32.8960  -33.1968   18.2637 C   0  0  0  0  0  0  0  0  0  0  0  0
  -26.4070  -30.0792   19.6970 C   0  0  0  0  0  0  0  0  0  0  0  0
  -32.0224  -32.1160   18.4891 C   0  0  0  0  0  0  0  0  0  0  0  0
  -26.2124  -29.7621   21.0489 C   0  0  0  0  0  0  0  0  0  0  0  0
  -23.4911   -8.4873   23.5127 C   0  0  0  0  0  0  0  0  0  0  0  0
  -25.4686  -27.5383   20.4075 C   0  0  0  0  0  0  0  0  0  0  0  0
  -21.8224   -6.8499   23.7509 C   0  0  0  0  0  0  0  0  0  0  0  0
  -19.4112   -5.7444   22.8868 C   0  0  0  0  0  0  0  0  0  0  0  0
  -21.7789   -5.5256   23.3152 C   0  0  0  0  0  0  0  0  0  0  0  0
  -24.9607  -11.8681   21.4371 C   0  0  0  0  0  0  0  0  0  0  0  0
  -25.1548  -13.8000   20.4050 C   0  0  0  0  0  0  0  0  0  0  0  0
  -28.9703  -20.9479   20.6650 C   0  0  0  0  0  0  0  0  0  0  0  0
  -29.4328  -18.5392   20.4807 C   0  0  0  0  0  0  0  0  0  0  0  0
  -26.7523  -23.7666   21.5868 C   0  0  0  0  0  0  0  0  0  0  0  0
  -27.0029  -22.3044   21.4820 C   0  0  0  0  0  0  0  0  0  0  0  0
  -31.1321  -21.7469   19.7590 C   0  0  0  0  0  0  0  0  0  0  0  0
  -22.8395  -13.3042   21.2063 C   0  0  0  0  0  0  0  0  0  0  0  0
  -25.5699  -24.2715   21.9469 C   0  0  0  0  0  0  0  0  0  0  0  0
  -29.0300  -31.6301   20.6016 C   0  0  0  0  0  0  0  0  0  0  0  0
  -26.9603  -33.2031   22.5418 C   0  0  0  0  0  0  0  0  0  0  0  0
  -23.9799  -33.2056   24.2043 C   0  0  0  0  0  0  0  0  0  0  0  0
  -30.1937  -16.1576   20.1715 C   0  0  0  0  0  0  0  0  0  0  0  0
  -33.3100  -34.1276   19.3759 C   0  0  0  0  0  0  0  0  0  0  0  0
  -26.8806  -31.4495   19.2965 C   0  0  0  0  0  0  0  0  0  0  0  0
  -26.4967  -30.7550   22.1452 C   0  0  0  0  0  0  0  0  0  0  0  0
  -27.9766  -24.5281   21.2164 C   0  0  0  0  0  0  0  0  0  0  0  0
  -32.3918  -34.0673   20.5939 C   0  0  0  0  0  0  0  0  0  0  0  0
  -29.9046  -12.8249   18.9524 C   0  0  0  0  0  0  0  0  0  0  0  0
  -32.1065  -32.6185   20.9763 C   0  0  0  0  0  0  0  0  0  0  0  0
  -28.5325  -12.3721   19.4568 C   0  0  0  0  0  0  0  0  0  0  0  0
  -28.8780  -23.4626   20.6145 C   0  0  0  0  0  0  0  0  0  0  0  0
  -30.6160  -13.7173   19.9679 C   0  0  0  0  0  0  0  0  0  0  0  0
  -28.4633  -14.4169   20.9403 C   0  0  0  0  0  0  0  0  0  0  0  0
  -31.3860  -31.8801   19.8417 C   0  0  1  0  0  0  0  0  0  0  0  0
  -27.6403  -32.1675   20.4076 C   0  0  1  0  0  0  0  0  0  0  0  0
  -27.6810  -13.5686   19.9244 C   0  0  2  0  0  0  0  0  0  0  0  0
  -32.4712  -21.8079   20.4488 C   0  0  0  0  0  0  0  0  0  0  0  0
  -22.5810  -34.6155   25.7381 C   0  0  0  0  0  0  0  0  0  0  0  0
  -28.7901  -32.4778   24.8733 C   0  0  0  0  0  0  0  0  0  0  0  0
  -26.9175  -33.0549   26.4317 C   0  0  0  0  0  0  0  0  0  0  0  0
  -27.8846  -34.8079   24.9436 C   0  0  0  0  0  0  0  0  0  0  0  0
  -21.7648  -33.3435   22.2464 C   0  0  0  0  0  0  0  0  0  0  0  0
  -25.4482  -25.7855   22.0148 C   0  0  0  0  0  0  0  0  0  1  0  0
  -26.4376  -32.9925   23.9423 C   0  0  1  0  0  0  0  0  0  0  0  0
  -22.8770  -34.2449   24.2932 C   0  0  2  0  0  0  0  0  0  0  0  0
  -27.5039  -33.3137   25.0274 C   0  0  0  0  0  0  0  0  0  0  0  0
  -26.2503  -11.9373   21.0962 N   0  0  0  0  0  0  0  0  0  0  0  0
  -26.3372  -13.1232   20.4701 N   0  0  0  0  0  0  0  0  0  0  0  0
  -28.2901  -22.1739   20.9447 N   0  0  0  0  0  0  0  0  0  0  0  0
  -26.9638  -32.0794   21.7033 N   0  0  0  0  0  0  0  0  0  0  0  0
  -29.7509  -14.8315   20.3615 N   0  0  0  0  0  0  0  0  0  0  0  0
  -25.0639  -15.0083   19.8099 N   0  0  0  0  0  0  0  0  0  0  0  0
  -22.0313  -12.3733   21.8730 N   0  0  0  0  0  0  0  0  0  0  0  0
  -29.2730  -17.1331   20.5527 N   0  0  0  0  0  0  0  0  0  0  0  0
  -29.9852  -32.2422   19.8126 N   0  0  0  0  0  0  0  0  0  0  0  0
  -25.2196  -33.7886   24.0474 N   0  0  0  0  0  0  0  0  0  0  0  0
  -21.6244  -33.7251   23.6753 N   0  3  0  0  0  0  0  0  0  0  0  0
  -24.4858  -23.6896   22.2274 O   0  5  0  0  0  0  0  0  0  0  0  0
  -26.1879  -21.4599   21.8142 O   0  0  0  0  0  0  0  0  0  0  0  0
  -30.9093  -22.6174   18.9033 O   0  0  0  0  0  0  0  0  0  0  0  0
  -22.3255  -14.3617   20.7692 O   0  0  0  0  0  0  0  0  0  0  0  0
  -29.2218  -30.7280   21.4085 O   0  0  0  0  0  0  0  0  0  0  0  0
  -27.3446  -34.3249   22.2021 O   0  0  0  0  0  0  0  0  0  0  0  0
  -23.7638  -31.9976   24.2713 O   0  0  0  0  0  0  0  0  0  0  0  0
  -31.2968  -16.4093   19.6798 O   0  0  0  0  0  0  0  0  0  0  0  0
  -23.0184   -7.3999   24.1809 O   0  0  0  0  0  0  0  0  0  0  0  0
  -25.0171  -26.3030   20.7567 O   0  0  0  0  0  0  0  0  0  1  0  0
  -18.2532   -5.2133   22.4734 F   0  0  0  0  0  0  0  0  0  0  0  0
  -22.8917   -4.7790   23.3105 F   0  0  0  0  0  0  0  0  0  0  0  0
  -28.1251  -19.5023   21.0234 S   0  0  0  0  0  0  0  0  0  0  0  0
  1  2  1  0  0  0  0
  1  5  2  0  0  0  0
  2  6  2  0  0  0  0
  3  8  2  0  0  0  0
  3 16  1  0  0  0  0
  4  9  1  0  0  0  0
  4 16  2  0  0  0  0
  5 19  1  0  0  0  0
  6 21  1  0  0  0  0
  7 10  2  0  0  0  0
  7 20  1  0  0  0  0
  8 23  1  0  0  0  0
  9 23  2  0  0  0  0
 10 24  1  0  0  0  0
 11 12  2  0  0  0  0
 11 25  1  0  0  0  0
 12 26  1  0  0  0  0
 13 17  1  0  0  0  0
 13 31  2  0  0  0  0
 14 22  1  0  0  0  0
 14 24  2  0  0  0  0
 15 26  2  0  0  0  0
 15 27  1  0  0  0  0
 16 28  1  0  0  0  0
 17 30  2  0  0  0  0
 17 34  1  0  0  0  0
 18 28  1  0  0  0  0
 18 29  2  0  0  0  0
 18 35  1  0  0  0  0
 19 21  2  0  0  0  0
 19 41  1  0  0  0  0
 20 22  2  0  0  0  0
 20 42  1  0  0  0  0
 21 52  1  0  0  0  0
 22 43  1  0  0  0  0
 23 84  1  0  0  0  0
 24 85  1  0  0  0  0
 25 27  2  0  0  0  0
 25 84  1  0  0  0  0
 26 86  1  0  0  0  0
 27 87  1  0  0  0  0
 28 65  2  0  0  0  0
 29 66  1  0  0  0  0
 29 70  1  0  0  0  0
 30 67  1  0  0  0  0
 30 88  1  0  0  0  0
 31 72  1  0  0  0  0
 31 88  1  0  0  0  0
 32 33  1  0  0  0  0
 32 36  2  0  0  0  0
 32 44  1  0  0  0  0
 33 67  1  0  0  0  0
 33 77  2  0  0  0  0
 34 55  1  0  0  0  0
 34 78  2  0  0  0  0
 35 71  1  0  0  0  0
 35 79  2  0  0  0  0
 36 61  1  0  0  0  0
 36 76  1  0  0  0  0
 37 53  1  0  0  0  0
 37 73  1  0  0  0  0
 37 80  2  0  0  0  0
 38 62  1  0  0  0  0
 38 68  1  0  0  0  0
 38 81  2  0  0  0  0
 39 63  1  0  0  0  0
 39 74  1  0  0  0  0
 39 82  2  0  0  0  0
 40 69  1  0  0  0  0
 40 72  1  0  0  0  0
 40 83  2  0  0  0  0
 41 45  1  0  0  0  0
 42 53  1  0  0  0  0
 43 68  1  0  0  0  0
 44 49  1  0  0  0  0
 45 47  1  0  0  0  0
 46 48  1  0  0  0  0
 46 50  1  0  0  0  0
 47 52  1  0  0  0  0
 48 54  1  0  0  0  0
 49 67  1  0  0  0  0
 50 69  1  0  0  0  0
 51 54  1  0  0  0  0
 51 69  1  0  0  0  0
 52 73  1  0  0  0  0
 53 68  1  0  0  0  0
 54 66  1  0  0  0  0
 56 63  1  0  0  0  0
 57 64  1  0  0  0  0
 58 64  1  0  0  0  0
 59 64  1  0  0  0  0
 60 75  1  0  0  0  0
 61 85  1  0  0  0  0
 62 64  1  0  0  0  0
 62 74  1  0  0  0  0
 63 75  1  0  0  0  0
 65 66  1  0  0  0  0
M  CHG  2  75   1  76  -1
M  ISO  4  40 100  61 101  72 100  85 101
M  END
> <Batch ID>
0146

> <Smiles>
CNC(C)C(=O)NC(C(=O)N1Cc2cc([101O:1][101CH2:1]C(=O)C3CCN(c4sc([100NH:0][100C:0](=O)N5CCCC(n6nc(-c7ccc(Oc8ccc(F)cc8F)cc7)c(C(N)=O)c6N)C5)cc4C(C)=O)C3=O)ccc2CC1C(=O)NC1CCCc2ccccc21)C(C)(C)C

> <Shape>
0.276

> <Color>
0.161

> <Negative vol penalty>
0.000

$$$$

  -OEChem-04052303103D

 84 93  0     1  0  0  0  0  0999 V2000
  -28.6861  -38.0456   25.2241 C   0  0  0  0  0  0  0  0  0  0  0  0
  -29.4362  -36.9688   24.7624 C   0  0  0  0  0  0  0  0  0  0  0  0
  -23.3833   -9.5991   20.6544 C   0  0  0  0  0  0  0  0  0  0  0  0
  -23.9366  -10.2674   22.9092 C   0  0  0  0  0  0  0  0  0  0  0  0
  -27.5698  -37.8220   26.0289 C   0  0  0  0  0  0  0  0  0  0  0  0
  -29.0711  -35.6677   25.1062 C   0  0  0  0  0  0  0  0  0  0  0  0
  -29.1094  -28.9892   22.5153 C   0  0  0  0  0  0  0  0  0  0  0  0
  -22.7251   -8.4734   21.1495 C   0  0  0  0  0  0  0  0  0  0  0  0
  -23.2784   -9.1417   23.4044 C   0  0  0  0  0  0  0  0  0  0  0  0
  -29.5187  -27.7021   22.8611 C   0  0  0  0  0  0  0  0  0  0  0  0
  -23.5604   -5.4179   22.3287 C   0  0  0  0  0  0  0  0  0  0  0  0
  -23.7994   -4.1979   21.6963 C   0  0  0  0  0  0  0  0  0  0  0  0
  -31.1237  -19.7614   21.2088 C   0  0  0  0  0  0  0  0  0  0  0  0
  -31.2048  -18.3741   20.8939 C   0  0  0  0  0  0  0  0  0  0  0  0
  -27.5249  -27.4321   24.1919 C   0  0  0  0  0  0  0  0  0  0  0  0
  -21.4494   -4.0115   21.1674 C   0  0  0  0  0  0  0  0  0  0  0  0
  -23.9891  -10.4961   21.5342 C   0  0  0  0  0  0  0  0  0  0  0  0
  -24.1160  -12.9305   20.7825 C   0  0  0  0  0  0  0  0  0  0  0  0
  -27.1851  -36.5170   26.3748 C   0  0  0  0  0  0  0  0  0  0  0  0
  -27.9080  -29.5123   23.0148 C   0  0  0  0  0  0  0  0  0  0  0  0
  -27.9494  -35.4265   25.9175 C   0  0  0  0  0  0  0  0  0  0  0  0
  -27.1013  -28.7251   23.8489 C   0  0  0  0  0  0  0  0  0  0  0  0
  -22.6726   -8.2447   22.5245 C   0  0  0  0  0  0  0  0  0  0  0  0
  -28.7279  -26.9244   23.7018 C   0  0  0  0  0  0  0  0  0  0  0  0
  -22.2658   -5.9348   22.3805 C   0  0  0  0  0  0  0  0  0  0  0  0
  -22.7440   -3.4947   21.1156 C   0  0  0  0  0  0  0  0  0  0  0  0
  -21.2103   -5.2316   21.7999 C   0  0  0  0  0  0  0  0  0  0  0  0
  -24.6697  -11.6588   21.0233 C   0  0  0  0  0  0  0  0  0  0  0  0
  -25.1653  -13.6770   20.3046 C   0  0  0  0  0  0  0  0  0  0  0  0
  -29.8978  -20.1012   21.7372 C   0  0  0  0  0  0  0  0  0  0  0  0
  -30.0377  -17.7064   21.1939 C   0  0  0  0  0  0  0  0  0  0  0  0
  -22.7733  -13.3956   20.9737 C   0  0  0  0  0  0  0  0  0  0  0  0
  -27.1321  -31.9818   24.8596 C   0  0  0  0  0  0  0  0  0  0  0  0
  -24.1043  -31.0863   24.1158 C   0  0  0  0  0  0  0  0  0  0  0  0
  -21.9784  -28.6120   23.1134 C   0  0  0  0  0  0  0  0  0  0  0  0
  -30.4818  -15.3151   20.5376 C   0  0  0  0  0  0  0  0  0  0  0  0
  -25.9984  -36.3274   27.2861 C   0  0  0  0  0  0  0  0  0  0  0  0
  -27.4675  -30.8926   22.6108 C   0  0  0  0  0  0  0  0  0  0  0  0
  -25.7929  -29.2327   24.3955 C   0  0  0  0  0  0  0  0  0  0  0  0
  -25.4602  -34.8989   27.2962 C   0  0  0  0  0  0  0  0  0  0  0  0
  -29.7955  -12.2757   18.8149 C   0  0  0  0  0  0  0  0  0  0  0  0
  -26.6036  -33.8987   27.4342 C   0  0  0  0  0  0  0  0  0  0  0  0
  -28.3552  -11.9488   19.2161 C   0  0  0  0  0  0  0  0  0  0  0  0
  -28.1753  -23.1213   23.0250 C   0  0  0  0  0  0  0  0  0  0  0  0
  -30.5785  -12.8979   19.9696 C   0  0  0  0  0  0  0  0  0  0  0  0
  -28.1696  -21.6289   22.6970 C   0  0  0  0  0  0  0  0  0  0  0  0
  -28.5019  -13.7382   20.9947 C   0  0  0  0  0  0  0  0  0  0  0  0
  -27.5707  -33.9992   26.2484 C   0  0  1  0  0  0  0  0  0  0  0  0
  -26.4772  -31.5144   23.5906 C   0  0  1  0  0  0  0  0  0  0  0  0
  -27.6546  -13.1692   19.8450 C   0  0  2  0  0  0  0  0  0  0  0  0
  -30.3628  -22.5544   22.1894 C   0  0  2  0  0  0  0  0  0  0  0  0
  -29.6590  -23.4557   23.2488 C   0  0  2  0  0  0  0  0  0  0  0  0
  -30.4488  -23.1705   20.7891 C   0  0  0  0  0  0  0  0  0  0  0  0
  -30.0948  -23.0373   24.6695 C   0  0  0  0  0  0  0  0  0  0  0  0
  -19.5553  -28.1722   22.6313 C   0  0  0  0  0  0  0  0  0  0  0  0
  -23.5250  -31.0091   27.1106 C   0  0  0  0  0  0  0  0  0  0  0  0
  -21.4629  -29.6818   26.6067 C   0  0  0  0  0  0  0  0  0  0  0  0
  -21.6986  -32.0014   25.7199 C   0  0  0  0  0  0  0  0  0  0  0  0
  -22.5465  -27.9132   20.2942 C   0  0  0  0  0  0  0  0  0  0  0  0
  -29.9164  -24.9575   23.0897 C   0  0  0  0  0  0  0  0  0  1  0  0
  -23.0900  -30.1438   24.7173 C   0  0  1  0  0  0  0  0  0  0  0  0
  -20.8981  -28.5827   22.0473 C   0  0  2  0  0  0  0  0  0  0  0  0
  -22.4696  -30.6999   26.0300 C   0  0  0  0  0  0  0  0  0  0  0  0
  -25.9697  -11.5972   20.7231 N   0  0  0  0  0  0  0  0  0  0  0  0
  -26.2417  -12.8395   20.2886 N   0  0  0  0  0  0  0  0  0  0  0  0
  -29.4989  -21.3609   22.1446 N   0  0  3  0  0  0  0  0  0  0  0  0
  -25.4085  -30.5908   23.9768 N   0  0  0  0  0  0  0  0  0  0  0  0
  -29.8564  -14.0506   20.5125 N   0  0  0  0  0  0  0  0  0  0  0  0
  -25.2630  -14.9614   19.9008 N   0  0  0  0  0  0  0  0  0  0  0  0
  -21.8200  -12.4976   21.4729 N   0  0  0  0  0  0  0  0  0  0  0  0
  -29.6865  -16.3417   21.0457 N   0  0  0  0  0  0  0  0  0  0  0  0
  -27.0152  -33.3399   25.0859 N   0  0  0  0  0  0  0  0  0  0  0  0
  -22.1163  -29.8675   23.6665 N   0  0  0  0  0  0  0  0  0  0  0  0
  -21.2580  -27.6162   20.9715 N   0  3  0  0  0  0  0  0  0  0  0  0
  -22.4253  -14.5678   20.6941 O   0  0  0  0  0  0  0  0  0  0  0  0
  -27.7001  -31.1700   25.5809 O   0  0  0  0  0  0  0  0  0  0  0  0
  -23.7509  -32.2180   23.7752 O   0  0  0  0  0  0  0  0  0  0  0  0
  -22.6319  -27.6194   23.4269 O   0  0  0  0  0  0  0  0  0  0  0  0
  -31.6281  -15.4808   20.1126 O   0  0  0  0  0  0  0  0  0  0  0  0
  -22.0302   -7.1465   23.0080 O   0  0  0  0  0  0  0  0  0  0  0  0
  -29.1254  -25.6680   24.0415 O   0  0  0  0  0  0  0  0  0  1  0  0
  -22.9739   -2.3238   20.5070 F   0  0  0  0  0  0  0  0  0  0  0  0
  -19.9647   -5.7236   21.8454 F   0  0  0  0  0  0  0  0  0  0  0  0
  -28.8510  -18.7509   21.8520 S   0  0  0  0  0  0  0  0  0  0  0  0
  1  2  1  0  0  0  0
  1  5  2  0  0  0  0
  2  6  2  0  0  0  0
  3  8  2  0  0  0  0
  3 17  1  0  0  0  0
  4  9  1  0  0  0  0
  4 17  2  0  0  0  0
  5 19  1  0  0  0  0
  6 21  1  0  0  0  0
  7 10  2  0  0  0  0
  7 20  1  0  0  0  0
  8 23  1  0  0  0  0
  9 23  2  0  0  0  0
 10 24  1  0  0  0  0
 11 12  2  0  0  0  0
 11 25  1  0  0  0  0
 12 26  1  0  0  0  0
 13 14  1  0  0  0  0
 13 30  2  0  0  0  0
 14 31  2  0  0  0  0
 15 22  1  0  0  0  0
 15 24  2  0  0  0  0
 16 26  2  0  0  0  0
 16 27  1  0  0  0  0
 17 28  1  0  0  0  0
 18 28  1  0  0  0  0
 18 29  2  0  0  0  0
 18 32  1  0  0  0  0
 19 21  2  0  0  0  0
 19 37  1  0  0  0  0
 20 22  2  0  0  0  0
 20 38  1  0  0  0  0
 21 48  1  0  0  0  0
 22 39  1  0  0  0  0
 23 80  1  0  0  0  0
 24 81  1  0  0  0  0
 25 27  2  0  0  0  0
 25 80  1  0  0  0  0
 26 82  1  0  0  0  0
 27 83  1  0  0  0  0
 28 64  2  0  0  0  0
 29 65  1  0  0  0  0
 29 69  1  0  0  0  0
 30 66  1  0  0  0  0
 30 84  1  0  0  0  0
 31 71  1  0  0  0  0
 31 84  1  0  0  0  0
 32 70  1  0  0  0  0
 32 75  2  0  0  0  0
 33 49  1  0  0  0  0
 33 72  1  0  0  0  0
 33 76  2  0  0  0  0
 34 61  1  0  0  0  0
 34 67  1  0  0  0  0
 34 77  2  0  0  0  0
 35 62  1  0  0  0  0
 35 73  1  0  0  0  0
 35 78  2  0  0  0  0
 36 68  1  0  0  0  0
 36 71  1  0  0  0  0
 36 79  2  0  0  0  0
 37 40  1  0  0  0  0
 38 49  1  0  0  0  0
 39 67  1  0  0  0  0
 40 42  1  0  0  0  0
 41 43  1  0  0  0  0
 41 45  1  0  0  0  0
 42 48  1  0  0  0  0
 43 50  1  0  0  0  0
 44 46  1  0  0  0  0
 44 52  1  0  0  0  0
 45 68  1  0  0  0  0
 46 66  1  0  0  0  0
 47 50  1  0  0  0  0
 47 68  1  0  0  0  0
 48 72  1  0  0  0  0
 49 67  1  0  0  0  0
 50 65  1  0  0  0  0
 51 52  1  0  0  0  0
 51 53  1  0  0  0  0
 51 66  1  0  0  0  0
 52 54  1  0  0  0  0
 52 60  1  0  0  0  0
 55 62  1  0  0  0  0
 56 63  1  0  0  0  0
 57 63  1  0  0  0  0
 58 63  1  0  0  0  0
 59 74  1  0  0  0  0
 60 81  1  0  0  0  0
 61 63  1  0  0  0  0
 61 73  1  0  0  0  0
 62 74  1  0  0  0  0
 64 65  1  0  0  0  0
M  CHG  1  74   1
M  ISO  4  36 100  60 101  71 100  81 101
M  END
> <Batch ID>
0146

> <Smiles>
CNC(C)C(=O)NC(C(=O)N1Cc2cc([101O:1][101CH2:1]C3(C)CCN(c4ccc([100NH:0][100C:0](=O)N5CCCC(n6nc(-c7ccc(Oc8ccc(F)cc8F)cc7)c(C(N)=O)c6N)C5)s4)C3C)ccc2CC1C(=O)NC1CCCc2ccccc21)C(C)(C)C

> <Shape>
0.309

> <Color>
0.175

> <Negative vol penalty>
0.000

$$$$

  -OEChem-04052303103D

 84 93  0     1  0  0  0  0  0999 V2000
  -28.1009  -23.9113   17.2148 C   0  0  0  0  0  0  0  0  0  0  0  0
  -26.9435  -24.1190   17.9583 C   0  0  0  0  0  0  0  0  0  0  0  0
  -25.0754  -13.8837   21.6289 C   0  0  0  0  0  0  0  0  0  0  0  0
  -26.5723  -13.6870   19.7428 C   0  0  0  0  0  0  0  0  0  0  0  0
  -29.2960  -24.5147   17.6043 C   0  0  0  0  0  0  0  0  0  0  0  0
  -26.9809  -24.9294   19.0925 C   0  0  0  0  0  0  0  0  0  0  0  0
  -17.5530  -20.0511   21.5901 C   0  0  0  0  0  0  0  0  0  0  0  0
  -23.0724  -28.1419   19.3143 C   0  0  0  0  0  0  0  0  0  0  0  0
  -17.5499  -21.3450   22.1120 C   0  0  0  0  0  0  0  0  0  0  0  0
  -24.9536  -12.4950   21.6771 C   0  0  0  0  0  0  0  0  0  0  0  0
  -26.4506  -12.2983   19.7910 C   0  0  0  0  0  0  0  0  0  0  0  0
  -21.8467  -27.6255   19.7324 C   0  0  0  0  0  0  0  0  0  0  0  0
  -23.2648  -10.0840   20.0161 C   0  0  0  0  0  0  0  0  0  0  0  0
  -21.9853   -9.5514   20.1743 C   0  0  0  0  0  0  0  0  0  0  0  0
  -22.2298  -28.5199   21.9398 C   0  0  0  0  0  0  0  0  0  0  0  0
  -19.6774  -21.8276   21.0316 C   0  0  0  0  0  0  0  0  0  0  0  0
  -22.6831   -8.4852   22.2270 C   0  0  0  0  0  0  0  0  0  0  0  0
  -25.8847  -14.4797   20.6617 C   0  0  0  0  0  0  0  0  0  0  0  0
  -26.9598  -16.7085   21.2815 C   0  0  0  0  0  0  0  0  0  0  0  0
  -29.3458  -25.3406   18.7383 C   0  0  0  0  0  0  0  0  0  0  0  0
  -23.8923  -28.8429   20.2103 C   0  0  0  0  0  0  0  0  0  0  0  0
  -28.1780  -25.5433   19.4983 C   0  0  0  0  0  0  0  0  0  0  0  0
  -18.6243  -19.6608   20.8020 C   0  0  0  0  0  0  0  0  0  0  0  0
  -23.4642  -29.0464   21.5299 C   0  0  0  0  0  0  0  0  0  0  0  0
  -19.6738  -20.5377   20.5214 C   0  0  0  0  0  0  0  0  0  0  0  0
  -18.6047  -22.2266   21.8344 C   0  0  0  0  0  0  0  0  0  0  0  0
  -25.6413  -11.7023   20.7582 C   0  0  0  0  0  0  0  0  0  0  0  0
  -21.4266  -27.8119   21.0461 C   0  0  0  0  0  0  0  0  0  0  0  0
  -24.2534   -9.8171   20.9632 C   0  0  0  0  0  0  0  0  0  0  0  0
  -21.6945   -8.7520   21.2798 C   0  0  0  0  0  0  0  0  0  0  0  0
  -23.9625   -9.0177   22.0687 C   0  0  0  0  0  0  0  0  0  0  0  0
  -26.0104  -15.9142   20.6110 C   0  0  0  0  0  0  0  0  0  0  0  0
  -26.6575  -17.9948   20.9064 C   0  0  0  0  0  0  0  0  0  0  0  0
  -28.0201  -16.3186   22.1643 C   0  0  0  0  0  0  0  0  0  0  0  0
  -26.8109  -28.4067   21.3916 C   0  0  0  0  0  0  0  0  0  0  0  0
  -26.3004  -31.3355   22.6894 C   0  0  0  0  0  0  0  0  0  0  0  0
  -19.5340  -24.5371   22.2110 C   0  0  0  0  0  0  0  0  0  0  0  0
  -24.0634  -33.6876   23.7430 C   0  0  0  0  0  0  0  0  0  0  0  0
  -21.6240  -20.5727   18.9810 C   0  0  0  0  0  0  0  0  0  0  0  0
  -30.6711  -25.9331   19.1472 C   0  0  0  0  0  0  0  0  0  0  0  0
  -25.1995  -29.4167   19.7365 C   0  0  0  0  0  0  0  0  0  0  0  0
  -18.8001  -18.3565   20.0937 C   0  0  0  0  0  0  0  0  0  0  0  0
  -24.2982  -29.8092   22.5254 C   0  0  0  0  0  0  0  0  0  0  0  0
  -30.5434  -27.0789   20.1478 C   0  0  0  0  0  0  0  0  0  0  0  0
  -24.7514  -20.5215   17.3420 C   0  0  0  0  0  0  0  0  0  0  0  0
  -29.5796  -26.7035   21.2690 C   0  0  0  0  0  0  0  0  0  0  0  0
  -25.5132  -19.3898   18.0265 C   0  0  0  0  0  0  0  0  0  0  0  0
  -20.2379  -18.4782   19.5730 C   0  0  0  0  0  0  0  0  0  0  0  0
  -23.2794  -20.1646   17.1861 C   0  0  0  0  0  0  0  0  0  0  0  0
  -23.3546  -18.7310   19.2109 C   0  0  0  0  0  0  0  0  0  0  0  0
  -28.1728  -26.4355   20.7206 C   0  0  1  0  0  0  0  0  0  0  0  0
  -26.1869  -29.6707   20.8714 C   0  0  1  0  0  0  0  0  0  0  0  0
  -24.8592  -19.0318   19.3702 C   0  0  1  0  0  0  0  0  0  0  0  0
  -23.9461  -35.9638   24.7929 C   0  0  0  0  0  0  0  0  0  0  0  0
  -27.0041  -30.1198   25.3981 C   0  0  0  0  0  0  0  0  0  0  0  0
  -25.9691  -32.1223   26.4875 C   0  0  0  0  0  0  0  0  0  0  0  0
  -27.9521  -32.3995   24.9998 C   0  0  0  0  0  0  0  0  0  0  0  0
  -22.6574  -34.8234   21.3996 C   0  0  0  0  0  0  0  0  0  0  0  0
  -19.1209  -25.7939   22.9685 C   0  0  0  0  0  0  0  0  0  0  0  0
  -20.1203  -26.9320   22.8281 C   0  0  0  0  0  0  0  0  0  1  0  0
  -25.7061  -31.8438   23.9807 C   0  0  1  0  0  0  0  0  0  0  0  0
  -23.9782  -35.1818   23.4890 C   0  0  2  0  0  0  0  0  0  0  0  0
  -26.6428  -31.6052   25.1985 C   0  0  0  0  0  0  0  0  0  0  0  0
  -25.1680  -16.6354   19.8666 N   0  0  0  0  0  0  0  0  0  0  0  0
  -25.5870  -17.8965   20.0671 N   0  0  0  0  0  0  0  0  0  0  0  0
  -20.6369  -19.9014   19.7058 N   0  0  0  0  0  0  0  0  0  0  0  0
  -25.5711  -30.3454   22.0159 N   0  0  0  0  0  0  0  0  0  0  0  0
  -22.6713  -19.7949   18.4650 N   0  0  0  0  0  0  0  0  0  0  0  0
  -27.2057  -19.1890   21.2160 N   0  0  0  0  0  0  0  0  0  0  0  0
  -28.1906  -14.9556   22.4426 N   0  0  0  0  0  0  0  0  0  0  0  0
  -18.5835  -23.5159   22.3693 N   0  0  0  0  0  0  0  0  0  0  0  0
  -27.4959  -27.6823   20.4348 N   0  0  0  0  0  0  0  0  0  0  0  0
  -25.3692  -33.2446   23.7513 N   0  0  0  0  0  0  0  0  0  0  0  0
  -22.7461  -35.5063   22.7159 N   0  3  0  0  0  0  0  0  0  0  0  0
  -28.7832  -17.1554   22.7036 O   0  0  0  0  0  0  0  0  0  0  0  0
  -26.6818  -28.1114   22.5739 O   0  0  0  0  0  0  0  0  0  0  0  0
  -27.3687  -31.8049   22.2893 O   0  0  0  0  0  0  0  0  0  0  0  0
  -20.5734  -24.4779   21.5624 O   0  0  0  0  0  0  0  0  0  0  0  0
  -23.0712  -32.9844   23.9204 O   0  0  0  0  0  0  0  0  0  0  0  0
  -21.5571  -21.7835   18.7357 O   0  0  0  0  0  0  0  0  0  0  0  0
  -25.5229  -10.3472   20.8051 O   0  0  0  0  0  0  0  0  0  0  0  0
  -20.2225  -27.3048   21.4599 O   0  0  0  0  0  0  0  0  0  1  0  0
  -20.4654   -8.2420   21.4325 F   0  0  0  0  0  0  0  0  0  0  0  0
  -24.9078   -8.7588   22.9826 F   0  0  0  0  0  0  0  0  0  0  0  0
  1  2  1  0  0  0  0
  1  5  2  0  0  0  0
  2  6  2  0  0  0  0
  3 10  2  0  0  0  0
  3 18  1  0  0  0  0
  4 11  1  0  0  0  0
  4 18  2  0  0  0  0
  5 20  1  0  0  0  0
  6 22  1  0  0  0  0
  7  9  2  0  0  0  0
  7 23  1  0  0  0  0
  8 12  2  0  0  0  0
  8 21  1  0  0  0  0
  9 26  1  0  0  0  0
 10 27  1  0  0  0  0
 11 27  2  0  0  0  0
 12 28  1  0  0  0  0
 13 14  2  0  0  0  0
 13 29  1  0  0  0  0
 14 30  1  0  0  0  0
 15 24  1  0  0  0  0
 15 28  2  0  0  0  0
 16 25  1  0  0  0  0
 16 26  2  0  0  0  0
 17 30  2  0  0  0  0
 17 31  1  0  0  0  0
 18 32  1  0  0  0  0
 19 32  1  0  0  0  0
 19 33  2  0  0  0  0
 19 34  1  0  0  0  0
 20 22  2  0  0  0  0
 20 40  1  0  0  0  0
 21 24  2  0  0  0  0
 21 41  1  0  0  0  0
 22 51  1  0  0  0  0
 23 25  2  0  0  0  0
 23 42  1  0  0  0  0
 24 43  1  0  0  0  0
 25 66  1  0  0  0  0
 26 71  1  0  0  0  0
 27 81  1  0  0  0  0
 28 82  1  0  0  0  0
 29 31  2  0  0  0  0
 29 81  1  0  0  0  0
 30 83  1  0  0  0  0
 31 84  1  0  0  0  0
 32 64  2  0  0  0  0
 33 65  1  0  0  0  0
 33 69  1  0  0  0  0
 34 70  1  0  0  0  0
 34 75  2  0  0  0  0
 35 52  1  0  0  0  0
 35 72  1  0  0  0  0
 35 76  2  0  0  0  0
 36 61  1  0  0  0  0
 36 67  1  0  0  0  0
 36 77  2  0  0  0  0
 37 59  1  0  0  0  0
 37 71  1  0  0  0  0
 37 78  2  0  0  0  0
 38 62  1  0  0  0  0
 38 73  1  0  0  0  0
 38 79  2  0  0  0  0
 39 66  1  0  0  0  0
 39 68  1  0  0  0  0
 39 80  2  0  0  0  0
 40 44  1  0  0  0  0
 41 52  1  0  0  0  0
 42 48  1  0  0  0  0
 43 67  1  0  0  0  0
 44 46  1  0  0  0  0
 45 47  1  0  0  0  0
 45 49  1  0  0  0  0
 46 51  1  0  0  0  0
 47 53  1  0  0  0  0
 48 66  1  0  0  0  0
 49 68  1  0  0  0  0
 50 53  1  0  0  0  0
 50 68  1  0  0  0  0
 51 72  1  0  0  0  0
 52 67  1  0  0  0  0
 53 65  1  0  0  0  0
 54 62  1  0  0  0  0
 55 63  1  0  0  0  0
 56 63  1  0  0  0  0
 57 63  1  0  0  0  0
 58 74  1  0  0  0  0
 59 60  1  0  0  0  0
 60 82  1  0  0  0  0
 61 63  1  0  0  0  0
 61 73  1  0  0  0  0
 62 74  1  0  0  0  0
 64 65  1  0  0  0  0
M  CHG  1  74   1
M  ISO  4  39 100  60 101  66 100  82 101
M  END
> <Batch ID>
0146

> <Smiles>
CNC(C)C(=O)NC(C(=O)N1Cc2cc([101O:1][101CH2:1]CC(=O)Nc3ccc4c(c3)[100N:0]([100C:0](=O)N3CCCC(n5nc(-c6ccc(Oc7ccc(F)cc7F)cc6)c(C(N)=O)c5N)C3)CC4)ccc2CC1C(=O)NC1CCCc2ccccc21)C(C)(C)C

> <Shape>
0.282

> <Color>
0.083

> <Negative vol penalty>
0.000

$$$$

  -OEChem-04052303103D

 85 94  0     1  0  0  0  0  0999 V2000
  -32.4554  -21.0110   24.2672 C   0  0  0  0  0  0  0  0  0  0  0  0
  -31.2385  -21.4419   24.7859 C   0  0  0  0  0  0  0  0  0  0  0  0
  -17.8998  -28.8622   23.2075 C   0  0  0  0  0  0  0  0  0  0  0  0
  -29.9908  -28.4633   18.7563 C   0  0  0  0  0  0  0  0  0  0  0  0
  -29.6607  -26.9970   20.6479 C   0  0  0  0  0  0  0  0  0  0  0  0
  -32.5071  -20.4398   22.9964 C   0  0  0  0  0  0  0  0  0  0  0  0
  -30.0727  -21.3027   24.0336 C   0  0  0  0  0  0  0  0  0  0  0  0
  -17.5751  -27.5594   22.8298 C   0  0  0  0  0  0  0  0  0  0  0  0
  -23.0516  -20.0985   24.7886 C   0  0  0  0  0  0  0  0  0  0  0  0
  -19.2055  -29.3283   23.0531 C   0  0  0  0  0  0  0  0  0  0  0  0
  -31.3659  -28.2392   18.8226 C   0  0  0  0  0  0  0  0  0  0  0  0
  -31.0359  -26.7729   20.7141 C   0  0  0  0  0  0  0  0  0  0  0  0
  -21.8205  -20.6335   24.4121 C   0  0  0  0  0  0  0  0  0  0  0  0
  -33.3333  -24.8985   19.0927 C   0  0  0  0  0  0  0  0  0  0  0  0
  -33.7666  -23.5838   19.2646 C   0  0  0  0  0  0  0  0  0  0  0  0
  -22.0185  -19.5597   22.2611 C   0  0  0  0  0  0  0  0  0  0  0  0
  -34.8568  -24.2128   21.3269 C   0  0  0  0  0  0  0  0  0  0  0  0
  -29.1382  -27.8422   19.6691 C   0  0  0  0  0  0  0  0  0  0  0  0
  -26.7703  -27.3372   18.8655 C   0  0  0  0  0  0  0  0  0  0  0  0
  -31.3399  -20.2847   22.2321 C   0  0  0  0  0  0  0  0  0  0  0  0
  -23.7818  -19.2976   23.8987 C   0  0  0  0  0  0  0  0  0  0  0  0
  -30.1091  -20.7301   22.7509 C   0  0  0  0  0  0  0  0  0  0  0  0
  -18.5560  -26.7225   22.2979 C   0  0  0  0  0  0  0  0  0  0  0  0
  -23.2574  -19.0136   22.6296 C   0  0  0  0  0  0  0  0  0  0  0  0
  -19.8617  -27.1885   22.1435 C   0  0  0  0  0  0  0  0  0  0  0  0
  -20.1864  -28.4914   22.5212 C   0  0  0  0  0  0  0  0  0  0  0  0
  -31.8885  -27.3940   19.8014 C   0  0  0  0  0  0  0  0  0  0  0  0
  -21.3050  -20.3665   23.1471 C   0  0  0  0  0  0  0  0  0  0  0  0
  -33.6618  -25.8703   20.0378 C   0  0  0  0  0  0  0  0  0  0  0  0
  -34.5283  -23.2410   20.3817 C   0  0  0  0  0  0  0  0  0  0  0  0
  -34.4235  -25.5275   21.1549 C   0  0  0  0  0  0  0  0  0  0  0  0
  -27.7176  -28.0738   19.6015 C   0  0  0  0  0  0  0  0  0  0  0  0
  -25.5723  -27.9527   19.1346 C   0  0  0  0  0  0  0  0  0  0  0  0
  -26.9565  -26.1983   18.0146 C   0  0  0  0  0  0  0  0  0  0  0  0
  -18.8393  -22.9062   22.4108 C   0  0  0  0  0  0  0  0  0  0  0  0
  -26.6273  -19.5189   22.4995 C   0  0  0  0  0  0  0  0  0  0  0  0
  -25.9204  -16.5250   21.4704 C   0  0  0  0  0  0  0  0  0  0  0  0
  -23.5304  -14.1974   20.7515 C   0  0  0  0  0  0  0  0  0  0  0  0
  -21.9739  -30.2570   22.7046 C   0  0  0  0  0  0  0  0  0  0  0  0
  -31.4526  -19.7047   20.8444 C   0  0  0  0  0  0  0  0  0  0  0  0
  -25.0958  -18.7061   24.3298 C   0  0  0  0  0  0  0  0  0  0  0  0
  -23.9924  -18.1430   21.6446 C   0  0  0  0  0  0  0  0  0  0  0  0
  -30.1159  -19.2509   20.2635 C   0  0  0  0  0  0  0  0  0  0  0  0
  -24.5709  -32.3428   21.4467 C   0  0  0  0  0  0  0  0  0  0  0  0
  -29.0492  -20.3195   20.4807 C   0  0  0  0  0  0  0  0  0  0  0  0
  -25.5432  -31.3575   20.7940 C   0  0  0  0  0  0  0  0  0  0  0  0
  -16.9960  -24.6793   22.5557 C   0  0  0  0  0  0  0  0  0  0  0  0
  -23.9475  -31.7670   22.7170 C   0  0  0  0  0  0  0  0  0  0  0  0
  -24.2868  -29.4663   21.9040 C   0  0  0  0  0  0  0  0  0  0  0  0
  -18.1856  -25.3415   21.9046 C   0  0  2  0  0  0  0  0  0  0  0  0
  -28.8190  -20.5735   21.9753 C   0  0  1  0  0  0  0  0  0  0  0  0
  -18.3734  -24.2330   22.9059 C   0  0  2  0  0  0  0  0  0  0  0  0
  -25.9934  -18.3255   23.1564 C   0  0  1  0  0  0  0  0  0  0  0  0
  -24.8909  -29.9767   20.5855 C   0  0  2  0  0  0  0  0  0  0  0  0
  -21.2225  -26.6154   20.1171 C   0  0  0  0  0  0  0  0  0  0  0  0
  -23.2567  -11.8554   19.8926 C   0  0  0  0  0  0  0  0  0  0  0  0
  -26.4828  -17.5018   18.6351 C   0  0  0  0  0  0  0  0  0  0  0  0
  -25.3018  -15.4687   17.7750 C   0  0  0  0  0  0  0  0  0  0  0  0
  -27.3699  -15.2204   19.1476 C   0  0  0  0  0  0  0  0  0  0  0  0
  -22.2458  -13.3024   23.2631 C   0  0  0  0  0  0  0  0  0  0  0  0
  -20.9115  -26.2869   21.5729 C   0  0  0  0  0  0  0  0  0  0  0  0
  -19.7335  -22.1395   23.3538 C   0  0  0  0  0  0  0  0  0  1  0  0
  -25.2209  -15.9464   20.2642 C   0  0  1  0  0  0  0  0  0  0  0  0
  -23.4068  -12.7316   21.1265 C   0  0  2  0  0  0  0  0  0  0  0  0
  -26.0807  -16.0524   18.9731 C   0  0  0  0  0  0  0  0  0  0  0  0
  -27.1688  -29.0804   20.2867 N   0  0  0  0  0  0  0  0  0  0  0  0
  -25.8636  -28.9807   19.9823 N   0  0  0  0  0  0  0  0  0  0  0  0
  -25.2762  -17.5932   22.1106 N   0  0  0  0  0  0  0  0  0  0  0  0
  -23.3452  -30.4606   22.4422 N   0  0  0  0  0  0  0  0  0  0  0  0
  -24.3087  -27.7095   18.7265 N   0  0  0  0  0  0  0  0  0  0  0  0
  -28.2534  -25.6933   17.8485 N   0  0  0  0  0  0  0  0  0  0  0  0
  -21.5060  -28.9859   22.3732 N   0  0  0  0  0  0  0  0  0  0  0  0
  -28.0083  -19.5204   22.5480 N   0  0  0  0  0  0  0  0  0  0  0  0
  -24.8482  -14.5825   20.6237 N   0  0  0  0  0  0  0  0  0  0  0  0
  -22.2191  -12.5190   22.0011 N   0  3  0  0  0  0  0  0  0  0  0  0
  -26.0036  -25.6549   17.4062 O   0  0  0  0  0  0  0  0  0  0  0  0
  -18.4955  -22.5040   21.3065 O   0  0  0  0  0  0  0  0  0  0  0  0
  -25.9162  -20.3743   21.9854 O   0  0  0  0  0  0  0  0  0  0  0  0
  -26.9952  -16.0421   21.8356 O   0  0  0  0  0  0  0  0  0  0  0  0
  -22.5554  -14.9268   20.5848 O   0  0  0  0  0  0  0  0  0  0  0  0
  -21.2607  -31.1535   23.1624 O   0  0  0  0  0  0  0  0  0  0  0  0
  -33.2302  -27.1749   19.8662 O   0  0  0  0  0  0  0  0  0  0  0  0
  -20.1039  -20.8880   22.7768 O   0  0  0  0  0  0  0  0  0  1  0  0
  -34.9430  -21.9782   20.5474 F   0  0  0  0  0  0  0  0  0  0  0  0
  -34.7413  -26.4565   22.0669 F   0  0  0  0  0  0  0  0  0  0  0  0
  1  2  1  0  0  0  0
  1  6  2  0  0  0  0
  2  7  2  0  0  0  0
  3  8  2  0  0  0  0
  3 10  1  0  0  0  0
  4 11  2  0  0  0  0
  4 18  1  0  0  0  0
  5 12  1  0  0  0  0
  5 18  2  0  0  0  0
  6 20  1  0  0  0  0
  7 22  1  0  0  0  0
  8 23  1  0  0  0  0
  9 13  2  0  0  0  0
  9 21  1  0  0  0  0
 10 26  2  0  0  0  0
 11 27  1  0  0  0  0
 12 27  2  0  0  0  0
 13 28  1  0  0  0  0
 14 15  2  0  0  0  0
 14 29  1  0  0  0  0
 15 30  1  0  0  0  0
 16 24  1  0  0  0  0
 16 28  2  0  0  0  0
 17 30  2  0  0  0  0
 17 31  1  0  0  0  0
 18 32  1  0  0  0  0
 19 32  1  0  0  0  0
 19 33  2  0  0  0  0
 19 34  1  0  0  0  0
 20 22  2  0  0  0  0
 20 40  1  0  0  0  0
 21 24  2  0  0  0  0
 21 41  1  0  0  0  0
 22 51  1  0  0  0  0
 23 25  2  0  0  0  0
 23 50  1  0  0  0  0
 24 42  1  0  0  0  0
 25 26  1  0  0  0  0
 25 61  1  0  0  0  0
 26 72  1  0  0  0  0
 27 82  1  0  0  0  0
 28 83  1  0  0  0  0
 29 31  2  0  0  0  0
 29 82  1  0  0  0  0
 30 84  1  0  0  0  0
 31 85  1  0  0  0  0
 32 66  2  0  0  0  0
 33 67  1  0  0  0  0
 33 70  1  0  0  0  0
 34 71  1  0  0  0  0
 34 76  2  0  0  0  0
 35 52  1  0  0  0  0
 35 62  1  0  0  0  0
 35 77  2  0  0  0  0
 36 53  1  0  0  0  0
 36 73  1  0  0  0  0
 36 78  2  0  0  0  0
 37 63  1  0  0  0  0
 37 68  1  0  0  0  0
 37 79  2  0  0  0  0
 38 64  1  0  0  0  0
 38 74  1  0  0  0  0
 38 80  2  0  0  0  0
 39 69  1  0  0  0  0
 39 72  1  0  0  0  0
 39 81  2  0  0  0  0
 40 43  1  0  0  0  0
 41 53  1  0  0  0  0
 42 68  1  0  0  0  0
 43 45  1  0  0  0  0
 44 46  1  0  0  0  0
 44 48  1  0  0  0  0
 45 51  1  0  0  0  0
 46 54  1  0  0  0  0
 47 50  1  0  0  0  0
 47 52  1  0  0  0  0
 48 69  1  0  0  0  0
 49 54  1  0  0  0  0
 49 69  1  0  0  0  0
 50 52  1  0  0  0  0
 51 73  1  0  0  0  0
 53 68  1  0  0  0  0
 54 67  1  0  0  0  0
 55 61  1  0  0  0  0
 56 64  1  0  0  0  0
 57 65  1  0  0  0  0
 58 65  1  0  0  0  0
 59 65  1  0  0  0  0
 60 75  1  0  0  0  0
 62 83  1  0  0  0  0
 63 65  1  0  0  0  0
 63 74  1  0  0  0  0
 64 75  1  0  0  0  0
 66 67  1  0  0  0  0
M  CHG  1  75   1
M  ISO  4  39 100  62 101  72 100  83 101
M  END
> <Batch ID>
0146

> <Smiles>
CCc1c([100NH:0][100C:0](=O)N2CCCC(n3nc(-c4ccc(Oc5ccc(F)cc5F)cc4)c(C(N)=O)c3N)C2)cccc1C1CC1C(=O)[101CH2:1][101O:1]c1ccc2c(c1)CN(C(=O)C(NC(=O)C(C)NC)C(C)(C)C)C(C(=O)NC1CCCc3ccccc31)C2

> <Shape>
0.214

> <Color>
0.091

> <Negative vol penalty>
0.000

$$$$

  -OEChem-04052303103D

 85 94  0     1  0  0  0  0  0999 V2000
  -27.4367  -24.4892   16.8999 C   0  0  0  0  0  0  0  0  0  0  0  0
  -26.2914  -24.7732   17.6368 C   0  0  0  0  0  0  0  0  0  0  0  0
  -24.5858  -13.5214   21.4243 C   0  0  0  0  0  0  0  0  0  0  0  0
  -26.8464  -13.0380   20.7222 C   0  0  0  0  0  0  0  0  0  0  0  0
  -28.6789  -24.9426   17.3419 C   0  0  0  0  0  0  0  0  0  0  0  0
  -26.3878  -25.5100   18.8168 C   0  0  0  0  0  0  0  0  0  0  0  0
  -22.8253  -29.0920   19.1670 C   0  0  0  0  0  0  0  0  0  0  0  0
  -24.1446  -12.3488   20.8111 C   0  0  0  0  0  0  0  0  0  0  0  0
  -26.4052  -11.8654   20.1090 C   0  0  0  0  0  0  0  0  0  0  0  0
  -21.5447  -28.6825   19.5358 C   0  0  0  0  0  0  0  0  0  0  0  0
  -22.4800   -9.2996   19.7404 C   0  0  0  0  0  0  0  0  0  0  0  0
  -21.5931   -8.4904   20.4505 C   0  0  0  0  0  0  0  0  0  0  0  0
  -21.9710  -29.4063   21.7971 C   0  0  0  0  0  0  0  0  0  0  0  0
  -22.7667  -23.2883   21.8536 C   0  0  0  0  0  0  0  0  0  0  0  0
  -23.2362   -8.2269   22.2021 C   0  0  0  0  0  0  0  0  0  0  0  0
  -25.9367  -13.8660   21.3799 C   0  0  0  0  0  0  0  0  0  0  0  0
  -26.2892  -15.4159   23.3752 C   0  0  0  0  0  0  0  0  0  0  0  0
  -28.7893  -25.6936   18.5227 C   0  0  0  0  0  0  0  0  0  0  0  0
  -23.6938  -29.6527   20.1145 C   0  0  0  0  0  0  0  0  0  0  0  0
  -27.6328  -25.9728   19.2756 C   0  0  0  0  0  0  0  0  0  0  0  0
  -23.2612  -29.8245   21.4372 C   0  0  0  0  0  0  0  0  0  0  0  0
  -24.1230  -22.9217   21.9660 C   0  0  0  0  0  0  0  0  0  0  0  0
  -25.0542  -11.5208   20.1535 C   0  0  0  0  0  0  0  0  0  0  0  0
  -21.1184  -28.8369   20.8517 C   0  0  0  0  0  0  0  0  0  0  0  0
  -23.7450   -9.5723   20.2611 C   0  0  0  0  0  0  0  0  0  0  0  0
  -21.9712   -7.9541   21.6814 C   0  0  0  0  0  0  0  0  0  0  0  0
  -24.1231   -9.0360   21.4919 C   0  0  0  0  0  0  0  0  0  0  0  0
  -26.3930  -15.0774   22.0126 C   0  0  0  0  0  0  0  0  0  0  0  0
  -24.8317  -23.7921   22.7419 C   0  0  0  0  0  0  0  0  0  0  0  0
  -26.8666  -16.6588   23.4651 C   0  0  0  0  0  0  0  0  0  0  0  0
  -22.5158  -24.4488   22.5691 C   0  0  0  0  0  0  0  0  0  0  0  0
  -17.1015  -26.3869   21.1318 C   0  0  0  0  0  0  0  0  0  0  0  0
  -25.7216  -14.6731   24.4623 C   0  0  0  0  0  0  0  0  0  0  0  0
  -18.4061  -26.5446   21.4061 C   0  0  0  0  0  0  0  0  0  0  0  0
  -26.5269  -28.8508   21.3120 C   0  0  0  0  0  0  0  0  0  0  0  0
  -26.2921  -31.7386   22.7706 C   0  0  0  0  0  0  0  0  0  0  0  0
  -20.0662  -24.9018   22.2190 C   0  0  0  0  0  0  0  0  0  0  0  0
  -24.2863  -34.2463   23.9260 C   0  0  0  0  0  0  0  0  0  0  0  0
  -27.5657  -21.8180   21.5040 C   0  0  0  0  0  0  0  0  0  0  0  0
  -30.1595  -26.1217   18.9853 C   0  0  0  0  0  0  0  0  0  0  0  0
  -25.0625  -30.1140   19.6947 C   0  0  0  0  0  0  0  0  0  0  0  0
  -24.1479  -30.4395   22.4879 C   0  0  0  0  0  0  0  0  0  0  0  0
  -24.9807  -21.8274   21.4678 C   0  0  0  0  0  0  0  0  0  0  0  0
  -26.2558  -23.4478   22.8684 C   0  0  0  0  0  0  0  0  0  0  0  0
  -30.1289  -27.2162   20.0490 C   0  0  0  0  0  0  0  0  0  0  0  0
  -29.6056  -19.2833   20.1470 C   0  0  0  0  0  0  0  0  0  0  0  0
  -29.1085  -26.8798   21.1318 C   0  0  0  0  0  0  0  0  0  0  0  0
  -28.9328  -17.9862   20.5877 C   0  0  0  0  0  0  0  0  0  0  0  0
  -28.5657  -20.3388   19.7972 C   0  0  0  0  0  0  0  0  0  0  0  0
  -26.9499  -19.3618   21.4085 C   0  0  0  0  0  0  0  0  0  0  0  0
  -27.6935  -26.7903   20.5477 C   0  0  1  0  0  0  0  0  0  0  0  0
  -26.0467  -30.1999   20.8571 C   0  0  1  0  0  0  0  0  0  0  0  0
  -27.9618  -18.2482   21.7493 C   0  0  1  0  0  0  0  0  0  0  0  0
  -24.3808  -36.4596   25.1050 C   0  0  0  0  0  0  0  0  0  0  0  0
  -26.8107  -30.3056   25.4140 C   0  0  0  0  0  0  0  0  0  0  0  0
  -25.9637  -32.3398   26.6028 C   0  0  0  0  0  0  0  0  0  0  0  0
  -27.9954  -32.4938   25.1637 C   0  0  0  0  0  0  0  0  0  0  0  0
  -23.0534  -35.6521   21.6320 C   0  0  0  0  0  0  0  0  0  0  0  0
  -19.0264  -25.9323   22.6357 C   0  0  0  0  0  0  0  0  0  0  0  0
  -19.3021  -27.3429   20.4981 C   0  0  0  0  0  0  0  0  0  1  0  0
  -25.7261  -32.2320   24.0803 C   0  0  1  0  0  0  0  0  0  0  0  0
  -24.3599  -35.7533   23.7584 C   0  0  2  0  0  0  0  0  0  0  0  0
  -26.6077  -31.8294   25.2961 C   0  0  0  0  0  0  0  0  0  0  0  0
  -26.9893  -16.0285   21.2890 N   0  0  0  0  0  0  0  0  0  0  0  0
  -27.2654  -16.9770   22.2002 N   0  0  0  0  0  0  0  0  0  0  0  0
  -25.4795  -30.8690   22.0297 N   0  0  0  0  0  0  0  0  0  0  0  0
  -26.3245  -22.2447   21.9888 N   0  0  0  0  0  0  0  0  0  0  0  0
  -27.6235  -20.5603   20.8947 N   0  0  0  0  0  0  0  0  0  0  0  0
  -27.0671  -17.4997   24.5020 N   0  0  0  0  0  0  0  0  0  0  0  0
  -26.5515  -13.8032   25.1824 N   0  0  0  0  0  0  0  0  0  0  0  0
  -21.3606  -25.1608   22.7401 N   0  0  0  0  0  0  0  0  0  0  0  0
  -27.1539  -28.1146   20.3250 N   0  0  0  0  0  0  0  0  0  0  0  0
  -25.5393  -33.6709   23.9281 N   0  0  0  0  0  0  0  0  0  0  0  0
  -23.1841  -36.2467   22.9871 N   0  3  0  0  0  0  0  0  0  0  0  0
  -24.5103  -14.7655   24.7751 O   0  0  0  0  0  0  0  0  0  0  0  0
  -26.3434  -28.5041   22.4730 O   0  0  0  0  0  0  0  0  0  0  0  0
  -27.4110  -32.1168   22.4147 O   0  0  0  0  0  0  0  0  0  0  0  0
  -19.7581  -23.9620   21.4903 O   0  0  0  0  0  0  0  0  0  0  0  0
  -23.2237  -33.6407   24.0471 O   0  0  0  0  0  0  0  0  0  0  0  0
  -28.5639  -22.5475   21.5672 O   0  0  0  0  0  0  0  0  0  0  0  0
  -24.6241  -10.3764   19.5552 O   0  0  0  0  0  0  0  0  0  0  0  0
  -19.8601  -28.4345   21.2172 O   0  0  0  0  0  0  0  0  0  1  0  0
  -21.1188   -7.1784   22.3640 F   0  0  0  0  0  0  0  0  0  0  0  0
  -25.3366   -9.2954   21.9978 F   0  0  0  0  0  0  0  0  0  0  0  0
  -23.9313  -25.0589   23.3564 S   0  0  0  0  0  0  0  0  0  0  0  0
  1  2  1  0  0  0  0
  1  5  2  0  0  0  0
  2  6  2  0  0  0  0
  3  8  2  0  0  0  0
  3 16  1  0  0  0  0
  4  9  1  0  0  0  0
  4 16  2  0  0  0  0
  5 18  1  0  0  0  0
  6 20  1  0  0  0  0
  7 10  2  0  0  0  0
  7 19  1  0  0  0  0
  8 23  1  0  0  0  0
  9 23  2  0  0  0  0
 10 24  1  0  0  0  0
 11 12  2  0  0  0  0
 11 25  1  0  0  0  0
 12 26  1  0  0  0  0
 13 21  1  0  0  0  0
 13 24  2  0  0  0  0
 14 22  1  0  0  0  0
 14 31  2  0  0  0  0
 15 26  2  0  0  0  0
 15 27  1  0  0  0  0
 16 28  1  0  0  0  0
 17 28  1  0  0  0  0
 17 30  2  0  0  0  0
 17 33  1  0  0  0  0
 18 20  2  0  0  0  0
 18 40  1  0  0  0  0
 19 21  2  0  0  0  0
 19 41  1  0  0  0  0
 20 51  1  0  0  0  0
 21 42  1  0  0  0  0
 22 29  2  0  0  0  0
 22 43  1  0  0  0  0
 23 81  1  0  0  0  0
 24 82  1  0  0  0  0
 25 27  2  0  0  0  0
 25 81  1  0  0  0  0
 26 83  1  0  0  0  0
 27 84  1  0  0  0  0
 28 64  2  0  0  0  0
 29 44  1  0  0  0  0
 29 85  1  0  0  0  0
 30 65  1  0  0  0  0
 30 69  1  0  0  0  0
 31 71  1  0  0  0  0
 31 85  1  0  0  0  0
 32 34  2  0  0  0  0
 33 70  1  0  0  0  0
 33 75  2  0  0  0  0
 34 59  1  0  0  0  0
 34 60  1  0  0  0  0
 35 52  1  0  0  0  0
 35 72  1  0  0  0  0
 35 76  2  0  0  0  0
 36 61  1  0  0  0  0
 36 66  1  0  0  0  0
 36 77  2  0  0  0  0
 37 59  1  0  0  0  0
 37 71  1  0  0  0  0
 37 78  2  0  0  0  0
 38 62  1  0  0  0  0
 38 73  1  0  0  0  0
 38 79  2  0  0  0  0
 39 67  1  0  0  0  0
 39 68  1  0  0  0  0
 39 80  2  0  0  0  0
 40 45  1  0  0  0  0
 41 52  1  0  0  0  0
 42 66  1  0  0  0  0
 43 67  1  0  0  0  0
 44 67  1  0  0  0  0
 45 47  1  0  0  0  0
 46 48  1  0  0  0  0
 46 49  1  0  0  0  0
 47 51  1  0  0  0  0
 48 53  1  0  0  0  0
 49 68  1  0  0  0  0
 50 53  1  0  0  0  0
 50 68  1  0  0  0  0
 51 72  1  0  0  0  0
 52 66  1  0  0  0  0
 53 65  1  0  0  0  0
 54 62  1  0  0  0  0
 55 63  1  0  0  0  0
 56 63  1  0  0  0  0
 57 63  1  0  0  0  0
 58 74  1  0  0  0  0
 60 82  1  0  0  0  0
 61 63  1  0  0  0  0
 61 73  1  0  0  0  0
 62 74  1  0  0  0  0
 64 65  1  0  0  0  0
M  CHG  1  74   1
M  ISO  4  39 100  60 101  67 100  82 101
M  END
> <Batch ID>
0146

> <Smiles>
C=C(CC(=O)Nc1cc2c(s1)C[100N:0]([100C:0](=O)N1CCCC(n3nc(-c4ccc(Oc5ccc(F)cc5F)cc4)c(C(N)=O)c3N)C1)C2)[101CH2:1][101O:1]c1ccc2c(c1)CN(C(=O)C(NC(=O)C(C)NC)C(C)(C)C)C(C(=O)NC1CCCc3ccccc31)C2

> <Shape>
0.335

> <Color>
0.084

> <Negative vol penalty>
0.000

$$$$

  -OEChem-04052303103D

 88 97  0     1  0  0  0  0  0999 V2000
  -32.6701  -25.9550   17.3125 C   0  0  0  0  0  0  0  0  0  0  0  0
  -31.4823  -25.5240   17.8947 C   0  0  0  0  0  0  0  0  0  0  0  0
  -23.8689   -9.6011   20.5944 C   0  0  0  0  0  0  0  0  0  0  0  0
  -24.2691  -10.2846   22.8769 C   0  0  0  0  0  0  0  0  0  0  0  0
  -33.3648  -27.0310   17.8634 C   0  0  0  0  0  0  0  0  0  0  0  0
  -30.9892  -26.1681   19.0289 C   0  0  0  0  0  0  0  0  0  0  0  0
  -26.0138  -27.0675   18.7434 C   0  0  0  0  0  0  0  0  0  0  0  0
  -29.7157  -20.4822   19.7505 C   0  0  0  0  0  0  0  0  0  0  0  0
  -29.8568  -19.1302   20.0633 C   0  0  0  0  0  0  0  0  0  0  0  0
  -23.3668   -8.3813   21.0477 C   0  0  0  0  0  0  0  0  0  0  0  0
  -23.7669   -9.0647   23.3302 C   0  0  0  0  0  0  0  0  0  0  0  0
  -25.1578  -25.9949   18.9892 C   0  0  0  0  0  0  0  0  0  0  0  0
  -20.7386   -7.6451   23.8145 C   0  0  0  0  0  0  0  0  0  0  0  0
  -19.8475   -7.6712   24.8873 C   0  0  0  0  0  0  0  0  0  0  0  0
  -27.9851  -19.2864   21.5830 C   0  0  0  0  0  0  0  0  0  0  0  0
  -24.8000  -26.8027   21.2339 C   0  0  0  0  0  0  0  0  0  0  0  0
  -21.3623   -6.3022   26.1789 C   0  0  0  0  0  0  0  0  0  0  0  0
  -24.3202  -10.5528   21.5091 C   0  0  0  0  0  0  0  0  0  0  0  0
  -27.8440  -20.6384   21.2703 C   0  0  0  0  0  0  0  0  0  0  0  0
  -24.1159  -12.9986   20.8135 C   0  0  0  0  0  0  0  0  0  0  0  0
  -32.8749  -27.6948   18.9992 C   0  0  0  0  0  0  0  0  0  0  0  0
  -26.2784  -28.0114   19.7461 C   0  0  0  0  0  0  0  0  0  0  0  0
  -31.6788  -27.2532   19.5963 C   0  0  0  0  0  0  0  0  0  0  0  0
  -25.6577  -27.8878   20.9974 C   0  0  0  0  0  0  0  0  0  0  0  0
  -28.7093  -21.2363   20.3540 C   0  0  0  0  0  0  0  0  0  0  0  0
  -28.9915  -18.5323   20.9795 C   0  0  0  0  0  0  0  0  0  0  0  0
  -23.3157   -8.1131   22.4156 C   0  0  0  0  0  0  0  0  0  0  0  0
  -24.5529  -25.8608   20.2355 C   0  0  0  0  0  0  0  0  0  0  0  0
  -21.9416   -6.9474   23.9239 C   0  0  0  0  0  0  0  0  0  0  0  0
  -20.1594   -6.9998   26.0695 C   0  0  0  0  0  0  0  0  0  0  0  0
  -22.2534   -6.2760   25.1061 C   0  0  0  0  0  0  0  0  0  0  0  0
  -24.8396  -11.8128   21.0414 C   0  0  0  0  0  0  0  0  0  0  0  0
  -25.0587  -13.8982   20.3797 C   0  0  0  0  0  0  0  0  0  0  0  0
  -26.7743  -21.4177   21.9187 C   0  0  0  0  0  0  0  0  0  0  0  0
  -22.7165  -13.2632   20.9792 C   0  0  0  0  0  0  0  0  0  0  0  0
  -28.8812  -28.9563   21.3069 C   0  0  0  0  0  0  0  0  0  0  0  0
  -26.8611  -31.1727   22.5433 C   0  0  0  0  0  0  0  0  0  0  0  0
  -23.6567  -32.0693   23.3015 C   0  0  0  0  0  0  0  0  0  0  0  0
  -30.0804  -16.2687   20.7880 C   0  0  0  0  0  0  0  0  0  0  0  0
  -33.6854  -28.8229   19.5866 C   0  0  0  0  0  0  0  0  0  0  0  0
  -27.1833  -29.1774   19.4565 C   0  0  0  0  0  0  0  0  0  0  0  0
  -25.8928  -28.8853   22.1012 C   0  0  0  0  0  0  0  0  0  0  0  0
  -32.9010  -29.6895   20.5685 C   0  0  0  0  0  0  0  0  0  0  0  0
  -29.8746  -13.2065   18.9830 C   0  0  0  0  0  0  0  0  0  0  0  0
  -32.1223  -28.8162   21.5471 C   0  0  0  0  0  0  0  0  0  0  0  0
  -28.4868  -12.6685   19.3389 C   0  0  0  0  0  0  0  0  0  0  0  0
  -23.7811  -21.0815   19.8986 C   0  0  0  0  0  0  0  0  0  0  0  0
  -30.5340  -13.9046   20.1711 C   0  0  0  0  0  0  0  0  0  0  0  0
  -25.2720  -20.8148   20.0754 C   0  0  0  0  0  0  0  0  0  0  0  0
  -28.3357  -14.4156   21.1587 C   0  0  0  0  0  0  0  0  0  0  0  0
  -31.0988  -27.9420   20.8125 C   0  0  1  0  0  0  0  0  0  0  0  0
  -27.7837  -29.7950   20.7157 C   0  0  1  0  0  0  0  0  0  0  0  0
  -27.6050  -13.7609   19.9751 C   0  0  2  0  0  0  0  0  0  0  0  0
  -24.4557  -22.2893   21.8820 C   0  0  1  0  0  0  0  0  0  0  0  0
  -23.5274  -22.4091   20.6418 C   0  0  2  0  0  0  0  0  0  0  0  0
  -28.5779  -22.6819   20.0021 C   0  0  0  0  0  0  0  0  0  0  0  0
  -23.8719  -21.5483   23.0808 C   0  0  0  0  0  0  0  0  0  0  0  0
  -22.0421  -22.5785   20.9735 C   0  0  0  0  0  0  0  0  0  0  0  0
  -22.3236  -33.9240   24.3409 C   0  0  0  0  0  0  0  0  0  0  0  0
  -27.7537  -30.2583   25.3140 C   0  0  0  0  0  0  0  0  0  0  0  0
  -25.7558  -31.4279   26.2673 C   0  0  0  0  0  0  0  0  0  0  0  0
  -27.5063  -32.7341   25.0620 C   0  0  0  0  0  0  0  0  0  0  0  0
  -22.1536  -32.5486   20.7975 C   0  0  0  0  0  0  0  0  0  0  0  0
  -23.9731  -23.6015   19.7712 C   0  0  0  0  0  0  0  0  0  1  0  0
  -25.9510  -31.2369   23.7461 C   0  0  1  0  0  0  0  0  0  0  0  0
  -22.8823  -33.3502   23.0481 C   0  0  2  0  0  0  0  0  0  0  0  0
  -26.7386  -31.3943   25.0774 C   0  0  0  0  0  0  0  0  0  0  0  0
  -26.1417  -11.9440   20.7744 N   0  0  0  0  0  0  0  0  0  0  0  0
  -26.2436  -13.2228   20.3741 N   0  0  0  0  0  0  0  0  0  0  0  0
  -25.5841  -21.4879   21.3471 N   0  0  0  0  0  0  0  0  0  0  0  0
  -26.7906  -30.0045   21.7712 N   0  0  0  0  0  0  0  0  0  0  0  0
  -29.6425  -14.9292   20.7192 N   0  0  0  0  0  0  0  0  0  0  0  0
  -24.9815  -15.1932   20.0063 N   0  0  0  0  0  0  0  0  0  0  0  0
  -21.8897  -12.2268   21.4337 N   0  0  0  0  0  0  0  0  0  0  0  0
  -29.1353  -17.1588   21.2968 N   0  0  0  0  0  0  0  0  0  0  0  0
  -29.9370  -28.7234   20.4463 N   0  0  0  0  0  0  0  0  0  0  0  0
  -25.0017  -32.3130   23.4827 N   0  0  0  0  0  0  0  0  0  0  0  0
  -27.0223  -22.0366   23.0692 N   0  3  0  0  0  0  0  0  0  0  0  0
  -21.7464  -33.0934   22.1182 N   0  3  0  0  0  0  0  0  0  0  0  0
  -22.2114  -14.3808   20.7158 O   0  0  0  0  0  0  0  0  0  0  0  0
  -28.7785  -28.5517   22.4590 O   0  0  0  0  0  0  0  0  0  0  0  0
  -27.6018  -32.1270   22.2938 O   0  0  0  0  0  0  0  0  0  0  0  0
  -23.1213  -30.9636   23.3389 O   0  0  0  0  0  0  0  0  0  0  0  0
  -31.2008  -16.6060   20.3971 O   0  0  0  0  0  0  0  0  0  0  0  0
  -22.8255   -6.9230   22.8582 O   0  0  0  0  0  0  0  0  0  0  0  0
  -23.7175  -24.8144   20.4783 O   0  0  0  0  0  0  0  0  0  1  0  0
  -19.3042   -7.0263   27.1001 F   0  0  0  0  0  0  0  0  0  0  0  0
  -23.4080   -5.6050   25.2175 F   0  0  0  0  0  0  0  0  0  0  0  0
  1  2  1  0  0  0  0
  1  5  2  0  0  0  0
  2  6  2  0  0  0  0
  3 10  2  0  0  0  0
  3 18  1  0  0  0  0
  4 11  1  0  0  0  0
  4 18  2  0  0  0  0
  5 21  1  0  0  0  0
  6 23  1  0  0  0  0
  7 12  2  0  0  0  0
  7 22  1  0  0  0  0
  8  9  2  0  0  0  0
  8 25  1  0  0  0  0
  9 26  1  0  0  0  0
 10 27  1  0  0  0  0
 11 27  2  0  0  0  0
 12 28  1  0  0  0  0
 13 14  2  0  0  0  0
 13 29  1  0  0  0  0
 14 30  1  0  0  0  0
 15 19  1  0  0  0  0
 15 26  2  0  0  0  0
 16 24  1  0  0  0  0
 16 28  2  0  0  0  0
 17 30  2  0  0  0  0
 17 31  1  0  0  0  0
 18 32  1  0  0  0  0
 19 25  2  0  0  0  0
 19 34  1  0  0  0  0
 20 32  1  0  0  0  0
 20 33  2  0  0  0  0
 20 35  1  0  0  0  0
 21 23  2  0  0  0  0
 21 40  1  0  0  0  0
 22 24  2  0  0  0  0
 22 41  1  0  0  0  0
 23 51  1  0  0  0  0
 24 42  1  0  0  0  0
 25 56  1  0  0  0  0
 26 75  1  0  0  0  0
 27 85  1  0  0  0  0
 28 86  1  0  0  0  0
 29 31  2  0  0  0  0
 29 85  1  0  0  0  0
 30 87  1  0  0  0  0
 31 88  1  0  0  0  0
 32 68  2  0  0  0  0
 33 69  1  0  0  0  0
 33 73  1  0  0  0  0
 34 70  1  0  0  0  0
 34 78  2  0  0  0  0
 35 74  1  0  0  0  0
 35 80  2  0  0  0  0
 36 52  1  0  0  0  0
 36 76  1  0  0  0  0
 36 81  2  0  0  0  0
 37 65  1  0  0  0  0
 37 71  1  0  0  0  0
 37 82  2  0  0  0  0
 38 66  1  0  0  0  0
 38 77  1  0  0  0  0
 38 83  2  0  0  0  0
 39 72  1  0  0  0  0
 39 75  1  0  0  0  0
 39 84  2  0  0  0  0
 40 43  1  0  0  0  0
 41 52  1  0  0  0  0
 42 71  1  0  0  0  0
 43 45  1  0  0  0  0
 44 46  1  0  0  0  0
 44 48  1  0  0  0  0
 45 51  1  0  0  0  0
 46 53  1  0  0  0  0
 47 49  1  0  0  0  0
 47 55  1  0  0  0  0
 48 72  1  0  0  0  0
 49 70  1  0  0  0  0
 50 53  1  0  0  0  0
 50 72  1  0  0  0  0
 51 76  1  0  0  0  0
 52 71  1  0  0  0  0
 53 69  1  0  0  0  0
 54 55  1  0  0  0  0
 54 57  1  0  0  0  0
 54 70  1  0  0  0  0
 55 58  1  0  0  0  0
 55 64  1  0  0  0  0
 59 66  1  0  0  0  0
 60 67  1  0  0  0  0
 61 67  1  0  0  0  0
 62 67  1  0  0  0  0
 63 79  1  0  0  0  0
 64 86  1  0  0  0  0
 65 67  1  0  0  0  0
 65 77  1  0  0  0  0
 66 79  1  0  0  0  0
 68 69  1  0  0  0  0
M  CHG  2  78   1  79   1
M  ISO  4  39 100  64 101  75 100  86 101
M  END
> <Batch ID>
0146

> <Smiles>
CNC(C)C(=O)NC(C(=O)N1Cc2cc([101O:1][101CH2:1]C3(C)CCN(C(=N)c4cc([100NH:0][100C:0](=O)N5CCCC(n6nc(-c7ccc(Oc8ccc(F)cc8F)cc7)c(C(N)=O)c6N)C5)ccc4C)C3C)ccc2CC1C(=O)NC1CCCc2ccccc21)C(C)(C)C

> <Shape>
0.327

> <Color>
0.141

> <Negative vol penalty>
0.000

$$$$

  -OEChem-04052303103D

 85 94  0     1  0  0  0  0  0999 V2000
  -21.2156  -26.0211   26.0760 C   0  0  0  0  0  0  0  0  0  0  0  0
  -22.3139  -25.9441   25.2255 C   0  0  0  0  0  0  0  0  0  0  0  0
  -24.2293   -9.3440   22.0167 C   0  0  0  0  0  0  0  0  0  0  0  0
  -22.9629  -10.0878   20.0983 C   0  0  0  0  0  0  0  0  0  0  0  0
  -20.0171  -26.5662   25.6174 C   0  0  0  0  0  0  0  0  0  0  0  0
  -22.2139  -26.4113   23.9155 C   0  0  0  0  0  0  0  0  0  0  0  0
  -28.2276  -20.4936   19.5901 C   0  0  0  0  0  0  0  0  0  0  0  0
  -26.2149  -29.1911   22.5336 C   0  0  0  0  0  0  0  0  0  0  0  0
  -29.3842  -21.2443   19.8156 C   0  0  0  0  0  0  0  0  0  0  0  0
  -23.4009   -8.2277   22.1308 C   0  0  0  0  0  0  0  0  0  0  0  0
  -22.1345   -8.9714   20.2124 C   0  0  0  0  0  0  0  0  0  0  0  0
  -27.3797  -28.5050   22.1923 C   0  0  0  0  0  0  0  0  0  0  0  0
  -20.3198   -7.5251   23.3299 C   0  0  0  0  0  0  0  0  0  0  0  0
  -19.8593   -7.1882   24.6027 C   0  0  0  0  0  0  0  0  0  0  0  0
  -28.1303  -22.8755   21.1240 C   0  0  0  0  0  0  0  0  0  0  0  0
  -26.8488  -28.7784   19.8551 C   0  0  0  0  0  0  0  0  0  0  0  0
  -20.9349   -5.0324   24.4212 C   0  0  0  0  0  0  0  0  0  0  0  0
  -24.0103  -10.2741   21.0005 C   0  0  0  0  0  0  0  0  0  0  0  0
  -26.0551  -11.5314   20.1370 C   0  0  0  0  0  0  0  0  0  0  0  0
  -19.9053  -27.0492   24.3040 C   0  0  0  0  0  0  0  0  0  0  0  0
  -25.3514  -29.6673   21.5366 C   0  0  0  0  0  0  0  0  0  0  0  0
  -21.0124  -26.9622   23.4384 C   0  0  0  0  0  0  0  0  0  0  0  0
  -27.0571  -20.9598   20.1418 C   0  0  0  0  0  0  0  0  0  0  0  0
  -27.0102  -22.1148   20.8846 C   0  0  0  0  0  0  0  0  0  0  0  0
  -25.6750  -29.4725   20.1863 C   0  0  0  0  0  0  0  0  0  0  0  0
  -29.3357  -22.4279   20.5775 C   0  0  0  0  0  0  0  0  0  0  0  0
  -22.3535   -8.0414   21.2286 C   0  0  0  0  0  0  0  0  0  0  0  0
  -27.6953  -28.2960   20.8530 C   0  0  0  0  0  0  0  0  0  0  0  0
  -21.0879   -6.6157   22.6027 C   0  0  0  0  0  0  0  0  0  0  0  0
  -20.1669   -5.9418   25.1483 C   0  0  0  0  0  0  0  0  0  0  0  0
  -21.3954   -5.3694   23.1484 C   0  0  0  0  0  0  0  0  0  0  0  0
  -24.8654  -11.4278   20.8824 C   0  0  0  0  0  0  0  0  0  0  0  0
  -26.4840  -12.8184   20.3518 C   0  0  0  0  0  0  0  0  0  0  0  0
  -26.7137  -10.5519   19.3230 C   0  0  0  0  0  0  0  0  0  0  0  0
  -22.3290  -29.1033   20.7301 C   0  0  0  0  0  0  0  0  0  0  0  0
  -30.0168  -25.5216   20.6964 C   0  0  0  0  0  0  0  0  0  0  0  0
  -22.8451  -31.5239   18.6332 C   0  0  0  0  0  0  0  0  0  0  0  0
  -25.0779  -33.3521   16.8114 C   0  0  0  0  0  0  0  0  0  0  0  0
  -25.2983  -18.2035   20.4920 C   0  0  0  0  0  0  0  0  0  0  0  0
  -18.5750  -27.5866   23.8390 C   0  0  0  0  0  0  0  0  0  0  0  0
  -24.1125  -30.4289   21.9208 C   0  0  0  0  0  0  0  0  0  0  0  0
  -25.5364  -22.0037   21.1441 C   0  0  0  0  0  0  0  0  0  0  0  0
  -24.7916  -29.9815   19.0777 C   0  0  0  0  0  0  0  0  0  0  0  0
  -18.6640  -28.4022   22.5517 C   0  0  0  0  0  0  0  0  0  0  0  0
  -24.9514  -16.3072   23.6482 C   0  0  0  0  0  0  0  0  0  0  0  0
  -19.5146  -27.6737   21.5159 C   0  0  0  0  0  0  0  0  0  0  0  0
  -24.9367  -14.8739   23.1268 C   0  0  0  0  0  0  0  0  0  0  0  0
  -24.3007  -17.2829   22.6684 C   0  0  0  0  0  0  0  0  0  0  0  0
  -24.8678  -15.7845   20.7741 C   0  0  0  0  0  0  0  0  0  0  0  0
  -25.5830  -20.6904   20.2805 C   0  0  2  0  0  0  0  0  0  0  0  0
  -20.9506  -27.4811   22.0182 C   0  0  1  0  0  0  0  0  0  0  0  0
  -23.0443  -30.4207   20.8316 C   0  0  1  0  0  0  0  0  0  0  0  0
  -25.5645  -14.8015   21.7269 C   0  0  2  0  0  0  0  0  0  0  0  0
  -31.9787  -24.6485   21.9835 C   0  0  0  0  0  0  0  0  0  0  0  0
  -25.1974  -35.2393   15.1616 C   0  0  0  0  0  0  0  0  0  0  0  0
  -21.8688  -29.6547   16.4280 C   0  0  0  0  0  0  0  0  0  0  0  0
  -22.8878  -31.2118   14.7531 C   0  0  0  0  0  0  0  0  0  0  0  0
  -21.0492  -32.0098   16.2381 C   0  0  0  0  0  0  0  0  0  0  0  0
  -26.7197  -35.0007   18.6404 C   0  0  0  0  0  0  0  0  0  0  0  0
  -29.2958  -26.6354   21.4332 C   0  0  0  0  0  0  0  0  0  1  0  0
  -30.5468  -24.3796   21.5521 C   0  0  2  0  0  0  0  0  0  0  0  0
  -23.3488  -31.6191   17.2133 C   0  0  1  0  0  0  0  0  0  0  0  0
  -25.2436  -34.8502   16.6311 C   0  0  2  0  0  0  0  0  0  0  0  0
  -22.3045  -31.1124   16.1788 C   0  0  0  0  0  0  0  0  0  0  0  0
  -24.5582  -12.5588   21.5231 N   0  0  0  0  0  0  0  0  0  0  0  0
  -25.5612  -13.3853   21.1809 N   0  0  0  0  0  0  0  0  0  0  0  0
  -23.5883  -30.7146   19.5042 N   0  0  0  0  0  0  0  0  0  0  0  0
  -24.8606  -17.1497   21.3140 N   0  0  0  0  0  0  0  0  0  0  0  0
  -27.5566  -13.5092   19.9106 N   0  0  0  0  0  0  0  0  0  0  0  0
  -26.1372   -9.2793   19.2111 N   0  0  0  0  0  0  0  0  0  0  0  0
  -30.4960  -23.1532   20.7867 N   0  0  0  0  0  0  0  0  0  0  0  0
  -21.6983  -28.7142   21.8964 N   0  0  0  0  0  0  0  0  0  0  0  0
  -23.7594  -33.0053   17.0180 N   0  0  0  0  0  0  0  0  0  0  0  0
  -25.1743  -19.4824   21.0261 N   0  0  0  0  0  0  0  0  0  0  0  0
  -26.5482  -35.2986   17.1951 N   0  3  0  0  0  0  0  0  0  0  0  0
  -27.7904  -10.7928   18.7262 O   0  0  0  0  0  0  0  0  0  0  0  0
  -22.3466  -28.4862   19.6715 O   0  0  0  0  0  0  0  0  0  0  0  0
  -30.1693  -25.5525   19.4749 O   0  0  0  0  0  0  0  0  0  0  0  0
  -21.8337  -32.1502   18.9594 O   0  0  0  0  0  0  0  0  0  0  0  0
  -26.0229  -32.5675   16.7691 O   0  0  0  0  0  0  0  0  0  0  0  0
  -25.7605  -18.0254   19.3598 O   0  0  0  0  0  0  0  0  0  0  0  0
  -21.5450   -6.9520   21.3395 O   0  0  0  0  0  0  0  0  0  0  0  0
  -28.8312  -27.6261   20.5172 O   0  0  0  0  0  0  0  0  0  1  0  0
  -19.7258   -5.6190   26.3712 F   0  0  0  0  0  0  0  0  0  0  0  0
  -22.1339   -4.4920   22.4550 F   0  0  0  0  0  0  0  0  0  0  0  0
  1  2  1  0  0  0  0
  1  5  2  0  0  0  0
  2  6  2  0  0  0  0
  3 10  2  0  0  0  0
  3 18  1  0  0  0  0
  4 11  1  0  0  0  0
  4 18  2  0  0  0  0
  5 20  1  0  0  0  0
  6 22  1  0  0  0  0
  7  9  2  0  0  0  0
  7 23  1  0  0  0  0
  8 12  2  0  0  0  0
  8 21  1  0  0  0  0
  9 26  1  0  0  0  0
 10 27  1  0  0  0  0
 11 27  2  0  0  0  0
 12 28  1  0  0  0  0
 13 14  2  0  0  0  0
 13 29  1  0  0  0  0
 14 30  1  0  0  0  0
 15 24  1  0  0  0  0
 15 26  2  0  0  0  0
 16 25  1  0  0  0  0
 16 28  2  0  0  0  0
 17 30  2  0  0  0  0
 17 31  1  0  0  0  0
 18 32  1  0  0  0  0
 19 32  1  0  0  0  0
 19 33  2  0  0  0  0
 19 34  1  0  0  0  0
 20 22  2  0  0  0  0
 20 40  1  0  0  0  0
 21 25  2  0  0  0  0
 21 41  1  0  0  0  0
 22 51  1  0  0  0  0
 23 24  2  0  0  0  0
 23 50  1  0  0  0  0
 24 42  1  0  0  0  0
 25 43  1  0  0  0  0
 26 71  1  0  0  0  0
 27 82  1  0  0  0  0
 28 83  1  0  0  0  0
 29 31  2  0  0  0  0
 29 82  1  0  0  0  0
 30 84  1  0  0  0  0
 31 85  1  0  0  0  0
 32 65  2  0  0  0  0
 33 66  1  0  0  0  0
 33 69  1  0  0  0  0
 34 70  1  0  0  0  0
 34 76  2  0  0  0  0
 35 52  1  0  0  0  0
 35 72  1  0  0  0  0
 35 77  2  0  0  0  0
 36 60  1  0  0  0  0
 36 61  1  0  0  0  0
 36 78  2  0  0  0  0
 37 62  1  0  0  0  0
 37 67  1  0  0  0  0
 37 79  2  0  0  0  0
 38 63  1  0  0  0  0
 38 73  1  0  0  0  0
 38 80  2  0  0  0  0
 39 68  1  0  0  0  0
 39 74  1  0  0  0  0
 39 81  2  0  0  0  0
 40 44  1  0  0  0  0
 41 52  1  0  0  0  0
 42 50  1  0  0  0  0
 43 67  1  0  0  0  0
 44 46  1  0  0  0  0
 45 47  1  0  0  0  0
 45 48  1  0  0  0  0
 46 51  1  0  0  0  0
 47 53  1  0  0  0  0
 48 68  1  0  0  0  0
 49 53  1  0  0  0  0
 49 68  1  0  0  0  0
 50 74  1  0  0  0  0
 51 72  1  0  0  0  0
 52 67  1  0  0  0  0
 53 66  1  0  0  0  0
 54 61  1  0  0  0  0
 55 63  1  0  0  0  0
 56 64  1  0  0  0  0
 57 64  1  0  0  0  0
 58 64  1  0  0  0  0
 59 75  1  0  0  0  0
 60 83  1  0  0  0  0
 61 71  1  0  0  0  0
 62 64  1  0  0  0  0
 62 73  1  0  0  0  0
 63 75  1  0  0  0  0
 65 66  1  0  0  0  0
M  CHG  1  75   1
M  ISO  4  39 100  60 101  74 100  83 101
M  END
> <Batch ID>
0146

> <Smiles>
CNC(C)C(=O)NC(C(=O)N1Cc2cc([101O:1][101CH2:1]C(=O)C(C)Nc3ccc4c(c3)CC4[100NH:0][100C:0](=O)N3CCCC(n4nc(-c5ccc(Oc6ccc(F)cc6F)cc5)c(C(N)=O)c4N)C3)ccc2CC1C(=O)NC1CCCc2ccccc21)C(C)(C)C

> <Shape>
0.274

> <Color>
0.117

> <Negative vol penalty>
0.000

$$$$

  -OEChem-04052303103D

 87 95  0     1  0  0  0  0  0999 V2000
  -21.9403  -15.5410   26.8212 C   0  0  0  0  0  0  0  0  0  0  0  0
  -22.8275  -16.6081   26.7239 C   0  0  0  0  0  0  0  0  0  0  0  0
  -23.1322   -9.7755   20.0913 C   0  0  0  0  0  0  0  0  0  0  0  0
  -23.7729  -10.0215   22.4078 C   0  0  0  0  0  0  0  0  0  0  0  0
  -20.8700  -15.4425   25.9331 C   0  0  0  0  0  0  0  0  0  0  0  0
  -22.6456  -17.5768   25.7376 C   0  0  0  0  0  0  0  0  0  0  0  0
  -23.2128  -22.2859   27.5119 C   0  0  0  0  0  0  0  0  0  0  0  0
  -22.3871   -8.6424   20.4177 C   0  0  0  0  0  0  0  0  0  0  0  0
  -23.0278   -8.8884   22.7342 C   0  0  0  0  0  0  0  0  0  0  0  0
  -24.5164  -22.7400   27.7073 C   0  0  0  0  0  0  0  0  0  0  0  0
  -19.7804   -8.1083   23.2503 C   0  0  0  0  0  0  0  0  0  0  0  0
  -18.9646   -8.1742   24.3798 C   0  0  0  0  0  0  0  0  0  0  0  0
  -24.4063  -23.9374   25.6160 C   0  0  0  0  0  0  0  0  0  0  0  0
  -29.6914  -17.7425   22.8516 C   0  0  0  0  0  0  0  0  0  0  0  0
  -31.9106  -16.8714   22.4604 C   0  0  0  0  0  0  0  0  0  0  0  0
  -31.5992  -18.7747   23.9155 C   0  0  0  0  0  0  0  0  0  0  0  0
  -20.1842   -6.3376   25.3679 C   0  0  0  0  0  0  0  0  0  0  0  0
  -23.8252  -10.4651   21.0863 C   0  0  0  0  0  0  0  0  0  0  0  0
  -24.1494  -12.9704   20.7316 C   0  0  0  0  0  0  0  0  0  0  0  0
  -20.6693  -16.4158   24.9416 C   0  0  0  0  0  0  0  0  0  0  0  0
  -22.4988  -22.6459   26.3598 C   0  0  0  0  0  0  0  0  0  0  0  0
  -21.5724  -17.4906   24.8346 C   0  0  0  0  0  0  0  0  0  0  0  0
  -23.0929  -23.4886   25.4096 C   0  0  0  0  0  0  0  0  0  0  0  0
  -30.5349  -16.8177   22.2361 C   0  0  0  0  0  0  0  0  0  0  0  0
  -30.2235  -18.7211   23.6912 C   0  0  0  0  0  0  0  0  0  0  0  0
  -22.3349   -8.1989   21.7391 C   0  0  0  0  0  0  0  0  0  0  0  0
  -25.1144  -23.5635   26.7579 C   0  0  0  0  0  0  0  0  0  0  0  0
  -20.7981   -7.1570   23.1796 C   0  0  0  0  0  0  0  0  0  0  0  0
  -19.1665   -7.2889   25.4386 C   0  0  0  0  0  0  0  0  0  0  0  0
  -32.4428  -17.8499   23.3001 C   0  0  0  0  0  0  0  0  0  0  0  0
  -21.0001   -6.2717   24.2384 C   0  0  0  0  0  0  0  0  0  0  0  0
  -24.5955  -11.6353   20.7497 C   0  0  0  0  0  0  0  0  0  0  0  0
  -25.2519  -13.6956   20.3505 C   0  0  0  0  0  0  0  0  0  0  0  0
  -22.8543  -13.5071   21.0323 C   0  0  0  0  0  0  0  0  0  0  0  0
  -21.2266  -21.0540   23.9204 C   0  0  0  0  0  0  0  0  0  0  0  0
  -28.6728  -21.5102   25.6700 C   0  0  0  0  0  0  0  0  0  0  0  0
  -20.0639  -23.9762   23.1258 C   0  0  0  0  0  0  0  0  0  0  0  0
  -20.3588  -27.3691   23.3445 C   0  0  0  0  0  0  0  0  0  0  0  0
  -30.6919  -14.8315   20.6945 C   0  0  0  0  0  0  0  0  0  0  0  0
  -19.5253  -16.2415   23.9743 C   0  0  0  0  0  0  0  0  0  0  0  0
  -21.0839  -22.1695   26.1768 C   0  0  0  0  0  0  0  0  0  0  0  0
  -22.3620  -23.9206   24.1656 C   0  0  0  0  0  0  0  0  0  0  0  0
  -19.1873  -17.5103   23.1958 C   0  0  0  0  0  0  0  0  0  0  0  0
  -29.7232  -12.1784   18.5266 C   0  0  0  0  0  0  0  0  0  0  0  0
  -20.4573  -18.1582   22.6536 C   0  0  0  0  0  0  0  0  0  0  0  0
  -28.2661  -11.9104   18.9102 C   0  0  0  0  0  0  0  0  0  0  0  0
  -30.5731  -12.5387   19.7438 C   0  0  0  0  0  0  0  0  0  0  0  0
  -28.5910  -13.3696   20.9480 C   0  0  0  0  0  0  0  0  0  0  0  0
  -21.3943  -18.5747   23.7938 C   0  0  1  0  0  0  0  0  0  0  0  0
  -20.6338  -22.1801   24.7192 C   0  0  1  0  0  0  0  0  0  0  0  0
  -27.6817  -13.0661   19.7460 C   0  0  2  0  0  0  0  0  0  0  0  0
  -19.2816  -29.4948   22.5582 C   0  0  0  0  0  0  0  0  0  0  0  0
  -21.3040  -23.5808   20.3661 C   0  0  0  0  0  0  0  0  0  0  0  0
  -21.0366  -26.0385   19.9706 C   0  0  0  0  0  0  0  0  0  0  0  0
  -19.0255  -24.6116   20.3479 C   0  0  0  0  0  0  0  0  0  0  0  0
  -29.4671  -24.3609   24.7832 C   0  0  0  0  0  0  0  0  0  0  0  0
  -29.1094  -25.0930   27.1413 C   0  0  0  0  0  0  0  0  0  0  0  0
  -19.7647  -28.2288   26.1134 C   0  0  0  0  0  0  0  0  0  0  0  0
  -28.9931  -22.6582   26.6167 C   0  0  0  0  0  0  0  0  0  0  0  0
  -29.8464  -20.6842   25.1844 C   0  0  0  0  0  0  0  0  0  0  0  0
  -27.1687  -24.2523   25.7774 C   0  0  0  0  0  0  0  0  0  1  0  0
  -20.5580  -25.1323   22.2902 C   0  0  1  0  0  0  0  0  0  0  0  0
  -19.3414  -28.4502   23.6618 C   0  0  2  0  0  0  0  0  0  0  0  0
  -20.4958  -24.8313   20.7661 C   0  0  0  0  0  0  0  0  0  0  0  0
  -28.6730  -24.0705   26.0694 C   0  0  0  0  0  0  0  0  0  0  0  0
  -25.8810  -11.5164   20.4073 N   0  0  0  0  0  0  0  0  0  0  0  0
  -26.2522  -12.7861   20.1703 N   0  0  0  0  0  0  0  0  0  0  0  0
  -20.9830  -23.4234   24.0288 N   0  0  0  0  0  0  0  0  0  0  0  0
  -29.9602  -13.6436   20.4844 N   0  0  0  0  0  0  0  0  0  0  0  0
  -25.4535  -15.0160   20.1553 N   0  0  0  0  0  0  0  0  0  0  0  0
  -21.8348  -12.6215   21.4075 N   0  0  0  0  0  0  0  0  0  0  0  0
  -29.9948  -15.8240   21.3826 N   0  0  0  0  0  0  0  0  0  0  0  0
  -29.3850  -19.6410   24.3033 N   0  0  0  0  0  0  0  0  0  0  0  0
  -20.9268  -19.7975   24.4110 N   0  0  0  0  0  0  0  0  0  0  0  0
  -19.7795  -26.2955   22.7018 N   0  0  0  0  0  0  0  0  0  0  0  0
  -19.6937  -29.1345   24.9380 N   0  3  0  0  0  0  0  0  0  0  0  0
  -22.6041  -14.7338   20.9543 O   0  0  0  0  0  0  0  0  0  0  0  0
  -21.9046  -21.3064   22.9313 O   0  0  0  0  0  0  0  0  0  0  0  0
  -27.5153  -21.2861   25.3153 O   0  0  0  0  0  0  0  0  0  0  0  0
  -18.9030  -23.5828   22.9875 O   0  0  0  0  0  0  0  0  0  0  0  0
  -21.5490  -27.4688   23.6343 O   0  0  0  0  0  0  0  0  0  0  0  0
  -31.8420  -14.9690   20.2697 O   0  0  0  0  0  0  0  0  0  0  0  0
  -21.6077   -7.0934   22.0579 O   0  0  0  0  0  0  0  0  0  0  0  0
  -26.3869  -24.0076   26.9459 O   0  0  0  0  0  0  0  0  0  1  0  0
  -18.3840   -7.3533   26.5238 F   0  0  0  0  0  0  0  0  0  0  0  0
  -33.7639  -17.9019   23.5152 F   0  0  0  0  0  0  0  0  0  0  0  0
  -21.9769   -5.3564   24.1768 F   0  0  0  0  0  0  0  0  0  0  0  0
  1  2  1  0  0  0  0
  1  5  2  0  0  0  0
  2  6  2  0  0  0  0
  3  8  2  0  0  0  0
  3 18  1  0  0  0  0
  4  9  1  0  0  0  0
  4 18  2  0  0  0  0
  5 20  1  0  0  0  0
  6 22  1  0  0  0  0
  7 10  2  0  0  0  0
  7 21  1  0  0  0  0
  8 26  1  0  0  0  0
  9 26  2  0  0  0  0
 10 27  1  0  0  0  0
 11 12  2  0  0  0  0
 11 28  1  0  0  0  0
 12 29  1  0  0  0  0
 13 23  1  0  0  0  0
 13 27  2  0  0  0  0
 14 24  1  0  0  0  0
 14 25  2  0  0  0  0
 15 24  2  0  0  0  0
 15 30  1  0  0  0  0
 16 25  1  0  0  0  0
 16 30  2  0  0  0  0
 17 29  2  0  0  0  0
 17 31  1  0  0  0  0
 18 32  1  0  0  0  0
 19 32  1  0  0  0  0
 19 33  2  0  0  0  0
 19 34  1  0  0  0  0
 20 22  2  0  0  0  0
 20 40  1  0  0  0  0
 21 23  2  0  0  0  0
 21 41  1  0  0  0  0
 22 49  1  0  0  0  0
 23 42  1  0  0  0  0
 24 72  1  0  0  0  0
 25 73  1  0  0  0  0
 26 83  1  0  0  0  0
 27 84  1  0  0  0  0
 28 31  2  0  0  0  0
 28 83  1  0  0  0  0
 29 85  1  0  0  0  0
 30 86  1  0  0  0  0
 31 87  1  0  0  0  0
 32 66  2  0  0  0  0
 33 67  1  0  0  0  0
 33 70  1  0  0  0  0
 34 71  1  0  0  0  0
 34 77  2  0  0  0  0
 35 50  1  0  0  0  0
 35 74  1  0  0  0  0
 35 78  2  0  0  0  0
 36 59  1  0  0  0  0
 36 60  1  0  0  0  0
 36 79  2  0  0  0  0
 37 62  1  0  0  0  0
 37 68  1  0  0  0  0
 37 80  2  0  0  0  0
 38 63  1  0  0  0  0
 38 75  1  0  0  0  0
 38 81  2  0  0  0  0
 39 69  1  0  0  0  0
 39 72  1  0  0  0  0
 39 82  2  0  0  0  0
 40 43  1  0  0  0  0
 41 50  1  0  0  0  0
 42 68  1  0  0  0  0
 43 45  1  0  0  0  0
 44 46  1  0  0  0  0
 44 47  1  0  0  0  0
 45 49  1  0  0  0  0
 46 51  1  0  0  0  0
 47 69  1  0  0  0  0
 48 51  1  0  0  0  0
 48 69  1  0  0  0  0
 49 74  1  0  0  0  0
 50 68  1  0  0  0  0
 51 67  1  0  0  0  0
 52 63  1  0  0  0  0
 53 64  1  0  0  0  0
 54 64  1  0  0  0  0
 55 64  1  0  0  0  0
 56 65  1  0  0  0  0
 57 65  1  0  0  0  0
 58 76  1  0  0  0  0
 59 65  1  0  0  0  0
 60 73  1  0  0  0  0
 61 65  1  0  0  0  0
 61 84  1  0  0  0  0
 62 64  1  0  0  0  0
 62 75  1  0  0  0  0
 63 76  1  0  0  0  0
 66 67  1  0  0  0  0
M  CHG  1  76   1
M  ISO  4  39 100  61 101  72 100  84 101
M  END
> <Batch ID>
0146

> <Smiles>
CNC(C)C(=O)NC(C(=O)N1Cc2cc([101O:1][101CH2:1]C(C)(C)CC(=O)CNc3cc(F)cc([100NH:0][100C:0](=O)N4CCCC(n5nc(-c6ccc(Oc7ccc(F)cc7F)cc6)c(C(N)=O)c5N)C4)c3)ccc2CC1C(=O)NC1CCCc2ccccc21)C(C)(C)C

> <Shape>
0.204

> <Color>
0.179

> <Negative vol penalty>
0.000

$$$$

  -OEChem-04052303103D

 83 92  0     1  0  0  0  0  0999 V2000
  -29.3629  -35.4283   23.5607 C   0  0  0  0  0  0  0  0  0  0  0  0
  -29.2174  -34.0450   23.5338 C   0  0  0  0  0  0  0  0  0  0  0  0
  -22.1430  -10.6341   21.3596 C   0  0  0  0  0  0  0  0  0  0  0  0
  -24.0174   -9.5252   20.3138 C   0  0  0  0  0  0  0  0  0  0  0  0
  -28.2426  -36.2429   23.7202 C   0  0  0  0  0  0  0  0  0  0  0  0
  -27.9516  -33.4755   23.6675 C   0  0  0  0  0  0  0  0  0  0  0  0
  -27.1332  -29.7548   20.3310 C   0  0  0  0  0  0  0  0  0  0  0  0
  -21.6263   -9.3973   21.7453 C   0  0  0  0  0  0  0  0  0  0  0  0
  -23.5008   -8.2882   20.6995 C   0  0  0  0  0  0  0  0  0  0  0  0
  -27.7116  -28.5160   20.6042 C   0  0  0  0  0  0  0  0  0  0  0  0
  -22.1966   -7.1041   24.1639 C   0  0  0  0  0  0  0  0  0  0  0  0
  -21.7270   -6.9769   25.4711 C   0  0  0  0  0  0  0  0  0  0  0  0
  -25.5964  -27.7217   21.4495 C   0  0  0  0  0  0  0  0  0  0  0  0
  -25.1817  -21.7116   18.8064 C   0  0  0  0  0  0  0  0  0  0  0  0
  -19.5313   -6.4236   24.6284 C   0  0  0  0  0  0  0  0  0  0  0  0
  -23.3385  -10.6981   20.6438 C   0  0  0  0  0  0  0  0  0  0  0  0
  -24.7605  -12.7904   20.9719 C   0  0  0  0  0  0  0  0  0  0  0  0
  -26.9614  -35.6834   23.8462 C   0  0  0  0  0  0  0  0  0  0  0  0
  -25.7826  -29.9903   20.6256 C   0  0  0  0  0  0  0  0  0  0  0  0
  -26.8134  -34.2833   23.8301 C   0  0  0  0  0  0  0  0  0  0  0  0
  -25.0027  -28.9636   21.1768 C   0  0  0  0  0  0  0  0  0  0  0  0
  -24.5643  -20.4950   18.4527 C   0  0  0  0  0  0  0  0  0  0  0  0
  -22.3052   -8.2243   21.4153 C   0  0  0  0  0  0  0  0  0  0  0  0
  -26.9439  -27.5001   21.1662 C   0  0  0  0  0  0  0  0  0  0  0  0
  -21.3336   -6.8912   23.0889 C   0  0  0  0  0  0  0  0  0  0  0  0
  -20.3944   -6.6366   25.7034 C   0  0  0  0  0  0  0  0  0  0  0  0
  -20.0009   -6.5509   23.3212 C   0  0  0  0  0  0  0  0  0  0  0  0
  -23.8724  -11.9755   20.2447 C   0  0  0  0  0  0  0  0  0  0  0  0
  -25.3500  -19.4156   18.7342 C   0  0  0  0  0  0  0  0  0  0  0  0
  -24.9599  -13.8850   20.1665 C   0  0  0  0  0  0  0  0  0  0  0  0
  -26.4341  -21.4806   19.3536 C   0  0  0  0  0  0  0  0  0  0  0  0
  -25.3525  -12.5770   22.2602 C   0  0  0  0  0  0  0  0  0  0  0  0
  -24.2197  -31.9898   22.5395 C   0  0  0  0  0  0  0  0  0  0  0  0
  -21.6107  -30.7281   21.0823 C   0  0  0  0  0  0  0  0  0  0  0  0
  -27.3299  -23.7702   19.9007 C   0  0  0  0  0  0  0  0  0  0  0  0
  -20.2222  -28.1161   19.3804 C   0  0  0  0  0  0  0  0  0  0  0  0
  -22.6209  -17.8548   16.9276 C   0  0  0  0  0  0  0  0  0  0  0  0
  -25.7859  -36.6029   24.0639 C   0  0  0  0  0  0  0  0  0  0  0  0
  -25.1670  -31.3235   20.3002 C   0  0  0  0  0  0  0  0  0  0  0  0
  -23.5432  -29.1590   21.4930 C   0  0  0  0  0  0  0  0  0  0  0  0
  -23.2864  -20.0820   17.8455 C   0  0  0  0  0  0  0  0  0  0  0  0
  -24.7310  -18.1240   18.3885 C   0  0  0  0  0  0  0  0  0  0  0  0
  -24.4356  -35.9329   23.8230 C   0  0  0  0  0  0  0  0  0  0  0  0
  -23.6839  -14.7176   15.3423 C   0  0  0  0  0  0  0  0  0  0  0  0
  -24.3846  -34.5723   24.5108 C   0  0  0  0  0  0  0  0  0  0  0  0
  -23.8546  -13.7820   16.5412 C   0  0  0  0  0  0  0  0  0  0  0  0
  -22.6139  -15.7788   15.5906 C   0  0  0  0  0  0  0  0  0  0  0  0
  -22.9517  -15.6077   18.0247 C   0  0  0  0  0  0  0  0  0  0  0  0
  -25.4540  -33.6287   23.9471 C   0  0  1  0  0  0  0  0  0  0  0  0
  -23.9123  -31.6175   21.1166 C   0  0  1  0  0  0  0  0  0  0  0  0
  -24.0735  -14.5768   17.8430 C   0  0  1  0  0  0  0  0  0  0  0  0
  -18.0601  -27.3592   18.3559 C   0  0  0  0  0  0  0  0  0  0  0  0
  -20.5151  -30.1047   23.8609 C   0  0  0  0  0  0  0  0  0  0  0  0
  -18.8756  -28.5458   22.7886 C   0  0  0  0  0  0  0  0  0  0  0  0
  -18.8202  -30.9794   22.2434 C   0  0  0  0  0  0  0  0  0  0  0  0
  -21.4238  -27.9549   16.6805 C   0  0  0  0  0  0  0  0  0  0  0  0
  -28.6010  -24.3529   20.5079 C   0  0  0  0  0  0  0  0  0  0  0  0
  -28.5800  -25.8715   20.5948 C   0  0  0  0  0  0  0  0  0  1  0  0
  -20.7034  -29.5508   21.3462 C   0  0  1  0  0  0  0  0  0  0  0  0
  -19.3831  -28.0698   18.1162 C   0  0  2  0  0  0  0  0  0  0  0  0
  -19.7565  -29.7918   22.5557 C   0  0  0  0  0  0  0  0  0  0  0  0
  -23.5309  -12.5071   19.0679 N   0  0  0  0  0  0  0  0  0  0  0  0
  -24.2080  -13.6678   19.0495 N   0  0  0  0  0  0  0  0  0  0  0  0
  -22.9887  -30.4821   21.1623 N   0  0  0  0  0  0  0  0  0  0  0  0
  -23.4516  -18.5998   17.7719 N   0  0  0  0  0  0  0  0  0  0  0  0
  -22.8597  -16.4793   16.8500 N   0  0  0  0  0  0  0  0  0  0  0  0
  -25.7031  -15.0025   20.3120 N   0  0  0  0  0  0  0  0  0  0  0  0
  -25.0404  -11.3987   22.9520 N   0  0  0  0  0  0  0  0  0  0  0  0
  -27.3751  -22.3509   19.8309 N   0  0  0  0  0  0  0  0  0  0  0  0
  -25.0356  -33.0976   22.6675 N   0  0  0  0  0  0  0  0  0  0  0  0
  -20.0117  -29.2790   20.0908 N   0  0  0  0  0  0  0  0  0  0  0  0
  -20.1142  -27.3500   17.0353 N   0  3  0  0  0  0  0  0  0  0  0  0
  -26.1222  -13.4142   22.7896 O   0  0  0  0  0  0  0  0  0  0  0  0
  -23.7502  -31.3223   23.4536 O   0  0  0  0  0  0  0  0  0  0  0  0
  -21.1152  -31.8240   20.8079 O   0  0  0  0  0  0  0  0  0  0  0  0
  -26.4004  -24.4783   19.5280 O   0  0  0  0  0  0  0  0  0  0  0  0
  -20.9852  -27.2096   19.7070 O   0  0  0  0  0  0  0  0  0  0  0  0
  -21.7488  -18.3976   16.2376 O   0  0  0  0  0  0  0  0  0  0  0  0
  -21.8015   -7.0172   21.7916 O   0  0  0  0  0  0  0  0  0  0  0  0
  -27.5101  -26.2817   21.4364 O   0  0  0  0  0  0  0  0  0  1  0  0
  -19.9439   -6.5129   26.9588 F   0  0  0  0  0  0  0  0  0  0  0  0
  -19.1674   -6.3439   22.2925 F   0  0  0  0  0  0  0  0  0  0  0  0
  -26.8260  -19.7957   19.4198 S   0  0  0  0  0  0  0  0  0  0  0  0
  1  2  1  0  0  0  0
  1  5  2  0  0  0  0
  2  6  2  0  0  0  0
  3  8  2  0  0  0  0
  3 16  1  0  0  0  0
  4  9  1  0  0  0  0
  4 16  2  0  0  0  0
  5 18  1  0  0  0  0
  6 20  1  0  0  0  0
  7 10  2  0  0  0  0
  7 19  1  0  0  0  0
  8 23  1  0  0  0  0
  9 23  2  0  0  0  0
 10 24  1  0  0  0  0
 11 12  2  0  0  0  0
 11 25  1  0  0  0  0
 12 26  1  0  0  0  0
 13 21  1  0  0  0  0
 13 24  2  0  0  0  0
 14 22  1  0  0  0  0
 14 31  2  0  0  0  0
 15 26  2  0  0  0  0
 15 27  1  0  0  0  0
 16 28  1  0  0  0  0
 17 28  1  0  0  0  0
 17 30  2  0  0  0  0
 17 32  1  0  0  0  0
 18 20  2  0  0  0  0
 18 38  1  0  0  0  0
 19 21  2  0  0  0  0
 19 39  1  0  0  0  0
 20 49  1  0  0  0  0
 21 40  1  0  0  0  0
 22 29  2  0  0  0  0
 22 41  1  0  0  0  0
 23 79  1  0  0  0  0
 24 80  1  0  0  0  0
 25 27  2  0  0  0  0
 25 79  1  0  0  0  0
 26 81  1  0  0  0  0
 27 82  1  0  0  0  0
 28 62  2  0  0  0  0
 29 42  1  0  0  0  0
 29 83  1  0  0  0  0
 30 63  1  0  0  0  0
 30 67  1  0  0  0  0
 31 69  1  0  0  0  0
 31 83  1  0  0  0  0
 32 68  1  0  0  0  0
 32 73  2  0  0  0  0
 33 50  1  0  0  0  0
 33 70  1  0  0  0  0
 33 74  2  0  0  0  0
 34 59  1  0  0  0  0
 34 64  1  0  0  0  0
 34 75  2  0  0  0  0
 35 57  1  0  0  0  0
 35 69  1  0  0  0  0
 35 76  2  0  0  0  0
 36 60  1  0  0  0  0
 36 71  1  0  0  0  0
 36 77  2  0  0  0  0
 37 65  1  0  0  0  0
 37 66  1  0  0  0  0
 37 78  2  0  0  0  0
 38 43  1  0  0  0  0
 39 50  1  0  0  0  0
 40 64  1  0  0  0  0
 41 65  1  0  0  0  0
 42 65  1  0  0  0  0
 43 45  1  0  0  0  0
 44 46  1  0  0  0  0
 44 47  1  0  0  0  0
 45 49  1  0  0  0  0
 46 51  1  0  0  0  0
 47 66  1  0  0  0  0
 48 51  1  0  0  0  0
 48 66  1  0  0  0  0
 49 70  1  0  0  0  0
 50 64  1  0  0  0  0
 51 63  1  0  0  0  0
 52 60  1  0  0  0  0
 53 61  1  0  0  0  0
 54 61  1  0  0  0  0
 55 61  1  0  0  0  0
 56 72  1  0  0  0  0
 57 58  1  0  0  0  0
 58 80  1  0  0  0  0
 59 61  1  0  0  0  0
 59 71  1  0  0  0  0
 60 72  1  0  0  0  0
 62 63  1  0  0  0  0
M  CHG  1  72   1
M  ISO  4  37 100  58 101  65 100  80 101
M  END
> <Batch ID>
0146

> <Smiles>
CNC(C)C(=O)NC(C(=O)N1Cc2cc([101O:1][101CH2:1]CC(=O)Nc3cc4c(s3)C[100N:0]([100C:0](=O)N3CCCC(n5nc(-c6ccc(Oc7ccc(F)cc7F)cc6)c(C(N)=O)c5N)C3)C4)ccc2CC1C(=O)NC1CCCc2ccccc21)C(C)(C)C

> <Shape>
0.232

> <Color>
0.108

> <Negative vol penalty>
0.000

$$$$

  -OEChem-04052303103D

 90 99  0     1  0  0  0  0  0999 V2000
  -30.3846  -36.5889   23.8337 C   0  0  0  0  0  0  0  0  0  0  0  0
  -30.5640  -35.3886   23.1536 C   0  0  0  0  0  0  0  0  0  0  0  0
  -22.7695  -10.3042   21.7096 C   0  0  0  0  0  0  0  0  0  0  0  0
  -24.5118   -9.1909   20.4597 C   0  0  0  0  0  0  0  0  0  0  0  0
  -29.4212  -36.6829   24.8373 C   0  0  0  0  0  0  0  0  0  0  0  0
  -29.7808  -34.2812   23.4774 C   0  0  0  0  0  0  0  0  0  0  0  0
  -27.7353  -29.9697   19.6392 C   0  0  0  0  0  0  0  0  0  0  0  0
  -22.0670   -9.1026   21.8006 C   0  0  0  0  0  0  0  0  0  0  0  0
  -23.8093   -7.9893   20.5508 C   0  0  0  0  0  0  0  0  0  0  0  0
  -28.1963  -28.6896   19.3349 C   0  0  0  0  0  0  0  0  0  0  0  0
  -19.9884   -6.2508   22.6732 C   0  0  0  0  0  0  0  0  0  0  0  0
  -19.4462   -5.9089   23.9120 C   0  0  0  0  0  0  0  0  0  0  0  0
  -25.5554  -20.8664   17.0788 C   0  0  0  0  0  0  0  0  0  0  0  0
  -26.6383  -27.7574   20.9233 C   0  0  0  0  0  0  0  0  0  0  0  0
  -24.3007  -22.8270   17.7179 C   0  0  0  0  0  0  0  0  0  0  0  0
  -21.6572   -5.9300   24.8856 C   0  0  0  0  0  0  0  0  0  0  0  0
  -23.9919  -10.3483   21.0390 C   0  0  0  0  0  0  0  0  0  0  0  0
  -25.6800  -12.0825   21.8457 C   0  0  0  0  0  0  0  0  0  0  0  0
  -28.6193  -35.5789   25.1669 C   0  0  0  0  0  0  0  0  0  0  0  0
  -26.7283  -30.1544   20.5974 C   0  0  0  0  0  0  0  0  0  0  0  0
  -28.8068  -34.3602   24.4872 C   0  0  0  0  0  0  0  0  0  0  0  0
  -24.3681  -20.1303   16.9544 C   0  0  0  0  0  0  0  0  0  0  0  0
  -26.1645  -29.0407   21.2361 C   0  0  0  0  0  0  0  0  0  0  0  0
  -23.1339  -20.7636   17.1945 C   0  0  0  0  0  0  0  0  0  0  0  0
  -23.1124  -22.1086   17.5888 C   0  0  0  0  0  0  0  0  0  0  0  0
  -25.5207  -22.2074   17.4600 C   0  0  0  0  0  0  0  0  0  0  0  0
  -22.5869   -7.9451   21.2213 C   0  0  0  0  0  0  0  0  0  0  0  0
  -27.6498  -27.5834   19.9790 C   0  0  0  0  0  0  0  0  0  0  0  0
  -21.3651   -6.4322   22.5405 C   0  0  0  0  0  0  0  0  0  0  0  0
  -20.2806   -5.7485   25.0182 C   0  0  0  0  0  0  0  0  0  0  0  0
  -22.1995   -6.2719   23.6468 C   0  0  0  0  0  0  0  0  0  0  0  0
  -24.7178  -11.5894   20.9441 C   0  0  0  0  0  0  0  0  0  0  0  0
  -26.0667  -13.2868   21.3104 C   0  0  0  0  0  0  0  0  0  0  0  0
  -26.1795  -11.5037   23.0586 C   0  0  0  0  0  0  0  0  0  0  0  0
  -26.5403  -31.6547   23.3934 C   0  0  0  0  0  0  0  0  0  0  0  0
  -23.4064  -30.8468   23.1749 C   0  0  0  0  0  0  0  0  0  0  0  0
  -26.8759  -24.2721   17.9543 C   0  0  0  0  0  0  0  0  0  0  0  0
  -21.0350  -28.7644   21.8761 C   0  0  0  0  0  0  0  0  0  0  0  0
  -22.9831  -16.8185   17.4528 C   0  0  0  0  0  0  0  0  0  0  0  0
  -27.6234  -35.7150   26.2914 C   0  0  0  0  0  0  0  0  0  0  0  0
  -26.2233  -31.5396   20.8950 C   0  0  0  0  0  0  0  0  0  0  0  0
  -21.8380  -19.9995   17.0851 C   0  0  0  0  0  0  0  0  0  0  0  0
  -24.4417  -18.6810   16.5275 C   0  0  0  0  0  0  0  0  0  0  0  0
  -25.0671  -29.1836   22.2577 C   0  0  0  0  0  0  0  0  0  0  0  0
  -26.5781  -34.6028   26.3172 C   0  0  0  0  0  0  0  0  0  0  0  0
  -26.4964  -15.5809   17.1453 C   0  0  0  0  0  0  0  0  0  0  0  0
  -27.2432  -33.2409   26.1451 C   0  0  0  0  0  0  0  0  0  0  0  0
  -26.4803  -14.4100   18.1269 C   0  0  0  0  0  0  0  0  0  0  0  0
  -21.9913  -18.7363   16.2445 C   0  0  0  0  0  0  0  0  0  0  0  0
  -25.1159  -15.8157   16.5438 C   0  0  0  0  0  0  0  0  0  0  0  0
  -24.0190  -14.8600   18.5436 C   0  0  0  0  0  0  0  0  0  0  0  0
  -27.9598  -33.1439   24.7928 C   0  0  1  0  0  0  0  0  0  0  0  0
  -25.5529  -31.6507   22.2608 C   0  0  1  0  0  0  0  0  0  0  0  0
  -25.3884  -14.6005   19.1935 C   0  0  1  0  0  0  0  0  0  0  0  0
  -18.5637  -28.3295   21.9093 C   0  0  0  0  0  0  0  0  0  0  0  0
  -21.7944  -25.1985   17.0849 C   0  0  0  0  0  0  0  0  0  0  0  0
  -21.7978  -23.3698   15.3881 C   0  0  0  0  0  0  0  0  0  0  0  0
  -19.7491  -23.8059   16.7663 C   0  0  0  0  0  0  0  0  0  0  0  0
  -23.6685  -29.5826   25.9394 C   0  0  0  0  0  0  0  0  0  0  0  0
  -21.5195  -28.3711   25.5126 C   0  0  0  0  0  0  0  0  0  0  0  0
  -21.5523  -30.8646   25.5750 C   0  0  0  0  0  0  0  0  0  0  0  0
  -20.7936  -29.2466   18.9661 C   0  0  0  0  0  0  0  0  0  0  0  0
  -21.8292  -22.8147   17.8911 C   0  0  0  0  0  0  0  0  0  0  0  0
  -28.3501  -24.6601   17.9671 C   0  0  0  0  0  0  0  0  0  0  0  0
  -28.5829  -26.1106   18.3616 C   0  0  0  0  0  0  0  0  0  1  0  0
  -22.5758  -29.6606   23.6015 C   0  0  1  0  0  0  0  0  0  0  0  0
  -19.7035  -29.0486   21.2046 C   0  0  2  0  0  0  0  0  0  0  0  0
  -21.2873  -23.7725   16.7825 C   0  0  0  0  0  0  0  0  0  0  0  0
  -22.3510  -29.6168   25.1393 C   0  0  0  0  0  0  0  0  0  0  0  0
  -24.5061  -12.4132   19.9143 N   0  0  0  0  0  0  0  0  0  0  0  0
  -25.3407  -13.4362   20.1655 N   0  0  0  0  0  0  0  0  0  0  0  0
  -24.6116  -30.5591   22.5189 N   0  0  0  0  0  0  0  0  0  0  0  0
  -23.1603  -17.9776   16.6820 N   0  0  0  0  0  0  0  0  0  0  0  0
  -24.0898  -15.9643   17.5841 N   0  0  0  0  0  0  0  0  0  0  0  0
  -26.9534  -14.2221   21.7121 N   0  0  0  0  0  0  0  0  0  0  0  0
  -25.6744  -10.2606   23.4632 N   0  0  0  0  0  0  0  0  0  0  0  0
  -26.7094  -22.9272   17.5853 N   0  0  0  0  0  0  0  0  0  0  0  0
  -27.0049  -32.9117   23.7304 N   0  0  0  0  0  0  0  0  0  0  0  0
  -21.3458  -29.7209   22.8193 N   0  0  0  0  0  0  0  0  0  0  0  0
  -19.7341  -28.6013   19.7834 N   0  3  0  0  0  0  0  0  0  0  0  0
  -27.0362  -12.0797   23.7713 O   0  0  0  0  0  0  0  0  0  0  0  0
  -26.8562  -30.5959   23.9233 O   0  0  0  0  0  0  0  0  0  0  0  0
  -22.9972  -31.9869   23.4085 O   0  0  0  0  0  0  0  0  0  0  0  0
  -25.9884  -25.0700   18.2374 O   0  0  0  0  0  0  0  0  0  0  0  0
  -21.7281  -27.7892   21.5948 O   0  0  0  0  0  0  0  0  0  0  0  0
  -21.9040  -16.5664   18.0035 O   0  0  0  0  0  0  0  0  0  0  0  0
  -21.9018   -6.7724   21.3102 O   0  0  0  0  0  0  0  0  0  0  0  0
  -28.1016  -26.3240   19.6822 O   0  0  0  0  0  0  0  0  0  1  0  0
  -19.7595   -5.4217   26.2081 F   0  0  0  0  0  0  0  0  0  0  0  0
  -23.5227   -6.4460   23.5258 F   0  0  0  0  0  0  0  0  0  0  0  0
  1  2  1  0  0  0  0
  1  5  2  0  0  0  0
  2  6  2  0  0  0  0
  3  8  2  0  0  0  0
  3 17  1  0  0  0  0
  4  9  1  0  0  0  0
  4 17  2  0  0  0  0
  5 19  1  0  0  0  0
  6 21  1  0  0  0  0
  7 10  2  0  0  0  0
  7 20  1  0  0  0  0
  8 27  1  0  0  0  0
  9 27  2  0  0  0  0
 10 28  1  0  0  0  0
 11 12  2  0  0  0  0
 11 29  1  0  0  0  0
 12 30  1  0  0  0  0
 13 22  2  0  0  0  0
 13 26  1  0  0  0  0
 14 23  1  0  0  0  0
 14 28  2  0  0  0  0
 15 25  1  0  0  0  0
 15 26  2  0  0  0  0
 16 30  2  0  0  0  0
 16 31  1  0  0  0  0
 17 32  1  0  0  0  0
 18 32  1  0  0  0  0
 18 33  2  0  0  0  0
 18 34  1  0  0  0  0
 19 21  2  0  0  0  0
 19 40  1  0  0  0  0
 20 23  2  0  0  0  0
 20 41  1  0  0  0  0
 21 52  1  0  0  0  0
 22 24  1  0  0  0  0
 22 43  1  0  0  0  0
 23 44  1  0  0  0  0
 24 25  2  0  0  0  0
 24 42  1  0  0  0  0
 25 63  1  0  0  0  0
 26 77  1  0  0  0  0
 27 87  1  0  0  0  0
 28 88  1  0  0  0  0
 29 31  2  0  0  0  0
 29 87  1  0  0  0  0
 30 89  1  0  0  0  0
 31 90  1  0  0  0  0
 32 70  2  0  0  0  0
 33 71  1  0  0  0  0
 33 75  1  0  0  0  0
 34 76  1  0  0  0  0
 34 81  2  0  0  0  0
 35 53  1  0  0  0  0
 35 78  1  0  0  0  0
 35 82  2  0  0  0  0
 36 66  1  0  0  0  0
 36 72  1  0  0  0  0
 36 83  2  0  0  0  0
 37 64  1  0  0  0  0
 37 77  1  0  0  0  0
 37 84  2  0  0  0  0
 38 67  1  0  0  0  0
 38 79  1  0  0  0  0
 38 85  2  0  0  0  0
 39 73  1  0  0  0  0
 39 74  1  0  0  0  0
 39 86  2  0  0  0  0
 40 45  1  0  0  0  0
 41 53  1  0  0  0  0
 42 49  1  0  0  0  0
 43 73  1  0  0  0  0
 44 72  1  0  0  0  0
 45 47  1  0  0  0  0
 46 48  1  0  0  0  0
 46 50  1  0  0  0  0
 47 52  1  0  0  0  0
 48 54  1  0  0  0  0
 49 73  1  0  0  0  0
 50 74  1  0  0  0  0
 51 54  1  0  0  0  0
 51 74  1  0  0  0  0
 52 78  1  0  0  0  0
 53 72  1  0  0  0  0
 54 71  1  0  0  0  0
 55 67  1  0  0  0  0
 56 68  1  0  0  0  0
 57 68  1  0  0  0  0
 58 68  1  0  0  0  0
 59 69  1  0  0  0  0
 60 69  1  0  0  0  0
 61 69  1  0  0  0  0
 62 80  1  0  0  0  0
 63 68  1  0  0  0  0
 64 65  1  0  0  0  0
 65 88  1  0  0  0  0
 66 69  1  0  0  0  0
 66 79  1  0  0  0  0
 67 80  1  0  0  0  0
 70 71  1  0  0  0  0
M  CHG  1  80   1
M  ISO  4  39 100  65 101  73 100  88 101
M  END
> <Batch ID>
0146

> <Smiles>
CNC(C)C(=O)NC(C(=O)N1Cc2cc([101O:1][101CH2:1]CC(=O)Nc3cc4c(c(CC(C)(C)C)c3)CC[100N:0]([100C:0](=O)N3CCCC(n5nc(-c6ccc(Oc7ccc(F)cc7F)cc6)c(C(N)=O)c5N)C3)C4)ccc2CC1C(=O)NC1CCCc2ccccc21)C(C)(C)C

> <Shape>
0.220

> <Color>
0.110

> <Negative vol penalty>
0.000

$$$$

  -OEChem-04052303103D

 83 92  0     1  0  0  0  0  0999 V2000
  -23.0536  -23.3256   17.6396 C   0  0  0  0  0  0  0  0  0  0  0  0
  -24.1846  -22.6643   18.1072 C   0  0  0  0  0  0  0  0  0  0  0  0
  -24.9557  -30.3059   23.1538 C   0  0  0  0  0  0  0  0  0  0  0  0
  -24.4890  -31.6426   21.1961 C   0  0  0  0  0  0  0  0  0  0  0  0
  -21.7871  -22.9196   18.0580 C   0  0  0  0  0  0  0  0  0  0  0  0
  -24.0499  -21.5970   18.9946 C   0  0  0  0  0  0  0  0  0  0  0  0
  -34.6562  -23.3473   21.0551 C   0  0  0  0  0  0  0  0  0  0  0  0
  -26.9938  -17.6644   17.7647 C   0  0  0  0  0  0  0  0  0  0  0  0
  -34.3513  -21.9886   21.2208 C   0  0  0  0  0  0  0  0  0  0  0  0
  -24.4763  -31.3316   23.9685 C   0  0  0  0  0  0  0  0  0  0  0  0
  -24.0096  -32.6683   22.0108 C   0  0  0  0  0  0  0  0  0  0  0  0
  -28.3464  -17.7551   18.0906 C   0  0  0  0  0  0  0  0  0  0  0  0
  -22.9970  -35.7810   23.5906 C   0  0  0  0  0  0  0  0  0  0  0  0
  -23.4065  -37.0829   23.3025 C   0  0  0  0  0  0  0  0  0  0  0  0
  -27.9629  -16.3845   20.0383 C   0  0  0  0  0  0  0  0  0  0  0  0
  -32.0613  -22.3134   20.4161 C   0  0  0  0  0  0  0  0  0  0  0  0
  -25.7085  -36.4348   23.6461 C   0  0  0  0  0  0  0  0  0  0  0  0
  -24.9621  -30.4614   21.7676 C   0  0  0  0  0  0  0  0  0  0  0  0
  -24.7190  -28.3381   20.3747 C   0  0  0  0  0  0  0  0  0  0  0  0
  -21.6363  -21.8407   18.9434 C   0  0  0  0  0  0  0  0  0  0  0  0
  -26.1121  -16.9409   18.5806 C   0  0  0  0  0  0  0  0  0  0  0  0
  -22.7803  -21.1770   19.4263 C   0  0  0  0  0  0  0  0  0  0  0  0
  -33.6563  -24.1472   20.5728 C   0  0  0  0  0  0  0  0  0  0  0  0
  -26.6001  -16.2840   19.7192 C   0  0  0  0  0  0  0  0  0  0  0  0
  -32.4252  -23.6212   20.2667 C   0  0  0  0  0  0  0  0  0  0  0  0
  -33.0674  -21.4785   20.9056 C   0  0  0  0  0  0  0  0  0  0  0  0
  -24.0033  -32.5128   23.3970 C   0  0  0  0  0  0  0  0  0  0  0  0
  -28.8306  -17.1175   19.2290 C   0  0  0  0  0  0  0  0  0  0  0  0
  -23.9433  -34.8060   23.9066 C   0  0  0  0  0  0  0  0  0  0  0  0
  -24.7623  -37.4098   23.3302 C   0  0  0  0  0  0  0  0  0  0  0  0
  -25.2990  -35.1330   23.9343 C   0  0  0  0  0  0  0  0  0  0  0  0
  -25.4576  -29.4024   20.9255 C   0  0  0  0  0  0  0  0  0  0  0  0
  -25.6413  -27.6141   19.6594 C   0  0  0  0  0  0  0  0  0  0  0  0
  -23.3239  -28.0314   20.4984 C   0  0  0  0  0  0  0  0  0  0  0  0
  -23.5369  -17.6667   20.2968 C   0  0  0  0  0  0  0  0  0  0  0  0
  -23.3952  -14.4542   20.7236 C   0  0  0  0  0  0  0  0  0  0  0  0
  -31.6123  -19.4236   20.8436 C   0  0  0  0  0  0  0  0  0  0  0  0
  -25.0379  -11.4633   20.7766 C   0  0  0  0  0  0  0  0  0  0  0  0
  -30.6075  -25.1680   19.6042 C   0  0  0  0  0  0  0  0  0  0  0  0
  -20.2493  -21.4684   19.4043 C   0  0  0  0  0  0  0  0  0  0  0  0
  -24.6609  -16.8305   18.2007 C   0  0  0  0  0  0  0  0  0  0  0  0
  -33.1967  -25.5170   20.1646 C   0  0  0  0  0  0  0  0  0  0  0  0
  -25.6987  -15.4779   20.6170 C   0  0  0  0  0  0  0  0  0  0  0  0
  -20.1731  -20.0889   20.0537 C   0  0  0  0  0  0  0  0  0  0  0  0
  -30.3695  -28.6707   18.3238 C   0  0  0  0  0  0  0  0  0  0  0  0
  -21.3064  -19.9086   21.0586 C   0  0  0  0  0  0  0  0  0  0  0  0
  -29.0435  -29.1031   18.9353 C   0  0  0  0  0  0  0  0  0  0  0  0
  -31.1030  -27.6410   19.1832 C   0  0  0  0  0  0  0  0  0  0  0  0
  -28.9338  -26.8967   20.1393 C   0  0  0  0  0  0  0  0  0  0  0  0
  -22.6737  -19.9991   20.3704 C   0  0  1  0  0  0  0  0  0  0  0  0
  -23.7577  -16.4943   19.3833 C   0  0  1  0  0  0  0  0  0  0  0  0
  -28.1748  -27.8745   19.2325 C   0  0  1  0  0  0  0  0  0  0  0  0
  -24.6633   -9.0172   21.1936 C   0  0  0  0  0  0  0  0  0  0  0  0
  -23.3000  -14.9833   23.7270 C   0  0  0  0  0  0  0  0  0  0  0  0
  -23.8820  -12.5768   24.0989 C   0  0  0  0  0  0  0  0  0  0  0  0
  -21.7589  -13.1794   22.9362 C   0  0  0  0  0  0  0  0  0  0  0  0
  -25.8645  -10.7492   18.0260 C   0  0  0  0  0  0  0  0  0  0  0  0
  -31.7577  -17.9453   21.1863 C   0  0  0  0  0  0  0  0  0  0  0  0
  -30.4885  -17.1457   20.9338 C   0  0  0  0  0  0  0  0  0  1  0  0
  -23.9610  -13.4837   21.7320 C   0  0  1  0  0  0  0  0  0  0  0  0
  -24.7074  -10.1213   20.1487 C   0  0  2  0  0  0  0  0  0  0  0  0
  -23.2424  -13.5725   23.1079 C   0  0  0  0  0  0  0  0  0  0  0  0
  -26.7496  -29.3618   20.5892 N   0  0  0  0  0  0  0  0  0  0  0  0
  -26.8300  -28.2632   19.8194 N   0  0  0  0  0  0  0  0  0  0  0  0
  -31.9122  -24.8432   19.8844 N   0  0  0  0  0  0  0  0  0  0  0  0
  -24.2866  -15.4051   20.2068 N   0  0  0  0  0  0  0  0  0  0  0  0
  -30.2448  -26.5229   19.5894 N   0  0  0  0  0  0  0  0  0  0  0  0
  -25.5432  -26.4918   18.9156 N   0  0  0  0  0  0  0  0  0  0  0  0
  -22.5191  -28.8801   21.2707 N   0  0  0  0  0  0  0  0  0  0  0  0
  -32.8059  -20.1199   21.0922 N   0  0  0  0  0  0  0  0  0  0  0  0
  -22.9728  -18.7649   19.6762 N   0  0  0  0  0  0  0  0  0  0  0  0
  -23.8990  -12.1657   21.1094 N   0  0  0  0  0  0  0  0  0  0  0  0
  -25.7312   -9.7612   19.1273 N   0  3  0  0  0  0  0  0  0  0  0  0
  -22.8094  -27.0251   19.9541 O   0  0  0  0  0  0  0  0  0  0  0  0
  -23.8535  -17.5807   21.4775 O   0  0  0  0  0  0  0  0  0  0  0  0
  -22.2078  -14.3671   20.4007 O   0  0  0  0  0  0  0  0  0  0  0  0
  -30.5655  -19.8933   20.4103 O   0  0  0  0  0  0  0  0  0  0  0  0
  -26.1910  -11.8482   20.9574 O   0  0  0  0  0  0  0  0  0  0  0  0
  -29.7650  -24.2783   19.4185 O   0  0  0  0  0  0  0  0  0  0  0  0
  -23.5352  -33.5138   24.1916 O   0  0  0  0  0  0  0  0  0  0  0  0
  -30.1595  -17.2056   19.5520 O   0  0  0  0  0  0  0  0  0  1  0  0
  -25.1555  -38.6597   23.0520 F   0  0  0  0  0  0  0  0  0  0  0  0
  -26.2128  -34.2003   24.2360 F   0  0  0  0  0  0  0  0  0  0  0  0
  1  2  1  0  0  0  0
  1  5  2  0  0  0  0
  2  6  2  0  0  0  0
  3 10  2  0  0  0  0
  3 18  1  0  0  0  0
  4 11  1  0  0  0  0
  4 18  2  0  0  0  0
  5 20  1  0  0  0  0
  6 22  1  0  0  0  0
  7  9  2  0  0  0  0
  7 23  1  0  0  0  0
  8 12  2  0  0  0  0
  8 21  1  0  0  0  0
  9 26  1  0  0  0  0
 10 27  1  0  0  0  0
 11 27  2  0  0  0  0
 12 28  1  0  0  0  0
 13 14  2  0  0  0  0
 13 29  1  0  0  0  0
 14 30  1  0  0  0  0
 15 24  1  0  0  0  0
 15 28  2  0  0  0  0
 16 25  1  0  0  0  0
 16 26  2  0  0  0  0
 17 30  2  0  0  0  0
 17 31  1  0  0  0  0
 18 32  1  0  0  0  0
 19 32  1  0  0  0  0
 19 33  2  0  0  0  0
 19 34  1  0  0  0  0
 20 22  2  0  0  0  0
 20 40  1  0  0  0  0
 21 24  2  0  0  0  0
 21 41  1  0  0  0  0
 22 50  1  0  0  0  0
 23 25  2  0  0  0  0
 23 42  1  0  0  0  0
 24 43  1  0  0  0  0
 25 65  1  0  0  0  0
 26 70  1  0  0  0  0
 27 80  1  0  0  0  0
 28 81  1  0  0  0  0
 29 31  2  0  0  0  0
 29 80  1  0  0  0  0
 30 82  1  0  0  0  0
 31 83  1  0  0  0  0
 32 63  2  0  0  0  0
 33 64  1  0  0  0  0
 33 68  1  0  0  0  0
 34 69  1  0  0  0  0
 34 74  2  0  0  0  0
 35 51  1  0  0  0  0
 35 71  1  0  0  0  0
 35 75  2  0  0  0  0
 36 60  1  0  0  0  0
 36 66  1  0  0  0  0
 36 76  2  0  0  0  0
 37 58  1  0  0  0  0
 37 70  1  0  0  0  0
 37 77  2  0  0  0  0
 38 61  1  0  0  0  0
 38 72  1  0  0  0  0
 38 78  2  0  0  0  0
 39 65  1  0  0  0  0
 39 67  1  0  0  0  0
 39 79  2  0  0  0  0
 40 44  1  0  0  0  0
 41 51  1  0  0  0  0
 42 65  1  0  0  0  0
 43 66  1  0  0  0  0
 44 46  1  0  0  0  0
 45 47  1  0  0  0  0
 45 48  1  0  0  0  0
 46 50  1  0  0  0  0
 47 52  1  0  0  0  0
 48 67  1  0  0  0  0
 49 52  1  0  0  0  0
 49 67  1  0  0  0  0
 50 71  1  0  0  0  0
 51 66  1  0  0  0  0
 52 64  1  0  0  0  0
 53 61  1  0  0  0  0
 54 62  1  0  0  0  0
 55 62  1  0  0  0  0
 56 62  1  0  0  0  0
 57 73  1  0  0  0  0
 58 59  1  0  0  0  0
 59 81  1  0  0  0  0
 60 62  1  0  0  0  0
 60 72  1  0  0  0  0
 61 73  1  0  0  0  0
 63 64  1  0  0  0  0
M  CHG  1  73   1
M  ISO  4  39 100  59 101  65 100  81 101
M  END
> <Batch ID>
0146

> <Smiles>
CNC(C)C(=O)NC(C(=O)N1Cc2cc([101O:1][101CH2:1]CC(=O)Nc3ccc4c(c3)[100N:0]([100C:0](=O)N3CCCC(n5nc(-c6ccc(Oc7ccc(F)cc7F)cc6)c(C(N)=O)c5N)C3)C4)ccc2CC1C(=O)NC1CCCc2ccccc21)C(C)(C)C

> <Shape>
0.236

> <Color>
0.071

> <Negative vol penalty>
0.000

$$$$

  -OEChem-04052303103D

 86 94  0     1  0  0  0  0  0999 V2000
  -28.5798  -24.7471   16.4250 C   0  0  0  0  0  0  0  0  0  0  0  0
  -27.3985  -24.8248   17.1557 C   0  0  0  0  0  0  0  0  0  0  0  0
  -27.2274  -15.5691   20.4557 C   0  0  0  0  0  0  0  0  0  0  0  0
  -25.0804  -15.4905   19.3506 C   0  0  0  0  0  0  0  0  0  0  0  0
  -29.7410  -25.3444   16.9136 C   0  0  0  0  0  0  0  0  0  0  0  0
  -27.3780  -25.4991   18.3761 C   0  0  0  0  0  0  0  0  0  0  0  0
  -23.3420  -28.5194   18.8593 C   0  0  0  0  0  0  0  0  0  0  0  0
  -27.1279  -14.2085   20.7460 C   0  0  0  0  0  0  0  0  0  0  0  0
  -24.9808  -14.1298   19.6409 C   0  0  0  0  0  0  0  0  0  0  0  0
  -22.1284  -27.9137   19.1818 C   0  0  0  0  0  0  0  0  0  0  0  0
  -24.1851  -12.2018   22.3018 C   0  0  0  0  0  0  0  0  0  0  0  0
  -22.9676  -11.7316   22.7940 C   0  0  0  0  0  0  0  0  0  0  0  0
  -22.4255  -28.5596   21.4869 C   0  0  0  0  0  0  0  0  0  0  0  0
  -19.9146  -23.0368   21.8314 C   0  0  0  0  0  0  0  0  0  0  0  0
  -17.7685  -22.4641   20.8813 C   0  0  0  0  0  0  0  0  0  0  0  0
  -19.7996  -21.6566   19.8518 C   0  0  0  0  0  0  0  0  0  0  0  0
  -22.7760  -10.2448   20.8992 C   0  0  0  0  0  0  0  0  0  0  0  0
  -26.2037  -16.2102   19.7580 C   0  0  0  0  0  0  0  0  0  0  0  0
  -26.8743  -18.2014   18.3114 C   0  0  0  0  0  0  0  0  0  0  0  0
  -29.7324  -26.0346   18.1360 C   0  0  0  0  0  0  0  0  0  0  0  0
  -24.1130  -29.1414   19.8518 C   0  0  0  0  0  0  0  0  0  0  0  0
  -28.5405  -26.1051   18.8822 C   0  0  0  0  0  0  0  0  0  0  0  0
  -23.6473  -29.1748   21.1740 C   0  0  0  0  0  0  0  0  0  0  0  0
  -18.5222  -23.1151   21.8578 C   0  0  0  0  0  0  0  0  0  0  0  0
  -20.5533  -22.3076   20.8284 C   0  0  0  0  0  0  0  0  0  0  0  0
  -26.0046  -13.4888   20.3386 C   0  0  0  0  0  0  0  0  0  0  0  0
  -21.6713  -27.9312   20.4963 C   0  0  0  0  0  0  0  0  0  0  0  0
  -24.6980  -11.6936   21.1083 C   0  0  0  0  0  0  0  0  0  0  0  0
  -22.2631  -10.7530   22.0927 C   0  0  0  0  0  0  0  0  0  0  0  0
  -18.4071  -21.7348   19.8782 C   0  0  0  0  0  0  0  0  0  0  0  0
  -23.9935  -10.7151   20.4071 C   0  0  0  0  0  0  0  0  0  0  0  0
  -26.3057  -17.6158   19.4584 C   0  0  0  0  0  0  0  0  0  0  0  0
  -26.7241  -19.5528   18.5054 C   0  0  0  0  0  0  0  0  0  0  0  0
  -27.4838  -17.5794   17.1724 C   0  0  0  0  0  0  0  0  0  0  0  0
  -27.0188  -28.6780   21.0541 C   0  0  0  0  0  0  0  0  0  0  0  0
  -26.3639  -31.4160   22.6656 C   0  0  0  0  0  0  0  0  0  0  0  0
  -24.0126  -33.5469   23.9214 C   0  0  0  0  0  0  0  0  0  0  0  0
  -22.8642  -22.8147   21.6940 C   0  0  0  0  0  0  0  0  0  0  0  0
  -31.0236  -26.6237   18.6461 C   0  0  0  0  0  0  0  0  0  0  0  0
  -25.4070  -29.8135   19.4829 C   0  0  0  0  0  0  0  0  0  0  0  0
  -24.4276  -29.8470   22.2729 C   0  0  0  0  0  0  0  0  0  0  0  0
  -30.8281  -27.6403   19.7680 C   0  0  0  0  0  0  0  0  0  0  0  0
  -26.4124  -22.8239   21.9892 C   0  0  0  0  0  0  0  0  0  0  0  0
  -29.8545  -27.1026   20.8119 C   0  0  0  0  0  0  0  0  0  0  0  0
  -26.8399  -21.5458   21.2641 C   0  0  0  0  0  0  0  0  0  0  0  0
  -25.1041  -22.6315   22.7542 C   0  0  0  0  0  0  0  0  0  0  0  0
  -24.4196  -20.8189   21.2326 C   0  0  0  0  0  0  0  0  0  0  0  0
  -28.4723  -26.8489   20.1983 C   0  0  1  0  0  0  0  0  0  0  0  0
  -26.3575  -29.9702   20.6659 C   0  0  1  0  0  0  0  0  0  0  0  0
  -25.6985  -20.9824   20.3950 C   0  0  2  0  0  0  0  0  0  0  0  0
  -23.7817  -35.6804   25.2224 C   0  0  0  0  0  0  0  0  0  0  0  0
  -27.0530  -29.9211   25.2347 C   0  0  0  0  0  0  0  0  0  0  0  0
  -25.9153  -31.7447   26.5186 C   0  0  0  0  0  0  0  0  0  0  0  0
  -27.9193  -32.2646   25.1271 C   0  0  0  0  0  0  0  0  0  0  0  0
  -17.5050  -28.3180   22.9622 C   0  0  0  0  0  0  0  0  0  0  0  0
  -17.7154  -28.3653   20.4771 C   0  0  0  0  0  0  0  0  0  0  0  0
  -22.6167  -34.8947   21.6866 C   0  0  0  0  0  0  0  0  0  0  0  0
  -18.2512  -25.3865   23.0206 C   0  0  0  0  0  0  0  0  0  0  0  0
  -17.8912  -26.1641   21.7433 C   0  0  0  0  0  0  0  0  0  0  0  0
  -19.7554  -27.8973   21.9048 C   0  0  0  0  0  0  0  0  0  1  0  0
  -17.8289  -23.9055   22.9460 C   0  0  2  0  0  0  0  0  0  0  0  0
  -25.7208  -31.7492   23.9901 C   0  0  1  0  0  0  0  0  0  0  0  0
  -23.8743  -35.0564   23.8386 C   0  0  2  0  0  0  0  0  0  0  0  0
  -26.6381  -31.4055   25.1975 C   0  0  0  0  0  0  0  0  0  0  0  0
  -18.2318  -27.6820   21.7572 C   0  0  0  0  0  0  0  0  0  0  0  0
  -25.8298  -18.5211   20.3175 N   0  0  0  0  0  0  0  0  0  0  0  0
  -26.0992  -19.6892   19.7101 N   0  0  0  0  0  0  0  0  0  0  0  0
  -25.6897  -30.4847   21.8632 N   0  0  0  0  0  0  0  0  0  0  0  0
  -24.0681  -22.0994   21.8663 N   0  0  0  0  0  0  0  0  0  0  0  0
  -27.0669  -20.6259   17.7615 N   0  0  0  0  0  0  0  0  0  0  0  0
  -27.5557  -16.1803   17.1339 N   0  0  0  0  0  0  0  0  0  0  0  0
  -21.9678  -22.2282   20.8012 N   0  0  0  0  0  0  0  0  0  0  0  0
  -27.7534  -28.0948   20.0394 N   0  0  0  0  0  0  0  0  0  0  0  0
  -25.3342  -33.1540   23.9142 N   0  0  0  0  0  0  0  0  0  0  0  0
  -18.0565  -23.3006   24.2994 N   0  3  0  0  0  0  0  0  0  0  0  0
  -22.6484  -35.4232   23.0747 N   0  3  0  0  0  0  0  0  0  0  0  0
  -27.9656  -18.2452   16.2247 O   0  0  0  0  0  0  0  0  0  0  0  0
  -26.8745  -28.2431   22.1907 O   0  0  0  0  0  0  0  0  0  0  0  0
  -27.4217  -31.9673   22.3513 O   0  0  0  0  0  0  0  0  0  0  0  0
  -23.0450  -32.7922   23.9897 O   0  0  0  0  0  0  0  0  0  0  0  0
  -22.6559  -23.8837   22.2733 O   0  0  0  0  0  0  0  0  0  0  0  0
  -25.9072  -12.1610   20.6215 O   0  0  0  0  0  0  0  0  0  0  0  0
  -20.4874  -27.3402   20.8139 O   0  0  0  0  0  0  0  0  0  1  0  0
  -21.0947  -10.3004   22.5662 F   0  0  0  0  0  0  0  0  0  0  0  0
  -17.6832  -21.1097   18.9405 F   0  0  0  0  0  0  0  0  0  0  0  0
  -24.4818  -10.2223   19.2606 F   0  0  0  0  0  0  0  0  0  0  0  0
  1  2  1  0  0  0  0
  1  5  2  0  0  0  0
  2  6  2  0  0  0  0
  3  8  2  0  0  0  0
  3 18  1  0  0  0  0
  4  9  1  0  0  0  0
  4 18  2  0  0  0  0
  5 20  1  0  0  0  0
  6 22  1  0  0  0  0
  7 10  2  0  0  0  0
  7 21  1  0  0  0  0
  8 26  1  0  0  0  0
  9 26  2  0  0  0  0
 10 27  1  0  0  0  0
 11 12  2  0  0  0  0
 11 28  1  0  0  0  0
 12 29  1  0  0  0  0
 13 23  1  0  0  0  0
 13 27  2  0  0  0  0
 14 24  2  0  0  0  0
 14 25  1  0  0  0  0
 15 24  1  0  0  0  0
 15 30  2  0  0  0  0
 16 25  2  0  0  0  0
 16 30  1  0  0  0  0
 17 29  2  0  0  0  0
 17 31  1  0  0  0  0
 18 32  1  0  0  0  0
 19 32  1  0  0  0  0
 19 33  2  0  0  0  0
 19 34  1  0  0  0  0
 20 22  2  0  0  0  0
 20 39  1  0  0  0  0
 21 23  2  0  0  0  0
 21 40  1  0  0  0  0
 22 48  1  0  0  0  0
 23 41  1  0  0  0  0
 24 61  1  0  0  0  0
 25 72  1  0  0  0  0
 26 82  1  0  0  0  0
 27 83  1  0  0  0  0
 28 31  2  0  0  0  0
 28 82  1  0  0  0  0
 29 84  1  0  0  0  0
 30 85  1  0  0  0  0
 31 86  1  0  0  0  0
 32 66  2  0  0  0  0
 33 67  1  0  0  0  0
 33 70  1  0  0  0  0
 34 71  1  0  0  0  0
 34 77  2  0  0  0  0
 35 49  1  0  0  0  0
 35 73  1  0  0  0  0
 35 78  2  0  0  0  0
 36 62  1  0  0  0  0
 36 68  1  0  0  0  0
 36 79  2  0  0  0  0
 37 63  1  0  0  0  0
 37 74  1  0  0  0  0
 37 80  2  0  0  0  0
 38 69  1  0  0  0  0
 38 72  1  0  0  0  0
 38 81  2  0  0  0  0
 39 42  1  0  0  0  0
 40 49  1  0  0  0  0
 41 68  1  0  0  0  0
 42 44  1  0  0  0  0
 43 45  1  0  0  0  0
 43 46  1  0  0  0  0
 44 48  1  0  0  0  0
 45 50  1  0  0  0  0
 46 69  1  0  0  0  0
 47 50  1  0  0  0  0
 47 69  1  0  0  0  0
 48 73  1  0  0  0  0
 49 68  1  0  0  0  0
 50 67  1  0  0  0  0
 51 63  1  0  0  0  0
 52 64  1  0  0  0  0
 53 64  1  0  0  0  0
 54 64  1  0  0  0  0
 55 65  1  0  0  0  0
 56 65  1  0  0  0  0
 57 76  1  0  0  0  0
 58 59  1  0  0  0  0
 58 61  1  0  0  0  0
 59 65  1  0  0  0  0
 60 65  1  0  0  0  0
 60 83  1  0  0  0  0
 61 75  1  0  0  0  0
 62 64  1  0  0  0  0
 62 74  1  0  0  0  0
 63 76  1  0  0  0  0
 66 67  1  0  0  0  0
M  CHG  2  75   1  76   1
M  ISO  4  38 100  60 101  72 100  83 101
M  END
> <Batch ID>
0146

> <Smiles>
CNC(C)C(=O)NC(C(=O)N1Cc2cc([101O:1][101CH2:1]C(C)(C)CCC(N)c3cc(F)cc([100NH:0][100C:0](=O)N4CCCC(n5nc(-c6ccc(Oc7ccc(F)cc7F)cc6)c(C(N)=O)c5N)C4)c3)ccc2CC1C(=O)NC1CCCc2ccccc21)C(C)(C)C

> <Shape>
0.267

> <Color>
0.066

> <Negative vol penalty>
0.000

$$$$

  -OEChem-04052303103D

 84 92  0     1  0  0  0  0  0999 V2000
  -31.5679  -28.2424   11.2689 C   0  0  0  0  0  0  0  0  0  0  0  0
  -31.5189  -27.6245   12.5144 C   0  0  0  0  0  0  0  0  0  0  0  0
  -23.2877   -9.7309   19.9880 C   0  0  0  0  0  0  0  0  0  0  0  0
  -23.8571   -9.9362   22.3270 C   0  0  0  0  0  0  0  0  0  0  0  0
  -30.6653  -29.2593   10.9606 C   0  0  0  0  0  0  0  0  0  0  0  0
  -30.5680  -28.0241   13.4528 C   0  0  0  0  0  0  0  0  0  0  0  0
  -28.3051  -24.1002   15.7172 C   0  0  0  0  0  0  0  0  0  0  0  0
  -22.6142   -8.5393   20.2566 C   0  0  0  0  0  0  0  0  0  0  0  0
  -23.1836   -8.7447   22.5955 C   0  0  0  0  0  0  0  0  0  0  0  0
  -29.0160  -23.4502   16.7252 C   0  0  0  0  0  0  0  0  0  0  0  0
  -19.9858   -7.7301   23.0027 C   0  0  0  0  0  0  0  0  0  0  0  0
  -19.1418   -7.7006   24.1128 C   0  0  0  0  0  0  0  0  0  0  0  0
  -29.5669  -18.0515   23.0473 C   0  0  0  0  0  0  0  0  0  0  0  0
  -30.0047  -19.3294   22.5942 C   0  0  0  0  0  0  0  0  0  0  0  0
  -27.7549  -24.6611   18.3872 C   0  0  0  0  0  0  0  0  0  0  0  0
  -20.4608   -5.9159   25.0680 C   0  0  0  0  0  0  0  0  0  0  0  0
  -23.9092  -10.4293   21.0232 C   0  0  0  0  0  0  0  0  0  0  0  0
  -24.0703  -12.9619   20.7626 C   0  0  0  0  0  0  0  0  0  0  0  0
  -29.6966  -29.6649   11.8921 C   0  0  0  0  0  0  0  0  0  0  0  0
  -27.3197  -25.0452   16.0371 C   0  0  0  0  0  0  0  0  0  0  0  0
  -29.6524  -29.0483   13.1571 C   0  0  0  0  0  0  0  0  0  0  0  0
  -27.0312  -25.3199   17.3815 C   0  0  0  0  0  0  0  0  0  0  0  0
  -22.5621   -8.0462   21.5603 C   0  0  0  0  0  0  0  0  0  0  0  0
  -28.7429  -23.7327   18.0603 C   0  0  0  0  0  0  0  0  0  0  0  0
  -21.0673   -6.8525   22.9252 C   0  0  0  0  0  0  0  0  0  0  0  0
  -19.3793   -6.7935   25.1455 C   0  0  0  0  0  0  0  0  0  0  0  0
  -21.3048   -5.9454   23.9579 C   0  0  0  0  0  0  0  0  0  0  0  0
  -24.6056  -11.6600   20.7464 C   0  0  0  0  0  0  0  0  0  0  0  0
  -29.7413  -17.0756   22.0908 C   0  0  0  0  0  0  0  0  0  0  0  0
  -25.1292  -13.7727   20.4345 C   0  0  0  0  0  0  0  0  0  0  0  0
  -30.4973  -19.2816   21.3085 C   0  0  0  0  0  0  0  0  0  0  0  0
  -22.7351  -13.3992   21.0487 C   0  0  0  0  0  0  0  0  0  0  0  0
  -26.9249  -28.1500   15.4823 C   0  0  0  0  0  0  0  0  0  0  0  0
  -24.0288  -27.6282   16.8470 C   0  0  0  0  0  0  0  0  0  0  0  0
  -22.1068  -25.7231   18.9263 C   0  0  0  0  0  0  0  0  0  0  0  0
  -30.9550  -13.7438   21.5037 C   0  0  0  0  0  0  0  0  0  0  0  0
  -28.7728  -30.8010   11.5306 C   0  0  0  0  0  0  0  0  0  0  0  0
  -26.5432  -25.7180   14.9386 C   0  0  0  0  0  0  0  0  0  0  0  0
  -25.9688  -26.3112   17.7781 C   0  0  0  0  0  0  0  0  0  0  0  0
  -27.5539  -30.9088   12.4433 C   0  0  0  0  0  0  0  0  0  0  0  0
  -29.4671  -13.1213   18.1720 C   0  0  0  0  0  0  0  0  0  0  0  0
  -27.9708  -30.7966   13.9063 C   0  0  0  0  0  0  0  0  0  0  0  0
  -28.0303  -12.7324   18.5162 C   0  0  0  0  0  0  0  0  0  0  0  0
  -30.4353  -12.7682   19.2970 C   0  0  0  0  0  0  0  0  0  0  0  0
  -28.6174  -12.9455   20.9638 C   0  0  0  0  0  0  0  0  0  0  0  0
  -28.6194  -29.4368   14.1924 C   0  0  1  0  0  0  0  0  0  0  0  0
  -25.9180  -27.0403   15.3723 C   0  0  1  0  0  0  0  0  0  0  0  0
  -27.6097  -13.3301   19.8702 C   0  0  2  0  0  0  0  0  0  0  0  0
  -19.7880  -25.5668   19.8729 C   0  0  0  0  0  0  0  0  0  0  0  0
  -24.6609  -29.9144   18.7663 C   0  0  0  0  0  0  0  0  0  0  0  0
  -22.8043  -29.1012   20.2360 C   0  0  0  0  0  0  0  0  0  0  0  0
  -22.3078  -29.8833   17.9199 C   0  0  0  0  0  0  0  0  0  0  0  0
  -31.6609  -24.0885   20.6598 C   0  0  0  0  0  0  0  0  0  0  0  0
  -33.0828  -22.2991   19.6474 C   0  0  0  0  0  0  0  0  0  0  0  0
  -31.5678  -15.2871   23.3265 C   0  0  0  0  0  0  0  0  0  0  0  0
  -21.6558  -23.0720   17.6904 C   0  0  0  0  0  0  0  0  0  0  0  0
  -29.4144  -15.6357   22.1746 C   0  0  0  0  0  0  0  0  0  0  0  0
  -31.0782  -21.6978   21.0847 C   0  0  0  0  0  0  0  0  0  0  0  0
  -30.7751  -22.7071   18.7492 C   0  0  0  0  0  0  0  0  0  1  0  0
  -23.4871  -27.6723   18.2554 C   0  0  1  0  0  0  0  0  0  0  0  0
  -20.7204  -25.1293   18.7540 C   0  0  2  0  0  0  0  0  0  0  0  0
  -23.3365  -29.1255   18.7872 C   0  0  0  0  0  0  0  0  0  0  0  0
  -31.6405  -22.6806   20.0290 C   0  0  0  0  0  0  0  0  0  0  0  0
  -25.9038  -11.6402   20.4326 N   0  0  0  0  0  0  0  0  0  0  0  0
  -26.1930  -12.9396   20.2486 N   0  0  0  0  0  0  0  0  0  0  0  0
  -25.2414  -26.9476   16.6676 N   0  0  0  0  0  0  0  0  0  0  0  0
  -29.9889  -13.3120   20.5801 N   0  0  0  0  0  0  0  0  0  0  0  0
  -25.2449  -15.1099   20.2897 N   0  0  0  0  0  0  0  0  0  0  0  0
  -21.7699  -12.4343   21.3677 N   0  0  0  0  0  0  0  0  0  0  0  0
  -30.9997  -20.3463   20.5791 N   0  0  0  0  0  0  0  0  0  0  0  0
  -27.6075  -28.4088   14.3090 N   0  0  0  0  0  0  0  0  0  0  0  0
  -22.2431  -26.9103   18.2383 N   0  0  0  0  0  0  0  0  0  0  0  0
  -30.5963  -14.7965   22.3593 N   0  0  0  0  0  0  0  0  0  0  0  0
  -20.7906  -23.6407   18.7557 N   0  3  0  0  0  0  0  0  0  0  0  0
  -22.4038  -14.6083   21.0064 O   0  0  0  0  0  0  0  0  0  0  0  0
  -27.0707  -28.7297   16.5521 O   0  0  0  0  0  0  0  0  0  0  0  0
  -23.3956  -28.1714   15.9383 O   0  0  0  0  0  0  0  0  0  0  0  0
  -22.9803  -25.1892   19.6064 O   0  0  0  0  0  0  0  0  0  0  0  0
  -32.0775  -13.2248   21.5540 O   0  0  0  0  0  0  0  0  0  0  0  0
  -21.9048   -6.8836   21.8228 O   0  0  0  0  0  0  0  0  0  0  0  0
  -29.4358  -23.1002   19.0461 O   0  0  0  0  0  0  0  0  0  1  0  0
  -18.5696   -6.7662   26.2122 F   0  0  0  0  0  0  0  0  0  0  0  0
  -22.3428   -5.1007   23.8896 F   0  0  0  0  0  0  0  0  0  0  0  0
  -30.4304  -17.7009   20.6533 S   0  0  0  0  0  0  0  0  0  0  0  0
  1  2  1  0  0  0  0
  1  5  2  0  0  0  0
  2  6  2  0  0  0  0
  3  8  2  0  0  0  0
  3 17  1  0  0  0  0
  4  9  1  0  0  0  0
  4 17  2  0  0  0  0
  5 19  1  0  0  0  0
  6 21  1  0  0  0  0
  7 10  2  0  0  0  0
  7 20  1  0  0  0  0
  8 23  1  0  0  0  0
  9 23  2  0  0  0  0
 10 24  1  0  0  0  0
 11 12  2  0  0  0  0
 11 25  1  0  0  0  0
 12 26  1  0  0  0  0
 13 14  1  0  0  0  0
 13 29  2  0  0  0  0
 14 31  2  0  0  0  0
 15 22  1  0  0  0  0
 15 24  2  0  0  0  0
 16 26  2  0  0  0  0
 16 27  1  0  0  0  0
 17 28  1  0  0  0  0
 18 28  1  0  0  0  0
 18 30  2  0  0  0  0
 18 32  1  0  0  0  0
 19 21  2  0  0  0  0
 19 37  1  0  0  0  0
 20 22  2  0  0  0  0
 20 38  1  0  0  0  0
 21 46  1  0  0  0  0
 22 39  1  0  0  0  0
 23 80  1  0  0  0  0
 24 81  1  0  0  0  0
 25 27  2  0  0  0  0
 25 80  1  0  0  0  0
 26 82  1  0  0  0  0
 27 83  1  0  0  0  0
 28 64  2  0  0  0  0
 29 57  1  0  0  0  0
 29 84  1  0  0  0  0
 30 65  1  0  0  0  0
 30 68  1  0  0  0  0
 31 70  1  0  0  0  0
 31 84  1  0  0  0  0
 32 69  1  0  0  0  0
 32 75  2  0  0  0  0
 33 47  1  0  0  0  0
 33 71  1  0  0  0  0
 33 76  2  0  0  0  0
 34 60  1  0  0  0  0
 34 66  1  0  0  0  0
 34 77  2  0  0  0  0
 35 61  1  0  0  0  0
 35 72  1  0  0  0  0
 35 78  2  0  0  0  0
 36 67  1  0  0  0  0
 36 73  1  0  0  0  0
 36 79  2  0  0  0  0
 37 40  1  0  0  0  0
 38 47  1  0  0  0  0
 39 66  1  0  0  0  0
 40 42  1  0  0  0  0
 41 43  1  0  0  0  0
 41 44  1  0  0  0  0
 42 46  1  0  0  0  0
 43 48  1  0  0  0  0
 44 67  1  0  0  0  0
 45 48  1  0  0  0  0
 45 67  1  0  0  0  0
 46 71  1  0  0  0  0
 47 66  1  0  0  0  0
 48 65  1  0  0  0  0
 49 61  1  0  0  0  0
 50 62  1  0  0  0  0
 51 62  1  0  0  0  0
 52 62  1  0  0  0  0
 53 63  1  0  0  0  0
 54 63  1  0  0  0  0
 55 73  1  0  0  0  0
 56 74  1  0  0  0  0
 57 73  1  0  0  0  0
 58 63  1  0  0  0  0
 58 70  1  0  0  0  0
 59 63  1  0  0  0  0
 59 81  1  0  0  0  0
 60 62  1  0  0  0  0
 60 72  1  0  0  0  0
 61 74  1  0  0  0  0
 64 65  1  0  0  0  0
M  CHG  1  74   1
M  ISO  4  36 100  59 101  73 100  81 101
M  END
> <Batch ID>
0146

> <Smiles>
CNC(C)C(=O)NC(C(=O)N1Cc2cc([101O:1][101CH2:1]C(C)(C)CNc3ccc(C[100N:0](C)[100C:0](=O)N4CCCC(n5nc(-c6ccc(Oc7ccc(F)cc7F)cc6)c(C(N)=O)c5N)C4)s3)ccc2CC1C(=O)NC1CCCc2ccccc21)C(C)(C)C

> <Shape>
0.226

> <Color>
0.191

> <Negative vol penalty>
0.000

$$$$

  -OEChem-04052303103D

 85 94  0     1  0  0  0  0  0999 V2000
  -17.7360  -25.9441   22.8719 C   0  0  0  0  0  0  0  0  0  0  0  0
  -19.0023  -25.6228   22.3937 C   0  0  0  0  0  0  0  0  0  0  0  0
  -31.9697  -20.3501   16.7335 C   0  0  0  0  0  0  0  0  0  0  0  0
  -25.4487  -13.8687   22.3553 C   0  0  0  0  0  0  0  0  0  0  0  0
  -25.8615  -14.3828   20.0310 C   0  0  0  0  0  0  0  0  0  0  0  0
  -17.3136  -27.2728   22.8851 C   0  0  0  0  0  0  0  0  0  0  0  0
  -19.8465  -26.6299   21.9274 C   0  0  0  0  0  0  0  0  0  0  0  0
  -25.9468  -26.8434   22.4241 C   0  0  0  0  0  0  0  0  0  0  0  0
  -32.3665  -21.6594   17.0052 C   0  0  0  0  0  0  0  0  0  0  0  0
  -31.8237  -19.4349   17.7760 C   0  0  0  0  0  0  0  0  0  0  0  0
  -24.0762  -13.8501   22.1075 C   0  0  0  0  0  0  0  0  0  0  0  0
  -24.4890  -14.3641   19.7831 C   0  0  0  0  0  0  0  0  0  0  0  0
  -26.9721  -26.5235   21.5351 C   0  0  0  0  0  0  0  0  0  0  0  0
  -21.8152  -11.7215   20.7695 C   0  0  0  0  0  0  0  0  0  0  0  0
  -21.0728  -10.6727   21.3118 C   0  0  0  0  0  0  0  0  0  0  0  0
  -27.1255  -28.8421   20.8872 C   0  0  0  0  0  0  0  0  0  0  0  0
  -32.4716  -21.1384   19.3620 C   0  0  0  0  0  0  0  0  0  0  0  0
  -19.7387  -12.2590   22.5532 C   0  0  0  0  0  0  0  0  0  0  0  0
  -26.3414  -14.1351   21.3171 C   0  0  0  0  0  0  0  0  0  0  0  0
  -28.6531  -13.0705   21.4912 C   0  0  0  0  0  0  0  0  0  0  0  0
  -18.1567  -28.2977   22.4277 C   0  0  0  0  0  0  0  0  0  0  0  0
  -25.4950  -28.1655   22.5436 C   0  0  0  0  0  0  0  0  0  0  0  0
  -19.4345  -27.9733   21.9333 C   0  0  0  0  0  0  0  0  0  0  0  0
  -26.0961  -29.1766   21.7803 C   0  0  0  0  0  0  0  0  0  0  0  0
  -32.6175  -22.0536   18.3194 C   0  0  0  0  0  0  0  0  0  0  0  0
  -32.0747  -19.8291   19.0903 C   0  0  0  0  0  0  0  0  0  0  0  0
  -23.5963  -14.0978   20.8214 C   0  0  0  0  0  0  0  0  0  0  0  0
  -27.5596  -27.5225   20.7644 C   0  0  0  0  0  0  0  0  0  0  0  0
  -21.5195  -13.0392   21.1190 C   0  0  0  0  0  0  0  0  0  0  0  0
  -20.0345  -10.9414   22.2037 C   0  0  0  0  0  0  0  0  0  0  0  0
  -20.4812  -13.3079   22.0109 C   0  0  0  0  0  0  0  0  0  0  0  0
  -27.7593  -14.1551   21.5726 C   0  0  0  0  0  0  0  0  0  0  0  0
  -29.8732  -13.6053   21.8253 C   0  0  0  0  0  0  0  0  0  0  0  0
  -28.4027  -11.7020   21.1446 C   0  0  0  0  0  0  0  0  0  0  0  0
  -22.7281  -29.6451   22.0351 C   0  0  0  0  0  0  0  0  0  0  0  0
  -24.2944  -32.1804   23.3163 C   0  0  0  0  0  0  0  0  0  0  0  0
  -27.2706  -33.7110   23.9844 C   0  0  0  0  0  0  0  0  0  0  0  0
  -32.1347  -19.1271   21.5089 C   0  0  0  0  0  0  0  0  0  0  0  0
  -17.6382  -29.7140   22.4175 C   0  0  0  0  0  0  0  0  0  0  0  0
  -24.4064  -28.4985   23.5266 C   0  0  0  0  0  0  0  0  0  0  0  0
  -25.6613  -30.6147   21.8861 C   0  0  0  0  0  0  0  0  0  0  0  0
  -18.7351  -30.7630   22.2545 C   0  0  0  0  0  0  0  0  0  0  0  0
  -31.8390  -17.1113   24.4289 C   0  0  0  0  0  0  0  0  0  0  0  0
  -19.6882  -30.3686   21.1307 C   0  0  0  0  0  0  0  0  0  0  0  0
  -30.8452  -16.0222   24.0184 C   0  0  0  0  0  0  0  0  0  0  0  0
  -31.2933  -26.5585   19.1490 C   0  0  0  0  0  0  0  0  0  0  0  0
  -31.4842  -18.4638   23.8137 C   0  0  0  0  0  0  0  0  0  0  0  0
  -30.3116  -17.3661   21.9457 C   0  0  0  0  0  0  0  0  0  0  0  0
  -32.4627  -25.9168   18.4156 C   0  0  0  0  0  0  0  0  0  0  0  0
  -30.6733  -24.2975   18.8019 C   0  0  0  0  0  0  0  0  0  0  0  0
  -20.3885  -29.0404   21.4421 C   0  0  1  0  0  0  0  0  0  0  0  0
  -23.6751  -29.7949   23.1920 C   0  0  1  0  0  0  0  0  0  0  0  0
  -30.6645  -15.9717   22.4886 C   0  0  2  0  0  0  0  0  0  0  0  0
  -30.0744  -25.7035   18.7876 C   0  0  2  0  0  0  0  0  0  0  0  0
  -29.5251  -26.0705   17.3990 C   0  0  0  0  0  0  0  0  0  0  0  0
  -28.2295  -35.7918   25.0082 C   0  0  0  0  0  0  0  0  0  0  0  0
  -23.5076  -33.7636   20.8295 C   0  0  0  0  0  0  0  0  0  0  0  0
  -25.2436  -35.4594   21.4451 C   0  0  0  0  0  0  0  0  0  0  0  0
  -23.3212  -35.0327   22.9763 C   0  0  0  0  0  0  0  0  0  0  0  0
  -28.7280  -32.1650   26.0447 C   0  0  0  0  0  0  0  0  0  0  0  0
  -33.0443  -23.4620   18.6112 C   0  0  0  0  0  0  0  0  0  0  0  0
  -28.9582  -25.8444   19.8242 C   0  0  0  0  0  0  0  0  0  1  0  0
  -25.1484  -33.2978   22.7677 C   0  0  1  0  0  0  0  0  0  0  0  0
  -27.8132  -34.3493   25.2503 C   0  0  2  0  0  0  0  0  0  0  0  0
  -24.3123  -34.3611   22.0010 C   0  0  0  0  0  0  0  0  0  0  0  0
  -28.3604  -15.2929   21.9305 N   0  0  0  0  0  0  0  0  0  0  0  0
  -29.6450  -14.9261   22.0770 N   0  0  0  0  0  0  0  0  0  0  0  0
  -24.5889  -30.8889   22.8568 N   0  0  0  0  0  0  0  0  0  0  0  0
  -31.3331  -18.3397   22.3623 N   0  0  0  0  0  0  0  0  0  0  0  0
  -31.1084  -13.0698   21.9255 N   0  0  0  0  0  0  0  0  0  0  0  0
  -27.0913  -11.3219   20.8284 N   0  0  0  0  0  0  0  0  0  0  0  0
  -31.9258  -18.8994   20.1491 N   0  0  0  0  0  0  0  0  0  0  0  0
  -21.4564  -29.2439   22.3974 N   0  0  0  0  0  0  0  0  0  0  0  0
  -25.8996  -33.8307   23.8992 N   0  0  0  0  0  0  0  0  0  0  0  0
  -32.0400  -24.4804   18.1761 N   0  3  2  0  0  0  0  0  0  0  0  0
  -28.9996  -33.5942   25.7436 N   0  3  0  0  0  0  0  0  0  0  0  0
  -29.3122  -10.8381   21.1320 O   0  0  0  0  0  0  0  0  0  0  0  0
  -23.1215  -29.8778   20.8982 O   0  0  0  0  0  0  0  0  0  0  0  0
  -23.4035  -32.4428   24.1282 O   0  0  0  0  0  0  0  0  0  0  0  0
  -27.9913  -33.1644   23.1523 O   0  0  0  0  0  0  0  0  0  0  0  0
  -32.9661  -19.9237   21.9520 O   0  0  0  0  0  0  0  0  0  0  0  0
  -22.2571  -14.0794   20.5791 O   0  0  0  0  0  0  0  0  0  0  0  0
  -28.5601  -27.2129   19.8954 O   0  0  0  0  0  0  0  0  0  1  0  0
  -19.3205   -9.9341   22.7232 F   0  0  0  0  0  0  0  0  0  0  0  0
  -20.1917  -14.5717   22.3496 F   0  0  0  0  0  0  0  0  0  0  0  0
  1  2  1  0  0  0  0
  1  6  2  0  0  0  0
  2  7  2  0  0  0  0
  3  9  2  0  0  0  0
  3 10  1  0  0  0  0
  4 11  2  0  0  0  0
  4 19  1  0  0  0  0
  5 12  1  0  0  0  0
  5 19  2  0  0  0  0
  6 21  1  0  0  0  0
  7 23  1  0  0  0  0
  8 13  2  0  0  0  0
  8 22  1  0  0  0  0
  9 25  1  0  0  0  0
 10 26  2  0  0  0  0
 11 27  1  0  0  0  0
 12 27  2  0  0  0  0
 13 28  1  0  0  0  0
 14 15  2  0  0  0  0
 14 29  1  0  0  0  0
 15 30  1  0  0  0  0
 16 24  1  0  0  0  0
 16 28  2  0  0  0  0
 17 25  2  0  0  0  0
 17 26  1  0  0  0  0
 18 30  2  0  0  0  0
 18 31  1  0  0  0  0
 19 32  1  0  0  0  0
 20 32  1  0  0  0  0
 20 33  2  0  0  0  0
 20 34  1  0  0  0  0
 21 23  2  0  0  0  0
 21 39  1  0  0  0  0
 22 24  2  0  0  0  0
 22 40  1  0  0  0  0
 23 51  1  0  0  0  0
 24 41  1  0  0  0  0
 25 61  1  0  0  0  0
 26 72  1  0  0  0  0
 27 82  1  0  0  0  0
 28 83  1  0  0  0  0
 29 31  2  0  0  0  0
 29 82  1  0  0  0  0
 30 84  1  0  0  0  0
 31 85  1  0  0  0  0
 32 66  2  0  0  0  0
 33 67  1  0  0  0  0
 33 70  1  0  0  0  0
 34 71  1  0  0  0  0
 34 77  2  0  0  0  0
 35 52  1  0  0  0  0
 35 73  1  0  0  0  0
 35 78  2  0  0  0  0
 36 63  1  0  0  0  0
 36 68  1  0  0  0  0
 36 79  2  0  0  0  0
 37 64  1  0  0  0  0
 37 74  1  0  0  0  0
 37 80  2  0  0  0  0
 38 69  1  0  0  0  0
 38 72  1  0  0  0  0
 38 81  2  0  0  0  0
 39 42  1  0  0  0  0
 40 52  1  0  0  0  0
 41 68  1  0  0  0  0
 42 44  1  0  0  0  0
 43 45  1  0  0  0  0
 43 47  1  0  0  0  0
 44 51  1  0  0  0  0
 45 53  1  0  0  0  0
 46 49  1  0  0  0  0
 46 54  1  0  0  0  0
 47 69  1  0  0  0  0
 48 53  1  0  0  0  0
 48 69  1  0  0  0  0
 49 75  1  0  0  0  0
 50 54  1  0  0  0  0
 50 75  1  0  0  0  0
 51 73  1  0  0  0  0
 52 68  1  0  0  0  0
 53 67  1  0  0  0  0
 54 55  1  0  0  0  0
 54 62  1  0  0  0  0
 56 64  1  0  0  0  0
 57 65  1  0  0  0  0
 58 65  1  0  0  0  0
 59 65  1  0  0  0  0
 60 76  1  0  0  0  0
 61 75  1  0  0  0  0
 62 83  1  0  0  0  0
 63 65  1  0  0  0  0
 63 74  1  0  0  0  0
 64 76  1  0  0  0  0
 66 67  1  0  0  0  0
M  CHG  2  75   1  76   1
M  ISO  4  38 100  62 101  72 100  83 101
M  END
> <Batch ID>
0146

> <Smiles>
CNC(C)C(=O)NC(C(=O)N1Cc2cc([101O:1][101CH2:1]C3(C)CCN(Cc4cccc([100NH:0][100C:0](=O)N5CCCC(n6nc(-c7ccc(Oc8ccc(F)cc8F)cc7)c(C(N)=O)c6N)C5)c4)C3)ccc2CC1C(=O)NC1CCCc2ccccc21)C(C)(C)C

> <Shape>
0.285

> <Color>
0.090

> <Negative vol penalty>
0.000

$$$$

  -OEChem-04052303103D

 86 94  0     1  0  0  0  0  0999 V2000
  -27.0531  -22.9245   27.1351 C   0  0  0  0  0  0  0  0  0  0  0  0
  -26.2643  -23.8670   26.4833 C   0  0  0  0  0  0  0  0  0  0  0  0
  -26.5180  -28.0543   18.8616 C   0  0  0  0  0  0  0  0  0  0  0  0
  -29.2755  -17.5866   18.5669 C   0  0  0  0  0  0  0  0  0  0  0  0
  -27.0074  -18.0486   19.2594 C   0  0  0  0  0  0  0  0  0  0  0  0
  -27.1385  -21.6247   26.6378 C   0  0  0  0  0  0  0  0  0  0  0  0
  -25.5612  -23.5105   25.3330 C   0  0  0  0  0  0  0  0  0  0  0  0
  -20.7955  -25.2228   25.3601 C   0  0  0  0  0  0  0  0  0  0  0  0
  -27.3536  -27.6654   19.9085 C   0  0  0  0  0  0  0  0  0  0  0  0
  -25.2694  -28.6123   19.1362 C   0  0  0  0  0  0  0  0  0  0  0  0
  -28.9558  -16.2368   18.4203 C   0  0  0  0  0  0  0  0  0  0  0  0
  -26.6877  -16.6988   19.1128 C   0  0  0  0  0  0  0  0  0  0  0  0
  -20.6008  -26.5688   25.0533 C   0  0  0  0  0  0  0  0  0  0  0  0
  -28.8291  -12.6087   18.2099 C   0  0  0  0  0  0  0  0  0  0  0  0
  -29.7244  -11.6694   18.7214 C   0  0  0  0  0  0  0  0  0  0  0  0
  -19.9776  -25.9597   22.8039 C   0  0  0  0  0  0  0  0  0  0  0  0
  -25.6920  -28.3923   21.5048 C   0  0  0  0  0  0  0  0  0  0  0  0
  -29.4391  -12.6015   20.9321 C   0  0  0  0  0  0  0  0  0  0  0  0
  -28.3013  -18.4925   18.9865 C   0  0  0  0  0  0  0  0  0  0  0  0
  -28.5372  -20.8943   18.1599 C   0  0  0  0  0  0  0  0  0  0  0  0
  -26.4286  -21.2496   25.4864 C   0  0  0  0  0  0  0  0  0  0  0  0
  -20.5929  -24.2343   24.3864 C   0  0  0  0  0  0  0  0  0  0  0  0
  -25.6383  -22.2049   24.8191 C   0  0  0  0  0  0  0  0  0  0  0  0
  -20.1680  -24.6017   23.1016 C   0  0  0  0  0  0  0  0  0  0  0  0
  -26.9406  -27.8343   21.2301 C   0  0  0  0  0  0  0  0  0  0  0  0
  -24.8564  -28.7812   20.4578 C   0  0  0  0  0  0  0  0  0  0  0  0
  -27.6620  -15.7929   18.6932 C   0  0  0  0  0  0  0  0  0  0  0  0
  -20.1946  -26.9377   23.7742 C   0  0  0  0  0  0  0  0  0  0  0  0
  -28.2388  -13.5445   19.0594 C   0  0  0  0  0  0  0  0  0  0  0  0
  -30.0294  -11.6657   20.0825 C   0  0  0  0  0  0  0  0  0  0  0  0
  -28.5438  -13.5408   20.4205 C   0  0  0  0  0  0  0  0  0  0  0  0
  -28.6311  -19.8869   19.1386 C   0  0  0  0  0  0  0  0  0  0  0  0
  -28.9632  -22.0336   18.7978 C   0  0  0  0  0  0  0  0  0  0  0  0
  -28.1037  -20.8080   16.7959 C   0  0  0  0  0  0  0  0  0  0  0  0
  -22.4354  -22.0574   22.9827 C   0  0  0  0  0  0  0  0  0  0  0  0
  -21.7198  -30.1630   21.9976 C   0  0  0  0  0  0  0  0  0  0  0  0
  -19.6294  -21.0965   21.6691 C   0  0  0  0  0  0  0  0  0  0  0  0
  -16.4393  -21.8876   20.7504 C   0  0  0  0  0  0  0  0  0  0  0  0
  -28.9770  -25.4053   23.2450 C   0  0  0  0  0  0  0  0  0  0  0  0
  -26.5896  -19.8456   24.9595 C   0  0  0  0  0  0  0  0  0  0  0  0
  -20.7814  -22.7848   24.7409 C   0  0  0  0  0  0  0  0  0  0  0  0
  -19.9172  -23.5774   22.0262 C   0  0  0  0  0  0  0  0  0  0  0  0
  -25.5172  -19.4476   23.9486 C   0  0  0  0  0  0  0  0  0  0  0  0
  -31.2274  -22.6465   23.2794 C   0  0  0  0  0  0  0  0  0  0  0  0
  -25.3192  -20.5537   22.9170 C   0  0  0  0  0  0  0  0  0  0  0  0
  -30.7410  -21.7633   22.1290 C   0  0  0  0  0  0  0  0  0  0  0  0
  -30.0640  -23.3145   24.0089 C   0  0  0  0  0  0  0  0  0  0  0  0
  -28.6548  -23.1871   21.9911 C   0  0  0  0  0  0  0  0  0  0  0  0
  -24.8411  -21.8498   23.5827 C   0  0  1  0  0  0  0  0  0  0  0  0
  -21.0428  -21.9013   23.5249 C   0  0  1  0  0  0  0  0  0  0  0  0
  -29.7953  -22.5360   21.1900 C   0  0  2  0  0  0  0  0  0  0  0  0
  -14.4006  -20.9052   19.6659 C   0  0  0  0  0  0  0  0  0  0  0  0
  -19.6262  -31.1071   23.0295 C   0  0  0  0  0  0  0  0  0  0  0  0
  -21.8453  -31.4882   24.1144 C   0  0  0  0  0  0  0  0  0  0  0  0
  -20.9700  -21.3350   18.9386 C   0  0  0  0  0  0  0  0  0  0  0  0
  -18.6952  -21.2806   17.8945 C   0  0  0  0  0  0  0  0  0  0  0  0
  -19.5084  -19.3241   19.2110 C   0  0  0  0  0  0  0  0  0  0  0  0
  -14.7987  -22.3197   23.1754 C   0  0  0  0  0  0  0  0  0  0  0  0
  -27.8340  -27.4178   22.3491 C   0  0  0  0  0  0  0  0  0  0  0  0
  -23.1082  -29.5476   22.0647 C   0  0  0  0  0  0  0  0  0  0  0  0
  -20.8034  -29.2015   24.1749 C   0  0  0  0  0  0  0  0  0  1  0  0
  -18.8582  -21.4474   20.4197 C   0  0  1  0  0  0  0  0  0  0  0  0
  -15.1189  -21.1742   20.9790 C   0  0  2  0  0  0  0  0  0  0  0  0
  -20.9990  -30.4741   23.3306 C   0  0  0  0  0  0  0  0  0  0  0  0
  -19.5145  -20.8664   19.1354 C   0  0  0  0  0  0  0  0  0  0  0  0
  -29.0815  -20.3457   20.3094 N   0  0  0  0  0  0  0  0  0  0  0  0
  -29.2745  -21.6540   20.0703 N   0  0  0  0  0  0  0  0  0  0  0  0
  -20.1213  -22.1736   22.4200 N   0  0  0  0  0  0  0  0  0  0  0  0
  -29.2064  -24.0316   23.0622 N   0  0  0  0  0  0  0  0  0  0  0  0
  -29.0982  -23.3130   18.3889 N   0  0  0  0  0  0  0  0  0  0  0  0
  -27.6993  -19.5607   16.3010 N   0  0  0  0  0  0  0  0  0  0  0  0
  -23.6158  -29.3361   20.7306 N   0  0  0  0  0  0  0  0  0  0  0  0
  -23.4307  -21.7666   23.8960 N   0  0  0  0  0  0  0  0  0  0  0  0
  -17.4885  -20.9990   20.6460 N   0  0  0  0  0  0  0  0  0  0  0  0
  -28.1577  -26.0094   22.2992 N   0  0  0  0  0  0  0  0  0  0  0  0
  -14.2271  -21.9992   21.8421 N   0  3  0  0  0  0  0  0  0  0  0  0
  -28.0912  -21.8043   16.0338 O   0  0  0  0  0  0  0  0  0  0  0  0
  -22.5950  -22.4139   21.8211 O   0  0  0  0  0  0  0  0  0  0  0  0
  -21.1917  -30.4204   20.9126 O   0  0  0  0  0  0  0  0  0  0  0  0
  -19.7833  -19.9106   21.9717 O   0  0  0  0  0  0  0  0  0  0  0  0
  -16.5302  -23.1105   20.6686 O   0  0  0  0  0  0  0  0  0  0  0  0
  -29.4703  -26.0470   24.1787 O   0  0  0  0  0  0  0  0  0  0  0  0
  -27.3496  -14.4759   18.5501 O   0  0  0  0  0  0  0  0  0  0  0  0
  -20.0045  -28.2508   23.4719 O   0  0  0  0  0  0  0  0  0  1  0  0
  -30.8879  -10.7626   20.5739 F   0  0  0  0  0  0  0  0  0  0  0  0
  -27.9790  -14.4366   21.2417 F   0  0  0  0  0  0  0  0  0  0  0  0
  1  2  1  0  0  0  0
  1  6  2  0  0  0  0
  2  7  2  0  0  0  0
  3  9  1  0  0  0  0
  3 10  2  0  0  0  0
  4 11  2  0  0  0  0
  4 19  1  0  0  0  0
  5 12  1  0  0  0  0
  5 19  2  0  0  0  0
  6 21  1  0  0  0  0
  7 23  1  0  0  0  0
  8 13  2  0  0  0  0
  8 22  1  0  0  0  0
  9 25  2  0  0  0  0
 10 26  1  0  0  0  0
 11 27  1  0  0  0  0
 12 27  2  0  0  0  0
 13 28  1  0  0  0  0
 14 15  2  0  0  0  0
 14 29  1  0  0  0  0
 15 30  1  0  0  0  0
 16 24  1  0  0  0  0
 16 28  2  0  0  0  0
 17 25  1  0  0  0  0
 17 26  2  0  0  0  0
 18 30  2  0  0  0  0
 18 31  1  0  0  0  0
 19 32  1  0  0  0  0
 20 32  1  0  0  0  0
 20 33  2  0  0  0  0
 20 34  1  0  0  0  0
 21 23  2  0  0  0  0
 21 40  1  0  0  0  0
 22 24  2  0  0  0  0
 22 41  1  0  0  0  0
 23 49  1  0  0  0  0
 24 42  1  0  0  0  0
 25 59  1  0  0  0  0
 26 72  1  0  0  0  0
 27 83  1  0  0  0  0
 28 84  1  0  0  0  0
 29 31  2  0  0  0  0
 29 83  1  0  0  0  0
 30 85  1  0  0  0  0
 31 86  1  0  0  0  0
 32 66  2  0  0  0  0
 33 67  1  0  0  0  0
 33 70  1  0  0  0  0
 34 71  1  0  0  0  0
 34 77  2  0  0  0  0
 35 50  1  0  0  0  0
 35 73  1  0  0  0  0
 35 78  2  0  0  0  0
 36 60  1  0  0  0  0
 36 64  1  0  0  0  0
 36 79  2  0  0  0  0
 37 62  1  0  0  0  0
 37 68  1  0  0  0  0
 37 80  2  0  0  0  0
 38 63  1  0  0  0  0
 38 74  1  0  0  0  0
 38 81  2  0  0  0  0
 39 69  1  0  0  0  0
 39 75  1  0  0  0  0
 39 82  2  0  0  0  0
 40 43  1  0  0  0  0
 41 50  1  0  0  0  0
 42 68  1  0  0  0  0
 43 45  1  0  0  0  0
 44 46  1  0  0  0  0
 44 47  1  0  0  0  0
 45 49  1  0  0  0  0
 46 51  1  0  0  0  0
 47 69  1  0  0  0  0
 48 51  1  0  0  0  0
 48 69  1  0  0  0  0
 49 73  1  0  0  0  0
 50 68  1  0  0  0  0
 51 67  1  0  0  0  0
 52 63  1  0  0  0  0
 53 64  1  0  0  0  0
 54 64  1  0  0  0  0
 55 65  1  0  0  0  0
 56 65  1  0  0  0  0
 57 65  1  0  0  0  0
 58 76  1  0  0  0  0
 59 75  1  0  0  0  0
 60 72  1  0  0  0  0
 61 64  1  0  0  0  0
 61 84  1  0  0  0  0
 62 65  1  0  0  0  0
 62 74  1  0  0  0  0
 63 76  1  0  0  0  0
 66 67  1  0  0  0  0
M  CHG  1  76   1
M  ISO  4  39 100  61 101  75 100  84 101
M  END
> <Batch ID>
0146

> <Smiles>
CNC(C)C(=O)NC(C(=O)N1Cc2cc([101O:1][101CH2:1]C(C)(C)C(=O)CNc3cccc(C[100NH:0][100C:0](=O)N4CCCC(n5nc(-c6ccc(Oc7ccc(F)cc7F)cc6)c(C(N)=O)c5N)C4)c3)ccc2CC1C(=O)NC1CCCc2ccccc21)C(C)(C)C

> <Shape>
0.178

> <Color>
0.065

> <Negative vol penalty>
0.000

$$$$

  -OEChem-04052303103D

 87 96  0     1  0  0  0  0  0999 V2000
  -30.3434  -25.8859   17.0959 C   0  0  0  0  0  0  0  0  0  0  0  0
  -28.9599  -25.8364   17.2330 C   0  0  0  0  0  0  0  0  0  0  0  0
  -25.6640  -15.5986   17.3588 C   0  0  0  0  0  0  0  0  0  0  0  0
  -23.9730  -15.4372   19.0768 C   0  0  0  0  0  0  0  0  0  0  0  0
  -31.1298  -26.3646   18.1430 C   0  0  0  0  0  0  0  0  0  0  0  0
  -28.3620  -26.2644   18.4177 C   0  0  0  0  0  0  0  0  0  0  0  0
  -22.9571  -29.0838   19.0044 C   0  0  0  0  0  0  0  0  0  0  0  0
  -26.2548  -14.4262   17.8302 C   0  0  0  0  0  0  0  0  0  0  0  0
  -24.5637  -14.2648   19.5482 C   0  0  0  0  0  0  0  0  0  0  0  0
  -21.6872  -28.6168   19.3409 C   0  0  0  0  0  0  0  0  0  0  0  0
  -28.2859  -13.5084   20.3712 C   0  0  0  0  0  0  0  0  0  0  0  0
  -29.6738  -13.4928   20.5083 C   0  0  0  0  0  0  0  0  0  0  0  0
  -22.0658  -29.2585   21.6353 C   0  0  0  0  0  0  0  0  0  0  0  0
  -21.3960  -24.3699   22.4210 C   0  0  0  0  0  0  0  0  0  0  0  0
  -29.8078  -11.6564   18.9441 C   0  0  0  0  0  0  0  0  0  0  0  0
  -24.5231  -16.1041   17.9822 C   0  0  0  0  0  0  0  0  0  0  0  0
  -22.9072  -17.4270   16.5171 C   0  0  0  0  0  0  0  0  0  0  0  0
  -30.5406  -26.8077   19.3376 C   0  0  0  0  0  0  0  0  0  0  0  0
  -23.7965  -29.6325   19.9846 C   0  0  0  0  0  0  0  0  0  0  0  0
  -29.1413  -26.7482   19.4823 C   0  0  0  0  0  0  0  0  0  0  0  0
  -23.3448  -29.7340   21.3082 C   0  0  0  0  0  0  0  0  0  0  0  0
  -20.3640  -24.2562   23.3829 C   0  0  0  0  0  0  0  0  0  0  0  0
  -25.7047  -13.7593   18.9248 C   0  0  0  0  0  0  0  0  0  0  0  0
  -21.2425  -28.7015   20.6570 C   0  0  0  0  0  0  0  0  0  0  0  0
  -27.6588  -12.5980   19.5206 C   0  0  0  0  0  0  0  0  0  0  0  0
  -30.4348  -12.5669   19.7948 C   0  0  0  0  0  0  0  0  0  0  0  0
  -28.4197  -11.6720   18.8070 C   0  0  0  0  0  0  0  0  0  0  0  0
  -23.9127  -17.3154   17.4961 C   0  0  0  0  0  0  0  0  0  0  0  0
  -19.9896  -22.9326   23.3868 C   0  0  0  0  0  0  0  0  0  0  0  0
  -22.6747  -18.7769   16.4162 C   0  0  0  0  0  0  0  0  0  0  0  0
  -21.5789  -23.1076   21.9059 C   0  0  0  0  0  0  0  0  0  0  0  0
  -22.2428  -16.4022   15.7662 C   0  0  0  0  0  0  0  0  0  0  0  0
  -26.6425  -28.8752   21.1806 C   0  0  0  0  0  0  0  0  0  0  0  0
  -18.7761  -26.6514   22.3356 C   0  0  0  0  0  0  0  0  0  0  0  0
  -26.2958  -31.6896   22.7558 C   0  0  0  0  0  0  0  0  0  0  0  0
  -24.1951  -34.0786   23.9914 C   0  0  0  0  0  0  0  0  0  0  0  0
  -23.4180  -23.3414   20.2002 C   0  0  0  0  0  0  0  0  0  0  0  0
  -31.4351  -27.2726   20.4594 C   0  0  0  0  0  0  0  0  0  0  0  0
  -25.1531  -30.1562   19.6005 C   0  0  0  0  0  0  0  0  0  0  0  0
  -24.1995  -30.3332   22.3940 C   0  0  0  0  0  0  0  0  0  0  0  0
  -30.6975  -28.0576   21.5411 C   0  0  0  0  0  0  0  0  0  0  0  0
  -24.8582  -23.0041   16.9615 C   0  0  0  0  0  0  0  0  0  0  0  0
  -29.4099  -27.3415   21.9362 C   0  0  0  0  0  0  0  0  0  0  0  0
  -24.6822  -21.5184   16.6394 C   0  0  0  0  0  0  0  0  0  0  0  0
  -19.8866  -25.2446   25.7595 C   0  0  0  0  0  0  0  0  0  0  0  0
  -25.1686  -23.2310   18.4400 C   0  0  0  0  0  0  0  0  0  0  0  0
  -24.0449  -21.1261   19.0533 C   0  0  0  0  0  0  0  0  0  0  0  0
  -28.4540  -27.2267   20.7427 C   0  0  1  0  0  0  0  0  0  0  0  0
  -26.1219  -30.2256   20.7769 C   0  0  1  0  0  0  0  0  0  0  0  0
  -23.6667  -20.8524   17.5885 C   0  0  2  0  0  0  0  0  0  0  0  0
  -19.7690  -25.4037   24.2527 C   0  0  1  0  0  0  0  0  0  0  0  0
  -20.7546  -26.2674   25.0743 C   0  0  0  0  0  0  0  0  0  0  0  0
  -18.9851  -22.1695   24.1419 C   0  0  0  0  0  0  0  0  0  0  0  0
  -22.2371  -25.9853   24.9932 C   0  0  0  0  0  0  0  0  0  0  0  0
  -20.4469  -27.7276   25.3027 C   0  0  0  0  0  0  0  0  0  0  0  0
  -17.3917  -24.9836   23.6122 C   0  0  0  0  0  0  0  0  0  0  0  0
  -24.2031  -36.2421   25.2628 C   0  0  0  0  0  0  0  0  0  0  0  0
  -26.8350  -30.1645   25.3429 C   0  0  0  0  0  0  0  0  0  0  0  0
  -25.9080  -32.1175   26.6056 C   0  0  0  0  0  0  0  0  0  0  0  0
  -27.9481  -32.3993   25.1980 C   0  0  0  0  0  0  0  0  0  0  0  0
  -22.9393  -35.5381   21.7438 C   0  0  0  0  0  0  0  0  0  0  0  0
  -19.8289  -27.7441   22.3126 C   0  0  0  0  0  0  0  0  0  1  0  0
  -18.4878  -26.0135   23.6920 C   0  0  2  0  0  0  0  0  0  0  0  0
  -25.7001  -32.1083   24.0782 C   0  0  1  0  0  0  0  0  0  0  0  0
  -24.2198  -35.5929   23.8877 C   0  0  2  0  0  0  0  0  0  0  0  0
  -26.5822  -31.6843   25.2863 C   0  0  0  0  0  0  0  0  0  0  0  0
  -24.2929  -18.4999   17.9822 N   0  0  0  0  0  0  0  0  0  0  0  0
  -23.5222  -19.3687   17.3059 N   0  0  0  0  0  0  0  0  0  0  0  0
  -25.5205  -30.8255   21.9697 N   0  0  0  0  0  0  0  0  0  0  0  0
  -24.1625  -22.5754   19.2784 N   0  0  0  0  0  0  0  0  0  0  0  0
  -21.8300  -19.5036   15.6540 N   0  0  0  0  0  0  0  0  0  0  0  0
  -22.6028  -15.0670   15.9942 N   0  0  0  0  0  0  0  0  0  0  0  0
  -22.4682  -22.6157   20.9186 N   0  0  0  0  0  0  0  0  0  0  0  0
  -27.7856  -28.4885   20.5074 N   0  0  0  0  0  0  0  0  0  0  0  0
  -25.4667  -33.5454   23.9840 N   0  0  0  0  0  0  0  0  0  0  0  0
  -23.0360  -36.0791   23.1240 N   0  3  0  0  0  0  0  0  0  0  0  0
  -21.3676  -16.6638   14.9064 O   0  0  0  0  0  0  0  0  0  0  0  0
  -26.0516  -28.2323   22.0405 O   0  0  0  0  0  0  0  0  0  0  0  0
  -18.1955  -26.2940   21.3104 O   0  0  0  0  0  0  0  0  0  0  0  0
  -27.4050  -32.1193   22.4290 O   0  0  0  0  0  0  0  0  0  0  0  0
  -23.1523  -33.4335   24.0747 O   0  0  0  0  0  0  0  0  0  0  0  0
  -23.5900  -24.5569   20.3225 O   0  0  0  0  0  0  0  0  0  0  0  0
  -20.7255  -22.2257   22.4895 O   0  0  0  0  0  0  0  0  0  0  0  0
  -26.2807  -12.6152   19.3849 O   0  0  0  0  0  0  0  0  0  0  0  0
  -20.0037  -28.2459   20.9882 O   0  0  0  0  0  0  0  0  0  1  0  0
  -31.7678  -12.5530   19.9254 F   0  0  0  0  0  0  0  0  0  0  0  0
  -27.8231  -10.7956   17.9874 F   0  0  0  0  0  0  0  0  0  0  0  0
  1  2  1  0  0  0  0
  1  5  2  0  0  0  0
  2  6  2  0  0  0  0
  3  8  2  0  0  0  0
  3 16  1  0  0  0  0
  4  9  1  0  0  0  0
  4 16  2  0  0  0  0
  5 18  1  0  0  0  0
  6 20  1  0  0  0  0
  7 10  2  0  0  0  0
  7 19  1  0  0  0  0
  8 23  1  0  0  0  0
  9 23  2  0  0  0  0
 10 24  1  0  0  0  0
 11 12  2  0  0  0  0
 11 25  1  0  0  0  0
 12 26  1  0  0  0  0
 13 21  1  0  0  0  0
 13 24  2  0  0  0  0
 14 22  1  0  0  0  0
 14 31  2  0  0  0  0
 15 26  2  0  0  0  0
 15 27  1  0  0  0  0
 16 28  1  0  0  0  0
 17 28  1  0  0  0  0
 17 30  2  0  0  0  0
 17 32  1  0  0  0  0
 18 20  2  0  0  0  0
 18 38  1  0  0  0  0
 19 21  2  0  0  0  0
 19 39  1  0  0  0  0
 20 48  1  0  0  0  0
 21 40  1  0  0  0  0
 22 29  2  0  0  0  0
 22 51  1  0  0  0  0
 23 84  1  0  0  0  0
 24 85  1  0  0  0  0
 25 27  2  0  0  0  0
 25 84  1  0  0  0  0
 26 86  1  0  0  0  0
 27 87  1  0  0  0  0
 28 67  2  0  0  0  0
 29 53  1  0  0  0  0
 29 83  1  0  0  0  0
 30 68  1  0  0  0  0
 30 71  1  0  0  0  0
 31 73  1  0  0  0  0
 31 83  1  0  0  0  0
 32 72  1  0  0  0  0
 32 77  2  0  0  0  0
 33 49  1  0  0  0  0
 33 74  1  0  0  0  0
 33 78  2  0  0  0  0
 34 62  1  0  0  0  0
 34 63  1  0  0  0  0
 34 79  2  0  0  0  0
 35 64  1  0  0  0  0
 35 69  1  0  0  0  0
 35 80  2  0  0  0  0
 36 65  1  0  0  0  0
 36 75  1  0  0  0  0
 36 81  2  0  0  0  0
 37 70  1  0  0  0  0
 37 73  1  0  0  0  0
 37 82  2  0  0  0  0
 38 41  1  0  0  0  0
 39 49  1  0  0  0  0
 40 69  1  0  0  0  0
 41 43  1  0  0  0  0
 42 44  1  0  0  0  0
 42 46  1  0  0  0  0
 43 48  1  0  0  0  0
 44 50  1  0  0  0  0
 45 51  1  0  0  0  0
 45 52  1  0  0  0  0
 46 70  1  0  0  0  0
 47 50  1  0  0  0  0
 47 70  1  0  0  0  0
 48 74  1  0  0  0  0
 49 69  1  0  0  0  0
 50 68  1  0  0  0  0
 51 52  1  0  0  0  0
 51 63  1  0  0  0  0
 52 54  1  0  0  0  0
 52 55  1  0  0  0  0
 56 63  1  0  0  0  0
 57 65  1  0  0  0  0
 58 66  1  0  0  0  0
 59 66  1  0  0  0  0
 60 66  1  0  0  0  0
 61 76  1  0  0  0  0
 62 85  1  0  0  0  0
 64 66  1  0  0  0  0
 64 75  1  0  0  0  0
 65 76  1  0  0  0  0
 67 68  1  0  0  0  0
M  CHG  1  76   1
M  ISO  4  37 100  62 101  73 100  85 101
M  END
> <Batch ID>
0146

> <Smiles>
CNC(C)C(=O)NC(C(=O)N1Cc2cc([101O:1][101CH2:1]C(=O)C(C)C3(c4cc([100NH:0][100C:0](=O)N5CCCC(n6nc(-c7ccc(Oc8ccc(F)cc8F)cc7)c(C(N)=O)c6N)C5)oc4C)CC3(C)C)ccc2CC1C(=O)NC1CCCc2ccccc21)C(C)(C)C

> <Shape>
0.271

> <Color>
0.073

> <Negative vol penalty>
0.000

$$$$

  -OEChem-04052303103D

 85 94  0     1  0  0  0  0  0999 V2000
  -17.0612  -29.4066   24.6096 C   0  0  0  0  0  0  0  0  0  0  0  0
  -17.7603  -28.2586   24.2509 C   0  0  0  0  0  0  0  0  0  0  0  0
  -27.9466  -17.1321   21.1860 C   0  0  0  0  0  0  0  0  0  0  0  0
  -27.0492  -17.2710   18.9472 C   0  0  0  0  0  0  0  0  0  0  0  0
  -17.3159  -30.6101   23.9534 C   0  0  0  0  0  0  0  0  0  0  0  0
  -18.7139  -28.3132   23.2349 C   0  0  0  0  0  0  0  0  0  0  0  0
  -22.9818  -25.8699   24.4431 C   0  0  0  0  0  0  0  0  0  0  0  0
  -28.5086  -18.4003   21.0394 C   0  0  0  0  0  0  0  0  0  0  0  0
  -27.6112  -18.5392   18.8006 C   0  0  0  0  0  0  0  0  0  0  0  0
  -22.9686  -24.4791   24.3460 C   0  0  0  0  0  0  0  0  0  0  0  0
  -27.4703  -21.6155   21.1715 C   0  0  0  0  0  0  0  0  0  0  0  0
  -27.3235  -22.5155   22.2270 C   0  0  0  0  0  0  0  0  0  0  0  0
  -24.0913  -24.6232   22.2157 C   0  0  0  0  0  0  0  0  0  0  0  0
  -23.3601  -17.2181   24.9697 C   0  0  0  0  0  0  0  0  0  0  0  0
  -29.7259  -22.6538   22.4432 C   0  0  0  0  0  0  0  0  0  0  0  0
  -25.6723  -17.4163   24.8401 C   0  0  0  0  0  0  0  0  0  0  0  0
  -27.2169  -16.5674   20.1399 C   0  0  0  0  0  0  0  0  0  0  0  0
  -27.3155  -14.0513   20.5484 C   0  0  0  0  0  0  0  0  0  0  0  0
  -18.2799  -30.6817   22.9355 C   0  0  0  0  0  0  0  0  0  0  0  0
  -23.5411  -26.6495   23.4203 C   0  0  0  0  0  0  0  0  0  0  0  0
  -18.9808  -29.5185   22.5636 C   0  0  0  0  0  0  0  0  0  0  0  0
  -24.1126  -26.0235   22.3034 C   0  0  0  0  0  0  0  0  0  0  0  0
  -24.4881  -18.0835   25.0636 C   0  0  0  0  0  0  0  0  0  0  0  0
  -28.3409  -19.1038   19.8467 C   0  0  0  0  0  0  0  0  0  0  0  0
  -23.5208  -23.8557   23.2309 C   0  0  0  0  0  0  0  0  0  0  0  0
  -28.7449  -21.2345   20.7519 C   0  0  0  0  0  0  0  0  0  0  0  0
  -28.4513  -23.0347   22.8628 C   0  0  0  0  0  0  0  0  0  0  0  0
  -29.8726  -21.7537   21.3877 C   0  0  0  0  0  0  0  0  0  0  0  0
  -26.6366  -15.2572   20.2905 C   0  0  0  0  0  0  0  0  0  0  0  0
  -23.7252  -15.9222   24.6777 C   0  0  0  0  0  0  0  0  0  0  0  0
  -26.3232  -13.1031   20.6013 C   0  0  0  0  0  0  0  0  0  0  0  0
  -28.7178  -13.8098   20.7245 C   0  0  0  0  0  0  0  0  0  0  0  0
  -22.4306  -28.8548   21.4185 C   0  0  0  0  0  0  0  0  0  0  0  0
  -24.2574  -20.4228   24.1337 C   0  0  0  0  0  0  0  0  0  0  0  0
  -25.5581  -29.1294   20.6027 C   0  0  0  0  0  0  0  0  0  0  0  0
  -28.6515  -27.6951   20.4588 C   0  0  0  0  0  0  0  0  0  0  0  0
  -20.5883  -13.2342   21.8874 C   0  0  0  0  0  0  0  0  0  0  0  0
  -18.4869  -31.9946   22.2226 C   0  0  0  0  0  0  0  0  0  0  0  0
  -23.5714  -28.1475   23.5526 C   0  0  0  0  0  0  0  0  0  0  0  0
  -24.7435  -26.8143   21.1875 C   0  0  0  0  0  0  0  0  0  0  0  0
  -19.7797  -32.0508   21.4128 C   0  0  0  0  0  0  0  0  0  0  0  0
  -21.1483  -13.1510   25.5470 C   0  0  0  0  0  0  0  0  0  0  0  0
  -21.9632  -12.1313   18.9006 C   0  0  0  0  0  0  0  0  0  0  0  0
  -19.9459  -30.7812   20.5837 C   0  0  0  0  0  0  0  0  0  0  0  0
  -22.0477  -14.3657   25.7720 C   0  0  0  0  0  0  0  0  0  0  0  0
  -23.3873  -12.6858   18.9283 C   0  0  0  0  0  0  0  0  0  0  0  0
  -20.2447  -13.3309   24.3307 C   0  0  0  0  0  0  0  0  0  0  0  0
  -20.9687  -13.1523   19.4414 C   0  0  0  0  0  0  0  0  0  0  0  0
  -21.8764  -14.8820   23.3061 C   0  0  0  0  0  0  0  0  0  0  0  0
  -22.7070  -14.1845   20.8662 C   0  0  0  0  0  0  0  0  0  0  0  0
  -20.0405  -29.5431   21.4835 C   0  0  1  0  0  0  0  0  0  0  0  0
  -22.8338  -14.7083   24.4946 C   0  0  1  0  0  0  0  0  0  0  0  0
  -23.7065  -28.8630   22.2121 C   0  0  1  0  0  0  0  0  0  0  0  0
  -23.7561  -13.1876   20.3352 C   0  0  2  0  0  0  0  0  0  0  0  0
  -31.0013  -28.1514   19.7055 C   0  0  0  0  0  0  0  0  0  0  0  0
  -24.7108  -28.6942   17.7039 C   0  0  0  0  0  0  0  0  0  0  0  0
  -27.1046  -28.2139   17.1494 C   0  0  0  0  0  0  0  0  0  0  0  0
  -26.4553  -30.4567   18.0275 C   0  0  0  0  0  0  0  0  0  0  0  0
  -29.7155  -27.3806   23.2025 C   0  0  0  0  0  0  0  0  0  0  0  0
  -24.3964  -19.5307   25.3663 C   0  0  0  0  0  0  0  0  0  0  0  0
  -23.5550  -21.7511   24.3380 C   0  0  0  0  0  0  0  0  0  1  0  0
  -26.4606  -28.4683   19.5890 C   0  0  1  0  0  0  0  0  0  0  0  0
  -30.0203  -28.2097   20.8661 C   0  0  2  0  0  0  0  0  0  0  0  0
  -26.1693  -28.9432   18.1374 C   0  0  0  0  0  0  0  0  0  0  0  0
  -25.3151  -15.0930   20.1866 N   0  0  0  0  0  0  0  0  0  0  0  0
  -25.1557  -13.7726   20.3801 N   0  0  0  0  0  0  0  0  0  0  0  0
  -24.7430  -28.2764   21.3601 N   0  0  0  0  0  0  0  0  0  0  0  0
  -21.0118  -13.7033   23.1418 N   0  0  0  0  0  0  0  0  0  0  0  0
  -21.3556  -13.6122   20.7752 N   0  0  0  0  0  0  0  0  0  0  0  0
  -26.3442  -11.7703   20.8148 N   0  0  0  0  0  0  0  0  0  0  0  0
  -29.4903  -13.5052   19.5954 N   0  0  0  0  0  0  0  0  0  0  0  0
  -21.3610  -29.4421   22.0670 N   0  0  0  0  0  0  0  0  0  0  0  0
  -27.8270  -28.7162   20.0359 N   0  0  0  0  0  0  0  0  0  0  0  0
  -30.5683  -27.3934   21.9861 N   0  3  0  0  0  0  0  0  0  0  0  0
  -29.2663  -13.8463   21.8520 O   0  0  0  0  0  0  0  0  0  0  0  0
  -22.4179  -28.3540   20.3002 O   0  0  0  0  0  0  0  0  0  0  0  0
  -24.6905  -20.0843   23.0330 O   0  0  0  0  0  0  0  0  0  0  0  0
  -25.5809  -30.3568   20.7231 O   0  0  0  0  0  0  0  0  0  0  0  0
  -28.3455  -26.5057   20.5070 O   0  0  0  0  0  0  0  0  0  0  0  0
  -19.5864  -12.5175   21.7701 O   0  0  0  0  0  0  0  0  0  0  0  0
  -28.8890  -20.3414   19.7034 O   0  0  0  0  0  0  0  0  0  0  0  0
  -23.5085  -22.4843   23.1323 O   0  0  0  0  0  0  0  0  0  1  0  0
  -28.3102  -23.9002   23.8753 F   0  0  0  0  0  0  0  0  0  0  0  0
  -31.0997  -21.3923   20.9883 F   0  0  0  0  0  0  0  0  0  0  0  0
  -25.4218  -15.7531   24.5184 S   0  0  0  0  0  0  0  0  0  0  0  0
  1  2  1  0  0  0  0
  1  5  2  0  0  0  0
  2  6  2  0  0  0  0
  3  8  2  0  0  0  0
  3 17  1  0  0  0  0
  4  9  1  0  0  0  0
  4 17  2  0  0  0  0
  5 19  1  0  0  0  0
  6 21  1  0  0  0  0
  7 10  2  0  0  0  0
  7 20  1  0  0  0  0
  8 24  1  0  0  0  0
  9 24  2  0  0  0  0
 10 25  1  0  0  0  0
 11 12  2  0  0  0  0
 11 26  1  0  0  0  0
 12 27  1  0  0  0  0
 13 22  1  0  0  0  0
 13 25  2  0  0  0  0
 14 23  1  0  0  0  0
 14 30  2  0  0  0  0
 15 27  2  0  0  0  0
 15 28  1  0  0  0  0
 16 23  2  0  0  0  0
 16 85  1  0  0  0  0
 17 29  1  0  0  0  0
 18 29  1  0  0  0  0
 18 31  2  0  0  0  0
 18 32  1  0  0  0  0
 19 21  2  0  0  0  0
 19 38  1  0  0  0  0
 20 22  2  0  0  0  0
 20 39  1  0  0  0  0
 21 51  1  0  0  0  0
 22 40  1  0  0  0  0
 23 60  1  0  0  0  0
 24 81  1  0  0  0  0
 25 82  1  0  0  0  0
 26 28  2  0  0  0  0
 26 81  1  0  0  0  0
 27 83  1  0  0  0  0
 28 84  1  0  0  0  0
 29 65  2  0  0  0  0
 30 52  1  0  0  0  0
 30 85  1  0  0  0  0
 31 66  1  0  0  0  0
 31 70  1  0  0  0  0
 32 71  1  0  0  0  0
 32 75  2  0  0  0  0
 33 53  1  0  0  0  0
 33 72  1  0  0  0  0
 33 76  2  0  0  0  0
 34 60  1  0  0  0  0
 34 61  1  0  0  0  0
 34 77  2  0  0  0  0
 35 62  1  0  0  0  0
 35 67  1  0  0  0  0
 35 78  2  0  0  0  0
 36 63  1  0  0  0  0
 36 73  1  0  0  0  0
 36 79  2  0  0  0  0
 37 68  1  0  0  0  0
 37 69  1  0  0  0  0
 37 80  2  0  0  0  0
 38 41  1  0  0  0  0
 39 53  1  0  0  0  0
 40 67  1  0  0  0  0
 41 44  1  0  0  0  0
 42 45  1  0  0  0  0
 42 47  1  0  0  0  0
 43 46  1  0  0  0  0
 43 48  1  0  0  0  0
 44 51  1  0  0  0  0
 45 52  1  0  0  0  0
 46 54  1  0  0  0  0
 47 68  1  0  0  0  0
 48 69  1  0  0  0  0
 49 52  1  0  0  0  0
 49 68  1  0  0  0  0
 50 54  1  0  0  0  0
 50 69  1  0  0  0  0
 51 72  1  0  0  0  0
 53 67  1  0  0  0  0
 54 66  1  0  0  0  0
 55 63  1  0  0  0  0
 56 64  1  0  0  0  0
 57 64  1  0  0  0  0
 58 64  1  0  0  0  0
 59 74  1  0  0  0  0
 61 82  1  0  0  0  0
 62 64  1  0  0  0  0
 62 73  1  0  0  0  0
 63 74  1  0  0  0  0
 65 66  1  0  0  0  0
M  CHG  1  74   1
M  ISO  4  37 100  61 101  68 100  82 101
M  END
> <Batch ID>
0146

> <Smiles>
CNC(C)C(=O)NC(C(=O)N1Cc2cc([101O:1][101CH2:1]C(=O)Cc3csc(C4CCC[100N:0]([100C:0](=O)N5CCCC(n6nc(-c7ccc(Oc8ccc(F)cc8F)cc7)c(C(N)=O)c6N)C5)C4)c3)ccc2CC1C(=O)NC1CCCc2ccccc21)C(C)(C)C

> <Shape>
0.221

> <Color>
0.102

> <Negative vol penalty>
0.000

$$$$

  -OEChem-04052303103D

 88 97  0     1  0  0  0  0  0999 V2000
  -29.0139  -25.0889   16.6906 C   0  0  0  0  0  0  0  0  0  0  0  0
  -27.8208  -25.1182   17.4054 C   0  0  0  0  0  0  0  0  0  0  0  0
  -23.0503  -12.2579   18.9676 C   0  0  0  0  0  0  0  0  0  0  0  0
  -24.6108  -11.3373   20.5659 C   0  0  0  0  0  0  0  0  0  0  0  0
  -30.1359  -25.7552   17.1817 C   0  0  0  0  0  0  0  0  0  0  0  0
  -27.7492  -25.8129   18.6123 C   0  0  0  0  0  0  0  0  0  0  0  0
  -23.5552  -28.6261   18.9888 C   0  0  0  0  0  0  0  0  0  0  0  0
  -22.7004  -10.9687   18.5666 C   0  0  0  0  0  0  0  0  0  0  0  0
  -24.2608  -10.0480   20.1649 C   0  0  0  0  0  0  0  0  0  0  0  0
  -22.3708  -27.9637   19.3081 C   0  0  0  0  0  0  0  0  0  0  0  0
  -20.7482   -8.4511   19.6997 C   0  0  0  0  0  0  0  0  0  0  0  0
  -19.3918   -8.1668   19.5424 C   0  0  0  0  0  0  0  0  0  0  0  0
  -22.6036  -28.6668   21.6039 C   0  0  0  0  0  0  0  0  0  0  0  0
  -19.7742   -7.6273   17.2187 C   0  0  0  0  0  0  0  0  0  0  0  0
  -24.0055  -12.4423   19.9673 C   0  0  0  0  0  0  0  0  0  0  0  0
  -23.7724  -14.5379   21.4032 C   0  0  0  0  0  0  0  0  0  0  0  0
  -30.0754  -26.4665   18.3905 C   0  0  0  0  0  0  0  0  0  0  0  0
  -24.2797  -29.3058   19.9785 C   0  0  0  0  0  0  0  0  0  0  0  0
  -28.8718  -26.4882   19.1207 C   0  0  0  0  0  0  0  0  0  0  0  0
  -23.7956  -29.3392   21.2940 C   0  0  0  0  0  0  0  0  0  0  0  0
  -23.8498  -23.1760   20.8608 C   0  0  0  0  0  0  0  0  0  0  0  0
  -22.4614  -23.1130   21.1283 C   0  0  0  0  0  0  0  0  0  0  0  0
  -23.3057   -9.8637   19.1652 C   0  0  0  0  0  0  0  0  0  0  0  0
  -21.8963  -27.9815   20.6164 C   0  0  0  0  0  0  0  0  0  0  0  0
  -21.6177   -8.3236   18.6164 C   0  0  0  0  0  0  0  0  0  0  0  0
  -18.9047   -7.7549   18.3020 C   0  0  0  0  0  0  0  0  0  0  0  0
  -21.1307   -7.9116   17.3759 C   0  0  0  0  0  0  0  0  0  0  0  0
  -24.3678  -13.7739   20.3816 C   0  0  0  0  0  0  0  0  0  0  0  0
  -24.1624  -22.0168   20.1896 C   0  0  0  0  0  0  0  0  0  0  0  0
  -22.0245  -21.9200   20.6012 C   0  0  0  0  0  0  0  0  0  0  0  0
  -24.4729  -15.7193   21.4011 C   0  0  0  0  0  0  0  0  0  0  0  0
  -25.4366  -21.5095   19.6502 C   0  0  0  0  0  0  0  0  0  0  0  0
  -22.6836  -14.2089   22.2761 C   0  0  0  0  0  0  0  0  0  0  0  0
  -27.1897  -29.0176   21.2245 C   0  0  0  0  0  0  0  0  0  0  0  0
  -26.3720  -31.7469   22.7752 C   0  0  0  0  0  0  0  0  0  0  0  0
  -23.8965  -33.7746   23.9614 C   0  0  0  0  0  0  0  0  0  0  0  0
  -26.7418  -19.9572   18.5649 C   0  0  0  0  0  0  0  0  0  0  0  0
  -31.3274  -27.1318   18.9048 C   0  0  0  0  0  0  0  0  0  0  0  0
  -25.5416  -30.0379   19.6124 C   0  0  0  0  0  0  0  0  0  0  0  0
  -24.5254  -30.0716   22.3892 C   0  0  0  0  0  0  0  0  0  0  0  0
  -31.0644  -28.1573   20.0045 C   0  0  0  0  0  0  0  0  0  0  0  0
  -26.2150  -25.2106   22.6547 C   0  0  0  0  0  0  0  0  0  0  0  0
  -28.7632  -17.0139   19.0706 C   0  0  0  0  0  0  0  0  0  0  0  0
  -24.6839  -25.0420   22.6361 C   0  0  0  0  0  0  0  0  0  0  0  0
  -26.2836  -23.9771   21.7339 C   0  0  0  0  0  0  0  0  0  0  0  0
  -30.1067  -27.5887   21.0467 C   0  0  0  0  0  0  0  0  0  0  0  0
  -27.7427  -15.9628   19.5070 C   0  0  0  0  0  0  0  0  0  0  0  0
  -28.1709  -17.9788   18.0480 C   0  0  0  0  0  0  0  0  0  0  0  0
  -25.8905  -17.5974   18.9441 C   0  0  0  0  0  0  0  0  0  0  0  0
  -24.8468  -24.3426   21.2527 C   0  0  0  0  0  0  0  0  0  0  0  0
  -28.7477  -27.2516   20.4214 C   0  0  1  0  0  0  0  0  0  0  0  0
  -26.4671  -30.2659   20.8035 C   0  0  1  0  0  0  0  0  0  0  0  0
  -26.4435  -16.6247   19.9996 C   0  0  1  0  0  0  0  0  0  0  0  0
  -20.7113  -21.2605   20.5408 C   0  0  0  0  0  0  0  0  0  0  0  0
  -23.5377  -35.9167   25.2184 C   0  0  0  0  0  0  0  0  0  0  0  0
  -27.1044  -30.3379   25.3806 C   0  0  0  0  0  0  0  0  0  0  0  0
  -25.8565  -32.1228   26.6154 C   0  0  0  0  0  0  0  0  0  0  0  0
  -27.8487  -32.7212   25.2385 C   0  0  0  0  0  0  0  0  0  0  0  0
  -18.3495  -25.8687   21.7454 C   0  0  0  0  0  0  0  0  0  0  0  0
  -19.6281  -25.0491   23.7309 C   0  0  0  0  0  0  0  0  0  0  0  0
  -22.4616  -35.0058   21.6845 C   0  0  0  0  0  0  0  0  0  0  0  0
  -20.3539  -24.4250   21.3794 C   0  0  0  0  0  0  0  0  0  0  0  0
  -20.6261  -26.8174   22.2557 C   0  0  0  0  0  0  0  0  0  1  0  0
  -25.6950  -32.0704   24.0852 C   0  0  1  0  0  0  0  0  0  0  0  0
  -23.6808  -35.2729   23.8480 C   0  0  2  0  0  0  0  0  0  0  0  0
  -26.6132  -31.7976   25.3099 C   0  0  0  0  0  0  0  0  0  0  0  0
  -19.7599  -25.5380   22.2766 C   0  0  0  0  0  0  0  0  0  0  0  0
  -25.3693  -14.4161   19.7745 N   0  0  0  0  0  0  0  0  0  0  0  0
  -25.5133  -20.3702   19.0441 N   0  0  0  0  0  0  0  0  0  0  0  0
  -25.4086  -15.5961   20.4165 N   0  0  0  0  0  0  0  0  0  0  0  0
  -25.7578  -30.7668   21.9826 N   0  0  0  0  0  0  0  0  0  0  0  0
  -26.9210  -18.5620   18.5374 N   0  0  0  0  0  0  0  0  0  0  0  0
  -24.3735  -16.8412   22.1454 N   0  0  0  0  0  0  0  0  0  0  0  0
  -22.0770  -12.9524   22.1435 N   0  0  0  0  0  0  0  0  0  0  0  0
  -21.6909  -24.0573   21.7863 N   0  0  0  0  0  0  0  0  0  0  0  0
  -27.9670  -28.4551   20.2300 N   0  0  0  0  0  0  0  0  0  0  0  0
  -25.2368  -33.4513   23.9777 N   0  0  0  0  0  0  0  0  0  0  0  0
  -22.4475  -35.5608   23.0625 N   0  3  0  0  0  0  0  0  0  0  0  0
  -22.2504  -15.0120   23.1369 O   0  0  0  0  0  0  0  0  0  0  0  0
  -27.0534  -28.5968   22.3673 O   0  0  0  0  0  0  0  0  0  0  0  0
  -27.4036  -32.3469   22.4632 O   0  0  0  0  0  0  0  0  0  0  0  0
  -22.9688  -32.9716   24.0324 O   0  0  0  0  0  0  0  0  0  0  0  0
  -27.6245  -20.7282   18.1808 O   0  0  0  0  0  0  0  0  0  0  0  0
  -23.0553  -21.2458   20.0272 O   0  0  0  0  0  0  0  0  0  0  0  0
  -22.9643   -8.6054   18.7743 O   0  0  0  0  0  0  0  0  0  0  0  0
  -20.7407  -27.3352   20.9309 O   0  0  0  0  0  0  0  0  0  1  0  0
  -17.6023   -7.4805   18.1516 F   0  0  0  0  0  0  0  0  0  0  0  0
  -21.9613   -7.7861   16.3318 F   0  0  0  0  0  0  0  0  0  0  0  0
  1  2  1  0  0  0  0
  1  5  2  0  0  0  0
  2  6  2  0  0  0  0
  3  8  2  0  0  0  0
  3 15  1  0  0  0  0
  4  9  1  0  0  0  0
  4 15  2  0  0  0  0
  5 17  1  0  0  0  0
  6 19  1  0  0  0  0
  7 10  2  0  0  0  0
  7 18  1  0  0  0  0
  8 23  1  0  0  0  0
  9 23  2  0  0  0  0
 10 24  1  0  0  0  0
 11 12  2  0  0  0  0
 11 25  1  0  0  0  0
 12 26  1  0  0  0  0
 13 20  1  0  0  0  0
 13 24  2  0  0  0  0
 14 26  2  0  0  0  0
 14 27  1  0  0  0  0
 15 28  1  0  0  0  0
 16 28  1  0  0  0  0
 16 31  2  0  0  0  0
 16 33  1  0  0  0  0
 17 19  2  0  0  0  0
 17 38  1  0  0  0  0
 18 20  2  0  0  0  0
 18 39  1  0  0  0  0
 19 51  1  0  0  0  0
 20 40  1  0  0  0  0
 21 22  1  0  0  0  0
 21 29  2  0  0  0  0
 21 50  1  0  0  0  0
 22 30  2  0  0  0  0
 22 75  1  0  0  0  0
 23 85  1  0  0  0  0
 24 86  1  0  0  0  0
 25 27  2  0  0  0  0
 25 85  1  0  0  0  0
 26 87  1  0  0  0  0
 27 88  1  0  0  0  0
 28 68  2  0  0  0  0
 29 32  1  0  0  0  0
 29 84  1  0  0  0  0
 30 54  1  0  0  0  0
 30 84  1  0  0  0  0
 31 70  1  0  0  0  0
 31 73  1  0  0  0  0
 32 69  2  0  0  0  0
 33 74  1  0  0  0  0
 33 79  2  0  0  0  0
 34 52  1  0  0  0  0
 34 76  1  0  0  0  0
 34 80  2  0  0  0  0
 35 64  1  0  0  0  0
 35 71  1  0  0  0  0
 35 81  2  0  0  0  0
 36 65  1  0  0  0  0
 36 77  1  0  0  0  0
 36 82  2  0  0  0  0
 37 69  1  0  0  0  0
 37 72  1  0  0  0  0
 37 83  2  0  0  0  0
 38 41  1  0  0  0  0
 39 52  1  0  0  0  0
 40 71  1  0  0  0  0
 41 46  1  0  0  0  0
 42 44  1  0  0  0  0
 42 45  1  0  0  0  0
 43 47  1  0  0  0  0
 43 48  1  0  0  0  0
 44 50  1  0  0  0  0
 45 50  1  0  0  0  0
 46 51  1  0  0  0  0
 47 53  1  0  0  0  0
 48 72  1  0  0  0  0
 49 53  1  0  0  0  0
 49 72  1  0  0  0  0
 51 76  1  0  0  0  0
 52 71  1  0  0  0  0
 53 70  1  0  0  0  0
 55 65  1  0  0  0  0
 56 66  1  0  0  0  0
 57 66  1  0  0  0  0
 58 66  1  0  0  0  0
 59 67  1  0  0  0  0
 60 67  1  0  0  0  0
 61 78  1  0  0  0  0
 62 67  1  0  0  0  0
 62 75  1  0  0  0  0
 63 67  1  0  0  0  0
 63 86  1  0  0  0  0
 64 66  1  0  0  0  0
 64 77  1  0  0  0  0
 65 78  1  0  0  0  0
 68 70  1  0  0  0  0
M  CHG  1  78   1
M  ISO  4  37 100  63 101  69 100  86 101
M  END
> <Batch ID>
0146

> <Smiles>
CNC(C)C(=O)NC(C(=O)N1Cc2cc([101O:1][101CH2:1]C(C)(C)CNc3c(C)oc(C=[100N:0][100C:0](=O)N4CCCC(n5nc(-c6ccc(Oc7ccc(F)cc7F)cc6)c(C(N)=O)c5N)C4)c3C3CCC3)ccc2CC1C(=O)NC1CCCc2ccccc21)C(C)(C)C

> <Shape>
0.263

> <Color>
0.074

> <Negative vol penalty>
0.000

$$$$

  -OEChem-04052303103D

 86 95  0     1  0  0  0  0  0999 V2000
  -27.1960  -32.0394   27.8137 C   0  0  0  0  0  0  0  0  0  0  0  0
  -27.4872  -31.0667   26.8627 C   0  0  0  0  0  0  0  0  0  0  0  0
  -24.8858  -11.9455   20.5611 C   0  0  0  0  0  0  0  0  0  0  0  0
  -25.4974  -13.1153   22.5845 C   0  0  0  0  0  0  0  0  0  0  0  0
  -25.8705  -32.3878   28.0696 C   0  0  0  0  0  0  0  0  0  0  0  0
  -26.4528  -30.4409   26.1678 C   0  0  0  0  0  0  0  0  0  0  0  0
  -27.3930  -30.0679   21.2057 C   0  0  0  0  0  0  0  0  0  0  0  0
  -25.3337  -10.7477   21.1181 C   0  0  0  0  0  0  0  0  0  0  0  0
  -25.9453  -11.9175   23.1417 C   0  0  0  0  0  0  0  0  0  0  0  0
  -28.2667  -29.0612   20.7971 C   0  0  0  0  0  0  0  0  0  0  0  0
  -24.2007   -8.4494   23.3243 C   0  0  0  0  0  0  0  0  0  0  0  0
  -23.3898   -7.3238   23.1792 C   0  0  0  0  0  0  0  0  0  0  0  0
  -30.6069  -21.9685   22.5736 C   0  0  0  0  0  0  0  0  0  0  0  0
  -29.8218  -21.2590   20.4018 C   0  0  0  0  0  0  0  0  0  0  0  0
  -26.3839  -27.6909   20.1674 C   0  0  0  0  0  0  0  0  0  0  0  0
  -28.6022  -20.6326   22.3910 C   0  0  0  0  0  0  0  0  0  0  0  0
  -25.1697   -6.1935   21.9996 C   0  0  0  0  0  0  0  0  0  0  0  0
  -24.9677  -13.1293   21.2942 C   0  0  0  0  0  0  0  0  0  0  0  0
  -30.7518  -21.9408   21.1866 C   0  0  0  0  0  0  0  0  0  0  0  0
  -23.2090  -14.9093   20.7978 C   0  0  0  0  0  0  0  0  0  0  0  0
  -24.8198  -31.7728   27.3706 C   0  0  0  0  0  0  0  0  0  0  0  0
  -26.0055  -29.8890   21.1082 C   0  0  0  0  0  0  0  0  0  0  0  0
  -25.1119  -30.7804   26.4156 C   0  0  0  0  0  0  0  0  0  0  0  0
  -25.4948  -28.6978   20.5731 C   0  0  0  0  0  0  0  0  0  0  0  0
  -29.5321  -21.3144   23.1759 C   0  0  0  0  0  0  0  0  0  0  0  0
  -28.7470  -20.6049   21.0040 C   0  0  0  0  0  0  0  0  0  0  0  0
  -25.8634  -10.7337   22.4084 C   0  0  0  0  0  0  0  0  0  0  0  0
  -27.7622  -27.8714   20.2806 C   0  0  0  0  0  0  0  0  0  0  0  0
  -25.4961   -8.4471   22.8069 C   0  0  0  0  0  0  0  0  0  0  0  0
  -23.8743   -6.1959   22.5169 C   0  0  0  0  0  0  0  0  0  0  0  0
  -25.9806   -7.3191   22.1446 C   0  0  0  0  0  0  0  0  0  0  0  0
  -24.5058  -14.3670   20.7191 C   0  0  0  0  0  0  0  0  0  0  0  0
  -23.2860  -16.0867   20.0949 C   0  0  0  0  0  0  0  0  0  0  0  0
  -31.8873  -22.6325   20.5507 C   0  0  0  0  0  0  0  0  0  0  0  0
  -22.0395  -14.3947   21.4483 C   0  0  0  0  0  0  0  0  0  0  0  0
  -23.6037  -29.7991   23.1883 C   0  0  0  0  0  0  0  0  0  0  0  0
  -21.7942  -29.6615   20.4996 C   0  0  0  0  0  0  0  0  0  0  0  0
  -21.5825  -28.8673   17.1873 C   0  0  0  0  0  0  0  0  0  0  0  0
  -27.7971  -19.7910   18.8172 C   0  0  0  0  0  0  0  0  0  0  0  0
  -23.4005  -32.1487   27.7155 C   0  0  0  0  0  0  0  0  0  0  0  0
  -25.0769  -30.9951   21.5284 C   0  0  0  0  0  0  0  0  0  0  0  0
  -24.0139  -28.4643   20.4285 C   0  0  0  0  0  0  0  0  0  0  0  0
  -22.3816  -31.7058   26.6686 C   0  0  0  0  0  0  0  0  0  0  0  0
  -25.6682  -18.1447   16.4860 C   0  0  0  0  0  0  0  0  0  0  0  0
  -22.6323  -30.2580   26.2588 C   0  0  0  0  0  0  0  0  0  0  0  0
  -25.0060  -17.0423   17.3156 C   0  0  0  0  0  0  0  0  0  0  0  0
  -32.3011  -26.0996   19.6365 C   0  0  0  0  0  0  0  0  0  0  0  0
  -27.1231  -18.3665   16.8959 C   0  0  0  0  0  0  0  0  0  0  0  0
  -32.8282  -24.6722   19.5448 C   0  0  0  0  0  0  0  0  0  0  0  0
  -30.5209  -24.6732   20.3794 C   0  0  0  0  0  0  0  0  0  0  0  0
  -26.6724  -17.5033   19.1589 C   0  0  0  0  0  0  0  0  0  0  0  0
  -24.0186  -30.0967   25.6235 C   0  0  1  0  0  0  0  0  0  0  0  0
  -23.6724  -30.5017   21.8619 C   0  0  1  0  0  0  0  0  0  0  0  0
  -30.7833  -25.9256   19.5392 C   0  0  1  0  0  0  0  0  0  0  0  0
  -25.1868  -17.2882   18.8264 C   0  0  2  0  0  0  0  0  0  0  0  0
  -29.3768  -21.3448   24.6590 C   0  0  0  0  0  0  0  0  0  0  0  0
  -19.9634  -28.8287   15.2704 C   0  0  0  0  0  0  0  0  0  0  0  0
  -20.4842  -27.1618   21.6595 C   0  0  0  0  0  0  0  0  0  0  0  0
  -19.6080  -26.6442   19.3720 C   0  0  0  0  0  0  0  0  0  0  0  0
  -18.9053  -28.7387   20.5305 C   0  0  0  0  0  0  0  0  0  0  0  0
  -23.2181  -30.7688   15.6162 C   0  0  0  0  0  0  0  0  0  0  0  0
  -30.0103  -27.1403   20.0206 C   0  0  0  0  0  0  0  0  0  1  0  0
  -21.2591  -28.5522   19.6267 C   0  0  1  0  0  0  0  0  0  0  0  0
  -21.0264  -29.6343   16.0011 C   0  0  2  0  0  0  0  0  0  0  0  0
  -20.0921  -27.7776   20.3016 C   0  0  0  0  0  0  0  0  0  0  0  0
  -25.3450  -15.1367   20.0210 N   0  0  0  0  0  0  0  0  0  0  0  0
  -24.5739  -16.1746   19.6546 N   0  0  0  0  0  0  0  0  0  0  0  0
  -31.7560  -23.8947   20.1858 N   0  0  0  0  0  0  0  0  0  0  0  0
  -23.1465  -29.5733   20.8591 N   0  0  0  0  0  0  0  0  0  0  0  0
  -27.2165  -18.5973   18.3392 N   0  0  0  0  0  0  0  0  0  0  0  0
  -22.3769  -17.0451   19.8164 N   0  0  0  0  0  0  0  0  0  0  0  0
  -22.1354  -13.1714   22.1256 N   0  0  0  0  0  0  0  0  0  0  0  0
  -27.8012  -19.9142   20.2063 N   0  0  0  0  0  0  0  0  0  0  0  0
  -24.0075  -30.5754   24.2578 N   0  0  0  0  0  0  0  0  0  0  0  0
  -20.9086  -29.1689   18.3518 N   0  0  0  0  0  0  0  0  0  0  0  0
  -33.0267  -21.9752   20.3561 N   0  3  0  0  0  0  0  0  0  0  0  0
  -22.1157  -29.9585   15.0372 N   0  3  0  0  0  0  0  0  0  0  0  0
  -20.9378  -14.9936   21.4156 O   0  0  0  0  0  0  0  0  0  0  0  0
  -23.2119  -28.6391   23.2379 O   0  0  0  0  0  0  0  0  0  0  0  0
  -21.0419  -30.5766   20.8437 O   0  0  0  0  0  0  0  0  0  0  0  0
  -22.5185  -28.0768   17.0898 O   0  0  0  0  0  0  0  0  0  0  0  0
  -28.2323  -20.6536   18.0501 O   0  0  0  0  0  0  0  0  0  0  0  0
  -26.3003   -9.5650   22.9525 O   0  0  0  0  0  0  0  0  0  0  0  0
  -28.6129  -26.8869   19.8817 O   0  0  0  0  0  0  0  0  0  1  0  0
  -23.0959   -5.1145   22.3790 F   0  0  0  0  0  0  0  0  0  0  0  0
  -27.2246   -7.3106   21.6465 F   0  0  0  0  0  0  0  0  0  0  0  0
  1  2  1  0  0  0  0
  1  5  2  0  0  0  0
  2  6  2  0  0  0  0
  3  8  2  0  0  0  0
  3 18  1  0  0  0  0
  4  9  1  0  0  0  0
  4 18  2  0  0  0  0
  5 21  1  0  0  0  0
  6 23  1  0  0  0  0
  7 10  2  0  0  0  0
  7 22  1  0  0  0  0
  8 27  1  0  0  0  0
  9 27  2  0  0  0  0
 10 28  1  0  0  0  0
 11 12  2  0  0  0  0
 11 29  1  0  0  0  0
 12 30  1  0  0  0  0
 13 19  1  0  0  0  0
 13 25  2  0  0  0  0
 14 19  2  0  0  0  0
 14 26  1  0  0  0  0
 15 24  1  0  0  0  0
 15 28  2  0  0  0  0
 16 25  1  0  0  0  0
 16 26  2  0  0  0  0
 17 30  2  0  0  0  0
 17 31  1  0  0  0  0
 18 32  1  0  0  0  0
 19 34  1  0  0  0  0
 20 32  1  0  0  0  0
 20 33  2  0  0  0  0
 20 35  1  0  0  0  0
 21 23  2  0  0  0  0
 21 40  1  0  0  0  0
 22 24  2  0  0  0  0
 22 41  1  0  0  0  0
 23 52  1  0  0  0  0
 24 42  1  0  0  0  0
 25 56  1  0  0  0  0
 26 73  1  0  0  0  0
 27 83  1  0  0  0  0
 28 84  1  0  0  0  0
 29 31  2  0  0  0  0
 29 83  1  0  0  0  0
 30 85  1  0  0  0  0
 31 86  1  0  0  0  0
 32 66  2  0  0  0  0
 33 67  1  0  0  0  0
 33 71  1  0  0  0  0
 34 68  1  0  0  0  0
 34 76  2  0  0  0  0
 35 72  1  0  0  0  0
 35 78  2  0  0  0  0
 36 53  1  0  0  0  0
 36 74  1  0  0  0  0
 36 79  2  0  0  0  0
 37 63  1  0  0  0  0
 37 69  1  0  0  0  0
 37 80  2  0  0  0  0
 38 64  1  0  0  0  0
 38 75  1  0  0  0  0
 38 81  2  0  0  0  0
 39 70  1  0  0  0  0
 39 73  1  0  0  0  0
 39 82  2  0  0  0  0
 40 43  1  0  0  0  0
 41 53  1  0  0  0  0
 42 69  1  0  0  0  0
 43 45  1  0  0  0  0
 44 46  1  0  0  0  0
 44 48  1  0  0  0  0
 45 52  1  0  0  0  0
 46 55  1  0  0  0  0
 47 49  1  0  0  0  0
 47 54  1  0  0  0  0
 48 70  1  0  0  0  0
 49 68  1  0  0  0  0
 50 54  1  0  0  0  0
 50 68  1  0  0  0  0
 51 55  1  0  0  0  0
 51 70  1  0  0  0  0
 52 74  1  0  0  0  0
 53 69  1  0  0  0  0
 54 62  1  0  0  0  0
 55 67  1  0  0  0  0
 57 64  1  0  0  0  0
 58 65  1  0  0  0  0
 59 65  1  0  0  0  0
 60 65  1  0  0  0  0
 61 77  1  0  0  0  0
 62 84  1  0  0  0  0
 63 65  1  0  0  0  0
 63 75  1  0  0  0  0
 64 77  1  0  0  0  0
 66 67  1  0  0  0  0
M  CHG  2  76   1  77   1
M  ISO  4  39 100  62 101  73 100  84 101
M  END
> <Batch ID>
0146

> <Smiles>
CNC(C)C(=O)NC(C(=O)N1Cc2cc([101O:1][101CH2:1]C3CCN(C(=N)c4cc(C)cc([100NH:0][100C:0](=O)N5CCCC(n6nc(-c7ccc(Oc8ccc(F)cc8F)cc7)c(C(N)=O)c6N)C5)c4)C3)ccc2CC1C(=O)NC1CCCc2ccccc21)C(C)(C)C

> <Shape>
0.245

> <Color>
0.092

> <Negative vol penalty>
0.000

$$$$

  -OEChem-04052303103D

 88 97  0     1  0  0  0  0  0999 V2000
  -18.6877  -32.7569   21.6840 C   0  0  0  0  0  0  0  0  0  0  0  0
  -19.9572  -32.1881   21.7034 C   0  0  0  0  0  0  0  0  0  0  0  0
  -26.5449  -12.8473   20.3675 C   0  0  0  0  0  0  0  0  0  0  0  0
  -24.7543  -14.4650   20.2494 C   0  0  0  0  0  0  0  0  0  0  0  0
  -30.3475  -25.1359   21.7207 C   0  0  0  0  0  0  0  0  0  0  0  0
  -17.6098  -32.0725   22.2440 C   0  0  0  0  0  0  0  0  0  0  0  0
  -20.1496  -30.9349   22.2840 C   0  0  0  0  0  0  0  0  0  0  0  0
  -23.0549  -27.9064   19.4498 C   0  0  0  0  0  0  0  0  0  0  0  0
  -29.6935  -23.9970   22.1906 C   0  0  0  0  0  0  0  0  0  0  0  0
  -25.6294  -11.8179   20.1489 C   0  0  0  0  0  0  0  0  0  0  0  0
  -23.8388  -13.4356   20.0308 C   0  0  0  0  0  0  0  0  0  0  0  0
  -24.4310  -28.1270   19.4870 C   0  0  0  0  0  0  0  0  0  0  0  0
  -23.3478  -10.0907   21.9476 C   0  0  0  0  0  0  0  0  0  0  0  0
  -23.4465   -8.9550   22.7513 C   0  0  0  0  0  0  0  0  0  0  0  0
  -24.6765  -26.2954   21.0376 C   0  0  0  0  0  0  0  0  0  0  0  0
  -29.8367  -23.0074   19.9912 C   0  0  0  0  0  0  0  0  0  0  0  0
  -23.8105   -7.5964   20.7869 C   0  0  0  0  0  0  0  0  0  0  0  0
  -26.1074  -14.1708   20.4178 C   0  0  0  0  0  0  0  0  0  0  0  0
  -30.7460  -25.2106   20.3861 C   0  0  0  0  0  0  0  0  0  0  0  0
  -28.1636  -15.5685   19.8468 C   0  0  0  0  0  0  0  0  0  0  0  0
  -17.7874  -30.8061   22.8231 C   0  0  0  0  0  0  0  0  0  0  0  0
  -22.4769  -26.8839   20.2159 C   0  0  0  0  0  0  0  0  0  0  0  0
  -19.0733  -30.2335   22.8535 C   0  0  0  0  0  0  0  0  0  0  0  0
  -23.2932  -26.0622   21.0063 C   0  0  0  0  0  0  0  0  0  0  0  0
  -29.4381  -22.9328   21.3259 C   0  0  0  0  0  0  0  0  0  0  0  0
  -24.2763  -12.1120   19.9805 C   0  0  0  0  0  0  0  0  0  0  0  0
  -25.2417  -27.3233   20.2832 C   0  0  0  0  0  0  0  0  0  0  0  0
  -23.4803   -9.9793   20.5635 C   0  0  0  0  0  0  0  0  0  0  0  0
  -23.6779   -7.7079   22.1710 C   0  0  0  0  0  0  0  0  0  0  0  0
  -30.4907  -24.1464   19.5213 C   0  0  0  0  0  0  0  0  0  0  0  0
  -23.7117   -8.7321   19.9832 C   0  0  0  0  0  0  0  0  0  0  0  0
  -27.0525  -15.2346   20.6442 C   0  0  0  0  0  0  0  0  0  0  0  0
  -28.7337  -16.6428   20.4850 C   0  0  0  0  0  0  0  0  0  0  0  0
  -31.4363  -26.4157   19.8925 C   0  0  0  0  0  0  0  0  0  0  0  0
  -28.6377  -14.9620   18.6373 C   0  0  0  0  0  0  0  0  0  0  0  0
  -20.3531  -26.7782   22.5785 C   0  0  0  0  0  0  0  0  0  0  0  0
  -20.6281  -23.5733   22.1599 C   0  0  0  0  0  0  0  0  0  0  0  0
  -23.2915  -21.2153   21.5571 C   0  0  0  0  0  0  0  0  0  0  0  0
  -28.3125  -21.5412   23.0987 C   0  0  0  0  0  0  0  0  0  0  0  0
  -16.6008  -30.1254   23.4582 C   0  0  0  0  0  0  0  0  0  0  0  0
  -20.9942  -26.6417   20.1441 C   0  0  0  0  0  0  0  0  0  0  0  0
  -22.7245  -24.9382   21.8319 C   0  0  0  0  0  0  0  0  0  0  0  0
  -16.8201  -28.6375   23.7197 C   0  0  0  0  0  0  0  0  0  0  0  0
  -27.8396  -18.6092   25.0627 C   0  0  0  0  0  0  0  0  0  0  0  0
  -30.4538  -29.4593   18.0658 C   0  0  0  0  0  0  0  0  0  0  0  0
  -18.1797  -28.4047   24.3709 C   0  0  0  0  0  0  0  0  0  0  0  0
  -27.6841  -17.4974   24.0226 C   0  0  0  0  0  0  0  0  0  0  0  0
  -29.1900  -29.8360   18.8407 C   0  0  0  0  0  0  0  0  0  0  0  0
  -31.4100  -28.6269   18.9009 C   0  0  0  0  0  0  0  0  0  0  0  0
  -27.1889  -19.9122   24.6016 C   0  0  0  0  0  0  0  0  0  0  0  0
  -27.4592  -19.2726   22.2379 C   0  0  0  0  0  0  0  0  0  0  0  0
  -29.2480  -27.3326   19.3349 C   0  0  0  0  0  0  0  0  0  0  0  0
  -19.3176  -28.8652   23.4519 C   0  0  1  0  0  0  0  0  0  0  0  0
  -20.4499  -25.9016   21.3620 C   0  0  1  0  0  0  0  0  0  0  0  0
  -28.1553  -17.9589   22.6296 C   0  0  2  0  0  0  0  0  0  0  0  0
  -28.6217  -28.6874   19.7162 C   0  0  1  0  0  0  0  0  0  0  0  0
  -28.8909  -28.9820   21.2066 C   0  0  0  0  0  0  0  0  0  0  0  0
  -23.2636  -18.9779   20.4210 C   0  0  0  0  0  0  0  0  0  0  0  0
  -20.2539  -22.4698   24.9800 C   0  0  0  0  0  0  0  0  0  0  0  0
  -21.7588  -20.5674   24.3601 C   0  0  0  0  0  0  0  0  0  0  0  0
  -19.6029  -20.8957   23.1489 C   0  0  0  0  0  0  0  0  0  0  0  0
  -25.4165  -22.0216   19.6614 C   0  0  0  0  0  0  0  0  0  0  0  0
  -27.0968  -28.6017   19.5215 C   0  0  0  0  0  0  0  0  0  1  0  0
  -21.5168  -22.4933   22.7281 C   0  0  1  0  0  0  0  0  0  0  0  0
  -23.5630  -20.4610   20.2679 C   0  0  2  0  0  0  0  0  0  0  0  0
  -20.7920  -21.6334   23.8019 C   0  0  0  0  0  0  0  0  0  0  0  0
  -26.9229  -16.0320   21.7078 N   0  0  0  0  0  0  0  0  0  0  0  0
  -27.9599  -16.8776   21.5833 N   0  0  0  0  0  0  0  0  0  0  0  0
  -30.7228  -27.4184   19.3963 N   0  0  0  0  0  0  0  0  0  0  0  0
  -21.2683  -24.7453   21.7330 N   0  0  0  0  0  0  0  0  0  0  0  0
  -27.6863  -20.2894   23.2768 N   0  0  0  0  0  0  0  0  0  0  0  0
  -29.8166  -17.4000   20.2083 N   0  0  0  0  0  0  0  0  0  0  0  0
  -27.9333  -13.8671   18.1181 N   0  0  0  0  0  0  0  0  0  0  0  0
  -28.7740  -21.7760   21.8039 N   0  0  0  0  0  0  0  0  0  0  0  0
  -19.5505  -27.8901   22.4082 N   0  0  0  0  0  0  0  0  0  0  0  0
  -22.0131  -21.7310   21.5875 N   0  0  0  0  0  0  0  0  0  0  0  0
  -32.7631  -26.4798   19.9538 N   0  3  0  0  0  0  0  0  0  0  0  0
  -24.9909  -20.6136   19.8694 N   0  3  0  0  0  0  0  0  0  0  0  0
  -29.6654  -15.3682   18.0436 O   0  0  0  0  0  0  0  0  0  0  0  0
  -20.9603  -26.4679   23.5967 O   0  0  0  0  0  0  0  0  0  0  0  0
  -19.4116  -23.3811   22.0907 O   0  0  0  0  0  0  0  0  0  0  0  0
  -24.1285  -21.3319   22.4495 O   0  0  0  0  0  0  0  0  0  0  0  0
  -28.4551  -22.3343   24.0328 O   0  0  0  0  0  0  0  0  0  0  0  0
  -23.3827  -11.1078   19.7669 O   0  0  0  0  0  0  0  0  0  0  0  0
  -26.5851  -27.5368   20.3219 O   0  0  0  0  0  0  0  0  0  1  0  0
  -23.7743   -6.6176   22.9431 F   0  0  0  0  0  0  0  0  0  0  0  0
  -30.8681  -24.2097   18.2367 F   0  0  0  0  0  0  0  0  0  0  0  0
  -23.8410   -8.6190   18.6542 F   0  0  0  0  0  0  0  0  0  0  0  0
  1  2  1  0  0  0  0
  1  6  2  0  0  0  0
  2  7  2  0  0  0  0
  3 10  2  0  0  0  0
  3 18  1  0  0  0  0
  4 11  1  0  0  0  0
  4 18  2  0  0  0  0
  5  9  2  0  0  0  0
  5 19  1  0  0  0  0
  6 21  1  0  0  0  0
  7 23  1  0  0  0  0
  8 12  2  0  0  0  0
  8 22  1  0  0  0  0
  9 25  1  0  0  0  0
 10 26  1  0  0  0  0
 11 26  2  0  0  0  0
 12 27  1  0  0  0  0
 13 14  2  0  0  0  0
 13 28  1  0  0  0  0
 14 29  1  0  0  0  0
 15 24  1  0  0  0  0
 15 27  2  0  0  0  0
 16 25  2  0  0  0  0
 16 30  1  0  0  0  0
 17 29  2  0  0  0  0
 17 31  1  0  0  0  0
 18 32  1  0  0  0  0
 19 30  2  0  0  0  0
 19 34  1  0  0  0  0
 20 32  1  0  0  0  0
 20 33  2  0  0  0  0
 20 35  1  0  0  0  0
 21 23  2  0  0  0  0
 21 40  1  0  0  0  0
 22 24  2  0  0  0  0
 22 41  1  0  0  0  0
 23 53  1  0  0  0  0
 24 42  1  0  0  0  0
 25 74  1  0  0  0  0
 26 84  1  0  0  0  0
 27 85  1  0  0  0  0
 28 31  2  0  0  0  0
 28 84  1  0  0  0  0
 29 86  1  0  0  0  0
 30 87  1  0  0  0  0
 31 88  1  0  0  0  0
 32 67  2  0  0  0  0
 33 68  1  0  0  0  0
 33 72  1  0  0  0  0
 34 69  1  0  0  0  0
 34 77  2  0  0  0  0
 35 73  1  0  0  0  0
 35 79  2  0  0  0  0
 36 54  1  0  0  0  0
 36 75  1  0  0  0  0
 36 80  2  0  0  0  0
 37 64  1  0  0  0  0
 37 70  1  0  0  0  0
 37 81  2  0  0  0  0
 38 65  1  0  0  0  0
 38 76  1  0  0  0  0
 38 82  2  0  0  0  0
 39 71  1  0  0  0  0
 39 74  1  0  0  0  0
 39 83  2  0  0  0  0
 40 43  1  0  0  0  0
 41 54  1  0  0  0  0
 42 70  1  0  0  0  0
 43 46  1  0  0  0  0
 44 47  1  0  0  0  0
 44 50  1  0  0  0  0
 45 48  1  0  0  0  0
 45 49  1  0  0  0  0
 46 53  1  0  0  0  0
 47 55  1  0  0  0  0
 48 56  1  0  0  0  0
 49 69  1  0  0  0  0
 50 71  1  0  0  0  0
 51 55  1  0  0  0  0
 51 71  1  0  0  0  0
 52 56  1  0  0  0  0
 52 69  1  0  0  0  0
 53 75  1  0  0  0  0
 54 70  1  0  0  0  0
 55 68  1  0  0  0  0
 56 57  1  0  0  0  0
 56 63  1  0  0  0  0
 58 65  1  0  0  0  0
 59 66  1  0  0  0  0
 60 66  1  0  0  0  0
 61 66  1  0  0  0  0
 62 78  1  0  0  0  0
 63 85  1  0  0  0  0
 64 66  1  0  0  0  0
 64 76  1  0  0  0  0
 65 78  1  0  0  0  0
 67 68  1  0  0  0  0
M  CHG  2  77   1  78   1
M  ISO  4  39 100  63 101  74 100  85 101
M  END
> <Batch ID>
0146

> <Smiles>
CNC(C)C(=O)NC(C(=O)N1Cc2cc([101O:1][101CH2:1]C3(C)CCCN(C(=N)c4ccc([100NH:0][100C:0](=O)N5CCCC(n6nc(-c7ccc(Oc8ccc(F)cc8F)cc7)c(C(N)=O)c6N)C5)cc4F)C3)ccc2CC1C(=O)NC1CCCc2ccccc21)C(C)(C)C

> <Shape>
0.236

> <Color>
0.055

> <Negative vol penalty>
0.000

$$$$

  -OEChem-04052303103D

 85 95  0     1  0  0  0  0  0999 V2000
  -18.4473  -25.7525   19.8538 C   0  0  0  0  0  0  0  0  0  0  0  0
  -19.5143  -26.4613   19.3111 C   0  0  0  0  0  0  0  0  0  0  0  0
  -26.3467  -14.6208   20.9819 C   0  0  0  0  0  0  0  0  0  0  0  0
  -26.4865  -14.8292   18.5789 C   0  0  0  0  0  0  0  0  0  0  0  0
  -18.1416  -25.8834   21.2078 C   0  0  0  0  0  0  0  0  0  0  0  0
  -20.2756  -27.3023   20.1220 C   0  0  0  0  0  0  0  0  0  0  0  0
  -25.2511  -26.7715   19.3425 C   0  0  0  0  0  0  0  0  0  0  0  0
  -30.0569  -25.9891   16.1117 C   0  0  0  0  0  0  0  0  0  0  0  0
  -29.5614  -24.7485   16.5173 C   0  0  0  0  0  0  0  0  0  0  0  0
  -25.2907  -13.7203   20.8423 C   0  0  0  0  0  0  0  0  0  0  0  0
  -25.4306  -13.9286   18.4394 C   0  0  0  0  0  0  0  0  0  0  0  0
  -25.7878  -27.3870   18.2125 C   0  0  0  0  0  0  0  0  0  0  0  0
  -24.8900  -10.4494   20.0848 C   0  0  0  0  0  0  0  0  0  0  0  0
  -24.9181   -9.2919   20.8626 C   0  0  0  0  0  0  0  0  0  0  0  0
  -29.8355  -26.9081   18.3794 C   0  0  0  0  0  0  0  0  0  0  0  0
  -26.5722  -29.2090   19.5851 C   0  0  0  0  0  0  0  0  0  0  0  0
  -22.8247   -9.9291   21.8866 C   0  0  0  0  0  0  0  0  0  0  0  0
  -26.9446  -15.1754   19.8502 C   0  0  0  0  0  0  0  0  0  0  0  0
  -29.4090  -15.8042   20.0473 C   0  0  0  0  0  0  0  0  0  0  0  0
  -18.9054  -26.7190   22.0377 C   0  0  0  0  0  0  0  0  0  0  0  0
  -25.3616  -27.3764   20.6027 C   0  0  0  0  0  0  0  0  0  0  0  0
  -19.9789  -27.4456   21.4881 C   0  0  0  0  0  0  0  0  0  0  0  0
  -29.3511  -25.6847   18.7546 C   0  0  0  0  0  0  0  0  0  0  0  0
  -26.0383  -28.5979   20.7299 C   0  0  0  0  0  0  0  0  0  0  0  0
  -30.1921  -27.0580   17.0317 C   0  0  0  0  0  0  0  0  0  0  0  0
  -29.2249  -24.6700   17.8388 C   0  0  0  0  0  0  0  0  0  0  0  0
  -24.8327  -13.3741   19.5711 C   0  0  0  0  0  0  0  0  0  0  0  0
  -26.4459  -28.6074   18.3333 C   0  0  0  0  0  0  0  0  0  0  0  0
  -23.8293  -11.3468   20.2080 C   0  0  0  0  0  0  0  0  0  0  0  0
  -23.8855   -9.0317   21.7635 C   0  0  0  0  0  0  0  0  0  0  0  0
  -22.7966  -11.0867   21.1088 C   0  0  0  0  0  0  0  0  0  0  0  0
  -28.0350  -16.1062   19.9937 C   0  0  0  0  0  0  0  0  0  0  0  0
  -30.0235  -17.0244   20.1881 C   0  0  0  0  0  0  0  0  0  0  0  0
  -30.0706  -14.5342   19.9761 C   0  0  0  0  0  0  0  0  0  0  0  0
  -23.2942  -28.4789   22.7507 C   0  0  0  0  0  0  0  0  0  0  0  0
  -25.9676  -28.8799   24.5435 C   0  0  0  0  0  0  0  0  0  0  0  0
  -29.3519  -29.3087   24.6430 C   0  0  0  0  0  0  0  0  0  0  0  0
  -28.4893  -22.4401   18.6164 C   0  0  0  0  0  0  0  0  0  0  0  0
  -18.5075  -26.8647   23.4851 C   0  0  0  0  0  0  0  0  0  0  0  0
  -24.8006  -26.6865   21.8159 C   0  0  0  0  0  0  0  0  0  0  0  0
  -28.8178  -24.7975   19.8410 C   0  0  0  0  0  0  0  0  0  0  0  0
  -26.2017  -29.2788   22.0633 C   0  0  0  0  0  0  0  0  0  0  0  0
  -19.5952  -27.4881   24.3561 C   0  0  0  0  0  0  0  0  0  0  0  0
  -29.2559  -21.4138   21.9581 C   0  0  0  0  0  0  0  0  0  0  0  0
  -29.5037  -31.0842   14.6788 C   0  0  0  0  0  0  0  0  0  0  0  0
  -20.1844  -28.7191   23.6748 C   0  0  0  0  0  0  0  0  0  0  0  0
  -29.1944  -19.8899   21.8251 C   0  0  0  0  0  0  0  0  0  0  0  0
  -28.1686  -30.3792   14.8134 C   0  0  0  0  0  0  0  0  0  0  0  0
  -28.1486  -22.0754   21.1444 C   0  0  0  0  0  0  0  0  0  0  0  0
  -28.0589  -20.2042   19.5727 C   0  0  0  0  0  0  0  0  0  0  0  0
  -30.2054  -30.7757   15.9874 C   0  0  0  0  0  0  0  0  0  0  0  0
  -20.8435  -28.3488   22.3406 C   0  0  1  0  0  0  0  0  0  0  0  0
  -24.5226  -27.6425   22.9718 C   0  0  1  0  0  0  0  0  0  0  0  0
  -29.1582  -19.4518   20.3476 C   0  0  2  0  0  0  0  0  0  0  0  0
  -28.5545  -29.0470   15.4391 C   0  0  2  0  0  0  0  0  0  0  0  0
  -31.2484  -29.6451   26.2515 C   0  0  0  0  0  0  0  0  0  0  0  0
  -25.1213  -31.7858   24.9300 C   0  0  0  0  0  0  0  0  0  0  0  0
  -27.4501  -32.2888   25.6995 C   0  0  0  0  0  0  0  0  0  0  0  0
  -26.0345  -30.6836   26.9808 C   0  0  0  0  0  0  0  0  0  0  0  0
  -30.6830  -26.8117   23.7760 C   0  0  0  0  0  0  0  0  0  0  0  0
  -30.7223  -28.3698   16.5534 C   0  0  0  0  0  0  0  0  0  0  0  0
  -27.4140  -28.3675   16.1743 C   0  0  0  0  0  0  0  0  0  1  0  0
  -26.9691  -29.9931   24.7355 C   0  0  1  0  0  0  0  0  0  0  0  0
  -30.4293  -28.6301   25.4694 C   0  0  2  0  0  0  0  0  0  0  0  0
  -26.3892  -31.1762   25.5609 C   0  0  0  0  0  0  0  0  0  0  0  0
  -27.7907  -17.4156   20.0925 N   0  0  0  0  0  0  0  0  0  0  0  0
  -29.0194  -17.9472   20.2097 N   0  0  0  0  0  0  0  0  0  0  0  0
  -28.7424  -23.7784   18.7765 N   0  0  0  0  0  0  0  0  0  0  0  0
  -25.6304  -28.5677   23.2189 N   0  0  0  0  0  0  0  0  0  0  0  0
  -28.2302  -21.6536   19.7438 N   0  0  0  0  0  0  0  0  0  0  0  0
  -31.3194  -17.3874   20.2943 N   0  0  0  0  0  0  0  0  0  0  0  0
  -29.2882  -13.3804   19.8313 N   0  0  0  0  0  0  0  0  0  0  0  0
  -22.1385  -27.7438   22.5674 N   0  0  0  0  0  0  0  0  0  0  0  0
  -28.1546  -29.3788   25.3234 N   0  0  0  0  0  0  0  0  0  0  0  0
  -29.6640  -29.4211   16.4125 N   0  3  1  0  0  0  0  0  0  0  0  0
  -31.3519  -27.8614   24.5869 N   0  3  0  0  0  0  0  0  0  0  0  0
  -31.3177  -14.4243   20.0556 O   0  0  0  0  0  0  0  0  0  0  0  0
  -23.3876  -29.7008   22.7482 O   0  0  0  0  0  0  0  0  0  0  0  0
  -25.5071  -28.3037   25.5322 O   0  0  0  0  0  0  0  0  0  0  0  0
  -29.5533  -29.7374   23.5089 O   0  0  0  0  0  0  0  0  0  0  0  0
  -28.5268  -21.9336   17.4850 O   0  0  0  0  0  0  0  0  0  0  0  0
  -23.8024  -12.4952   19.4345 O   0  0  0  0  0  0  0  0  0  0  0  0
  -26.9744  -29.2156   17.2229 O   0  0  0  0  0  0  0  0  0  1  0  0
  -23.9118   -7.9194   22.5092 F   0  0  0  0  0  0  0  0  0  0  0  0
  -21.7743  -11.9445   21.2307 F   0  0  0  0  0  0  0  0  0  0  0  0
  1  2  1  0  0  0  0
  1  5  2  0  0  0  0
  2  6  2  0  0  0  0
  3 10  2  0  0  0  0
  3 18  1  0  0  0  0
  4 11  1  0  0  0  0
  4 18  2  0  0  0  0
  5 20  1  0  0  0  0
  6 22  1  0  0  0  0
  7 12  2  0  0  0  0
  7 21  1  0  0  0  0
  8  9  2  0  0  0  0
  8 25  1  0  0  0  0
  9 26  1  0  0  0  0
 10 27  1  0  0  0  0
 11 27  2  0  0  0  0
 12 28  1  0  0  0  0
 13 14  2  0  0  0  0
 13 29  1  0  0  0  0
 14 30  1  0  0  0  0
 15 23  1  0  0  0  0
 15 25  2  0  0  0  0
 16 24  1  0  0  0  0
 16 28  2  0  0  0  0
 17 30  2  0  0  0  0
 17 31  1  0  0  0  0
 18 32  1  0  0  0  0
 19 32  1  0  0  0  0
 19 33  2  0  0  0  0
 19 34  1  0  0  0  0
 20 22  2  0  0  0  0
 20 39  1  0  0  0  0
 21 24  2  0  0  0  0
 21 40  1  0  0  0  0
 22 52  1  0  0  0  0
 23 26  2  0  0  0  0
 23 41  1  0  0  0  0
 24 42  1  0  0  0  0
 25 61  1  0  0  0  0
 26 68  1  0  0  0  0
 27 82  1  0  0  0  0
 28 83  1  0  0  0  0
 29 31  2  0  0  0  0
 29 82  1  0  0  0  0
 30 84  1  0  0  0  0
 31 85  1  0  0  0  0
 32 66  2  0  0  0  0
 33 67  1  0  0  0  0
 33 71  1  0  0  0  0
 34 72  1  0  0  0  0
 34 77  2  0  0  0  0
 35 53  1  0  0  0  0
 35 73  1  0  0  0  0
 35 78  2  0  0  0  0
 36 63  1  0  0  0  0
 36 69  1  0  0  0  0
 36 79  2  0  0  0  0
 37 64  1  0  0  0  0
 37 74  1  0  0  0  0
 37 80  2  0  0  0  0
 38 68  1  0  0  0  0
 38 70  1  0  0  0  0
 38 81  2  0  0  0  0
 39 43  1  0  0  0  0
 40 53  1  0  0  0  0
 41 68  1  0  0  0  0
 42 69  1  0  0  0  0
 43 46  1  0  0  0  0
 44 47  1  0  0  0  0
 44 49  1  0  0  0  0
 45 48  1  0  0  0  0
 45 51  1  0  0  0  0
 46 52  1  0  0  0  0
 47 54  1  0  0  0  0
 48 55  1  0  0  0  0
 49 70  1  0  0  0  0
 50 54  1  0  0  0  0
 50 70  1  0  0  0  0
 51 75  1  0  0  0  0
 52 73  1  0  0  0  0
 53 69  1  0  0  0  0
 54 67  1  0  0  0  0
 55 62  1  0  0  0  0
 55 75  1  0  0  0  0
 56 64  1  0  0  0  0
 57 65  1  0  0  0  0
 58 65  1  0  0  0  0
 59 65  1  0  0  0  0
 60 76  1  0  0  0  0
 61 75  1  0  0  0  0
 62 83  1  0  0  0  0
 63 65  1  0  0  0  0
 63 74  1  0  0  0  0
 64 76  1  0  0  0  0
 66 67  1  0  0  0  0
M  CHG  2  75   1  76   1
M  ISO  4  38 100  62 101  68 100  83 101
M  END
> <Batch ID>
0146

> <Smiles>
CNC(C)C(=O)NC(C(=O)N1Cc2cc([101O:1][101CH2:1]C3CCCN3Cc3ccc4c(c3)C[100N:0]4[100C:0](=O)N3CCCC(n4nc(-c5ccc(Oc6ccc(F)cc6F)cc5)c(C(N)=O)c4N)C3)ccc2CC1C(=O)NC1CCCc2ccccc21)C(C)(C)C

> <Shape>
0.304

> <Color>
0.074

> <Negative vol penalty>
0.000

$$$$

  -OEChem-04052303103D

 83 92  0     1  0  0  0  0  0999 V2000
  -26.4071  -33.4375   26.5224 C   0  0  0  0  0  0  0  0  0  0  0  0
  -27.0485  -32.3149   27.0362 C   0  0  0  0  0  0  0  0  0  0  0  0
  -23.0662   -9.7996   20.0506 C   0  0  0  0  0  0  0  0  0  0  0  0
  -23.7839   -9.9536   22.3524 C   0  0  0  0  0  0  0  0  0  0  0  0
  -25.5900  -33.3190   25.3990 C   0  0  0  0  0  0  0  0  0  0  0  0
  -26.8722  -31.0729   26.4273 C   0  0  0  0  0  0  0  0  0  0  0  0
  -32.6365  -17.5753   23.2312 C   0  0  0  0  0  0  0  0  0  0  0  0
  -30.4487  -18.4757   23.7213 C   0  0  0  0  0  0  0  0  0  0  0  0
  -31.0260  -26.6021   25.9131 C   0  0  0  0  0  0  0  0  0  0  0  0
  -32.0588  -16.6371   22.3759 C   0  0  0  0  0  0  0  0  0  0  0  0
  -29.8710  -17.5374   22.8660 C   0  0  0  0  0  0  0  0  0  0  0  0
  -22.3084   -8.6708   20.3624 C   0  0  0  0  0  0  0  0  0  0  0  0
  -23.0261   -8.8248   22.6642 C   0  0  0  0  0  0  0  0  0  0  0  0
  -31.2478  -25.4388   26.6487 C   0  0  0  0  0  0  0  0  0  0  0  0
  -19.7810   -8.0912   23.2573 C   0  0  0  0  0  0  0  0  0  0  0  0
  -19.0024   -8.1343   24.4138 C   0  0  0  0  0  0  0  0  0  0  0  0
  -29.9639  -24.1829   25.0383 C   0  0  0  0  0  0  0  0  0  0  0  0
  -20.2142   -6.2415   25.3003 C   0  0  0  0  0  0  0  0  0  0  0  0
  -23.8040  -10.4410   21.0457 C   0  0  0  0  0  0  0  0  0  0  0  0
  -24.1686  -12.9502   20.7651 C   0  0  0  0  0  0  0  0  0  0  0  0
  -31.8314  -18.4946   23.9040 C   0  0  0  0  0  0  0  0  0  0  0  0
  -25.4113  -32.0766   24.7703 C   0  0  0  0  0  0  0  0  0  0  0  0
  -30.2610  -26.5665   24.7384 C   0  0  0  0  0  0  0  0  0  0  0  0
  -26.0509  -30.9374   25.2952 C   0  0  0  0  0  0  0  0  0  0  0  0
  -29.7359  -25.3467   24.2883 C   0  0  0  0  0  0  0  0  0  0  0  0
  -30.6760  -16.6181   22.1933 C   0  0  0  0  0  0  0  0  0  0  0  0
  -22.2884   -8.1834   21.6692 C   0  0  0  0  0  0  0  0  0  0  0  0
  -30.7143  -24.2294   26.2129 C   0  0  0  0  0  0  0  0  0  0  0  0
  -20.7762   -7.1231   23.1222 C   0  0  0  0  0  0  0  0  0  0  0  0
  -19.2190   -7.2095   25.4353 C   0  0  0  0  0  0  0  0  0  0  0  0
  -20.9928   -6.1983   24.1437 C   0  0  0  0  0  0  0  0  0  0  0  0
  -24.5874  -11.6068   20.7241 C   0  0  0  0  0  0  0  0  0  0  0  0
  -25.2733  -13.6663   20.3736 C   0  0  0  0  0  0  0  0  0  0  0  0
  -22.8949  -13.5015   21.1249 C   0  0  0  0  0  0  0  0  0  0  0  0
  -31.8650  -20.8724   26.9043 C   0  0  0  0  0  0  0  0  0  0  0  0
  -27.5378  -27.9064   23.7935 C   0  0  0  0  0  0  0  0  0  0  0  0
  -28.3112  -26.5514   20.9495 C   0  0  0  0  0  0  0  0  0  0  0  0
  -30.0165  -24.1211   19.2667 C   0  0  0  0  0  0  0  0  0  0  0  0
  -30.7437  -14.6832   20.5816 C   0  0  0  0  0  0  0  0  0  0  0  0
  -24.4808  -31.9892   23.5865 C   0  0  0  0  0  0  0  0  0  0  0  0
  -30.0533  -27.8255   23.9421 C   0  0  0  0  0  0  0  0  0  0  0  0
  -28.9246  -25.2514   23.0229 C   0  0  0  0  0  0  0  0  0  0  0  0
  -24.6443  -30.7056   22.7767 C   0  0  0  0  0  0  0  0  0  0  0  0
  -29.6533  -12.1252   18.3579 C   0  0  0  0  0  0  0  0  0  0  0  0
  -24.7001  -29.4941   23.7020 C   0  0  0  0  0  0  0  0  0  0  0  0
  -28.2036  -11.8728   18.7786 C   0  0  0  0  0  0  0  0  0  0  0  0
  -33.3449  -19.0218   25.9304 C   0  0  0  0  0  0  0  0  0  0  0  0
  -30.5480  -12.4269   19.5587 C   0  0  0  0  0  0  0  0  0  0  0  0
  -28.6220  -13.2547   20.8528 C   0  0  0  0  0  0  0  0  0  0  0  0
  -32.4455  -19.4921   24.8133 C   0  0  2  0  0  0  0  0  0  0  0  0
  -25.9042  -29.5774   24.6479 C   0  0  1  0  0  0  0  0  0  0  0  0
  -31.9843  -19.5402   26.2457 C   0  0  2  0  0  0  0  0  0  0  0  0
  -28.8275  -27.7639   23.0359 C   0  0  1  0  0  0  0  0  0  0  0  0
  -27.6696  -13.0104   19.6709 C   0  0  2  0  0  0  0  0  0  0  0  0
  -30.4234  -23.2439   16.9510 C   0  0  0  0  0  0  0  0  0  0  0  0
  -25.5480  -25.2574   20.9568 C   0  0  0  0  0  0  0  0  0  0  0  0
  -26.3530  -23.6920   19.1765 C   0  0  0  0  0  0  0  0  0  0  0  0
  -26.2778  -26.1462   18.7361 C   0  0  0  0  0  0  0  0  0  0  0  0
  -32.9217  -24.6556   19.4493 C   0  0  0  0  0  0  0  0  0  0  0  0
  -30.9713  -21.8651   26.2027 C   0  0  0  0  0  0  0  0  0  1  0  0
  -28.0424  -25.2196   20.2916 C   0  0  1  0  0  0  0  0  0  0  0  0
  -30.9125  -24.1827   18.0428 C   0  0  2  0  0  0  0  0  0  0  0  0
  -26.5689  -25.0806   19.8152 C   0  0  0  0  0  0  0  0  0  0  0  0
  -25.8588  -11.4746   20.3370 N   0  0  0  0  0  0  0  0  0  0  0  0
  -26.2485  -12.7441   20.1311 N   0  0  0  0  0  0  0  0  0  0  0  0
  -28.7440  -26.5110   22.2825 N   0  0  0  0  0  0  0  0  0  0  0  0
  -29.9815  -13.5176   20.3552 N   0  0  0  0  0  0  0  0  0  0  0  0
  -25.4959  -14.9885   20.2165 N   0  0  0  0  0  0  0  0  0  0  0  0
  -21.8696  -12.6237   21.5025 N   0  0  0  0  0  0  0  0  0  0  0  0
  -30.0891  -15.6650   21.3246 N   0  0  0  0  0  0  0  0  0  0  0  0
  -27.1198  -29.2140   23.9517 N   0  0  0  0  0  0  0  0  0  0  0  0
  -29.0301  -25.0837   19.2265 N   0  0  0  0  0  0  0  0  0  0  0  0
  -32.3072  -23.7997   18.4020 N   0  3  0  0  0  0  0  0  0  0  0  0
  -22.6677  -14.7348   21.0961 O   0  0  0  0  0  0  0  0  0  0  0  0
  -32.4693  -21.1032   27.9441 O   0  0  0  0  0  0  0  0  0  0  0  0
  -26.9637  -26.9042   24.2029 O   0  0  0  0  0  0  0  0  0  0  0  0
  -28.1502  -27.5891   20.3023 O   0  0  0  0  0  0  0  0  0  0  0  0
  -30.1735  -23.2986   20.1664 O   0  0  0  0  0  0  0  0  0  0  0  0
  -31.8826  -14.8126   20.1252 O   0  0  0  0  0  0  0  0  0  0  0  0
  -21.5489   -7.0821   21.9738 O   0  0  0  0  0  0  0  0  0  0  0  0
  -30.9288  -23.0925   26.9294 O   0  0  0  0  0  0  0  0  0  1  0  0
  -18.4723   -7.2520   26.5465 F   0  0  0  0  0  0  0  0  0  0  0  0
  -21.9482   -5.2667   24.0202 F   0  0  0  0  0  0  0  0  0  0  0  0
  1  2  1  0  0  0  0
  1  5  2  0  0  0  0
  2  6  2  0  0  0  0
  3 12  2  0  0  0  0
  3 19  1  0  0  0  0
  4 13  1  0  0  0  0
  4 19  2  0  0  0  0
  5 22  1  0  0  0  0
  6 24  1  0  0  0  0
  7 10  2  0  0  0  0
  7 21  1  0  0  0  0
  8 11  1  0  0  0  0
  8 21  2  0  0  0  0
  9 14  2  0  0  0  0
  9 23  1  0  0  0  0
 10 26  1  0  0  0  0
 11 26  2  0  0  0  0
 12 27  1  0  0  0  0
 13 27  2  0  0  0  0
 14 28  1  0  0  0  0
 15 16  2  0  0  0  0
 15 29  1  0  0  0  0
 16 30  1  0  0  0  0
 17 25  1  0  0  0  0
 17 28  2  0  0  0  0
 18 30  2  0  0  0  0
 18 31  1  0  0  0  0
 19 32  1  0  0  0  0
 20 32  1  0  0  0  0
 20 33  2  0  0  0  0
 20 34  1  0  0  0  0
 21 50  1  0  0  0  0
 22 24  2  0  0  0  0
 22 40  1  0  0  0  0
 23 25  2  0  0  0  0
 23 41  1  0  0  0  0
 24 51  1  0  0  0  0
 25 42  1  0  0  0  0
 26 70  1  0  0  0  0
 27 80  1  0  0  0  0
 28 81  1  0  0  0  0
 29 31  2  0  0  0  0
 29 80  1  0  0  0  0
 30 82  1  0  0  0  0
 31 83  1  0  0  0  0
 32 64  2  0  0  0  0
 33 65  1  0  0  0  0
 33 68  1  0  0  0  0
 34 69  1  0  0  0  0
 34 74  2  0  0  0  0
 35 52  1  0  0  0  0
 35 60  1  0  0  0  0
 35 75  2  0  0  0  0
 36 53  1  0  0  0  0
 36 71  1  0  0  0  0
 36 76  2  0  0  0  0
 37 61  1  0  0  0  0
 37 66  1  0  0  0  0
 37 77  2  0  0  0  0
 38 62  1  0  0  0  0
 38 72  1  0  0  0  0
 38 78  2  0  0  0  0
 39 67  1  0  0  0  0
 39 70  1  0  0  0  0
 39 79  2  0  0  0  0
 40 43  1  0  0  0  0
 41 53  1  0  0  0  0
 42 66  1  0  0  0  0
 43 45  1  0  0  0  0
 44 46  1  0  0  0  0
 44 48  1  0  0  0  0
 45 51  1  0  0  0  0
 46 54  1  0  0  0  0
 47 50  1  0  0  0  0
 47 52  1  0  0  0  0
 48 67  1  0  0  0  0
 49 54  1  0  0  0  0
 49 67  1  0  0  0  0
 50 52  1  0  0  0  0
 51 71  1  0  0  0  0
 53 66  1  0  0  0  0
 54 65  1  0  0  0  0
 55 62  1  0  0  0  0
 56 63  1  0  0  0  0
 57 63  1  0  0  0  0
 58 63  1  0  0  0  0
 59 73  1  0  0  0  0
 60 81  1  0  0  0  0
 61 63  1  0  0  0  0
 61 72  1  0  0  0  0
 62 73  1  0  0  0  0
 64 65  1  0  0  0  0
M  CHG  1  73   1
M  ISO  4  39 100  60 101  70 100  81 101
M  END
> <Batch ID>
0146

> <Smiles>
CNC(C)C(=O)NC(C(=O)N1Cc2cc([101O:1][101CH2:1]C(=O)C3CC3c3ccc([100NH:0][100C:0](=O)N4CCCC(n5nc(-c6ccc(Oc7ccc(F)cc7F)cc6)c(C(N)=O)c5N)C4)cc3)ccc2CC1C(=O)NC1CCCc2ccccc21)C(C)(C)C

> <Shape>
0.295

> <Color>
0.202

> <Negative vol penalty>
0.000

$$$$

  -OEChem-04052303103D

 86 95  0     1  0  0  0  0  0999 V2000
  -24.5903  -11.3671   20.8529 C   0  0  0  0  0  0  0  0  0  0  0  0
  -25.8427  -11.7680   20.4017 C   0  0  0  0  0  0  0  0  0  0  0  0
  -20.0128  -20.3784   22.3663 C   0  0  0  0  0  0  0  0  0  0  0  0
  -17.8389  -21.3433   21.9419 C   0  0  0  0  0  0  0  0  0  0  0  0
  -23.6205  -12.3234   21.1466 C   0  0  0  0  0  0  0  0  0  0  0  0
  -26.1298  -13.1256   20.2555 C   0  0  0  0  0  0  0  0  0  0  0  0
  -30.4102  -19.5909   18.4945 C   0  0  0  0  0  0  0  0  0  0  0  0
  -19.6407  -19.2315   21.6651 C   0  0  0  0  0  0  0  0  0  0  0  0
  -17.4667  -20.1964   21.2406 C   0  0  0  0  0  0  0  0  0  0  0  0
  -30.3031  -20.9474   18.1910 C   0  0  0  0  0  0  0  0  0  0  0  0
  -19.3470  -18.2715   18.4363 C   0  0  0  0  0  0  0  0  0  0  0  0
  -20.2605  -17.7451   17.5231 C   0  0  0  0  0  0  0  0  0  0  0  0
  -29.0730  -21.3016   20.2356 C   0  0  0  0  0  0  0  0  0  0  0  0
  -24.6505  -29.2958   20.2020 C   0  0  0  0  0  0  0  0  0  0  0  0
  -20.3037  -15.6712   18.7618 C   0  0  0  0  0  0  0  0  0  0  0  0
  -19.1119  -21.4343   22.5048 C   0  0  0  0  0  0  0  0  0  0  0  0
  -19.8910  -22.6999   24.5782 C   0  0  0  0  0  0  0  0  0  0  0  0
  -23.8925  -13.6927   20.9918 C   0  0  0  0  0  0  0  0  0  0  0  0
  -29.8391  -19.0767   19.6674 C   0  0  0  0  0  0  0  0  0  0  0  0
  -25.1722  -14.1069   20.5697 C   0  0  0  0  0  0  0  0  0  0  0  0
  -29.1764  -19.9386   20.5529 C   0  0  0  0  0  0  0  0  0  0  0  0
  -26.0286  -29.2336   19.8454 C   0  0  0  0  0  0  0  0  0  0  0  0
  -18.3677  -19.1405   21.1022 C   0  0  0  0  0  0  0  0  0  0  0  0
  -29.6319  -21.8025   19.0601 C   0  0  0  0  0  0  0  0  0  0  0  0
  -18.9118  -17.4978   19.5124 C   0  0  0  0  0  0  0  0  0  0  0  0
  -20.7388  -16.4449   17.6858 C   0  0  0  0  0  0  0  0  0  0  0  0
  -19.3902  -16.1977   19.6751 C   0  0  0  0  0  0  0  0  0  0  0  0
  -19.4955  -22.6191   23.2295 C   0  0  0  0  0  0  0  0  0  0  0  0
  -26.5307  -27.9544   19.9411 C   0  0  0  0  0  0  0  0  0  0  0  0
  -20.1488  -24.0337   24.7811 C   0  0  0  0  0  0  0  0  0  0  0  0
  -24.1517  -28.0615   20.5566 C   0  0  0  0  0  0  0  0  0  0  0  0
  -20.0144  -21.6621   25.5597 C   0  0  0  0  0  0  0  0  0  0  0  0
  -27.5797  -16.9353   20.3103 C   0  0  0  0  0  0  0  0  0  0  0  0
  -28.5182  -17.4412   23.3739 C   0  0  0  0  0  0  0  0  0  0  0  0
  -29.4391  -20.2719   25.4126 C   0  0  0  0  0  0  0  0  0  0  0  0
  -21.7349  -28.4869   21.1262 C   0  0  0  0  0  0  0  0  0  0  0  0
  -22.8088  -14.6853   21.3317 C   0  0  0  0  0  0  0  0  0  0  0  0
  -29.9864  -17.6158   19.9935 C   0  0  0  0  0  0  0  0  0  0  0  0
  -28.5633  -19.4401   21.8351 C   0  0  0  0  0  0  0  0  0  0  0  0
  -23.0542  -16.0637   20.7266 C   0  0  0  0  0  0  0  0  0  0  0  0
  -18.8608  -28.3757   23.2248 C   0  0  0  0  0  0  0  0  0  0  0  0
  -24.4753  -16.5171   21.0256 C   0  0  0  0  0  0  0  0  0  0  0  0
  -28.6069  -26.8833   20.9125 C   0  0  0  0  0  0  0  0  0  0  0  0
  -27.9601  -26.4480   18.4964 C   0  0  0  0  0  0  0  0  0  0  0  0
  -18.7370  -26.8951   23.5919 C   0  0  0  0  0  0  0  0  0  0  0  0
  -30.0243  -26.3884   20.6173 C   0  0  0  0  0  0  0  0  0  0  0  0
  -29.3796  -25.9539   18.2104 C   0  0  0  0  0  0  0  0  0  0  0  0
  -19.3407  -28.5654   21.7870 C   0  0  0  0  0  0  0  0  0  0  0  0
  -20.4509  -26.3662   21.8114 C   0  0  0  0  0  0  0  0  0  0  0  0
  -25.4971  -15.5768   20.3739 C   0  0  1  0  0  0  0  0  0  0  0  0
  -27.9366  -27.4587   19.6544 C   0  0  0  0  0  0  0  0  0  0  0  0
  -28.9222  -17.1095   20.9622 C   0  0  1  0  0  0  0  0  0  0  0  0
  -20.0328  -26.1247   23.2711 C   0  0  2  0  0  0  0  0  0  0  0  0
  -30.0914  -25.3743   19.4533 C   0  0  0  0  0  0  0  0  0  0  0  0
  -31.5686  -25.1100   19.1054 C   0  0  0  0  0  0  0  0  0  0  0  0
  -30.9315  -20.4166   27.4248 C   0  0  0  0  0  0  0  0  0  0  0  0
  -25.9308  -17.1095   24.9568 C   0  0  0  0  0  0  0  0  0  0  0  0
  -26.8211  -18.7527   26.6227 C   0  0  0  0  0  0  0  0  0  0  0  0
  -28.0134  -16.5949   26.2422 C   0  0  0  0  0  0  0  0  0  0  0  0
  -31.1217  -22.3589   24.1587 C   0  0  0  0  0  0  0  0  0  0  0  0
  -26.8188  -30.4142   19.4224 C   0  0  0  0  0  0  0  0  0  0  0  0
  -29.4549  -24.0329   19.8662 C   0  0  0  0  0  0  0  0  0  1  0  0
  -28.1158  -18.3965   24.4714 C   0  0  1  0  0  0  0  0  0  0  0  0
  -30.8286  -20.6125   25.9202 C   0  0  2  0  0  0  0  0  0  0  0  0
  -27.2179  -17.7204   25.5458 C   0  0  0  0  0  0  0  0  0  0  0  0
  -19.5000  -23.8070   22.6188 N   0  0  0  0  0  0  0  0  0  0  0  0
  -19.9013  -24.6468   23.5882 N   0  0  0  0  0  0  0  0  0  0  0  0
  -28.7286  -18.0025   22.1065 N   0  0  0  0  0  0  0  0  0  0  0  0
  -20.5744  -27.8102   21.5576 N   0  0  0  0  0  0  0  0  0  0  0  0
  -20.5606  -24.7300   25.8617 N   0  0  0  0  0  0  0  0  0  0  0  0
  -19.7102  -20.3468   25.1833 N   0  0  0  0  0  0  0  0  0  0  0  0
  -22.8550  -27.6705   20.9732 N   0  0  0  0  0  0  0  0  0  0  0  0
  -26.8203  -15.9147   20.8500 N   0  0  0  0  0  0  0  0  0  0  0  0
  -29.3547  -18.9600   24.9967 N   0  0  0  0  0  0  0  0  0  0  0  0
  -27.4860  -31.1259   20.5523 N   0  3  0  0  0  0  0  0  0  0  0  0
  -31.1612  -22.0311   25.6072 N   0  3  0  0  0  0  0  0  0  0  0  0
  -20.3677  -21.8967   26.7403 O   0  0  0  0  0  0  0  0  0  0  0  0
  -27.2560  -17.6733   19.3871 O   0  0  0  0  0  0  0  0  0  0  0  0
  -28.6482  -16.2423   23.6333 O   0  0  0  0  0  0  0  0  0  0  0  0
  -28.5195  -21.0870   25.3909 O   0  0  0  0  0  0  0  0  0  0  0  0
  -21.7421  -29.7056   20.9346 O   0  0  0  0  0  0  0  0  0  0  0  0
  -18.0043  -18.0216   20.4177 O   0  0  0  0  0  0  0  0  0  0  0  0
  -29.5254  -23.1269   18.7660 O   0  0  0  0  0  0  0  0  0  1  0  0
  -21.6149  -15.9390   16.8079 F   0  0  0  0  0  0  0  0  0  0  0  0
  -18.9749  -15.4492   20.7062 F   0  0  0  0  0  0  0  0  0  0  0  0
  -25.3428  -26.8351   20.4590 S   0  0  0  0  0  0  0  0  0  0  0  0
  1  2  1  0  0  0  0
  1  5  2  0  0  0  0
  2  6  2  0  0  0  0
  3  8  2  0  0  0  0
  3 16  1  0  0  0  0
  4  9  1  0  0  0  0
  4 16  2  0  0  0  0
  5 18  1  0  0  0  0
  6 20  1  0  0  0  0
  7 10  2  0  0  0  0
  7 19  1  0  0  0  0
  8 23  1  0  0  0  0
  9 23  2  0  0  0  0
 10 24  1  0  0  0  0
 11 12  2  0  0  0  0
 11 25  1  0  0  0  0
 12 26  1  0  0  0  0
 13 21  1  0  0  0  0
 13 24  2  0  0  0  0
 14 22  1  0  0  0  0
 14 31  2  0  0  0  0
 15 26  2  0  0  0  0
 15 27  1  0  0  0  0
 16 28  1  0  0  0  0
 17 28  1  0  0  0  0
 17 30  2  0  0  0  0
 17 32  1  0  0  0  0
 18 20  2  0  0  0  0
 18 37  1  0  0  0  0
 19 21  2  0  0  0  0
 19 38  1  0  0  0  0
 20 50  1  0  0  0  0
 21 39  1  0  0  0  0
 22 29  2  0  0  0  0
 22 61  1  0  0  0  0
 23 82  1  0  0  0  0
 24 83  1  0  0  0  0
 25 27  2  0  0  0  0
 25 82  1  0  0  0  0
 26 84  1  0  0  0  0
 27 85  1  0  0  0  0
 28 66  2  0  0  0  0
 29 51  1  0  0  0  0
 29 86  1  0  0  0  0
 30 67  1  0  0  0  0
 30 70  1  0  0  0  0
 31 72  1  0  0  0  0
 31 86  1  0  0  0  0
 32 71  1  0  0  0  0
 32 77  2  0  0  0  0
 33 52  1  0  0  0  0
 33 73  1  0  0  0  0
 33 78  2  0  0  0  0
 34 63  1  0  0  0  0
 34 68  1  0  0  0  0
 34 79  2  0  0  0  0
 35 64  1  0  0  0  0
 35 74  1  0  0  0  0
 35 80  2  0  0  0  0
 36 69  1  0  0  0  0
 36 72  1  0  0  0  0
 36 81  2  0  0  0  0
 37 40  1  0  0  0  0
 38 52  1  0  0  0  0
 39 68  1  0  0  0  0
 40 42  1  0  0  0  0
 41 45  1  0  0  0  0
 41 48  1  0  0  0  0
 42 50  1  0  0  0  0
 43 46  1  0  0  0  0
 43 51  1  0  0  0  0
 44 47  1  0  0  0  0
 44 51  1  0  0  0  0
 45 53  1  0  0  0  0
 46 54  1  0  0  0  0
 47 54  1  0  0  0  0
 48 69  1  0  0  0  0
 49 53  1  0  0  0  0
 49 69  1  0  0  0  0
 50 73  1  0  0  0  0
 52 68  1  0  0  0  0
 53 67  1  0  0  0  0
 54 55  1  0  0  0  0
 54 62  1  0  0  0  0
 56 64  1  0  0  0  0
 57 65  1  0  0  0  0
 58 65  1  0  0  0  0
 59 65  1  0  0  0  0
 60 76  1  0  0  0  0
 61 75  1  0  0  0  0
 62 83  1  0  0  0  0
 63 65  1  0  0  0  0
 63 74  1  0  0  0  0
 64 76  1  0  0  0  0
 66 67  1  0  0  0  0
M  CHG  2  75   1  76   1
M  ISO  4  36 100  62 101  72 100  83 101
M  END
> <Batch ID>
0146

> <Smiles>
CNC(C)C(=O)NC(C(=O)N1Cc2cc([101O:1][101CH2:1]C3(C)CCC(c4sc([100NH:0][100C:0](=O)N5CCCC(n6nc(-c7ccc(Oc8ccc(F)cc8F)cc7)c(C(N)=O)c6N)C5)cc4CN)CC3)ccc2CC1C(=O)NC1CCCc2ccccc21)C(C)(C)C

> <Shape>
0.212

> <Color>
0.058

> <Negative vol penalty>
0.000

$$$$

  -OEChem-04052303103D

 84 92  0     1  0  0  0  0  0999 V2000
  -33.9420  -30.9238   16.4836 C   0  0  0  0  0  0  0  0  0  0  0  0
  -33.4411  -30.2957   17.6194 C   0  0  0  0  0  0  0  0  0  0  0  0
  -23.0712   -9.8744   19.9376 C   0  0  0  0  0  0  0  0  0  0  0  0
  -23.8318   -9.8737   22.2307 C   0  0  0  0  0  0  0  0  0  0  0  0
  -33.1988  -30.9250   15.3040 C   0  0  0  0  0  0  0  0  0  0  0  0
  -32.1960  -29.6693   17.5764 C   0  0  0  0  0  0  0  0  0  0  0  0
  -32.2353  -25.1150   19.7904 C   0  0  0  0  0  0  0  0  0  0  0  0
  -22.3253   -8.7219   20.1845 C   0  0  0  0  0  0  0  0  0  0  0  0
  -23.0859   -8.7212   22.4777 C   0  0  0  0  0  0  0  0  0  0  0  0
  -32.1948  -25.0840   21.1837 C   0  0  0  0  0  0  0  0  0  0  0  0
  -19.9353   -5.9855   20.3061 C   0  0  0  0  0  0  0  0  0  0  0  0
  -18.6294   -5.9412   19.8181 C   0  0  0  0  0  0  0  0  0  0  0  0
  -31.8064  -17.5387   21.7229 C   0  0  0  0  0  0  0  0  0  0  0  0
  -31.8973  -18.7958   22.3874 C   0  0  0  0  0  0  0  0  0  0  0  0
  -29.8305  -24.6124   21.0984 C   0  0  0  0  0  0  0  0  0  0  0  0
  -18.0681   -7.8815   21.1438 C   0  0  0  0  0  0  0  0  0  0  0  0
  -23.8245  -10.4503   20.9606 C   0  0  0  0  0  0  0  0  0  0  0  0
  -24.1708  -12.9752   20.8475 C   0  0  0  0  0  0  0  0  0  0  0  0
  -31.9483  -30.2899   15.2438 C   0  0  0  0  0  0  0  0  0  0  0  0
  -31.0696  -24.9054   19.0396 C   0  0  0  0  0  0  0  0  0  0  0  0
  -31.4348  -29.6631   16.3952 C   0  0  0  0  0  0  0  0  0  0  0  0
  -29.8594  -24.6388   19.6957 C   0  0  0  0  0  0  0  0  0  0  0  0
  -22.3326   -8.1453   21.4546 C   0  0  0  0  0  0  0  0  0  0  0  0
  -30.9917  -24.8356   21.8379 C   0  0  0  0  0  0  0  0  0  0  0  0
  -20.3076   -6.9778   21.2131 C   0  0  0  0  0  0  0  0  0  0  0  0
  -17.6958   -6.8892   20.2369 C   0  0  0  0  0  0  0  0  0  0  0  0
  -19.3741   -7.9257   21.6319 C   0  0  0  0  0  0  0  0  0  0  0  0
  -24.5956  -11.6405   20.7059 C   0  0  0  0  0  0  0  0  0  0  0  0
  -25.2642  -13.7237   20.4859 C   0  0  0  0  0  0  0  0  0  0  0  0
  -30.5939  -16.9232   21.9436 C   0  0  0  0  0  0  0  0  0  0  0  0
  -30.7505  -19.0934   23.0906 C   0  0  0  0  0  0  0  0  0  0  0  0
  -22.9014  -13.4921   21.2682 C   0  0  0  0  0  0  0  0  0  0  0  0
  -29.3866  -26.6435   16.9780 C   0  0  0  0  0  0  0  0  0  0  0  0
  -30.8980  -22.3904   24.8868 C   0  0  0  0  0  0  0  0  0  0  0  0
  -27.7120  -23.8884   16.6210 C   0  0  0  0  0  0  0  0  0  0  0  0
  -26.7512  -20.8905   17.9387 C   0  0  0  0  0  0  0  0  0  0  0  0
  -30.7324  -14.7589   20.6619 C   0  0  0  0  0  0  0  0  0  0  0  0
  -31.1604  -30.3583   13.9596 C   0  0  0  0  0  0  0  0  0  0  0  0
  -31.1353  -24.9156   17.5369 C   0  0  0  0  0  0  0  0  0  0  0  0
  -28.5838  -24.3872   18.9354 C   0  0  0  0  0  0  0  0  0  0  0  0
  -30.0172  -29.3490   13.8919 C   0  0  0  0  0  0  0  0  0  0  0  0
  -29.6128  -12.3538   18.2872 C   0  0  0  0  0  0  0  0  0  0  0  0
  -29.2199  -29.3575   15.1924 C   0  0  0  0  0  0  0  0  0  0  0  0
  -28.1728  -12.0636   18.7164 C   0  0  0  0  0  0  0  0  0  0  0  0
  -30.5287  -12.5775   19.4892 C   0  0  0  0  0  0  0  0  0  0  0  0
  -28.6235  -13.3015   20.8731 C   0  0  0  0  0  0  0  0  0  0  0  0
  -30.0993  -28.9514   16.3812 C   0  0  1  0  0  0  0  0  0  0  0  0
  -29.7869  -25.1984   16.8818 C   0  0  1  0  0  0  0  0  0  0  0  0
  -27.6500  -13.1334   19.6951 C   0  0  2  0  0  0  0  0  0  0  0  0
  -25.3498  -18.8725   17.4277 C   0  0  0  0  0  0  0  0  0  0  0  0
  -33.0657  -23.1918   25.8859 C   0  0  0  0  0  0  0  0  0  0  0  0
  -30.9927  -24.5703   26.1082 C   0  0  0  0  0  0  0  0  0  0  0  0
  -25.1874  -25.4910   17.2277 C   0  0  0  0  0  0  0  0  0  0  0  0
  -23.9970  -23.3274   17.6402 C   0  0  0  0  0  0  0  0  0  0  0  0
  -24.9433  -23.8180   15.3849 C   0  0  0  0  0  0  0  0  0  0  0  0
  -29.0923  -19.0853   18.0793 C   0  0  0  0  0  0  0  0  0  0  0  0
  -31.4749  -21.3033   23.9945 C   0  0  0  0  0  0  0  0  0  0  0  0
  -32.1312  -24.3806   23.8752 C   0  0  0  0  0  0  0  0  0  1  0  0
  -26.5086  -23.2738   17.2943 C   0  0  1  0  0  0  0  0  0  0  0  0
  -26.7373  -19.4904   17.3521 C   0  0  2  0  0  0  0  0  0  0  0  0
  -31.7725  -23.6340   25.1732 C   0  0  0  0  0  0  0  0  0  0  0  0
  -25.1826  -23.9842   16.9014 C   0  0  0  0  0  0  0  0  0  0  0  0
  -25.8602  -11.5436   20.2870 N   0  0  0  0  0  0  0  0  0  0  0  0
  -26.2394  -12.8268   20.1621 N   0  0  0  0  0  0  0  0  0  0  0  0
  -28.6982  -24.4139   17.4678 N   0  0  0  0  0  0  0  0  0  0  0  0
  -29.9719  -13.6069   20.3697 N   0  0  0  0  0  0  0  0  0  0  0  0
  -25.4770  -15.0550   20.4165 N   0  0  0  0  0  0  0  0  0  0  0  0
  -21.8879  -12.5838   21.6033 N   0  0  0  0  0  0  0  0  0  0  0  0
  -30.0869  -15.6828   21.4831 N   0  0  0  0  0  0  0  0  0  0  0  0
  -30.5172  -20.2350   23.8414 N   0  0  0  0  0  0  0  0  0  0  0  0
  -30.2895  -27.5169   16.4025 N   0  0  0  0  0  0  0  0  0  0  0  0
  -26.5427  -21.8513   16.9720 N   0  0  0  0  0  0  0  0  0  0  0  0
  -27.6850  -18.6095   18.0917 N   0  3  0  0  0  0  0  0  0  0  0  0
  -22.6674  -14.7230   21.3290 O   0  0  0  0  0  0  0  0  0  0  0  0
  -28.3355  -26.9437   17.5320 O   0  0  0  0  0  0  0  0  0  0  0  0
  -29.7609  -22.2898   25.3550 O   0  0  0  0  0  0  0  0  0  0  0  0
  -27.7779  -23.8953   15.3893 O   0  0  0  0  0  0  0  0  0  0  0  0
  -26.9256  -21.1096   19.1354 O   0  0  0  0  0  0  0  0  0  0  0  0
  -31.8616  -14.9268   20.1944 O   0  0  0  0  0  0  0  0  0  0  0  0
  -21.6048   -7.0209   21.6961 O   0  0  0  0  0  0  0  0  0  0  0  0
  -30.9493  -24.8054   23.1978 O   0  0  0  0  0  0  0  0  0  1  0  0
  -16.4422   -6.8474   19.7670 F   0  0  0  0  0  0  0  0  0  0  0  0
  -19.7262   -8.8820   22.5021 F   0  0  0  0  0  0  0  0  0  0  0  0
  -29.5713  -17.8599   22.9483 S   0  0  0  0  0  0  0  0  0  0  0  0
  1  2  1  0  0  0  0
  1  5  2  0  0  0  0
  2  6  2  0  0  0  0
  3  8  2  0  0  0  0
  3 17  1  0  0  0  0
  4  9  1  0  0  0  0
  4 17  2  0  0  0  0
  5 19  1  0  0  0  0
  6 21  1  0  0  0  0
  7 10  2  0  0  0  0
  7 20  1  0  0  0  0
  8 23  1  0  0  0  0
  9 23  2  0  0  0  0
 10 24  1  0  0  0  0
 11 12  2  0  0  0  0
 11 25  1  0  0  0  0
 12 26  1  0  0  0  0
 13 14  1  0  0  0  0
 13 30  2  0  0  0  0
 14 31  2  0  0  0  0
 15 22  1  0  0  0  0
 15 24  2  0  0  0  0
 16 26  2  0  0  0  0
 16 27  1  0  0  0  0
 17 28  1  0  0  0  0
 18 28  1  0  0  0  0
 18 29  2  0  0  0  0
 18 32  1  0  0  0  0
 19 21  2  0  0  0  0
 19 38  1  0  0  0  0
 20 22  2  0  0  0  0
 20 39  1  0  0  0  0
 21 47  1  0  0  0  0
 22 40  1  0  0  0  0
 23 80  1  0  0  0  0
 24 81  1  0  0  0  0
 25 27  2  0  0  0  0
 25 80  1  0  0  0  0
 26 82  1  0  0  0  0
 27 83  1  0  0  0  0
 28 63  2  0  0  0  0
 29 64  1  0  0  0  0
 29 67  1  0  0  0  0
 30 69  1  0  0  0  0
 30 84  1  0  0  0  0
 31 70  1  0  0  0  0
 31 84  1  0  0  0  0
 32 68  1  0  0  0  0
 32 74  2  0  0  0  0
 33 48  1  0  0  0  0
 33 71  1  0  0  0  0
 33 75  2  0  0  0  0
 34 57  1  0  0  0  0
 34 61  1  0  0  0  0
 34 76  2  0  0  0  0
 35 59  1  0  0  0  0
 35 65  1  0  0  0  0
 35 77  2  0  0  0  0
 36 60  1  0  0  0  0
 36 72  1  0  0  0  0
 36 78  2  0  0  0  0
 37 66  1  0  0  0  0
 37 69  1  0  0  0  0
 37 79  2  0  0  0  0
 38 41  1  0  0  0  0
 39 48  1  0  0  0  0
 40 65  1  0  0  0  0
 41 43  1  0  0  0  0
 42 44  1  0  0  0  0
 42 45  1  0  0  0  0
 43 47  1  0  0  0  0
 44 49  1  0  0  0  0
 45 66  1  0  0  0  0
 46 49  1  0  0  0  0
 46 66  1  0  0  0  0
 47 71  1  0  0  0  0
 48 65  1  0  0  0  0
 49 64  1  0  0  0  0
 50 60  1  0  0  0  0
 51 61  1  0  0  0  0
 52 61  1  0  0  0  0
 53 62  1  0  0  0  0
 54 62  1  0  0  0  0
 55 62  1  0  0  0  0
 56 73  1  0  0  0  0
 57 70  1  0  0  0  0
 58 61  1  0  0  0  0
 58 81  1  0  0  0  0
 59 62  1  0  0  0  0
 59 72  1  0  0  0  0
 60 73  1  0  0  0  0
 63 64  1  0  0  0  0
M  CHG  1  73   1
M  ISO  4  37 100  58 101  69 100  81 101
M  END
> <Batch ID>
0146

> <Smiles>
CNC(C)C(=O)NC(C(=O)N1Cc2cc([101O:1][101CH2:1]C(C)(C)C(=O)CNc3ccc([100NH:0][100C:0](=O)N4CCCC(n5nc(-c6ccc(Oc7ccc(F)cc7F)cc6)c(C(N)=O)c5N)C4)s3)ccc2CC1C(=O)NC1CCCc2ccccc21)C(C)(C)C

> <Shape>
0.201

> <Color>
0.187

> <Negative vol penalty>
0.000

$$$$

  -OEChem-04052303103D

 86 95  0     1  0  0  0  0  0999 V2000
  -27.2412  -37.5850   24.8503 C   0  0  0  0  0  0  0  0  0  0  0  0
  -27.8736  -36.7522   23.9327 C   0  0  0  0  0  0  0  0  0  0  0  0
  -26.9656  -20.1605   16.8895 C   0  0  0  0  0  0  0  0  0  0  0  0
  -22.9300  -12.5078   23.3150 C   0  0  0  0  0  0  0  0  0  0  0  0
  -22.1256  -13.9370   21.5409 C   0  0  0  0  0  0  0  0  0  0  0  0
  -26.3421  -37.0497   25.7717 C   0  0  0  0  0  0  0  0  0  0  0  0
  -27.6079  -35.3833   23.9367 C   0  0  0  0  0  0  0  0  0  0  0  0
  -27.1026  -29.7814   19.5005 C   0  0  0  0  0  0  0  0  0  0  0  0
  -27.8685  -21.1812   17.1867 C   0  0  0  0  0  0  0  0  0  0  0  0
  -27.1198  -18.9018   17.4707 C   0  0  0  0  0  0  0  0  0  0  0  0
  -21.7484  -12.7232   24.0243 C   0  0  0  0  0  0  0  0  0  0  0  0
  -20.9440  -14.1523   22.2501 C   0  0  0  0  0  0  0  0  0  0  0  0
  -27.5910  -28.4852   19.3425 C   0  0  0  0  0  0  0  0  0  0  0  0
  -18.5605  -11.5985   23.9535 C   0  0  0  0  0  0  0  0  0  0  0  0
  -17.9393  -10.4906   24.5299 C   0  0  0  0  0  0  0  0  0  0  0  0
  -25.9595  -27.6837   20.9284 C   0  0  0  0  0  0  0  0  0  0  0  0
  -29.0800  -19.6847   18.6461 C   0  0  0  0  0  0  0  0  0  0  0  0
  -18.1695  -11.4977   26.7139 C   0  0  0  0  0  0  0  0  0  0  0  0
  -23.1186  -13.1148   22.0733 C   0  0  0  0  0  0  0  0  0  0  0  0
  -24.5951  -11.8742   20.4034 C   0  0  0  0  0  0  0  0  0  0  0  0
  -26.0580  -35.6750   25.7807 C   0  0  0  0  0  0  0  0  0  0  0  0
  -26.0443  -30.0407   20.3833 C   0  0  0  0  0  0  0  0  0  0  0  0
  -26.7052  -34.8289   24.8600 C   0  0  0  0  0  0  0  0  0  0  0  0
  -25.4578  -28.9837   21.0939 C   0  0  0  0  0  0  0  0  0  0  0  0
  -28.9258  -20.9433   18.0649 C   0  0  0  0  0  0  0  0  0  0  0  0
  -28.1770  -18.6639   18.3489 C   0  0  0  0  0  0  0  0  0  0  0  0
  -20.7554  -13.5454   23.4918 C   0  0  0  0  0  0  0  0  0  0  0  0
  -27.0213  -27.4365   20.0587 C   0  0  0  0  0  0  0  0  0  0  0  0
  -18.9863  -12.6560   24.7573 C   0  0  0  0  0  0  0  0  0  0  0  0
  -17.7438  -10.4402   25.9101 C   0  0  0  0  0  0  0  0  0  0  0  0
  -18.7908  -12.6056   26.1375 C   0  0  0  0  0  0  0  0  0  0  0  0
  -24.3393  -12.8931   21.3405 C   0  0  0  0  0  0  0  0  0  0  0  0
  -25.8877  -12.0983   19.9968 C   0  0  0  0  0  0  0  0  0  0  0  0
  -23.7407  -10.8194   19.9417 C   0  0  0  0  0  0  0  0  0  0  0  0
  -25.6942  -31.7932   23.0119 C   0  0  0  0  0  0  0  0  0  0  0  0
  -22.5839  -30.9239   22.7077 C   0  0  0  0  0  0  0  0  0  0  0  0
  -20.3043  -28.6955   21.4892 C   0  0  0  0  0  0  0  0  0  0  0  0
  -29.3263  -16.9824   19.8314 C   0  0  0  0  0  0  0  0  0  0  0  0
  -25.1147  -35.1355   26.8265 C   0  0  0  0  0  0  0  0  0  0  0  0
  -25.5115  -31.4404   20.5223 C   0  0  0  0  0  0  0  0  0  0  0  0
  -24.3064  -29.2060   22.0390 C   0  0  0  0  0  0  0  0  0  0  0  0
  -24.6048  -33.7297   26.5198 C   0  0  0  0  0  0  0  0  0  0  0  0
  -30.0323  -13.9379   21.5372 C   0  0  0  0  0  0  0  0  0  0  0  0
  -25.7573  -32.8244   26.0965 C   0  0  0  0  0  0  0  0  0  0  0  0
  -28.6770  -13.2290   21.5896 C   0  0  0  0  0  0  0  0  0  0  0  0
  -29.8447  -24.9050   20.5258 C   0  0  0  0  0  0  0  0  0  0  0  0
  -29.8886  -15.4495   21.7047 C   0  0  0  0  0  0  0  0  0  0  0  0
  -27.5839  -15.3797   20.8370 C   0  0  0  0  0  0  0  0  0  0  0  0
  -30.6899  -23.7075   20.1163 C   0  0  0  0  0  0  0  0  0  0  0  0
  -28.2983  -23.1883   19.9651 C   0  0  0  0  0  0  0  0  0  0  0  0
  -26.4244  -33.3425   24.8167 C   0  0  1  0  0  0  0  0  0  0  0  0
  -24.7684  -31.6692   21.8350 C   0  0  1  0  0  0  0  0  0  0  0  0
  -27.6716  -13.8620   20.6079 C   0  0  2  0  0  0  0  0  0  0  0  0
  -28.5255  -24.2947   20.9828 C   0  0  2  0  0  0  0  0  0  0  0  0
  -17.8389  -28.2304   21.4346 C   0  0  0  0  0  0  0  0  0  0  0  0
  -22.7104  -29.9278   25.5890 C   0  0  0  0  0  0  0  0  0  0  0  0
  -20.5985  -28.6512   25.1669 C   0  0  0  0  0  0  0  0  0  0  0  0
  -20.6048  -31.1398   24.9957 C   0  0  0  0  0  0  0  0  0  0  0  0
  -20.2134  -28.8998   18.5381 C   0  0  0  0  0  0  0  0  0  0  0  0
  -27.4882  -23.1471   22.7519 C   0  0  0  0  0  0  0  0  0  0  0  0
  -29.8968  -22.0416   18.3842 C   0  0  0  0  0  0  0  0  0  0  0  0
  -27.3939  -25.2988   21.0321 C   0  0  0  0  0  0  0  0  0  1  0  0
  -21.7429  -29.7710   23.2004 C   0  0  1  0  0  0  0  0  0  0  0  0
  -19.0078  -28.8966   20.7256 C   0  0  2  0  0  0  0  0  0  0  0  0
  -21.4371  -29.8682   24.7217 C   0  0  0  0  0  0  0  0  0  0  0  0
  -25.3854  -13.7042   21.5188 N   0  0  0  0  0  0  0  0  0  0  0  0
  -26.3112  -13.1950   20.6883 N   0  0  0  0  0  0  0  0  0  0  0  0
  -23.8249  -30.5932   22.1453 N   0  0  0  0  0  0  0  0  0  0  0  0
  -28.9237  -15.9799   20.7390 N   0  0  0  0  0  0  0  0  0  0  0  0
  -26.6921  -11.4623   19.1188 N   0  0  0  0  0  0  0  0  0  0  0  0
  -22.4425  -10.7347   20.4631 N   0  0  0  0  0  0  0  0  0  0  0  0
  -28.3329  -17.3855   18.9396 N   0  0  0  0  0  0  0  0  0  0  0  0
  -25.6216  -33.0121   23.6588 N   0  0  0  0  0  0  0  0  0  0  0  0
  -20.5557  -29.7404   22.3530 N   0  0  0  0  0  0  0  0  0  0  0  0
  -29.6920  -22.6274   19.7442 N   0  3  1  0  0  0  0  0  0  0  0  0
  -19.1181  -28.3187   19.3564 N   0  3  0  0  0  0  0  0  0  0  0  0
  -24.1228   -9.9673   19.1043 O   0  0  0  0  0  0  0  0  0  0  0  0
  -26.4195  -30.8521   23.3119 O   0  0  0  0  0  0  0  0  0  0  0  0
  -22.1523  -32.0748   22.8113 O   0  0  0  0  0  0  0  0  0  0  0  0
  -21.0204  -27.7082   21.3375 O   0  0  0  0  0  0  0  0  0  0  0  0
  -30.4761  -17.4296   19.8266 O   0  0  0  0  0  0  0  0  0  0  0  0
  -19.6022  -13.7556   24.1835 O   0  0  0  0  0  0  0  0  0  0  0  0
  -27.4965  -26.1704   19.9068 O   0  0  0  0  0  0  0  0  0  1  0  0
  -28.6939  -23.7298   22.2816 O   0  0  0  0  0  0  0  0  0  0  0  0
  -17.1458   -9.3769   26.4633 F   0  0  0  0  0  0  0  0  0  0  0  0
  -19.1967  -13.6190   26.9147 F   0  0  0  0  0  0  0  0  0  0  0  0
  1  2  1  0  0  0  0
  1  6  2  0  0  0  0
  2  7  2  0  0  0  0
  3  9  2  0  0  0  0
  3 10  1  0  0  0  0
  4 11  2  0  0  0  0
  4 19  1  0  0  0  0
  5 12  1  0  0  0  0
  5 19  2  0  0  0  0
  6 21  1  0  0  0  0
  7 23  1  0  0  0  0
  8 13  2  0  0  0  0
  8 22  1  0  0  0  0
  9 25  1  0  0  0  0
 10 26  2  0  0  0  0
 11 27  1  0  0  0  0
 12 27  2  0  0  0  0
 13 28  1  0  0  0  0
 14 15  2  0  0  0  0
 14 29  1  0  0  0  0
 15 30  1  0  0  0  0
 16 24  1  0  0  0  0
 16 28  2  0  0  0  0
 17 25  2  0  0  0  0
 17 26  1  0  0  0  0
 18 30  2  0  0  0  0
 18 31  1  0  0  0  0
 19 32  1  0  0  0  0
 20 32  1  0  0  0  0
 20 33  2  0  0  0  0
 20 34  1  0  0  0  0
 21 23  2  0  0  0  0
 21 39  1  0  0  0  0
 22 24  2  0  0  0  0
 22 40  1  0  0  0  0
 23 51  1  0  0  0  0
 24 41  1  0  0  0  0
 25 61  1  0  0  0  0
 26 72  1  0  0  0  0
 27 82  1  0  0  0  0
 28 83  1  0  0  0  0
 29 31  2  0  0  0  0
 29 82  1  0  0  0  0
 30 85  1  0  0  0  0
 31 86  1  0  0  0  0
 32 66  2  0  0  0  0
 33 67  1  0  0  0  0
 33 70  1  0  0  0  0
 34 71  1  0  0  0  0
 34 77  2  0  0  0  0
 35 52  1  0  0  0  0
 35 73  1  0  0  0  0
 35 78  2  0  0  0  0
 36 63  1  0  0  0  0
 36 68  1  0  0  0  0
 36 79  2  0  0  0  0
 37 64  1  0  0  0  0
 37 74  1  0  0  0  0
 37 80  2  0  0  0  0
 38 69  1  0  0  0  0
 38 72  1  0  0  0  0
 38 81  2  0  0  0  0
 39 42  1  0  0  0  0
 40 52  1  0  0  0  0
 41 68  1  0  0  0  0
 42 44  1  0  0  0  0
 43 45  1  0  0  0  0
 43 47  1  0  0  0  0
 44 51  1  0  0  0  0
 45 53  1  0  0  0  0
 46 49  1  0  0  0  0
 46 54  1  0  0  0  0
 47 69  1  0  0  0  0
 48 53  1  0  0  0  0
 48 69  1  0  0  0  0
 49 75  1  0  0  0  0
 50 54  1  0  0  0  0
 50 75  1  0  0  0  0
 51 73  1  0  0  0  0
 52 68  1  0  0  0  0
 53 67  1  0  0  0  0
 54 62  1  0  0  0  0
 54 84  1  0  0  0  0
 55 64  1  0  0  0  0
 56 65  1  0  0  0  0
 57 65  1  0  0  0  0
 58 65  1  0  0  0  0
 59 76  1  0  0  0  0
 60 84  1  0  0  0  0
 61 75  1  0  0  0  0
 62 83  1  0  0  0  0
 63 65  1  0  0  0  0
 63 74  1  0  0  0  0
 64 76  1  0  0  0  0
 66 67  1  0  0  0  0
M  CHG  2  75   1  76   1
M  ISO  4  38 100  62 101  72 100  83 101
M  END
> <Batch ID>
0146

> <Smiles>
CNC(C)C(=O)NC(C(=O)N1Cc2cc([101O:1][101CH2:1]C3(OC)CCN(Cc4cccc([100NH:0][100C:0](=O)N5CCCC(n6nc(-c7ccc(Oc8ccc(F)cc8F)cc7)c(C(N)=O)c6N)C5)c4)C3)ccc2CC1C(=O)NC1CCCc2ccccc21)C(C)(C)C

> <Shape>
0.302

> <Color>
0.085

> <Negative vol penalty>
0.000

$$$$

  -OEChem-04052303103D

 84 92  0     1  0  0  0  0  0999 V2000
  -18.3338  -25.3959   22.9561 C   0  0  0  0  0  0  0  0  0  0  0  0
  -19.4926  -25.4097   22.1865 C   0  0  0  0  0  0  0  0  0  0  0  0
  -24.8133   -8.5653   21.6140 C   0  0  0  0  0  0  0  0  0  0  0  0
  -23.2818   -9.8143   20.2242 C   0  0  0  0  0  0  0  0  0  0  0  0
  -17.7429  -26.5970   23.3460 C   0  0  0  0  0  0  0  0  0  0  0  0
  -20.0607  -26.6248   21.8054 C   0  0  0  0  0  0  0  0  0  0  0  0
  -25.0872  -26.6958   22.4165 C   0  0  0  0  0  0  0  0  0  0  0  0
  -23.7460   -8.1309   22.3999 C   0  0  0  0  0  0  0  0  0  0  0  0
  -22.2144   -9.3798   21.0101 C   0  0  0  0  0  0  0  0  0  0  0  0
  -25.8551  -26.0430   21.4532 C   0  0  0  0  0  0  0  0  0  0  0  0
  -21.3045   -5.7990   22.2159 C   0  0  0  0  0  0  0  0  0  0  0  0
  -21.2630   -4.4489   22.5638 C   0  0  0  0  0  0  0  0  0  0  0  0
  -25.7373  -18.5500   16.0777 C   0  0  0  0  0  0  0  0  0  0  0  0
  -25.6203  -17.2548   16.6362 C   0  0  0  0  0  0  0  0  0  0  0  0
  -26.3244  -28.1619   20.4000 C   0  0  0  0  0  0  0  0  0  0  0  0
  -21.3413   -5.0492   24.9028 C   0  0  0  0  0  0  0  0  0  0  0  0
  -24.5813   -9.4071   20.5262 C   0  0  0  0  0  0  0  0  0  0  0  0
  -26.2085   -9.2272   18.5698 C   0  0  0  0  0  0  0  0  0  0  0  0
  -18.3095  -27.8275   22.9777 C   0  0  0  0  0  0  0  0  0  0  0  0
  -24.9230  -28.0878   22.3724 C   0  0  0  0  0  0  0  0  0  0  0  0
  -19.4761  -27.8435   22.1896 C   0  0  0  0  0  0  0  0  0  0  0  0
  -25.5561  -28.8303   21.3654 C   0  0  0  0  0  0  0  0  0  0  0  0
  -22.4465   -8.5381   22.0979 C   0  0  0  0  0  0  0  0  0  0  0  0
  -26.4714  -26.7757   20.4430 C   0  0  0  0  0  0  0  0  0  0  0  0
  -21.3644   -6.7742   23.2114 C   0  0  0  0  0  0  0  0  0  0  0  0
  -21.2814   -4.0739   23.9072 C   0  0  0  0  0  0  0  0  0  0  0  0
  -21.3828   -6.3993   24.5548 C   0  0  0  0  0  0  0  0  0  0  0  0
  -25.6835   -9.8566   19.7144 C   0  0  0  0  0  0  0  0  0  0  0  0
  -26.9303  -19.0577   16.5371 C   0  0  0  0  0  0  0  0  0  0  0  0
  -27.2370  -10.0448   18.1696 C   0  0  0  0  0  0  0  0  0  0  0  0
  -26.7503  -17.0632   17.3969 C   0  0  0  0  0  0  0  0  0  0  0  0
  -25.8027   -8.0121   17.9259 C   0  0  0  0  0  0  0  0  0  0  0  0
  -27.6017  -20.3650   16.3007 C   0  0  0  0  0  0  0  0  0  0  0  0
  -22.4404  -30.0439   22.0348 C   0  0  0  0  0  0  0  0  0  0  0  0
  -24.6638  -32.3343   22.6120 C   0  0  0  0  0  0  0  0  0  0  0  0
  -27.9467  -33.2651   22.5551 C   0  0  0  0  0  0  0  0  0  0  0  0
  -28.3552  -15.8658   18.9255 C   0  0  0  0  0  0  0  0  0  0  0  0
  -17.6084  -29.0998   23.3831 C   0  0  0  0  0  0  0  0  0  0  0  0
  -24.1135  -28.7799   23.4345 C   0  0  0  0  0  0  0  0  0  0  0  0
  -25.4277  -30.3288   21.2854 C   0  0  0  0  0  0  0  0  0  0  0  0
  -18.4823  -30.3447   23.2532 C   0  0  0  0  0  0  0  0  0  0  0  0
  -30.4424  -13.1520   19.9033 C   0  0  0  0  0  0  0  0  0  0  0  0
  -19.2045  -30.3522   21.9097 C   0  0  0  0  0  0  0  0  0  0  0  0
  -29.5082  -11.9407   19.8558 C   0  0  0  0  0  0  0  0  0  0  0  0
  -29.7221  -14.4046   20.3991 C   0  0  0  0  0  0  0  0  0  0  0  0
  -27.5528  -13.5259   19.6302 C   0  0  0  0  0  0  0  0  0  0  0  0
  -20.1361  -29.1414   21.7773 C   0  0  1  0  0  0  0  0  0  0  0  0
  -23.5924  -30.1445   22.9943 C   0  0  1  0  0  0  0  0  0  0  0  0
  -28.2169  -12.2552   19.0752 C   0  0  2  0  0  0  0  0  0  0  0  0
  -27.3915  -21.1717   13.9628 C   0  0  0  0  0  0  0  0  0  0  0  0
  -29.4513  -35.2114   23.0505 C   0  0  0  0  0  0  0  0  0  0  0  0
  -23.7534  -33.6909   20.0350 C   0  0  0  0  0  0  0  0  0  0  0  0
  -25.8611  -35.0413   20.0834 C   0  0  0  0  0  0  0  0  0  0  0  0
  -24.2026  -35.2544   21.9345 C   0  0  0  0  0  0  0  0  0  0  0  0
  -29.4341  -31.7412   24.6104 C   0  0  0  0  0  0  0  0  0  0  0  0
  -26.8558  -23.1135   17.2957 C   0  0  0  0  0  0  0  0  0  0  0  0
  -27.2403  -24.5286   17.7238 C   0  0  0  0  0  0  0  0  0  0  0  0
  -27.2904  -22.8320   15.8528 C   0  0  0  0  0  0  0  0  0  0  0  0
  -26.8503  -24.8034   19.1693 C   0  0  0  0  0  0  0  0  0  1  0  0
  -26.9322  -21.4040   15.4015 C   0  0  2  0  0  0  0  0  0  0  0  0
  -25.6000  -33.1548   21.7580 C   0  0  1  0  0  0  0  0  0  0  0  0
  -28.8205  -33.9400   23.5968 C   0  0  2  0  0  0  0  0  0  0  0  0
  -24.8553  -34.2569   20.9528 C   0  0  0  0  0  0  0  0  0  0  0  0
  -26.3256  -10.9868   20.0216 N   0  0  0  0  0  0  0  0  0  0  0  0
  -27.2647  -11.0740   19.0642 N   0  0  0  0  0  0  0  0  0  0  0  0
  -24.6205  -30.9589   22.3432 N   0  0  0  0  0  0  0  0  0  0  0  0
  -28.5111  -14.6421   19.6104 N   0  0  0  0  0  0  0  0  0  0  0  0
  -28.1115   -9.9765   17.1434 N   0  0  0  0  0  0  0  0  0  0  0  0
  -24.7272   -7.2955   18.4683 N   0  0  0  0  0  0  0  0  0  0  0  0
  -27.1793  -15.9648   18.1825 N   0  0  0  0  0  0  0  0  0  0  0  0
  -21.3518  -29.3541   22.5332 N   0  0  0  0  0  0  0  0  0  0  0  0
  -26.6308  -33.6644   22.6559 N   0  0  0  0  0  0  0  0  0  0  0  0
  -29.9120  -33.0227   24.0304 N   0  3  0  0  0  0  0  0  0  0  0  0
  -26.3872   -7.5663   16.9095 O   0  0  0  0  0  0  0  0  0  0  0  0
  -28.6882  -20.5783   16.8365 O   0  0  0  0  0  0  0  0  0  0  0  0
  -22.5319  -30.5557   20.9251 O   0  0  0  0  0  0  0  0  0  0  0  0
  -24.0008  -32.8921   23.4901 O   0  0  0  0  0  0  0  0  0  0  0  0
  -28.3880  -32.4665   21.7316 O   0  0  0  0  0  0  0  0  0  0  0  0
  -29.2151  -16.7492   18.9712 O   0  0  0  0  0  0  0  0  0  0  0  0
  -27.5540  -18.1576   17.3417 O   0  0  0  0  0  0  0  0  0  0  0  0
  -21.4047   -8.1142   22.8644 O   0  0  0  0  0  0  0  0  0  0  0  0
  -27.2209  -26.1409   19.5011 O   0  0  0  0  0  0  0  0  0  1  0  0
  -21.2400   -2.7774   24.2412 F   0  0  0  0  0  0  0  0  0  0  0  0
  -21.4391   -7.3317   25.5157 F   0  0  0  0  0  0  0  0  0  0  0  0
  1  2  1  0  0  0  0
  1  5  2  0  0  0  0
  2  6  2  0  0  0  0
  3  8  2  0  0  0  0
  3 17  1  0  0  0  0
  4  9  1  0  0  0  0
  4 17  2  0  0  0  0
  5 19  1  0  0  0  0
  6 21  1  0  0  0  0
  7 10  2  0  0  0  0
  7 20  1  0  0  0  0
  8 23  1  0  0  0  0
  9 23  2  0  0  0  0
 10 24  1  0  0  0  0
 11 12  2  0  0  0  0
 11 25  1  0  0  0  0
 12 26  1  0  0  0  0
 13 14  1  0  0  0  0
 13 29  2  0  0  0  0
 14 31  2  0  0  0  0
 15 22  1  0  0  0  0
 15 24  2  0  0  0  0
 16 26  2  0  0  0  0
 16 27  1  0  0  0  0
 17 28  1  0  0  0  0
 18 28  1  0  0  0  0
 18 30  2  0  0  0  0
 18 32  1  0  0  0  0
 19 21  2  0  0  0  0
 19 38  1  0  0  0  0
 20 22  2  0  0  0  0
 20 39  1  0  0  0  0
 21 47  1  0  0  0  0
 22 40  1  0  0  0  0
 23 81  1  0  0  0  0
 24 82  1  0  0  0  0
 25 27  2  0  0  0  0
 25 81  1  0  0  0  0
 26 83  1  0  0  0  0
 27 84  1  0  0  0  0
 28 64  2  0  0  0  0
 29 33  1  0  0  0  0
 29 80  1  0  0  0  0
 30 65  1  0  0  0  0
 30 68  1  0  0  0  0
 31 70  1  0  0  0  0
 31 80  1  0  0  0  0
 32 69  1  0  0  0  0
 32 74  2  0  0  0  0
 33 60  1  0  0  0  0
 33 75  2  0  0  0  0
 34 48  1  0  0  0  0
 34 71  1  0  0  0  0
 34 76  2  0  0  0  0
 35 61  1  0  0  0  0
 35 66  1  0  0  0  0
 35 77  2  0  0  0  0
 36 62  1  0  0  0  0
 36 72  1  0  0  0  0
 36 78  2  0  0  0  0
 37 67  1  0  0  0  0
 37 70  1  0  0  0  0
 37 79  2  0  0  0  0
 38 41  1  0  0  0  0
 39 48  1  0  0  0  0
 40 66  1  0  0  0  0
 41 43  1  0  0  0  0
 42 44  1  0  0  0  0
 42 45  1  0  0  0  0
 43 47  1  0  0  0  0
 44 49  1  0  0  0  0
 45 67  1  0  0  0  0
 46 49  1  0  0  0  0
 46 67  1  0  0  0  0
 47 71  1  0  0  0  0
 48 66  1  0  0  0  0
 49 65  1  0  0  0  0
 50 60  1  0  0  0  0
 51 62  1  0  0  0  0
 52 63  1  0  0  0  0
 53 63  1  0  0  0  0
 54 63  1  0  0  0  0
 55 73  1  0  0  0  0
 56 57  1  0  0  0  0
 56 58  1  0  0  0  0
 57 59  1  0  0  0  0
 58 60  1  0  0  0  0
 59 82  1  0  0  0  0
 61 63  1  0  0  0  0
 61 72  1  0  0  0  0
 62 73  1  0  0  0  0
 64 65  1  0  0  0  0
M  CHG  1  73   1
M  ISO  4  37 100  59 101  70 100  82 101
M  END
> <Batch ID>
0146

> <Smiles>
CNC(C)C(=O)NC(C(=O)N1Cc2cc([101O:1][101CH2:1]CCCC(C)C(=O)c3ccc([100NH:0][100C:0](=O)N4CCCC(n5nc(-c6ccc(Oc7ccc(F)cc7F)cc6)c(C(N)=O)c5N)C4)o3)ccc2CC1C(=O)NC1CCCc2ccccc21)C(C)(C)C

> <Shape>
0.263

> <Color>
0.097

> <Negative vol penalty>
0.000

$$$$

  -OEChem-04052303103D

 88 96  0     1  0  0  0  0  0999 V2000
  -29.3399  -24.4475   17.6525 C   0  0  0  0  0  0  0  0  0  0  0  0
  -28.3736  -24.4593   18.6533 C   0  0  0  0  0  0  0  0  0  0  0  0
  -25.5902  -12.0874   19.6505 C   0  0  0  0  0  0  0  0  0  0  0  0
  -24.1220  -13.5311   20.9143 C   0  0  0  0  0  0  0  0  0  0  0  0
  -30.3408  -25.4180   17.6399 C   0  0  0  0  0  0  0  0  0  0  0  0
  -28.4084  -25.4412   19.6428 C   0  0  0  0  0  0  0  0  0  0  0  0
  -23.8446  -27.4332   20.5643 C   0  0  0  0  0  0  0  0  0  0  0  0
  -25.2716  -11.0240   20.4951 C   0  0  0  0  0  0  0  0  0  0  0  0
  -23.8034  -12.4677   21.7589 C   0  0  0  0  0  0  0  0  0  0  0  0
  -22.9694  -26.6836   21.3490 C   0  0  0  0  0  0  0  0  0  0  0  0
  -22.7249   -8.8356   20.8930 C   0  0  0  0  0  0  0  0  0  0  0  0
  -22.4412   -7.6031   20.3047 C   0  0  0  0  0  0  0  0  0  0  0  0
  -28.3108  -21.9089   22.3466 C   0  0  0  0  0  0  0  0  0  0  0  0
  -26.7798  -22.9321   23.9105 C   0  0  0  0  0  0  0  0  0  0  0  0
  -23.5375  -28.0360   23.2640 C   0  0  0  0  0  0  0  0  0  0  0  0
  -25.9653  -21.3318   22.2941 C   0  0  0  0  0  0  0  0  0  0  0  0
  -24.2815   -6.6043   21.5100 C   0  0  0  0  0  0  0  0  0  0  0  0
  -25.0154  -13.3410   19.8601 C   0  0  0  0  0  0  0  0  0  0  0  0
  -28.0720  -22.7834   23.4066 C   0  0  0  0  0  0  0  0  0  0  0  0
  -24.6855  -14.8097   17.8007 C   0  0  0  0  0  0  0  0  0  0  0  0
  -30.3822  -26.4179   18.6243 C   0  0  0  0  0  0  0  0  0  0  0  0
  -24.5824  -28.4846   21.1270 C   0  0  0  0  0  0  0  0  0  0  0  0
  -29.4116  -26.4252   19.6442 C   0  0  0  0  0  0  0  0  0  0  0  0
  -24.4196  -28.7990   22.4838 C   0  0  0  0  0  0  0  0  0  0  0  0
  -27.2575  -21.1831   21.7903 C   0  0  0  0  0  0  0  0  0  0  0  0
  -25.7265  -22.2063   23.3543 C   0  0  0  0  0  0  0  0  0  0  0  0
  -24.3782  -11.2141   21.5493 C   0  0  0  0  0  0  0  0  0  0  0  0
  -22.8178  -26.9830   22.6997 C   0  0  0  0  0  0  0  0  0  0  0  0
  -23.7870   -8.9525   21.7897 C   0  0  0  0  0  0  0  0  0  0  0  0
  -23.2195   -6.4875   20.6133 C   0  0  0  0  0  0  0  0  0  0  0  0
  -24.5652   -7.8369   22.0982 C   0  0  0  0  0  0  0  0  0  0  0  0
  -25.3446  -14.4400   18.9884 C   0  0  0  0  0  0  0  0  0  0  0  0
  -25.3775  -15.9079   17.3516 C   0  0  0  0  0  0  0  0  0  0  0  0
  -29.1637  -23.5365   23.9826 C   0  0  0  0  0  0  0  0  0  0  0  0
  -23.5493  -14.2139   17.1606 C   0  0  0  0  0  0  0  0  0  0  0  0
  -27.6771  -29.0948   21.5197 C   0  0  0  0  0  0  0  0  0  0  0  0
  -22.4943  -23.5869   24.6089 C   0  0  0  0  0  0  0  0  0  0  0  0
  -26.5790  -31.9541   22.5878 C   0  0  0  0  0  0  0  0  0  0  0  0
  -24.0138  -33.7478   23.9478 C   0  0  0  0  0  0  0  0  0  0  0  0
  -28.7225  -20.0283   20.0972 C   0  0  0  0  0  0  0  0  0  0  0  0
  -31.5110  -27.4178   18.5963 C   0  0  0  0  0  0  0  0  0  0  0  0
  -25.5023  -29.3008   20.2610 C   0  0  0  0  0  0  0  0  0  0  0  0
  -25.1732  -29.9309   23.1315 C   0  0  0  0  0  0  0  0  0  0  0  0
  -31.2584  -28.6461   19.4668 C   0  0  0  0  0  0  0  0  0  0  0  0
  -29.7401  -17.8810   17.4457 C   0  0  0  0  0  0  0  0  0  0  0  0
  -30.7383  -28.2301   20.8391 C   0  0  0  0  0  0  0  0  0  0  0  0
  -28.6651  -16.7918   17.4283 C   0  0  0  0  0  0  0  0  0  0  0  0
  -30.0637  -18.3358   18.8677 C   0  0  0  0  0  0  0  0  0  0  0  0
  -27.8278  -17.6588   19.6497 C   0  0  0  0  0  0  0  0  0  0  0  0
  -29.4013  -27.4886   20.7208 C   0  0  1  0  0  0  0  0  0  0  0  0
  -26.5883  -30.0202   21.0550 C   0  0  1  0  0  0  0  0  0  0  0  0
  -27.4216  -17.2145   18.2350 C   0  0  2  0  0  0  0  0  0  0  0  0
  -23.4274  -36.0547   24.7423 C   0  0  0  0  0  0  0  0  0  0  0  0
  -22.1874  -24.6321   26.8788 C   0  0  0  0  0  0  0  0  0  0  0  0
  -20.3057  -24.6223   25.2338 C   0  0  0  0  0  0  0  0  0  0  0  0
  -28.2170  -31.4954   25.1210 C   0  0  0  0  0  0  0  0  0  0  0  0
  -26.8785  -33.2978   26.2292 C   0  0  0  0  0  0  0  0  0  0  0  0
  -28.2877  -33.8358   24.2424 C   0  0  0  0  0  0  0  0  0  0  0  0
  -21.8347  -34.0037   21.9616 C   0  0  0  0  0  0  0  0  0  0  0  0
  -24.0112  -23.4902   24.6328 C   0  0  0  0  0  0  0  0  0  0  0  0
  -22.2896  -26.1176   24.8510 C   0  0  0  0  0  0  0  0  0  1  0  0
  -26.1609  -32.5051   23.9297 C   0  0  1  0  0  0  0  0  0  0  0  0
  -23.4097  -35.0878   23.5687 C   0  0  2  0  0  0  0  0  0  0  0  0
  -21.8290  -24.7486   25.3842 C   0  0  0  0  0  0  0  0  0  0  0  0
  -27.3731  -32.7609   24.8691 C   0  0  0  0  0  0  0  0  0  0  0  0
  -26.3761  -15.2383   19.2757 N   0  0  0  0  0  0  0  0  0  0  0  0
  -26.3705  -16.1207   18.2620 N   0  0  0  0  0  0  0  0  0  0  0  0
  -26.0654  -30.6955   22.2444 N   0  0  0  0  0  0  0  0  0  0  0  0
  -28.8387  -18.7249   19.5696 N   0  0  0  0  0  0  0  0  0  0  0  0
  -25.2274  -16.7027   16.2708 N   0  0  0  0  0  0  0  0  0  0  0  0
  -30.4119  -23.4010   23.5039 N   0  0  0  0  0  0  0  0  0  0  0  0
  -22.9593  -13.0909   17.7566 N   0  0  0  0  0  0  0  0  0  0  0  0
  -27.5005  -20.2938   20.7142 N   0  0  0  0  0  0  0  0  0  0  0  0
  -24.4424  -22.3538   23.8553 N   0  0  0  0  0  0  0  0  0  0  0  0
  -28.3216  -28.4260   20.4966 N   0  0  0  0  0  0  0  0  0  0  0  0
  -25.3594  -33.6920   23.6518 N   0  0  0  0  0  0  0  0  0  0  0  0
  -28.9439  -24.3829   25.0028 N   0  3  0  0  0  0  0  0  0  0  0  0
  -21.9978  -34.9127   23.1253 N   0  3  0  0  0  0  0  0  0  0  0  0
  -23.0815  -14.6540   16.0831 O   0  0  0  0  0  0  0  0  0  0  0  0
  -27.9157  -28.9961   22.7176 O   0  0  0  0  0  0  0  0  0  0  0  0
  -21.8166  -22.7721   23.9770 O   0  0  0  0  0  0  0  0  0  0  0  0
  -27.3278  -32.6192   21.8677 O   0  0  0  0  0  0  0  0  0  0  0  0
  -23.3585  -32.8424   24.4591 O   0  0  0  0  0  0  0  0  0  0  0  0
  -29.6292  -20.8573   19.9843 O   0  0  0  0  0  0  0  0  0  0  0  0
  -24.0669  -10.1767   22.3735 O   0  0  0  0  0  0  0  0  0  0  0  0
  -21.9647  -26.2525   23.4680 O   0  0  0  0  0  0  0  0  0  1  0  0
  -22.9460   -5.3036   20.0495 F   0  0  0  0  0  0  0  0  0  0  0  0
  -25.5861   -7.9427   22.9599 F   0  0  0  0  0  0  0  0  0  0  0  0
  1  2  1  0  0  0  0
  1  5  2  0  0  0  0
  2  6  2  0  0  0  0
  3  8  2  0  0  0  0
  3 18  1  0  0  0  0
  4  9  1  0  0  0  0
  4 18  2  0  0  0  0
  5 21  1  0  0  0  0
  6 23  1  0  0  0  0
  7 10  2  0  0  0  0
  7 22  1  0  0  0  0
  8 27  1  0  0  0  0
  9 27  2  0  0  0  0
 10 28  1  0  0  0  0
 11 12  2  0  0  0  0
 11 29  1  0  0  0  0
 12 30  1  0  0  0  0
 13 19  2  0  0  0  0
 13 25  1  0  0  0  0
 14 19  1  0  0  0  0
 14 26  2  0  0  0  0
 15 24  1  0  0  0  0
 15 28  2  0  0  0  0
 16 25  2  0  0  0  0
 16 26  1  0  0  0  0
 17 30  2  0  0  0  0
 17 31  1  0  0  0  0
 18 32  1  0  0  0  0
 19 34  1  0  0  0  0
 20 32  1  0  0  0  0
 20 33  2  0  0  0  0
 20 35  1  0  0  0  0
 21 23  2  0  0  0  0
 21 41  1  0  0  0  0
 22 24  2  0  0  0  0
 22 42  1  0  0  0  0
 23 50  1  0  0  0  0
 24 43  1  0  0  0  0
 25 73  1  0  0  0  0
 26 74  1  0  0  0  0
 27 85  1  0  0  0  0
 28 86  1  0  0  0  0
 29 31  2  0  0  0  0
 29 85  1  0  0  0  0
 30 87  1  0  0  0  0
 31 88  1  0  0  0  0
 32 66  2  0  0  0  0
 33 67  1  0  0  0  0
 33 70  1  0  0  0  0
 34 71  1  0  0  0  0
 34 77  2  0  0  0  0
 35 72  1  0  0  0  0
 35 79  2  0  0  0  0
 36 51  1  0  0  0  0
 36 75  1  0  0  0  0
 36 80  2  0  0  0  0
 37 60  1  0  0  0  0
 37 64  1  0  0  0  0
 37 81  2  0  0  0  0
 38 62  1  0  0  0  0
 38 68  1  0  0  0  0
 38 82  2  0  0  0  0
 39 63  1  0  0  0  0
 39 76  1  0  0  0  0
 39 83  2  0  0  0  0
 40 69  1  0  0  0  0
 40 73  1  0  0  0  0
 40 84  2  0  0  0  0
 41 44  1  0  0  0  0
 42 51  1  0  0  0  0
 43 68  1  0  0  0  0
 44 46  1  0  0  0  0
 45 47  1  0  0  0  0
 45 48  1  0  0  0  0
 46 50  1  0  0  0  0
 47 52  1  0  0  0  0
 48 69  1  0  0  0  0
 49 52  1  0  0  0  0
 49 69  1  0  0  0  0
 50 75  1  0  0  0  0
 51 68  1  0  0  0  0
 52 67  1  0  0  0  0
 53 63  1  0  0  0  0
 54 64  1  0  0  0  0
 55 64  1  0  0  0  0
 56 65  1  0  0  0  0
 57 65  1  0  0  0  0
 58 65  1  0  0  0  0
 59 78  1  0  0  0  0
 60 74  1  0  0  0  0
 61 64  1  0  0  0  0
 61 86  1  0  0  0  0
 62 65  1  0  0  0  0
 62 76  1  0  0  0  0
 63 78  1  0  0  0  0
 66 67  1  0  0  0  0
M  CHG  2  77   1  78   1
M  ISO  4  40 100  61 101  73 100  86 101
M  END
> <Batch ID>
0146

> <Smiles>
CNC(C)C(=O)NC(C(=O)N1Cc2cc([101O:1][101CH2:1]C(C)(C)C(=O)CNc3cc([100NH:0][100C:0](=O)N4CCCC(n5nc(-c6ccc(Oc7ccc(F)cc7F)cc6)c(C(N)=O)c5N)C4)cc(C(=N)N)c3)ccc2CC1C(=O)NC1CCCc2ccccc21)C(C)(C)C

> <Shape>
0.259

> <Color>
0.052

> <Negative vol penalty>
0.000

$$$$

  -OEChem-04052303103D

 85 94  0     1  0  0  0  0  0999 V2000
  -17.5243  -30.5108   23.6201 C   0  0  0  0  0  0  0  0  0  0  0  0
  -18.8850  -30.2284   23.6841 C   0  0  0  0  0  0  0  0  0  0  0  0
  -25.3599  -15.9417   21.7005 C   0  0  0  0  0  0  0  0  0  0  0  0
  -24.9700  -16.4009   19.3608 C   0  0  0  0  0  0  0  0  0  0  0  0
  -16.6161  -29.4956   23.3228 C   0  0  0  0  0  0  0  0  0  0  0  0
  -19.3382  -28.9303   23.4519 C   0  0  0  0  0  0  0  0  0  0  0  0
  -23.3900  -28.8009   20.4168 C   0  0  0  0  0  0  0  0  0  0  0  0
  -24.1232  -15.3016   21.7810 C   0  0  0  0  0  0  0  0  0  0  0  0
  -23.7333  -15.7607   19.4413 C   0  0  0  0  0  0  0  0  0  0  0  0
  -24.6219  -29.1216   20.9854 C   0  0  0  0  0  0  0  0  0  0  0  0
  -22.8143  -12.2976   20.9470 C   0  0  0  0  0  0  0  0  0  0  0  0
  -22.7594  -11.0752   21.6164 C   0  0  0  0  0  0  0  0  0  0  0  0
  -33.3332  -26.9718   18.7035 C   0  0  0  0  0  0  0  0  0  0  0  0
  -32.8851  -28.1975   19.2513 C   0  0  0  0  0  0  0  0  0  0  0  0
  -25.1429  -26.7732   21.1663 C   0  0  0  0  0  0  0  0  0  0  0  0
  -21.1725  -12.0045   23.1834 C   0  0  0  0  0  0  0  0  0  0  0  0
  -25.7832  -16.4914   20.4904 C   0  0  0  0  0  0  0  0  0  0  0  0
  -28.3007  -16.5700   20.0854 C   0  0  0  0  0  0  0  0  0  0  0  0
  -17.0592  -28.1864   23.0773 C   0  0  0  0  0  0  0  0  0  0  0  0
  -23.0201  -27.4615   20.2284 C   0  0  0  0  0  0  0  0  0  0  0  0
  -18.4349  -27.8964   23.1523 C   0  0  0  0  0  0  0  0  0  0  0  0
  -23.9068  -26.4382   20.5927 C   0  0  0  0  0  0  0  0  0  0  0  0
  -23.3099  -15.2111   20.6514 C   0  0  0  0  0  0  0  0  0  0  0  0
  -25.4974  -28.1076   21.3629 C   0  0  0  0  0  0  0  0  0  0  0  0
  -22.0483  -13.3736   21.3957 C   0  0  0  0  0  0  0  0  0  0  0  0
  -21.9386  -10.9286   22.7346 C   0  0  0  0  0  0  0  0  0  0  0  0
  -21.2274  -13.2270   22.5139 C   0  0  0  0  0  0  0  0  0  0  0  0
  -27.0604  -17.1533   20.4067 C   0  0  0  0  0  0  0  0  0  0  0  0
  -32.2936  -26.0837   18.8531 C   0  0  0  0  0  0  0  0  0  0  0  0
  -29.1943  -17.6116   20.1400 C   0  0  0  0  0  0  0  0  0  0  0  0
  -31.6033  -27.9711   19.6962 C   0  0  0  0  0  0  0  0  0  0  0  0
  -28.6167  -15.2085   19.7660 C   0  0  0  0  0  0  0  0  0  0  0  0
  -20.6803  -25.6061   21.3177 C   0  0  0  0  0  0  0  0  0  0  0  0
  -21.9258  -23.4687   19.2194 C   0  0  0  0  0  0  0  0  0  0  0  0
  -24.6276  -22.4085   17.4242 C   0  0  0  0  0  0  0  0  0  0  0  0
  -30.5978  -22.7464   18.8709 C   0  0  0  0  0  0  0  0  0  0  0  0
  -16.0357  -27.1124   22.8063 C   0  0  0  0  0  0  0  0  0  0  0  0
  -21.6988  -27.1327   19.5892 C   0  0  0  0  0  0  0  0  0  0  0  0
  -23.5657  -24.9849   20.3930 C   0  0  0  0  0  0  0  0  0  0  0  0
  -16.6306  -25.8420   22.2044 C   0  0  0  0  0  0  0  0  0  0  0  0
  -28.6568  -22.3252   21.8962 C   0  0  0  0  0  0  0  0  0  0  0  0
  -17.8832  -25.4250   22.9686 C   0  0  0  0  0  0  0  0  0  0  0  0
  -28.1697  -20.8828   21.7467 C   0  0  0  0  0  0  0  0  0  0  0  0
  -28.6785  -23.0437   20.5503 C   0  0  0  0  0  0  0  0  0  0  0  0
  -30.9335  -30.1973   20.6329 C   0  0  0  0  0  0  0  0  0  0  0  0
  -28.9960  -20.9163   19.3475 C   0  0  0  0  0  0  0  0  0  0  0  0
  -29.3334  -28.3766   20.6906 C   0  0  0  0  0  0  0  0  0  0  0  0
  -18.9675  -26.5059   22.8822 C   0  0  1  0  0  0  0  0  0  0  0  0
  -21.2103  -25.7251   19.9168 C   0  0  1  0  0  0  0  0  0  0  0  0
  -29.5466  -30.7415   21.0058 C   0  0  1  0  0  0  0  0  0  0  0  0
  -28.9728  -20.1289   20.6703 C   0  0  2  0  0  0  0  0  0  0  0  0
  -28.8247  -29.5130   21.6087 C   0  0  2  0  0  0  0  0  0  0  0  0
  -29.6243  -31.9802   21.8871 C   0  0  0  0  0  0  0  0  0  0  0  0
  -29.2182  -29.2279   23.0699 C   0  0  0  0  0  0  0  0  0  0  0  0
  -25.3506  -20.6114   15.8288 C   0  0  0  0  0  0  0  0  0  0  0  0
  -22.1019  -21.4883   21.5339 C   0  0  0  0  0  0  0  0  0  0  0  0
  -23.6624  -20.1096   20.1439 C   0  0  0  0  0  0  0  0  0  0  0  0
  -21.3225  -20.5004   19.3726 C   0  0  0  0  0  0  0  0  0  0  0  0
  -25.2249  -24.3766   15.2961 C   0  0  0  0  0  0  0  0  0  0  0  0
  -32.1217  -24.6685   18.4963 C   0  0  0  0  0  0  0  0  0  0  0  0
  -27.3009  -29.6497   21.5212 C   0  0  0  0  0  0  0  0  0  1  0  0
  -22.9893  -22.3995   19.2871 C   0  0  1  0  0  0  0  0  0  0  0  0
  -24.7758  -22.0127   15.9662 C   0  0  2  0  0  0  0  0  0  0  0  0
  -22.5249  -21.1517   20.0900 C   0  0  0  0  0  0  0  0  0  0  0  0
  -27.1538  -18.4637   20.6478 N   0  0  0  0  0  0  0  0  0  0  0  0
  -28.4635  -18.7124   20.4779 N   0  0  0  0  0  0  0  0  0  0  0  0
  -30.6837  -28.7943   20.3116 N   0  0  3  0  0  0  0  0  0  0  0  0
  -22.2595  -24.7143   19.7699 N   0  0  0  0  0  0  0  0  0  0  0  0
  -29.4745  -22.2837   19.5762 N   0  0  0  0  0  0  0  0  0  0  0  0
  -30.5261  -17.6840   19.9315 N   0  0  0  0  0  0  0  0  0  0  0  0
  -27.5789  -14.2666   19.7549 N   0  0  0  0  0  0  0  0  0  0  0  0
  -19.6280  -26.4575   21.5954 N   0  0  0  0  0  0  0  0  0  0  0  0
  -23.3702  -22.1148   17.9078 N   0  0  0  0  0  0  0  0  0  0  0  0
  -30.9816  -24.0545   19.1399 N   0  0  0  0  0  0  0  0  0  0  0  0
  -25.6813  -22.9633   15.2608 N   0  3  0  0  0  0  0  0  0  0  0  0
  -29.7875  -14.8349   19.5144 O   0  0  0  0  0  0  0  0  0  0  0  0
  -21.1875  -24.8003   22.0892 O   0  0  0  0  0  0  0  0  0  0  0  0
  -20.8414  -23.2105   18.6910 O   0  0  0  0  0  0  0  0  0  0  0  0
  -25.5375  -22.9232   18.0705 O   0  0  0  0  0  0  0  0  0  0  0  0
  -31.2168  -22.0437   18.0646 O   0  0  0  0  0  0  0  0  0  0  0  0
  -31.2353  -26.6850   19.4572 O   0  0  0  0  0  0  0  0  0  0  0  0
  -22.1032  -14.5863   20.7295 O   0  0  0  0  0  0  0  0  0  0  0  0
  -26.7002  -28.4178   21.9186 O   0  0  0  0  0  0  0  0  0  1  0  0
  -21.8848   -9.7542   23.3765 F   0  0  0  0  0  0  0  0  0  0  0  0
  -20.4883  -14.2567   22.9490 F   0  0  0  0  0  0  0  0  0  0  0  0
  1  2  1  0  0  0  0
  1  5  2  0  0  0  0
  2  6  2  0  0  0  0
  3  8  2  0  0  0  0
  3 17  1  0  0  0  0
  4  9  1  0  0  0  0
  4 17  2  0  0  0  0
  5 19  1  0  0  0  0
  6 21  1  0  0  0  0
  7 10  2  0  0  0  0
  7 20  1  0  0  0  0
  8 23  1  0  0  0  0
  9 23  2  0  0  0  0
 10 24  1  0  0  0  0
 11 12  2  0  0  0  0
 11 25  1  0  0  0  0
 12 26  1  0  0  0  0
 13 14  1  0  0  0  0
 13 29  2  0  0  0  0
 14 31  2  0  0  0  0
 15 22  1  0  0  0  0
 15 24  2  0  0  0  0
 16 26  2  0  0  0  0
 16 27  1  0  0  0  0
 17 28  1  0  0  0  0
 18 28  1  0  0  0  0
 18 30  2  0  0  0  0
 18 32  1  0  0  0  0
 19 21  2  0  0  0  0
 19 37  1  0  0  0  0
 20 22  2  0  0  0  0
 20 38  1  0  0  0  0
 21 48  1  0  0  0  0
 22 39  1  0  0  0  0
 23 82  1  0  0  0  0
 24 83  1  0  0  0  0
 25 27  2  0  0  0  0
 25 82  1  0  0  0  0
 26 84  1  0  0  0  0
 27 85  1  0  0  0  0
 28 65  2  0  0  0  0
 29 60  1  0  0  0  0
 29 81  1  0  0  0  0
 30 66  1  0  0  0  0
 30 70  1  0  0  0  0
 31 67  1  0  0  0  0
 31 81  1  0  0  0  0
 32 71  1  0  0  0  0
 32 76  2  0  0  0  0
 33 49  1  0  0  0  0
 33 72  1  0  0  0  0
 33 77  2  0  0  0  0
 34 62  1  0  0  0  0
 34 68  1  0  0  0  0
 34 78  2  0  0  0  0
 35 63  1  0  0  0  0
 35 73  1  0  0  0  0
 35 79  2  0  0  0  0
 36 69  1  0  0  0  0
 36 74  1  0  0  0  0
 36 80  2  0  0  0  0
 37 40  1  0  0  0  0
 38 49  1  0  0  0  0
 39 68  1  0  0  0  0
 40 42  1  0  0  0  0
 41 43  1  0  0  0  0
 41 44  1  0  0  0  0
 42 48  1  0  0  0  0
 43 51  1  0  0  0  0
 44 69  1  0  0  0  0
 45 50  1  0  0  0  0
 45 67  1  0  0  0  0
 46 51  1  0  0  0  0
 46 69  1  0  0  0  0
 47 52  1  0  0  0  0
 47 67  1  0  0  0  0
 48 72  1  0  0  0  0
 49 68  1  0  0  0  0
 50 52  1  0  0  0  0
 50 53  1  0  0  0  0
 51 66  1  0  0  0  0
 52 54  1  0  0  0  0
 52 61  1  0  0  0  0
 55 63  1  0  0  0  0
 56 64  1  0  0  0  0
 57 64  1  0  0  0  0
 58 64  1  0  0  0  0
 59 75  1  0  0  0  0
 60 74  1  0  0  0  0
 61 83  1  0  0  0  0
 62 64  1  0  0  0  0
 62 73  1  0  0  0  0
 63 75  1  0  0  0  0
 65 66  1  0  0  0  0
M  CHG  1  75   1
M  ISO  4  36 100  61 101  74 100  83 101
M  END
> <Batch ID>
0146

> <Smiles>
CNC(C)C(=O)NC(C(=O)N1Cc2cc([101O:1][101CH2:1]C3(C)CN(c4ccc(C[100NH:0][100C:0](=O)N5CCCC(n6nc(-c7ccc(Oc8ccc(F)cc8F)cc7)c(C(N)=O)c6N)C5)o4)CC3C)ccc2CC1C(=O)NC1CCCc2ccccc21)C(C)(C)C

> <Shape>
0.239

> <Color>
0.057

> <Negative vol penalty>
0.000

$$$$

  -OEChem-04052303103D

 88 97  0     1  0  0  0  0  0999 V2000
  -16.5633  -29.1406   23.5979 C   0  0  0  0  0  0  0  0  0  0  0  0
  -17.1890  -28.8422   22.3917 C   0  0  0  0  0  0  0  0  0  0  0  0
  -22.9165   -9.6600   20.1306 C   0  0  0  0  0  0  0  0  0  0  0  0
  -24.2588   -9.5278   22.1351 C   0  0  0  0  0  0  0  0  0  0  0  0
  -17.2174  -29.9270   24.5453 C   0  0  0  0  0  0  0  0  0  0  0  0
  -18.4689  -29.3310   22.1318 C   0  0  0  0  0  0  0  0  0  0  0  0
  -23.9339  -24.8533   20.7265 C   0  0  0  0  0  0  0  0  0  0  0  0
  -22.2517   -8.4903   20.4986 C   0  0  0  0  0  0  0  0  0  0  0  0
  -23.5940   -8.3581   22.5031 C   0  0  0  0  0  0  0  0  0  0  0  0
  -24.9837  -24.0727   20.2421 C   0  0  0  0  0  0  0  0  0  0  0  0
  -20.6326   -7.5102   23.8931 C   0  0  0  0  0  0  0  0  0  0  0  0
  -20.2138   -7.3943   25.2185 C   0  0  0  0  0  0  0  0  0  0  0  0
  -30.7837  -19.6140   21.7959 C   0  0  0  0  0  0  0  0  0  0  0  0
  -30.9317  -18.2514   21.4066 C   0  0  0  0  0  0  0  0  0  0  0  0
  -26.4070  -26.0255   20.1489 C   0  0  0  0  0  0  0  0  0  0  0  0
  -21.5824   -5.4203   25.4783 C   0  0  0  0  0  0  0  0  0  0  0  0
  -23.9201  -10.1788   20.9488 C   0  0  0  0  0  0  0  0  0  0  0  0
  -24.0396  -12.6573   20.3571 C   0  0  0  0  0  0  0  0  0  0  0  0
  -18.5098  -30.4176   24.3010 C   0  0  0  0  0  0  0  0  0  0  0  0
  -24.1216  -26.2219   20.9388 C   0  0  0  0  0  0  0  0  0  0  0  0
  -19.1403  -30.1258   23.0764 C   0  0  0  0  0  0  0  0  0  0  0  0
  -25.3629  -26.8102   20.6457 C   0  0  0  0  0  0  0  0  0  0  0  0
  -22.5904   -7.8394   21.6849 C   0  0  0  0  0  0  0  0  0  0  0  0
  -26.2171  -24.6574   19.9537 C   0  0  0  0  0  0  0  0  0  0  0  0
  -21.5263   -6.5811   23.3602 C   0  0  0  0  0  0  0  0  0  0  0  0
  -20.6887   -6.3493   26.0111 C   0  0  0  0  0  0  0  0  0  0  0  0
  -22.0012   -5.5362   24.1528 C   0  0  0  0  0  0  0  0  0  0  0  0
  -24.6075  -11.3867   20.5690 C   0  0  0  0  0  0  0  0  0  0  0  0
  -29.5080  -19.8909   22.2356 C   0  0  0  0  0  0  0  0  0  0  0  0
  -25.1036  -13.4567   20.0173 C   0  0  0  0  0  0  0  0  0  0  0  0
  -29.7633  -17.5386   21.5639 C   0  0  0  0  0  0  0  0  0  0  0  0
  -22.6725  -13.0775   20.4584 C   0  0  0  0  0  0  0  0  0  0  0  0
  -22.6382  -29.4734   22.0804 C   0  0  0  0  0  0  0  0  0  0  0  0
  -29.5350  -22.8530   20.8557 C   0  0  0  0  0  0  0  0  0  0  0  0
  -25.5099  -29.3780   23.1551 C   0  0  0  0  0  0  0  0  0  0  0  0
  -28.3765  -29.7421   24.9681 C   0  0  0  0  0  0  0  0  0  0  0  0
  -30.3311  -15.2037   20.8074 C   0  0  0  0  0  0  0  0  0  0  0  0
  -19.1579  -31.3029   25.3358 C   0  0  0  0  0  0  0  0  0  0  0  0
  -23.0004  -27.1125   21.4010 C   0  0  0  0  0  0  0  0  0  0  0  0
  -25.5086  -28.2925   20.8568 C   0  0  0  0  0  0  0  0  0  0  0  0
  -20.6622  -31.4703   25.1381 C   0  0  0  0  0  0  0  0  0  0  0  0
  -29.8826  -12.2609   18.8540 C   0  0  0  0  0  0  0  0  0  0  0  0
  -20.9784  -31.7712   23.6765 C   0  0  0  0  0  0  0  0  0  0  0  0
  -29.1297  -21.3603   24.2488 C   0  0  0  0  0  0  0  0  0  0  0  0
  -28.4235  -11.8757   19.1086 C   0  0  0  0  0  0  0  0  0  0  0  0
  -30.4096  -22.1810   24.3867 C   0  0  0  0  0  0  0  0  0  0  0  0
  -30.5461  -12.8292   20.1073 C   0  0  0  0  0  0  0  0  0  0  0  0
  -28.3662  -13.5548   20.9965 C   0  0  0  0  0  0  0  0  0  0  0  0
  -20.5381  -30.6169   22.7680 C   0  0  1  0  0  0  0  0  0  0  0  0
  -28.9449  -21.2110   22.7327 C   0  0  1  0  0  0  0  0  0  0  0  0
  -23.4746  -28.2513   22.3216 C   0  0  1  0  0  0  0  0  0  0  0  0
  -27.6368  -13.0378   19.7458 C   0  0  2  0  0  0  0  0  0  0  0  0
  -30.3592  -23.1344   23.1919 C   0  0  2  0  0  0  0  0  0  0  0  0
  -29.8683  -31.4976   25.9631 C   0  0  0  0  0  0  0  0  0  0  0  0
  -28.4501  -24.1928   24.4322 C   0  0  0  0  0  0  0  0  0  0  0  0
  -30.6540  -25.3841   24.2664 C   0  0  0  0  0  0  0  0  0  0  0  0
  -26.6303  -29.9906   20.3851 C   0  0  0  0  0  0  0  0  0  0  0  0
  -28.6549  -30.9579   21.4957 C   0  0  0  0  0  0  0  0  0  0  0  0
  -26.4128  -31.9792   21.8860 C   0  0  0  0  0  0  0  0  0  0  0  0
  -27.9387  -28.7240   27.7124 C   0  0  0  0  0  0  0  0  0  0  0  0
  -28.7041  -22.0288   19.9041 C   0  0  0  0  0  0  0  0  0  0  0  0
  -27.2689  -22.5246   19.9035 C   0  0  0  0  0  0  0  0  0  1  0  0
  -26.9559  -29.7436   22.9344 C   0  0  1  0  0  0  0  0  0  0  0  0
  -28.6895  -30.5672   26.2033 C   0  0  2  0  0  0  0  0  0  0  0  0
  -29.6745  -24.4520   23.5588 C   0  0  0  0  0  0  0  0  0  0  0  0
  -27.1555  -30.6410   21.6805 C   0  0  0  0  0  0  0  0  0  0  0  0
  -25.9296  -11.3748   20.3795 N   0  0  0  0  0  0  0  0  0  0  0  0
  -26.2013  -12.6477   20.0449 N   0  0  0  0  0  0  0  0  0  0  0  0
  -24.8677  -28.6852   22.1216 N   0  0  0  0  0  0  0  0  0  0  0  0
  -29.6034  -22.4027   22.1679 N   0  0  0  0  0  0  0  0  0  0  0  0
  -29.7472  -13.9286   20.6530 N   0  0  0  0  0  0  0  0  0  0  0  0
  -25.1979  -14.7655   19.7005 N   0  0  0  0  0  0  0  0  0  0  0  0
  -22.2082  -13.5486   21.6940 N   0  0  0  0  0  0  0  0  0  0  0  0
  -29.4659  -16.1777   21.3048 N   0  0  0  0  0  0  0  0  0  0  0  0
  -21.4861  -29.5259   22.8416 N   0  0  0  0  0  0  0  0  0  0  0  0
  -27.4195  -30.3454   24.1799 N   0  0  0  0  0  0  0  0  0  0  0  0
  -29.0202  -29.6764   27.3513 N   0  3  0  0  0  0  0  0  0  0  0  0
  -21.8816  -13.0209   19.4864 O   0  0  0  0  0  0  0  0  0  0  0  0
  -23.0105  -30.3090   21.2650 O   0  0  0  0  0  0  0  0  0  0  0  0
  -30.1126  -23.8626   20.4454 O   0  0  0  0  0  0  0  0  0  0  0  0
  -24.9605  -29.7017   24.2119 O   0  0  0  0  0  0  0  0  0  0  0  0
  -28.9286  -28.6713   24.7249 O   0  0  0  0  0  0  0  0  0  0  0  0
  -31.5041  -15.4226   20.4941 O   0  0  0  0  0  0  0  0  0  0  0  0
  -21.9418   -6.6981   22.0444 O   0  0  0  0  0  0  0  0  0  0  0  0
  -27.2390  -23.8887   19.4853 O   0  0  0  0  0  0  0  0  0  1  0  0
  -20.2876   -6.2390   27.2843 F   0  0  0  0  0  0  0  0  0  0  0  0
  -22.8608   -4.6413   23.6468 F   0  0  0  0  0  0  0  0  0  0  0  0
  -28.4951  -18.5114   22.1783 S   0  0  0  0  0  0  0  0  0  0  0  0
  1  2  1  0  0  0  0
  1  5  2  0  0  0  0
  2  6  2  0  0  0  0
  3  8  2  0  0  0  0
  3 17  1  0  0  0  0
  4  9  1  0  0  0  0
  4 17  2  0  0  0  0
  5 19  1  0  0  0  0
  6 21  1  0  0  0  0
  7 10  2  0  0  0  0
  7 20  1  0  0  0  0
  8 23  1  0  0  0  0
  9 23  2  0  0  0  0
 10 24  1  0  0  0  0
 11 12  2  0  0  0  0
 11 25  1  0  0  0  0
 12 26  1  0  0  0  0
 13 14  1  0  0  0  0
 13 29  2  0  0  0  0
 14 31  2  0  0  0  0
 15 22  1  0  0  0  0
 15 24  2  0  0  0  0
 16 26  2  0  0  0  0
 16 27  1  0  0  0  0
 17 28  1  0  0  0  0
 18 28  1  0  0  0  0
 18 30  2  0  0  0  0
 18 32  1  0  0  0  0
 19 21  2  0  0  0  0
 19 38  1  0  0  0  0
 20 22  2  0  0  0  0
 20 39  1  0  0  0  0
 21 49  1  0  0  0  0
 22 40  1  0  0  0  0
 23 84  1  0  0  0  0
 24 85  1  0  0  0  0
 25 27  2  0  0  0  0
 25 84  1  0  0  0  0
 26 86  1  0  0  0  0
 27 87  1  0  0  0  0
 28 67  2  0  0  0  0
 29 50  1  0  0  0  0
 29 88  1  0  0  0  0
 30 68  1  0  0  0  0
 30 72  1  0  0  0  0
 31 74  1  0  0  0  0
 31 88  1  0  0  0  0
 32 73  1  0  0  0  0
 32 78  2  0  0  0  0
 33 51  1  0  0  0  0
 33 75  1  0  0  0  0
 33 79  2  0  0  0  0
 34 61  1  0  0  0  0
 34 70  1  0  0  0  0
 34 80  2  0  0  0  0
 35 63  1  0  0  0  0
 35 69  1  0  0  0  0
 35 81  2  0  0  0  0
 36 64  1  0  0  0  0
 36 76  1  0  0  0  0
 36 82  2  0  0  0  0
 37 71  1  0  0  0  0
 37 74  1  0  0  0  0
 37 83  2  0  0  0  0
 38 41  1  0  0  0  0
 39 51  1  0  0  0  0
 40 69  1  0  0  0  0
 41 43  1  0  0  0  0
 42 45  1  0  0  0  0
 42 47  1  0  0  0  0
 43 49  1  0  0  0  0
 44 46  1  0  0  0  0
 44 50  1  0  0  0  0
 45 52  1  0  0  0  0
 46 53  1  0  0  0  0
 47 71  1  0  0  0  0
 48 52  1  0  0  0  0
 48 71  1  0  0  0  0
 49 75  1  0  0  0  0
 50 70  1  0  0  0  0
 51 69  1  0  0  0  0
 52 68  1  0  0  0  0
 53 65  1  0  0  0  0
 53 70  1  0  0  0  0
 54 64  1  0  0  0  0
 55 65  1  0  0  0  0
 56 65  1  0  0  0  0
 57 66  1  0  0  0  0
 58 66  1  0  0  0  0
 59 66  1  0  0  0  0
 60 77  1  0  0  0  0
 61 62  1  0  0  0  0
 62 85  1  0  0  0  0
 63 66  1  0  0  0  0
 63 76  1  0  0  0  0
 64 77  1  0  0  0  0
 67 68  1  0  0  0  0
M  CHG  1  77   1
M  ISO  4  37 100  62 101  74 100  85 101
M  END
> <Batch ID>
0146

> <Smiles>
CNC(C)C(=O)NC(C(=O)N1Cc2cc([101O:1][101CH2:1]CC(=O)N3C(c4ccc([100NH:0][100C:0](=O)N5CCCC(n6nc(-c7ccc(Oc8ccc(F)cc8F)cc7)c(C(N)=O)c6N)C5)s4)CCC3C(C)C)ccc2CC1C(=O)NC1CCCc2ccccc21)C(C)(C)C

> <Shape>
0.346

> <Color>
0.160

> <Negative vol penalty>
0.000

$$$$

  -OEChem-04052303103D

 90 99  0     1  0  0  0  0  0999 V2000
  -21.7574  -11.8997   19.3690 C   0  0  0  0  0  0  0  0  0  0  0  0
  -21.7993  -13.2713   19.1403 C   0  0  0  0  0  0  0  0  0  0  0  0
  -30.7047  -25.7363   18.6574 C   0  0  0  0  0  0  0  0  0  0  0  0
  -30.7123  -25.4187   21.0524 C   0  0  0  0  0  0  0  0  0  0  0  0
  -22.8055  -11.2741   20.0427 C   0  0  0  0  0  0  0  0  0  0  0  0
  -22.8890  -14.0184   19.5862 C   0  0  0  0  0  0  0  0  0  0  0  0
  -24.5579  -17.2907   16.1003 C   0  0  0  0  0  0  0  0  0  0  0  0
  -32.0814  -25.5152   18.6236 C   0  0  0  0  0  0  0  0  0  0  0  0
  -32.0892  -25.1975   21.0187 C   0  0  0  0  0  0  0  0  0  0  0  0
  -23.8296  -18.4674   15.9312 C   0  0  0  0  0  0  0  0  0  0  0  0
  -34.1852  -22.6677   20.2268 C   0  0  0  0  0  0  0  0  0  0  0  0
  -34.6859  -21.5945   20.9638 C   0  0  0  0  0  0  0  0  0  0  0  0
  -20.3028  -28.0128   21.4395 C   0  0  0  0  0  0  0  0  0  0  0  0
  -25.4416  -19.6518   17.2795 C   0  0  0  0  0  0  0  0  0  0  0  0
  -19.4981  -28.4974   23.6653 C   0  0  0  0  0  0  0  0  0  0  0  0
  -18.9337  -26.4003   22.6067 C   0  0  0  0  0  0  0  0  0  0  0  0
  -36.0477  -23.1165   22.2547 C   0  0  0  0  0  0  0  0  0  0  0  0
  -30.0201  -25.6881   19.8718 C   0  0  0  0  0  0  0  0  0  0  0  0
  -27.5786  -24.9541   19.7832 C   0  0  0  0  0  0  0  0  0  0  0  0
  -23.9132  -12.0123   20.4886 C   0  0  0  0  0  0  0  0  0  0  0  0
  -25.7297  -17.2833   16.8705 C   0  0  0  0  0  0  0  0  0  0  0  0
  -23.9523  -13.4023   20.2677 C   0  0  0  0  0  0  0  0  0  0  0  0
  -20.2227  -28.8734   22.5343 C   0  0  0  0  0  0  0  0  0  0  0  0
  -26.1844  -18.4742   17.4547 C   0  0  0  0  0  0  0  0  0  0  0  0
  -19.6583  -26.7763   21.4756 C   0  0  0  0  0  0  0  0  0  0  0  0
  -32.7737  -25.2458   19.8042 C   0  0  0  0  0  0  0  0  0  0  0  0
  -24.2698  -19.6476   16.5233 C   0  0  0  0  0  0  0  0  0  0  0  0
  -34.6158  -23.9653   20.5037 C   0  0  0  0  0  0  0  0  0  0  0  0
  -35.6172  -21.8189   21.9778 C   0  0  0  0  0  0  0  0  0  0  0  0
  -35.5470  -24.1896   21.5176 C   0  0  0  0  0  0  0  0  0  0  0  0
  -18.8536  -27.2609   23.7015 C   0  0  0  0  0  0  0  0  0  0  0  0
  -28.5980  -25.9170   19.9074 C   0  0  0  0  0  0  0  0  0  0  0  0
  -26.4128  -25.6734   19.8831 C   0  0  0  0  0  0  0  0  0  0  0  0
  -27.6767  -23.5362   19.5943 C   0  0  0  0  0  0  0  0  0  0  0  0
  -26.6563  -15.8102   19.5304 C   0  0  0  0  0  0  0  0  0  0  0  0
  -20.9728  -23.9884   19.1311 C   0  0  0  0  0  0  0  0  0  0  0  0
  -29.5107  -17.1844   18.8331 C   0  0  0  0  0  0  0  0  0  0  0  0
  -31.2137  -19.6835   17.2516 C   0  0  0  0  0  0  0  0  0  0  0  0
  -23.3992  -29.4717   22.4501 C   0  0  0  0  0  0  0  0  0  0  0  0
  -25.0000  -11.2998   21.2539 C   0  0  0  0  0  0  0  0  0  0  0  0
  -26.5184  -16.0114   17.0212 C   0  0  0  0  0  0  0  0  0  0  0  0
  -27.4470  -18.5238   18.2743 C   0  0  0  0  0  0  0  0  0  0  0  0
  -26.2939  -12.1023   21.3640 C   0  0  0  0  0  0  0  0  0  0  0  0
  -25.6095  -30.6689   19.8248 C   0  0  0  0  0  0  0  0  0  0  0  0
  -25.9959  -13.5428   21.7676 C   0  0  0  0  0  0  0  0  0  0  0  0
  -26.5022  -29.4465   19.6002 C   0  0  0  0  0  0  0  0  0  0  0  0
  -20.6996  -31.1872   21.2740 C   0  0  0  0  0  0  0  0  0  0  0  0
  -25.2557  -30.8192   21.2998 C   0  0  0  0  0  0  0  0  0  0  0  0
  -22.2021  -31.4547   21.2058 C   0  0  0  0  0  0  0  0  0  0  0  0
  -25.4929  -28.4087   21.6903 C   0  0  0  0  0  0  0  0  0  0  0  0
  -20.9561  -30.2792   22.4929 C   0  0  2  0  0  0  0  0  0  0  0  0
  -25.1289  -14.2429   20.7142 C   0  0  1  0  0  0  0  0  0  0  0  0
  -27.4199  -16.0096   18.2518 C   0  0  1  0  0  0  0  0  0  0  0  0
  -25.8829  -28.1782   20.2177 C   0  0  2  0  0  0  0  0  0  0  0  0
  -20.8886  -24.0050   21.6158 C   0  0  0  0  0  0  0  0  0  0  0  0
  -33.5357  -20.5660   16.8956 C   0  0  0  0  0  0  0  0  0  0  0  0
  -22.1139  -23.3374   16.1605 C   0  0  0  0  0  0  0  0  0  0  0  0
  -29.4993  -18.3457   21.6547 C   0  0  0  0  0  0  0  0  0  0  0  0
  -31.2915  -19.9375   20.9317 C   0  0  0  0  0  0  0  0  0  0  0  0
  -31.7181  -17.4801   20.8918 C   0  0  0  0  0  0  0  0  0  0  0  0
  -31.0398  -19.2887   14.3237 C   0  0  0  0  0  0  0  0  0  0  0  0
  -19.7443  -25.8561   20.3052 C   0  0  0  0  0  0  0  0  0  0  0  0
  -22.3481  -23.5178   18.6765 C   0  0  0  0  0  0  0  0  0  0  0  0
  -23.6164  -21.7517   17.4186 C   0  0  0  0  0  0  0  0  0  1  0  0
  -20.9427  -24.8848   20.3686 C   0  0  2  0  0  0  0  0  0  0  0  0
  -30.1748  -18.4982   19.1674 C   0  0  1  0  0  0  0  0  0  0  0  0
  -32.4408  -19.6576   16.3583 C   0  0  2  0  0  0  0  0  0  0  0  0
  -22.3172  -22.5662   17.4710 C   0  0  2  0  0  0  0  0  0  0  0  0
  -30.6461  -18.5643   20.6476 C   0  0  0  0  0  0  0  0  0  0  0  0
  -28.1216  -27.1537   20.0735 N   0  0  0  0  0  0  0  0  0  0  0  0
  -26.7901  -26.9728   20.0542 N   0  0  0  0  0  0  0  0  0  0  0  0
  -28.1797  -17.2528   18.3977 N   0  0  0  0  0  0  0  0  0  0  0  0
  -24.6339  -29.5934   21.8082 N   0  0  0  0  0  0  0  0  0  0  0  0
  -22.3799  -30.3299   22.1058 N   0  0  0  0  0  0  0  0  0  0  0  0
  -25.1120  -25.3148   19.8405 N   0  0  0  0  0  0  0  0  0  0  0  0
  -28.9516  -22.9596   19.5130 N   0  0  0  0  0  0  0  0  0  0  0  0
  -25.9331  -14.6336   19.5762 N   0  0  0  0  0  0  0  0  0  0  0  0
  -31.2446  -18.6749   18.1913 N   0  0  0  0  0  0  0  0  0  0  0  0
  -32.0893  -20.1085   14.9821 N   0  3  0  0  0  0  0  0  0  0  0  0
  -26.6638  -22.8045   19.4841 O   0  0  0  0  0  0  0  0  0  0  0  0
  -26.7198  -16.6602   20.4109 O   0  0  0  0  0  0  0  0  0  0  0  0
  -19.9359  -23.6514   18.5597 O   0  0  0  0  0  0  0  0  0  0  0  0
  -30.1517  -16.1366   18.9470 O   0  0  0  0  0  0  0  0  0  0  0  0
  -30.3191  -20.5175   17.1305 O   0  0  0  0  0  0  0  0  0  0  0  0
  -23.2010  -28.5839   23.2916 O   0  0  0  0  0  0  0  0  0  0  0  0
  -34.1171  -25.0297   19.7716 O   0  0  0  0  0  0  0  0  0  0  0  0
  -23.5554  -20.8056   16.3592 O   0  0  0  0  0  0  0  0  0  1  0  0
  -36.0968  -20.7884   22.6864 F   0  0  0  0  0  0  0  0  0  0  0  0
  -35.9635  -25.4341   21.7890 F   0  0  0  0  0  0  0  0  0  0  0  0
  -17.9601  -26.7962   25.0973 Cl  0  0  0  0  0  0  0  0  0  0  0  0
  1  2  1  0  0  0  0
  1  5  2  0  0  0  0
  2  6  2  0  0  0  0
  3  8  2  0  0  0  0
  3 18  1  0  0  0  0
  4  9  1  0  0  0  0
  4 18  2  0  0  0  0
  5 20  1  0  0  0  0
  6 22  1  0  0  0  0
  7 10  2  0  0  0  0
  7 21  1  0  0  0  0
  8 26  1  0  0  0  0
  9 26  2  0  0  0  0
 10 27  1  0  0  0  0
 11 12  2  0  0  0  0
 11 28  1  0  0  0  0
 12 29  1  0  0  0  0
 13 23  1  0  0  0  0
 13 25  2  0  0  0  0
 14 24  1  0  0  0  0
 14 27  2  0  0  0  0
 15 23  2  0  0  0  0
 15 31  1  0  0  0  0
 16 25  1  0  0  0  0
 16 31  2  0  0  0  0
 17 29  2  0  0  0  0
 17 30  1  0  0  0  0
 18 32  1  0  0  0  0
 19 32  1  0  0  0  0
 19 33  2  0  0  0  0
 19 34  1  0  0  0  0
 20 22  2  0  0  0  0
 20 40  1  0  0  0  0
 21 24  2  0  0  0  0
 21 41  1  0  0  0  0
 22 52  1  0  0  0  0
 23 51  1  0  0  0  0
 24 42  1  0  0  0  0
 25 62  1  0  0  0  0
 26 86  1  0  0  0  0
 27 87  1  0  0  0  0
 28 30  2  0  0  0  0
 28 86  1  0  0  0  0
 29 88  1  0  0  0  0
 30 89  1  0  0  0  0
 31 90  1  0  0  0  0
 32 70  2  0  0  0  0
 33 71  1  0  0  0  0
 33 75  1  0  0  0  0
 34 76  1  0  0  0  0
 34 80  2  0  0  0  0
 35 53  1  0  0  0  0
 35 77  1  0  0  0  0
 35 81  2  0  0  0  0
 36 63  1  0  0  0  0
 36 65  1  0  0  0  0
 36 82  2  0  0  0  0
 37 66  1  0  0  0  0
 37 72  1  0  0  0  0
 37 83  2  0  0  0  0
 38 67  1  0  0  0  0
 38 78  1  0  0  0  0
 38 84  2  0  0  0  0
 39 73  1  0  0  0  0
 39 74  1  0  0  0  0
 39 85  2  0  0  0  0
 40 43  1  0  0  0  0
 41 53  1  0  0  0  0
 42 72  1  0  0  0  0
 43 45  1  0  0  0  0
 44 46  1  0  0  0  0
 44 48  1  0  0  0  0
 45 52  1  0  0  0  0
 46 54  1  0  0  0  0
 47 49  1  0  0  0  0
 47 51  1  0  0  0  0
 48 73  1  0  0  0  0
 49 74  1  0  0  0  0
 50 54  1  0  0  0  0
 50 73  1  0  0  0  0
 51 74  1  0  0  0  0
 52 77  1  0  0  0  0
 53 72  1  0  0  0  0
 54 71  1  0  0  0  0
 55 65  1  0  0  0  0
 56 67  1  0  0  0  0
 57 68  1  0  0  0  0
 58 69  1  0  0  0  0
 59 69  1  0  0  0  0
 60 69  1  0  0  0  0
 61 79  1  0  0  0  0
 62 65  1  0  0  0  0
 63 68  1  0  0  0  0
 64 68  1  0  0  0  0
 64 87  1  0  0  0  0
 66 69  1  0  0  0  0
 66 78  1  0  0  0  0
 67 79  1  0  0  0  0
 70 71  1  0  0  0  0
M  CHG  1  79   1
M  ISO  4  39 100  64 101  74 100  87 101
M  END
> <Batch ID>
0146

> <Smiles>
CNC(C)C(=O)NC(C(=O)N1Cc2cc([101O:1][101CH2:1]C(C)CC(=O)C(C)Cc3cc(Cl)cc(C4CC[100N:0]4[100C:0](=O)N4CCCC(n5nc(-c6ccc(Oc7ccc(F)cc7F)cc6)c(C(N)=O)c5N)C4)c3)ccc2CC1C(=O)NC1CCCc2ccccc21)C(C)(C)C

> <Shape>
0.218

> <Color>
0.081

> <Negative vol penalty>
0.000

$$$$

  -OEChem-04052303103D

 91100  0     1  0  0  0  0  0999 V2000
  -20.1001  -25.7984   25.7546 C   0  0  0  0  0  0  0  0  0  0  0  0
  -21.3852  -25.8149   25.2220 C   0  0  0  0  0  0  0  0  0  0  0  0
  -24.2687  -10.2759   22.6222 C   0  0  0  0  0  0  0  0  0  0  0  0
  -24.4792  -11.8425   24.4494 C   0  0  0  0  0  0  0  0  0  0  0  0
  -19.0418  -26.3529   25.0360 C   0  0  0  0  0  0  0  0  0  0  0  0
  -21.6125  -26.3850   23.9700 C   0  0  0  0  0  0  0  0  0  0  0  0
  -25.7140  -29.3546   23.9031 C   0  0  0  0  0  0  0  0  0  0  0  0
  -30.4380  -19.8362   20.7485 C   0  0  0  0  0  0  0  0  0  0  0  0
  -23.8081   -9.3031   23.5093 C   0  0  0  0  0  0  0  0  0  0  0  0
  -24.0185  -10.8696   25.3365 C   0  0  0  0  0  0  0  0  0  0  0  0
  -26.9555  -28.7241   23.8334 C   0  0  0  0  0  0  0  0  0  0  0  0
  -30.5711  -21.2118   20.9372 C   0  0  0  0  0  0  0  0  0  0  0  0
  -20.9171   -8.5406   25.0886 C   0  0  0  0  0  0  0  0  0  0  0  0
  -19.8049   -7.7902   24.7073 C   0  0  0  0  0  0  0  0  0  0  0  0
  -27.0450  -29.1755   21.4654 C   0  0  0  0  0  0  0  0  0  0  0  0
  -21.1184   -5.7679   24.8556 C   0  0  0  0  0  0  0  0  0  0  0  0
  -24.6044  -11.5456   23.0922 C   0  0  0  0  0  0  0  0  0  0  0  0
  -24.3074  -13.4864   21.4636 C   0  0  0  0  0  0  0  0  0  0  0  0
  -19.2579  -26.9387   23.7787 C   0  0  0  0  0  0  0  0  0  0  0  0
  -25.1227  -29.8916   22.7505 C   0  0  0  0  0  0  0  0  0  0  0  0
  -20.5559  -26.9467   23.2333 C   0  0  0  0  0  0  0  0  0  0  0  0
  -25.7971  -29.8146   21.5236 C   0  0  0  0  0  0  0  0  0  0  0  0
  -29.1706  -19.2708   20.6083 C   0  0  0  0  0  0  0  0  0  0  0  0
  -28.1692  -21.4567   20.8456 C   0  0  0  0  0  0  0  0  0  0  0  0
  -23.6830   -9.5999   24.8665 C   0  0  0  0  0  0  0  0  0  0  0  0
  -27.6199  -28.6319   22.6139 C   0  0  0  0  0  0  0  0  0  0  0  0
  -29.4367  -22.0221   20.9858 C   0  0  0  0  0  0  0  0  0  0  0  0
  -22.1301   -7.9046   25.3533 C   0  0  0  0  0  0  0  0  0  0  0  0
  -19.9055   -6.4038   24.5909 C   0  0  0  0  0  0  0  0  0  0  0  0
  -22.2307   -6.5183   25.2368 C   0  0  0  0  0  0  0  0  0  0  0  0
  -28.0362  -20.0811   20.6569 C   0  0  0  0  0  0  0  0  0  0  0  0
  -25.0808  -12.5508   22.1764 C   0  0  0  0  0  0  0  0  0  0  0  0
  -25.2240  -14.2090   20.7395 C   0  0  0  0  0  0  0  0  0  0  0  0
  -22.8875  -13.6847   21.4565 C   0  0  0  0  0  0  0  0  0  0  0  0
  -22.4444  -29.3295   21.1336 C   0  0  0  0  0  0  0  0  0  0  0  0
  -30.1027  -26.2065   21.5559 C   0  0  0  0  0  0  0  0  0  0  0  0
  -23.3890  -31.9235   19.4304 C   0  0  0  0  0  0  0  0  0  0  0  0
  -25.9416  -33.9423   18.4029 C   0  0  0  0  0  0  0  0  0  0  0  0
  -30.0654  -16.9307   20.3447 C   0  0  0  0  0  0  0  0  0  0  0  0
  -18.0745  -27.4832   23.0185 C   0  0  0  0  0  0  0  0  0  0  0  0
  -23.7952  -30.5921   22.8473 C   0  0  0  0  0  0  0  0  0  0  0  0
  -25.2146  -30.3928   20.2608 C   0  0  0  0  0  0  0  0  0  0  0  0
  -18.4632  -28.4026   21.8636 C   0  0  0  0  0  0  0  0  0  0  0  0
  -30.1525  -13.3968   19.9194 C   0  0  0  0  0  0  0  0  0  0  0  0
  -24.7792  -22.6424   21.9669 C   0  0  0  0  0  0  0  0  0  0  0  0
  -25.6427  -23.8572   22.2636 C   0  0  0  0  0  0  0  0  0  0  0  0
  -19.5858  -27.7797   21.0399 C   0  0  0  0  0  0  0  0  0  0  0  0
  -28.7772  -12.9386   20.4101 C   0  0  0  0  0  0  0  0  0  0  0  0
  -30.6920  -14.5604   20.7494 C   0  0  0  0  0  0  0  0  0  0  0  0
  -28.4083  -15.2491   21.3653 C   0  0  0  0  0  0  0  0  0  0  0  0
  -25.7199  -21.5649   21.4525 C   0  0  0  0  0  0  0  0  0  0  0  0
  -27.0688  -23.4637   21.9141 C   0  0  0  0  0  0  0  0  0  0  0  0
  -20.8467  -27.5781   21.8891 C   0  0  1  0  0  0  0  0  0  0  0  0
  -23.0514  -30.6495   21.5166 C   0  0  1  0  0  0  0  0  0  0  0  0
  -27.7950  -14.1214   20.5193 C   0  0  2  0  0  0  0  0  0  0  0  0
  -31.7906  -26.0720   19.6960 C   0  0  0  0  0  0  0  0  0  0  0  0
  -26.4092  -35.9598   16.9857 C   0  0  0  0  0  0  0  0  0  0  0  0
  -23.1055  -30.2195   16.9152 C   0  0  0  0  0  0  0  0  0  0  0  0
  -24.4610  -31.9297   15.6880 C   0  0  0  0  0  0  0  0  0  0  0  0
  -22.2651  -32.5638   16.6872 C   0  0  0  0  0  0  0  0  0  0  0  0
  -26.6751  -22.8488   19.4884 C   0  0  0  0  0  0  0  0  0  0  0  0
  -26.9747  -35.4718   20.7164 C   0  0  0  0  0  0  0  0  0  0  0  0
  -29.1617  -27.3720   21.3133 C   0  0  0  0  0  0  0  0  0  1  0  0
  -30.7819  -23.9584   20.6743 C   0  0  0  0  0  0  0  0  0  0  0  0
  -30.5533  -25.4280   20.3197 C   0  0  1  0  0  0  0  0  0  0  0  0
  -24.2429  -32.1451   18.2053 C   0  0  1  0  0  0  0  0  0  0  0  0
  -26.0850  -35.4534   18.3826 C   0  0  2  0  0  0  0  0  0  0  0  0
  -23.5290  -31.7018   16.8972 C   0  0  0  0  0  0  0  0  0  0  0  0
  -26.3881  -12.6660   21.9277 N   0  0  0  0  0  0  0  0  0  0  0  0
  -26.4432  -13.6825   21.0504 N   0  0  0  0  0  0  0  0  0  0  0  0
  -23.9114  -31.0624   20.4057 N   0  0  0  0  0  0  0  0  0  0  0  0
  -29.7098  -15.6453   20.8051 N   0  0  0  0  0  0  0  0  0  0  0  0
  -25.0980  -15.2370   19.8736 N   0  0  0  0  0  0  0  0  0  0  0  0
  -22.0929  -12.8545   22.2589 N   0  0  0  0  0  0  0  0  0  0  0  0
  -29.0400  -17.8730   20.4165 N   0  0  0  0  0  0  0  0  0  0  0  0
  -21.5471  -28.8330   22.0597 N   0  0  0  0  0  0  0  0  0  0  0  0
  -24.6311  -33.5512   18.2272 N   0  0  0  0  0  0  0  0  0  0  0  0
  -26.9256  -22.3279   20.8981 N   0  3  0  0  0  0  0  0  0  0  0  0
  -27.1756  -35.8826   19.3030 N   0  3  0  0  0  0  0  0  0  0  0  0
  -22.3380  -14.5611   20.7469 O   0  0  0  0  0  0  0  0  0  0  0  0
  -22.7652  -28.8013   20.0754 O   0  0  0  0  0  0  0  0  0  0  0  0
  -30.4671  -25.8978   22.6906 O   0  0  0  0  0  0  0  0  0  0  0  0
  -22.3018  -32.4990   19.5218 O   0  0  0  0  0  0  0  0  0  0  0  0
  -26.8971  -33.1845   18.5554 O   0  0  0  0  0  0  0  0  0  0  0  0
  -31.1881  -17.1707   19.8930 O   0  0  0  0  0  0  0  0  0  0  0  0
  -23.2333   -8.6510   25.7324 O   0  0  0  0  0  0  0  0  0  0  0  0
  -28.8315  -28.0164   22.5429 O   0  0  0  0  0  0  0  0  0  1  0  0
  -29.5871  -23.3710   21.1741 O   0  0  0  0  0  0  0  0  0  0  0  0
  -18.8369   -5.6832   24.2263 F   0  0  0  0  0  0  0  0  0  0  0  0
  -23.3930   -5.9016   25.4910 F   0  0  0  0  0  0  0  0  0  0  0  0
  -26.8167  -19.5375   20.5221 F   0  0  0  0  0  0  0  0  0  0  0  0
  1  2  1  0  0  0  0
  1  5  2  0  0  0  0
  2  6  2  0  0  0  0
  3  9  2  0  0  0  0
  3 17  1  0  0  0  0
  4 10  1  0  0  0  0
  4 17  2  0  0  0  0
  5 19  1  0  0  0  0
  6 21  1  0  0  0  0
  7 11  2  0  0  0  0
  7 20  1  0  0  0  0
  8 12  2  0  0  0  0
  8 23  1  0  0  0  0
  9 25  1  0  0  0  0
 10 25  2  0  0  0  0
 11 26  1  0  0  0  0
 12 27  1  0  0  0  0
 13 14  2  0  0  0  0
 13 28  1  0  0  0  0
 14 29  1  0  0  0  0
 15 22  1  0  0  0  0
 15 26  2  0  0  0  0
 16 29  2  0  0  0  0
 16 30  1  0  0  0  0
 17 32  1  0  0  0  0
 18 32  1  0  0  0  0
 18 33  2  0  0  0  0
 18 34  1  0  0  0  0
 19 21  2  0  0  0  0
 19 40  1  0  0  0  0
 20 22  2  0  0  0  0
 20 41  1  0  0  0  0
 21 53  1  0  0  0  0
 22 42  1  0  0  0  0
 23 31  2  0  0  0  0
 23 75  1  0  0  0  0
 24 27  2  0  0  0  0
 24 31  1  0  0  0  0
 24 78  1  0  0  0  0
 25 86  1  0  0  0  0
 26 87  1  0  0  0  0
 27 88  1  0  0  0  0
 28 30  2  0  0  0  0
 28 86  1  0  0  0  0
 29 89  1  0  0  0  0
 30 90  1  0  0  0  0
 31 91  1  0  0  0  0
 32 69  2  0  0  0  0
 33 70  1  0  0  0  0
 33 73  1  0  0  0  0
 34 74  1  0  0  0  0
 34 80  2  0  0  0  0
 35 54  1  0  0  0  0
 35 76  1  0  0  0  0
 35 81  2  0  0  0  0
 36 63  1  0  0  0  0
 36 65  1  0  0  0  0
 36 82  2  0  0  0  0
 37 66  1  0  0  0  0
 37 71  1  0  0  0  0
 37 83  2  0  0  0  0
 38 67  1  0  0  0  0
 38 77  1  0  0  0  0
 38 84  2  0  0  0  0
 39 72  1  0  0  0  0
 39 75  1  0  0  0  0
 39 85  2  0  0  0  0
 40 43  1  0  0  0  0
 41 54  1  0  0  0  0
 42 71  1  0  0  0  0
 43 47  1  0  0  0  0
 44 48  1  0  0  0  0
 44 49  1  0  0  0  0
 45 46  1  0  0  0  0
 45 51  1  0  0  0  0
 46 52  1  0  0  0  0
 47 53  1  0  0  0  0
 48 55  1  0  0  0  0
 49 72  1  0  0  0  0
 50 55  1  0  0  0  0
 50 72  1  0  0  0  0
 51 78  1  0  0  0  0
 52 78  1  0  0  0  0
 53 76  1  0  0  0  0
 54 71  1  0  0  0  0
 55 70  1  0  0  0  0
 56 65  1  0  0  0  0
 57 67  1  0  0  0  0
 58 68  1  0  0  0  0
 59 68  1  0  0  0  0
 60 68  1  0  0  0  0
 61 78  1  0  0  0  0
 62 79  1  0  0  0  0
 63 87  1  0  0  0  0
 64 65  1  0  0  0  0
 64 88  1  0  0  0  0
 66 68  1  0  0  0  0
 66 77  1  0  0  0  0
 67 79  1  0  0  0  0
 69 70  1  0  0  0  0
M  CHG  2  78   1  79   1
M  ISO  4  39 100  63 101  75 100  87 101
M  END
> <Batch ID>
0146

> <Smiles>
CNC(C)C(=O)NC(C(=O)N1Cc2cc([101O:1][101CH2:1]C(=O)C(C)COc3ccc([100NH:0][100C:0](=O)N4CCCC(n5nc(-c6ccc(Oc7ccc(F)cc7F)cc6)c(C(N)=O)c5N)C4)c(F)c3[N+]3(C)CCCC3)ccc2CC1C(=O)NC1CCCc2ccccc21)C(C)(C)C

> <Shape>
0.277

> <Color>
0.123

> <Negative vol penalty>
0.000

$$$$

  -OEChem-04052303103D

 83 92  0     1  0  0  0  0  0999 V2000
  -21.9069  -12.0572   19.8654 C   0  0  0  0  0  0  0  0  0  0  0  0
  -21.7693  -13.4007   20.1994 C   0  0  0  0  0  0  0  0  0  0  0  0
  -25.1403  -25.1573   20.0698 C   0  0  0  0  0  0  0  0  0  0  0  0
  -24.9667  -27.5667   20.0285 C   0  0  0  0  0  0  0  0  0  0  0  0
  -23.1527  -11.4393   19.9650 C   0  0  0  0  0  0  0  0  0  0  0  0
  -22.8775  -14.1268   20.6343 C   0  0  0  0  0  0  0  0  0  0  0  0
  -23.1894  -18.6870   18.4542 C   0  0  0  0  0  0  0  0  0  0  0  0
  -26.5315  -25.2575   20.0715 C   0  0  0  0  0  0  0  0  0  0  0  0
  -26.3579  -27.6670   20.0302 C   0  0  0  0  0  0  0  0  0  0  0  0
  -22.3507  -19.6864   18.9458 C   0  0  0  0  0  0  0  0  0  0  0  0
  -29.8635  -28.5526   19.6602 C   0  0  0  0  0  0  0  0  0  0  0  0
  -30.4494  -29.4567   18.7743 C   0  0  0  0  0  0  0  0  0  0  0  0
  -17.3549  -24.5989   26.9065 C   0  0  0  0  0  0  0  0  0  0  0  0
  -24.1840  -20.5845   20.2308 C   0  0  0  0  0  0  0  0  0  0  0  0
  -29.4675  -28.2694   16.9133 C   0  0  0  0  0  0  0  0  0  0  0  0
  -16.9475  -23.4548   27.5566 C   0  0  0  0  0  0  0  0  0  0  0  0
  -24.3578  -26.3119   20.0482 C   0  0  0  0  0  0  0  0  0  0  0  0
  -22.1155  -25.5724   19.0824 C   0  0  0  0  0  0  0  0  0  0  0  0
  -24.2787  -12.1607   20.3921 C   0  0  0  0  0  0  0  0  0  0  0  0
  -24.5312  -18.6222   18.8565 C   0  0  0  0  0  0  0  0  0  0  0  0
  -24.1394  -13.5176   20.7409 C   0  0  0  0  0  0  0  0  0  0  0  0
  -25.0383  -19.5848   19.7410 C   0  0  0  0  0  0  0  0  0  0  0  0
  -17.9999  -24.3106   25.6692 C   0  0  0  0  0  0  0  0  0  0  0  0
  -27.1404  -26.5124   20.0517 C   0  0  0  0  0  0  0  0  0  0  0  0
  -22.8472  -20.6336   19.8364 C   0  0  0  0  0  0  0  0  0  0  0  0
  -29.0796  -27.5069   19.1727 C   0  0  0  0  0  0  0  0  0  0  0  0
  -30.2514  -29.3151   17.4008 C   0  0  0  0  0  0  0  0  0  0  0  0
  -28.8816  -27.3653   17.7992 C   0  0  0  0  0  0  0  0  0  0  0  0
  -22.9207  -26.2090   20.0459 C   0  0  0  0  0  0  0  0  0  0  0  0
  -18.0611  -22.9569   25.4209 C   0  0  0  0  0  0  0  0  0  0  0  0
  -20.8312  -25.7535   19.5343 C   0  0  0  0  0  0  0  0  0  0  0  0
  -22.4947  -24.8794   17.8859 C   0  0  0  0  0  0  0  0  0  0  0  0
  -26.3078  -16.4908   20.4071 C   0  0  0  0  0  0  0  0  0  0  0  0
  -28.7148  -18.5333   19.6610 C   0  0  0  0  0  0  0  0  0  0  0  0
  -29.6758  -21.7066   18.8524 C   0  0  0  0  0  0  0  0  0  0  0  0
  -18.5049  -26.6747   24.9606 C   0  0  0  0  0  0  0  0  0  0  0  0
  -25.5951  -11.4376   20.5290 C   0  0  0  0  0  0  0  0  0  0  0  0
  -25.4297  -17.5539   18.2964 C   0  0  0  0  0  0  0  0  0  0  0  0
  -26.4765  -19.5714   20.1882 C   0  0  0  0  0  0  0  0  0  0  0  0
  -26.7957  -12.3738   20.6400 C   0  0  0  0  0  0  0  0  0  0  0  0
  -18.1595  -28.7803   22.1102 C   0  0  0  0  0  0  0  0  0  0  0  0
  -26.5127  -13.4884   21.6423 C   0  0  0  0  0  0  0  0  0  0  0  0
  -20.1759  -22.4721   24.1171 C   0  0  0  0  0  0  0  0  0  0  0  0
  -17.9465  -22.5908   22.9190 C   0  0  0  0  0  0  0  0  0  0  0  0
  -20.7732  -21.7251   22.9248 C   0  0  0  0  0  0  0  0  0  0  0  0
  -18.5494  -21.8436   21.7298 C   0  0  0  0  0  0  0  0  0  0  0  0
  -19.2641  -28.2979   21.1672 C   0  0  0  0  0  0  0  0  0  0  0  0
  -18.6011  -28.7332   23.5719 C   0  0  0  0  0  0  0  0  0  0  0  0
  -20.2333  -26.9556   23.0766 C   0  0  0  0  0  0  0  0  0  0  0  0
  -25.3229  -14.3452   21.1930 C   0  0  1  0  0  0  0  0  0  0  0  0
  -18.6616  -22.2292   24.2317 C   0  0  0  0  0  0  0  0  0  0  0  0
  -26.6475  -17.2774   19.1728 C   0  0  1  0  0  0  0  0  0  0  0  0
  -20.0602  -22.0853   21.6149 C   0  0  0  0  0  0  0  0  0  0  0  0
  -19.8127  -26.9235   21.5982 C   0  0  2  0  0  0  0  0  0  0  0  0
  -31.7144  -23.0769   18.3390 C   0  0  0  0  0  0  0  0  0  0  0  0
  -29.4311  -18.5743   22.6267 C   0  0  0  0  0  0  0  0  0  0  0  0
  -30.8004  -20.6257   22.1962 C   0  0  0  0  0  0  0  0  0  0  0  0
  -31.3943  -18.4750   21.0805 C   0  0  0  0  0  0  0  0  0  0  0  0
  -28.6899  -22.3694   16.1418 C   0  0  0  0  0  0  0  0  0  0  0  0
  -20.6453  -21.2925   20.4475 C   0  0  0  0  0  0  0  0  0  1  0  0
  -29.3389  -19.7377   20.3236 C   0  0  1  0  0  0  0  0  0  0  0  0
  -30.5878  -22.2353   17.7601 C   0  0  2  0  0  0  0  0  0  0  0  0
  -30.2136  -19.3526   21.5500 C   0  0  0  0  0  0  0  0  0  0  0  0
  -22.2076  -26.7538   21.0352 N   0  0  0  0  0  0  0  0  0  0  0  0
  -20.9409  -26.4602   20.6957 N   0  0  0  0  0  0  0  0  0  0  0  0
  -27.3137  -18.5032   19.6176 N   0  0  0  0  0  0  0  0  0  0  0  0
  -19.1048  -27.4001   23.9095 N   0  0  0  0  0  0  0  0  0  0  0  0
  -19.6301  -25.3755   19.0476 N   0  0  0  0  0  0  0  0  0  0  0  0
  -22.5969  -25.6102   16.6943 N   0  0  0  0  0  0  0  0  0  0  0  0
  -18.5220  -25.2909   24.7894 N   0  0  0  0  0  0  0  0  0  0  0  0
  -25.7268  -15.2636   20.1500 N   0  0  0  0  0  0  0  0  0  0  0  0
  -30.0603  -20.4519   19.2759 N   0  0  0  0  0  0  0  0  0  0  0  0
  -29.8157  -23.0778   16.8034 N   0  3  0  0  0  0  0  0  0  0  0  0
  -22.7197  -23.6454   17.8705 O   0  0  0  0  0  0  0  0  0  0  0  0
  -26.5558  -16.9616   21.5109 O   0  0  0  0  0  0  0  0  0  0  0  0
  -29.4436  -17.6552   19.1927 O   0  0  0  0  0  0  0  0  0  0  0  0
  -28.7203  -22.3444   19.2892 O   0  0  0  0  0  0  0  0  0  0  0  0
  -17.9880  -27.2407   25.9273 O   0  0  0  0  0  0  0  0  0  0  0  0
  -28.4979  -26.6106   20.0536 O   0  0  0  0  0  0  0  0  0  0  0  0
  -22.0306  -21.6098   20.3182 O   0  0  0  0  0  0  0  0  0  1  0  0
  -30.8129  -30.1843   16.5503 F   0  0  0  0  0  0  0  0  0  0  0  0
  -28.1285  -26.3634   17.3250 F   0  0  0  0  0  0  0  0  0  0  0  0
  -17.3427  -22.0403   26.6762 S   0  0  0  0  0  0  0  0  0  0  0  0
  1  2  1  0  0  0  0
  1  5  2  0  0  0  0
  2  6  2  0  0  0  0
  3  8  2  0  0  0  0
  3 17  1  0  0  0  0
  4  9  1  0  0  0  0
  4 17  2  0  0  0  0
  5 19  1  0  0  0  0
  6 21  1  0  0  0  0
  7 10  2  0  0  0  0
  7 20  1  0  0  0  0
  8 24  1  0  0  0  0
  9 24  2  0  0  0  0
 10 25  1  0  0  0  0
 11 12  2  0  0  0  0
 11 26  1  0  0  0  0
 12 27  1  0  0  0  0
 13 16  2  0  0  0  0
 13 23  1  0  0  0  0
 14 22  1  0  0  0  0
 14 25  2  0  0  0  0
 15 27  2  0  0  0  0
 15 28  1  0  0  0  0
 16 83  1  0  0  0  0
 17 29  1  0  0  0  0
 18 29  1  0  0  0  0
 18 31  2  0  0  0  0
 18 32  1  0  0  0  0
 19 21  2  0  0  0  0
 19 37  1  0  0  0  0
 20 22  2  0  0  0  0
 20 38  1  0  0  0  0
 21 50  1  0  0  0  0
 22 39  1  0  0  0  0
 23 30  2  0  0  0  0
 23 70  1  0  0  0  0
 24 79  1  0  0  0  0
 25 80  1  0  0  0  0
 26 28  2  0  0  0  0
 26 79  1  0  0  0  0
 27 81  1  0  0  0  0
 28 82  1  0  0  0  0
 29 64  2  0  0  0  0
 30 51  1  0  0  0  0
 30 83  1  0  0  0  0
 31 65  1  0  0  0  0
 31 68  1  0  0  0  0
 32 69  1  0  0  0  0
 32 74  2  0  0  0  0
 33 52  1  0  0  0  0
 33 71  1  0  0  0  0
 33 75  2  0  0  0  0
 34 61  1  0  0  0  0
 34 66  1  0  0  0  0
 34 76  2  0  0  0  0
 35 62  1  0  0  0  0
 35 72  1  0  0  0  0
 35 77  2  0  0  0  0
 36 67  1  0  0  0  0
 36 70  1  0  0  0  0
 36 78  2  0  0  0  0
 37 40  1  0  0  0  0
 38 52  1  0  0  0  0
 39 66  1  0  0  0  0
 40 42  1  0  0  0  0
 41 47  1  0  0  0  0
 41 48  1  0  0  0  0
 42 50  1  0  0  0  0
 43 45  1  0  0  0  0
 43 51  1  0  0  0  0
 44 46  1  0  0  0  0
 44 51  1  0  0  0  0
 45 53  1  0  0  0  0
 46 53  1  0  0  0  0
 47 54  1  0  0  0  0
 48 67  1  0  0  0  0
 49 54  1  0  0  0  0
 49 67  1  0  0  0  0
 50 71  1  0  0  0  0
 52 66  1  0  0  0  0
 53 60  1  0  0  0  0
 54 65  1  0  0  0  0
 55 62  1  0  0  0  0
 56 63  1  0  0  0  0
 57 63  1  0  0  0  0
 58 63  1  0  0  0  0
 59 73  1  0  0  0  0
 60 80  1  0  0  0  0
 61 63  1  0  0  0  0
 61 72  1  0  0  0  0
 62 73  1  0  0  0  0
 64 65  1  0  0  0  0
M  CHG  1  73   1
M  ISO  4  36 100  60 101  70 100  80 101
M  END
> <Batch ID>
0146

> <Smiles>
CNC(C)C(=O)NC(C(=O)N1Cc2cc([101O:1][101CH2:1]C3CCC(c4sccc4[100NH:0][100C:0](=O)N4CCCC(n5nc(-c6ccc(Oc7ccc(F)cc7F)cc6)c(C(N)=O)c5N)C4)CC3)ccc2CC1C(=O)NC1CCCc2ccccc21)C(C)(C)C

> <Shape>
0.182

> <Color>
0.088

> <Negative vol penalty>
0.000

$$$$

  -OEChem-04052303103D

 86 95  0     1  0  0  0  0  0999 V2000
  -18.0275  -27.5599   19.4534 C   0  0  0  0  0  0  0  0  0  0  0  0
  -19.2763  -27.9893   19.0156 C   0  0  0  0  0  0  0  0  0  0  0  0
  -27.6145  -15.7378   23.4412 C   0  0  0  0  0  0  0  0  0  0  0  0
  -26.0200  -16.3967   21.7500 C   0  0  0  0  0  0  0  0  0  0  0  0
  -17.5600  -27.9450   20.7091 C   0  0  0  0  0  0  0  0  0  0  0  0
  -20.0578  -28.8050   19.8331 C   0  0  0  0  0  0  0  0  0  0  0  0
  -30.3852  -26.0478   18.5326 C   0  0  0  0  0  0  0  0  0  0  0  0
  -30.5997  -27.3950   20.5266 C   0  0  0  0  0  0  0  0  0  0  0  0
  -24.9024  -27.3376   19.9797 C   0  0  0  0  0  0  0  0  0  0  0  0
  -29.4570  -25.2342   19.1821 C   0  0  0  0  0  0  0  0  0  0  0  0
  -29.6714  -26.5814   21.1761 C   0  0  0  0  0  0  0  0  0  0  0  0
  -26.9379  -14.5296   23.6085 C   0  0  0  0  0  0  0  0  0  0  0  0
  -25.3433  -15.1885   21.9172 C   0  0  0  0  0  0  0  0  0  0  0  0
  -25.7032  -27.6751   18.8895 C   0  0  0  0  0  0  0  0  0  0  0  0
  -25.7160  -11.9722   20.9494 C   0  0  0  0  0  0  0  0  0  0  0  0
  -25.3277  -11.2841   19.7999 C   0  0  0  0  0  0  0  0  0  0  0  0
  -26.6119  -29.5282   20.1384 C   0  0  0  0  0  0  0  0  0  0  0  0
  -23.0171  -11.4364   20.4893 C   0  0  0  0  0  0  0  0  0  0  0  0
  -27.1556  -16.6714   22.5120 C   0  0  0  0  0  0  0  0  0  0  0  0
  -28.9098  -18.1870   21.4474 C   0  0  0  0  0  0  0  0  0  0  0  0
  -30.9567  -27.1282   19.2048 C   0  0  0  0  0  0  0  0  0  0  0  0
  -18.3403  -28.7580   21.5463 C   0  0  0  0  0  0  0  0  0  0  0  0
  -24.9424  -28.1006   21.1556 C   0  0  0  0  0  0  0  0  0  0  0  0
  -19.5997  -29.2025   21.1007 C   0  0  0  0  0  0  0  0  0  0  0  0
  -25.8125  -29.1967   21.2430 C   0  0  0  0  0  0  0  0  0  0  0  0
  -29.1000  -25.5010   20.5038 C   0  0  0  0  0  0  0  0  0  0  0  0
  -25.8023  -14.2549   22.8465 C   0  0  0  0  0  0  0  0  0  0  0  0
  -26.5560  -28.7723   18.9677 C   0  0  0  0  0  0  0  0  0  0  0  0
  -24.7549  -12.3923   21.8689 C   0  0  0  0  0  0  0  0  0  0  0  0
  -23.9783  -11.0162   19.5698 C   0  0  0  0  0  0  0  0  0  0  0  0
  -23.4055  -12.1244   21.6388 C   0  0  0  0  0  0  0  0  0  0  0  0
  -27.8538  -17.9199   22.3392 C   0  0  0  0  0  0  0  0  0  0  0  0
  -29.2200  -19.5067   21.6679 C   0  0  0  0  0  0  0  0  0  0  0  0
  -29.5527  -17.3197   20.5039 C   0  0  0  0  0  0  0  0  0  0  0  0
  -22.8330  -29.8477   22.7686 C   0  0  0  0  0  0  0  0  0  0  0  0
  -29.6213  -29.3703   17.1406 C   0  0  0  0  0  0  0  0  0  0  0  0
  -25.2469  -30.0651   24.9246 C   0  0  0  0  0  0  0  0  0  0  0  0
  -28.6007  -29.9325   25.5421 C   0  0  0  0  0  0  0  0  0  0  0  0
  -27.6932  -24.8004   22.4727 C   0  0  0  0  0  0  0  0  0  0  0  0
  -17.7724  -29.1872   22.8760 C   0  0  0  0  0  0  0  0  0  0  0  0
  -24.0919  -27.7074   22.3322 C   0  0  0  0  0  0  0  0  0  0  0  0
  -25.9076  -30.0362   22.4899 C   0  0  0  0  0  0  0  0  0  0  0  0
  -18.8211  -29.7456   23.8345 C   0  0  0  0  0  0  0  0  0  0  0  0
  -27.7342  -22.6727   25.3272 C   0  0  0  0  0  0  0  0  0  0  0  0
  -19.7247  -30.7422   23.1154 C   0  0  0  0  0  0  0  0  0  0  0  0
  -27.8558  -21.2684   24.7309 C   0  0  0  0  0  0  0  0  0  0  0  0
  -33.2859  -28.3972   19.2188 C   0  0  0  0  0  0  0  0  0  0  0  0
  -26.8548  -23.5794   24.4680 C   0  0  0  0  0  0  0  0  0  0  0  0
  -27.3586  -22.2503   22.4559 C   0  0  0  0  0  0  0  0  0  0  0  0
  -33.0239  -29.8221   18.7070 C   0  0  0  0  0  0  0  0  0  0  0  0
  -20.4873  -30.0679   21.9686 C   0  0  1  0  0  0  0  0  0  0  0  0
  -31.9751  -28.0206   18.4923 C   0  0  2  0  0  0  0  0  0  0  0  0
  -23.8361  -28.8614   23.2967 C   0  0  1  0  0  0  0  0  0  0  0  0
  -28.2877  -21.3195   23.2523 C   0  0  2  0  0  0  0  0  0  0  0  0
  -30.9894  -31.4837   17.3815 C   0  0  0  0  0  0  0  0  0  0  0  0
  -30.2743  -30.1885   27.3943 C   0  0  0  0  0  0  0  0  0  0  0  0
  -24.9190  -33.0960   24.7986 C   0  0  0  0  0  0  0  0  0  0  0  0
  -27.1650  -33.3142   25.8830 C   0  0  0  0  0  0  0  0  0  0  0  0
  -25.3014  -32.1827   27.0952 C   0  0  0  0  0  0  0  0  0  0  0  0
  -29.5462  -27.1455   25.2297 C   0  0  0  0  0  0  0  0  0  0  0  0
  -28.5866  -29.7347   18.1889 C   0  0  0  0  0  0  0  0  0  1  0  0
  -31.0078  -29.9641   17.3269 C   0  0  1  0  0  0  0  0  0  0  0  0
  -26.4025  -31.0113   25.1439 C   0  0  1  0  0  0  0  0  0  0  0  0
  -29.3996  -29.2174   26.6168 C   0  0  2  0  0  0  0  0  0  0  0  0
  -25.9440  -32.3866   25.7058 C   0  0  0  0  0  0  0  0  0  0  0  0
  -27.5159  -18.9844   23.0718 N   0  0  0  0  0  0  0  0  0  0  0  0
  -28.3645  -19.9331   22.6407 N   0  0  0  0  0  0  0  0  0  0  0  0
  -25.0514  -29.6153   23.6111 N   0  0  0  0  0  0  0  0  0  0  0  0
  -27.3263  -23.5816   23.0815 N   0  0  0  0  0  0  0  0  0  0  0  0
  -30.1384  -20.3323   21.1226 N   0  0  0  0  0  0  0  0  0  0  0  0
  -29.1099  -15.9936   20.4058 N   0  0  0  0  0  0  0  0  0  0  0  0
  -28.1570  -24.6745   21.1637 N   0  0  0  0  0  0  0  0  0  0  0  0
  -21.5980  -29.2968   22.4848 N   0  0  0  0  0  0  0  0  0  0  0  0
  -27.3529  -30.3046   25.9957 N   0  0  0  0  0  0  0  0  0  0  0  0
  -31.6004  -29.4556   18.5935 N   0  3  2  0  0  0  0  0  0  0  0  0
  -30.2775  -28.1799   26.0056 N   0  3  0  0  0  0  0  0  0  0  0  0
  -30.5030  -17.7046   19.7812 O   0  0  0  0  0  0  0  0  0  0  0  0
  -23.1553  -31.0219   22.6304 O   0  0  0  0  0  0  0  0  0  0  0  0
  -29.3434  -28.6465   16.1845 O   0  0  0  0  0  0  0  0  0  0  0  0
  -24.5479  -29.7316   25.8847 O   0  0  0  0  0  0  0  0  0  0  0  0
  -29.0411  -30.1434   24.4142 O   0  0  0  0  0  0  0  0  0  0  0  0
  -27.6284  -25.8735   23.0780 O   0  0  0  0  0  0  0  0  0  0  0  0
  -25.1419  -13.0760   23.0093 O   0  0  0  0  0  0  0  0  0  0  0  0
  -27.3382  -29.1043   17.9048 O   0  0  0  0  0  0  0  0  0  1  0  0
  -23.6054  -10.3568   18.4651 F   0  0  0  0  0  0  0  0  0  0  0  0
  -22.4774  -12.5265   22.5179 F   0  0  0  0  0  0  0  0  0  0  0  0
  1  2  1  0  0  0  0
  1  5  2  0  0  0  0
  2  6  2  0  0  0  0
  3 12  2  0  0  0  0
  3 19  1  0  0  0  0
  4 13  1  0  0  0  0
  4 19  2  0  0  0  0
  5 22  1  0  0  0  0
  6 24  1  0  0  0  0
  7 10  2  0  0  0  0
  7 21  1  0  0  0  0
  8 11  1  0  0  0  0
  8 21  2  0  0  0  0
  9 14  2  0  0  0  0
  9 23  1  0  0  0  0
 10 26  1  0  0  0  0
 11 26  2  0  0  0  0
 12 27  1  0  0  0  0
 13 27  2  0  0  0  0
 14 28  1  0  0  0  0
 15 16  2  0  0  0  0
 15 29  1  0  0  0  0
 16 30  1  0  0  0  0
 17 25  1  0  0  0  0
 17 28  2  0  0  0  0
 18 30  2  0  0  0  0
 18 31  1  0  0  0  0
 19 32  1  0  0  0  0
 20 32  1  0  0  0  0
 20 33  2  0  0  0  0
 20 34  1  0  0  0  0
 21 52  1  0  0  0  0
 22 24  2  0  0  0  0
 22 40  1  0  0  0  0
 23 25  2  0  0  0  0
 23 41  1  0  0  0  0
 24 51  1  0  0  0  0
 25 42  1  0  0  0  0
 26 72  1  0  0  0  0
 27 83  1  0  0  0  0
 28 84  1  0  0  0  0
 29 31  2  0  0  0  0
 29 83  1  0  0  0  0
 30 85  1  0  0  0  0
 31 86  1  0  0  0  0
 32 66  2  0  0  0  0
 33 67  1  0  0  0  0
 33 70  1  0  0  0  0
 34 71  1  0  0  0  0
 34 77  2  0  0  0  0
 35 53  1  0  0  0  0
 35 73  1  0  0  0  0
 35 78  2  0  0  0  0
 36 61  1  0  0  0  0
 36 62  1  0  0  0  0
 36 79  2  0  0  0  0
 37 63  1  0  0  0  0
 37 68  1  0  0  0  0
 37 80  2  0  0  0  0
 38 64  1  0  0  0  0
 38 74  1  0  0  0  0
 38 81  2  0  0  0  0
 39 69  1  0  0  0  0
 39 72  1  0  0  0  0
 39 82  2  0  0  0  0
 40 43  1  0  0  0  0
 41 53  1  0  0  0  0
 42 68  1  0  0  0  0
 43 45  1  0  0  0  0
 44 46  1  0  0  0  0
 44 48  1  0  0  0  0
 45 51  1  0  0  0  0
 46 54  1  0  0  0  0
 47 50  1  0  0  0  0
 47 52  1  0  0  0  0
 48 69  1  0  0  0  0
 49 54  1  0  0  0  0
 49 69  1  0  0  0  0
 50 75  1  0  0  0  0
 51 73  1  0  0  0  0
 52 75  1  0  0  0  0
 53 68  1  0  0  0  0
 54 67  1  0  0  0  0
 55 62  1  0  0  0  0
 56 64  1  0  0  0  0
 57 65  1  0  0  0  0
 58 65  1  0  0  0  0
 59 65  1  0  0  0  0
 60 76  1  0  0  0  0
 61 84  1  0  0  0  0
 62 75  1  0  0  0  0
 63 65  1  0  0  0  0
 63 74  1  0  0  0  0
 64 76  1  0  0  0  0
 66 67  1  0  0  0  0
M  CHG  2  75   1  76   1
M  ISO  4  39 100  61 101  72 100  84 101
M  END
> <Batch ID>
0146

> <Smiles>
CNC(C)C(=O)NC(C(=O)N1Cc2cc([101O:1][101CH2:1]C(=O)C(C)N3CCC3c3ccc([100NH:0][100C:0](=O)N4CCCC(n5nc(-c6ccc(Oc7ccc(F)cc7F)cc6)c(C(N)=O)c5N)C4)cc3)ccc2CC1C(=O)NC1CCCc2ccccc21)C(C)(C)C

> <Shape>
0.238

> <Color>
0.062

> <Negative vol penalty>
0.000

$$$$

  -OEChem-04052303103D

 86 95  0     1  0  0  0  0  0999 V2000
  -32.5753  -24.4339   17.2665 C   0  0  0  0  0  0  0  0  0  0  0  0
  -31.1854  -24.4120   17.2109 C   0  0  0  0  0  0  0  0  0  0  0  0
  -28.1703  -10.5269   21.4777 C   0  0  0  0  0  0  0  0  0  0  0  0
  -26.3453  -11.9578   20.8003 C   0  0  0  0  0  0  0  0  0  0  0  0
  -33.2193  -24.7224   18.4690 C   0  0  0  0  0  0  0  0  0  0  0  0
  -30.4386  -24.6776   18.3581 C   0  0  0  0  0  0  0  0  0  0  0  0
  -24.7003  -19.8451   16.8990 C   0  0  0  0  0  0  0  0  0  0  0  0
  -25.5171  -21.6529   18.2780 C   0  0  0  0  0  0  0  0  0  0  0  0
  -26.5713  -27.8249   17.4733 C   0  0  0  0  0  0  0  0  0  0  0  0
  -25.7754  -19.0526   17.3011 C   0  0  0  0  0  0  0  0  0  0  0  0
  -26.5922  -20.8604   18.6801 C   0  0  0  0  0  0  0  0  0  0  0  0
  -27.2711   -9.6964   22.1463 C   0  0  0  0  0  0  0  0  0  0  0  0
  -25.4460  -11.1273   21.4689 C   0  0  0  0  0  0  0  0  0  0  0  0
  -25.4369  -27.2854   16.8685 C   0  0  0  0  0  0  0  0  0  0  0  0
  -23.9156   -8.1642   20.9227 C   0  0  0  0  0  0  0  0  0  0  0  0
  -22.7367   -7.8216   20.2605 C   0  0  0  0  0  0  0  0  0  0  0  0
  -24.3572  -27.1570   19.0218 C   0  0  0  0  0  0  0  0  0  0  0  0
  -21.4463   -8.8431   22.0292 C   0  0  0  0  0  0  0  0  0  0  0  0
  -27.7075  -11.6577   20.8047 C   0  0  0  0  0  0  0  0  0  0  0  0
  -29.4945  -12.1633   19.0559 C   0  0  0  0  0  0  0  0  0  0  0  0
  -24.5711  -21.1453   17.3875 C   0  0  0  0  0  0  0  0  0  0  0  0
  -32.4799  -25.0011   19.6293 C   0  0  0  0  0  0  0  0  0  0  0  0
  -26.6113  -28.0247   18.8607 C   0  0  0  0  0  0  0  0  0  0  0  0
  -31.0733  -24.9688   19.5776 C   0  0  0  0  0  0  0  0  0  0  0  0
  -25.4923  -27.7015   19.6415 C   0  0  0  0  0  0  0  0  0  0  0  0
  -26.7214  -19.5603   18.1916 C   0  0  0  0  0  0  0  0  0  0  0  0
  -25.9089   -9.9965   22.1420 C   0  0  0  0  0  0  0  0  0  0  0  0
  -24.3307  -26.9487   17.6431 C   0  0  0  0  0  0  0  0  0  0  0  0
  -23.8598   -8.8461   22.1383 C   0  0  0  0  0  0  0  0  0  0  0  0
  -21.5021   -8.1611   20.8137 C   0  0  0  0  0  0  0  0  0  0  0  0
  -22.6251   -9.1856   22.6915 C   0  0  0  0  0  0  0  0  0  0  0  0
  -28.6360  -12.5163   20.1143 C   0  0  0  0  0  0  0  0  0  0  0  0
  -30.1646  -13.3241   18.7556 C   0  0  0  0  0  0  0  0  0  0  0  0
  -29.6706  -10.8993   18.4025 C   0  0  0  0  0  0  0  0  0  0  0  0
  -28.3973  -26.9014   21.2381 C   0  0  0  0  0  0  0  0  0  0  0  0
  -26.7362  -29.0675   22.9905 C   0  0  0  0  0  0  0  0  0  0  0  0
  -23.3199  -30.2049   23.2207 C   0  0  0  0  0  0  0  0  0  0  0  0
  -28.8396  -19.1059   19.4773 C   0  0  0  0  0  0  0  0  0  0  0  0
  -33.2206  -25.2611   20.9171 C   0  0  0  0  0  0  0  0  0  0  0  0
  -27.8325  -28.6324   19.4945 C   0  0  0  0  0  0  0  0  0  0  0  0
  -25.4772  -27.9153   21.1324 C   0  0  0  0  0  0  0  0  0  0  0  0
  -32.3544  -25.8997   21.9998 C   0  0  0  0  0  0  0  0  0  0  0  0
  -31.6856  -17.3967   20.7643 C   0  0  0  0  0  0  0  0  0  0  0  0
  -22.4960  -22.3860   18.1335 C   0  0  0  0  0  0  0  0  0  0  0  0
  -23.8673  -23.2548   16.1816 C   0  0  0  0  0  0  0  0  0  0  0  0
  -31.0153  -25.1771   22.1072 C   0  0  0  0  0  0  0  0  0  0  0  0
  -31.3071  -15.9189   20.6417 C   0  0  0  0  0  0  0  0  0  0  0  0
  -21.3174  -23.2524   17.6850 C   0  0  0  0  0  0  0  0  0  0  0  0
  -22.6839  -24.1186   15.7408 C   0  0  0  0  0  0  0  0  0  0  0  0
  -30.4829  -18.2610   21.1388 C   0  0  0  0  0  0  0  0  0  0  0  0
  -28.9311  -16.6244   20.1476 C   0  0  0  0  0  0  0  0  0  0  0  0
  -23.4009  -22.0077   16.9498 C   0  0  0  0  0  0  0  0  0  0  0  0
  -30.2282  -25.2759   20.7949 C   0  0  1  0  0  0  0  0  0  0  0  0
  -27.9552  -28.3143   20.9814 C   0  0  1  0  0  0  0  0  0  0  0  0
  -30.0964  -15.7228   19.7082 C   0  0  2  0  0  0  0  0  0  0  0  0
  -21.7448  -24.5143   16.9023 C   0  0  0  0  0  0  0  0  0  0  0  0
  -22.3812  -32.4104   23.9634 C   0  0  0  0  0  0  0  0  0  0  0  0
  -26.4990  -27.7197   25.7176 C   0  0  0  0  0  0  0  0  0  0  0  0
  -24.3229  -28.9147   26.0413 C   0  0  0  0  0  0  0  0  0  0  0  0
  -26.4332  -30.2190   25.7798 C   0  0  0  0  0  0  0  0  0  0  0  0
  -21.8315  -30.5562   20.6869 C   0  0  0  0  0  0  0  0  0  0  0  0
  -20.4889  -25.1910   16.3211 C   0  0  0  0  0  0  0  0  0  0  0  0
  -22.4364  -25.5241   17.8386 C   0  0  0  0  0  0  0  0  0  1  0  0
  -25.4437  -29.0465   23.7703 C   0  0  1  0  0  0  0  0  0  0  0  0
  -22.7780  -31.5506   22.7735 C   0  0  2  0  0  0  0  0  0  0  0  0
  -25.6787  -28.9581   25.3047 C   0  0  0  0  0  0  0  0  0  0  0  0
  -28.7484  -13.8007   20.4630 N   0  0  0  0  0  0  0  0  0  0  0  0
  -29.6856  -14.2650   19.6190 N   0  0  0  0  0  0  0  0  0  0  0  0
  -26.6973  -28.5064   21.7062 N   0  0  0  0  0  0  0  0  0  0  0  0
  -29.3765  -18.0254   20.2087 N   0  0  0  0  0  0  0  0  0  0  0  0
  -31.1109  -13.6215   17.8400 N   0  0  0  0  0  0  0  0  0  0  0  0
  -28.8744  -10.6074   17.2866 N   0  0  0  0  0  0  0  0  0  0  0  0
  -27.8135  -18.7554   18.6004 N   0  0  0  0  0  0  0  0  0  0  0  0
  -29.6156  -26.5811   20.6700 N   0  0  0  0  0  0  0  0  0  0  0  0
  -24.6928  -30.2238   23.3476 N   0  0  0  0  0  0  0  0  0  0  0  0
  -20.9095  -26.4127   15.6144 N   0  3  0  0  0  0  0  0  0  0  0  0
  -21.5795  -31.3645   21.9076 N   0  3  0  0  0  0  0  0  0  0  0  0
  -30.4975  -10.0470   18.8065 O   0  0  0  0  0  0  0  0  0  0  0  0
  -27.6866  -26.1573   21.9037 O   0  0  0  0  0  0  0  0  0  0  0  0
  -27.7413  -29.5700   23.4992 O   0  0  0  0  0  0  0  0  0  0  0  0
  -22.5972  -29.2351   23.4393 O   0  0  0  0  0  0  0  0  0  0  0  0
  -29.2776  -20.2528   19.5984 O   0  0  0  0  0  0  0  0  0  0  0  0
  -25.0310   -9.1862   22.7941 O   0  0  0  0  0  0  0  0  0  0  0  0
  -23.2224  -26.4213   17.0553 O   0  0  0  0  0  0  0  0  0  1  0  0
  -20.3702   -7.8334   20.1768 F   0  0  0  0  0  0  0  0  0  0  0  0
  -22.5652   -9.8418   23.8583 F   0  0  0  0  0  0  0  0  0  0  0  0
  1  2  1  0  0  0  0
  1  5  2  0  0  0  0
  2  6  2  0  0  0  0
  3 12  2  0  0  0  0
  3 19  1  0  0  0  0
  4 13  1  0  0  0  0
  4 19  2  0  0  0  0
  5 22  1  0  0  0  0
  6 24  1  0  0  0  0
  7 10  2  0  0  0  0
  7 21  1  0  0  0  0
  8 11  1  0  0  0  0
  8 21  2  0  0  0  0
  9 14  2  0  0  0  0
  9 23  1  0  0  0  0
 10 26  1  0  0  0  0
 11 26  2  0  0  0  0
 12 27  1  0  0  0  0
 13 27  2  0  0  0  0
 14 28  1  0  0  0  0
 15 16  2  0  0  0  0
 15 29  1  0  0  0  0
 16 30  1  0  0  0  0
 17 25  1  0  0  0  0
 17 28  2  0  0  0  0
 18 30  2  0  0  0  0
 18 31  1  0  0  0  0
 19 32  1  0  0  0  0
 20 32  1  0  0  0  0
 20 33  2  0  0  0  0
 20 34  1  0  0  0  0
 21 52  1  0  0  0  0
 22 24  2  0  0  0  0
 22 39  1  0  0  0  0
 23 25  2  0  0  0  0
 23 40  1  0  0  0  0
 24 53  1  0  0  0  0
 25 41  1  0  0  0  0
 26 73  1  0  0  0  0
 27 83  1  0  0  0  0
 28 84  1  0  0  0  0
 29 31  2  0  0  0  0
 29 83  1  0  0  0  0
 30 85  1  0  0  0  0
 31 86  1  0  0  0  0
 32 67  2  0  0  0  0
 33 68  1  0  0  0  0
 33 71  1  0  0  0  0
 34 72  1  0  0  0  0
 34 78  2  0  0  0  0
 35 54  1  0  0  0  0
 35 74  1  0  0  0  0
 35 79  2  0  0  0  0
 36 64  1  0  0  0  0
 36 69  1  0  0  0  0
 36 80  2  0  0  0  0
 37 65  1  0  0  0  0
 37 75  1  0  0  0  0
 37 81  2  0  0  0  0
 38 70  1  0  0  0  0
 38 73  1  0  0  0  0
 38 82  2  0  0  0  0
 39 42  1  0  0  0  0
 40 54  1  0  0  0  0
 41 69  1  0  0  0  0
 42 46  1  0  0  0  0
 43 47  1  0  0  0  0
 43 50  1  0  0  0  0
 44 48  1  0  0  0  0
 44 52  1  0  0  0  0
 45 49  1  0  0  0  0
 45 52  1  0  0  0  0
 46 53  1  0  0  0  0
 47 55  1  0  0  0  0
 48 56  1  0  0  0  0
 49 56  1  0  0  0  0
 50 70  1  0  0  0  0
 51 55  1  0  0  0  0
 51 70  1  0  0  0  0
 53 74  1  0  0  0  0
 54 69  1  0  0  0  0
 55 68  1  0  0  0  0
 56 62  1  0  0  0  0
 56 63  1  0  0  0  0
 57 65  1  0  0  0  0
 58 66  1  0  0  0  0
 59 66  1  0  0  0  0
 60 66  1  0  0  0  0
 61 77  1  0  0  0  0
 62 76  1  0  0  0  0
 63 84  1  0  0  0  0
 64 66  1  0  0  0  0
 64 75  1  0  0  0  0
 65 77  1  0  0  0  0
 67 68  1  0  0  0  0
M  CHG  2  76   1  77   1
M  ISO  4  38 100  63 101  73 100  84 101
M  END
> <Batch ID>
0146

> <Smiles>
CNC(C)C(=O)NC(C(=O)N1Cc2cc([101O:1][101CH2:1]C3(CN)CCC(c4ccc([100NH:0][100C:0](=O)N5CCCC(n6nc(-c7ccc(Oc8ccc(F)cc8F)cc7)c(C(N)=O)c6N)C5)cc4)CC3)ccc2CC1C(=O)NC1CCCc2ccccc21)C(C)(C)C

> <Shape>
0.245

> <Color>
0.058

> <Negative vol penalty>
0.000

$$$$

  -OEChem-04052303103D

 84 93  0     1  0  0  0  0  0999 V2000
  -33.2263  -34.5771   18.6260 C   0  0  0  0  0  0  0  0  0  0  0  0
  -32.4344  -33.5944   19.2113 C   0  0  0  0  0  0  0  0  0  0  0  0
  -23.0788   -9.8618   19.9468 C   0  0  0  0  0  0  0  0  0  0  0  0
  -23.8339   -9.8809   22.2417 C   0  0  0  0  0  0  0  0  0  0  0  0
  -33.8163  -34.3470   17.3839 C   0  0  0  0  0  0  0  0  0  0  0  0
  -32.2311  -32.3814   18.5542 C   0  0  0  0  0  0  0  0  0  0  0  0
  -31.6193  -26.8578   21.1274 C   0  0  0  0  0  0  0  0  0  0  0  0
  -22.3353   -8.7093   20.2010 C   0  0  0  0  0  0  0  0  0  0  0  0
  -23.0903   -8.7284   22.4959 C   0  0  0  0  0  0  0  0  0  0  0  0
  -30.5001  -26.0869   21.4388 C   0  0  0  0  0  0  0  0  0  0  0  0
  -19.8616   -7.9311   23.0957 C   0  0  0  0  0  0  0  0  0  0  0  0
  -19.1022   -7.8964   24.2652 C   0  0  0  0  0  0  0  0  0  0  0  0
  -30.9097  -19.2933   21.0403 C   0  0  0  0  0  0  0  0  0  0  0  0
  -31.0584  -17.9170   20.7028 C   0  0  0  0  0  0  0  0  0  0  0  0
  -30.7539  -24.8895   19.3601 C   0  0  0  0  0  0  0  0  0  0  0  0
  -20.3436   -5.9637   25.0140 C   0  0  0  0  0  0  0  0  0  0  0  0
  -23.8281  -10.4475   20.9671 C   0  0  0  0  0  0  0  0  0  0  0  0
  -24.1683  -12.9723   20.8352 C   0  0  0  0  0  0  0  0  0  0  0  0
  -33.6281  -33.1269   16.7157 C   0  0  0  0  0  0  0  0  0  0  0  0
  -32.3088  -26.6574   19.9229 C   0  0  0  0  0  0  0  0  0  0  0  0
  -32.8181  -32.1353   17.3013 C   0  0  0  0  0  0  0  0  0  0  0  0
  -31.8830  -25.6575   19.0369 C   0  0  0  0  0  0  0  0  0  0  0  0
  -22.3410   -8.1426   21.4755 C   0  0  0  0  0  0  0  0  0  0  0  0
  -30.0656  -25.1045   20.5538 C   0  0  0  0  0  0  0  0  0  0  0  0
  -20.8619   -6.9820   22.8853 C   0  0  0  0  0  0  0  0  0  0  0  0
  -19.3432   -6.9128   25.2244 C   0  0  0  0  0  0  0  0  0  0  0  0
  -21.1029   -5.9983   23.8444 C   0  0  0  0  0  0  0  0  0  0  0  0
  -24.5968  -11.6377   20.7050 C   0  0  0  0  0  0  0  0  0  0  0  0
  -29.9886  -19.4827   22.0470 C   0  0  0  0  0  0  0  0  0  0  0  0
  -25.2606  -13.7208   20.4704 C   0  0  0  0  0  0  0  0  0  0  0  0
  -30.2454  -17.1068   21.4648 C   0  0  0  0  0  0  0  0  0  0  0  0
  -22.8965  -13.4892   21.2489 C   0  0  0  0  0  0  0  0  0  0  0  0
  -32.9212  -28.4423   17.3650 C   0  0  0  0  0  0  0  0  0  0  0  0
  -34.7427  -25.8985   16.5085 C   0  0  0  0  0  0  0  0  0  0  0  0
  -35.3662  -22.5552   16.7917 C   0  0  0  0  0  0  0  0  0  0  0  0
  -30.7256  -14.7714   20.6513 C   0  0  0  0  0  0  0  0  0  0  0  0
  -34.2477  -32.9423   15.3531 C   0  0  0  0  0  0  0  0  0  0  0  0
  -33.5301  -27.4793   19.6140 C   0  0  0  0  0  0  0  0  0  0  0  0
  -32.6005  -25.3890   17.7401 C   0  0  0  0  0  0  0  0  0  0  0  0
  -34.2882  -31.4869   14.8944 C   0  0  0  0  0  0  0  0  0  0  0  0
  -29.6180  -12.3451   18.2927 C   0  0  0  0  0  0  0  0  0  0  0  0
  -26.9732  -22.0270   20.3262 C   0  0  0  0  0  0  0  0  0  0  0  0
  -32.9415  -30.8130   15.1375 C   0  0  0  0  0  0  0  0  0  0  0  0
  -28.1776  -12.0545   18.7207 C   0  0  0  0  0  0  0  0  0  0  0  0
  -26.6648  -22.7144   21.6441 C   0  0  0  0  0  0  0  0  0  0  0  0
  -30.5304  -12.5805   19.4951 C   0  0  0  0  0  0  0  0  0  0  0  0
  -28.6201  -13.3104   20.8688 C   0  0  0  0  0  0  0  0  0  0  0  0
  -27.9771  -20.9691   20.7256 C   0  0  0  0  0  0  0  0  0  0  0  0
  -32.5941  -30.7971   16.6311 C   0  0  1  0  0  0  0  0  0  0  0  0
  -33.8501  -27.5370   18.1235 C   0  0  1  0  0  0  0  0  0  0  0  0
  -27.6498  -13.1305   19.6899 C   0  0  2  0  0  0  0  0  0  0  0  0
  -28.0024  -22.7716   22.3817 C   0  0  2  0  0  0  0  0  0  0  0  0
  -30.7024  -21.5478   23.3192 C   0  0  0  0  0  0  0  0  0  0  0  0
  -36.8972  -20.7579   15.9412 C   0  0  0  0  0  0  0  0  0  0  0  0
  -33.2273  -25.8640   13.8604 C   0  0  0  0  0  0  0  0  0  0  0  0
  -34.0976  -23.5488   13.4725 C   0  0  0  0  0  0  0  0  0  0  0  0
  -35.6874  -25.4619   13.6598 C   0  0  0  0  0  0  0  0  0  0  0  0
  -36.3829  -21.9737   19.5096 C   0  0  0  0  0  0  0  0  0  0  0  0
  -28.7108  -24.1109   22.2370 C   0  0  0  0  0  0  0  0  0  1  0  0
  -29.5458  -20.7790   22.6854 C   0  0  1  0  0  0  0  0  0  0  0  0
  -34.5043  -24.6261   15.7319 C   0  0  1  0  0  0  0  0  0  0  0  0
  -36.6533  -21.7875   17.0336 C   0  0  2  0  0  0  0  0  0  0  0  0
  -34.3643  -24.8813   14.2046 C   0  0  0  0  0  0  0  0  0  0  0  0
  -25.8626  -11.5408   20.2899 N   0  0  0  0  0  0  0  0  0  0  0  0
  -26.2388  -12.8240   20.1559 N   0  0  0  0  0  0  0  0  0  0  0  0
  -33.7855  -26.2231   17.4802 N   0  0  0  0  0  0  0  0  0  0  0  0
  -29.9688  -13.6153   20.3662 N   0  0  0  0  0  0  0  0  0  0  0  0
  -25.4701  -15.0521   20.3912 N   0  0  0  0  0  0  0  0  0  0  0  0
  -21.8846  -12.5810   21.5886 N   0  0  0  0  0  0  0  0  0  0  0  0
  -30.0759  -15.7000   21.4638 N   0  0  0  0  0  0  0  0  0  0  0  0
  -33.3377  -29.7588   17.3119 N   0  0  0  0  0  0  0  0  0  0  0  0
  -35.5907  -23.7203   16.0892 N   0  0  0  0  0  0  0  0  0  0  0  0
  -28.8547  -21.6905   21.7217 N   0  3  1  0  0  0  0  0  0  0  0  0
  -36.5953  -21.0786   18.3432 N   0  3  0  0  0  0  0  0  0  0  0  0
  -22.6592  -14.7199   21.2995 O   0  0  0  0  0  0  0  0  0  0  0  0
  -31.9029  -27.9803   16.8638 O   0  0  0  0  0  0  0  0  0  0  0  0
  -35.7451  -26.5756   16.2669 O   0  0  0  0  0  0  0  0  0  0  0  0
  -34.2707  -22.1590   17.1832 O   0  0  0  0  0  0  0  0  0  0  0  0
  -31.8556  -14.9387   20.1852 O   0  0  0  0  0  0  0  0  0  0  0  0
  -21.6154   -7.0182   21.7240 O   0  0  0  0  0  0  0  0  0  0  0  0
  -28.9731  -24.3511   20.8550 O   0  0  0  0  0  0  0  0  0  1  0  0
  -18.6150   -6.8805   26.3481 F   0  0  0  0  0  0  0  0  0  0  0  0
  -22.0634   -5.0846   23.6483 F   0  0  0  0  0  0  0  0  0  0  0  0
  -29.3078  -18.0050   22.5811 S   0  0  0  0  0  0  0  0  0  0  0  0
  1  2  1  0  0  0  0
  1  5  2  0  0  0  0
  2  6  2  0  0  0  0
  3  8  2  0  0  0  0
  3 17  1  0  0  0  0
  4  9  1  0  0  0  0
  4 17  2  0  0  0  0
  5 19  1  0  0  0  0
  6 21  1  0  0  0  0
  7 10  2  0  0  0  0
  7 20  1  0  0  0  0
  8 23  1  0  0  0  0
  9 23  2  0  0  0  0
 10 24  1  0  0  0  0
 11 12  2  0  0  0  0
 11 25  1  0  0  0  0
 12 26  1  0  0  0  0
 13 14  1  0  0  0  0
 13 29  2  0  0  0  0
 14 31  2  0  0  0  0
 15 22  1  0  0  0  0
 15 24  2  0  0  0  0
 16 26  2  0  0  0  0
 16 27  1  0  0  0  0
 17 28  1  0  0  0  0
 18 28  1  0  0  0  0
 18 30  2  0  0  0  0
 18 32  1  0  0  0  0
 19 21  2  0  0  0  0
 19 37  1  0  0  0  0
 20 22  2  0  0  0  0
 20 38  1  0  0  0  0
 21 49  1  0  0  0  0
 22 39  1  0  0  0  0
 23 80  1  0  0  0  0
 24 81  1  0  0  0  0
 25 27  2  0  0  0  0
 25 80  1  0  0  0  0
 26 82  1  0  0  0  0
 27 83  1  0  0  0  0
 28 64  2  0  0  0  0
 29 60  1  0  0  0  0
 29 84  1  0  0  0  0
 30 65  1  0  0  0  0
 30 68  1  0  0  0  0
 31 70  1  0  0  0  0
 31 84  1  0  0  0  0
 32 69  1  0  0  0  0
 32 75  2  0  0  0  0
 33 50  1  0  0  0  0
 33 71  1  0  0  0  0
 33 76  2  0  0  0  0
 34 61  1  0  0  0  0
 34 66  1  0  0  0  0
 34 77  2  0  0  0  0
 35 62  1  0  0  0  0
 35 72  1  0  0  0  0
 35 78  2  0  0  0  0
 36 67  1  0  0  0  0
 36 70  1  0  0  0  0
 36 79  2  0  0  0  0
 37 40  1  0  0  0  0
 38 50  1  0  0  0  0
 39 66  1  0  0  0  0
 40 43  1  0  0  0  0
 41 44  1  0  0  0  0
 41 46  1  0  0  0  0
 42 45  1  0  0  0  0
 42 48  1  0  0  0  0
 43 49  1  0  0  0  0
 44 51  1  0  0  0  0
 45 52  1  0  0  0  0
 46 67  1  0  0  0  0
 47 51  1  0  0  0  0
 47 67  1  0  0  0  0
 48 73  1  0  0  0  0
 49 71  1  0  0  0  0
 50 66  1  0  0  0  0
 51 65  1  0  0  0  0
 52 59  1  0  0  0  0
 52 73  1  0  0  0  0
 53 60  1  0  0  0  0
 54 62  1  0  0  0  0
 55 63  1  0  0  0  0
 56 63  1  0  0  0  0
 57 63  1  0  0  0  0
 58 74  1  0  0  0  0
 59 81  1  0  0  0  0
 60 73  1  0  0  0  0
 61 63  1  0  0  0  0
 61 72  1  0  0  0  0
 62 74  1  0  0  0  0
 64 65  1  0  0  0  0
M  CHG  2  73   1  74   1
M  ISO  4  36 100  59 101  70 100  81 101
M  END
> <Batch ID>
0146

> <Smiles>
CNC(C)C(=O)NC(C(=O)N1Cc2cc([101O:1][101CH2:1]C3CCCN3C(C)c3ccc([100NH:0][100C:0](=O)N4CCCC(n5nc(-c6ccc(Oc7ccc(F)cc7F)cc6)c(C(N)=O)c5N)C4)s3)ccc2CC1C(=O)NC1CCCc2ccccc21)C(C)(C)C

> <Shape>
0.225

> <Color>
0.188

> <Negative vol penalty>
0.000

$$$$

  -OEChem-04052303103D

 84 93  0     1  0  0  0  0  0999 V2000
  -22.0523  -10.8408   19.7814 C   0  0  0  0  0  0  0  0  0  0  0  0
  -21.7115  -12.1133   20.2286 C   0  0  0  0  0  0  0  0  0  0  0  0
  -31.4244  -31.0766   21.7496 C   0  0  0  0  0  0  0  0  0  0  0  0
  -30.9744  -29.8233   23.7655 C   0  0  0  0  0  0  0  0  0  0  0  0
  -23.3865  -10.4362   19.7845 C   0  0  0  0  0  0  0  0  0  0  0  0
  -22.7047  -12.9816   20.6801 C   0  0  0  0  0  0  0  0  0  0  0  0
  -17.6535  -28.1293   22.2378 C   0  0  0  0  0  0  0  0  0  0  0  0
  -22.1496  -17.6780   18.8688 C   0  0  0  0  0  0  0  0  0  0  0  0
  -17.7235  -26.7718   21.9146 C   0  0  0  0  0  0  0  0  0  0  0  0
  -32.4521  -31.7574   22.4022 C   0  0  0  0  0  0  0  0  0  0  0  0
  -32.0021  -30.5041   24.4181 C   0  0  0  0  0  0  0  0  0  0  0  0
  -21.1829  -18.4824   19.4707 C   0  0  0  0  0  0  0  0  0  0  0  0
  -34.2698  -32.1658   26.7216 C   0  0  0  0  0  0  0  0  0  0  0  0
  -34.0179  -32.6405   28.0087 C   0  0  0  0  0  0  0  0  0  0  0  0
  -20.0926  -26.7064   22.4863 C   0  0  0  0  0  0  0  0  0  0  0  0
  -22.9044  -19.5790   20.7563 C   0  0  0  0  0  0  0  0  0  0  0  0
  -32.2123  -33.9994   27.1542 C   0  0  0  0  0  0  0  0  0  0  0  0
  -30.6855  -30.1096   22.4312 C   0  0  0  0  0  0  0  0  0  0  0  0
  -29.7258  -28.2037   21.0332 C   0  0  0  0  0  0  0  0  0  0  0  0
  -24.3977  -11.3035   20.2272 C   0  0  0  0  0  0  0  0  0  0  0  0
  -18.8091  -28.7319   22.6762 C   0  0  0  0  0  0  0  0  0  0  0  0
  -23.5020  -17.8109   19.2148 C   0  0  0  0  0  0  0  0  0  0  0  0
  -24.0536  -12.5878   20.6903 C   0  0  0  0  0  0  0  0  0  0  0  0
  -19.9917  -28.0428   22.7960 C   0  0  0  0  0  0  0  0  0  0  0  0
  -23.8866  -18.7769   20.1556 C   0  0  0  0  0  0  0  0  0  0  0  0
  -18.9355  -26.0649   22.0378 C   0  0  0  0  0  0  0  0  0  0  0  0
  -32.7410  -31.4711   23.7364 C   0  0  0  0  0  0  0  0  0  0  0  0
  -21.5598  -19.4311   20.4167 C   0  0  0  0  0  0  0  0  0  0  0  0
  -33.4930  -32.6079   25.6507 C   0  0  0  0  0  0  0  0  0  0  0  0
  -32.9891  -33.5573   28.2251 C   0  0  0  0  0  0  0  0  0  0  0  0
  -32.4643  -33.5247   25.8670 C   0  0  0  0  0  0  0  0  0  0  0  0
  -29.6234  -29.4063   21.7578 C   0  0  0  0  0  0  0  0  0  0  0  0
  -28.4476  -27.9567   20.5953 C   0  0  0  0  0  0  0  0  0  0  0  0
  -30.8737  -27.3832   20.7788 C   0  0  0  0  0  0  0  0  0  0  0  0
  -25.6815  -15.9005   20.5202 C   0  0  0  0  0  0  0  0  0  0  0  0
  -19.8567  -22.4882   21.3739 C   0  0  0  0  0  0  0  0  0  0  0  0
  -27.6776  -18.3694   19.8551 C   0  0  0  0  0  0  0  0  0  0  0  0
  -28.0596  -21.7103   19.2728 C   0  0  0  0  0  0  0  0  0  0  0  0
  -23.1848  -29.5380   22.7331 C   0  0  0  0  0  0  0  0  0  0  0  0
  -25.8207  -10.8046   20.2562 C   0  0  0  0  0  0  0  0  0  0  0  0
  -19.4045  -30.0284   23.1409 C   0  0  0  0  0  0  0  0  0  0  0  0
  -24.5356  -16.9539   18.5369 C   0  0  0  0  0  0  0  0  0  0  0  0
  -25.3277  -18.9730   20.5470 C   0  0  0  0  0  0  0  0  0  0  0  0
  -26.8541  -11.9190   20.3989 C   0  0  0  0  0  0  0  0  0  0  0  0
  -24.4006  -30.2099   19.3924 C   0  0  0  0  0  0  0  0  0  0  0  0
  -26.4411  -12.8924   21.4983 C   0  0  0  0  0  0  0  0  0  0  0  0
  -25.9002  -29.9600   19.5606 C   0  0  0  0  0  0  0  0  0  0  0  0
  -23.8081  -30.8780   20.6300 C   0  0  0  0  0  0  0  0  0  0  0  0
  -25.5446  -29.8904   22.0714 C   0  0  0  0  0  0  0  0  0  0  0  0
  -25.1052  -13.5673   21.1644 C   0  0  1  0  0  0  0  0  0  0  0  0
  -20.7557  -29.2391   23.2958 C   0  0  2  0  0  0  0  0  0  0  0  0
  -25.8245  -16.8225   19.3425 C   0  0  1  0  0  0  0  0  0  0  0  0
  -26.1975  -29.1946   20.8634 C   0  0  2  0  0  0  0  0  0  0  0  0
  -29.8155  -23.4390   18.7981 C   0  0  0  0  0  0  0  0  0  0  0  0
  -28.5245  -18.3105   22.7858 C   0  0  0  0  0  0  0  0  0  0  0  0
  -29.5127  -20.5896   22.4738 C   0  0  0  0  0  0  0  0  0  0  0  0
  -30.3974  -18.6586   21.1656 C   0  0  0  0  0  0  0  0  0  0  0  0
  -26.8437  -22.3966   16.6633 C   0  0  0  0  0  0  0  0  0  0  0  0
  -20.1659  -23.9071   21.8019 C   0  0  0  0  0  0  0  0  0  0  0  0
  -21.0250  -21.5224   21.4148 C   0  0  0  0  0  0  0  0  0  1  0  0
  -28.1264  -19.6092   20.5901 C   0  0  1  0  0  0  0  0  0  0  0  0
  -28.8160  -22.4648   18.1944 C   0  0  2  0  0  0  0  0  0  0  0  0
  -29.1128  -19.2872   21.7481 C   0  0  0  0  0  0  0  0  0  0  0  0
  -28.3785  -29.8899   21.7811 N   0  0  0  0  0  0  0  0  0  0  0  0
  -27.6870  -28.9865   21.0656 N   0  0  0  0  0  0  0  0  0  0  0  0
  -26.3004  -18.1067   19.8609 N   0  0  0  0  0  0  0  0  0  0  0  0
  -24.1107  -30.0891   21.8330 N   0  0  0  0  0  0  0  0  0  0  0  0
  -27.9114  -26.9614   19.8577 N   0  0  0  0  0  0  0  0  0  0  0  0
  -32.1105  -27.7834   21.3028 N   0  0  0  0  0  0  0  0  0  0  0  0
  -18.9782  -24.7172   21.7106 N   0  0  0  0  0  0  0  0  0  0  0  0
  -25.2992  -14.6154   20.1855 N   0  0  0  0  0  0  0  0  0  0  0  0
  -28.6668  -20.5106   19.5782 N   0  0  0  0  0  0  0  0  0  0  0  0
  -21.8431  -29.7628   22.4436 N   0  0  0  0  0  0  0  0  0  0  0  0
  -27.8685  -23.2336   17.3386 N   0  3  0  0  0  0  0  0  0  0  0  0
  -30.8078  -26.3350   20.0928 O   0  0  0  0  0  0  0  0  0  0  0  0
  -25.9030  -16.3232   21.6489 O   0  0  0  0  0  0  0  0  0  0  0  0
  -18.7355  -22.1311   21.0145 O   0  0  0  0  0  0  0  0  0  0  0  0
  -28.5173  -17.6639   19.2903 O   0  0  0  0  0  0  0  0  0  0  0  0
  -27.0348  -22.1437   19.7950 O   0  0  0  0  0  0  0  0  0  0  0  0
  -23.5228  -28.8839   23.7259 O   0  0  0  0  0  0  0  0  0  0  0  0
  -33.7439  -32.1351   24.3735 O   0  0  0  0  0  0  0  0  0  0  0  0
  -20.6182  -20.2171   21.0061 O   0  0  0  0  0  0  0  0  0  1  0  0
  -32.7463  -34.0119   29.4614 F   0  0  0  0  0  0  0  0  0  0  0  0
  -31.7138  -33.9522   24.8423 F   0  0  0  0  0  0  0  0  0  0  0  0
  1  2  1  0  0  0  0
  1  5  2  0  0  0  0
  2  6  2  0  0  0  0
  3 10  2  0  0  0  0
  3 18  1  0  0  0  0
  4 11  1  0  0  0  0
  4 18  2  0  0  0  0
  5 20  1  0  0  0  0
  6 23  1  0  0  0  0
  7  9  2  0  0  0  0
  7 21  1  0  0  0  0
  8 12  2  0  0  0  0
  8 22  1  0  0  0  0
  9 26  1  0  0  0  0
 10 27  1  0  0  0  0
 11 27  2  0  0  0  0
 12 28  1  0  0  0  0
 13 14  2  0  0  0  0
 13 29  1  0  0  0  0
 14 30  1  0  0  0  0
 15 24  1  0  0  0  0
 15 26  2  0  0  0  0
 16 25  1  0  0  0  0
 16 28  2  0  0  0  0
 17 30  2  0  0  0  0
 17 31  1  0  0  0  0
 18 32  1  0  0  0  0
 19 32  1  0  0  0  0
 19 33  2  0  0  0  0
 19 34  1  0  0  0  0
 20 23  2  0  0  0  0
 20 40  1  0  0  0  0
 21 24  2  0  0  0  0
 21 41  1  0  0  0  0
 22 25  2  0  0  0  0
 22 42  1  0  0  0  0
 23 50  1  0  0  0  0
 24 51  1  0  0  0  0
 25 43  1  0  0  0  0
 26 70  1  0  0  0  0
 27 81  1  0  0  0  0
 28 82  1  0  0  0  0
 29 31  2  0  0  0  0
 29 81  1  0  0  0  0
 30 83  1  0  0  0  0
 31 84  1  0  0  0  0
 32 64  2  0  0  0  0
 33 65  1  0  0  0  0
 33 68  1  0  0  0  0
 34 69  1  0  0  0  0
 34 75  2  0  0  0  0
 35 52  1  0  0  0  0
 35 71  1  0  0  0  0
 35 76  2  0  0  0  0
 36 59  1  0  0  0  0
 36 60  1  0  0  0  0
 36 77  2  0  0  0  0
 37 61  1  0  0  0  0
 37 66  1  0  0  0  0
 37 78  2  0  0  0  0
 38 62  1  0  0  0  0
 38 72  1  0  0  0  0
 38 79  2  0  0  0  0
 39 67  1  0  0  0  0
 39 73  1  0  0  0  0
 39 80  2  0  0  0  0
 40 44  1  0  0  0  0
 41 51  1  0  0  0  0
 42 52  1  0  0  0  0
 43 66  1  0  0  0  0
 44 46  1  0  0  0  0
 45 47  1  0  0  0  0
 45 48  1  0  0  0  0
 46 50  1  0  0  0  0
 47 53  1  0  0  0  0
 48 67  1  0  0  0  0
 49 53  1  0  0  0  0
 49 67  1  0  0  0  0
 50 71  1  0  0  0  0
 51 73  1  0  0  0  0
 52 66  1  0  0  0  0
 53 65  1  0  0  0  0
 54 62  1  0  0  0  0
 55 63  1  0  0  0  0
 56 63  1  0  0  0  0
 57 63  1  0  0  0  0
 58 74  1  0  0  0  0
 59 70  1  0  0  0  0
 60 82  1  0  0  0  0
 61 63  1  0  0  0  0
 61 72  1  0  0  0  0
 62 74  1  0  0  0  0
 64 65  1  0  0  0  0
M  CHG  1  74   1
M  ISO  4  39 100  60 101  73 100  82 101
M  END
> <Batch ID>
0146

> <Smiles>
CNC(C)C(=O)NC(C(=O)N1Cc2cc([101O:1][101CH2:1]C(=O)CNc3ccc4c(c3)C([100NH:0][100C:0](=O)N3CCCC(n5nc(-c6ccc(Oc7ccc(F)cc7F)cc6)c(C(N)=O)c5N)C3)C4)ccc2CC1C(=O)NC1CCCc2ccccc21)C(C)(C)C

> <Shape>
0.249

> <Color>
0.112

> <Negative vol penalty>
0.000

$$$$

  -OEChem-04052303103D

 83 92  0     1  0  0  0  0  0999 V2000
  -27.3044  -38.1191   23.9562 C   0  0  0  0  0  0  0  0  0  0  0  0
  -27.9733  -37.1622   23.1998 C   0  0  0  0  0  0  0  0  0  0  0  0
  -24.6878   -8.4592   21.3575 C   0  0  0  0  0  0  0  0  0  0  0  0
  -23.0741  -10.2484   21.5361 C   0  0  0  0  0  0  0  0  0  0  0  0
  -26.3256  -37.7258   24.8679 C   0  0  0  0  0  0  0  0  0  0  0  0
  -27.6646  -35.8113   23.3554 C   0  0  0  0  0  0  0  0  0  0  0  0
  -27.2970  -29.7035   19.6303 C   0  0  0  0  0  0  0  0  0  0  0  0
  -24.0067   -7.7464   22.3443 C   0  0  0  0  0  0  0  0  0  0  0  0
  -22.3930   -9.5356   22.5228 C   0  0  0  0  0  0  0  0  0  0  0  0
  -27.7538  -28.3870   19.6726 C   0  0  0  0  0  0  0  0  0  0  0  0
  -21.2318   -5.8269   22.5634 C   0  0  0  0  0  0  0  0  0  0  0  0
  -21.0062   -4.4682   22.3426 C   0  0  0  0  0  0  0  0  0  0  0  0
  -25.9892  -27.8309   21.2206 C   0  0  0  0  0  0  0  0  0  0  0  0
  -27.3644  -19.0633   20.3006 C   0  0  0  0  0  0  0  0  0  0  0  0
  -22.2605   -3.9357   24.3376 C   0  0  0  0  0  0  0  0  0  0  0  0
  -25.1809  -19.8531   20.4036 C   0  0  0  0  0  0  0  0  0  0  0  0
  -24.2215   -9.7102   20.9535 C   0  0  0  0  0  0  0  0  0  0  0  0
  -24.7101  -10.3925   18.5444 C   0  0  0  0  0  0  0  0  0  0  0  0
  -25.9979  -36.3702   25.0278 C   0  0  0  0  0  0  0  0  0  0  0  0
  -26.1876  -30.0968   20.3925 C   0  0  0  0  0  0  0  0  0  0  0  0
  -26.6814  -35.3995   24.2710 C   0  0  0  0  0  0  0  0  0  0  0  0
  -25.5188  -29.1524   21.1842 C   0  0  0  0  0  0  0  0  0  0  0  0
  -26.5117  -20.2039   20.3452 C   0  0  0  0  0  0  0  0  0  0  0  0
  -22.8593   -8.2846   22.9269 C   0  0  0  0  0  0  0  0  0  0  0  0
  -27.1017  -27.4511   20.4701 C   0  0  0  0  0  0  0  0  0  0  0  0
  -21.9718   -6.2399   23.6713 C   0  0  0  0  0  0  0  0  0  0  0  0
  -21.5205   -3.5226   23.2297 C   0  0  0  0  0  0  0  0  0  0  0  0
  -22.4862   -5.2944   24.5584 C   0  0  0  0  0  0  0  0  0  0  0  0
  -24.9250  -10.4472   19.9346 C   0  0  0  0  0  0  0  0  0  0  0  0
  -25.6259  -11.2719   18.0206 C   0  0  0  0  0  0  0  0  0  0  0  0
  -26.6528  -17.8840   20.3268 C   0  0  0  0  0  0  0  0  0  0  0  0
  -23.7670   -9.6162   17.7938 C   0  0  0  0  0  0  0  0  0  0  0  0
  -25.7079  -32.1770   22.7476 C   0  0  0  0  0  0  0  0  0  0  0  0
  -22.6008  -31.3467   22.3241 C   0  0  0  0  0  0  0  0  0  0  0  0
  -20.3437  -29.0335   21.2280 C   0  0  0  0  0  0  0  0  0  0  0  0
  -28.4040  -16.0752   20.2376 C   0  0  0  0  0  0  0  0  0  0  0  0
  -24.9660  -35.9896   26.0599 C   0  0  0  0  0  0  0  0  0  0  0  0
  -25.6911  -31.5146   20.3152 C   0  0  0  0  0  0  0  0  0  0  0  0
  -24.3108  -29.5191   22.0057 C   0  0  0  0  0  0  0  0  0  0  0  0
  -24.4347  -34.5681   25.8946 C   0  0  0  0  0  0  0  0  0  0  0  0
  -29.9404  -13.1535   18.9034 C   0  0  0  0  0  0  0  0  0  0  0  0
  -25.5848  -33.5905   25.6749 C   0  0  0  0  0  0  0  0  0  0  0  0
  -28.8075  -12.1247   18.8842 C   0  0  0  0  0  0  0  0  0  0  0  0
  -28.3757  -23.3797   20.5594 C   0  0  0  0  0  0  0  0  0  0  0  0
  -29.8591  -14.0639   20.1274 C   0  0  0  0  0  0  0  0  0  0  0  0
  -28.3733  -21.8791   20.2696 C   0  0  0  0  0  0  0  0  0  0  0  0
  -27.4297  -13.6958   20.3057 C   0  0  0  0  0  0  0  0  0  0  0  0
  -26.0891  -22.6781   20.4090 C   0  0  0  0  0  0  0  0  0  0  0  0
  -26.3573  -33.9263   24.3935 C   0  0  1  0  0  0  0  0  0  0  0  0
  -24.8645  -31.9252   21.5299 C   0  0  1  0  0  0  0  0  0  0  0  0
  -27.4319  -12.7980   19.0576 C   0  0  2  0  0  0  0  0  0  0  0  0
  -27.0092  -23.8639   20.0529 C   0  0  2  0  0  0  0  0  0  0  0  0
  -27.0361  -24.0984   18.5330 C   0  0  0  0  0  0  0  0  0  0  0  0
  -17.8748  -28.6213   21.0488 C   0  0  0  0  0  0  0  0  0  0  0  0
  -22.4909  -30.7225   25.3088 C   0  0  0  0  0  0  0  0  0  0  0  0
  -20.3746  -29.4507   24.8939 C   0  0  0  0  0  0  0  0  0  0  0  0
  -20.4724  -31.8966   24.4135 C   0  0  0  0  0  0  0  0  0  0  0  0
  -20.4689  -28.8628   18.2761 C   0  0  0  0  0  0  0  0  0  0  0  0
  -26.5731  -25.1501   20.7566 C   0  0  0  0  0  0  0  0  0  1  0  0
  -21.6908  -30.2852   22.8933 C   0  0  1  0  0  0  0  0  0  0  0  0
  -19.1116  -29.1652   20.3509 C   0  0  2  0  0  0  0  0  0  0  0  0
  -21.2811  -30.5820   24.3635 C   0  0  0  0  0  0  0  0  0  0  0  0
  -25.9008  -11.2943   20.2726 N   0  0  0  0  0  0  0  0  0  0  0  0
  -26.3074  -11.7798   19.0872 N   0  0  0  0  0  0  0  0  0  0  0  0
  -26.9629  -21.5072   20.3316 N   0  0  3  0  0  0  0  0  0  0  0  0
  -23.8675  -30.9191   21.9015 N   0  0  0  0  0  0  0  0  0  0  0  0
  -28.5294  -14.6699   20.2245 N   0  0  0  0  0  0  0  0  0  0  0  0
  -25.9068  -11.6523   16.7562 N   0  0  0  0  0  0  0  0  0  0  0  0
  -22.8994   -8.7633   18.4896 N   0  0  0  0  0  0  0  0  0  0  0  0
  -27.0894  -16.5363   20.2998 N   0  0  0  0  0  0  0  0  0  0  0  0
  -25.6284  -33.4696   23.2296 N   0  0  0  0  0  0  0  0  0  0  0  0
  -20.5663  -30.1739   21.9705 N   0  0  0  0  0  0  0  0  0  0  0  0
  -19.3003  -28.4155   19.0769 N   0  3  0  0  0  0  0  0  0  0  0  0
  -23.7067   -9.6648   16.5418 O   0  0  0  0  0  0  0  0  0  0  0  0
  -26.3797  -31.2656   23.2162 O   0  0  0  0  0  0  0  0  0  0  0  0
  -22.1999  -32.5109   22.2503 O   0  0  0  0  0  0  0  0  0  0  0  0
  -21.0369  -28.0190   21.2548 O   0  0  0  0  0  0  0  0  0  0  0  0
  -29.3887  -16.8153   20.1692 O   0  0  0  0  0  0  0  0  0  0  0  0
  -22.1943   -7.5892   23.8896 O   0  0  0  0  0  0  0  0  0  0  0  0
  -27.5459  -26.1655   20.5137 O   0  0  0  0  0  0  0  0  0  1  0  0
  -21.3025   -2.2180   23.0184 F   0  0  0  0  0  0  0  0  0  0  0  0
  -23.1969   -5.6852   25.6252 F   0  0  0  0  0  0  0  0  0  0  0  0
  -24.9637  -18.1545   20.4046 S   0  0  0  0  0  0  0  0  0  0  0  0
  1  2  1  0  0  0  0
  1  5  2  0  0  0  0
  2  6  2  0  0  0  0
  3  8  2  0  0  0  0
  3 17  1  0  0  0  0
  4  9  1  0  0  0  0
  4 17  2  0  0  0  0
  5 19  1  0  0  0  0
  6 21  1  0  0  0  0
  7 10  2  0  0  0  0
  7 20  1  0  0  0  0
  8 24  1  0  0  0  0
  9 24  2  0  0  0  0
 10 25  1  0  0  0  0
 11 12  2  0  0  0  0
 11 26  1  0  0  0  0
 12 27  1  0  0  0  0
 13 22  1  0  0  0  0
 13 25  2  0  0  0  0
 14 23  1  0  0  0  0
 14 31  2  0  0  0  0
 15 27  2  0  0  0  0
 15 28  1  0  0  0  0
 16 23  2  0  0  0  0
 16 83  1  0  0  0  0
 17 29  1  0  0  0  0
 18 29  1  0  0  0  0
 18 30  2  0  0  0  0
 18 32  1  0  0  0  0
 19 21  2  0  0  0  0
 19 37  1  0  0  0  0
 20 22  2  0  0  0  0
 20 38  1  0  0  0  0
 21 49  1  0  0  0  0
 22 39  1  0  0  0  0
 23 65  1  0  0  0  0
 24 79  1  0  0  0  0
 25 80  1  0  0  0  0
 26 28  2  0  0  0  0
 26 79  1  0  0  0  0
 27 81  1  0  0  0  0
 28 82  1  0  0  0  0
 29 63  2  0  0  0  0
 30 64  1  0  0  0  0
 30 68  1  0  0  0  0
 31 70  1  0  0  0  0
 31 83  1  0  0  0  0
 32 69  1  0  0  0  0
 32 74  2  0  0  0  0
 33 50  1  0  0  0  0
 33 71  1  0  0  0  0
 33 75  2  0  0  0  0
 34 60  1  0  0  0  0
 34 66  1  0  0  0  0
 34 76  2  0  0  0  0
 35 61  1  0  0  0  0
 35 72  1  0  0  0  0
 35 77  2  0  0  0  0
 36 67  1  0  0  0  0
 36 70  1  0  0  0  0
 36 78  2  0  0  0  0
 37 40  1  0  0  0  0
 38 50  1  0  0  0  0
 39 66  1  0  0  0  0
 40 42  1  0  0  0  0
 41 43  1  0  0  0  0
 41 45  1  0  0  0  0
 42 49  1  0  0  0  0
 43 51  1  0  0  0  0
 44 46  1  0  0  0  0
 44 52  1  0  0  0  0
 45 67  1  0  0  0  0
 46 65  1  0  0  0  0
 47 51  1  0  0  0  0
 47 67  1  0  0  0  0
 48 52  1  0  0  0  0
 48 65  1  0  0  0  0
 49 71  1  0  0  0  0
 50 66  1  0  0  0  0
 51 64  1  0  0  0  0
 52 53  1  0  0  0  0
 52 59  1  0  0  0  0
 54 61  1  0  0  0  0
 55 62  1  0  0  0  0
 56 62  1  0  0  0  0
 57 62  1  0  0  0  0
 58 73  1  0  0  0  0
 59 80  1  0  0  0  0
 60 62  1  0  0  0  0
 60 72  1  0  0  0  0
 61 73  1  0  0  0  0
 63 64  1  0  0  0  0
M  CHG  1  73   1
M  ISO  4  36 100  59 101  70 100  80 101
M  END
> <Batch ID>
0146

> <Smiles>
CNC(C)C(=O)NC(C(=O)N1Cc2cc([101O:1][101CH2:1]C3(C)CCN(c4csc([100NH:0][100C:0](=O)N5CCCC(n6nc(-c7ccc(Oc8ccc(F)cc8F)cc7)c(C(N)=O)c6N)C5)c4)C3)ccc2CC1C(=O)NC1CCCc2ccccc21)C(C)(C)C

> <Shape>
0.302

> <Color>
0.098

> <Negative vol penalty>
0.000

$$$$

  -OEChem-04052303103D

 85 94  0     1  0  0  0  0  0999 V2000
  -26.1792  -35.6582   23.0146 C   0  0  0  0  0  0  0  0  0  0  0  0
  -26.6860  -34.3706   22.8709 C   0  0  0  0  0  0  0  0  0  0  0  0
  -25.5594  -11.7981   19.2712 C   0  0  0  0  0  0  0  0  0  0  0  0
  -27.6264  -12.9324   18.7438 C   0  0  0  0  0  0  0  0  0  0  0  0
  -24.8595  -35.8450   23.4236 C   0  0  0  0  0  0  0  0  0  0  0  0
  -25.8736  -33.2690   23.1373 C   0  0  0  0  0  0  0  0  0  0  0  0
  -26.2738  -29.6611   19.6062 C   0  0  0  0  0  0  0  0  0  0  0  0
  -25.8023  -10.8804   18.2493 C   0  0  0  0  0  0  0  0  0  0  0  0
  -27.8693  -12.0146   17.7219 C   0  0  0  0  0  0  0  0  0  0  0  0
  -27.3970  -28.8372   19.6623 C   0  0  0  0  0  0  0  0  0  0  0  0
  -29.0145   -8.8477   17.4407 C   0  0  0  0  0  0  0  0  0  0  0  0
  -30.3007   -8.3173   17.3402 C   0  0  0  0  0  0  0  0  0  0  0  0
  -26.0797  -27.1243   20.7347 C   0  0  0  0  0  0  0  0  0  0  0  0
  -28.2515  -23.0510   21.3247 C   0  0  0  0  0  0  0  0  0  0  0  0
  -30.5006   -9.2248   15.1100 C   0  0  0  0  0  0  0  0  0  0  0  0
  -26.4715  -12.8242   19.5185 C   0  0  0  0  0  0  0  0  0  0  0  0
  -26.6199  -13.6720   21.9199 C   0  0  0  0  0  0  0  0  0  0  0  0
  -24.0276  -34.7451   23.6857 C   0  0  0  0  0  0  0  0  0  0  0  0
  -25.0455  -29.2263   20.1247 C   0  0  0  0  0  0  0  0  0  0  0  0
  -24.5419  -33.4413   23.5514 C   0  0  0  0  0  0  0  0  0  0  0  0
  -24.9417  -27.9437   20.6817 C   0  0  0  0  0  0  0  0  0  0  0  0
  -27.0050  -22.3759   21.1814 C   0  0  0  0  0  0  0  0  0  0  0  0
  -26.9572  -10.9886   17.4746 C   0  0  0  0  0  0  0  0  0  0  0  0
  -27.3008  -27.5697   20.2291 C   0  0  0  0  0  0  0  0  0  0  0  0
  -28.4713   -9.5666   16.3758 C   0  0  0  0  0  0  0  0  0  0  0  0
  -31.0437   -8.5059   16.1749 C   0  0  0  0  0  0  0  0  0  0  0  0
  -29.2144   -9.7552   15.2105 C   0  0  0  0  0  0  0  0  0  0  0  0
  -26.2209  -13.7728   20.5736 C   0  0  0  0  0  0  0  0  0  0  0  0
  -26.1416  -14.8181   22.5065 C   0  0  0  0  0  0  0  0  0  0  0  0
  -29.2834  -22.3658   20.7221 C   0  0  0  0  0  0  0  0  0  0  0  0
  -27.1316  -21.2003   20.4743 C   0  0  0  0  0  0  0  0  0  0  0  0
  -27.3571  -12.6351   22.5810 C   0  0  0  0  0  0  0  0  0  0  0  0
  -23.1130  -30.2183   22.4453 C   0  0  0  0  0  0  0  0  0  0  0  0
  -30.8363  -25.1467   20.3825 C   0  0  0  0  0  0  0  0  0  0  0  0
  -21.1646  -27.9006   21.2817 C   0  0  0  0  0  0  0  0  0  0  0  0
  -20.8547  -24.9726   19.5561 C   0  0  0  0  0  0  0  0  0  0  0  0
  -24.8045  -20.2402   20.3808 C   0  0  0  0  0  0  0  0  0  0  0  0
  -22.6220  -34.9973   24.1710 C   0  0  0  0  0  0  0  0  0  0  0  0
  -23.8369  -30.1168   20.0325 C   0  0  0  0  0  0  0  0  0  0  0  0
  -23.6413  -27.4219   21.2340 C   0  0  0  0  0  0  0  0  0  0  0  0
  -21.7146  -33.7737   24.0717 C   0  0  0  0  0  0  0  0  0  0  0  0
  -22.6143  -18.0337   22.1161 C   0  0  0  0  0  0  0  0  0  0  0  0
  -25.7273  -23.8283   22.9506 C   0  0  0  0  0  0  0  0  0  0  0  0
  -25.2337  -22.4248   23.1138 C   0  0  0  0  0  0  0  0  0  0  0  0
  -22.4226  -32.5383   24.6186 C   0  0  0  0  0  0  0  0  0  0  0  0
  -23.3299  -16.6827   22.0453 C   0  0  0  0  0  0  0  0  0  0  0  0
  -22.8006  -18.8421   20.8334 C   0  0  0  0  0  0  0  0  0  0  0  0
  -24.9107  -17.6706   20.3389 C   0  0  0  0  0  0  0  0  0  0  0  0
  -25.6878  -22.9046   21.7501 C   0  0  0  0  0  0  0  0  0  0  0  0
  -23.6844  -32.2209   23.8070 C   0  0  1  0  0  0  0  0  0  0  0  0
  -22.7596  -29.7699   21.0555 C   0  0  1  0  0  0  0  0  0  0  0  0
  -24.8058  -16.8477   21.6332 C   0  0  2  0  0  0  0  0  0  0  0  0
  -19.1402  -23.3031   18.8008 C   0  0  0  0  0  0  0  0  0  0  0  0
  -21.0047  -26.7857   24.1174 C   0  0  0  0  0  0  0  0  0  0  0  0
  -20.1053  -24.6566   23.1550 C   0  0  0  0  0  0  0  0  0  0  0  0
  -18.8357  -26.7852   22.8724 C   0  0  0  0  0  0  0  0  0  0  0  0
  -21.4829  -25.4444   16.7027 C   0  0  0  0  0  0  0  0  0  0  0  0
  -30.6427  -26.4761   21.0999 C   0  0  0  0  0  0  0  0  0  0  0  0
  -31.1201  -23.9596   21.2809 C   0  0  0  0  0  0  0  0  0  0  0  0
  -29.6677  -27.4023   20.3892 C   0  0  0  0  0  0  0  0  0  1  0  0
  -20.9675  -26.4300   21.5604 C   0  0  1  0  0  0  0  0  0  0  0  0
  -19.9180  -24.5579   18.4358 C   0  0  2  0  0  0  0  0  0  0  0  0
  -20.2534  -26.1747   22.9177 C   0  0  0  0  0  0  0  0  0  0  0  0
  -25.5413  -14.8943   20.3199 N   0  0  0  0  0  0  0  0  0  0  0  0
  -25.5095  -15.5087   21.5147 N   0  0  0  0  0  0  0  0  0  0  0  0
  -22.4894  -28.3324   21.1263 N   0  0  0  0  0  0  0  0  0  0  0  0
  -24.2236  -18.9606   20.5078 N   0  0  0  0  0  0  0  0  0  0  0  0
  -26.2043  -15.2925   23.7689 N   0  0  0  0  0  0  0  0  0  0  0  0
  -27.7724  -11.5274   21.8295 N   0  0  0  0  0  0  0  0  0  0  0  0
  -26.1707  -20.2280   20.1017 N   0  0  0  0  0  0  0  0  0  0  0  0
  -30.6155  -22.7506   20.6802 N   0  0  0  0  0  0  0  0  0  0  0  0
  -23.3339  -31.5776   22.5588 N   0  0  0  0  0  0  0  0  0  0  0  0
  -20.2644  -25.8860   20.4037 N   0  0  0  0  0  0  0  0  0  0  0  0
  -20.6889  -24.2870   17.1895 N   0  3  0  0  0  0  0  0  0  0  0  0
  -27.6250  -12.6815   23.8056 O   0  0  0  0  0  0  0  0  0  0  0  0
  -23.1789  -29.3924   23.3482 O   0  0  0  0  0  0  0  0  0  0  0  0
  -30.7688  -25.0450   19.1583 O   0  0  0  0  0  0  0  0  0  0  0  0
  -20.1790  -28.6375   21.1975 O   0  0  0  0  0  0  0  0  0  0  0  0
  -21.9948  -24.5277   19.6701 O   0  0  0  0  0  0  0  0  0  0  0  0
  -24.1447  -21.2708   20.5369 O   0  0  0  0  0  0  0  0  0  0  0  0
  -27.1946  -10.0931   16.4775 O   0  0  0  0  0  0  0  0  0  0  0  0
  -28.3958  -26.7637   20.2857 O   0  0  0  0  0  0  0  0  0  1  0  0
  -32.2794   -7.9978   16.0791 F   0  0  0  0  0  0  0  0  0  0  0  0
  -28.6984  -10.4459   14.1847 F   0  0  0  0  0  0  0  0  0  0  0  0
  -28.7482  -20.9147   19.9871 S   0  0  0  0  0  0  0  0  0  0  0  0
  1  2  1  0  0  0  0
  1  5  2  0  0  0  0
  2  6  2  0  0  0  0
  3  8  2  0  0  0  0
  3 16  1  0  0  0  0
  4  9  1  0  0  0  0
  4 16  2  0  0  0  0
  5 18  1  0  0  0  0
  6 20  1  0  0  0  0
  7 10  2  0  0  0  0
  7 19  1  0  0  0  0
  8 23  1  0  0  0  0
  9 23  2  0  0  0  0
 10 24  1  0  0  0  0
 11 12  2  0  0  0  0
 11 25  1  0  0  0  0
 12 26  1  0  0  0  0
 13 21  1  0  0  0  0
 13 24  2  0  0  0  0
 14 22  1  0  0  0  0
 14 30  2  0  0  0  0
 15 26  2  0  0  0  0
 15 27  1  0  0  0  0
 16 28  1  0  0  0  0
 17 28  1  0  0  0  0
 17 29  2  0  0  0  0
 17 32  1  0  0  0  0
 18 20  2  0  0  0  0
 18 38  1  0  0  0  0
 19 21  2  0  0  0  0
 19 39  1  0  0  0  0
 20 50  1  0  0  0  0
 21 40  1  0  0  0  0
 22 31  2  0  0  0  0
 22 49  1  0  0  0  0
 23 81  1  0  0  0  0
 24 82  1  0  0  0  0
 25 27  2  0  0  0  0
 25 81  1  0  0  0  0
 26 83  1  0  0  0  0
 27 84  1  0  0  0  0
 28 64  2  0  0  0  0
 29 65  1  0  0  0  0
 29 68  1  0  0  0  0
 30 71  1  0  0  0  0
 30 85  1  0  0  0  0
 31 70  1  0  0  0  0
 31 85  1  0  0  0  0
 32 69  1  0  0  0  0
 32 75  2  0  0  0  0
 33 51  1  0  0  0  0
 33 72  1  0  0  0  0
 33 76  2  0  0  0  0
 34 58  1  0  0  0  0
 34 59  1  0  0  0  0
 34 77  2  0  0  0  0
 35 61  1  0  0  0  0
 35 66  1  0  0  0  0
 35 78  2  0  0  0  0
 36 62  1  0  0  0  0
 36 73  1  0  0  0  0
 36 79  2  0  0  0  0
 37 67  1  0  0  0  0
 37 70  1  0  0  0  0
 37 80  2  0  0  0  0
 38 41  1  0  0  0  0
 39 51  1  0  0  0  0
 40 66  1  0  0  0  0
 41 45  1  0  0  0  0
 42 46  1  0  0  0  0
 42 47  1  0  0  0  0
 43 44  1  0  0  0  0
 43 49  1  0  0  0  0
 44 49  1  0  0  0  0
 45 50  1  0  0  0  0
 46 52  1  0  0  0  0
 47 67  1  0  0  0  0
 48 52  1  0  0  0  0
 48 67  1  0  0  0  0
 50 72  1  0  0  0  0
 51 66  1  0  0  0  0
 52 65  1  0  0  0  0
 53 62  1  0  0  0  0
 54 63  1  0  0  0  0
 55 63  1  0  0  0  0
 56 63  1  0  0  0  0
 57 74  1  0  0  0  0
 58 60  1  0  0  0  0
 59 71  1  0  0  0  0
 60 82  1  0  0  0  0
 61 63  1  0  0  0  0
 61 73  1  0  0  0  0
 62 74  1  0  0  0  0
 64 65  1  0  0  0  0
M  CHG  1  74   1
M  ISO  4  37 100  60 101  70 100  82 101
M  END
> <Batch ID>
0146

> <Smiles>
CNC(C)C(=O)NC(C(=O)N1Cc2cc([101O:1][101CH2:1]CC(=O)CNc3cc(C4CC4)c([100NH:0][100C:0](=O)N4CCCC(n5nc(-c6ccc(Oc7ccc(F)cc7F)cc6)c(C(N)=O)c5N)C4)s3)ccc2CC1C(=O)NC1CCCc2ccccc21)C(C)(C)C

> <Shape>
0.235

> <Color>
0.085

> <Negative vol penalty>
0.000

$$$$

  -OEChem-04052303103D

 86 95  0     1  0  0  0  0  0999 V2000
  -22.0002  -31.6597   26.0062 C   0  0  0  0  0  0  0  0  0  0  0  0
  -23.1461  -31.1811   25.3790 C   0  0  0  0  0  0  0  0  0  0  0  0
  -27.0586  -12.6118   21.3391 C   0  0  0  0  0  0  0  0  0  0  0  0
  -26.6660  -13.5199   19.1350 C   0  0  0  0  0  0  0  0  0  0  0  0
  -20.8717  -30.8471   26.1082 C   0  0  0  0  0  0  0  0  0  0  0  0
  -23.1646  -29.8893   24.8544 C   0  0  0  0  0  0  0  0  0  0  0  0
  -29.5174  -23.7799   17.6373 C   0  0  0  0  0  0  0  0  0  0  0  0
  -25.2299  -29.6979   20.2346 C   0  0  0  0  0  0  0  0  0  0  0  0
  -30.0347  -25.0028   18.0718 C   0  0  0  0  0  0  0  0  0  0  0  0
  -26.3332  -11.4702   20.9980 C   0  0  0  0  0  0  0  0  0  0  0  0
  -25.9407  -12.3784   18.7938 C   0  0  0  0  0  0  0  0  0  0  0  0
  -26.6212  -29.7416   20.1569 C   0  0  0  0  0  0  0  0  0  0  0  0
  -24.2795   -8.4742   20.8254 C   0  0  0  0  0  0  0  0  0  0  0  0
  -23.3523   -7.9929   21.7496 C   0  0  0  0  0  0  0  0  0  0  0  0
  -30.1291  -24.2022   20.3727 C   0  0  0  0  0  0  0  0  0  0  0  0
  -26.6748  -27.3463   19.8762 C   0  0  0  0  0  0  0  0  0  0  0  0
  -22.1574  -10.0901   21.6430 C   0  0  0  0  0  0  0  0  0  0  0  0
  -27.2249  -13.6367   20.4076 C   0  0  0  0  0  0  0  0  0  0  0  0
  -29.3565  -15.0249   20.5991 C   0  0  0  0  0  0  0  0  0  0  0  0
  -20.8732  -29.5481   25.5760 C   0  0  0  0  0  0  0  0  0  0  0  0
  -29.3220  -22.8059   18.5880 C   0  0  0  0  0  0  0  0  0  0  0  0
  -24.5501  -28.4747   20.1445 C   0  0  0  0  0  0  0  0  0  0  0  0
  -22.0356  -29.0581   24.9506 C   0  0  0  0  0  0  0  0  0  0  0  0
  -29.6164  -23.0105   19.9147 C   0  0  0  0  0  0  0  0  0  0  0  0
  -25.2747  -27.2900   19.9505 C   0  0  0  0  0  0  0  0  0  0  0  0
  -30.3388  -25.2127   19.4309 C   0  0  0  0  0  0  0  0  0  0  0  0
  -25.7743  -11.3535   19.7253 C   0  0  0  0  0  0  0  0  0  0  0  0
  -27.3441  -28.5654   19.9805 C   0  0  0  0  0  0  0  0  0  0  0  0
  -24.1458   -9.7635   20.3100 C   0  0  0  0  0  0  0  0  0  0  0  0
  -22.2912   -8.8008   22.1584 C   0  0  0  0  0  0  0  0  0  0  0  0
  -23.0847  -10.5714   20.7188 C   0  0  0  0  0  0  0  0  0  0  0  0
  -27.9736  -14.8164   20.7596 C   0  0  0  0  0  0  0  0  0  0  0  0
  -29.5710  -16.2926   21.0823 C   0  0  0  0  0  0  0  0  0  0  0  0
  -30.3578  -14.1509   20.0611 C   0  0  0  0  0  0  0  0  0  0  0  0
  -28.0356  -21.6682   21.3400 C   0  0  0  0  0  0  0  0  0  0  0  0
  -22.6565  -26.8128   22.0825 C   0  0  0  0  0  0  0  0  0  0  0  0
  -22.3239  -24.9021   19.4823 C   0  0  0  0  0  0  0  0  0  0  0  0
  -23.6080  -23.7860   16.5239 C   0  0  0  0  0  0  0  0  0  0  0  0
  -31.1240  -27.5795   19.0580 C   0  0  0  0  0  0  0  0  0  0  0  0
  -19.6454  -28.6901   25.7523 C   0  0  0  0  0  0  0  0  0  0  0  0
  -28.8444  -21.4014   18.8095 C   0  0  0  0  0  0  0  0  0  0  0  0
  -23.0474  -28.4475   20.2035 C   0  0  0  0  0  0  0  0  0  0  0  0
  -24.5912  -25.9535   19.8276 C   0  0  0  0  0  0  0  0  0  0  0  0
  -19.6209  -27.4670   24.8391 C   0  0  0  0  0  0  0  0  0  0  0  0
  -26.5541  -19.3841   23.6979 C   0  0  0  0  0  0  0  0  0  0  0  0
  -20.9699  -26.7554   24.8636 C   0  0  0  0  0  0  0  0  0  0  0  0
  -26.8759  -18.0106   23.1107 C   0  0  0  0  0  0  0  0  0  0  0  0
  -26.3006  -20.4147   22.6021 C   0  0  0  0  0  0  0  0  0  0  0  0
  -27.7420  -19.1623   21.0255 C   0  0  0  0  0  0  0  0  0  0  0  0
  -29.1896  -21.6268   20.3259 C   0  0  1  0  0  0  0  0  0  0  0  0
  -22.0862  -27.6712   24.3472 C   0  0  1  0  0  0  0  0  0  0  0  0
  -22.4900  -27.0883   20.6148 C   0  0  1  0  0  0  0  0  0  0  0  0
  -28.0331  -18.0999   22.1001 C   0  0  2  0  0  0  0  0  0  0  0  0
  -23.1269  -22.1971   14.6421 C   0  0  0  0  0  0  0  0  0  0  0  0
  -31.9292  -29.9973   18.9558 C   0  0  0  0  0  0  0  0  0  0  0  0
  -33.0457  -28.3378   20.4770 C   0  0  0  0  0  0  0  0  0  0  0  0
  -23.1420  -22.5579   21.2557 C   0  0  0  0  0  0  0  0  0  0  0  0
  -23.5639  -21.2245   19.1791 C   0  0  0  0  0  0  0  0  0  0  0  0
  -21.2682  -22.0654   19.6744 C   0  0  0  0  0  0  0  0  0  0  0  0
  -23.5409  -25.9777   14.5363 C   0  0  0  0  0  0  0  0  0  0  0  0
  -30.7484  -29.1484   21.0352 C   0  0  0  0  0  0  0  0  0  0  0  0
  -29.3626  -29.6455   20.6248 C   0  0  0  0  0  0  0  0  0  1  0  0
  -23.0544  -23.6972   18.9405 C   0  0  1  0  0  0  0  0  0  0  0  0
  -22.9807  -23.6226   15.1512 C   0  0  2  0  0  0  0  0  0  0  0  0
  -31.7003  -28.7759   19.8635 C   0  0  0  0  0  0  0  0  0  0  0  0
  -22.7704  -22.4110   19.7667 C   0  0  0  0  0  0  0  0  0  0  0  0
  -27.3533  -15.8673   21.3025 N   0  0  0  0  0  0  0  0  0  0  0  0
  -28.3510  -16.7484   21.4874 N   0  0  0  0  0  0  0  0  0  0  0  0
  -27.4070  -20.4506   21.6443 N   0  0  0  0  0  0  0  0  0  0  0  0
  -23.1209  -25.9782   19.8978 N   0  0  0  0  0  0  0  0  0  0  0  0
  -30.6822  -17.0507   21.1959 N   0  0  0  0  0  0  0  0  0  0  0  0
  -29.9655  -12.8834   19.6096 N   0  0  0  0  0  0  0  0  0  0  0  0
  -30.8634  -26.4614   19.8454 N   0  0  0  0  0  0  0  0  0  0  0  0
  -22.0508  -27.7459   22.9023 N   0  0  0  0  0  0  0  0  0  0  0  0
  -22.6870  -23.5962   17.5323 N   0  0  0  0  0  0  0  0  0  0  0  0
  -23.6297  -24.5401   14.1725 N   0  3  0  0  0  0  0  0  0  0  0  0
  -31.5672  -14.4778   19.9983 O   0  0  0  0  0  0  0  0  0  0  0  0
  -27.6915  -22.7427   21.8553 O   0  0  0  0  0  0  0  0  0  0  0  0
  -23.2864  -25.8259   22.4444 O   0  0  0  0  0  0  0  0  0  0  0  0
  -21.0913  -24.8918   19.5282 O   0  0  0  0  0  0  0  0  0  0  0  0
  -24.7971  -24.0515   16.6855 O   0  0  0  0  0  0  0  0  0  0  0  0
  -30.9053  -27.6729   17.8516 O   0  0  0  0  0  0  0  0  0  0  0  0
  -25.0667  -10.2396   19.3920 O   0  0  0  0  0  0  0  0  0  0  0  0
  -28.7023  -28.6052   19.9050 O   0  0  0  0  0  0  0  0  0  1  0  0
  -21.4000   -8.3379   23.0447 F   0  0  0  0  0  0  0  0  0  0  0  0
  -22.9503  -11.8104   20.2263 F   0  0  0  0  0  0  0  0  0  0  0  0
  1  2  1  0  0  0  0
  1  5  2  0  0  0  0
  2  6  2  0  0  0  0
  3 10  2  0  0  0  0
  3 18  1  0  0  0  0
  4 11  1  0  0  0  0
  4 18  2  0  0  0  0
  5 20  1  0  0  0  0
  6 23  1  0  0  0  0
  7  9  2  0  0  0  0
  7 21  1  0  0  0  0
  8 12  2  0  0  0  0
  8 22  1  0  0  0  0
  9 26  1  0  0  0  0
 10 27  1  0  0  0  0
 11 27  2  0  0  0  0
 12 28  1  0  0  0  0
 13 14  2  0  0  0  0
 13 29  1  0  0  0  0
 14 30  1  0  0  0  0
 15 24  1  0  0  0  0
 15 26  2  0  0  0  0
 16 25  1  0  0  0  0
 16 28  2  0  0  0  0
 17 30  2  0  0  0  0
 17 31  1  0  0  0  0
 18 32  1  0  0  0  0
 19 32  1  0  0  0  0
 19 33  2  0  0  0  0
 19 34  1  0  0  0  0
 20 23  2  0  0  0  0
 20 40  1  0  0  0  0
 21 24  2  0  0  0  0
 21 41  1  0  0  0  0
 22 25  2  0  0  0  0
 22 42  1  0  0  0  0
 23 51  1  0  0  0  0
 24 50  1  0  0  0  0
 25 43  1  0  0  0  0
 26 73  1  0  0  0  0
 27 83  1  0  0  0  0
 28 84  1  0  0  0  0
 29 31  2  0  0  0  0
 29 83  1  0  0  0  0
 30 85  1  0  0  0  0
 31 86  1  0  0  0  0
 32 67  2  0  0  0  0
 33 68  1  0  0  0  0
 33 71  1  0  0  0  0
 34 72  1  0  0  0  0
 34 77  2  0  0  0  0
 35 50  1  0  0  0  0
 35 69  1  0  0  0  0
 35 78  2  0  0  0  0
 36 52  1  0  0  0  0
 36 74  1  0  0  0  0
 36 79  2  0  0  0  0
 37 63  1  0  0  0  0
 37 70  1  0  0  0  0
 37 80  2  0  0  0  0
 38 64  1  0  0  0  0
 38 75  1  0  0  0  0
 38 81  2  0  0  0  0
 39 65  1  0  0  0  0
 39 73  1  0  0  0  0
 39 82  2  0  0  0  0
 40 44  1  0  0  0  0
 41 50  1  0  0  0  0
 42 52  1  0  0  0  0
 43 70  1  0  0  0  0
 44 46  1  0  0  0  0
 45 47  1  0  0  0  0
 45 48  1  0  0  0  0
 46 51  1  0  0  0  0
 47 53  1  0  0  0  0
 48 69  1  0  0  0  0
 49 53  1  0  0  0  0
 49 69  1  0  0  0  0
 51 74  1  0  0  0  0
 52 70  1  0  0  0  0
 53 68  1  0  0  0  0
 54 64  1  0  0  0  0
 55 65  1  0  0  0  0
 56 65  1  0  0  0  0
 57 66  1  0  0  0  0
 58 66  1  0  0  0  0
 59 66  1  0  0  0  0
 60 76  1  0  0  0  0
 61 62  1  0  0  0  0
 61 65  1  0  0  0  0
 62 84  1  0  0  0  0
 63 66  1  0  0  0  0
 63 75  1  0  0  0  0
 64 76  1  0  0  0  0
 67 68  1  0  0  0  0
M  CHG  1  76   1
M  ISO  4  35 100  50 100  62 101  84 101
M  END
> <Batch ID>
0146

> <Smiles>
CNC(C)C(=O)NC(C(=O)N1Cc2cc([101O:1][101CH2:1]CC(C)(C)C(=O)Nc3ccc4c(c3)[100CH:0]([100C:0](=O)N3CCCC(n5nc(-c6ccc(Oc7ccc(F)cc7F)cc6)c(C(N)=O)c5N)C3)C4)ccc2CC1C(=O)NC1CCCc2ccccc21)C(C)(C)C

> <Shape>
0.248

> <Color>
0.059

> <Negative vol penalty>
0.000

$$$$

  -OEChem-04052303103D

 86 94  0     1  0  0  0  0  0999 V2000
  -16.6829  -28.5097   23.5262 C   0  0  0  0  0  0  0  0  0  0  0  0
  -17.5698  -28.0437   22.5610 C   0  0  0  0  0  0  0  0  0  0  0  0
  -24.8916  -11.3459   22.3293 C   0  0  0  0  0  0  0  0  0  0  0  0
  -24.4494  -13.2710   23.7205 C   0  0  0  0  0  0  0  0  0  0  0  0
  -17.0506  -29.5679   24.3562 C   0  0  0  0  0  0  0  0  0  0  0  0
  -18.8246  -28.6364   22.4245 C   0  0  0  0  0  0  0  0  0  0  0  0
  -24.0624  -25.8567   20.8935 C   0  0  0  0  0  0  0  0  0  0  0  0
  -25.0186  -10.5516   23.4688 C   0  0  0  0  0  0  0  0  0  0  0  0
  -24.5763  -12.4767   24.8601 C   0  0  0  0  0  0  0  0  0  0  0  0
  -24.7466  -25.7457   19.6838 C   0  0  0  0  0  0  0  0  0  0  0  0
  -22.9684   -9.0372   25.6907 C   0  0  0  0  0  0  0  0  0  0  0  0
  -22.3306   -7.7968   25.6905 C   0  0  0  0  0  0  0  0  0  0  0  0
  -26.1339  -27.6193   20.3037 C   0  0  0  0  0  0  0  0  0  0  0  0
  -28.4662  -21.3996   19.7235 C   0  0  0  0  0  0  0  0  0  0  0  0
  -24.4615   -6.7011   26.0003 C   0  0  0  0  0  0  0  0  0  0  0  0
  -26.9721  -20.9342   21.4420 C   0  0  0  0  0  0  0  0  0  0  0  0
  -24.6071  -12.7057   22.4552 C   0  0  0  0  0  0  0  0  0  0  0  0
  -23.3009  -13.7848   20.5481 C   0  0  0  0  0  0  0  0  0  0  0  0
  -18.3141  -30.1676   24.2363 C   0  0  0  0  0  0  0  0  0  0  0  0
  -24.4021  -26.8584   21.8141 C   0  0  0  0  0  0  0  0  0  0  0  0
  -19.2090  -29.7046   23.2528 C   0  0  0  0  0  0  0  0  0  0  0  0
  -25.4541  -27.7393   21.5254 C   0  0  0  0  0  0  0  0  0  0  0  0
  -27.6729  -20.4127   20.3769 C   0  0  0  0  0  0  0  0  0  0  0  0
  -24.8609  -11.1169   24.7342 C   0  0  0  0  0  0  0  0  0  0  0  0
  -25.7807  -26.6289   19.3875 C   0  0  0  0  0  0  0  0  0  0  0  0
  -24.3528   -9.1097   25.8456 C   0  0  0  0  0  0  0  0  0  0  0  0
  -23.0772   -6.6287   25.8453 C   0  0  0  0  0  0  0  0  0  0  0  0
  -25.0993   -7.9416   26.0004 C   0  0  0  0  0  0  0  0  0  0  0  0
  -24.4764  -13.5269   21.2784 C   0  0  0  0  0  0  0  0  0  0  0  0
  -23.7041  -14.6141   19.5302 C   0  0  0  0  0  0  0  0  0  0  0  0
  -28.3412  -22.6379   20.3141 C   0  0  0  0  0  0  0  0  0  0  0  0
  -21.9640  -13.3168   20.7700 C   0  0  0  0  0  0  0  0  0  0  0  0
  -22.8825  -29.3419   23.0895 C   0  0  0  0  0  0  0  0  0  0  0  0
  -30.3957  -25.3128   18.6565 C   0  0  0  0  0  0  0  0  0  0  0  0
  -25.5787  -29.5766   24.8776 C   0  0  0  0  0  0  0  0  0  0  0  0
  -28.9107  -28.9108   25.1966 C   0  0  0  0  0  0  0  0  0  0  0  0
  -28.2630  -18.4312   18.9377 C   0  0  0  0  0  0  0  0  0  0  0  0
  -18.6487  -31.3397   25.1245 C   0  0  0  0  0  0  0  0  0  0  0  0
  -23.6720  -26.9479   23.1261 C   0  0  0  0  0  0  0  0  0  0  0  0
  -25.8712  -28.8193   22.4888 C   0  0  0  0  0  0  0  0  0  0  0  0
  -20.1391  -31.6670   25.1655 C   0  0  0  0  0  0  0  0  0  0  0  0
  -27.5256  -15.6525   16.8371 C   0  0  0  0  0  0  0  0  0  0  0  0
  -20.7217  -31.6805   23.7558 C   0  0  0  0  0  0  0  0  0  0  0  0
  -26.5483  -14.8186   17.6688 C   0  0  0  0  0  0  0  0  0  0  0  0
  -28.6021  -16.2992   17.7070 C   0  0  0  0  0  0  0  0  0  0  0  0
  -27.1187  -16.2483   19.6732 C   0  0  0  0  0  0  0  0  0  0  0  0
  -20.5884  -30.3053   23.0905 C   0  0  1  0  0  0  0  0  0  0  0  0
  -23.7620  -28.3294   23.7670 C   0  0  1  0  0  0  0  0  0  0  0  0
  -25.9779  -15.6297   18.8488 C   0  0  2  0  0  0  0  0  0  0  0  0
  -30.8494  -29.2606   26.7511 C   0  0  0  0  0  0  0  0  0  0  0  0
  -30.7367  -27.4581   17.3851 C   0  0  0  0  0  0  0  0  0  0  0  0
  -30.7838  -25.2816   16.1765 C   0  0  0  0  0  0  0  0  0  0  0  0
  -25.7721  -32.4858   23.9779 C   0  0  0  0  0  0  0  0  0  0  0  0
  -28.1527  -32.4945   24.7532 C   0  0  0  0  0  0  0  0  0  0  0  0
  -26.3113  -32.1016   26.3896 C   0  0  0  0  0  0  0  0  0  0  0  0
  -29.2993  -25.9987   25.5537 C   0  0  0  0  0  0  0  0  0  0  0  0
  -29.8859  -23.8877   18.8048 C   0  0  0  0  0  0  0  0  0  0  0  0
  -27.8167  -26.9329   18.1966 C   0  0  0  0  0  0  0  0  0  1  0  0
  -26.9015  -30.2888   24.7290 C   0  0  1  0  0  0  0  0  0  0  0  0
  -29.7165  -28.3308   26.3449 C   0  0  2  0  0  0  0  0  0  0  0  0
  -28.5618  -26.1305   17.1275 C   0  0  2  0  0  0  0  0  0  0  0  0
  -30.1041  -26.0559   17.3257 C   0  0  0  0  0  0  0  0  0  0  0  0
  -26.7755  -31.8236   24.9432 C   0  0  0  0  0  0  0  0  0  0  0  0
  -25.5462  -14.1423   20.7678 N   0  0  0  0  0  0  0  0  0  0  0  0
  -25.0445  -14.7951   19.7057 N   0  0  0  0  0  0  0  0  0  0  0  0
  -25.1227  -28.8702   23.7556 N   0  0  0  0  0  0  0  0  0  0  0  0
  -27.9877  -17.0541   18.8013 N   0  0  0  0  0  0  0  0  0  0  0  0
  -23.0394  -15.1988   18.5110 N   0  0  0  0  0  0  0  0  0  0  0  0
  -21.7246  -12.4716   21.8622 N   0  0  0  0  0  0  0  0  0  0  0  0
  -27.5968  -19.0504   19.9947 N   0  0  0  0  0  0  0  0  0  0  0  0
  -28.9765  -23.8060   19.9221 N   0  0  0  0  0  0  0  0  0  0  0  0
  -21.5979  -29.3996   23.5955 N   0  0  0  0  0  0  0  0  0  0  0  0
  -27.8247  -29.6311   25.6473 N   0  0  0  0  0  0  0  0  0  0  0  0
  -30.3033  -27.0177   25.9546 N   0  3  0  0  0  0  0  0  0  0  0  0
  -21.0129  -13.6253   20.0125 O   0  0  0  0  0  0  0  0  0  0  0  0
  -23.3361  -30.0215   22.1762 O   0  0  0  0  0  0  0  0  0  0  0  0
  -31.0434  -25.8519   19.5579 O   0  0  0  0  0  0  0  0  0  0  0  0
  -24.9759  -29.6387   25.9520 O   0  0  0  0  0  0  0  0  0  0  0  0
  -29.2162  -28.7449   24.0178 O   0  0  0  0  0  0  0  0  0  0  0  0
  -29.0119  -19.0237   18.1566 O   0  0  0  0  0  0  0  0  0  0  0  0
  -28.2601  -26.7503   15.8700 O   0  0  0  0  0  0  0  0  0  0  0  0
  -24.9844  -10.3420   25.8463 O   0  0  0  0  0  0  0  0  0  0  0  0
  -26.4498  -26.5233   18.2072 O   0  0  0  0  0  0  0  0  0  1  0  0
  -22.4644   -5.4376   25.8467 F   0  0  0  0  0  0  0  0  0  0  0  0
  -26.4294   -8.0050   26.1508 F   0  0  0  0  0  0  0  0  0  0  0  0
  -27.2714  -22.6073   21.6508 S   0  0  0  0  0  0  0  0  0  0  0  0
  1  2  1  0  0  0  0
  1  5  2  0  0  0  0
  2  6  2  0  0  0  0
  3  8  2  0  0  0  0
  3 17  1  0  0  0  0
  4  9  1  0  0  0  0
  4 17  2  0  0  0  0
  5 19  1  0  0  0  0
  6 21  1  0  0  0  0
  7 10  2  0  0  0  0
  7 20  1  0  0  0  0
  8 24  1  0  0  0  0
  9 24  2  0  0  0  0
 10 25  1  0  0  0  0
 11 12  2  0  0  0  0
 11 26  1  0  0  0  0
 12 27  1  0  0  0  0
 13 22  1  0  0  0  0
 13 25  2  0  0  0  0
 14 23  1  0  0  0  0
 14 31  2  0  0  0  0
 15 27  2  0  0  0  0
 15 28  1  0  0  0  0
 16 23  2  0  0  0  0
 16 86  1  0  0  0  0
 17 29  1  0  0  0  0
 18 29  1  0  0  0  0
 18 30  2  0  0  0  0
 18 32  1  0  0  0  0
 19 21  2  0  0  0  0
 19 38  1  0  0  0  0
 20 22  2  0  0  0  0
 20 39  1  0  0  0  0
 21 47  1  0  0  0  0
 22 40  1  0  0  0  0
 23 70  1  0  0  0  0
 24 82  1  0  0  0  0
 25 83  1  0  0  0  0
 26 28  2  0  0  0  0
 26 82  1  0  0  0  0
 27 84  1  0  0  0  0
 28 85  1  0  0  0  0
 29 64  2  0  0  0  0
 30 65  1  0  0  0  0
 30 68  1  0  0  0  0
 31 71  1  0  0  0  0
 31 86  1  0  0  0  0
 32 69  1  0  0  0  0
 32 75  2  0  0  0  0
 33 48  1  0  0  0  0
 33 72  1  0  0  0  0
 33 76  2  0  0  0  0
 34 57  1  0  0  0  0
 34 62  1  0  0  0  0
 34 77  2  0  0  0  0
 35 59  1  0  0  0  0
 35 66  1  0  0  0  0
 35 78  2  0  0  0  0
 36 60  1  0  0  0  0
 36 73  1  0  0  0  0
 36 79  2  0  0  0  0
 37 67  1  0  0  0  0
 37 70  1  0  0  0  0
 37 80  2  0  0  0  0
 38 41  1  0  0  0  0
 39 48  1  0  0  0  0
 40 66  1  0  0  0  0
 41 43  1  0  0  0  0
 42 44  1  0  0  0  0
 42 45  1  0  0  0  0
 43 47  1  0  0  0  0
 44 49  1  0  0  0  0
 45 67  1  0  0  0  0
 46 49  1  0  0  0  0
 46 67  1  0  0  0  0
 47 72  1  0  0  0  0
 48 66  1  0  0  0  0
 49 65  1  0  0  0  0
 50 60  1  0  0  0  0
 51 62  1  0  0  0  0
 52 62  1  0  0  0  0
 53 63  1  0  0  0  0
 54 63  1  0  0  0  0
 55 63  1  0  0  0  0
 56 74  1  0  0  0  0
 57 71  1  0  0  0  0
 58 61  1  0  0  0  0
 58 83  1  0  0  0  0
 59 63  1  0  0  0  0
 59 73  1  0  0  0  0
 60 74  1  0  0  0  0
 61 62  1  0  0  0  0
 61 81  1  0  0  0  0
 64 65  1  0  0  0  0
M  CHG  1  74   1
M  ISO  4  37 100  58 101  70 100  83 101
M  END
> <Batch ID>
0146

> <Smiles>
CNC(C)C(=O)NC(C(=O)N1Cc2cc([101O:1][101CH2:1]C(O)C(C)(C)C(=O)CNc3cc([100NH:0][100C:0](=O)N4CCCC(n5nc(-c6ccc(Oc7ccc(F)cc7F)cc6)c(C(N)=O)c5N)C4)cs3)ccc2CC1C(=O)NC1CCCc2ccccc21)C(C)(C)C

> <Shape>
0.259

> <Color>
0.064

> <Negative vol penalty>
0.000

$$$$

  -OEChem-04052303103D

 86 95  0     1  0  0  0  0  0999 V2000
  -28.2183  -24.2410   17.4675 C   0  0  0  0  0  0  0  0  0  0  0  0
  -26.9967  -24.5340   18.0653 C   0  0  0  0  0  0  0  0  0  0  0  0
  -30.1351  -17.3420   21.4629 C   0  0  0  0  0  0  0  0  0  0  0  0
  -29.8451  -17.4461   19.0666 C   0  0  0  0  0  0  0  0  0  0  0  0
  -29.3997  -24.7322   18.0214 C   0  0  0  0  0  0  0  0  0  0  0  0
  -26.9560  -25.3175   19.2181 C   0  0  0  0  0  0  0  0  0  0  0  0
  -23.3314  -28.8496   19.0394 C   0  0  0  0  0  0  0  0  0  0  0  0
  -30.8790  -16.1705   21.3220 C   0  0  0  0  0  0  0  0  0  0  0  0
  -30.5891  -16.2746   18.9257 C   0  0  0  0  0  0  0  0  0  0  0  0
  -22.0238  -28.4330   19.2850 C   0  0  0  0  0  0  0  0  0  0  0  0
  -33.8473  -15.3780   18.9418 C   0  0  0  0  0  0  0  0  0  0  0  0
  -34.8197  -15.3458   17.9423 C   0  0  0  0  0  0  0  0  0  0  0  0
  -19.1957  -23.0127   19.7771 C   0  0  0  0  0  0  0  0  0  0  0  0
  -22.1947  -29.2511   21.5479 C   0  0  0  0  0  0  0  0  0  0  0  0
  -16.7921  -23.2677   19.4956 C   0  0  0  0  0  0  0  0  0  0  0  0
  -33.6915  -13.4782   16.9048 C   0  0  0  0  0  0  0  0  0  0  0  0
  -29.6181  -17.9798   20.3352 C   0  0  0  0  0  0  0  0  0  0  0  0
  -29.3348  -20.5110   20.4786 C   0  0  0  0  0  0  0  0  0  0  0  0
  -29.3727  -25.5301   19.1761 C   0  0  0  0  0  0  0  0  0  0  0  0
  -24.0855  -29.4612   20.0512 C   0  0  0  0  0  0  0  0  0  0  0  0
  -28.1383  -25.8187   19.7887 C   0  0  0  0  0  0  0  0  0  0  0  0
  -19.1272  -21.8460   19.0318 C   0  0  0  0  0  0  0  0  0  0  0  0
  -23.5108  -29.6768   21.3119 C   0  0  0  0  0  0  0  0  0  0  0  0
  -17.9049  -21.3980   18.5123 C   0  0  0  0  0  0  0  0  0  0  0  0
  -16.7318  -22.1008   18.7315 C   0  0  0  0  0  0  0  0  0  0  0  0
  -18.0152  -23.7207   20.0140 C   0  0  0  0  0  0  0  0  0  0  0  0
  -31.1060  -15.6369   20.0534 C   0  0  0  0  0  0  0  0  0  0  0  0
  -21.4562  -28.6311   20.5403 C   0  0  0  0  0  0  0  0  0  0  0  0
  -32.7970  -14.4602   18.9229 C   0  0  0  0  0  0  0  0  0  0  0  0
  -34.7417  -14.3960   16.9238 C   0  0  0  0  0  0  0  0  0  0  0  0
  -32.7191  -13.5103   17.9044 C   0  0  0  0  0  0  0  0  0  0  0  0
  -28.8491  -19.1896   20.4802 C   0  0  0  0  0  0  0  0  0  0  0  0
  -28.2152  -21.2885   20.6470 C   0  0  0  0  0  0  0  0  0  0  0  0
  -30.6779  -20.9924   20.3374 C   0  0  0  0  0  0  0  0  0  0  0  0
  -26.7829  -28.7543   21.5770 C   0  0  0  0  0  0  0  0  0  0  0  0
  -26.3558  -31.6921   22.8843 C   0  0  0  0  0  0  0  0  0  0  0  0
  -19.1675  -25.5124   21.3579 C   0  0  0  0  0  0  0  0  0  0  0  0
  -24.2055  -34.2084   23.7159 C   0  0  0  0  0  0  0  0  0  0  0  0
  -22.5366  -20.3435   19.3373 C   0  0  0  0  0  0  0  0  0  0  0  0
  -30.6795  -25.9990   19.7652 C   0  0  0  0  0  0  0  0  0  0  0  0
  -25.4856  -29.9289   19.7623 C   0  0  0  0  0  0  0  0  0  0  0  0
  -18.0913  -20.1556   17.6984 C   0  0  0  0  0  0  0  0  0  0  0  0
  -24.2711  -30.3470   22.4259 C   0  0  0  0  0  0  0  0  0  0  0  0
  -30.5205  -27.1332   20.7745 C   0  0  0  0  0  0  0  0  0  0  0  0
  -19.4605  -19.6736   18.2024 C   0  0  0  0  0  0  0  0  0  0  0  0
  -23.8477  -21.1911   22.6022 C   0  0  0  0  0  0  0  0  0  0  0  0
  -29.3936  -26.8218   21.7543 C   0  0  0  0  0  0  0  0  0  0  0  0
  -25.3371  -20.8947   22.4182 C   0  0  0  0  0  0  0  0  0  0  0  0
  -22.9858  -20.1743   21.8596 C   0  0  0  0  0  0  0  0  0  0  0  0
  -24.7775  -19.7581   20.2194 C   0  0  0  0  0  0  0  0  0  0  0  0
  -28.0511  -26.6858   21.0259 C   0  0  1  0  0  0  0  0  0  0  0  0
  -20.2420  -20.9378   18.6034 C   0  0  2  0  0  0  0  0  0  0  0  0
  -26.3376  -30.0765   21.0192 C   0  0  1  0  0  0  0  0  0  0  0  0
  -25.7025  -20.7644   20.9277 C   0  0  2  0  0  0  0  0  0  0  0  0
  -15.4319  -21.6412   18.1686 C   0  0  0  0  0  0  0  0  0  0  0  0
  -24.1443  -36.4670   24.8079 C   0  0  0  0  0  0  0  0  0  0  0  0
  -26.6043  -30.3716   25.6237 C   0  0  0  0  0  0  0  0  0  0  0  0
  -25.6084  -32.4356   26.6318 C   0  0  0  0  0  0  0  0  0  0  0  0
  -27.7814  -32.5682   25.4138 C   0  0  0  0  0  0  0  0  0  0  0  0
  -23.2094  -35.5032   21.2480 C   0  0  0  0  0  0  0  0  0  0  0  0
  -18.7646  -26.7856   22.0932 C   0  0  0  0  0  0  0  0  0  0  0  0
  -19.8658  -27.8347   22.1190 C   0  0  0  0  0  0  0  0  0  1  0  0
  -25.6456  -32.2262   24.1048 C   0  0  1  0  0  0  0  0  0  0  0  0
  -24.2777  -35.7088   23.4964 C   0  0  2  0  0  0  0  0  0  0  0  0
  -26.3960  -31.8860   25.4233 C   0  0  0  0  0  0  0  0  0  0  0  0
  -27.5242  -19.1275   20.6373 N   0  0  0  0  0  0  0  0  0  0  0  0
  -27.1678  -20.4195   20.7361 N   0  0  0  0  0  0  0  0  0  0  0  0
  -25.6388  -30.7808   22.0962 N   0  0  0  0  0  0  0  0  0  0  0  0
  -23.3719  -20.1124   20.4429 N   0  0  0  0  0  0  0  0  0  0  0  0
  -28.0343  -22.6240   20.7262 N   0  0  0  0  0  0  0  0  0  0  0  0
  -31.7090  -20.0575   20.1728 N   0  0  0  0  0  0  0  0  0  0  0  0
  -18.0537  -24.9121   20.7768 N   0  0  0  0  0  0  0  0  0  0  0  0
  -27.5220  -27.9911   20.6934 N   0  0  0  0  0  0  0  0  0  0  0  0
  -25.4582  -33.6547   23.8755 N   0  0  0  0  0  0  0  0  0  0  0  0
  -21.2184  -20.6669   19.6349 N   0  0  0  0  0  0  0  0  0  0  0  0
  -23.1857  -36.1520   22.5842 N   0  3  0  0  0  0  0  0  0  0  0  0
  -30.9575  -22.2148   20.3732 O   0  0  0  0  0  0  0  0  0  0  0  0
  -26.4798  -28.4498   22.7246 O   0  0  0  0  0  0  0  0  0  0  0  0
  -27.5016  -32.0751   22.6355 O   0  0  0  0  0  0  0  0  0  0  0  0
  -20.3292  -25.1208   21.3190 O   0  0  0  0  0  0  0  0  0  0  0  0
  -23.1438  -33.5901   23.7466 O   0  0  0  0  0  0  0  0  0  0  0  0
  -22.9372  -20.2722   18.1705 O   0  0  0  0  0  0  0  0  0  0  0  0
  -31.8320  -14.4939   19.9156 O   0  0  0  0  0  0  0  0  0  0  0  0
  -20.1803  -28.2249   20.7828 O   0  0  0  0  0  0  0  0  0  1  0  0
  -35.6747  -14.3663   15.9631 F   0  0  0  0  0  0  0  0  0  0  0  0
  -31.7118  -12.6268   17.8803 F   0  0  0  0  0  0  0  0  0  0  0  0
  1  2  1  0  0  0  0
  1  5  2  0  0  0  0
  2  6  2  0  0  0  0
  3  8  2  0  0  0  0
  3 17  1  0  0  0  0
  4  9  1  0  0  0  0
  4 17  2  0  0  0  0
  5 19  1  0  0  0  0
  6 21  1  0  0  0  0
  7 10  2  0  0  0  0
  7 20  1  0  0  0  0
  8 27  1  0  0  0  0
  9 27  2  0  0  0  0
 10 28  1  0  0  0  0
 11 12  2  0  0  0  0
 11 29  1  0  0  0  0
 12 30  1  0  0  0  0
 13 22  1  0  0  0  0
 13 26  2  0  0  0  0
 14 23  1  0  0  0  0
 14 28  2  0  0  0  0
 15 25  2  0  0  0  0
 15 26  1  0  0  0  0
 16 30  2  0  0  0  0
 16 31  1  0  0  0  0
 17 32  1  0  0  0  0
 18 32  1  0  0  0  0
 18 33  2  0  0  0  0
 18 34  1  0  0  0  0
 19 21  2  0  0  0  0
 19 40  1  0  0  0  0
 20 23  2  0  0  0  0
 20 41  1  0  0  0  0
 21 51  1  0  0  0  0
 22 24  2  0  0  0  0
 22 52  1  0  0  0  0
 23 43  1  0  0  0  0
 24 25  1  0  0  0  0
 24 42  1  0  0  0  0
 25 55  1  0  0  0  0
 26 72  1  0  0  0  0
 27 83  1  0  0  0  0
 28 84  1  0  0  0  0
 29 31  2  0  0  0  0
 29 83  1  0  0  0  0
 30 85  1  0  0  0  0
 31 86  1  0  0  0  0
 32 66  2  0  0  0  0
 33 67  1  0  0  0  0
 33 70  1  0  0  0  0
 34 71  1  0  0  0  0
 34 77  2  0  0  0  0
 35 53  1  0  0  0  0
 35 73  1  0  0  0  0
 35 78  2  0  0  0  0
 36 63  1  0  0  0  0
 36 68  1  0  0  0  0
 36 79  2  0  0  0  0
 37 61  1  0  0  0  0
 37 72  1  0  0  0  0
 37 80  2  0  0  0  0
 38 64  1  0  0  0  0
 38 74  1  0  0  0  0
 38 81  2  0  0  0  0
 39 69  1  0  0  0  0
 39 75  1  0  0  0  0
 39 82  2  0  0  0  0
 40 44  1  0  0  0  0
 41 53  1  0  0  0  0
 42 45  1  0  0  0  0
 43 68  1  0  0  0  0
 44 47  1  0  0  0  0
 45 52  1  0  0  0  0
 46 48  1  0  0  0  0
 46 49  1  0  0  0  0
 47 51  1  0  0  0  0
 48 54  1  0  0  0  0
 49 69  1  0  0  0  0
 50 54  1  0  0  0  0
 50 69  1  0  0  0  0
 51 73  1  0  0  0  0
 52 75  1  0  0  0  0
 53 68  1  0  0  0  0
 54 67  1  0  0  0  0
 56 64  1  0  0  0  0
 57 65  1  0  0  0  0
 58 65  1  0  0  0  0
 59 65  1  0  0  0  0
 60 76  1  0  0  0  0
 61 62  1  0  0  0  0
 62 84  1  0  0  0  0
 63 65  1  0  0  0  0
 63 74  1  0  0  0  0
 64 76  1  0  0  0  0
 66 67  1  0  0  0  0
M  CHG  1  76   1
M  ISO  4  39 100  62 101  75 100  84 101
M  END
> <Batch ID>
0146

> <Smiles>
CNC(C)C(=O)NC(C(=O)N1Cc2cc([101O:1][101CH2:1]CC(=O)Nc3cc(C)c4c(c3)C([100NH:0][100C:0](=O)N3CCCC(n5nc(-c6ccc(Oc7ccc(F)cc7F)cc6)c(C(N)=O)c5N)C3)CC4)ccc2CC1C(=O)NC1CCCc2ccccc21)C(C)(C)C

> <Shape>
0.278

> <Color>
0.068

> <Negative vol penalty>
0.000

$$$$

  -OEChem-04052303103D

 89 98  0     1  0  0  0  0  0999 V2000
  -28.2316  -25.0987   16.3165 C   0  0  0  0  0  0  0  0  0  0  0  0
  -27.0635  -25.1959   17.0658 C   0  0  0  0  0  0  0  0  0  0  0  0
  -25.6858  -13.6035   20.9174 C   0  0  0  0  0  0  0  0  0  0  0  0
  -27.2225  -12.7811   19.2443 C   0  0  0  0  0  0  0  0  0  0  0  0
  -29.4169  -25.6505   16.8007 C   0  0  0  0  0  0  0  0  0  0  0  0
  -27.0803  -25.8439   18.3004 C   0  0  0  0  0  0  0  0  0  0  0  0
  -23.1441  -28.9720   18.9061 C   0  0  0  0  0  0  0  0  0  0  0  0
  -25.3599  -12.2921   21.2628 C   0  0  0  0  0  0  0  0  0  0  0  0
  -26.8966  -11.4695   19.5898 C   0  0  0  0  0  0  0  0  0  0  0  0
  -21.9175  -28.3959   19.2333 C   0  0  0  0  0  0  0  0  0  0  0  0
  -23.4138   -9.8081   20.0517 C   0  0  0  0  0  0  0  0  0  0  0  0
  -22.0643   -9.5004   20.2240 C   0  0  0  0  0  0  0  0  0  0  0  0
  -23.0413  -23.2085   21.4038 C   0  0  0  0  0  0  0  0  0  0  0  0
  -21.2401  -22.8682   19.8020 C   0  0  0  0  0  0  0  0  0  0  0  0
  -22.2659  -28.9828   21.5470 C   0  0  0  0  0  0  0  0  0  0  0  0
  -22.5037   -8.8536   22.5100 C   0  0  0  0  0  0  0  0  0  0  0  0
  -26.6171  -13.8481   19.9081 C   0  0  0  0  0  0  0  0  0  0  0  0
  -23.8184  -22.2308   20.7788 C   0  0  0  0  0  0  0  0  0  0  0  0
  -27.9776  -15.9975   20.0998 C   0  0  0  0  0  0  0  0  0  0  0  0
  -29.4461  -26.3141   18.0374 C   0  0  0  0  0  0  0  0  0  0  0  0
  -23.9473  -29.5492   19.9002 C   0  0  0  0  0  0  0  0  0  0  0  0
  -28.2674  -26.4039   18.8022 C   0  0  0  0  0  0  0  0  0  0  0  0
  -22.0188  -21.9024   19.1893 C   0  0  0  0  0  0  0  0  0  0  0  0
  -23.5012  -29.5678   21.2294 C   0  0  0  0  0  0  0  0  0  0  0  0
  -23.2931  -21.5882   19.6717 C   0  0  0  0  0  0  0  0  0  0  0  0
  -21.7615  -23.5247   20.9191 C   0  0  0  0  0  0  0  0  0  0  0  0
  -25.9653  -11.2250   20.5990 C   0  0  0  0  0  0  0  0  0  0  0  0
  -21.4795  -28.3986   20.5544 C   0  0  0  0  0  0  0  0  0  0  0  0
  -24.3083   -9.6385   21.1085 C   0  0  0  0  0  0  0  0  0  0  0  0
  -21.6092   -9.0231   21.4532 C   0  0  0  0  0  0  0  0  0  0  0  0
  -23.8533   -9.1613   22.3376 C   0  0  0  0  0  0  0  0  0  0  0  0
  -26.9537  -15.2026   19.5504 C   0  0  0  0  0  0  0  0  0  0  0  0
  -27.8845  -17.1909   19.4263 C   0  0  0  0  0  0  0  0  0  0  0  0
  -25.1393  -21.9060   21.2916 C   0  0  0  0  0  0  0  0  0  0  0  0
  -28.9279  -15.6849   21.1269 C   0  0  0  0  0  0  0  0  0  0  0  0
  -26.8542  -28.9736   21.0501 C   0  0  0  0  0  0  0  0  0  0  0  0
  -26.3045  -31.6944   22.7285 C   0  0  0  0  0  0  0  0  0  0  0  0
  -24.0361  -33.8669   24.0632 C   0  0  0  0  0  0  0  0  0  0  0  0
  -19.7153  -24.9627   21.2385 C   0  0  0  0  0  0  0  0  0  0  0  0
  -23.1425  -19.6500   16.5480 C   0  0  0  0  0  0  0  0  0  0  0  0
  -30.7615  -26.8533   18.5411 C   0  0  0  0  0  0  0  0  0  0  0  0
  -25.2557  -30.1903   19.5268 C   0  0  0  0  0  0  0  0  0  0  0  0
  -21.6991  -21.0727   17.9919 C   0  0  0  0  0  0  0  0  0  0  0  0
  -24.3166  -30.1927   22.3309 C   0  0  0  0  0  0  0  0  0  0  0  0
  -23.9072  -20.5029   18.8485 C   0  0  0  0  0  0  0  0  0  0  0  0
  -30.6123  -27.8509   19.6869 C   0  0  0  0  0  0  0  0  0  0  0  0
  -26.5075  -19.0317   15.2239 C   0  0  0  0  0  0  0  0  0  0  0  0
  -29.6376  -27.3199   20.7333 C   0  0  0  0  0  0  0  0  0  0  0  0
  -27.0736  -18.0129   16.2156 C   0  0  0  0  0  0  0  0  0  0  0  0
  -24.9910  -18.9153   15.0846 C   0  0  0  0  0  0  0  0  0  0  0  0
  -24.8188  -17.9350   17.3376 C   0  0  0  0  0  0  0  0  0  0  0  0
  -28.2399  -27.1208   20.1347 C   0  0  1  0  0  0  0  0  0  0  0  0
  -26.2268  -30.2929   20.6989 C   0  0  1  0  0  0  0  0  0  0  0  0
  -26.3300  -18.0733   17.5639 C   0  0  1  0  0  0  0  0  0  0  0  0
  -25.9832  -22.9646   22.0019 C   0  0  0  0  0  0  0  0  0  0  0  0
  -23.8877  -35.9776   25.4122 C   0  0  0  0  0  0  0  0  0  0  0  0
  -19.1211  -25.5238   23.6238 C   0  0  0  0  0  0  0  0  0  0  0  0
  -17.7915  -26.5378   21.7368 C   0  0  0  0  0  0  0  0  0  0  0  0
  -26.9839  -30.1245   25.2551 C   0  0  0  0  0  0  0  0  0  0  0  0
  -25.9196  -31.9531   26.5937 C   0  0  0  0  0  0  0  0  0  0  0  0
  -27.9189  -32.4430   25.1845 C   0  0  0  0  0  0  0  0  0  0  0  0
  -22.6504  -35.3035   21.8780 C   0  0  0  0  0  0  0  0  0  0  0  0
  -20.1599  -27.2756   22.1833 C   0  0  0  0  0  0  0  0  0  1  0  0
  -25.6902  -32.0180   24.0689 C   0  0  1  0  0  0  0  0  0  0  0  0
  -23.9422  -35.3812   24.0144 C   0  0  2  0  0  0  0  0  0  0  0  0
  -19.1874  -26.0721   22.1874 C   0  0  0  0  0  0  0  0  0  0  0  0
  -26.6134  -31.6211   25.2553 C   0  0  0  0  0  0  0  0  0  0  0  0
  -26.2610  -15.8377   18.6013 N   0  0  0  0  0  0  0  0  0  0  0  0
  -25.6611  -20.7088   21.1537 N   0  0  0  0  0  0  0  0  0  0  0  0
  -26.8506  -17.0442   18.5490 N   0  0  0  0  0  0  0  0  0  0  0  0
  -25.5915  -30.8011   21.9164 N   0  0  0  0  0  0  0  0  0  0  0  0
  -22.9133  -20.2672   17.7803 N   0  0  0  0  0  0  0  0  0  0  0  0
  -24.3450  -18.9529   16.3956 N   0  0  0  0  0  0  0  0  0  0  0  0
  -28.5869  -18.3411   19.5051 N   0  0  0  0  0  0  0  0  0  0  0  0
  -28.8839  -14.4126   21.7130 N   0  0  0  0  0  0  0  0  0  0  0  0
  -21.0031  -24.5045   21.5618 N   0  0  0  0  0  0  0  0  0  0  0  0
  -27.5568  -28.3908   20.0126 N   0  0  0  0  0  0  0  0  0  0  0  0
  -25.3451  -33.4349   24.0285 N   0  0  0  0  0  0  0  0  0  0  0  0
  -22.7174  -35.8007   23.2763 N   0  3  0  0  0  0  0  0  0  0  0  0
  -29.7799  -16.5151   21.5248 O   0  0  0  0  0  0  0  0  0  0  0  0
  -26.7127  -28.5187   22.1791 O   0  0  0  0  0  0  0  0  0  0  0  0
  -27.3740  -32.2206   22.4106 O   0  0  0  0  0  0  0  0  0  0  0  0
  -23.0473  -33.1400   24.1295 O   0  0  0  0  0  0  0  0  0  0  0  0
  -19.0368  -24.5589   20.2958 O   0  0  0  0  0  0  0  0  0  0  0  0
  -22.3403  -19.7623   15.6122 O   0  0  0  0  0  0  0  0  0  0  0  0
  -25.6477   -9.9451   20.9360 O   0  0  0  0  0  0  0  0  0  0  0  0
  -20.2750  -27.8327   20.8787 O   0  0  0  0  0  0  0  0  0  1  0  0
  -20.3130   -8.7292   21.6190 F   0  0  0  0  0  0  0  0  0  0  0  0
  -24.7077   -8.9974   23.3569 F   0  0  0  0  0  0  0  0  0  0  0  0
  1  2  1  0  0  0  0
  1  5  2  0  0  0  0
  2  6  2  0  0  0  0
  3  8  2  0  0  0  0
  3 17  1  0  0  0  0
  4  9  1  0  0  0  0
  4 17  2  0  0  0  0
  5 20  1  0  0  0  0
  6 22  1  0  0  0  0
  7 10  2  0  0  0  0
  7 21  1  0  0  0  0
  8 27  1  0  0  0  0
  9 27  2  0  0  0  0
 10 28  1  0  0  0  0
 11 12  2  0  0  0  0
 11 29  1  0  0  0  0
 12 30  1  0  0  0  0
 13 18  1  0  0  0  0
 13 26  2  0  0  0  0
 14 23  2  0  0  0  0
 14 26  1  0  0  0  0
 15 24  1  0  0  0  0
 15 28  2  0  0  0  0
 16 30  2  0  0  0  0
 16 31  1  0  0  0  0
 17 32  1  0  0  0  0
 18 25  2  0  0  0  0
 18 34  1  0  0  0  0
 19 32  1  0  0  0  0
 19 33  2  0  0  0  0
 19 35  1  0  0  0  0
 20 22  2  0  0  0  0
 20 41  1  0  0  0  0
 21 24  2  0  0  0  0
 21 42  1  0  0  0  0
 22 52  1  0  0  0  0
 23 25  1  0  0  0  0
 23 43  1  0  0  0  0
 24 44  1  0  0  0  0
 25 45  1  0  0  0  0
 26 76  1  0  0  0  0
 27 86  1  0  0  0  0
 28 87  1  0  0  0  0
 29 31  2  0  0  0  0
 29 86  1  0  0  0  0
 30 88  1  0  0  0  0
 31 89  1  0  0  0  0
 32 68  2  0  0  0  0
 33 70  1  0  0  0  0
 33 74  1  0  0  0  0
 34 55  1  0  0  0  0
 34 69  2  0  0  0  0
 35 75  1  0  0  0  0
 35 80  2  0  0  0  0
 36 53  1  0  0  0  0
 36 77  1  0  0  0  0
 36 81  2  0  0  0  0
 37 64  1  0  0  0  0
 37 71  1  0  0  0  0
 37 82  2  0  0  0  0
 38 65  1  0  0  0  0
 38 78  1  0  0  0  0
 38 83  2  0  0  0  0
 39 66  1  0  0  0  0
 39 76  1  0  0  0  0
 39 84  2  0  0  0  0
 40 72  1  0  0  0  0
 40 73  1  0  0  0  0
 40 85  2  0  0  0  0
 41 46  1  0  0  0  0
 42 53  1  0  0  0  0
 43 72  1  0  0  0  0
 44 71  1  0  0  0  0
 45 72  1  0  0  0  0
 46 48  1  0  0  0  0
 47 49  1  0  0  0  0
 47 50  1  0  0  0  0
 48 52  1  0  0  0  0
 49 54  1  0  0  0  0
 50 73  1  0  0  0  0
 51 54  1  0  0  0  0
 51 73  1  0  0  0  0
 52 77  1  0  0  0  0
 53 71  1  0  0  0  0
 54 70  1  0  0  0  0
 56 65  1  0  0  0  0
 57 66  1  0  0  0  0
 58 66  1  0  0  0  0
 59 67  1  0  0  0  0
 60 67  1  0  0  0  0
 61 67  1  0  0  0  0
 62 79  1  0  0  0  0
 63 66  1  0  0  0  0
 63 87  1  0  0  0  0
 64 67  1  0  0  0  0
 64 78  1  0  0  0  0
 65 79  1  0  0  0  0
 68 70  1  0  0  0  0
M  CHG  1  79   1
M  ISO  4  40 100  63 101  72 100  87 101
M  END
> <Batch ID>
0146

> <Smiles>
CNC(C)C(=O)NC(C(=O)N1Cc2cc([101O:1][101CH2:1]C(C)(C)C(=O)Nc3cc4c(c(C(C)=N)c3)C[100N:0]([100C:0](=O)N3CCCC(n5nc(-c6ccc(Oc7ccc(F)cc7F)cc6)c(C(N)=O)c5N)C3)C4)ccc2CC1C(=O)NC1CCCc2ccccc21)C(C)(C)C

> <Shape>
0.300

> <Color>
0.077

> <Negative vol penalty>
0.000

$$$$

  -OEChem-04052303103D

 87 96  0     1  0  0  0  0  0999 V2000
  -19.8907  -34.4175   22.4573 C   0  0  0  0  0  0  0  0  0  0  0  0
  -21.1776  -34.0268   22.1012 C   0  0  0  0  0  0  0  0  0  0  0  0
  -23.3537  -15.2455   20.9238 C   0  0  0  0  0  0  0  0  0  0  0  0
  -24.5499  -14.0861   22.6736 C   0  0  0  0  0  0  0  0  0  0  0  0
  -19.0850  -33.5600   23.2053 C   0  0  0  0  0  0  0  0  0  0  0  0
  -21.6599  -32.7787   22.4939 C   0  0  0  0  0  0  0  0  0  0  0  0
  -25.4491  -29.1396   19.3469 C   0  0  0  0  0  0  0  0  0  0  0  0
  -22.5590  -14.1176   20.7196 C   0  0  0  0  0  0  0  0  0  0  0  0
  -23.7551  -12.9581   22.4695 C   0  0  0  0  0  0  0  0  0  0  0  0
  -26.8250  -28.9277   19.4232 C   0  0  0  0  0  0  0  0  0  0  0  0
  -22.2811   -9.6498   22.1655 C   0  0  0  0  0  0  0  0  0  0  0  0
  -22.9166   -8.4092   22.1166 C   0  0  0  0  0  0  0  0  0  0  0  0
  -26.4450  -27.0077   20.8334 C   0  0  0  0  0  0  0  0  0  0  0  0
  -28.0072  -24.3791   15.9887 C   0  0  0  0  0  0  0  0  0  0  0  0
  -29.0694  -23.1253   17.7848 C   0  0  0  0  0  0  0  0  0  0  0  0
  -24.2212   -9.1520   20.2236 C   0  0  0  0  0  0  0  0  0  0  0  0
  -24.3492  -15.2298   21.9007 C   0  0  0  0  0  0  0  0  0  0  0  0
  -24.9198  -17.4638   22.9922 C   0  0  0  0  0  0  0  0  0  0  0  0
  -19.5541  -32.2969   23.5991 C   0  0  0  0  0  0  0  0  0  0  0  0
  -24.5599  -28.2921   20.0233 C   0  0  0  0  0  0  0  0  0  0  0  0
  -20.8601  -31.9041   23.2490 C   0  0  0  0  0  0  0  0  0  0  0  0
  -25.0582  -27.2095   20.7619 C   0  0  0  0  0  0  0  0  0  0  0  0
  -27.6608  -22.0214   16.1557 C   0  0  0  0  0  0  0  0  0  0  0  0
  -27.4205  -23.2146   15.4926 C   0  0  0  0  0  0  0  0  0  0  0  0
  -28.4780  -21.9737   17.2865 C   0  0  0  0  0  0  0  0  0  0  0  0
  -28.8259  -24.3343   17.1265 C   0  0  0  0  0  0  0  0  0  0  0  0
  -22.7597  -12.9739   21.4925 C   0  0  0  0  0  0  0  0  0  0  0  0
  -27.3233  -27.8634   20.1689 C   0  0  0  0  0  0  0  0  0  0  0  0
  -22.6155  -10.6416   21.2433 C   0  0  0  0  0  0  0  0  0  0  0  0
  -23.8867   -8.1603   21.1457 C   0  0  0  0  0  0  0  0  0  0  0  0
  -23.5856  -10.3927   20.2724 C   0  0  0  0  0  0  0  0  0  0  0  0
  -25.1709  -16.3945   22.1117 C   0  0  0  0  0  0  0  0  0  0  0  0
  -25.9897  -18.3079   22.8212 C   0  0  0  0  0  0  0  0  0  0  0  0
  -23.8179  -17.6752   23.8849 C   0  0  0  0  0  0  0  0  0  0  0  0
  -22.4138  -28.6783   22.3360 C   0  0  0  0  0  0  0  0  0  0  0  0
  -21.7227  -25.5779   21.6789 C   0  0  0  0  0  0  0  0  0  0  0  0
  -22.7619  -22.5830   20.4149 C   0  0  0  0  0  0  0  0  0  0  0  0
  -30.2421  -25.6794   18.7209 C   0  0  0  0  0  0  0  0  0  0  0  0
  -29.5317  -20.1971   18.6691 C   0  0  0  0  0  0  0  0  0  0  0  0
  -18.6636  -31.4237   24.4471 C   0  0  0  0  0  0  0  0  0  0  0  0
  -23.0772  -28.5183   19.9091 C   0  0  0  0  0  0  0  0  0  0  0  0
  -27.1923  -20.6571   15.7643 C   0  0  0  0  0  0  0  0  0  0  0  0
  -24.1447  -26.2587   21.4900 C   0  0  0  0  0  0  0  0  0  0  0  0
  -19.1149  -29.9665   24.5039 C   0  0  0  0  0  0  0  0  0  0  0  0
  -30.5749  -17.8430   21.0849 C   0  0  0  0  0  0  0  0  0  0  0  0
  -20.6154  -29.8821   24.7648 C   0  0  0  0  0  0  0  0  0  0  0  0
  -29.2712  -17.3011   21.6651 C   0  0  0  0  0  0  0  0  0  0  0  0
  -27.6177  -19.8232   16.9795 C   0  0  0  0  0  0  0  0  0  0  0  0
  -30.4400  -18.0854   19.5877 C   0  0  0  0  0  0  0  0  0  0  0  0
  -28.0087  -18.5261   19.8209 C   0  0  0  0  0  0  0  0  0  0  0  0
  -21.4101  -30.5481   23.6350 C   0  0  1  0  0  0  0  0  0  0  0  0
  -22.2880  -27.8983   21.0580 C   0  0  1  0  0  0  0  0  0  0  0  0
  -28.0997  -18.2387   21.3338 C   0  0  1  0  0  0  0  0  0  0  0  0
  -26.5676  -23.2682   14.2727 C   0  0  0  0  0  0  0  0  0  0  0  0
  -21.9881  -20.2239   20.0496 C   0  0  0  0  0  0  0  0  0  0  0  0
  -31.4713  -27.6407   17.7208 C   0  0  0  0  0  0  0  0  0  0  0  0
  -31.5746  -27.2421   20.2083 C   0  0  0  0  0  0  0  0  0  0  0  0
  -22.1201  -24.9907   24.6465 C   0  0  0  0  0  0  0  0  0  0  0  0
  -22.2791  -22.5588   24.0727 C   0  0  0  0  0  0  0  0  0  0  0  0
  -20.1759  -23.8148   23.6017 C   0  0  0  0  0  0  0  0  0  0  0  0
  -23.0740  -22.8119   17.4807 C   0  0  0  0  0  0  0  0  0  0  0  0
  -29.4505  -28.0567   19.1232 C   0  0  0  0  0  0  0  0  0  1  0  0
  -22.2205  -24.2427   22.1774 C   0  0  1  0  0  0  0  0  0  0  0  0
  -22.1045  -21.6154   19.4473 C   0  0  2  0  0  0  0  0  0  0  0  0
  -30.6907  -27.1474   18.9520 C   0  0  0  0  0  0  0  0  0  0  0  0
  -21.7165  -23.9206   23.6126 C   0  0  0  0  0  0  0  0  0  0  0  0
  -26.3108  -16.5433   21.4317 N   0  0  0  0  0  0  0  0  0  0  0  0
  -26.7855  -17.7160   21.8849 N   0  0  0  0  0  0  0  0  0  0  0  0
  -28.5593  -20.6498   17.7747 N   0  0  0  0  0  0  0  0  0  0  0  0
  -22.7033  -26.5255   21.3530 N   0  0  0  0  0  0  0  0  0  0  0  0
  -29.3036  -18.9541   19.2779 N   0  0  0  0  0  0  0  0  0  0  0  0
  -26.3180  -19.4912   23.3818 N   0  0  0  0  0  0  0  0  0  0  0  0
  -22.8045  -16.7084   23.9360 N   0  0  0  0  0  0  0  0  0  0  0  0
  -29.4013  -25.5114   17.6085 N   0  0  0  0  0  0  0  0  0  0  0  0
  -21.4714  -29.6788   22.4796 N   0  0  0  0  0  0  0  0  0  0  0  0
  -21.8297  -23.2602   21.1723 N   0  0  0  0  0  0  0  0  0  0  0  0
  -22.9001  -21.5187   18.1909 N   0  3  0  0  0  0  0  0  0  0  0  0
  -23.7263  -18.6993   24.6035 O   0  0  0  0  0  0  0  0  0  0  0  0
  -23.2992  -28.3927   23.1335 O   0  0  0  0  0  0  0  0  0  0  0  0
  -20.5087  -25.7704   21.5754 O   0  0  0  0  0  0  0  0  0  0  0  0
  -23.9805  -22.7213   20.4936 O   0  0  0  0  0  0  0  0  0  0  0  0
  -30.6067  -24.7788   19.4746 O   0  0  0  0  0  0  0  0  0  0  0  0
  -30.5833  -20.8163   18.8727 O   0  0  0  0  0  0  0  0  0  0  0  0
  -21.9842  -11.8731   21.2937 O   0  0  0  0  0  0  0  0  0  0  0  0
  -28.6747  -27.6533   20.2461 O   0  0  0  0  0  0  0  0  0  1  0  0
  -24.4981   -6.9693   21.0998 F   0  0  0  0  0  0  0  0  0  0  0  0
  -23.9119  -11.3420   19.3846 F   0  0  0  0  0  0  0  0  0  0  0  0
  1  2  1  0  0  0  0
  1  5  2  0  0  0  0
  2  6  2  0  0  0  0
  3  8  2  0  0  0  0
  3 17  1  0  0  0  0
  4  9  1  0  0  0  0
  4 17  2  0  0  0  0
  5 19  1  0  0  0  0
  6 21  1  0  0  0  0
  7 10  2  0  0  0  0
  7 20  1  0  0  0  0
  8 27  1  0  0  0  0
  9 27  2  0  0  0  0
 10 28  1  0  0  0  0
 11 12  2  0  0  0  0
 11 29  1  0  0  0  0
 12 30  1  0  0  0  0
 13 22  1  0  0  0  0
 13 28  2  0  0  0  0
 14 24  2  0  0  0  0
 14 26  1  0  0  0  0
 15 25  1  0  0  0  0
 15 26  2  0  0  0  0
 16 30  2  0  0  0  0
 16 31  1  0  0  0  0
 17 32  1  0  0  0  0
 18 32  1  0  0  0  0
 18 33  2  0  0  0  0
 18 34  1  0  0  0  0
 19 21  2  0  0  0  0
 19 40  1  0  0  0  0
 20 22  2  0  0  0  0
 20 41  1  0  0  0  0
 21 51  1  0  0  0  0
 22 43  1  0  0  0  0
 23 24  1  0  0  0  0
 23 25  2  0  0  0  0
 23 42  1  0  0  0  0
 24 54  1  0  0  0  0
 25 69  1  0  0  0  0
 26 74  1  0  0  0  0
 27 84  1  0  0  0  0
 28 85  1  0  0  0  0
 29 31  2  0  0  0  0
 29 84  1  0  0  0  0
 30 86  1  0  0  0  0
 31 87  1  0  0  0  0
 32 67  2  0  0  0  0
 33 68  1  0  0  0  0
 33 72  1  0  0  0  0
 34 73  1  0  0  0  0
 34 78  2  0  0  0  0
 35 52  1  0  0  0  0
 35 75  1  0  0  0  0
 35 79  2  0  0  0  0
 36 63  1  0  0  0  0
 36 70  1  0  0  0  0
 36 80  2  0  0  0  0
 37 64  1  0  0  0  0
 37 76  1  0  0  0  0
 37 81  2  0  0  0  0
 38 65  1  0  0  0  0
 38 74  1  0  0  0  0
 38 82  2  0  0  0  0
 39 69  1  0  0  0  0
 39 71  1  0  0  0  0
 39 83  2  0  0  0  0
 40 44  1  0  0  0  0
 41 52  1  0  0  0  0
 42 48  1  0  0  0  0
 43 70  1  0  0  0  0
 44 46  1  0  0  0  0
 45 47  1  0  0  0  0
 45 49  1  0  0  0  0
 46 51  1  0  0  0  0
 47 53  1  0  0  0  0
 48 69  1  0  0  0  0
 49 71  1  0  0  0  0
 50 53  1  0  0  0  0
 50 71  1  0  0  0  0
 51 75  1  0  0  0  0
 52 70  1  0  0  0  0
 53 68  1  0  0  0  0
 55 64  1  0  0  0  0
 56 65  1  0  0  0  0
 57 65  1  0  0  0  0
 58 66  1  0  0  0  0
 59 66  1  0  0  0  0
 60 66  1  0  0  0  0
 61 77  1  0  0  0  0
 62 65  1  0  0  0  0
 62 85  1  0  0  0  0
 63 66  1  0  0  0  0
 63 76  1  0  0  0  0
 64 77  1  0  0  0  0
 67 68  1  0  0  0  0
M  CHG  1  77   1
M  ISO  4  39 100  62 101  69 100  85 101
M  END
> <Batch ID>
0146

> <Smiles>
CNC(C)C(=O)NC(C(=O)N1Cc2cc([101O:1][101CH2:1]C(C)(C)C(=O)Nc3cc(C)c4c(c3)[100N:0]([100C:0](=O)N3CCCC(n5nc(-c6ccc(Oc7ccc(F)cc7F)cc6)c(C(N)=O)c5N)C3)CC4)ccc2CC1C(=O)NC1CCCc2ccccc21)C(C)(C)C

> <Shape>
0.215

> <Color>
0.092

> <Negative vol penalty>
0.000

$$$$

  -OEChem-04052303103D

 84 93  0     1  0  0  0  0  0999 V2000
  -21.6867  -12.2114   21.7840 C   0  0  0  0  0  0  0  0  0  0  0  0
  -21.8375  -13.5476   22.1409 C   0  0  0  0  0  0  0  0  0  0  0  0
  -29.7817  -26.9215   21.4792 C   0  0  0  0  0  0  0  0  0  0  0  0
  -28.1364  -25.1606   21.6499 C   0  0  0  0  0  0  0  0  0  0  0  0
  -22.7684  -11.5047   21.2603 C   0  0  0  0  0  0  0  0  0  0  0  0
  -23.0704  -14.1775   21.9754 C   0  0  0  0  0  0  0  0  0  0  0  0
  -22.6377  -18.7843   19.9174 C   0  0  0  0  0  0  0  0  0  0  0  0
  -30.6948  -26.1367   22.1834 C   0  0  0  0  0  0  0  0  0  0  0  0
  -29.0495  -24.3757   22.3541 C   0  0  0  0  0  0  0  0  0  0  0  0
  -22.2292  -19.8204   20.7560 C   0  0  0  0  0  0  0  0  0  0  0  0
  -30.2491  -24.1742   25.5086 C   0  0  0  0  0  0  0  0  0  0  0  0
  -29.7924  -23.5150   26.6498 C   0  0  0  0  0  0  0  0  0  0  0  0
  -24.5216  -20.5387   20.9754 C   0  0  0  0  0  0  0  0  0  0  0  0
  -18.3787  -26.8789   22.6208 C   0  0  0  0  0  0  0  0  0  0  0  0
  -30.3689  -21.3908   25.6536 C   0  0  0  0  0  0  0  0  0  0  0  0
  -28.5024  -26.4335   21.2125 C   0  0  0  0  0  0  0  0  0  0  0  0
  -27.3699  -27.2849   19.0911 C   0  0  0  0  0  0  0  0  0  0  0  0
  -24.0127  -12.1289   21.0792 C   0  0  0  0  0  0  0  0  0  0  0  0
  -23.9948  -18.6107   19.6097 C   0  0  0  0  0  0  0  0  0  0  0  0
  -24.1702  -13.4780   21.4500 C   0  0  0  0  0  0  0  0  0  0  0  0
  -24.9445  -19.5012   20.1306 C   0  0  0  0  0  0  0  0  0  0  0  0
  -19.7780  -26.9644   22.3665 C   0  0  0  0  0  0  0  0  0  0  0  0
  -30.3287  -24.8638   22.6208 C   0  0  0  0  0  0  0  0  0  0  0  0
  -23.1714  -20.6961   21.2874 C   0  0  0  0  0  0  0  0  0  0  0  0
  -30.7657  -23.4417   24.4398 C   0  0  0  0  0  0  0  0  0  0  0  0
  -29.8522  -22.1233   26.7224 C   0  0  0  0  0  0  0  0  0  0  0  0
  -30.8256  -22.0500   24.5123 C   0  0  0  0  0  0  0  0  0  0  0  0
  -27.5586  -27.2440   20.4856 C   0  0  0  0  0  0  0  0  0  0  0  0
  -17.8261  -28.1108   22.8939 C   0  0  0  0  0  0  0  0  0  0  0  0
  -26.3659  -28.2039   18.9073 C   0  0  0  0  0  0  0  0  0  0  0  0
  -20.2417  -28.2587   22.4547 C   0  0  0  0  0  0  0  0  0  0  0  0
  -28.0420  -26.5570   18.0546 C   0  0  0  0  0  0  0  0  0  0  0  0
  -26.1268  -16.3029   20.0918 C   0  0  0  0  0  0  0  0  0  0  0  0
  -28.0151  -18.1991   18.2585 C   0  0  0  0  0  0  0  0  0  0  0  0
  -28.7067  -21.3259   17.0787 C   0  0  0  0  0  0  0  0  0  0  0  0
  -21.9157  -30.1403   22.3932 C   0  0  0  0  0  0  0  0  0  0  0  0
  -25.1656  -11.3109   20.5536 C   0  0  0  0  0  0  0  0  0  0  0  0
  -24.4163  -17.5042   18.6822 C   0  0  0  0  0  0  0  0  0  0  0  0
  -26.4113  -19.3703   19.8147 C   0  0  0  0  0  0  0  0  0  0  0  0
  -26.3371  -12.1560   20.0602 C   0  0  0  0  0  0  0  0  0  0  0  0
  -24.4667  -32.1237   20.8979 C   0  0  0  0  0  0  0  0  0  0  0  0
  -26.6701  -13.2487   21.0711 C   0  0  0  0  0  0  0  0  0  0  0  0
  -25.5292  -31.1005   20.4901 C   0  0  0  0  0  0  0  0  0  0  0  0
  -22.4649  -24.5532   21.5285 C   0  0  0  0  0  0  0  0  0  0  0  0
  -23.7994  -31.7518   22.2209 C   0  0  0  0  0  0  0  0  0  0  0  0
  -22.0082  -25.9825   21.8094 C   0  0  0  0  0  0  0  0  0  0  0  0
  -24.3127  -29.3679   21.8705 C   0  0  0  0  0  0  0  0  0  0  0  0
  -25.4852  -14.2031   21.2623 C   0  0  1  0  0  0  0  0  0  0  0  0
  -25.8807  -17.1102   18.8487 C   0  0  1  0  0  0  0  0  0  0  0  0
  -21.4622  -23.7067   22.3091 C   0  0  1  0  0  0  0  0  0  0  0  0
  -24.9672  -29.6655   20.5115 C   0  0  2  0  0  0  0  0  0  0  0  0
  -20.1313  -24.4678   22.1109 C   0  0  2  0  0  0  0  0  0  0  0  0
  -16.4182  -28.4399   23.2059 C   0  0  0  0  0  0  0  0  0  0  0  0
  -19.3894  -24.1105   20.8214 C   0  0  0  0  0  0  0  0  0  0  0  0
  -30.3353  -22.5689   15.6296 C   0  0  0  0  0  0  0  0  0  0  0  0
  -30.0911  -18.0772   20.4913 C   0  0  0  0  0  0  0  0  0  0  0  0
  -31.2330  -20.0428   19.4420 C   0  0  0  0  0  0  0  0  0  0  0  0
  -31.0321  -17.8998   18.1810 C   0  0  0  0  0  0  0  0  0  0  0  0
  -26.5772  -22.1585   15.1996 C   0  0  0  0  0  0  0  0  0  0  0  0
  -21.4709  -22.2449   21.8918 C   0  0  0  0  0  0  0  0  0  1  0  0
  -28.9770  -19.3309   18.5283 C   0  0  1  0  0  0  0  0  0  0  0  0
  -29.0066  -21.8308   15.6788 C   0  0  2  0  0  0  0  0  0  0  0  0
  -30.3060  -18.8392   19.1683 C   0  0  0  0  0  0  0  0  0  0  0  0
  -26.7403  -28.0714   21.1411 N   0  0  0  0  0  0  0  0  0  0  0  0
  -26.0277  -28.6410   20.1542 N   0  0  0  0  0  0  0  0  0  0  0  0
  -20.5705  -25.8718   22.0675 N   0  0  3  0  0  0  0  0  0  0  0  0
  -26.7745  -18.2687   18.9080 N   0  0  0  0  0  0  0  0  0  0  0  0
  -23.2873  -30.3808   22.1657 N   0  0  0  0  0  0  0  0  0  0  0  0
  -25.7483  -28.6729   17.8023 N   0  0  0  0  0  0  0  0  0  0  0  0
  -29.0489  -25.6526   18.4184 N   0  0  0  0  0  0  0  0  0  0  0  0
  -21.5389  -28.8022   22.2826 N   0  0  0  0  0  0  0  0  0  0  0  0
  -25.3989  -15.1300   20.1542 N   0  0  0  0  0  0  0  0  0  0  0  0
  -29.1480  -20.0323   17.2605 N   0  0  0  0  0  0  0  0  0  0  0  0
  -27.9351  -22.7609   15.2230 N   0  3  0  0  0  0  0  0  0  0  0  0
  -27.7693  -26.7165   16.8406 O   0  0  0  0  0  0  0  0  0  0  0  0
  -26.9196  -16.7130   20.9315 O   0  0  0  0  0  0  0  0  0  0  0  0
  -28.3493  -17.2907   17.4939 O   0  0  0  0  0  0  0  0  0  0  0  0
  -28.1411  -22.0119   17.9273 O   0  0  0  0  0  0  0  0  0  0  0  0
  -21.1281  -31.0574   22.6392 O   0  0  0  0  0  0  0  0  0  0  0  0
  -31.2195  -24.0976   23.3078 O   0  0  0  0  0  0  0  0  0  0  0  0
  -22.7754  -21.7079   22.1068 O   0  0  0  0  0  0  0  0  0  1  0  0
  -29.4150  -21.4905   27.8190 F   0  0  0  0  0  0  0  0  0  0  0  0
  -31.3219  -21.3409   23.4892 F   0  0  0  0  0  0  0  0  0  0  0  0
  -18.9924  -29.3636   22.8430 S   0  0  0  0  0  0  0  0  0  0  0  0
  1  2  1  0  0  0  0
  1  5  2  0  0  0  0
  2  6  2  0  0  0  0
  3  8  2  0  0  0  0
  3 16  1  0  0  0  0
  4  9  1  0  0  0  0
  4 16  2  0  0  0  0
  5 18  1  0  0  0  0
  6 20  1  0  0  0  0
  7 10  2  0  0  0  0
  7 19  1  0  0  0  0
  8 23  1  0  0  0  0
  9 23  2  0  0  0  0
 10 24  1  0  0  0  0
 11 12  2  0  0  0  0
 11 25  1  0  0  0  0
 12 26  1  0  0  0  0
 13 21  1  0  0  0  0
 13 24  2  0  0  0  0
 14 22  1  0  0  0  0
 14 29  2  0  0  0  0
 15 26  2  0  0  0  0
 15 27  1  0  0  0  0
 16 28  1  0  0  0  0
 17 28  1  0  0  0  0
 17 30  2  0  0  0  0
 17 32  1  0  0  0  0
 18 20  2  0  0  0  0
 18 37  1  0  0  0  0
 19 21  2  0  0  0  0
 19 38  1  0  0  0  0
 20 48  1  0  0  0  0
 21 39  1  0  0  0  0
 22 31  2  0  0  0  0
 22 66  1  0  0  0  0
 23 80  1  0  0  0  0
 24 81  1  0  0  0  0
 25 27  2  0  0  0  0
 25 80  1  0  0  0  0
 26 82  1  0  0  0  0
 27 83  1  0  0  0  0
 28 64  2  0  0  0  0
 29 53  1  0  0  0  0
 29 84  1  0  0  0  0
 30 65  1  0  0  0  0
 30 69  1  0  0  0  0
 31 71  1  0  0  0  0
 31 84  1  0  0  0  0
 32 70  1  0  0  0  0
 32 75  2  0  0  0  0
 33 49  1  0  0  0  0
 33 72  1  0  0  0  0
 33 76  2  0  0  0  0
 34 61  1  0  0  0  0
 34 67  1  0  0  0  0
 34 77  2  0  0  0  0
 35 62  1  0  0  0  0
 35 73  1  0  0  0  0
 35 78  2  0  0  0  0
 36 68  1  0  0  0  0
 36 71  1  0  0  0  0
 36 79  2  0  0  0  0
 37 40  1  0  0  0  0
 38 49  1  0  0  0  0
 39 67  1  0  0  0  0
 40 42  1  0  0  0  0
 41 43  1  0  0  0  0
 41 45  1  0  0  0  0
 42 48  1  0  0  0  0
 43 51  1  0  0  0  0
 44 46  1  0  0  0  0
 44 50  1  0  0  0  0
 45 68  1  0  0  0  0
 46 66  1  0  0  0  0
 47 51  1  0  0  0  0
 47 68  1  0  0  0  0
 48 72  1  0  0  0  0
 49 67  1  0  0  0  0
 50 52  1  0  0  0  0
 50 60  1  0  0  0  0
 51 65  1  0  0  0  0
 52 54  1  0  0  0  0
 52 66  1  0  0  0  0
 55 62  1  0  0  0  0
 56 63  1  0  0  0  0
 57 63  1  0  0  0  0
 58 63  1  0  0  0  0
 59 74  1  0  0  0  0
 60 81  1  0  0  0  0
 61 63  1  0  0  0  0
 61 73  1  0  0  0  0
 62 74  1  0  0  0  0
 64 65  1  0  0  0  0
M  CHG  1  74   1
M  ISO  4  36 100  60 101  71 100  81 101
M  END
> <Batch ID>
0146

> <Smiles>
CNC(C)C(=O)NC(C(=O)N1Cc2cc([101O:1][101CH2:1]C3CCN(c4cc(C)sc4[100NH:0][100C:0](=O)N4CCCC(n5nc(-c6ccc(Oc7ccc(F)cc7F)cc6)c(C(N)=O)c5N)C4)C3C)ccc2CC1C(=O)NC1CCCc2ccccc21)C(C)(C)C

> <Shape>
0.230

> <Color>
0.090

> <Negative vol penalty>
0.000

$$$$

  -OEChem-04052303103D

 88 97  0     1  0  0  0  0  0999 V2000
  -19.2712  -24.6084   21.9528 C   0  0  0  0  0  0  0  0  0  0  0  0
  -20.5056  -24.9357   21.4010 C   0  0  0  0  0  0  0  0  0  0  0  0
  -25.1329  -15.5419   25.9779 C   0  0  0  0  0  0  0  0  0  0  0  0
  -23.8016  -17.3675   25.1224 C   0  0  0  0  0  0  0  0  0  0  0  0
  -18.4057  -25.6185   22.3705 C   0  0  0  0  0  0  0  0  0  0  0  0
  -20.8748  -26.2735   21.2656 C   0  0  0  0  0  0  0  0  0  0  0  0
  -25.6438  -27.1313   22.7374 C   0  0  0  0  0  0  0  0  0  0  0  0
  -24.6755  -15.8126   27.2675 C   0  0  0  0  0  0  0  0  0  0  0  0
  -23.3442  -17.6382   26.4120 C   0  0  0  0  0  0  0  0  0  0  0  0
  -26.6582  -26.7693   21.8521 C   0  0  0  0  0  0  0  0  0  0  0  0
  -21.8912  -15.2321   29.0961 C   0  0  0  0  0  0  0  0  0  0  0  0
  -21.4877  -14.1519   29.8808 C   0  0  0  0  0  0  0  0  0  0  0  0
  -26.8540  -29.0676   21.1460 C   0  0  0  0  0  0  0  0  0  0  0  0
  -28.4974  -21.9555   17.6985 C   0  0  0  0  0  0  0  0  0  0  0  0
  -23.1726  -14.7127   31.5191 C   0  0  0  0  0  0  0  0  0  0  0  0
  -24.6960  -16.3193   24.9053 C   0  0  0  0  0  0  0  0  0  0  0  0
  -24.5866  -15.1738   22.6286 C   0  0  0  0  0  0  0  0  0  0  0  0
  -18.7685  -26.9691   22.2491 C   0  0  0  0  0  0  0  0  0  0  0  0
  -25.2186  -28.4647   22.8259 C   0  0  0  0  0  0  0  0  0  0  0  0
  -20.0128  -27.3027   21.6809 C   0  0  0  0  0  0  0  0  0  0  0  0
  -25.8357  -29.4444   22.0350 C   0  0  0  0  0  0  0  0  0  0  0  0
  -27.6319  -21.3138   18.6162 C   0  0  0  0  0  0  0  0  0  0  0  0
  -23.7811  -16.8608   27.4846 C   0  0  0  0  0  0  0  0  0  0  0  0
  -27.2615  -27.7370   21.0542 C   0  0  0  0  0  0  0  0  0  0  0  0
  -22.9355  -16.0526   29.5227 C   0  0  0  0  0  0  0  0  0  0  0  0
  -22.1283  -13.8922   31.0924 C   0  0  0  0  0  0  0  0  0  0  0  0
  -23.5761  -15.7929   30.7342 C   0  0  0  0  0  0  0  0  0  0  0  0
  -25.1686  -16.0405   23.5730 C   0  0  0  0  0  0  0  0  0  0  0  0
  -27.7688  -22.9784   17.1375 C   0  0  0  0  0  0  0  0  0  0  0  0
  -26.4361  -21.9904   18.5508 C   0  0  0  0  0  0  0  0  0  0  0  0
  -25.4083  -15.2599   21.5314 C   0  0  0  0  0  0  0  0  0  0  0  0
  -30.1238  -27.6274   17.3022 C   0  0  0  0  0  0  0  0  0  0  0  0
  -28.9602  -27.3240   17.9014 C   0  0  0  0  0  0  0  0  0  0  0  0
  -23.4085  -14.3634   22.7337 C   0  0  0  0  0  0  0  0  0  0  0  0
  -22.4788  -29.9855   22.2928 C   0  0  0  0  0  0  0  0  0  0  0  0
  -24.1008  -32.5204   23.5035 C   0  0  0  0  0  0  0  0  0  0  0  0
  -27.1097  -34.0080   24.1201 C   0  0  0  0  0  0  0  0  0  0  0  0
  -29.1173  -19.4965   19.5315 C   0  0  0  0  0  0  0  0  0  0  0  0
  -17.7800  -28.0271   22.6711 C   0  0  0  0  0  0  0  0  0  0  0  0
  -24.1415  -28.8433   23.8050 C   0  0  0  0  0  0  0  0  0  0  0  0
  -25.4298  -30.8930   22.1068 C   0  0  0  0  0  0  0  0  0  0  0  0
  -30.7060  -26.8135   16.1838 C   0  0  0  0  0  0  0  0  0  0  0  0
  -28.1755  -26.1057   17.5001 C   0  0  0  0  0  0  0  0  0  0  0  0
  -18.4027  -29.4108   22.8377 C   0  0  0  0  0  0  0  0  0  0  0  0
  -29.9595  -16.1282   20.3203 C   0  0  0  0  0  0  0  0  0  0  0  0
  -19.2998  -29.7392   21.6484 C   0  0  0  0  0  0  0  0  0  0  0  0
  -28.7707  -15.6427   21.1529 C   0  0  0  0  0  0  0  0  0  0  0  0
  -30.2938  -17.5908   20.6081 C   0  0  0  0  0  0  0  0  0  0  0  0
  -27.9764  -18.0364   21.3153 C   0  0  0  0  0  0  0  0  0  0  0  0
  -29.7160  -25.8382   15.5516 C   0  0  0  0  0  0  0  0  0  0  0  0
  -20.4595  -28.7418   21.5402 C   0  0  1  0  0  0  0  0  0  0  0  0
  -23.4342  -30.1452   23.4414 C   0  0  1  0  0  0  0  0  0  0  0  0
  -27.5610  -16.5874   21.0124 C   0  0  2  0  0  0  0  0  0  0  0  0
  -28.1142  -36.0943   25.0875 C   0  0  0  0  0  0  0  0  0  0  0  0
  -25.2865  -21.9810   20.7923 C   0  0  0  0  0  0  0  0  0  0  0  0
  -24.5075  -20.4256   18.9730 C   0  0  0  0  0  0  0  0  0  0  0  0
  -24.0206  -22.8601   18.8413 C   0  0  0  0  0  0  0  0  0  0  0  0
  -23.3332  -34.0566   20.9814 C   0  0  0  0  0  0  0  0  0  0  0  0
  -25.1051  -35.7325   21.5469 C   0  0  0  0  0  0  0  0  0  0  0  0
  -23.1821  -35.3820   23.0968 C   0  0  0  0  0  0  0  0  0  0  0  0
  -28.5464  -32.4853   26.2120 C   0  0  0  0  0  0  0  0  0  0  0  0
  -28.0881  -24.0239   16.1099 C   0  0  0  0  0  0  0  0  0  0  0  0
  -28.3790  -28.1629   18.9985 C   0  0  0  0  0  0  0  0  0  1  0  0
  -24.9739  -33.6068   22.9235 C   0  0  1  0  0  0  0  0  0  0  0  0
  -27.6709  -34.6667   25.3674 C   0  0  2  0  0  0  0  0  0  0  0  0
  -25.1452  -21.8331   19.2379 C   0  0  0  0  0  0  0  0  0  0  0  0
  -24.1551  -34.6670   22.1342 C   0  0  0  0  0  0  0  0  0  0  0  0
  -26.2746  -16.6335   23.1159 N   0  0  0  0  0  0  0  0  0  0  0  0
  -26.3943  -16.1385   21.8722 N   0  0  0  0  0  0  0  0  0  0  0  0
  -24.3677  -31.2123   23.0751 N   0  0  0  0  0  0  0  0  0  0  0  0
  -29.1015  -18.4266   20.4511 N   0  0  0  0  0  0  0  0  0  0  0  0
  -25.3764  -14.6690   20.3180 N   0  0  0  0  0  0  0  0  0  0  0  0
  -22.6814  -14.3936   23.9316 N   0  0  0  0  0  0  0  0  0  0  0  0
  -27.9164  -20.2001   19.4448 N   0  0  0  0  0  0  0  0  0  0  0  0
  -21.4848  -29.0513   22.5136 N   0  0  0  0  0  0  0  0  0  0  0  0
  -25.7409  -34.1526   24.0381 N   0  0  0  0  0  0  0  0  0  0  0  0
  -28.9574  -25.1266   16.6429 N   0  3  2  0  0  0  0  0  0  0  0  0
  -28.8446  -33.9009   25.8742 N   0  3  0  0  0  0  0  0  0  0  0  0
  -23.0214  -13.6216   21.7991 O   0  0  0  0  0  0  0  0  0  0  0  0
  -22.6312  -30.6609   21.2817 O   0  0  0  0  0  0  0  0  0  0  0  0
  -23.2192  -32.8205   24.3124 O   0  0  0  0  0  0  0  0  0  0  0  0
  -27.8155  -33.4269   23.2988 O   0  0  0  0  0  0  0  0  0  0  0  0
  -30.1133  -19.7516   18.8498 O   0  0  0  0  0  0  0  0  0  0  0  0
  -26.5113  -23.0066   17.6518 O   0  0  0  0  0  0  0  0  0  0  0  0
  -23.3344  -17.1251   28.7428 O   0  0  0  0  0  0  0  0  0  0  0  0
  -28.2514  -27.3862   20.1888 O   0  0  0  0  0  0  0  0  0  1  0  0
  -21.7397  -12.8558   31.8467 F   0  0  0  0  0  0  0  0  0  0  0  0
  -24.5792  -16.5784   31.1499 F   0  0  0  0  0  0  0  0  0  0  0  0
  1  2  1  0  0  0  0
  1  5  2  0  0  0  0
  2  6  2  0  0  0  0
  3  8  2  0  0  0  0
  3 16  1  0  0  0  0
  4  9  1  0  0  0  0
  4 16  2  0  0  0  0
  5 18  1  0  0  0  0
  6 20  1  0  0  0  0
  7 10  2  0  0  0  0
  7 19  1  0  0  0  0
  8 23  1  0  0  0  0
  9 23  2  0  0  0  0
 10 24  1  0  0  0  0
 11 12  2  0  0  0  0
 11 25  1  0  0  0  0
 12 26  1  0  0  0  0
 13 21  1  0  0  0  0
 13 24  2  0  0  0  0
 14 22  1  0  0  0  0
 14 29  2  0  0  0  0
 15 26  2  0  0  0  0
 15 27  1  0  0  0  0
 16 28  1  0  0  0  0
 17 28  1  0  0  0  0
 17 31  2  0  0  0  0
 17 34  1  0  0  0  0
 18 20  2  0  0  0  0
 18 39  1  0  0  0  0
 19 21  2  0  0  0  0
 19 40  1  0  0  0  0
 20 51  1  0  0  0  0
 21 41  1  0  0  0  0
 22 30  2  0  0  0  0
 22 74  1  0  0  0  0
 23 85  1  0  0  0  0
 24 86  1  0  0  0  0
 25 27  2  0  0  0  0
 25 85  1  0  0  0  0
 26 87  1  0  0  0  0
 27 88  1  0  0  0  0
 28 68  2  0  0  0  0
 29 62  1  0  0  0  0
 29 84  1  0  0  0  0
 30 66  1  0  0  0  0
 30 84  1  0  0  0  0
 31 69  1  0  0  0  0
 31 72  1  0  0  0  0
 32 33  2  0  0  0  0
 32 42  1  0  0  0  0
 33 43  1  0  0  0  0
 33 63  1  0  0  0  0
 34 73  1  0  0  0  0
 34 79  2  0  0  0  0
 35 52  1  0  0  0  0
 35 75  1  0  0  0  0
 35 80  2  0  0  0  0
 36 64  1  0  0  0  0
 36 70  1  0  0  0  0
 36 81  2  0  0  0  0
 37 65  1  0  0  0  0
 37 76  1  0  0  0  0
 37 82  2  0  0  0  0
 38 71  1  0  0  0  0
 38 74  1  0  0  0  0
 38 83  2  0  0  0  0
 39 44  1  0  0  0  0
 40 52  1  0  0  0  0
 41 70  1  0  0  0  0
 42 50  1  0  0  0  0
 43 77  1  0  0  0  0
 44 46  1  0  0  0  0
 45 47  1  0  0  0  0
 45 48  1  0  0  0  0
 46 51  1  0  0  0  0
 47 53  1  0  0  0  0
 48 71  1  0  0  0  0
 49 53  1  0  0  0  0
 49 71  1  0  0  0  0
 50 77  1  0  0  0  0
 51 75  1  0  0  0  0
 52 70  1  0  0  0  0
 53 69  1  0  0  0  0
 54 65  1  0  0  0  0
 55 66  1  0  0  0  0
 56 66  1  0  0  0  0
 57 66  1  0  0  0  0
 58 67  1  0  0  0  0
 59 67  1  0  0  0  0
 60 67  1  0  0  0  0
 61 78  1  0  0  0  0
 62 77  1  0  0  0  0
 63 86  1  0  0  0  0
 64 67  1  0  0  0  0
 64 76  1  0  0  0  0
 65 78  1  0  0  0  0
 68 69  1  0  0  0  0
M  CHG  2  77   1  78   1
M  ISO  4  38 100  63 101  74 100  86 101
M  END
> <Batch ID>
0146

> <Smiles>
CNC(C)C(=O)NC(C(=O)N1Cc2cc([101O:1][101CH2:1]C3=CCCN(Cc4cc([100NH:0][100C:0](=O)N5CCCC(n6nc(-c7ccc(Oc8ccc(F)cc8F)cc7)c(C(N)=O)c6N)C5)c(C(C)(C)C)o4)C3)ccc2CC1C(=O)NC1CCCc2ccccc21)C(C)(C)C

> <Shape>
0.220

> <Color>
0.094

> <Negative vol penalty>
0.000

$$$$

  -OEChem-04052303103D

 95104  0     1  0  0  0  0  0999 V2000
  -25.4280  -22.5257   30.3870 C   0  0  0  0  0  0  0  0  0  0  0  0
  -25.8352  -23.0209   29.1523 C   0  0  0  0  0  0  0  0  0  0  0  0
  -22.9986   -9.8959   19.9830 C   0  0  0  0  0  0  0  0  0  0  0  0
  -23.7228   -9.9492   22.2872 C   0  0  0  0  0  0  0  0  0  0  0  0
  -24.1103  -22.1079   30.5690 C   0  0  0  0  0  0  0  0  0  0  0  0
  -24.9252  -23.0975   28.0985 C   0  0  0  0  0  0  0  0  0  0  0  0
  -25.1937  -27.5034   25.6164 C   0  0  0  0  0  0  0  0  0  0  0  0
  -30.6544  -22.9442   24.8146 C   0  0  0  0  0  0  0  0  0  0  0  0
  -28.6035  -22.2710   25.8997 C   0  0  0  0  0  0  0  0  0  0  0  0
  -29.9391  -23.8363   24.0159 C   0  0  0  0  0  0  0  0  0  0  0  0
  -27.8881  -23.1632   25.1010 C   0  0  0  0  0  0  0  0  0  0  0  0
  -22.2310   -8.7624   20.2503 C   0  0  0  0  0  0  0  0  0  0  0  0
  -22.9552   -8.8156   22.5547 C   0  0  0  0  0  0  0  0  0  0  0  0
  -26.2430  -27.6619   24.7122 C   0  0  0  0  0  0  0  0  0  0  0  0
  -23.1971   -5.4759   22.0870 C   0  0  0  0  0  0  0  0  0  0  0  0
  -23.7835   -4.4592   22.8406 C   0  0  0  0  0  0  0  0  0  0  0  0
  -24.7441  -27.1514   22.8924 C   0  0  0  0  0  0  0  0  0  0  0  0
  -32.1419  -17.7866   23.6967 C   0  0  0  0  0  0  0  0  0  0  0  0
  -22.0591   -4.7055   24.5148 C   0  0  0  0  0  0  0  0  0  0  0  0
  -23.7445  -10.4893   21.0014 C   0  0  0  0  0  0  0  0  0  0  0  0
  -24.1319  -13.0044   20.8224 C   0  0  0  0  0  0  0  0  0  0  0  0
  -23.1813  -22.1885   29.5197 C   0  0  0  0  0  0  0  0  0  0  0  0
  -23.9120  -27.1564   25.1655 C   0  0  0  0  0  0  0  0  0  0  0  0
  -23.5943  -22.6792   28.2663 C   0  0  0  0  0  0  0  0  0  0  0  0
  -23.6796  -26.9916   23.7926 C   0  0  0  0  0  0  0  0  0  0  0  0
  -29.9866  -22.1614   25.7564 C   0  0  0  0  0  0  0  0  0  0  0  0
  -31.9941  -16.7473   22.7333 C   0  0  0  0  0  0  0  0  0  0  0  0
  -28.5560  -23.9459   24.1591 C   0  0  0  0  0  0  0  0  0  0  0  0
  -22.2093   -8.2222   21.5362 C   0  0  0  0  0  0  0  0  0  0  0  0
  -26.0190  -27.4831   23.3502 C   0  0  0  0  0  0  0  0  0  0  0  0
  -22.0417   -6.1075   22.5473 C   0  0  0  0  0  0  0  0  0  0  0  0
  -23.2145   -4.0739   24.0545 C   0  0  0  0  0  0  0  0  0  0  0  0
  -21.4727   -5.7223   23.7611 C   0  0  0  0  0  0  0  0  0  0  0  0
  -24.5380  -11.6599   20.7257 C   0  0  0  0  0  0  0  0  0  0  0  0
  -25.2423  -13.7256   20.4576 C   0  0  0  0  0  0  0  0  0  0  0  0
  -30.9318  -18.3449   24.0454 C   0  0  0  0  0  0  0  0  0  0  0  0
  -30.6764  -16.5506   22.3825 C   0  0  0  0  0  0  0  0  0  0  0  0
  -22.8642  -13.5523   21.2077 C   0  0  0  0  0  0  0  0  0  0  0  0
  -21.9619  -24.6898   25.6308 C   0  0  0  0  0  0  0  0  0  0  0  0
  -19.8879  -26.5076   23.9231 C   0  0  0  0  0  0  0  0  0  0  0  0
  -19.4218  -29.0042   21.6435 C   0  0  0  0  0  0  0  0  0  0  0  0
  -31.5022  -20.1362   25.7273 C   0  0  0  0  0  0  0  0  0  0  0  0
  -30.7225  -14.6826   20.6929 C   0  0  0  0  0  0  0  0  0  0  0  0
  -21.7799  -21.6807   29.7503 C   0  0  0  0  0  0  0  0  0  0  0  0
  -22.7846  -27.0154   26.1512 C   0  0  0  0  0  0  0  0  0  0  0  0
  -22.3174  -26.6387   23.2556 C   0  0  0  0  0  0  0  0  0  0  0  0
  -20.7822  -22.1444   28.6921 C   0  0  0  0  0  0  0  0  0  0  0  0
  -29.6033  -12.2279   18.3694 C   0  0  0  0  0  0  0  0  0  0  0  0
  -21.3625  -21.9589   27.2936 C   0  0  0  0  0  0  0  0  0  0  0  0
  -28.1523  -11.9719   18.7832 C   0  0  0  0  0  0  0  0  0  0  0  0
  -30.5034  -12.4720   19.5793 C   0  0  0  0  0  0  0  0  0  0  0  0
  -28.5882  -13.2639   20.9110 C   0  0  0  0  0  0  0  0  0  0  0  0
  -22.6302  -22.8010   27.1061 C   0  0  1  0  0  0  0  0  0  0  0  0
  -21.6372  -26.1569   25.6279 C   0  0  1  0  0  0  0  0  0  0  0  0
  -27.6309  -13.0770   19.7226 C   0  0  2  0  0  0  0  0  0  0  0  0
  -34.4256  -16.1833   22.9703 C   0  0  0  0  0  0  0  0  0  0  0  0
  -31.3254  -23.0250   28.4094 C   0  0  0  0  0  0  0  0  0  0  0  0
  -17.6144  -30.2406   20.4180 C   0  0  0  0  0  0  0  0  0  0  0  0
  -27.8786  -27.0253   20.3222 C   0  0  0  0  0  0  0  0  0  0  0  0
  -29.9083  -20.3590   27.6275 C   0  0  0  0  0  0  0  0  0  0  0  0
  -19.5091  -24.1128   22.0707 C   0  0  0  0  0  0  0  0  0  0  0  0
  -18.4857  -25.6622   20.3913 C   0  0  0  0  0  0  0  0  0  0  0  0
  -17.4063  -25.3508   22.6185 C   0  0  0  0  0  0  0  0  0  0  0  0
  -20.2157  -31.5900   22.8445 C   0  0  0  0  0  0  0  0  0  0  0  0
  -33.1322  -15.9747   22.1803 C   0  0  0  0  0  0  0  0  0  0  0  0
  -31.8557  -21.9558   27.4579 C   0  0  0  0  0  0  0  0  0  0  0  0
  -28.4559  -25.6821   22.3700 C   0  0  0  0  0  0  0  0  0  0  0  0
  -19.5602  -26.6650   22.4579 C   0  0  1  0  0  0  0  0  0  0  0  0
  -18.5068  -30.2155   21.6491 C   0  0  2  0  0  0  0  0  0  0  0  0
  -27.3819  -26.5063   21.6637 C   0  0  1  0  0  0  0  0  0  1  0  0
  -30.7505  -21.2069   26.6105 C   0  0  2  0  0  0  0  0  0  0  0  0
  -18.7666  -25.4525   21.8946 C   0  0  0  0  0  0  0  0  0  0  0  0
  -25.8074  -11.5320   20.3302 N   0  0  0  0  0  0  0  0  0  0  0  0
  -26.2084  -12.8052   20.1752 N   0  0  0  0  0  0  0  0  0  0  0  0
  -21.2490  -26.5055   24.2597 N   0  0  0  0  0  0  0  0  0  0  0  0
  -29.9489  -13.5343   20.4211 N   0  0  0  0  0  0  0  0  0  0  0  0
  -25.4769  -15.0510   20.3540 N   0  0  0  0  0  0  0  0  0  0  0  0
  -21.8315  -12.6693   21.5519 N   0  0  0  0  0  0  0  0  0  0  0  0
  -27.8456  -24.8329   23.3677 N   0  0  0  0  0  0  0  0  0  0  0  0
  -30.6195  -19.3866   24.9514 N   0  0  0  0  0  0  0  0  0  0  0  0
  -30.0787  -15.6392   21.4771 N   0  0  0  0  0  0  0  0  0  0  0  0
  -22.2864  -24.1879   26.8767 N   0  0  0  0  0  0  0  0  0  0  0  0
  -18.8690  -27.9433   22.3292 N   0  0  0  0  0  0  0  0  0  0  0  0
  -19.3094  -31.4709   21.6734 N   0  3  0  0  0  0  0  0  0  0  0  0
  -22.6484  -14.7878   21.2299 O   0  0  0  0  0  0  0  0  0  0  0  0
  -21.9196  -24.0595   24.5808 O   0  0  0  0  0  0  0  0  0  0  0  0
  -18.9699  -26.3981   24.7397 O   0  0  0  0  0  0  0  0  0  0  0  0
  -20.5158  -28.9985   21.0834 O   0  0  0  0  0  0  0  0  0  0  0  0
  -32.7266  -20.0247   25.7385 O   0  0  0  0  0  0  0  0  0  0  0  0
  -31.8615  -14.8200   20.2392 O   0  0  0  0  0  0  0  0  0  0  0  0
  -21.4603   -7.1162   21.7975 O   0  0  0  0  0  0  0  0  0  0  0  0
  -27.0416  -27.6366   22.4656 O   0  0  0  0  0  0  0  0  0  1  0  0
  -23.7769   -3.0965   24.7773 F   0  0  0  0  0  0  0  0  0  0  0  0
  -20.3621   -6.3246   24.2079 F   0  0  0  0  0  0  0  0  0  0  0  0
  -29.6246  -17.6165   23.2129 S   0  0  0  0  0  0  0  0  0  0  0  0
  1  2  1  0  0  0  0
  1  5  2  0  0  0  0
  2  6  2  0  0  0  0
  3 12  2  0  0  0  0
  3 20  1  0  0  0  0
  4 13  1  0  0  0  0
  4 20  2  0  0  0  0
  5 22  1  0  0  0  0
  6 24  1  0  0  0  0
  7 14  2  0  0  0  0
  7 23  1  0  0  0  0
  8 10  2  0  0  0  0
  8 26  1  0  0  0  0
  9 11  1  0  0  0  0
  9 26  2  0  0  0  0
 10 28  1  0  0  0  0
 11 28  2  0  0  0  0
 12 29  1  0  0  0  0
 13 29  2  0  0  0  0
 14 30  1  0  0  0  0
 15 16  2  0  0  0  0
 15 31  1  0  0  0  0
 16 32  1  0  0  0  0
 17 25  1  0  0  0  0
 17 30  2  0  0  0  0
 18 27  1  0  0  0  0
 18 36  2  0  0  0  0
 19 32  2  0  0  0  0
 19 33  1  0  0  0  0
 20 34  1  0  0  0  0
 21 34  1  0  0  0  0
 21 35  2  0  0  0  0
 21 38  1  0  0  0  0
 22 24  2  0  0  0  0
 22 44  1  0  0  0  0
 23 25  2  0  0  0  0
 23 45  1  0  0  0  0
 24 53  1  0  0  0  0
 25 46  1  0  0  0  0
 26 71  1  0  0  0  0
 27 37  2  0  0  0  0
 27 65  1  0  0  0  0
 28 79  1  0  0  0  0
 29 91  1  0  0  0  0
 30 92  1  0  0  0  0
 31 33  2  0  0  0  0
 31 91  1  0  0  0  0
 32 93  1  0  0  0  0
 33 94  1  0  0  0  0
 34 73  2  0  0  0  0
 35 74  1  0  0  0  0
 35 77  1  0  0  0  0
 36 80  1  0  0  0  0
 36 95  1  0  0  0  0
 37 81  1  0  0  0  0
 37 95  1  0  0  0  0
 38 78  1  0  0  0  0
 38 85  2  0  0  0  0
 39 54  1  0  0  0  0
 39 82  1  0  0  0  0
 39 86  2  0  0  0  0
 40 68  1  0  0  0  0
 40 75  1  0  0  0  0
 40 87  2  0  0  0  0
 41 69  1  0  0  0  0
 41 83  1  0  0  0  0
 41 88  2  0  0  0  0
 42 71  1  0  0  0  0
 42 80  1  0  0  0  0
 42 89  2  0  0  0  0
 43 76  1  0  0  0  0
 43 81  1  0  0  0  0
 43 90  2  0  0  0  0
 44 47  1  0  0  0  0
 45 54  1  0  0  0  0
 46 75  1  0  0  0  0
 47 49  1  0  0  0  0
 48 50  1  0  0  0  0
 48 51  1  0  0  0  0
 49 53  1  0  0  0  0
 50 55  1  0  0  0  0
 51 76  1  0  0  0  0
 52 55  1  0  0  0  0
 52 76  1  0  0  0  0
 53 82  1  0  0  0  0
 54 75  1  0  0  0  0
 55 74  1  0  0  0  0
 56 65  1  0  0  0  0
 57 66  1  0  0  0  0
 58 69  1  0  0  0  0
 59 70  1  0  0  0  0
 60 71  1  0  0  0  0
 61 72  1  0  0  0  0
 62 72  1  0  0  0  0
 63 72  1  0  0  0  0
 64 84  1  0  0  0  0
 66 71  1  0  0  0  0
 67 70  1  0  0  0  0
 67 79  1  0  0  0  0
 68 72  1  0  0  0  0
 68 83  1  0  0  0  0
 69 84  1  0  0  0  0
 70 92  1  0  0  0  0
 73 74  1  0  0  0  0
M  CHG  1  84   1
M  ISO  4  43 100  70 101  81 100  92 101
M  END
> <Batch ID>
0146

> <Smiles>
CCc1cc(NC(=O)C(C)(CC)c2ccc(NC[101CH:1](C)[101O:1]c3ccc4c(c3)CN(C(=O)C(NC(=O)C(C)NC)C(C)(C)C)C(C(=O)NC3CCCc5ccccc53)C4)cc2)sc1[100NH:0][100C:0](=O)N1CCCC(n2nc(-c3ccc(Oc4ccc(F)cc4F)cc3)c(C(N)=O)c2N)C1

> <Shape>
0.228

> <Color>
0.179

> <Negative vol penalty>
0.000

$$$$

  -OEChem-04052303103D

 92100  0     1  0  0  0  0  0999 V2000
  -26.1427  -36.8663   28.6361 C   0  0  0  0  0  0  0  0  0  0  0  0
  -24.9000  -36.5358   28.1053 C   0  0  0  0  0  0  0  0  0  0  0  0
  -23.8687   -9.7271   22.0991 C   0  0  0  0  0  0  0  0  0  0  0  0
  -22.3250  -10.1474   20.2889 C   0  0  0  0  0  0  0  0  0  0  0  0
  -27.2791  -36.8181   27.8297 C   0  0  0  0  0  0  0  0  0  0  0  0
  -24.7927  -36.1580   26.7673 C   0  0  0  0  0  0  0  0  0  0  0  0
  -22.0934  -29.7364   24.9323 C   0  0  0  0  0  0  0  0  0  0  0  0
  -23.4417   -8.4004   22.1553 C   0  0  0  0  0  0  0  0  0  0  0  0
  -21.8979   -8.8207   20.3450 C   0  0  0  0  0  0  0  0  0  0  0  0
  -21.3939  -28.6123   24.4927 C   0  0  0  0  0  0  0  0  0  0  0  0
  -20.8123   -6.6812   23.4024 C   0  0  0  0  0  0  0  0  0  0  0  0
  -20.5549   -6.1368   24.6605 C   0  0  0  0  0  0  0  0  0  0  0  0
  -21.8820  -29.1932   22.1966 C   0  0  0  0  0  0  0  0  0  0  0  0
  -25.1600  -21.7977   18.6725 C   0  0  0  0  0  0  0  0  0  0  0  0
  -23.8391  -20.8643   20.4671 C   0  0  0  0  0  0  0  0  0  0  0  0
  -22.2421   -4.4508   24.2761 C   0  0  0  0  0  0  0  0  0  0  0  0
  -23.3103  -10.6006   21.1659 C   0  0  0  0  0  0  0  0  0  0  0  0
  -24.8025  -12.4941   20.3319 C   0  0  0  0  0  0  0  0  0  0  0  0
  -27.1871  -36.4301   26.4837 C   0  0  0  0  0  0  0  0  0  0  0  0
  -22.7037  -30.5858   24.0052 C   0  0  0  0  0  0  0  0  0  0  0  0
  -25.9288  -36.1059   25.9418 C   0  0  0  0  0  0  0  0  0  0  0  0
  -22.5946  -30.3138   22.6315 C   0  0  0  0  0  0  0  0  0  0  0  0
  -24.6325  -21.8934   19.9602 C   0  0  0  0  0  0  0  0  0  0  0  0
  -24.8940  -20.6729   17.8917 C   0  0  0  0  0  0  0  0  0  0  0  0
  -24.1007  -19.6437   18.3986 C   0  0  0  0  0  0  0  0  0  0  0  0
  -23.5732  -19.7394   19.6863 C   0  0  0  0  0  0  0  0  0  0  0  0
  -22.4563   -7.9472   21.2782 C   0  0  0  0  0  0  0  0  0  0  0  0
  -21.2883  -28.3415   23.1282 C   0  0  0  0  0  0  0  0  0  0  0  0
  -21.7846   -6.1104   22.5811 C   0  0  0  0  0  0  0  0  0  0  0  0
  -21.2698   -5.0215   25.0974 C   0  0  0  0  0  0  0  0  0  0  0  0
  -22.4995   -4.9952   23.0179 C   0  0  0  0  0  0  0  0  0  0  0  0
  -23.7506  -11.9713   21.1078 C   0  0  0  0  0  0  0  0  0  0  0  0
  -24.8160  -13.8347   20.6306 C   0  0  0  0  0  0  0  0  0  0  0  0
  -25.6882  -11.8276   19.4225 C   0  0  0  0  0  0  0  0  0  0  0  0
  -24.7696  -33.6631   23.4235 C   0  0  0  0  0  0  0  0  0  0  0  0
  -23.5985  -23.8436   21.1946 C   0  0  0  0  0  0  0  0  0  0  0  0
  -20.7636  -25.1371   21.5174 C   0  0  0  0  0  0  0  0  0  0  0  0
  -25.7553  -31.5401   21.4407 C   0  0  0  0  0  0  0  0  0  0  0  0
  -26.8254  -28.8008   19.7120 C   0  0  0  0  0  0  0  0  0  0  0  0
  -22.1751  -18.6618   21.4837 C   0  0  0  0  0  0  0  0  0  0  0  0
  -28.4364  -36.4386   25.6388 C   0  0  0  0  0  0  0  0  0  0  0  0
  -23.4150  -31.8415   24.4305 C   0  0  0  0  0  0  0  0  0  0  0  0
  -23.2379  -31.2743   21.6689 C   0  0  0  0  0  0  0  0  0  0  0  0
  -28.2917  -35.6667   24.3298 C   0  0  0  0  0  0  0  0  0  0  0  0
  -22.4042  -16.4282   24.2470 C   0  0  0  0  0  0  0  0  0  0  0  0
  -26.9852  -36.0355   23.6342 C   0  0  0  0  0  0  0  0  0  0  0  0
  -22.8615  -15.1126   23.6128 C   0  0  0  0  0  0  0  0  0  0  0  0
  -21.4354  -17.1874   23.3422 C   0  0  0  0  0  0  0  0  0  0  0  0
  -22.3720  -16.1013   21.3391 C   0  0  0  0  0  0  0  0  0  0  0  0
  -25.7754  -35.6673   24.5016 C   0  0  1  0  0  0  0  0  0  0  0  0
  -24.6317  -32.1741   23.5482 C   0  0  1  0  0  0  0  0  0  0  0  0
  -23.3996  -15.3322   22.1853 C   0  0  2  0  0  0  0  0  0  0  0  0
  -23.8176  -18.4393   17.5564 C   0  0  0  0  0  0  0  0  0  0  0  0
  -26.6780  -19.6678   16.4447 C   0  0  0  0  0  0  0  0  0  0  0  0
  -28.2867  -27.4193   18.2107 C   0  0  0  0  0  0  0  0  0  0  0  0
  -25.6467  -22.6685   22.1044 C   0  0  0  0  0  0  0  0  0  0  0  0
  -25.8334  -24.1835   20.1487 C   0  0  0  0  0  0  0  0  0  0  0  0
  -20.4710  -24.8654   19.0594 C   0  0  0  0  0  0  0  0  0  0  0  0
  -20.7438  -22.8354   20.4730 C   0  0  0  0  0  0  0  0  0  0  0  0
  -24.1285  -32.8768   19.2337 C   0  0  0  0  0  0  0  0  0  0  0  0
  -25.2747  -31.3842   17.5824 C   0  0  0  0  0  0  0  0  0  0  0  0
  -26.6072  -33.0078   18.9282 C   0  0  0  0  0  0  0  0  0  0  0  0
  -28.5678  -27.9884   21.9621 C   0  0  0  0  0  0  0  0  0  0  0  0
  -25.4696  -20.5964   16.5154 C   0  0  0  0  0  0  0  0  0  0  0  0
  -22.7208  -24.3557   20.0465 C   0  0  0  0  0  0  0  0  0  0  0  0
  -21.0293  -26.6344   21.4922 C   0  0  0  0  0  0  0  0  0  1  0  0
  -25.6480  -30.9574   20.0542 C   0  0  1  0  0  0  0  0  0  0  0  0
  -28.2125  -28.2212   19.5008 C   0  0  2  0  0  0  0  0  0  0  0  0
  -24.9237  -23.1315   20.8186 C   0  0  0  0  0  0  0  0  0  0  0  0
  -21.1966  -24.2981   20.2943 C   0  0  0  0  0  0  0  0  0  0  0  0
  -25.4002  -32.0455   18.9716 C   0  0  0  0  0  0  0  0  0  0  0  0
  -23.1403  -12.9037   21.8441 N   0  0  0  0  0  0  0  0  0  0  0  0
  -23.8108  -14.0258   21.5323 N   0  0  0  0  0  0  0  0  0  0  0  0
  -24.5648  -31.6706   22.1659 N   0  0  0  0  0  0  0  0  0  0  0  0
  -22.0142  -17.3619   22.0082 N   0  0  0  0  0  0  0  0  0  0  0  0
  -25.5896  -14.8568   20.2072 N   0  0  0  0  0  0  0  0  0  0  0  0
  -25.5361  -10.4473   19.2327 N   0  0  0  0  0  0  0  0  0  0  0  0
  -22.7659  -18.7050   20.2213 N   0  0  0  0  0  0  0  0  0  0  0  0
  -25.5163  -34.2452   24.4299 N   0  0  0  0  0  0  0  0  0  0  0  0
  -26.8601  -30.1726   19.8462 N   0  0  0  0  0  0  0  0  0  0  0  0
  -28.5769  -27.3239   20.6335 N   0  3  0  0  0  0  0  0  0  0  0  0
  -26.5983  -12.4351   18.8092 O   0  0  0  0  0  0  0  0  0  0  0  0
  -24.2392  -34.2422   22.4827 O   0  0  0  0  0  0  0  0  0  0  0  0
  -23.2791  -24.0190   22.3720 O   0  0  0  0  0  0  0  0  0  0  0  0
  -20.1953  -24.6194   22.4819 O   0  0  0  0  0  0  0  0  0  0  0  0
  -26.8627  -31.8766   21.8694 O   0  0  0  0  0  0  0  0  0  0  0  0
  -25.8121  -28.1064   19.7500 O   0  0  0  0  0  0  0  0  0  0  0  0
  -21.8402  -19.6643   22.1198 O   0  0  0  0  0  0  0  0  0  0  0  0
  -22.0395   -6.6526   21.3326 O   0  0  0  0  0  0  0  0  0  0  0  0
  -20.6013  -27.2296   22.7021 O   0  0  0  0  0  0  0  0  0  1  0  0
  -21.0236   -4.4997   26.3062 F   0  0  0  0  0  0  0  0  0  0  0  0
  -23.4356   -4.4432   22.2338 F   0  0  0  0  0  0  0  0  0  0  0  0
  1  2  1  0  0  0  0
  1  5  2  0  0  0  0
  2  6  2  0  0  0  0
  3  8  2  0  0  0  0
  3 17  1  0  0  0  0
  4  9  1  0  0  0  0
  4 17  2  0  0  0  0
  5 19  1  0  0  0  0
  6 21  1  0  0  0  0
  7 10  2  0  0  0  0
  7 20  1  0  0  0  0
  8 27  1  0  0  0  0
  9 27  2  0  0  0  0
 10 28  1  0  0  0  0
 11 12  2  0  0  0  0
 11 29  1  0  0  0  0
 12 30  1  0  0  0  0
 13 22  1  0  0  0  0
 13 28  2  0  0  0  0
 14 23  2  0  0  0  0
 14 24  1  0  0  0  0
 15 23  1  0  0  0  0
 15 26  2  0  0  0  0
 16 30  2  0  0  0  0
 16 31  1  0  0  0  0
 17 32  1  0  0  0  0
 18 32  1  0  0  0  0
 18 33  2  0  0  0  0
 18 34  1  0  0  0  0
 19 21  2  0  0  0  0
 19 41  1  0  0  0  0
 20 22  2  0  0  0  0
 20 42  1  0  0  0  0
 21 50  1  0  0  0  0
 22 43  1  0  0  0  0
 23 69  1  0  0  0  0
 24 25  2  0  0  0  0
 24 64  1  0  0  0  0
 25 26  1  0  0  0  0
 25 53  1  0  0  0  0
 26 78  1  0  0  0  0
 27 89  1  0  0  0  0
 28 90  1  0  0  0  0
 29 31  2  0  0  0  0
 29 89  1  0  0  0  0
 30 91  1  0  0  0  0
 31 92  1  0  0  0  0
 32 72  2  0  0  0  0
 33 73  1  0  0  0  0
 33 76  1  0  0  0  0
 34 77  1  0  0  0  0
 34 82  2  0  0  0  0
 35 51  1  0  0  0  0
 35 79  1  0  0  0  0
 35 83  2  0  0  0  0
 36 65  1  0  0  0  0
 36 69  1  0  0  0  0
 36 84  2  0  0  0  0
 37 66  1  0  0  0  0
 37 70  1  0  0  0  0
 37 85  2  0  0  0  0
 38 67  1  0  0  0  0
 38 74  1  0  0  0  0
 38 86  2  0  0  0  0
 39 68  1  0  0  0  0
 39 80  1  0  0  0  0
 39 87  2  0  0  0  0
 40 75  1  0  0  0  0
 40 78  1  0  0  0  0
 40 88  2  0  0  0  0
 41 44  1  0  0  0  0
 42 51  1  0  0  0  0
 43 74  1  0  0  0  0
 44 46  1  0  0  0  0
 45 47  1  0  0  0  0
 45 48  1  0  0  0  0
 46 50  1  0  0  0  0
 47 52  1  0  0  0  0
 48 75  1  0  0  0  0
 49 52  1  0  0  0  0
 49 75  1  0  0  0  0
 50 79  1  0  0  0  0
 51 74  1  0  0  0  0
 52 73  1  0  0  0  0
 54 64  1  0  0  0  0
 55 68  1  0  0  0  0
 56 69  1  0  0  0  0
 57 69  1  0  0  0  0
 58 70  1  0  0  0  0
 59 70  1  0  0  0  0
 60 71  1  0  0  0  0
 61 71  1  0  0  0  0
 62 71  1  0  0  0  0
 63 81  1  0  0  0  0
 65 70  1  0  0  0  0
 66 90  1  0  0  0  0
 67 71  1  0  0  0  0
 67 80  1  0  0  0  0
 68 81  1  0  0  0  0
 72 73  1  0  0  0  0
M  CHG  1  81   1
M  ISO  4  40 100  66 101  78 100  90 101
M  END
> <Batch ID>
0146

> <Smiles>
CCc1cc(C(C)(C)C(=O)CC(C)(C)C(=O)[101CH2:1][101O:1]c2ccc3c(c2)CN(C(=O)C(NC(=O)C(C)NC)C(C)(C)C)C(C(=O)NC2CCCc4ccccc42)C3)cc([100NH:0][100C:0](=O)N2CCCC(n3nc(-c4ccc(Oc5ccc(F)cc5F)cc4)c(C(N)=O)c3N)C2)c1C

> <Shape>
0.259

> <Color>
0.098

> <Negative vol penalty>
0.000

$$$$

  -OEChem-04052303103D

 85 94  0     1  0  0  0  0  0999 V2000
  -29.0190  -37.7590   21.7689 C   0  0  0  0  0  0  0  0  0  0  0  0
  -29.3509  -36.4759   21.3459 C   0  0  0  0  0  0  0  0  0  0  0  0
  -24.5450   -8.8998   21.6435 C   0  0  0  0  0  0  0  0  0  0  0  0
  -22.9119   -9.7863   20.0995 C   0  0  0  0  0  0  0  0  0  0  0  0
  -28.0765  -37.9360   22.7810 C   0  0  0  0  0  0  0  0  0  0  0  0
  -28.7413  -35.3690   21.9354 C   0  0  0  0  0  0  0  0  0  0  0  0
  -27.2383  -30.1010   19.1978 C   0  0  0  0  0  0  0  0  0  0  0  0
  -23.7582   -7.7620   21.8225 C   0  0  0  0  0  0  0  0  0  0  0  0
  -22.1251   -8.6485   20.2784 C   0  0  0  0  0  0  0  0  0  0  0  0
  -27.8692  -28.8589   19.1432 C   0  0  0  0  0  0  0  0  0  0  0  0
  -20.9887   -6.8968   23.5562 C   0  0  0  0  0  0  0  0  0  0  0  0
  -20.7990   -6.4395   24.8602 C   0  0  0  0  0  0  0  0  0  0  0  0
  -27.1146  -20.1382   17.1223 C   0  0  0  0  0  0  0  0  0  0  0  0
  -26.7161  -18.8176   17.4391 C   0  0  0  0  0  0  0  0  0  0  0  0
  -26.4982  -28.0889   20.9726 C   0  0  0  0  0  0  0  0  0  0  0  0
  -21.8160   -4.3294   24.2682 C   0  0  0  0  0  0  0  0  0  0  0  0
  -24.1218   -9.9120   20.7821 C   0  0  0  0  0  0  0  0  0  0  0  0
  -25.9454  -11.2800   19.6373 C   0  0  0  0  0  0  0  0  0  0  0  0
  -27.4478  -36.8311   23.3765 C   0  0  0  0  0  0  0  0  0  0  0  0
  -26.2385  -30.3503   20.1490 C   0  0  0  0  0  0  0  0  0  0  0  0
  -27.7904  -35.5314   22.9573 C   0  0  0  0  0  0  0  0  0  0  0  0
  -25.8544  -29.3341   21.0355 C   0  0  0  0  0  0  0  0  0  0  0  0
  -22.5483   -7.6363   21.1399 C   0  0  0  0  0  0  0  0  0  0  0  0
  -27.5012  -27.8536   20.0326 C   0  0  0  0  0  0  0  0  0  0  0  0
  -21.5920   -6.0704   22.6081 C   0  0  0  0  0  0  0  0  0  0  0  0
  -21.2127   -5.1559   25.2163 C   0  0  0  0  0  0  0  0  0  0  0  0
  -22.0057   -4.7867   22.9642 C   0  0  0  0  0  0  0  0  0  0  0  0
  -24.9338  -11.0878   20.5972 C   0  0  0  0  0  0  0  0  0  0  0  0
  -26.4083  -12.5509   19.8760 C   0  0  0  0  0  0  0  0  0  0  0  0
  -26.9588  -20.8713   18.2756 C   0  0  0  0  0  0  0  0  0  0  0  0
  -26.3453  -18.8379   18.7635 C   0  0  0  0  0  0  0  0  0  0  0  0
  -26.4238  -10.3894   18.6206 C   0  0  0  0  0  0  0  0  0  0  0  0
  -25.9063  -32.3759   22.5759 C   0  0  0  0  0  0  0  0  0  0  0  0
  -22.9147  -31.1278   22.6996 C   0  0  0  0  0  0  0  0  0  0  0  0
  -20.8332  -28.5172   21.9937 C   0  0  0  0  0  0  0  0  0  0  0  0
  -25.5109  -17.9375   20.9634 C   0  0  0  0  0  0  0  0  0  0  0  0
  -26.4700  -37.0705   24.4996 C   0  0  0  0  0  0  0  0  0  0  0  0
  -25.5489  -31.6867   20.1773 C   0  0  0  0  0  0  0  0  0  0  0  0
  -24.7726  -29.5444   22.0622 C   0  0  0  0  0  0  0  0  0  0  0  0
  -25.5945  -35.8600   24.8132 C   0  0  0  0  0  0  0  0  0  0  0  0
  -25.5316  -15.7048   23.7368 C   0  0  0  0  0  0  0  0  0  0  0  0
  -26.4422  -34.5945   24.8938 C   0  0  0  0  0  0  0  0  0  0  0  0
  -25.4611  -14.3204   23.0883 C   0  0  0  0  0  0  0  0  0  0  0  0
  -27.6331  -24.5018   18.0857 C   0  0  0  0  0  0  0  0  0  0  0  0
  -24.6935  -16.7308   22.9761 C   0  0  0  0  0  0  0  0  0  0  0  0
  -27.6987  -23.0966   17.5017 C   0  0  0  0  0  0  0  0  0  0  0  0
  -24.9085  -15.4380   20.8900 C   0  0  0  0  0  0  0  0  0  0  0  0
  -27.1326  -34.3067   23.5552 C   0  0  1  0  0  0  0  0  0  0  0  0
  -24.9026  -31.9971   21.5239 C   0  0  1  0  0  0  0  0  0  0  0  0
  -25.7888  -14.3856   21.5837 C   0  0  2  0  0  0  0  0  0  0  0  0
  -27.8246  -24.2766   19.5932 C   0  0  1  0  0  0  0  0  0  0  0  0
  -26.9734  -22.9561   19.8339 C   0  0  0  0  0  0  0  0  0  0  0  0
  -29.3341  -24.0902   19.8861 C   0  0  0  0  0  0  0  0  0  0  0  0
  -25.4689  -23.2679   19.9905 C   0  0  0  0  0  0  0  0  0  0  0  0
  -27.4814  -22.2038   21.0753 C   0  0  0  0  0  0  0  0  0  0  0  0
  -18.4504  -27.7727   22.2497 C   0  0  0  0  0  0  0  0  0  0  0  0
  -23.4203  -30.5322   25.6491 C   0  0  0  0  0  0  0  0  0  0  0  0
  -21.4558  -28.9808   25.6007 C   0  0  0  0  0  0  0  0  0  0  0  0
  -21.1352  -31.4112   25.1391 C   0  0  0  0  0  0  0  0  0  0  0  0
  -20.4558  -28.3278   19.0644 C   0  0  0  0  0  0  0  0  0  0  0  0
  -27.3479  -25.5060   20.3813 C   0  0  0  0  0  0  0  0  0  1  0  0
  -22.2719  -29.9603   23.4085 C   0  0  1  0  0  0  0  0  0  0  0  0
  -19.4590  -28.4700   21.3502 C   0  0  2  0  0  0  0  0  0  0  0  0
  -22.0926  -30.2175   24.9314 C   0  0  0  0  0  0  0  0  0  0  0  0
  -24.7637  -12.1514   21.3870 N   0  0  0  0  0  0  0  0  0  0  0  0
  -25.6747  -13.0241   20.9239 N   0  0  0  0  0  0  0  0  0  0  0  0
  -27.1907  -22.2084   18.5600 N   0  0  3  0  0  0  0  0  0  0  0  0
  -24.1326  -30.8702   22.0544 N   0  0  0  0  0  0  0  0  0  0  0  0
  -25.0619  -16.7396   21.5587 N   0  0  0  0  0  0  0  0  0  0  0  0
  -27.3674  -13.2986   19.2898 N   0  0  0  0  0  0  0  0  0  0  0  0
  -25.8375   -9.1209   18.5137 N   0  0  0  0  0  0  0  0  0  0  0  0
  -25.8636  -17.8167   19.6197 N   0  0  0  0  0  0  0  0  0  0  0  0
  -26.1952  -33.7265   22.6175 N   0  0  0  0  0  0  0  0  0  0  0  0
  -21.0273  -29.6864   22.6982 N   0  0  0  0  0  0  0  0  0  0  0  0
  -19.5189  -27.7367   20.0542 N   0  3  0  0  0  0  0  0  0  0  0  0
  -27.3552  -10.7029   17.8410 O   0  0  0  0  0  0  0  0  0  0  0  0
  -26.3821  -31.5073   23.2976 O   0  0  0  0  0  0  0  0  0  0  0  0
  -22.3533  -32.2262   22.7116 O   0  0  0  0  0  0  0  0  0  0  0  0
  -21.6510  -27.6061   21.8854 O   0  0  0  0  0  0  0  0  0  0  0  0
  -25.6034  -18.9866   21.6060 O   0  0  0  0  0  0  0  0  0  0  0  0
  -26.4903  -20.0860   19.2808 O   0  0  0  0  0  0  0  0  0  0  0  0
  -21.7804   -6.5261   21.3141 O   0  0  0  0  0  0  0  0  0  0  0  0
  -28.1159  -26.6405   19.9819 O   0  0  0  0  0  0  0  0  0  1  0  0
  -21.0318   -4.7174   26.4689 F   0  0  0  0  0  0  0  0  0  0  0  0
  -22.5870   -3.9887   22.0581 F   0  0  0  0  0  0  0  0  0  0  0  0
  1  2  1  0  0  0  0
  1  5  2  0  0  0  0
  2  6  2  0  0  0  0
  3  8  2  0  0  0  0
  3 17  1  0  0  0  0
  4  9  1  0  0  0  0
  4 17  2  0  0  0  0
  5 19  1  0  0  0  0
  6 21  1  0  0  0  0
  7 10  2  0  0  0  0
  7 20  1  0  0  0  0
  8 23  1  0  0  0  0
  9 23  2  0  0  0  0
 10 24  1  0  0  0  0
 11 12  2  0  0  0  0
 11 25  1  0  0  0  0
 12 26  1  0  0  0  0
 13 14  1  0  0  0  0
 13 30  2  0  0  0  0
 14 31  2  0  0  0  0
 15 22  1  0  0  0  0
 15 24  2  0  0  0  0
 16 26  2  0  0  0  0
 16 27  1  0  0  0  0
 17 28  1  0  0  0  0
 18 28  1  0  0  0  0
 18 29  2  0  0  0  0
 18 32  1  0  0  0  0
 19 21  2  0  0  0  0
 19 37  1  0  0  0  0
 20 22  2  0  0  0  0
 20 38  1  0  0  0  0
 21 48  1  0  0  0  0
 22 39  1  0  0  0  0
 23 82  1  0  0  0  0
 24 83  1  0  0  0  0
 25 27  2  0  0  0  0
 25 82  1  0  0  0  0
 26 84  1  0  0  0  0
 27 85  1  0  0  0  0
 28 65  2  0  0  0  0
 29 66  1  0  0  0  0
 29 70  1  0  0  0  0
 30 67  1  0  0  0  0
 30 81  1  0  0  0  0
 31 72  1  0  0  0  0
 31 81  1  0  0  0  0
 32 71  1  0  0  0  0
 32 76  2  0  0  0  0
 33 49  1  0  0  0  0
 33 73  1  0  0  0  0
 33 77  2  0  0  0  0
 34 62  1  0  0  0  0
 34 68  1  0  0  0  0
 34 78  2  0  0  0  0
 35 63  1  0  0  0  0
 35 74  1  0  0  0  0
 35 79  2  0  0  0  0
 36 69  1  0  0  0  0
 36 72  1  0  0  0  0
 36 80  2  0  0  0  0
 37 40  1  0  0  0  0
 38 49  1  0  0  0  0
 39 68  1  0  0  0  0
 40 42  1  0  0  0  0
 41 43  1  0  0  0  0
 41 45  1  0  0  0  0
 42 48  1  0  0  0  0
 43 50  1  0  0  0  0
 44 46  1  0  0  0  0
 44 51  1  0  0  0  0
 45 69  1  0  0  0  0
 46 67  1  0  0  0  0
 47 50  1  0  0  0  0
 47 69  1  0  0  0  0
 48 73  1  0  0  0  0
 49 68  1  0  0  0  0
 50 66  1  0  0  0  0
 51 52  1  0  0  0  0
 51 53  1  0  0  0  0
 51 61  1  0  0  0  0
 52 54  1  0  0  0  0
 52 55  1  0  0  0  0
 52 67  1  0  0  0  0
 56 63  1  0  0  0  0
 57 64  1  0  0  0  0
 58 64  1  0  0  0  0
 59 64  1  0  0  0  0
 60 75  1  0  0  0  0
 61 83  1  0  0  0  0
 62 64  1  0  0  0  0
 62 74  1  0  0  0  0
 63 75  1  0  0  0  0
 65 66  1  0  0  0  0
M  CHG  1  75   1
M  ISO  4  36 100  61 101  72 100  83 101
M  END
> <Batch ID>
0146

> <Smiles>
CNC(C)C(=O)NC(C(=O)N1Cc2cc([101O:1][101CH2:1]C3(C)CCN(c4ccc([100NH:0][100C:0](=O)N5CCCC(n6nc(-c7ccc(Oc8ccc(F)cc8F)cc7)c(C(N)=O)c6N)C5)o4)C3(C)C)ccc2CC1C(=O)NC1CCCc2ccccc21)C(C)(C)C

> <Shape>
0.295

> <Color>
0.109

> <Negative vol penalty>
0.000

$$$$

  -OEChem-04052303103D

 89 98  0     1  0  0  0  0  0999 V2000
  -28.3782  -26.7146   31.8680 C   0  0  0  0  0  0  0  0  0  0  0  0
  -28.4508  -26.5629   30.4870 C   0  0  0  0  0  0  0  0  0  0  0  0
  -23.1021   -9.8627   21.4183 C   0  0  0  0  0  0  0  0  0  0  0  0
  -23.8610  -10.7094   23.5500 C   0  0  0  0  0  0  0  0  0  0  0  0
  -27.2424  -26.2896   32.5561 C   0  0  0  0  0  0  0  0  0  0  0  0
  -27.3880  -25.9852   29.7934 C   0  0  0  0  0  0  0  0  0  0  0  0
  -31.1620  -18.8435   18.6623 C   0  0  0  0  0  0  0  0  0  0  0  0
  -26.2110  -28.5267   25.5743 C   0  0  0  0  0  0  0  0  0  0  0  0
  -31.0234  -17.5472   19.1579 C   0  0  0  0  0  0  0  0  0  0  0  0
  -22.3804   -8.8639   22.0719 C   0  0  0  0  0  0  0  0  0  0  0  0
  -23.1393   -9.7106   24.2037 C   0  0  0  0  0  0  0  0  0  0  0  0
  -27.0317  -28.3325   24.4642 C   0  0  0  0  0  0  0  0  0  0  0  0
  -23.0162   -5.8841   23.5352 C   0  0  0  0  0  0  0  0  0  0  0  0
  -23.1031   -4.5868   23.0302 C   0  0  0  0  0  0  0  0  0  0  0  0
  -29.3909  -18.3323   20.7528 C   0  0  0  0  0  0  0  0  0  0  0  0
  -25.4159  -26.7945   23.5462 C   0  0  0  0  0  0  0  0  0  0  0  0
  -20.7160   -4.5718   22.6581 C   0  0  0  0  0  0  0  0  0  0  0  0
  -23.8425  -10.7854   22.1574 C   0  0  0  0  0  0  0  0  0  0  0  0
  -24.1358  -13.1033   21.1333 C   0  0  0  0  0  0  0  0  0  0  0  0
  -26.1612  -25.7152   31.8693 C   0  0  0  0  0  0  0  0  0  0  0  0
  -30.4087  -19.8957   19.2017 C   0  0  0  0  0  0  0  0  0  0  0  0
  -24.9895  -27.8468   25.6841 C   0  0  0  0  0  0  0  0  0  0  0  0
  -26.2373  -25.5509   30.4730 C   0  0  0  0  0  0  0  0  0  0  0  0
  -29.5292  -19.6402   20.2682 C   0  0  0  0  0  0  0  0  0  0  0  0
  -24.5803  -26.9838   24.6575 C   0  0  0  0  0  0  0  0  0  0  0  0
  -30.1368  -17.2914   20.2008 C   0  0  0  0  0  0  0  0  0  0  0  0
  -22.3990   -8.7878   23.4646 C   0  0  0  0  0  0  0  0  0  0  0  0
  -26.6356  -27.4641   23.4512 C   0  0  0  0  0  0  0  0  0  0  0  0
  -21.7792   -6.5253   23.6017 C   0  0  0  0  0  0  0  0  0  0  0  0
  -21.9530   -3.9307   22.5916 C   0  0  0  0  0  0  0  0  0  0  0  0
  -20.6291   -5.8691   23.1632 C   0  0  0  0  0  0  0  0  0  0  0  0
  -24.5886  -11.8170   21.4828 C   0  0  0  0  0  0  0  0  0  0  0  0
  -25.2135  -13.6911   20.5172 C   0  0  0  0  0  0  0  0  0  0  0  0
  -22.8555  -13.7125   21.3466 C   0  0  0  0  0  0  0  0  0  0  0  0
  -23.7719  -25.7380   27.7272 C   0  0  0  0  0  0  0  0  0  0  0  0
  -21.0801  -26.1758   25.9707 C   0  0  0  0  0  0  0  0  0  0  0  0
  -19.6776  -27.0995   22.9997 C   0  0  0  0  0  0  0  0  0  0  0  0
  -30.6586  -14.8277   20.2673 C   0  0  0  0  0  0  0  0  0  0  0  0
  -24.9742  -25.2278   32.6619 C   0  0  0  0  0  0  0  0  0  0  0  0
  -30.6010  -21.2953   18.6754 C   0  0  0  0  0  0  0  0  0  0  0  0
  -24.1033  -28.0876   26.8754 C   0  0  0  0  0  0  0  0  0  0  0  0
  -23.2690  -26.2454   24.7179 C   0  0  0  0  0  0  0  0  0  0  0  0
  -28.6933  -20.7417   20.8606 C   0  0  0  0  0  0  0  0  0  0  0  0
  -23.7364  -24.9679   31.8073 C   0  0  0  0  0  0  0  0  0  0  0  0
  -29.5915  -11.7029   18.9352 C   0  0  0  0  0  0  0  0  0  0  0  0
  -24.1067  -24.1729   30.5592 C   0  0  0  0  0  0  0  0  0  0  0  0
  -28.1575  -11.5599   19.4505 C   0  0  0  0  0  0  0  0  0  0  0  0
  -30.5016  -12.3659   19.9676 C   0  0  0  0  0  0  0  0  0  0  0  0
  -28.5807  -13.5049   21.0077 C   0  0  0  0  0  0  0  0  0  0  0  0
  -29.4419  -22.2287   19.0075 C   0  0  0  0  0  0  0  0  0  0  0  0
  -25.0947  -24.9515   29.6822 C   0  0  1  0  0  0  0  0  0  0  0  0
  -23.1181  -26.9503   27.1267 C   0  0  1  0  0  0  0  0  0  0  0  0
  -27.6117  -12.9014   19.9778 C   0  0  2  0  0  0  0  0  0  0  0  0
  -17.4560  -27.3166   21.8532 C   0  0  0  0  0  0  0  0  0  0  0  0
  -20.9721  -23.1476   25.6118 C   0  0  0  0  0  0  0  0  0  0  0  0
  -19.3546  -23.4979   23.7332 C   0  0  0  0  0  0  0  0  0  0  0  0
  -18.7576  -24.2267   26.0430 C   0  0  0  0  0  0  0  0  0  0  0  0
  -27.5431  -22.4371   23.2817 C   0  0  0  0  0  0  0  0  0  0  0  0
  -29.7934  -23.4230   22.9127 C   0  0  0  0  0  0  0  0  0  0  0  0
  -29.1725  -26.1836   21.1406 C   0  0  0  0  0  0  0  0  0  0  0  0
  -29.3617  -26.5881   23.5912 C   0  0  0  0  0  0  0  0  0  0  0  0
  -20.0323  -30.0119   22.6111 C   0  0  0  0  0  0  0  0  0  0  0  0
  -27.6897  -24.8828   22.8151 C   0  0  0  0  0  0  0  0  0  0  0  0
  -28.1921  -23.1909   20.9474 C   0  0  0  0  0  0  0  0  0  0  0  0
  -20.4893  -25.5297   24.7408 C   0  0  1  0  0  0  0  0  0  0  0  0
  -18.5190  -28.0259   22.6777 C   0  0  2  0  0  0  0  0  0  0  0  0
  -19.9191  -24.1128   25.0317 C   0  0  0  0  0  0  0  0  0  0  0  0
  -28.3218  -23.4937   22.4555 C   0  0  0  0  0  0  0  0  0  0  0  0
  -28.3965  -26.2149   22.4539 C   0  0  0  0  0  0  0  0  0  1  0  0
  -25.8552  -11.5997   21.1188 N   0  0  0  0  0  0  0  0  0  0  0  0
  -26.2075  -12.7573   20.5341 N   0  0  0  0  0  0  0  0  0  0  0  0
  -22.4404  -26.5093   25.9059 N   0  0  0  0  0  0  0  0  0  0  0  0
  -29.9227  -13.6334   20.4183 N   0  0  0  0  0  0  0  0  0  0  0  0
  -25.3983  -14.9103   19.9679 N   0  0  0  0  0  0  0  0  0  0  0  0
  -21.8611  -12.9679   21.9955 N   0  0  0  0  0  0  0  0  0  0  0  0
  -29.9933  -15.9737   20.7016 N   0  0  0  0  0  0  0  0  0  0  0  0
  -24.4041  -25.9785   28.9322 N   0  0  0  0  0  0  0  0  0  0  0  0
  -19.5076  -26.4727   24.2161 N   0  0  0  0  0  0  0  0  0  0  0  0
  -29.1551  -22.1350   20.4847 N   0  3  1  0  0  0  0  0  0  0  0  0
  -18.9995  -29.2081   21.9080 N   0  3  0  0  0  0  0  0  0  0  0  0
  -22.5957  -14.8766   20.9583 O   0  0  0  0  0  0  0  0  0  0  0  0
  -23.7063  -24.6637   27.1414 O   0  0  0  0  0  0  0  0  0  0  0  0
  -20.3596  -26.3835   26.9501 O   0  0  0  0  0  0  0  0  0  0  0  0
  -20.6358  -26.9443   22.2459 O   0  0  0  0  0  0  0  0  0  0  0  0
  -31.7844  -14.8369   19.7628 O   0  0  0  0  0  0  0  0  0  0  0  0
  -21.6947   -7.8135   24.1027 O   0  0  0  0  0  0  0  0  0  0  0  0
  -27.4388  -27.2713   22.3617 O   0  0  0  0  0  0  0  0  0  1  0  0
  -22.0369   -2.6854   22.1052 F   0  0  0  0  0  0  0  0  0  0  0  0
  -19.4380   -6.4803   23.2235 F   0  0  0  0  0  0  0  0  0  0  0  0
  1  2  1  0  0  0  0
  1  5  2  0  0  0  0
  2  6  2  0  0  0  0
  3 10  2  0  0  0  0
  3 18  1  0  0  0  0
  4 11  1  0  0  0  0
  4 18  2  0  0  0  0
  5 20  1  0  0  0  0
  6 23  1  0  0  0  0
  7  9  2  0  0  0  0
  7 21  1  0  0  0  0
  8 12  2  0  0  0  0
  8 22  1  0  0  0  0
  9 26  1  0  0  0  0
 10 27  1  0  0  0  0
 11 27  2  0  0  0  0
 12 28  1  0  0  0  0
 13 14  2  0  0  0  0
 13 29  1  0  0  0  0
 14 30  1  0  0  0  0
 15 24  1  0  0  0  0
 15 26  2  0  0  0  0
 16 25  1  0  0  0  0
 16 28  2  0  0  0  0
 17 30  2  0  0  0  0
 17 31  1  0  0  0  0
 18 32  1  0  0  0  0
 19 32  1  0  0  0  0
 19 33  2  0  0  0  0
 19 34  1  0  0  0  0
 20 23  2  0  0  0  0
 20 39  1  0  0  0  0
 21 24  2  0  0  0  0
 21 40  1  0  0  0  0
 22 25  2  0  0  0  0
 22 41  1  0  0  0  0
 23 51  1  0  0  0  0
 24 43  1  0  0  0  0
 25 42  1  0  0  0  0
 26 76  1  0  0  0  0
 27 86  1  0  0  0  0
 28 87  1  0  0  0  0
 29 31  2  0  0  0  0
 29 86  1  0  0  0  0
 30 88  1  0  0  0  0
 31 89  1  0  0  0  0
 32 70  2  0  0  0  0
 33 71  1  0  0  0  0
 33 74  1  0  0  0  0
 34 75  1  0  0  0  0
 34 81  2  0  0  0  0
 35 52  1  0  0  0  0
 35 77  1  0  0  0  0
 35 82  2  0  0  0  0
 36 65  1  0  0  0  0
 36 72  1  0  0  0  0
 36 83  2  0  0  0  0
 37 66  1  0  0  0  0
 37 78  1  0  0  0  0
 37 84  2  0  0  0  0
 38 73  1  0  0  0  0
 38 76  1  0  0  0  0
 38 85  2  0  0  0  0
 39 44  1  0  0  0  0
 40 50  1  0  0  0  0
 41 52  1  0  0  0  0
 42 72  1  0  0  0  0
 43 79  1  0  0  0  0
 44 46  1  0  0  0  0
 45 47  1  0  0  0  0
 45 48  1  0  0  0  0
 46 51  1  0  0  0  0
 47 53  1  0  0  0  0
 48 73  1  0  0  0  0
 49 53  1  0  0  0  0
 49 73  1  0  0  0  0
 50 79  1  0  0  0  0
 51 77  1  0  0  0  0
 52 72  1  0  0  0  0
 53 71  1  0  0  0  0
 54 66  1  0  0  0  0
 55 67  1  0  0  0  0
 56 67  1  0  0  0  0
 57 67  1  0  0  0  0
 58 68  1  0  0  0  0
 59 68  1  0  0  0  0
 60 69  1  0  0  0  0
 61 69  1  0  0  0  0
 62 80  1  0  0  0  0
 63 68  1  0  0  0  0
 63 69  1  0  0  0  0
 64 68  1  0  0  0  0
 64 79  1  0  0  0  0
 65 67  1  0  0  0  0
 65 78  1  0  0  0  0
 66 80  1  0  0  0  0
 69 87  1  0  0  0  0
 70 71  1  0  0  0  0
M  CHG  2  79   1  80   1
M  ISO  4  38 100  69 101  76 100  87 101
M  END
> <Batch ID>
0146

> <Smiles>
CNC(C)C(=O)NC(C(=O)N1Cc2cc([101O:1][101C:1](C)(C)CC(C)(C)CN3CCc4ccc([100NH:0][100C:0](=O)N5CCCC(n6nc(-c7ccc(Oc8ccc(F)cc8F)cc7)c(C(N)=O)c6N)C5)cc4C3)ccc2CC1C(=O)NC1CCCc2ccccc21)C(C)(C)C

> <Shape>
0.244

> <Color>
0.144

> <Negative vol penalty>
0.000

$$$$

  -OEChem-04052303103D

 91101  0     1  0  0  0  0  0999 V2000
  -26.6766  -33.9581   25.7456 C   0  0  0  0  0  0  0  0  0  0  0  0
  -27.1057  -32.7877   25.1281 C   0  0  0  0  0  0  0  0  0  0  0  0
  -29.4698  -12.4396   18.2655 C   0  0  0  0  0  0  0  0  0  0  0  0
  -28.4990  -13.1018   16.1546 C   0  0  0  0  0  0  0  0  0  0  0  0
  -25.3392  -34.1013   26.1128 C   0  0  0  0  0  0  0  0  0  0  0  0
  -26.1978  -31.7591   24.8785 C   0  0  0  0  0  0  0  0  0  0  0  0
  -32.1031  -20.7916   22.1551 C   0  0  0  0  0  0  0  0  0  0  0  0
  -26.6915  -29.8183   20.2272 C   0  0  0  0  0  0  0  0  0  0  0  0
  -30.9830  -20.1411   21.6375 C   0  0  0  0  0  0  0  0  0  0  0  0
  -30.3226  -11.5608   17.5976 C   0  0  0  0  0  0  0  0  0  0  0  0
  -29.3518  -12.2230   15.4867 C   0  0  0  0  0  0  0  0  0  0  0  0
  -27.7450  -28.9298   20.0165 C   0  0  0  0  0  0  0  0  0  0  0  0
  -29.5267   -8.9023   14.8762 C   0  0  0  0  0  0  0  0  0  0  0  0
  -28.9762   -8.0975   13.8787 C   0  0  0  0  0  0  0  0  0  0  0  0
  -26.2156  -27.0761   20.2265 C   0  0  0  0  0  0  0  0  0  0  0  0
  -30.4444  -22.1041   20.3360 C   0  0  0  0  0  0  0  0  0  0  0  0
  -30.4723   -9.0834   12.2579 C   0  0  0  0  0  0  0  0  0  0  0  0
  -28.5579  -13.2100   17.5440 C   0  0  0  0  0  0  0  0  0  0  0  0
  -26.7191  -13.7930   19.2132 C   0  0  0  0  0  0  0  0  0  0  0  0
  -24.4125  -33.0779   25.8589 C   0  0  0  0  0  0  0  0  0  0  0  0
  -25.3919  -29.3413   20.4503 C   0  0  0  0  0  0  0  0  0  0  0  0
  -24.8471  -31.8882   25.2439 C   0  0  0  0  0  0  0  0  0  0  0  0
  -32.3939  -22.0983   21.7632 C   0  0  0  0  0  0  0  0  0  0  0  0
  -25.1469  -27.9608   20.4372 C   0  0  0  0  0  0  0  0  0  0  0  0
  -31.5645  -22.7545   20.8536 C   0  0  0  0  0  0  0  0  0  0  0  0
  -30.1537  -20.7973   20.7280 C   0  0  0  0  0  0  0  0  0  0  0  0
  -30.2636  -11.4525   16.2082 C   0  0  0  0  0  0  0  0  0  0  0  0
  -27.5077  -27.5584   20.0191 C   0  0  0  0  0  0  0  0  0  0  0  0
  -30.5499   -9.7976   14.5646 C   0  0  0  0  0  0  0  0  0  0  0  0
  -29.4490   -8.1881   12.5696 C   0  0  0  0  0  0  0  0  0  0  0  0
  -31.0227   -9.8882   13.2554 C   0  0  0  0  0  0  0  0  0  0  0  0
  -27.6763  -14.1176   18.2334 C   0  0  0  0  0  0  0  0  0  0  0  0
  -26.1499  -14.9970   19.5493 C   0  0  0  0  0  0  0  0  0  0  0  0
  -33.3707  -25.8223   19.6101 C   0  0  0  0  0  0  0  0  0  0  0  0
  -26.3752  -12.5173   19.7699 C   0  0  0  0  0  0  0  0  0  0  0  0
  -23.3154  -29.5271   22.8498 C   0  0  0  0  0  0  0  0  0  0  0  0
  -21.3353  -28.0681   20.7348 C   0  0  0  0  0  0  0  0  0  0  0  0
  -20.9951  -26.1073   17.9624 C   0  0  0  0  0  0  0  0  0  0  0  0
  -28.0898  -20.6428   19.2917 C   0  0  0  0  0  0  0  0  0  0  0  0
  -22.9870  -33.2593   26.3167 C   0  0  0  0  0  0  0  0  0  0  0  0
  -24.2616  -30.3136   20.6493 C   0  0  0  0  0  0  0  0  0  0  0  0
  -23.7663  -27.3983   20.6518 C   0  0  0  0  0  0  0  0  0  0  0  0
  -32.2389  -26.7205   19.1705 C   0  0  0  0  0  0  0  0  0  0  0  0
  -33.1132  -24.3484   19.7792 C   0  0  0  0  0  0  0  0  0  0  0  0
  -22.0120  -32.2734   25.6783 C   0  0  0  0  0  0  0  0  0  0  0  0
  -25.1784  -19.3182   17.7278 C   0  0  0  0  0  0  0  0  0  0  0  0
  -34.9624  -22.2214   22.0109 C   0  0  0  0  0  0  0  0  0  0  0  0
  -34.4019  -22.0613   23.3895 C   0  0  0  0  0  0  0  0  0  0  0  0
  -22.5773  -30.8575   25.7251 C   0  0  0  0  0  0  0  0  0  0  0  0
  -25.3986  -17.8044   17.7746 C   0  0  0  0  0  0  0  0  0  0  0  0
  -26.4833  -20.0738   17.4832 C   0  0  0  0  0  0  0  0  0  0  0  0
  -27.7954  -18.2287   18.4544 C   0  0  0  0  0  0  0  0  0  0  0  0
  -33.5992  -22.7718   22.3330 C   0  0  0  0  0  0  0  0  0  0  0  0
  -23.8873  -30.7600   24.9339 C   0  0  1  0  0  0  0  0  0  0  0  0
  -23.0688  -29.7023   21.3780 C   0  0  1  0  0  0  0  0  0  0  0  0
  -26.5196  -17.4283   18.7632 C   0  0  2  0  0  0  0  0  0  0  0  0
  -30.8613  -25.1577   20.6487 C   0  0  2  0  0  0  0  0  0  0  0  0
  -30.8484  -26.1062   19.4084 C   0  0  2  0  0  0  0  0  0  0  0  0
  -30.3949  -25.3246   18.1505 C   0  0  0  0  0  0  0  0  0  0  0  0
  -31.1297  -24.9009   23.1204 C   0  0  0  0  0  0  0  0  0  0  0  0
  -19.2519  -25.0552   16.4955 C   0  0  0  0  0  0  0  0  0  0  0  0
  -20.8247  -25.9466   22.8675 C   0  0  0  0  0  0  0  0  0  0  0  0
  -19.8795  -24.4739   21.0770 C   0  0  0  0  0  0  0  0  0  0  0  0
  -18.7920  -26.6581   21.5961 C   0  0  0  0  0  0  0  0  0  0  0  0
  -21.9284  -27.6010   15.5840 C   0  0  0  0  0  0  0  0  0  0  0  0
  -31.1564  -25.8622   21.9826 C   0  0  0  0  0  0  0  0  0  0  0  0
  -29.8290  -27.2506   19.6035 C   0  0  0  0  0  0  0  0  0  1  0  0
  -21.0119  -26.6353   20.3863 C   0  0  1  0  0  0  0  0  0  0  0  0
  -20.1455  -26.2661   16.7144 C   0  0  2  0  0  0  0  0  0  0  0  0
  -20.1535  -25.9387   21.4796 C   0  0  0  0  0  0  0  0  0  0  0  0
  -27.7158  -15.4253   17.9643 N   0  0  0  0  0  0  0  0  0  0  0  0
  -26.7762  -15.9330   18.7800 N   0  0  0  0  0  0  0  0  0  0  0  0
  -31.8397  -24.0688   20.4486 N   0  0  3  0  0  0  0  0  0  0  0  0
  -22.6954  -28.3892   20.8483 N   0  0  0  0  0  0  0  0  0  0  0  0
  -27.4971  -19.6695   18.4597 N   0  0  0  0  0  0  0  0  0  0  0  0
  -25.1798  -15.3357   20.4248 N   0  0  0  0  0  0  0  0  0  0  0  0
  -25.3668  -11.7674   19.1494 N   0  0  0  0  0  0  0  0  0  0  0  0
  -29.0159  -20.1360   20.2028 N   0  0  0  0  0  0  0  0  0  0  0  0
  -23.6166  -30.7010   23.5134 N   0  0  0  0  0  0  0  0  0  0  0  0
  -20.3890  -26.6666   19.0674 N   0  0  0  0  0  0  0  0  0  0  0  0
  -21.0135  -26.4326   15.5145 N   0  3  0  0  0  0  0  0  0  0  0  0
  -34.5099  -26.2776   19.7374 O   0  0  0  0  0  0  0  0  0  0  0  0
  -26.9338  -12.0633   20.7972 O   0  0  0  0  0  0  0  0  0  0  0  0
  -23.2365  -28.4097   23.3467 O   0  0  0  0  0  0  0  0  0  0  0  0
  -20.4153  -28.8743   20.8933 O   0  0  0  0  0  0  0  0  0  0  0  0
  -22.0855  -25.5403   17.9581 O   0  0  0  0  0  0  0  0  0  0  0  0
  -27.7775  -21.8342   19.2209 O   0  0  0  0  0  0  0  0  0  0  0  0
  -31.0958  -10.5953   15.5562 O   0  0  0  0  0  0  0  0  0  0  0  0
  -28.5343  -26.6889   19.8144 O   0  0  0  0  0  0  0  0  0  1  0  0
  -28.9214   -7.4141   11.6121 F   0  0  0  0  0  0  0  0  0  0  0  0
  -32.0062  -10.7456   12.9502 F   0  0  0  0  0  0  0  0  0  0  0  0
  1  2  1  0  0  0  0
  1  5  2  0  0  0  0
  2  6  2  0  0  0  0
  3 10  2  0  0  0  0
  3 18  1  0  0  0  0
  4 11  1  0  0  0  0
  4 18  2  0  0  0  0
  5 20  1  0  0  0  0
  6 22  1  0  0  0  0
  7  9  2  0  0  0  0
  7 23  1  0  0  0  0
  8 12  2  0  0  0  0
  8 21  1  0  0  0  0
  9 26  1  0  0  0  0
 10 27  1  0  0  0  0
 11 27  2  0  0  0  0
 12 28  1  0  0  0  0
 13 14  2  0  0  0  0
 13 29  1  0  0  0  0
 14 30  1  0  0  0  0
 15 24  1  0  0  0  0
 15 28  2  0  0  0  0
 16 25  1  0  0  0  0
 16 26  2  0  0  0  0
 17 30  2  0  0  0  0
 17 31  1  0  0  0  0
 18 32  1  0  0  0  0
 19 32  1  0  0  0  0
 19 33  2  0  0  0  0
 19 35  1  0  0  0  0
 20 22  2  0  0  0  0
 20 40  1  0  0  0  0
 21 24  2  0  0  0  0
 21 41  1  0  0  0  0
 22 54  1  0  0  0  0
 23 25  2  0  0  0  0
 23 53  1  0  0  0  0
 24 42  1  0  0  0  0
 25 73  1  0  0  0  0
 26 78  1  0  0  0  0
 27 88  1  0  0  0  0
 28 89  1  0  0  0  0
 29 31  2  0  0  0  0
 29 88  1  0  0  0  0
 30 90  1  0  0  0  0
 31 91  1  0  0  0  0
 32 71  2  0  0  0  0
 33 72  1  0  0  0  0
 33 76  1  0  0  0  0
 34 43  1  0  0  0  0
 34 44  1  0  0  0  0
 34 82  2  0  0  0  0
 35 77  1  0  0  0  0
 35 83  2  0  0  0  0
 36 55  1  0  0  0  0
 36 79  1  0  0  0  0
 36 84  2  0  0  0  0
 37 68  1  0  0  0  0
 37 74  1  0  0  0  0
 37 85  2  0  0  0  0
 38 69  1  0  0  0  0
 38 80  1  0  0  0  0
 38 86  2  0  0  0  0
 39 75  1  0  0  0  0
 39 78  1  0  0  0  0
 39 87  2  0  0  0  0
 40 45  1  0  0  0  0
 41 55  1  0  0  0  0
 42 74  1  0  0  0  0
 43 58  1  0  0  0  0
 44 73  1  0  0  0  0
 45 49  1  0  0  0  0
 46 50  1  0  0  0  0
 46 51  1  0  0  0  0
 47 48  1  0  0  0  0
 47 53  1  0  0  0  0
 48 53  1  0  0  0  0
 49 54  1  0  0  0  0
 50 56  1  0  0  0  0
 51 75  1  0  0  0  0
 52 56  1  0  0  0  0
 52 75  1  0  0  0  0
 54 79  1  0  0  0  0
 55 74  1  0  0  0  0
 56 72  1  0  0  0  0
 57 58  1  0  0  0  0
 57 66  1  0  0  0  0
 57 73  1  0  0  0  0
 58 59  1  0  0  0  0
 58 67  1  0  0  0  0
 60 66  1  0  0  0  0
 61 69  1  0  0  0  0
 62 70  1  0  0  0  0
 63 70  1  0  0  0  0
 64 70  1  0  0  0  0
 65 81  1  0  0  0  0
 67 89  1  0  0  0  0
 68 70  1  0  0  0  0
 68 80  1  0  0  0  0
 69 81  1  0  0  0  0
 71 72  1  0  0  0  0
M  CHG  1  81   1
M  ISO  4  39 100  67 101  78 100  89 101
M  END
> <Batch ID>
0146

> <Smiles>
CCC1N(c2cc([100NH:0][100C:0](=O)N3CCCC(n4nc(-c5ccc(Oc6ccc(F)cc6F)cc5)c(C(N)=O)c4N)C3)ccc2C2CC2)CC(=O)CC1(C)[101CH2:1][101O:1]c1ccc2c(c1)CN(C(=O)C(NC(=O)C(C)NC)C(C)(C)C)C(C(=O)NC1CCCc3ccccc31)C2

> <Shape>
0.241

> <Color>
0.094

> <Negative vol penalty>
0.000

$$$$

  -OEChem-04052303103D

 83 92  0     1  0  0  0  0  0999 V2000
  -21.4834   -7.6918   24.1401 C   0  0  0  0  0  0  0  0  0  0  0  0
  -22.8382   -7.9311   24.3464 C   0  0  0  0  0  0  0  0  0  0  0  0
  -25.5167  -31.5121   22.2842 C   0  0  0  0  0  0  0  0  0  0  0  0
  -26.8383  -32.0341   20.3302 C   0  0  0  0  0  0  0  0  0  0  0  0
  -20.8770   -8.1019   22.9535 C   0  0  0  0  0  0  0  0  0  0  0  0
  -23.5877   -8.5798   23.3656 C   0  0  0  0  0  0  0  0  0  0  0  0
  -29.1190  -13.0714   22.6259 C   0  0  0  0  0  0  0  0  0  0  0  0
  -25.6360  -32.8324   22.7177 C   0  0  0  0  0  0  0  0  0  0  0  0
  -26.9576  -33.3545   20.7637 C   0  0  0  0  0  0  0  0  0  0  0  0
  -30.3340  -13.1818   21.9511 C   0  0  0  0  0  0  0  0  0  0  0  0
  -24.2271  -35.8236   22.0099 C   0  0  0  0  0  0  0  0  0  0  0  0
  -23.0772  -36.4581   22.4796 C   0  0  0  0  0  0  0  0  0  0  0  0
  -29.1625  -13.9158   19.9742 C   0  0  0  0  0  0  0  0  0  0  0  0
  -30.0872  -18.6183   18.4031 C   0  0  0  0  0  0  0  0  0  0  0  0
  -24.1364  -36.7891   24.6257 C   0  0  0  0  0  0  0  0  0  0  0  0
  -26.1179  -31.1128   21.0905 C   0  0  0  0  0  0  0  0  0  0  0  0
  -24.9886  -29.2121   19.8178 C   0  0  0  0  0  0  0  0  0  0  0  0
  -21.6173   -8.7645   21.9618 C   0  0  0  0  0  0  0  0  0  0  0  0
  -27.9137  -13.3724   21.9755 C   0  0  0  0  0  0  0  0  0  0  0  0
  -22.9910   -8.9980   22.1641 C   0  0  0  0  0  0  0  0  0  0  0  0
  -27.9338  -13.8108   20.6438 C   0  0  0  0  0  0  0  0  0  0  0  0
  -29.8902  -19.9405   18.0616 C   0  0  0  0  0  0  0  0  0  0  0  0
  -26.3565  -33.7537   21.9575 C   0  0  0  0  0  0  0  0  0  0  0  0
  -30.3557  -13.6012   20.6242 C   0  0  0  0  0  0  0  0  0  0  0  0
  -25.3317  -35.6717   22.8481 C   0  0  0  0  0  0  0  0  0  0  0  0
  -23.0318  -36.9409   23.7874 C   0  0  0  0  0  0  0  0  0  0  0  0
  -25.2864  -36.1545   24.1560 C   0  0  0  0  0  0  0  0  0  0  0  0
  -25.9954  -29.7489   20.6424 C   0  0  0  0  0  0  0  0  0  0  0  0
  -30.9268  -20.7492   18.3118 C   0  0  0  0  0  0  0  0  0  0  0  0
  -25.3219  -27.8860   19.6879 C   0  0  0  0  0  0  0  0  0  0  0  0
  -31.3732  -18.4977   18.9326 C   0  0  0  0  0  0  0  0  0  0  0  0
  -23.8537  -29.8548   19.2223 C   0  0  0  0  0  0  0  0  0  0  0  0
  -25.2964  -11.7302   21.2296 C   0  0  0  0  0  0  0  0  0  0  0  0
  -24.2176  -14.6357   20.2725 C   0  0  0  0  0  0  0  0  0  0  0  0
  -24.9547  -17.7905   19.1997 C   0  0  0  0  0  0  0  0  0  0  0  0
  -29.1803  -24.0962   18.6044 C   0  0  0  0  0  0  0  0  0  0  0  0
  -20.9286   -9.1469   20.6756 C   0  0  0  0  0  0  0  0  0  0  0  0
  -26.6137  -13.2739   22.7255 C   0  0  0  0  0  0  0  0  0  0  0  0
  -29.0207  -21.0202   17.5110 C   0  0  0  0  0  0  0  0  0  0  0  0
  -26.6692  -14.1656   19.9066 C   0  0  0  0  0  0  0  0  0  0  0  0
  -21.7098  -10.1617   19.8448 C   0  0  0  0  0  0  0  0  0  0  0  0
  -28.7062  -25.0718   22.1401 C   0  0  0  0  0  0  0  0  0  0  0  0
  -23.1771   -9.7562   19.7482 C   0  0  0  0  0  0  0  0  0  0  0  0
  -27.9226  -26.3708   21.9813 C   0  0  0  0  0  0  0  0  0  0  0  0
  -29.6993  -24.8554   20.9989 C   0  0  0  0  0  0  0  0  0  0  0  0
  -28.2873  -26.2264   19.4883 C   0  0  0  0  0  0  0  0  0  0  0  0
  -23.8320   -9.7208   21.1344 C   0  0  1  0  0  0  0  0  0  0  0  0
  -30.2378  -21.9711   17.7821 C   0  0  1  0  0  0  0  0  0  0  0  0
  -25.4054  -13.1125   21.8082 C   0  0  1  0  0  0  0  0  0  0  0  0
  -27.2494  -26.4308   20.6020 C   0  0  2  0  0  0  0  0  0  0  0  0
  -23.8623  -19.9253   18.4603 C   0  0  0  0  0  0  0  0  0  0  0  0
  -23.5726  -13.3679   17.5731 C   0  0  0  0  0  0  0  0  0  0  0  0
  -23.3968  -15.6726   16.6111 C   0  0  0  0  0  0  0  0  0  0  0  0
  -21.8369  -14.9562   18.4211 C   0  0  0  0  0  0  0  0  0  0  0  0
  -33.4982  -14.8274   19.2163 C   0  0  0  0  0  0  0  0  0  0  0  0
  -32.5518  -15.2630   21.4933 C   0  0  0  0  0  0  0  0  0  0  0  0
  -26.1773  -19.3205   21.4186 C   0  0  0  0  0  0  0  0  0  0  0  0
  -31.3163  -16.0474   19.3999 C   0  0  0  0  0  0  0  0  0  0  0  0
  -24.2580  -15.4194   18.9828 C   0  0  1  0  0  0  0  0  0  0  0  0
  -24.4367  -19.1493   19.6353 C   0  0  2  0  0  0  0  0  0  0  0  0
  -23.2899  -14.8456   17.9100 C   0  0  0  0  0  0  0  0  0  0  0  0
  -32.2094  -14.9678   20.0307 C   0  0  0  0  0  0  0  0  0  1  0  0
  -26.9004  -28.8381   21.0106 N   0  0  0  0  0  0  0  0  0  0  0  0
  -26.4634  -27.7157   20.4146 N   0  0  0  0  0  0  0  0  0  0  0  0
  -25.4227  -14.0471   20.6810 N   0  0  0  0  0  0  0  0  0  0  0  0
  -29.0548  -24.9901   19.6828 N   0  0  0  0  0  0  0  0  0  0  0  0
  -24.7469  -26.8607   19.0241 N   0  0  0  0  0  0  0  0  0  0  0  0
  -23.6605  -31.2228   19.4581 N   0  0  0  0  0  0  0  0  0  0  0  0
  -31.9686  -17.3377   19.3985 N   0  0  0  0  0  0  0  0  0  0  0  0
  -24.1394  -11.0621   21.5825 N   0  0  0  0  0  0  0  0  0  0  0  0
  -23.9965  -16.8092   19.3414 N   0  0  0  0  0  0  0  0  0  0  0  0
  -30.0006  -22.9934   18.8217 N   0  0  0  0  0  0  0  0  0  0  0  0
  -25.5369  -19.9544   20.2374 N   0  3  0  0  0  0  0  0  0  0  0  0
  -23.0260  -29.2307   18.5159 O   0  0  0  0  0  0  0  0  0  0  0  0
  -26.1948  -11.3019   20.5146 O   0  0  0  0  0  0  0  0  0  0  0  0
  -23.1575  -14.5550   20.8981 O   0  0  0  0  0  0  0  0  0  0  0  0
  -26.0942  -17.6176   18.7727 O   0  0  0  0  0  0  0  0  0  0  0  0
  -28.6112  -24.2662   17.5207 O   0  0  0  0  0  0  0  0  0  0  0  0
  -26.4729  -35.0422   22.3801 O   0  0  0  0  0  0  0  0  0  0  0  0
  -31.5402  -13.7092   19.9630 O   0  0  0  0  0  0  0  0  0  1  0  0
  -21.9281  -37.5516   24.2378 F   0  0  0  0  0  0  0  0  0  0  0  0
  -26.3448  -36.0126   24.9655 F   0  0  0  0  0  0  0  0  0  0  0  0
  -32.2396  -20.0274   18.9659 S   0  0  0  0  0  0  0  0  0  0  0  0
  1  2  1  0  0  0  0
  1  5  2  0  0  0  0
  2  6  2  0  0  0  0
  3  8  2  0  0  0  0
  3 16  1  0  0  0  0
  4  9  1  0  0  0  0
  4 16  2  0  0  0  0
  5 18  1  0  0  0  0
  6 20  1  0  0  0  0
  7 10  2  0  0  0  0
  7 19  1  0  0  0  0
  8 23  1  0  0  0  0
  9 23  2  0  0  0  0
 10 24  1  0  0  0  0
 11 12  2  0  0  0  0
 11 25  1  0  0  0  0
 12 26  1  0  0  0  0
 13 21  1  0  0  0  0
 13 24  2  0  0  0  0
 14 22  1  0  0  0  0
 14 31  2  0  0  0  0
 15 26  2  0  0  0  0
 15 27  1  0  0  0  0
 16 28  1  0  0  0  0
 17 28  1  0  0  0  0
 17 30  2  0  0  0  0
 17 32  1  0  0  0  0
 18 20  2  0  0  0  0
 18 37  1  0  0  0  0
 19 21  2  0  0  0  0
 19 38  1  0  0  0  0
 20 47  1  0  0  0  0
 21 40  1  0  0  0  0
 22 29  2  0  0  0  0
 22 39  1  0  0  0  0
 23 79  1  0  0  0  0
 24 80  1  0  0  0  0
 25 27  2  0  0  0  0
 25 79  1  0  0  0  0
 26 81  1  0  0  0  0
 27 82  1  0  0  0  0
 28 63  2  0  0  0  0
 29 48  1  0  0  0  0
 29 83  1  0  0  0  0
 30 64  1  0  0  0  0
 30 67  1  0  0  0  0
 31 69  1  0  0  0  0
 31 83  1  0  0  0  0
 32 68  1  0  0  0  0
 32 74  2  0  0  0  0
 33 49  1  0  0  0  0
 33 70  1  0  0  0  0
 33 75  2  0  0  0  0
 34 59  1  0  0  0  0
 34 65  1  0  0  0  0
 34 76  2  0  0  0  0
 35 60  1  0  0  0  0
 35 71  1  0  0  0  0
 35 77  2  0  0  0  0
 36 66  1  0  0  0  0
 36 72  1  0  0  0  0
 36 78  2  0  0  0  0
 37 41  1  0  0  0  0
 38 49  1  0  0  0  0
 39 48  1  0  0  0  0
 40 65  1  0  0  0  0
 41 43  1  0  0  0  0
 42 44  1  0  0  0  0
 42 45  1  0  0  0  0
 43 47  1  0  0  0  0
 44 50  1  0  0  0  0
 45 66  1  0  0  0  0
 46 50  1  0  0  0  0
 46 66  1  0  0  0  0
 47 70  1  0  0  0  0
 48 72  1  0  0  0  0
 49 65  1  0  0  0  0
 50 64  1  0  0  0  0
 51 60  1  0  0  0  0
 52 61  1  0  0  0  0
 53 61  1  0  0  0  0
 54 61  1  0  0  0  0
 55 62  1  0  0  0  0
 56 62  1  0  0  0  0
 57 73  1  0  0  0  0
 58 62  1  0  0  0  0
 58 69  1  0  0  0  0
 59 61  1  0  0  0  0
 59 71  1  0  0  0  0
 60 73  1  0  0  0  0
 62 80  1  0  0  0  0
 63 64  1  0  0  0  0
M  CHG  1  73   1
M  ISO  4  36 100  62 101  72 100  80 101
M  END
> <Batch ID>
0146

> <Smiles>
CNC(C)C(=O)NC(C(=O)N1Cc2cc([101O:1][101C:1](C)(C)CNc3cc4c(s3)C([100NH:0][100C:0](=O)N3CCCC(n5nc(-c6ccc(Oc7ccc(F)cc7F)cc6)c(C(N)=O)c5N)C3)C4)ccc2CC1C(=O)NC1CCCc2ccccc21)C(C)(C)C

> <Shape>
0.285

> <Color>
0.072

> <Negative vol penalty>
0.000

$$$$

  -OEChem-04052303103D

 85 94  0     1  0  0  0  0  0999 V2000
  -26.8531  -38.2026   20.0178 C   0  0  0  0  0  0  0  0  0  0  0  0
  -27.4680  -36.9739   19.7997 C   0  0  0  0  0  0  0  0  0  0  0  0
  -24.0656   -9.0835   22.0677 C   0  0  0  0  0  0  0  0  0  0  0  0
  -23.5765  -11.2285   23.0659 C   0  0  0  0  0  0  0  0  0  0  0  0
  -25.9004  -38.3346   21.0272 C   0  0  0  0  0  0  0  0  0  0  0  0
  -27.1313  -35.8767   20.5916 C   0  0  0  0  0  0  0  0  0  0  0  0
  -26.8613  -30.0152   18.8379 C   0  0  0  0  0  0  0  0  0  0  0  0
  -23.4893   -8.4419   23.1640 C   0  0  0  0  0  0  0  0  0  0  0  0
  -23.0001  -10.5870   24.1622 C   0  0  0  0  0  0  0  0  0  0  0  0
  -27.7598  -28.9564   18.9627 C   0  0  0  0  0  0  0  0  0  0  0  0
  -20.3786   -7.7199   24.2755 C   0  0  0  0  0  0  0  0  0  0  0  0
  -19.5105   -6.6579   24.0223 C   0  0  0  0  0  0  0  0  0  0  0  0
  -28.3544  -17.7773   21.5597 C   0  0  0  0  0  0  0  0  0  0  0  0
  -26.6114  -28.2244   20.9538 C   0  0  0  0  0  0  0  0  0  0  0  0
  -30.2155  -17.6784   19.9533 C   0  0  0  0  0  0  0  0  0  0  0  0
  -20.9519   -5.1805   25.2781 C   0  0  0  0  0  0  0  0  0  0  0  0
  -24.1093  -10.4768   22.0187 C   0  0  0  0  0  0  0  0  0  0  0  0
  -24.0604  -11.5445   19.7024 C   0  0  0  0  0  0  0  0  0  0  0  0
  -25.5449  -37.2361   21.8256 C   0  0  0  0  0  0  0  0  0  0  0  0
  -25.8360  -30.1931   19.7779 C   0  0  0  0  0  0  0  0  0  0  0  0
  -26.1740  -35.9945   21.6135 C   0  0  0  0  0  0  0  0  0  0  0  0
  -28.3508  -19.1318   21.3693 C   0  0  0  0  0  0  0  0  0  0  0  0
  -25.6996  -29.2847   20.8373 C   0  0  0  0  0  0  0  0  0  0  0  0
  -29.2484  -19.7157   20.5042 C   0  0  0  0  0  0  0  0  0  0  0  0
  -29.3059  -17.0424   20.8362 C   0  0  0  0  0  0  0  0  0  0  0  0
  -22.9565   -9.1936   24.2112 C   0  0  0  0  0  0  0  0  0  0  0  0
  -27.6367  -28.0625   20.0223 C   0  0  0  0  0  0  0  0  0  0  0  0
  -21.5334   -7.5123   25.0299 C   0  0  0  0  0  0  0  0  0  0  0  0
  -19.7971   -5.3882   24.5236 C   0  0  0  0  0  0  0  0  0  0  0  0
  -30.1962  -19.0623   19.7724 C   0  0  0  0  0  0  0  0  0  0  0  0
  -21.8200   -6.2426   25.5312 C   0  0  0  0  0  0  0  0  0  0  0  0
  -24.7050  -11.1401   20.8868 C   0  0  0  0  0  0  0  0  0  0  0  0
  -25.0543  -12.1220   18.9506 C   0  0  0  0  0  0  0  0  0  0  0  0
  -22.6862  -11.4103   19.3164 C   0  0  0  0  0  0  0  0  0  0  0  0
  -25.0611  -32.4788   21.8465 C   0  0  0  0  0  0  0  0  0  0  0  0
  -29.1264  -22.1945   20.2561 C   0  0  0  0  0  0  0  0  0  0  0  0
  -22.4359  -30.6303   22.3089 C   0  0  0  0  0  0  0  0  0  0  0  0
  -21.0043  -27.5370   22.1403 C   0  0  0  0  0  0  0  0  0  0  0  0
  -30.2333  -14.7496   20.3575 C   0  0  0  0  0  0  0  0  0  0  0  0
  -24.5441  -37.4390   22.9355 C   0  0  0  0  0  0  0  0  0  0  0  0
  -24.8587  -31.3247   19.6142 C   0  0  0  0  0  0  0  0  0  0  0  0
  -27.7552  -20.4734   21.6959 C   0  0  0  0  0  0  0  0  0  0  0  0
  -24.6038  -29.4198   21.8617 C   0  0  0  0  0  0  0  0  0  0  0  0
  -23.9709  -36.1352   23.4848 C   0  0  0  0  0  0  0  0  0  0  0  0
  -29.7837  -11.9378   18.2200 C   0  0  0  0  0  0  0  0  0  0  0  0
  -25.0866  -35.1259   23.7370 C   0  0  0  0  0  0  0  0  0  0  0  0
  -28.3693  -11.4547   18.5491 C   0  0  0  0  0  0  0  0  0  0  0  0
  -30.5120  -12.4484   19.4620 C   0  0  0  0  0  0  0  0  0  0  0  0
  -28.3731  -12.9848   20.5605 C   0  0  0  0  0  0  0  0  0  0  0  0
  -25.8175  -34.7748   22.4354 C   0  0  1  0  0  0  0  0  0  0  0  0
  -24.1654  -31.7087   20.9178 C   0  0  1  0  0  0  0  0  0  0  0  0
  -27.5768  -12.5215   19.3297 C   0  0  2  0  0  0  0  0  0  0  0  0
  -18.8570  -26.3312   22.6222 C   0  0  0  0  0  0  0  0  0  0  0  0
  -23.0800  -30.6803   25.2909 C   0  0  0  0  0  0  0  0  0  0  0  0
  -21.5231  -28.7424   25.5887 C   0  0  0  0  0  0  0  0  0  0  0  0
  -20.6516  -30.9217   24.7440 C   0  0  0  0  0  0  0  0  0  0  0  0
  -20.6651  -26.7664   19.3030 C   0  0  0  0  0  0  0  0  0  0  0  0
  -28.3098  -23.3345   20.8045 C   0  0  0  0  0  0  0  0  0  0  0  0
  -28.7889  -24.6462   20.1999 C   0  0  0  0  0  0  0  0  0  0  0  0
  -28.0272  -25.8366   20.7631 C   0  0  0  0  0  0  0  0  0  1  0  0
  -22.0814  -29.4880   23.2300 C   0  0  1  0  0  0  0  0  0  0  0  0
  -19.6742  -27.0720   21.5753 C   0  0  2  0  0  0  0  0  0  0  0  0
  -21.8560  -29.9564   24.6954 C   0  0  0  0  0  0  0  0  0  0  0  0
  -26.0076  -11.4355   20.8917 N   0  0  0  0  0  0  0  0  0  0  0  0
  -26.1896  -12.0316   19.7010 N   0  0  0  0  0  0  0  0  0  0  0  0
  -28.7639  -20.9744   20.7461 N   0  0  0  0  0  0  0  0  0  0  0  0
  -23.6770  -30.5461   21.6620 N   0  0  0  0  0  0  0  0  0  0  0  0
  -29.7034  -13.4588   20.1477 N   0  0  0  0  0  0  0  0  0  0  0  0
  -25.0592  -12.6931   17.7274 N   0  0  0  0  0  0  0  0  0  0  0  0
  -21.7990  -10.7922   20.2081 N   0  0  0  0  0  0  0  0  0  0  0  0
  -29.3612  -15.6349   20.9902 N   0  0  0  0  0  0  0  0  0  0  0  0
  -25.0331  -33.8462   21.6500 N   0  0  0  0  0  0  0  0  0  0  0  0
  -20.9291  -28.8233   22.6312 N   0  0  0  0  0  0  0  0  0  0  0  0
  -19.8937  -26.1592   20.4180 N   0  3  0  0  0  0  0  0  0  0  0  0
  -22.2610  -11.8114   18.2065 O   0  0  0  0  0  0  0  0  0  0  0  0
  -25.7272  -31.8769   22.6806 O   0  0  0  0  0  0  0  0  0  0  0  0
  -30.0283  -22.3894   19.4429 O   0  0  0  0  0  0  0  0  0  0  0  0
  -21.6378  -31.5595   22.1630 O   0  0  0  0  0  0  0  0  0  0  0  0
  -22.0086  -26.8285   22.1488 O   0  0  0  0  0  0  0  0  0  0  0  0
  -31.3665  -15.0555   19.9778 O   0  0  0  0  0  0  0  0  0  0  0  0
  -22.3938   -8.5679   25.2810 O   0  0  0  0  0  0  0  0  0  0  0  0
  -28.5127  -27.0286   20.1468 O   0  0  0  0  0  0  0  0  0  1  0  0
  -18.9626   -4.3687   24.2818 F   0  0  0  0  0  0  0  0  0  0  0  0
  -31.0411  -19.6850   18.9476 F   0  0  0  0  0  0  0  0  0  0  0  0
  -22.9272   -6.0372   26.2576 F   0  0  0  0  0  0  0  0  0  0  0  0
  1  2  1  0  0  0  0
  1  5  2  0  0  0  0
  2  6  2  0  0  0  0
  3  8  2  0  0  0  0
  3 17  1  0  0  0  0
  4  9  1  0  0  0  0
  4 17  2  0  0  0  0
  5 19  1  0  0  0  0
  6 21  1  0  0  0  0
  7 10  2  0  0  0  0
  7 20  1  0  0  0  0
  8 26  1  0  0  0  0
  9 26  2  0  0  0  0
 10 27  1  0  0  0  0
 11 12  2  0  0  0  0
 11 28  1  0  0  0  0
 12 29  1  0  0  0  0
 13 22  1  0  0  0  0
 13 25  2  0  0  0  0
 14 23  1  0  0  0  0
 14 27  2  0  0  0  0
 15 25  1  0  0  0  0
 15 30  2  0  0  0  0
 16 29  2  0  0  0  0
 16 31  1  0  0  0  0
 17 32  1  0  0  0  0
 18 32  1  0  0  0  0
 18 33  2  0  0  0  0
 18 34  1  0  0  0  0
 19 21  2  0  0  0  0
 19 40  1  0  0  0  0
 20 23  2  0  0  0  0
 20 41  1  0  0  0  0
 21 50  1  0  0  0  0
 22 24  2  0  0  0  0
 22 42  1  0  0  0  0
 23 43  1  0  0  0  0
 24 30  1  0  0  0  0
 24 66  1  0  0  0  0
 25 71  1  0  0  0  0
 26 81  1  0  0  0  0
 27 82  1  0  0  0  0
 28 31  2  0  0  0  0
 28 81  1  0  0  0  0
 29 83  1  0  0  0  0
 30 84  1  0  0  0  0
 31 85  1  0  0  0  0
 32 64  2  0  0  0  0
 33 65  1  0  0  0  0
 33 69  1  0  0  0  0
 34 70  1  0  0  0  0
 34 75  2  0  0  0  0
 35 51  1  0  0  0  0
 35 72  1  0  0  0  0
 35 76  2  0  0  0  0
 36 58  1  0  0  0  0
 36 66  1  0  0  0  0
 36 77  2  0  0  0  0
 37 61  1  0  0  0  0
 37 67  1  0  0  0  0
 37 78  2  0  0  0  0
 38 62  1  0  0  0  0
 38 73  1  0  0  0  0
 38 79  2  0  0  0  0
 39 68  1  0  0  0  0
 39 71  1  0  0  0  0
 39 80  2  0  0  0  0
 40 44  1  0  0  0  0
 41 51  1  0  0  0  0
 42 66  1  0  0  0  0
 43 67  1  0  0  0  0
 44 46  1  0  0  0  0
 45 47  1  0  0  0  0
 45 48  1  0  0  0  0
 46 50  1  0  0  0  0
 47 52  1  0  0  0  0
 48 68  1  0  0  0  0
 49 52  1  0  0  0  0
 49 68  1  0  0  0  0
 50 72  1  0  0  0  0
 51 67  1  0  0  0  0
 52 65  1  0  0  0  0
 53 62  1  0  0  0  0
 54 63  1  0  0  0  0
 55 63  1  0  0  0  0
 56 63  1  0  0  0  0
 57 74  1  0  0  0  0
 58 59  1  0  0  0  0
 59 60  1  0  0  0  0
 60 82  1  0  0  0  0
 61 63  1  0  0  0  0
 61 73  1  0  0  0  0
 62 74  1  0  0  0  0
 64 65  1  0  0  0  0
M  CHG  1  74   1
M  ISO  4  39 100  60 101  71 100  82 101
M  END
> <Batch ID>
0146

> <Smiles>
CNC(C)C(=O)NC(C(=O)N1Cc2cc([101O:1][101CH2:1]CCC(=O)N3Cc4cc([100NH:0][100C:0](=O)N5CCCC(n6nc(-c7ccc(Oc8ccc(F)cc8F)cc7)c(C(N)=O)c6N)C5)cc(F)c43)ccc2CC1C(=O)NC1CCCc2ccccc21)C(C)(C)C

> <Shape>
0.345

> <Color>
0.109

> <Negative vol penalty>
0.000

$$$$

  -OEChem-04052303103D

 79 87  0     1  0  0  0  0  0999 V2000
  -32.4328  -13.2660   20.9668 C   0  0  0  0  0  0  0  0  0  0  0  0
  -31.9417  -14.5617   21.0902 C   0  0  0  0  0  0  0  0  0  0  0  0
  -26.1741  -27.7103   22.2310 C   0  0  0  0  0  0  0  0  0  0  0  0
  -26.1750  -28.9870   20.1798 C   0  0  0  0  0  0  0  0  0  0  0  0
  -31.6564  -12.2828   20.3549 C   0  0  0  0  0  0  0  0  0  0  0  0
  -30.6743  -14.8753   20.6006 C   0  0  0  0  0  0  0  0  0  0  0  0
  -25.0595  -19.1142   21.9505 C   0  0  0  0  0  0  0  0  0  0  0  0
  -27.1530  -26.8665   21.7063 C   0  0  0  0  0  0  0  0  0  0  0  0
  -27.1540  -28.1432   19.6551 C   0  0  0  0  0  0  0  0  0  0  0  0
  -24.2368  -20.0459   21.3188 C   0  0  0  0  0  0  0  0  0  0  0  0
  -27.3044  -24.2610   19.5586 C   0  0  0  0  0  0  0  0  0  0  0  0
  -27.1355  -22.8873   19.7318 C   0  0  0  0  0  0  0  0  0  0  0  0
  -22.9530  -18.2473   20.3513 C   0  0  0  0  0  0  0  0  0  0  0  0
  -29.2228  -22.7834   20.9441 C   0  0  0  0  0  0  0  0  0  0  0  0
  -25.6851  -28.7705   21.4677 C   0  0  0  0  0  0  0  0  0  0  0  0
  -24.8756  -30.8250   22.7450 C   0  0  0  0  0  0  0  0  0  0  0  0
  -30.3750  -12.5822   19.8661 C   0  0  0  0  0  0  0  0  0  0  0  0
  -24.8413  -17.7397   21.7782 C   0  0  0  0  0  0  0  0  0  0  0  0
  -29.8806  -13.8956   19.9803 C   0  0  0  0  0  0  0  0  0  0  0  0
  -23.7727  -17.3003   20.9839 C   0  0  0  0  0  0  0  0  0  0  0  0
  -27.6430  -27.0830   20.4183 C   0  0  0  0  0  0  0  0  0  0  0  0
  -23.1852  -19.6125   20.5167 C   0  0  0  0  0  0  0  0  0  0  0  0
  -28.4325  -24.8959   20.0781 C   0  0  0  0  0  0  0  0  0  0  0  0
  -28.0947  -22.1485   20.4245 C   0  0  0  0  0  0  0  0  0  0  0  0
  -29.3917  -24.1572   20.7709 C   0  0  0  0  0  0  0  0  0  0  0  0
  -24.6734  -29.6422   22.0090 C   0  0  0  0  0  0  0  0  0  0  0  0
  -23.6088  -31.2763   23.0244 C   0  0  0  0  0  0  0  0  0  0  0  0
  -26.0991  -31.4591   23.1408 C   0  0  0  0  0  0  0  0  0  0  0  0
  -21.6660  -22.7707   19.3718 C   0  0  0  0  0  0  0  0  0  0  0  0
  -26.5279  -15.3361   20.5610 C   0  0  0  0  0  0  0  0  0  0  0  0
  -24.0628  -13.5513   21.6836 C   0  0  0  0  0  0  0  0  0  0  0  0
  -20.7840  -13.4024   22.6187 C   0  0  0  0  0  0  0  0  0  0  0  0
  -20.4802  -27.6520   20.0403 C   0  0  0  0  0  0  0  0  0  0  0  0
  -29.5918  -11.4975   19.1699 C   0  0  0  0  0  0  0  0  0  0  0  0
  -25.7213  -16.7475   22.4879 C   0  0  0  0  0  0  0  0  0  0  0  0
  -23.4837  -15.8358   20.7830 C   0  0  0  0  0  0  0  0  0  0  0  0
  -28.1085  -11.8221   19.0132 C   0  0  0  0  0  0  0  0  0  0  0  0
  -20.6643  -28.2554   23.7297 C   0  0  0  0  0  0  0  0  0  0  0  0
  -27.9252  -13.2458   18.4970 C   0  0  0  0  0  0  0  0  0  0  0  0
  -20.6713  -29.7822   23.7734 C   0  0  0  0  0  0  0  0  0  0  0  0
  -21.0769  -24.8470   18.1380 C   0  0  0  0  0  0  0  0  0  0  0  0
  -22.6834  -24.9292   20.1090 C   0  0  0  0  0  0  0  0  0  0  0  0
  -19.9297  -27.7497   22.4959 C   0  0  0  0  0  0  0  0  0  0  0  0
  -20.0034  -25.4348   19.0500 C   0  0  0  0  0  0  0  0  0  0  0  0
  -21.5668  -25.5519   20.9529 C   0  0  0  0  0  0  0  0  0  0  0  0
  -20.5263  -29.8064   21.2455 C   0  0  0  0  0  0  0  0  0  0  0  0
  -28.5006  -14.2688   19.4839 C   0  0  1  0  0  0  0  0  0  0  0  0
  -22.1677  -24.1121   18.9216 C   0  0  0  0  0  0  0  0  0  0  0  0
  -25.7226  -15.3716   21.8290 C   0  0  1  0  0  0  0  0  0  0  0  0
  -21.2335  -30.4030   22.4791 C   0  0  2  0  0  0  0  0  0  0  0  0
  -19.0451  -11.7982   23.4553 C   0  0  0  0  0  0  0  0  0  0  0  0
  -23.7979  -12.3795   18.8789 C   0  0  0  0  0  0  0  0  0  0  0  0
  -21.5250  -11.5461   19.5173 C   0  0  0  0  0  0  0  0  0  0  0  0
  -23.5410  -10.7194   20.7316 C   0  0  0  0  0  0  0  0  0  0  0  0
  -20.4073  -14.9355   25.1220 C   0  0  0  0  0  0  0  0  0  0  0  0
  -22.6593  -21.8952   20.1056 C   0  0  0  0  0  0  0  0  0  1  0  0
  -22.7398  -13.0847   21.1259 C   0  0  1  0  0  0  0  0  0  0  0  0
  -20.1120  -12.8098   23.8441 C   0  0  2  0  0  0  0  0  0  0  0  0
  -22.9073  -11.9601   20.0654 C   0  0  0  0  0  0  0  0  0  0  0  0
  -23.3800  -29.3597   21.8320 N   0  0  0  0  0  0  0  0  0  0  0  0
  -22.7580  -30.3714   22.4609 N   0  0  0  0  0  0  0  0  0  0  0  0
  -24.3761  -14.9046   21.4929 N   0  0  0  0  0  0  0  0  0  0  0  0
  -20.4663  -28.3419   21.2650 N   0  0  0  0  0  0  0  0  0  0  0  0
  -20.6007  -26.2552   20.1011 N   0  0  0  0  0  0  0  0  0  0  0  0
  -23.1508  -32.3549   23.6947 N   0  0  0  0  0  0  0  0  0  0  0  0
  -27.3116  -30.8616   22.7703 N   0  0  0  0  0  0  0  0  0  0  0  0
  -27.5964  -14.4606   20.5975 N   0  0  0  0  0  0  0  0  0  0  0  0
  -21.9234  -12.7064   22.2743 N   0  0  0  0  0  0  0  0  0  0  0  0
  -19.4688  -13.8840   24.6525 N   0  3  0  0  0  0  0  0  0  0  0  0
  -26.1166  -32.5153   23.8173 O   0  0  0  0  0  0  0  0  0  0  0  0
  -20.5098  -22.4137   19.1507 O   0  0  0  0  0  0  0  0  0  0  0  0
  -26.2030  -16.0490   19.6187 O   0  0  0  0  0  0  0  0  0  0  0  0
  -24.7882  -12.7464   22.2732 O   0  0  0  0  0  0  0  0  0  0  0  0
  -20.3404  -14.3823   22.0241 O   0  0  0  0  0  0  0  0  0  0  0  0
  -20.3996  -28.2504   18.9603 O   0  0  0  0  0  0  0  0  0  0  0  0
  -28.5984  -26.2599   19.9061 O   0  0  0  0  0  0  0  0  0  0  0  0
  -22.3728  -20.5292   19.8921 O   0  0  0  0  0  0  0  0  0  1  0  0
  -27.9316  -20.8296   20.5921 F   0  0  0  0  0  0  0  0  0  0  0  0
  -30.4769  -24.7618   21.2733 F   0  0  0  0  0  0  0  0  0  0  0  0
  1  2  1  0  0  0  0
  1  5  2  0  0  0  0
  2  6  2  0  0  0  0
  3  8  2  0  0  0  0
  3 15  1  0  0  0  0
  4  9  1  0  0  0  0
  4 15  2  0  0  0  0
  5 17  1  0  0  0  0
  6 19  1  0  0  0  0
  7 10  2  0  0  0  0
  7 18  1  0  0  0  0
  8 21  1  0  0  0  0
  9 21  2  0  0  0  0
 10 22  1  0  0  0  0
 11 12  2  0  0  0  0
 11 23  1  0  0  0  0
 12 24  1  0  0  0  0
 13 20  1  0  0  0  0
 13 22  2  0  0  0  0
 14 24  2  0  0  0  0
 14 25  1  0  0  0  0
 15 26  1  0  0  0  0
 16 26  1  0  0  0  0
 16 27  2  0  0  0  0
 16 28  1  0  0  0  0
 17 19  2  0  0  0  0
 17 34  1  0  0  0  0
 18 20  2  0  0  0  0
 18 35  1  0  0  0  0
 19 47  1  0  0  0  0
 20 36  1  0  0  0  0
 21 76  1  0  0  0  0
 22 77  1  0  0  0  0
 23 25  2  0  0  0  0
 23 76  1  0  0  0  0
 24 78  1  0  0  0  0
 25 79  1  0  0  0  0
 26 60  2  0  0  0  0
 27 61  1  0  0  0  0
 27 65  1  0  0  0  0
 28 66  1  0  0  0  0
 28 70  2  0  0  0  0
 29 48  1  0  0  0  0
 29 56  1  0  0  0  0
 29 71  2  0  0  0  0
 30 49  1  0  0  0  0
 30 67  1  0  0  0  0
 30 72  2  0  0  0  0
 31 57  1  0  0  0  0
 31 62  1  0  0  0  0
 31 73  2  0  0  0  0
 32 58  1  0  0  0  0
 32 68  1  0  0  0  0
 32 74  2  0  0  0  0
 33 63  1  0  0  0  0
 33 64  1  0  0  0  0
 33 75  2  0  0  0  0
 34 37  1  0  0  0  0
 35 49  1  0  0  0  0
 36 62  1  0  0  0  0
 37 39  1  0  0  0  0
 38 40  1  0  0  0  0
 38 43  1  0  0  0  0
 39 47  1  0  0  0  0
 40 50  1  0  0  0  0
 41 44  1  0  0  0  0
 41 48  1  0  0  0  0
 42 45  1  0  0  0  0
 42 48  1  0  0  0  0
 43 63  1  0  0  0  0
 44 64  1  0  0  0  0
 45 64  1  0  0  0  0
 46 50  1  0  0  0  0
 46 63  1  0  0  0  0
 47 67  1  0  0  0  0
 49 62  1  0  0  0  0
 50 61  1  0  0  0  0
 51 58  1  0  0  0  0
 52 59  1  0  0  0  0
 53 59  1  0  0  0  0
 54 59  1  0  0  0  0
 55 69  1  0  0  0  0
 56 77  1  0  0  0  0
 57 59  1  0  0  0  0
 57 68  1  0  0  0  0
 58 69  1  0  0  0  0
 60 61  1  0  0  0  0
M  CHG  1  69   1
M  ISO  4  33 100  56 101  64 100  77 101
M  END
> <Batch ID>
0146

> <Smiles>
CNC(C)C(=O)NC(C(=O)N1Cc2cc([101O:1][101CH2:1]C(=O)C3CC[100N:0]([100C:0](=O)N4CCCC(n5nc(-c6ccc(Oc7ccc(F)cc7F)cc6)c(C(N)=O)c5N)C4)CC3)ccc2CC1C(=O)NC1CCCc2ccccc21)C(C)(C)C

> <Shape>
0.255

> <Color>
0.081

> <Negative vol penalty>
0.000

$$$$

  -OEChem-04052303103D

 90 99  0     1  0  0  0  0  0999 V2000
  -24.8147  -27.6431   16.3053 C   0  0  0  0  0  0  0  0  0  0  0  0
  -24.5178  -26.3582   16.7485 C   0  0  0  0  0  0  0  0  0  0  0  0
  -29.2722  -23.0129   21.2867 C   0  0  0  0  0  0  0  0  0  0  0  0
  -30.0666  -22.1113   19.1907 C   0  0  0  0  0  0  0  0  0  0  0  0
  -25.3296  -28.5846   17.1955 C   0  0  0  0  0  0  0  0  0  0  0  0
  -24.7366  -26.0138   18.0819 C   0  0  0  0  0  0  0  0  0  0  0  0
  -21.3823  -22.1924   21.4953 C   0  0  0  0  0  0  0  0  0  0  0  0
  -29.9106  -24.2215   21.0088 C   0  0  0  0  0  0  0  0  0  0  0  0
  -30.7050  -23.3200   18.9128 C   0  0  0  0  0  0  0  0  0  0  0  0
  -21.5481  -20.8518   21.8403 C   0  0  0  0  0  0  0  0  0  0  0  0
  -32.2433  -26.2888   17.4851 C   0  0  0  0  0  0  0  0  0  0  0  0
  -32.1074  -26.8145   16.2003 C   0  0  0  0  0  0  0  0  0  0  0  0
  -22.5724  -21.5198   23.9196 C   0  0  0  0  0  0  0  0  0  0  0  0
  -25.6184  -13.4574   19.9933 C   0  0  0  0  0  0  0  0  0  0  0  0
  -29.7114  -26.9141   16.4946 C   0  0  0  0  0  0  0  0  0  0  0  0
  -29.3502  -21.9578   20.3776 C   0  0  0  0  0  0  0  0  0  0  0  0
  -27.3755  -20.3437   20.3224 C   0  0  0  0  0  0  0  0  0  0  0  0
  -25.5457  -28.2545   18.5427 C   0  0  0  0  0  0  0  0  0  0  0  0
  -21.8209  -23.2085   22.3565 C   0  0  0  0  0  0  0  0  0  0  0  0
  -25.2561  -26.9514   18.9905 C   0  0  0  0  0  0  0  0  0  0  0  0
  -22.4087  -22.8725   23.5844 C   0  0  0  0  0  0  0  0  0  0  0  0
  -26.5466  -12.5055   20.4788 C   0  0  0  0  0  0  0  0  0  0  0  0
  -30.6270  -24.3751   19.8219 C   0  0  0  0  0  0  0  0  0  0  0  0
  -22.1459  -20.5153   23.0513 C   0  0  0  0  0  0  0  0  0  0  0  0
  -31.1133  -26.0756   18.2747 C   0  0  0  0  0  0  0  0  0  0  0  0
  -30.8414  -27.1272   15.7051 C   0  0  0  0  0  0  0  0  0  0  0  0
  -29.8473  -26.3884   17.7794 C   0  0  0  0  0  0  0  0  0  0  0  0
  -28.6914  -20.7088   20.6643 C   0  0  0  0  0  0  0  0  0  0  0  0
  -24.4357  -13.2066   20.6494 C   0  0  0  0  0  0  0  0  0  0  0  0
  -25.8650  -11.7411   21.3970 C   0  0  0  0  0  0  0  0  0  0  0  0
  -27.2334  -19.0697   20.8156 C   0  0  0  0  0  0  0  0  0  0  0  0
  -26.3713  -21.0895   19.6215 C   0  0  0  0  0  0  0  0  0  0  0  0
  -23.9581  -25.5528   22.1547 C   0  0  0  0  0  0  0  0  0  0  0  0
  -23.3706  -17.1211   22.7775 C   0  0  0  0  0  0  0  0  0  0  0  0
  -22.7256  -26.3978   25.0338 C   0  0  0  0  0  0  0  0  0  0  0  0
  -21.0748  -25.4551   27.8680 C   0  0  0  0  0  0  0  0  0  0  0  0
  -29.1262  -13.9469   21.6333 C   0  0  0  0  0  0  0  0  0  0  0  0
  -26.1483  -29.2919   19.4566 C   0  0  0  0  0  0  0  0  0  0  0  0
  -21.6106  -24.6499   21.9817 C   0  0  0  0  0  0  0  0  0  0  0  0
  -22.8784  -23.9257   24.5533 C   0  0  0  0  0  0  0  0  0  0  0  0
  -25.9993  -28.9581   20.9388 C   0  0  0  0  0  0  0  0  0  0  0  0
  -29.5012  -12.7306   18.2378 C   0  0  0  0  0  0  0  0  0  0  0  0
  -30.1550  -16.3783   23.9266 C   0  0  0  0  0  0  0  0  0  0  0  0
  -28.1525  -12.1010   18.5627 C   0  0  0  0  0  0  0  0  0  0  0  0
  -26.3793  -27.5040   21.1994 C   0  0  0  0  0  0  0  0  0  0  0  0
  -29.7809  -17.6998   23.2583 C   0  0  0  0  0  0  0  0  0  0  0  0
  -30.6884  -15.3843   22.9027 C   0  0  0  0  0  0  0  0  0  0  0  0
  -29.5146  -13.9717   19.1166 C   0  0  0  0  0  0  0  0  0  0  0  0
  -29.3396  -16.4195   21.1021 C   0  0  0  0  0  0  0  0  0  0  0  0
  -27.9941  -12.3615   20.0665 C   0  0  1  0  0  0  0  0  0  0  0  0
  -25.4564  -26.5472   20.4350 C   0  0  1  0  0  0  0  0  0  0  0  0
  -22.5605  -25.6000   22.7045 C   0  0  1  0  0  0  0  0  0  0  0  0
  -28.7992  -17.4661   22.0980 C   0  0  2  0  0  0  0  0  0  0  0  0
  -26.3286   -9.2783   21.4763 C   0  0  0  0  0  0  0  0  0  0  0  0
  -20.2465  -26.3582   30.0579 C   0  0  0  0  0  0  0  0  0  0  0  0
  -25.5752  -26.3611   26.1240 C   0  0  0  0  0  0  0  0  0  0  0  0
  -24.6157  -26.3226   28.4362 C   0  0  0  0  0  0  0  0  0  0  0  0
  -24.1721  -28.2655   26.9358 C   0  0  0  0  0  0  0  0  0  0  0  0
  -22.7431  -14.1173   23.1118 C   0  0  0  0  0  0  0  0  0  0  0  0
  -21.2515  -15.3030   21.4977 C   0  0  0  0  0  0  0  0  0  0  0  0
  -18.2629  -24.8182   27.1996 C   0  0  0  0  0  0  0  0  0  0  0  0
  -23.1058  -13.8295   20.5985 C   0  0  0  0  0  0  0  0  0  0  0  0
  -26.2474  -10.6033   22.2462 C   0  0  0  0  0  0  0  0  0  0  0  0
  -23.6644  -16.0506   21.7372 C   0  0  0  0  0  0  0  0  0  0  0  0
  -22.4877  -18.2723   22.3385 C   0  0  0  0  0  0  0  0  0  1  0  0
  -23.0350  -26.0557   26.4712 C   0  0  1  0  0  0  0  0  0  0  0  0
  -19.9013  -26.0761   28.6039 C   0  0  2  0  0  0  0  0  0  0  0  0
  -24.3425  -26.7311   26.9729 C   0  0  0  0  0  0  0  0  0  0  0  0
  -22.7023  -14.8368   21.7501 C   0  0  0  0  0  0  0  0  0  0  0  0
  -29.3391  -19.7447   21.3239 N   0  0  0  0  0  0  0  0  0  0  0  0
  -28.4263  -18.7613   21.4004 N   0  0  0  0  0  0  0  0  0  0  0  0
  -22.6562  -25.3208   24.1387 N   0  0  0  0  0  0  0  0  0  0  0  0
  -29.7450  -15.1923   21.8006 N   0  0  0  0  0  0  0  0  0  0  0  0
  -28.8034  -13.5616   20.3289 N   0  0  0  0  0  0  0  0  0  0  0  0
  -26.2058  -18.1945   20.8017 N   0  0  0  0  0  0  0  0  0  0  0  0
  -26.6839  -22.3838   19.1842 N   0  0  0  0  0  0  0  0  0  0  0  0
  -24.1813  -26.4284   21.1093 N   0  0  0  0  0  0  0  0  0  0  0  0
  -21.8467  -26.4095   27.2400 N   0  0  0  0  0  0  0  0  0  0  0  0
  -18.7252  -25.1614   28.5690 N   0  3  0  0  0  0  0  0  0  0  0  0
  -25.2252  -20.6281   19.4044 O   0  0  0  0  0  0  0  0  0  0  0  0
  -24.7740  -24.7802   22.6438 O   0  0  0  0  0  0  0  0  0  0  0  0
  -23.8346  -17.0544   23.9154 O   0  0  0  0  0  0  0  0  0  0  0  0
  -22.5448  -27.5765   24.7181 O   0  0  0  0  0  0  0  0  0  0  0  0
  -21.2877  -24.2447   27.8549 O   0  0  0  0  0  0  0  0  0  0  0  0
  -28.8931  -13.2062   22.5970 O   0  0  0  0  0  0  0  0  0  0  0  0
  -24.5777  -12.1620   21.5069 O   0  0  0  0  0  0  0  0  0  0  0  0
  -31.2499  -25.5544   19.5503 O   0  0  0  0  0  0  0  0  0  0  0  0
  -22.3112  -19.1941   23.3936 O   0  0  0  0  0  0  0  0  0  1  0  0
  -30.7112  -27.6335   14.4718 F   0  0  0  0  0  0  0  0  0  0  0  0
  -28.7582  -26.1869   18.5337 F   0  0  0  0  0  0  0  0  0  0  0  0
  1  2  1  0  0  0  0
  1  5  2  0  0  0  0
  2  6  2  0  0  0  0
  3  8  2  0  0  0  0
  3 16  1  0  0  0  0
  4  9  1  0  0  0  0
  4 16  2  0  0  0  0
  5 18  1  0  0  0  0
  6 20  1  0  0  0  0
  7 10  2  0  0  0  0
  7 19  1  0  0  0  0
  8 23  1  0  0  0  0
  9 23  2  0  0  0  0
 10 24  1  0  0  0  0
 11 12  2  0  0  0  0
 11 25  1  0  0  0  0
 12 26  1  0  0  0  0
 13 21  1  0  0  0  0
 13 24  2  0  0  0  0
 14 22  1  0  0  0  0
 14 29  2  0  0  0  0
 15 26  2  0  0  0  0
 15 27  1  0  0  0  0
 16 28  1  0  0  0  0
 17 28  1  0  0  0  0
 17 31  2  0  0  0  0
 17 32  1  0  0  0  0
 18 20  2  0  0  0  0
 18 38  1  0  0  0  0
 19 21  2  0  0  0  0
 19 39  1  0  0  0  0
 20 51  1  0  0  0  0
 21 40  1  0  0  0  0
 22 30  2  0  0  0  0
 22 50  1  0  0  0  0
 23 87  1  0  0  0  0
 24 88  1  0  0  0  0
 25 27  2  0  0  0  0
 25 87  1  0  0  0  0
 26 89  1  0  0  0  0
 27 90  1  0  0  0  0
 28 70  2  0  0  0  0
 29 62  1  0  0  0  0
 29 86  1  0  0  0  0
 30 63  1  0  0  0  0
 30 86  1  0  0  0  0
 31 71  1  0  0  0  0
 31 75  1  0  0  0  0
 32 76  1  0  0  0  0
 32 80  2  0  0  0  0
 33 52  1  0  0  0  0
 33 77  1  0  0  0  0
 33 81  2  0  0  0  0
 34 64  1  0  0  0  0
 34 65  1  0  0  0  0
 34 82  2  0  0  0  0
 35 66  1  0  0  0  0
 35 72  1  0  0  0  0
 35 83  2  0  0  0  0
 36 67  1  0  0  0  0
 36 78  1  0  0  0  0
 36 84  2  0  0  0  0
 37 73  1  0  0  0  0
 37 74  1  0  0  0  0
 37 85  2  0  0  0  0
 38 41  1  0  0  0  0
 39 52  1  0  0  0  0
 40 72  1  0  0  0  0
 41 45  1  0  0  0  0
 42 44  1  0  0  0  0
 42 48  1  0  0  0  0
 43 46  1  0  0  0  0
 43 47  1  0  0  0  0
 44 50  1  0  0  0  0
 45 51  1  0  0  0  0
 46 53  1  0  0  0  0
 47 73  1  0  0  0  0
 48 74  1  0  0  0  0
 49 53  1  0  0  0  0
 49 73  1  0  0  0  0
 50 74  1  0  0  0  0
 51 77  1  0  0  0  0
 52 72  1  0  0  0  0
 53 71  1  0  0  0  0
 54 63  1  0  0  0  0
 55 67  1  0  0  0  0
 56 68  1  0  0  0  0
 57 68  1  0  0  0  0
 58 68  1  0  0  0  0
 59 69  1  0  0  0  0
 60 69  1  0  0  0  0
 61 79  1  0  0  0  0
 62 69  1  0  0  0  0
 64 69  1  0  0  0  0
 65 88  1  0  0  0  0
 66 68  1  0  0  0  0
 66 78  1  0  0  0  0
 67 79  1  0  0  0  0
 70 71  1  0  0  0  0
M  CHG  1  79   1
M  ISO  4  37 100  65 101  74 100  88 101
M  END
> <Batch ID>
0146

> <Smiles>
CCc1oc(CC(C)(C)CC(=O)[101CH2:1][101O:1]c2ccc3c(c2)CN(C(=O)C(NC(=O)C(C)NC)C(C)(C)C)C(C(=O)NC2CCCc4ccccc42)C3)cc1C1CCC[100N:0]1[100C:0](=O)N1CCCC(n2nc(-c3ccc(Oc4ccc(F)cc4F)cc3)c(C(N)=O)c2N)C1

> <Shape>
0.199

> <Color>
0.064

> <Negative vol penalty>
0.000

$$$$

  -OEChem-04052303103D

 87 96  0     1  0  0  0  0  0999 V2000
  -18.1271  -33.4253   22.6748 C   0  0  0  0  0  0  0  0  0  0  0  0
  -19.3845  -33.4646   22.0808 C   0  0  0  0  0  0  0  0  0  0  0  0
  -27.1503  -13.7213   22.0745 C   0  0  0  0  0  0  0  0  0  0  0  0
  -26.5784  -13.7751   19.7278 C   0  0  0  0  0  0  0  0  0  0  0  0
  -17.8124  -32.4048   23.5712 C   0  0  0  0  0  0  0  0  0  0  0  0
  -20.3284  -32.4840   22.3837 C   0  0  0  0  0  0  0  0  0  0  0  0
  -25.7376  -28.8379   19.4235 C   0  0  0  0  0  0  0  0  0  0  0  0
  -26.3236  -12.6116   22.2505 C   0  0  0  0  0  0  0  0  0  0  0  0
  -25.7518  -12.6654   19.9038 C   0  0  0  0  0  0  0  0  0  0  0  0
  -27.0755  -28.5201   19.6532 C   0  0  0  0  0  0  0  0  0  0  0  0
  -26.1081   -9.3178   20.1990 C   0  0  0  0  0  0  0  0  0  0  0  0
  -26.1916   -8.2934   19.2561 C   0  0  0  0  0  0  0  0  0  0  0  0
  -31.3558  -23.3434   17.9906 C   0  0  0  0  0  0  0  0  0  0  0  0
  -33.4444  -23.2709   16.7785 C   0  0  0  0  0  0  0  0  0  0  0  0
  -26.3934  -26.7604   21.1556 C   0  0  0  0  0  0  0  0  0  0  0  0
  -31.8870  -21.4313   16.6127 C   0  0  0  0  0  0  0  0  0  0  0  0
  -23.8568   -8.6000   18.7162 C   0  0  0  0  0  0  0  0  0  0  0  0
  -27.2776  -14.3030   20.8131 C   0  0  0  0  0  0  0  0  0  0  0  0
  -32.5711  -23.9324   17.6418 C   0  0  0  0  0  0  0  0  0  0  0  0
  -29.4986  -15.4470   20.2973 C   0  0  0  0  0  0  0  0  0  0  0  0
  -18.7497  -31.4057   23.8778 C   0  0  0  0  0  0  0  0  0  0  0  0
  -24.7160  -28.1251   20.0676 C   0  0  0  0  0  0  0  0  0  0  0  0
  -20.0265  -31.4499   23.2860 C   0  0  0  0  0  0  0  0  0  0  0  0
  -25.0432  -27.0694   20.9304 C   0  0  0  0  0  0  0  0  0  0  0  0
  -31.0137  -22.0928   17.4761 C   0  0  0  0  0  0  0  0  0  0  0  0
  -25.6244  -12.0837   21.1652 C   0  0  0  0  0  0  0  0  0  0  0  0
  -27.4036  -27.4832   20.5216 C   0  0  0  0  0  0  0  0  0  0  0  0
  -24.8989   -9.9834   20.4006 C   0  0  0  0  0  0  0  0  0  0  0  0
  -25.0660   -7.9345   18.5147 C   0  0  0  0  0  0  0  0  0  0  0  0
  -33.1023  -22.0203   16.2639 C   0  0  0  0  0  0  0  0  0  0  0  0
  -23.7733   -9.6245   19.6591 C   0  0  0  0  0  0  0  0  0  0  0  0
  -28.1309  -15.4496   20.6308 C   0  0  0  0  0  0  0  0  0  0  0  0
  -29.8414  -16.7759   20.2434 C   0  0  0  0  0  0  0  0  0  0  0  0
  -32.9321  -25.2448   18.1841 C   0  0  0  0  0  0  0  0  0  0  0  0
  -30.3803  -14.3421   20.0575 C   0  0  0  0  0  0  0  0  0  0  0  0
  -22.4060  -28.8758   22.1180 C   0  0  0  0  0  0  0  0  0  0  0  0
  -21.5030  -25.7995   21.6249 C   0  0  0  0  0  0  0  0  0  0  0  0
  -22.3819  -22.6354   20.6959 C   0  0  0  0  0  0  0  0  0  0  0  0
  -28.7988  -22.0154   18.6738 C   0  0  0  0  0  0  0  0  0  0  0  0
  -18.3801  -30.3493   24.8889 C   0  0  0  0  0  0  0  0  0  0  0  0
  -23.2771  -28.4628   19.7885 C   0  0  0  0  0  0  0  0  0  0  0  0
  -23.9835  -26.2603   21.6309 C   0  0  0  0  0  0  0  0  0  0  0  0
  -19.3075  -29.1370   24.8699 C   0  0  0  0  0  0  0  0  0  0  0  0
  -27.2891  -20.8978   21.6985 C   0  0  0  0  0  0  0  0  0  0  0  0
  -20.7664  -29.5814   24.8375 C   0  0  0  0  0  0  0  0  0  0  0  0
  -32.2454  -27.6492   18.3427 C   0  0  0  0  0  0  0  0  0  0  0  0
  -27.4860  -19.3806   21.6629 C   0  0  0  0  0  0  0  0  0  0  0  0
  -32.1913  -28.2445   19.7470 C   0  0  0  0  0  0  0  0  0  0  0  0
  -31.3390  -26.0258   19.9479 C   0  0  0  0  0  0  0  0  0  0  0  0
  -27.0095  -21.4662   20.3083 C   0  0  0  0  0  0  0  0  0  0  0  0
  -28.1878  -19.5828   19.2435 C   0  0  0  0  0  0  0  0  0  0  0  0
  -21.0688  -30.3902   23.5703 C   0  0  1  0  0  0  0  0  0  0  0  0
  -31.8101  -26.1874   18.4966 C   0  0  2  0  0  0  0  0  0  0  0  0
  -22.3309  -28.0065   20.8948 C   0  0  1  0  0  0  0  0  0  0  0  0
  -28.5364  -18.9731   20.6111 C   0  0  2  0  0  0  0  0  0  0  0  0
  -31.0900  -27.4522   20.4629 C   0  0  1  0  0  0  0  0  0  0  0  0
  -31.2372  -27.5377   21.9838 C   0  0  0  0  0  0  0  0  0  0  0  0
  -21.4363  -20.3262   20.4296 C   0  0  0  0  0  0  0  0  0  0  0  0
  -21.5658  -25.4271   24.6527 C   0  0  0  0  0  0  0  0  0  0  0  0
  -21.5579  -22.9516   24.2785 C   0  0  0  0  0  0  0  0  0  0  0  0
  -19.6300  -24.3340   23.5071 C   0  0  0  0  0  0  0  0  0  0  0  0
  -22.9872  -22.5960   17.7992 C   0  0  0  0  0  0  0  0  0  0  0  0
  -29.6904  -27.9479   20.0626 C   0  0  0  0  0  0  0  0  0  1  0  0
  -21.8294  -24.4732   22.2680 C   0  0  1  0  0  0  0  0  0  0  0  0
  -21.7336  -21.6492   19.7411 C   0  0  2  0  0  0  0  0  0  0  0  0
  -21.1660  -24.3128   23.6650 C   0  0  0  0  0  0  0  0  0  0  0  0
  -27.6386  -16.6824   20.7786 N   0  0  0  0  0  0  0  0  0  0  0  0
  -28.7027  -17.4669   20.5368 N   0  0  0  0  0  0  0  0  0  0  0  0
  -22.5913  -26.6329   21.3304 N   0  0  0  0  0  0  0  0  0  0  0  0
  -28.0475  -21.0423   19.3662 N   0  0  0  0  0  0  0  0  0  0  0  0
  -31.0029  -17.4092   19.9741 N   0  0  0  0  0  0  0  0  0  0  0  0
  -29.8645  -13.0425   20.1542 N   0  0  0  0  0  0  0  0  0  0  0  0
  -29.7791  -21.4943   17.8300 N   0  0  0  0  0  0  0  0  0  0  0  0
  -21.2187  -29.5090   22.4321 N   0  0  0  0  0  0  0  0  0  0  0  0
  -21.4476  -23.4471   21.3038 N   0  0  0  0  0  0  0  0  0  0  0  0
  -22.6316  -21.3842   18.5816 N   0  3  0  0  0  0  0  0  0  0  0  0
  -34.0815  -25.6194   18.3919 O   0  0  0  0  0  0  0  0  0  0  0  0
  -31.5937  -14.5021   19.7823 O   0  0  0  0  0  0  0  0  0  0  0  0
  -23.4627  -28.9642   22.7324 O   0  0  0  0  0  0  0  0  0  0  0  0
  -20.3263  -26.0823   21.3860 O   0  0  0  0  0  0  0  0  0  0  0  0
  -23.5953  -22.6787   20.8864 O   0  0  0  0  0  0  0  0  0  0  0  0
  -28.6063  -23.2227   18.8393 O   0  0  0  0  0  0  0  0  0  0  0  0
  -24.8179  -11.0008   21.3365 O   0  0  0  0  0  0  0  0  0  0  0  0
  -28.7088  -27.1714   20.7480 O   0  0  0  0  0  0  0  0  0  1  0  0
  -25.1467   -6.9517   17.6081 F   0  0  0  0  0  0  0  0  0  0  0  0
  -33.9421  -21.3836   15.4372 F   0  0  0  0  0  0  0  0  0  0  0  0
  -22.6092  -10.2610   19.8475 F   0  0  0  0  0  0  0  0  0  0  0  0
  1  2  1  0  0  0  0
  1  5  2  0  0  0  0
  2  6  2  0  0  0  0
  3  8  2  0  0  0  0
  3 18  1  0  0  0  0
  4  9  1  0  0  0  0
  4 18  2  0  0  0  0
  5 21  1  0  0  0  0
  6 23  1  0  0  0  0
  7 10  2  0  0  0  0
  7 22  1  0  0  0  0
  8 26  1  0  0  0  0
  9 26  2  0  0  0  0
 10 27  1  0  0  0  0
 11 12  2  0  0  0  0
 11 28  1  0  0  0  0
 12 29  1  0  0  0  0
 13 19  2  0  0  0  0
 13 25  1  0  0  0  0
 14 19  1  0  0  0  0
 14 30  2  0  0  0  0
 15 24  1  0  0  0  0
 15 27  2  0  0  0  0
 16 25  2  0  0  0  0
 16 30  1  0  0  0  0
 17 29  2  0  0  0  0
 17 31  1  0  0  0  0
 18 32  1  0  0  0  0
 19 34  1  0  0  0  0
 20 32  1  0  0  0  0
 20 33  2  0  0  0  0
 20 35  1  0  0  0  0
 21 23  2  0  0  0  0
 21 40  1  0  0  0  0
 22 24  2  0  0  0  0
 22 41  1  0  0  0  0
 23 52  1  0  0  0  0
 24 42  1  0  0  0  0
 25 73  1  0  0  0  0
 26 83  1  0  0  0  0
 27 84  1  0  0  0  0
 28 31  2  0  0  0  0
 28 83  1  0  0  0  0
 29 85  1  0  0  0  0
 30 86  1  0  0  0  0
 31 87  1  0  0  0  0
 32 67  2  0  0  0  0
 33 68  1  0  0  0  0
 33 71  1  0  0  0  0
 34 53  1  0  0  0  0
 34 77  2  0  0  0  0
 35 72  1  0  0  0  0
 35 78  2  0  0  0  0
 36 54  1  0  0  0  0
 36 74  1  0  0  0  0
 36 79  2  0  0  0  0
 37 64  1  0  0  0  0
 37 69  1  0  0  0  0
 37 80  2  0  0  0  0
 38 65  1  0  0  0  0
 38 75  1  0  0  0  0
 38 81  2  0  0  0  0
 39 70  1  0  0  0  0
 39 73  1  0  0  0  0
 39 82  2  0  0  0  0
 40 43  1  0  0  0  0
 41 54  1  0  0  0  0
 42 69  1  0  0  0  0
 43 45  1  0  0  0  0
 44 47  1  0  0  0  0
 44 50  1  0  0  0  0
 45 52  1  0  0  0  0
 46 48  1  0  0  0  0
 46 53  1  0  0  0  0
 47 55  1  0  0  0  0
 48 56  1  0  0  0  0
 49 53  1  0  0  0  0
 49 56  1  0  0  0  0
 50 70  1  0  0  0  0
 51 55  1  0  0  0  0
 51 70  1  0  0  0  0
 52 74  1  0  0  0  0
 54 69  1  0  0  0  0
 55 68  1  0  0  0  0
 56 57  1  0  0  0  0
 56 63  1  0  0  0  0
 58 65  1  0  0  0  0
 59 66  1  0  0  0  0
 60 66  1  0  0  0  0
 61 66  1  0  0  0  0
 62 76  1  0  0  0  0
 63 84  1  0  0  0  0
 64 66  1  0  0  0  0
 64 75  1  0  0  0  0
 65 76  1  0  0  0  0
 67 68  1  0  0  0  0
M  CHG  1  76   1
M  ISO  4  39 100  63 101  73 100  84 101
M  END
> <Batch ID>
0146

> <Smiles>
CNC(C)C(=O)NC(C(=O)N1Cc2cc([101O:1][101CH2:1]C3(C)CCC(C(=O)c4cc(F)cc([100NH:0][100C:0](=O)N5CCCC(n6nc(-c7ccc(Oc8ccc(F)cc8F)cc7)c(C(N)=O)c6N)C5)c4)C3)ccc2CC1C(=O)NC1CCCc2ccccc21)C(C)(C)C

> <Shape>
0.234

> <Color>
0.108

> <Negative vol penalty>
0.000

$$$$

  -OEChem-04052303103D

 83 91  0     1  0  0  0  0  0999 V2000
  -32.4125  -17.0313   20.5897 C   0  0  0  0  0  0  0  0  0  0  0  0
  -31.3586  -17.9350   20.6789 C   0  0  0  0  0  0  0  0  0  0  0  0
  -29.1182  -24.3809   21.9561 C   0  0  0  0  0  0  0  0  0  0  0  0
  -26.9836  -24.6236   20.8507 C   0  0  0  0  0  0  0  0  0  0  0  0
  -32.1885  -15.7479   20.0931 C   0  0  0  0  0  0  0  0  0  0  0  0
  -30.0802  -17.5562   20.2705 C   0  0  0  0  0  0  0  0  0  0  0  0
  -24.7564  -19.3131   22.7354 C   0  0  0  0  0  0  0  0  0  0  0  0
  -29.6050  -23.6689   20.8598 C   0  0  0  0  0  0  0  0  0  0  0  0
  -27.4704  -23.9117   19.7544 C   0  0  0  0  0  0  0  0  0  0  0  0
  -23.8326  -20.2923   22.3727 C   0  0  0  0  0  0  0  0  0  0  0  0
  -28.0344  -20.6808   18.9332 C   0  0  0  0  0  0  0  0  0  0  0  0
  -27.2167  -19.6907   18.3886 C   0  0  0  0  0  0  0  0  0  0  0  0
  -22.5345  -18.6271   21.2060 C   0  0  0  0  0  0  0  0  0  0  0  0
  -20.6850  -27.4532   22.5038 C   0  0  0  0  0  0  0  0  0  0  0  0
  -27.2170  -20.8549   16.2716 C   0  0  0  0  0  0  0  0  0  0  0  0
  -18.3892  -27.1238   22.3518 C   0  0  0  0  0  0  0  0  0  0  0  0
  -27.8075  -24.8582   21.9515 C   0  0  0  0  0  0  0  0  0  0  0  0
  -27.1987  -25.1405   24.4127 C   0  0  0  0  0  0  0  0  0  0  0  0
  -30.9049  -15.3499   19.6875 C   0  0  0  0  0  0  0  0  0  0  0  0
  -24.5816  -17.9832   22.3262 C   0  0  0  0  0  0  0  0  0  0  0  0
  -29.8392  -16.2666   19.7669 C   0  0  0  0  0  0  0  0  0  0  0  0
  -23.4562  -17.6324   21.5670 C   0  0  0  0  0  0  0  0  0  0  0  0
  -19.6298  -26.5425   22.2082 C   0  0  0  0  0  0  0  0  0  0  0  0
  -28.7811  -23.4343   19.7590 C   0  0  0  0  0  0  0  0  0  0  0  0
  -22.7230  -19.9499   21.6054 C   0  0  0  0  0  0  0  0  0  0  0  0
  -28.4434  -21.7581   18.1471 C   0  0  0  0  0  0  0  0  0  0  0  0
  -26.8080  -19.7777   17.0578 C   0  0  0  0  0  0  0  0  0  0  0  0
  -28.0347  -21.8451   16.8163 C   0  0  0  0  0  0  0  0  0  0  0  0
  -27.3039  -25.5933   23.0839 C   0  0  0  0  0  0  0  0  0  0  0  0
  -20.2106  -28.6960   22.8620 C   0  0  0  0  0  0  0  0  0  0  0  0
  -26.6654  -26.2052   25.0970 C   0  0  0  0  0  0  0  0  0  0  0  0
  -27.5516  -23.8710   24.9779 C   0  0  0  0  0  0  0  0  0  0  0  0
  -20.9757  -29.9129   23.2370 C   0  0  0  0  0  0  0  0  0  0  0  0
  -26.2353  -15.9560   20.5209 C   0  0  0  0  0  0  0  0  0  0  0  0
  -20.9709  -23.1736   21.2416 C   0  0  0  0  0  0  0  0  0  0  0  0
  -23.9807  -13.8442   21.5105 C   0  0  0  0  0  0  0  0  0  0  0  0
  -20.8267  -13.3208   22.7045 C   0  0  0  0  0  0  0  0  0  0  0  0
  -23.2657  -30.8127   23.5015 C   0  0  0  0  0  0  0  0  0  0  0  0
  -30.7211  -13.9675   19.1132 C   0  0  0  0  0  0  0  0  0  0  0  0
  -25.5730  -16.9338   22.7483 C   0  0  0  0  0  0  0  0  0  0  0  0
  -23.2119  -16.2152   21.1194 C   0  0  0  0  0  0  0  0  0  0  0  0
  -29.2621  -13.5224   19.0520 C   0  0  0  0  0  0  0  0  0  0  0  0
  -26.4598  -30.9934   25.0053 C   0  0  0  0  0  0  0  0  0  0  0  0
  -28.3893  -14.6319   18.4742 C   0  0  0  0  0  0  0  0  0  0  0  0
  -27.0266  -29.5832   24.8198 C   0  0  0  0  0  0  0  0  0  0  0  0
  -25.6458  -31.4419   23.7924 C   0  0  0  0  0  0  0  0  0  0  0  0
  -25.1597  -29.1067   23.1854 C   0  0  0  0  0  0  0  0  0  0  0  0
  -28.4333  -15.8849   19.3571 C   0  0  1  0  0  0  0  0  0  0  0  0
  -25.5657  -15.7062   21.8426 C   0  0  1  0  0  0  0  0  0  0  0  0
  -25.9286  -28.5819   24.4086 C   0  0  1  0  0  0  0  0  0  0  0  0
  -19.2560  -11.4842   23.3806 C   0  0  0  0  0  0  0  0  0  0  0  0
  -23.4764  -13.1969   18.5717 C   0  0  0  0  0  0  0  0  0  0  0  0
  -21.3208  -12.1197   19.2509 C   0  0  0  0  0  0  0  0  0  0  0  0
  -23.4865  -11.2102   20.0907 C   0  0  0  0  0  0  0  0  0  0  0  0
  -20.6463  -14.3381   25.4778 C   0  0  0  0  0  0  0  0  0  0  0  0
  -21.1235  -24.6176   21.6705 C   0  0  0  0  0  0  0  0  0  0  0  0
  -22.0719  -22.2355   21.6966 C   0  0  0  0  0  0  0  0  0  1  0  0
  -22.6284  -13.4071   21.0013 C   0  0  1  0  0  0  0  0  0  0  0  0
  -20.3124  -12.4711   23.8525 C   0  0  2  0  0  0  0  0  0  0  0  0
  -22.7334  -12.5106   19.7353 C   0  0  0  0  0  0  0  0  0  0  0  0
  -26.8720  -26.8478   22.9309 N   0  0  0  0  0  0  0  0  0  0  0  0
  -26.4901  -27.1925   24.1725 N   0  0  0  0  0  0  0  0  0  0  0  0
  -24.2131  -15.2263   21.5520 N   0  0  0  0  0  0  0  0  0  0  0  0
  -24.6222  -30.4448   23.4741 N   0  0  0  0  0  0  0  0  0  0  0  0
  -26.3339  -26.3840   26.3934 N   0  0  0  0  0  0  0  0  0  0  0  0
  -26.5811  -22.8603   25.0087 N   0  0  0  0  0  0  0  0  0  0  0  0
  -19.8258  -25.2247   21.8207 N   0  0  0  0  0  0  0  0  0  0  0  0
  -22.3643  -29.7787   23.2248 N   0  0  0  0  0  0  0  0  0  0  0  0
  -27.5952  -15.7106   20.5240 N   0  0  0  0  0  0  0  0  0  0  0  0
  -21.9533  -12.7729   22.1284 N   0  0  0  0  0  0  0  0  0  0  0  0
  -19.7107  -13.3351   24.9073 N   0  3  0  0  0  0  0  0  0  0  0  0
  -28.6888  -23.6449   25.4569 O   0  0  0  0  0  0  0  0  0  0  0  0
  -20.3660  -30.9483   23.4903 O   0  0  0  0  0  0  0  0  0  0  0  0
  -25.5674  -16.3413   19.5685 O   0  0  0  0  0  0  0  0  0  0  0  0
  -20.0209  -22.7765   20.5682 O   0  0  0  0  0  0  0  0  0  0  0  0
  -24.7979  -12.9911   21.8654 O   0  0  0  0  0  0  0  0  0  0  0  0
  -20.2814  -14.3641   22.3515 O   0  0  0  0  0  0  0  0  0  0  0  0
  -22.8875  -31.9537   23.7852 O   0  0  0  0  0  0  0  0  0  0  0  0
  -29.2558  -22.7399   18.6890 O   0  0  0  0  0  0  0  0  0  0  0  0
  -21.8202  -20.9039   21.2495 O   0  0  0  0  0  0  0  0  0  1  0  0
  -26.0241  -18.8260   16.5345 F   0  0  0  0  0  0  0  0  0  0  0  0
  -28.4253  -22.8770   16.0557 F   0  0  0  0  0  0  0  0  0  0  0  0
  -18.4995  -28.7610   22.8412 S   0  0  0  0  0  0  0  0  0  0  0  0
  1  2  1  0  0  0  0
  1  5  2  0  0  0  0
  2  6  2  0  0  0  0
  3  8  2  0  0  0  0
  3 17  1  0  0  0  0
  4  9  1  0  0  0  0
  4 17  2  0  0  0  0
  5 19  1  0  0  0  0
  6 21  1  0  0  0  0
  7 10  2  0  0  0  0
  7 20  1  0  0  0  0
  8 24  1  0  0  0  0
  9 24  2  0  0  0  0
 10 25  1  0  0  0  0
 11 12  2  0  0  0  0
 11 26  1  0  0  0  0
 12 27  1  0  0  0  0
 13 22  1  0  0  0  0
 13 25  2  0  0  0  0
 14 23  1  0  0  0  0
 14 30  2  0  0  0  0
 15 27  2  0  0  0  0
 15 28  1  0  0  0  0
 16 23  2  0  0  0  0
 16 83  1  0  0  0  0
 17 29  1  0  0  0  0
 18 29  1  0  0  0  0
 18 31  2  0  0  0  0
 18 32  1  0  0  0  0
 19 21  2  0  0  0  0
 19 39  1  0  0  0  0
 20 22  2  0  0  0  0
 20 40  1  0  0  0  0
 21 48  1  0  0  0  0
 22 41  1  0  0  0  0
 23 67  1  0  0  0  0
 24 79  1  0  0  0  0
 25 80  1  0  0  0  0
 26 28  2  0  0  0  0
 26 79  1  0  0  0  0
 27 81  1  0  0  0  0
 28 82  1  0  0  0  0
 29 61  2  0  0  0  0
 30 33  1  0  0  0  0
 30 83  1  0  0  0  0
 31 62  1  0  0  0  0
 31 65  1  0  0  0  0
 32 66  1  0  0  0  0
 32 72  2  0  0  0  0
 33 68  1  0  0  0  0
 33 73  2  0  0  0  0
 34 49  1  0  0  0  0
 34 69  1  0  0  0  0
 34 74  2  0  0  0  0
 35 56  1  0  0  0  0
 35 57  1  0  0  0  0
 35 75  2  0  0  0  0
 36 58  1  0  0  0  0
 36 63  1  0  0  0  0
 36 76  2  0  0  0  0
 37 59  1  0  0  0  0
 37 70  1  0  0  0  0
 37 77  2  0  0  0  0
 38 64  1  0  0  0  0
 38 68  1  0  0  0  0
 38 78  2  0  0  0  0
 39 42  1  0  0  0  0
 40 49  1  0  0  0  0
 41 63  1  0  0  0  0
 42 44  1  0  0  0  0
 43 45  1  0  0  0  0
 43 46  1  0  0  0  0
 44 48  1  0  0  0  0
 45 50  1  0  0  0  0
 46 64  1  0  0  0  0
 47 50  1  0  0  0  0
 47 64  1  0  0  0  0
 48 69  1  0  0  0  0
 49 63  1  0  0  0  0
 50 62  1  0  0  0  0
 51 59  1  0  0  0  0
 52 60  1  0  0  0  0
 53 60  1  0  0  0  0
 54 60  1  0  0  0  0
 55 71  1  0  0  0  0
 56 67  1  0  0  0  0
 57 80  1  0  0  0  0
 58 60  1  0  0  0  0
 58 70  1  0  0  0  0
 59 71  1  0  0  0  0
 61 62  1  0  0  0  0
M  CHG  1  71   1
M  ISO  4  38 100  57 101  68 100  80 101
M  END
> <Batch ID>
0146

> <Smiles>
CNC(C)C(=O)NC(C(=O)N1Cc2cc([101O:1][101CH2:1]C(=O)CNc3csc(C(=O)[100NH:0][100C:0](=O)N4CCCC(n5nc(-c6ccc(Oc7ccc(F)cc7F)cc6)c(C(N)=O)c5N)C4)c3)ccc2CC1C(=O)NC1CCCc2ccccc21)C(C)(C)C

> <Shape>
0.196

> <Color>
0.070

> <Negative vol penalty>
0.000

$$$$

  -OEChem-04052303103D

 86 95  0     1  0  0  0  0  0999 V2000
  -27.0604  -21.2867   11.2620 C   0  0  0  0  0  0  0  0  0  0  0  0
  -27.0383  -21.1983   12.6502 C   0  0  0  0  0  0  0  0  0  0  0  0
  -32.6558  -17.4843   23.4581 C   0  0  0  0  0  0  0  0  0  0  0  0
  -23.0742   -9.8694   19.9398 C   0  0  0  0  0  0  0  0  0  0  0  0
  -23.8343   -9.8738   22.2331 C   0  0  0  0  0  0  0  0  0  0  0  0
  -28.1327  -21.9056   10.6210 C   0  0  0  0  0  0  0  0  0  0  0  0
  -28.0892  -21.7280   13.3982 C   0  0  0  0  0  0  0  0  0  0  0  0
  -27.7172  -24.3815   18.9051 C   0  0  0  0  0  0  0  0  0  0  0  0
  -31.8586  -18.3512   24.2053 C   0  0  0  0  0  0  0  0  0  0  0  0
  -32.0673  -16.6009   22.5531 C   0  0  0  0  0  0  0  0  0  0  0  0
  -22.3293   -8.7167   20.1888 C   0  0  0  0  0  0  0  0  0  0  0  0
  -23.0894   -8.7211   22.4822 C   0  0  0  0  0  0  0  0  0  0  0  0
  -27.9519  -23.9045   20.1940 C   0  0  0  0  0  0  0  0  0  0  0  0
  -19.8606   -7.9256   23.0843 C   0  0  0  0  0  0  0  0  0  0  0  0
  -19.1037   -7.8853   24.2552 C   0  0  0  0  0  0  0  0  0  0  0  0
  -30.1888  -24.8039   20.1131 C   0  0  0  0  0  0  0  0  0  0  0  0
  -29.8842  -17.4514   23.1427 C   0  0  0  0  0  0  0  0  0  0  0  0
  -20.3435   -5.9462   24.9900 C   0  0  0  0  0  0  0  0  0  0  0  0
  -23.8267  -10.4480   20.9619 C   0  0  0  0  0  0  0  0  0  0  0  0
  -24.1707  -12.9729   20.8439 C   0  0  0  0  0  0  0  0  0  0  0  0
  -29.1927  -22.4516   11.3620 C   0  0  0  0  0  0  0  0  0  0  0  0
  -28.7220  -25.0650   18.2052 C   0  0  0  0  0  0  0  0  0  0  0  0
  -29.1774  -22.3536   12.7664 C   0  0  0  0  0  0  0  0  0  0  0  0
  -29.9635  -25.2908   18.8165 C   0  0  0  0  0  0  0  0  0  0  0  0
  -30.4728  -18.3348   24.0477 C   0  0  0  0  0  0  0  0  0  0  0  0
  -30.6815  -16.5845   22.3954 C   0  0  0  0  0  0  0  0  0  0  0  0
  -22.3369   -8.1426   21.4600 C   0  0  0  0  0  0  0  0  0  0  0  0
  -29.1887  -24.1131   20.7971 C   0  0  0  0  0  0  0  0  0  0  0  0
  -20.8589   -6.9761   22.8661 C   0  0  0  0  0  0  0  0  0  0  0  0
  -19.3452   -6.8956   25.2081 C   0  0  0  0  0  0  0  0  0  0  0  0
  -21.1004   -5.9864   23.8190 C   0  0  0  0  0  0  0  0  0  0  0  0
  -24.5968  -11.6384   20.7051 C   0  0  0  0  0  0  0  0  0  0  0  0
  -25.2634  -13.7218   20.4812 C   0  0  0  0  0  0  0  0  0  0  0  0
  -22.9007  -13.4895   21.2634 C   0  0  0  0  0  0  0  0  0  0  0  0
  -30.3217  -24.5523   15.5067 C   0  0  0  0  0  0  0  0  0  0  0  0
  -31.5209  -27.5045   16.1141 C   0  0  0  0  0  0  0  0  0  0  0  0
  -32.2262  -29.9290   18.4100 C   0  0  0  0  0  0  0  0  0  0  0  0
  -30.7305  -14.7625   20.6563 C   0  0  0  0  0  0  0  0  0  0  0  0
  -30.3530  -23.0691   10.6224 C   0  0  0  0  0  0  0  0  0  0  0  0
  -28.4441  -25.5966   16.8259 C   0  0  0  0  0  0  0  0  0  0  0  0
  -31.0686  -26.0364   18.1155 C   0  0  0  0  0  0  0  0  0  0  0  0
  -31.2459  -23.9368   11.5056 C   0  0  0  0  0  0  0  0  0  0  0  0
  -29.6139  -12.3517   18.2861 C   0  0  0  0  0  0  0  0  0  0  0  0
  -31.5642  -23.2179   12.8128 C   0  0  0  0  0  0  0  0  0  0  0  0
  -28.1740  -12.0610   18.7156 C   0  0  0  0  0  0  0  0  0  0  0  0
  -30.5293  -12.5787   19.4879 C   0  0  0  0  0  0  0  0  0  0  0  0
  -28.6230  -13.3036   20.8699 C   0  0  0  0  0  0  0  0  0  0  0  0
  -30.0377  -21.5400   24.0224 C   0  0  0  0  0  0  0  0  0  0  0  0
  -30.2868  -22.9380   13.6137 C   0  0  1  0  0  0  0  0  0  0  0  0
  -29.7112  -25.8301   16.0090 C   0  0  1  0  0  0  0  0  0  0  0  0
  -27.6500  -13.1322   19.6920 C   0  0  2  0  0  0  0  0  0  0  0  0
  -28.8164  -22.5011   24.0903 C   0  0  1  0  0  0  0  0  0  0  0  0
  -28.0602  -21.2555   24.7311 C   0  0  0  0  0  0  0  0  0  0  0  0
  -29.0401  -23.7244   24.9797 C   0  0  0  0  0  0  0  0  0  0  0  0
  -28.0391  -21.1998   26.2652 C   0  0  0  0  0  0  0  0  0  0  0  0
  -26.6662  -20.9363   24.1832 C   0  0  0  0  0  0  0  0  0  0  0  0
  -33.2402  -32.2156   18.6119 C   0  0  0  0  0  0  0  0  0  0  0  0
  -34.3075  -26.2891   15.8536 C   0  0  0  0  0  0  0  0  0  0  0  0
  -35.2263  -28.3293   16.9769 C   0  0  0  0  0  0  0  0  0  0  0  0
  -34.0461  -28.5370   14.7891 C   0  0  0  0  0  0  0  0  0  0  0  0
  -29.6976  -31.0879   19.4210 C   0  0  0  0  0  0  0  0  0  0  0  0
  -29.6156  -19.2675   24.8517 C   0  0  0  0  0  0  0  0  0  0  0  0
  -28.3520  -22.9547   22.6981 C   0  0  0  0  0  0  0  0  0  1  0  0
  -32.7090  -28.0397   16.8764 C   0  0  1  0  0  0  0  0  0  0  0  0
  -31.9577  -31.4231   18.4119 C   0  0  2  0  0  0  0  0  0  0  0  0
  -34.0522  -27.7830   16.1367 C   0  0  0  0  0  0  0  0  0  0  0  0
  -25.8615  -11.5418   20.2866 N   0  0  0  0  0  0  0  0  0  0  0  0
  -26.2395  -12.8252   20.1593 N   0  0  0  0  0  0  0  0  0  0  0  0
  -30.7504  -26.5311   16.7659 N   0  0  0  0  0  0  0  0  0  0  0  0
  -29.9712  -13.6092   20.3662 N   0  0  0  0  0  0  0  0  0  0  0  0
  -25.4750  -15.0531   20.4093 N   0  0  0  0  0  0  0  0  0  0  0  0
  -21.8880  -12.5809   21.6000 N   0  0  0  0  0  0  0  0  0  0  0  0
  -30.0840  -15.6875   21.4755 N   0  0  0  0  0  0  0  0  0  0  0  0
  -29.8350  -24.1402   14.2809 N   0  0  0  0  0  0  0  0  0  0  0  0
  -32.4281  -29.4480   17.1336 N   0  0  0  0  0  0  0  0  0  0  0  0
  -29.0939  -20.4016   24.0604 N   0  3  2  0  0  0  0  0  0  0  0  0
  -31.0105  -31.7778   19.5064 N   0  3  0  0  0  0  0  0  0  0  0  0
  -22.6655  -14.7203   21.3218 O   0  0  0  0  0  0  0  0  0  0  0  0
  -31.1723  -23.9833   16.1807 O   0  0  0  0  0  0  0  0  0  0  0  0
  -31.2811  -27.9393   14.9850 O   0  0  0  0  0  0  0  0  0  0  0  0
  -32.2576  -29.2566   19.4383 O   0  0  0  0  0  0  0  0  0  0  0  0
  -31.8597  -14.9307   20.1887 O   0  0  0  0  0  0  0  0  0  0  0  0
  -21.6100   -7.0179   21.7035 O   0  0  0  0  0  0  0  0  0  0  0  0
  -29.4206  -23.6479   22.0547 O   0  0  0  0  0  0  0  0  0  1  0  0
  -18.6193   -6.8580   26.3332 F   0  0  0  0  0  0  0  0  0  0  0  0
  -22.0589   -5.0723   23.6155 F   0  0  0  0  0  0  0  0  0  0  0  0
  1  2  1  0  0  0  0
  1  6  2  0  0  0  0
  2  7  2  0  0  0  0
  3  9  2  0  0  0  0
  3 10  1  0  0  0  0
  4 11  2  0  0  0  0
  4 19  1  0  0  0  0
  5 12  1  0  0  0  0
  5 19  2  0  0  0  0
  6 21  1  0  0  0  0
  7 23  1  0  0  0  0
  8 13  2  0  0  0  0
  8 22  1  0  0  0  0
  9 25  1  0  0  0  0
 10 26  2  0  0  0  0
 11 27  1  0  0  0  0
 12 27  2  0  0  0  0
 13 28  1  0  0  0  0
 14 15  2  0  0  0  0
 14 29  1  0  0  0  0
 15 30  1  0  0  0  0
 16 24  1  0  0  0  0
 16 28  2  0  0  0  0
 17 25  2  0  0  0  0
 17 26  1  0  0  0  0
 18 30  2  0  0  0  0
 18 31  1  0  0  0  0
 19 32  1  0  0  0  0
 20 32  1  0  0  0  0
 20 33  2  0  0  0  0
 20 34  1  0  0  0  0
 21 23  2  0  0  0  0
 21 39  1  0  0  0  0
 22 24  2  0  0  0  0
 22 40  1  0  0  0  0
 23 49  1  0  0  0  0
 24 41  1  0  0  0  0
 25 62  1  0  0  0  0
 26 73  1  0  0  0  0
 27 83  1  0  0  0  0
 28 84  1  0  0  0  0
 29 31  2  0  0  0  0
 29 83  1  0  0  0  0
 30 85  1  0  0  0  0
 31 86  1  0  0  0  0
 32 67  2  0  0  0  0
 33 68  1  0  0  0  0
 33 71  1  0  0  0  0
 34 72  1  0  0  0  0
 34 78  2  0  0  0  0
 35 50  1  0  0  0  0
 35 74  1  0  0  0  0
 35 79  2  0  0  0  0
 36 64  1  0  0  0  0
 36 69  1  0  0  0  0
 36 80  2  0  0  0  0
 37 65  1  0  0  0  0
 37 75  1  0  0  0  0
 37 81  2  0  0  0  0
 38 70  1  0  0  0  0
 38 73  1  0  0  0  0
 38 82  2  0  0  0  0
 39 42  1  0  0  0  0
 40 50  1  0  0  0  0
 41 69  1  0  0  0  0
 42 44  1  0  0  0  0
 43 45  1  0  0  0  0
 43 46  1  0  0  0  0
 44 49  1  0  0  0  0
 45 51  1  0  0  0  0
 46 70  1  0  0  0  0
 47 51  1  0  0  0  0
 47 70  1  0  0  0  0
 48 52  1  0  0  0  0
 48 76  1  0  0  0  0
 49 74  1  0  0  0  0
 50 69  1  0  0  0  0
 51 68  1  0  0  0  0
 52 53  1  0  0  0  0
 52 54  1  0  0  0  0
 52 63  1  0  0  0  0
 53 55  1  0  0  0  0
 53 56  1  0  0  0  0
 53 76  1  0  0  0  0
 57 65  1  0  0  0  0
 58 66  1  0  0  0  0
 59 66  1  0  0  0  0
 60 66  1  0  0  0  0
 61 77  1  0  0  0  0
 62 76  1  0  0  0  0
 63 84  1  0  0  0  0
 64 66  1  0  0  0  0
 64 75  1  0  0  0  0
 65 77  1  0  0  0  0
 67 68  1  0  0  0  0
M  CHG  2  76   1  77   1
M  ISO  4  38 100  63 101  73 100  84 101
M  END
> <Batch ID>
0146

> <Smiles>
CNC(C)C(=O)NC(C(=O)N1Cc2cc([101O:1][101CH2:1]C3(C)CN(Cc4cccc([100NH:0][100C:0](=O)N5CCCC(n6nc(-c7ccc(Oc8ccc(F)cc8F)cc7)c(C(N)=O)c6N)C5)c4)C3(C)C)ccc2CC1C(=O)NC1CCCc2ccccc21)C(C)(C)C

> <Shape>
0.209

> <Color>
0.184

> <Negative vol penalty>
0.000

$$$$

  -OEChem-04052303103D

 88 97  0     1  0  0  0  0  0999 V2000
  -17.0773  -26.4314   21.0107 C   0  0  0  0  0  0  0  0  0  0  0  0
  -18.4121  -26.0639   20.8740 C   0  0  0  0  0  0  0  0  0  0  0  0
  -26.6860  -20.5672   17.8215 C   0  0  0  0  0  0  0  0  0  0  0  0
  -23.3211  -12.0974   23.5727 C   0  0  0  0  0  0  0  0  0  0  0  0
  -22.3273  -13.7878   22.1613 C   0  0  0  0  0  0  0  0  0  0  0  0
  -16.7298  -27.7801   21.0748 C   0  0  0  0  0  0  0  0  0  0  0  0
  -19.4002  -27.0451   20.8003 C   0  0  0  0  0  0  0  0  0  0  0  0
  -23.4156  -25.9798   23.6962 C   0  0  0  0  0  0  0  0  0  0  0  0
  -27.6577  -21.5186   18.1314 C   0  0  0  0  0  0  0  0  0  0  0  0
  -26.8751  -19.2335   18.1840 C   0  0  0  0  0  0  0  0  0  0  0  0
  -22.2593  -12.2212   24.4687 C   0  0  0  0  0  0  0  0  0  0  0  0
  -21.2654  -13.9116   23.0573 C   0  0  0  0  0  0  0  0  0  0  0  0
  -24.3222  -25.0404   23.2070 C   0  0  0  0  0  0  0  0  0  0  0  0
  -18.4300  -12.2313   23.8043 C   0  0  0  0  0  0  0  0  0  0  0  0
  -17.1402  -12.2797   23.2755 C   0  0  0  0  0  0  0  0  0  0  0  0
  -25.7772  -26.8262   22.4908 C   0  0  0  0  0  0  0  0  0  0  0  0
  -29.0077  -19.8028   19.1661 C   0  0  0  0  0  0  0  0  0  0  0  0
  -16.8182  -14.4621   24.2607 C   0  0  0  0  0  0  0  0  0  0  0  0
  -23.3551  -12.8808   22.4190 C   0  0  0  0  0  0  0  0  0  0  0  0
  -24.5371  -11.8832   20.3904 C   0  0  0  0  0  0  0  0  0  0  0  0
  -17.7151  -28.7781   21.0116 C   0  0  0  0  0  0  0  0  0  0  0  0
  -23.6784  -27.3520   23.5764 C   0  0  0  0  0  0  0  0  0  0  0  0
  -19.0655  -28.4085   20.8624 C   0  0  0  0  0  0  0  0  0  0  0  0
  -24.8735  -27.7810   22.9816 C   0  0  0  0  0  0  0  0  0  0  0  0
  -28.8186  -21.1365   18.8037 C   0  0  0  0  0  0  0  0  0  0  0  0
  -28.0359  -18.8514   18.8563 C   0  0  0  0  0  0  0  0  0  0  0  0
  -21.2314  -13.1282   24.2110 C   0  0  0  0  0  0  0  0  0  0  0  0
  -25.5018  -25.4635   22.6016 C   0  0  0  0  0  0  0  0  0  0  0  0
  -18.9140  -13.2983   24.5613 C   0  0  0  0  0  0  0  0  0  0  0  0
  -16.3343  -13.3951   23.5037 C   0  0  0  0  0  0  0  0  0  0  0  0
  -18.1080  -14.4137   24.7895 C   0  0  0  0  0  0  0  0  0  0  0  0
  -24.4520  -12.7538   21.4934 C   0  0  0  0  0  0  0  0  0  0  0  0
  -25.7670  -12.1469   19.8388 C   0  0  0  0  0  0  0  0  0  0  0  0
  -23.5891  -10.9220   19.9075 C   0  0  0  0  0  0  0  0  0  0  0  0
  -28.2679  -23.0061   23.6216 C   0  0  0  0  0  0  0  0  0  0  0  0
  -22.2584  -29.7881   22.1091 C   0  0  0  0  0  0  0  0  0  0  0  0
  -24.5172  -31.5291   23.6548 C   0  0  0  0  0  0  0  0  0  0  0  0
  -27.5879  -31.6239   25.1409 C   0  0  0  0  0  0  0  0  0  0  0  0
  -29.3210  -16.9501   19.8955 C   0  0  0  0  0  0  0  0  0  0  0  0
  -17.2866  -30.2239   21.0376 C   0  0  0  0  0  0  0  0  0  0  0  0
  -22.7028  -28.3523   24.1332 C   0  0  0  0  0  0  0  0  0  0  0  0
  -25.2122  -29.2424   22.8466 C   0  0  0  0  0  0  0  0  0  0  0  0
  -18.4296  -31.1928   21.3291 C   0  0  0  0  0  0  0  0  0  0  0  0
  -30.1500  -13.6744   21.0178 C   0  0  0  0  0  0  0  0  0  0  0  0
  -19.6500  -30.8495   20.4808 C   0  0  0  0  0  0  0  0  0  0  0  0
  -28.7910  -12.9854   21.1609 C   0  0  0  0  0  0  0  0  0  0  0  0
  -30.1146  -23.9565   22.2637 C   0  0  0  0  0  0  0  0  0  0  0  0
  -30.0855  -15.1458   21.4236 C   0  0  0  0  0  0  0  0  0  0  0  0
  -27.6808  -15.2403   20.8965 C   0  0  0  0  0  0  0  0  0  0  0  0
  -30.4707  -23.9927   20.7848 C   0  0  0  0  0  0  0  0  0  0  0  0
  -28.4523  -22.6705   21.1607 C   0  0  0  0  0  0  0  0  0  0  0  0
  -20.1684  -29.4430   20.8039 C   0  0  1  0  0  0  0  0  0  0  0  0
  -22.8331  -29.7324   23.4963 C   0  0  1  0  0  0  0  0  0  0  0  0
  -27.6810  -13.7730   20.4376 C   0  0  2  0  0  0  0  0  0  0  0  0
  -28.6172  -23.6559   22.3124 C   0  0  1  0  0  0  0  0  0  0  0  0
  -28.5570  -23.7976   24.8683 C   0  0  0  0  0  0  0  0  0  0  0  0
  -30.4155  -22.8769   17.9018 C   0  0  0  0  0  0  0  0  0  0  0  0
  -29.1782  -33.1969   26.2784 C   0  0  0  0  0  0  0  0  0  0  0  0
  -25.2761  -32.7154   20.9480 C   0  0  0  0  0  0  0  0  0  0  0  0
  -27.4163  -33.5112   21.9750 C   0  0  0  0  0  0  0  0  0  0  0  0
  -25.2325  -34.3593   22.8321 C   0  0  0  0  0  0  0  0  0  0  0  0
  -27.5081  -30.0690   27.6578 C   0  0  0  0  0  0  0  0  0  0  0  0
  -27.7672  -24.9154   22.1287 C   0  0  0  0  0  0  0  0  0  1  0  0
  -29.8711  -22.1678   19.1392 C   0  0  1  0  0  0  0  0  0  0  0  0
  -25.9224  -31.9800   23.3370 C   0  0  1  0  0  0  0  0  0  0  0  0
  -28.0470  -32.1985   26.4688 C   0  0  2  0  0  0  0  0  0  0  0  0
  -25.9549  -33.1139   22.2737 C   0  0  0  0  0  0  0  0  0  0  0  0
  -25.5412  -13.5136   21.6357 N   0  0  0  0  0  0  0  0  0  0  0  0
  -26.3224  -13.1213   20.6150 N   0  0  0  0  0  0  0  0  0  0  0  0
  -24.2234  -30.1819   23.4009 N   0  0  0  0  0  0  0  0  0  0  0  0
  -29.0142  -15.8289   20.6952 N   0  0  0  0  0  0  0  0  0  0  0  0
  -26.4168  -11.6381   18.7705 N   0  0  0  0  0  0  0  0  0  0  0  0
  -22.3747  -10.7789   20.5925 N   0  0  0  0  0  0  0  0  0  0  0  0
  -28.2273  -17.4967   19.2249 N   0  0  0  0  0  0  0  0  0  0  0  0
  -20.9196  -29.4530   22.0409 N   0  0  0  0  0  0  0  0  0  0  0  0
  -26.5341  -32.3388   24.6120 N   0  0  0  0  0  0  0  0  0  0  0  0
  -29.3761  -23.2088   20.0909 N   0  3  2  0  0  0  0  0  0  0  0  0
  -28.5273  -31.1097   27.3660 N   0  3  0  0  0  0  0  0  0  0  0  0
  -23.8191  -10.1995   18.9082 O   0  0  0  0  0  0  0  0  0  0  0  0
  -27.7683  -21.8833   23.6716 O   0  0  0  0  0  0  0  0  0  0  0  0
  -22.9762  -30.1126   21.1704 O   0  0  0  0  0  0  0  0  0  0  0  0
  -23.7120  -32.3406   24.1181 O   0  0  0  0  0  0  0  0  0  0  0  0
  -28.1141  -30.6415   24.6226 O   0  0  0  0  0  0  0  0  0  0  0  0
  -30.4740  -17.3763   19.7904 O   0  0  0  0  0  0  0  0  0  0  0  0
  -20.1950  -13.2491   25.0849 O   0  0  0  0  0  0  0  0  0  0  0  0
  -26.3881  -24.5487   22.1227 O   0  0  0  0  0  0  0  0  0  1  0  0
  -15.0963  -13.4421   22.9946 F   0  0  0  0  0  0  0  0  0  0  0  0
  -18.5679  -15.4423   25.5150 F   0  0  0  0  0  0  0  0  0  0  0  0
  1  2  1  0  0  0  0
  1  6  2  0  0  0  0
  2  7  2  0  0  0  0
  3  9  2  0  0  0  0
  3 10  1  0  0  0  0
  4 11  2  0  0  0  0
  4 19  1  0  0  0  0
  5 12  1  0  0  0  0
  5 19  2  0  0  0  0
  6 21  1  0  0  0  0
  7 23  1  0  0  0  0
  8 13  2  0  0  0  0
  8 22  1  0  0  0  0
  9 25  1  0  0  0  0
 10 26  2  0  0  0  0
 11 27  1  0  0  0  0
 12 27  2  0  0  0  0
 13 28  1  0  0  0  0
 14 15  2  0  0  0  0
 14 29  1  0  0  0  0
 15 30  1  0  0  0  0
 16 24  1  0  0  0  0
 16 28  2  0  0  0  0
 17 25  2  0  0  0  0
 17 26  1  0  0  0  0
 18 30  2  0  0  0  0
 18 31  1  0  0  0  0
 19 32  1  0  0  0  0
 20 32  1  0  0  0  0
 20 33  2  0  0  0  0
 20 34  1  0  0  0  0
 21 23  2  0  0  0  0
 21 40  1  0  0  0  0
 22 24  2  0  0  0  0
 22 41  1  0  0  0  0
 23 52  1  0  0  0  0
 24 42  1  0  0  0  0
 25 64  1  0  0  0  0
 26 74  1  0  0  0  0
 27 85  1  0  0  0  0
 28 86  1  0  0  0  0
 29 31  2  0  0  0  0
 29 85  1  0  0  0  0
 30 87  1  0  0  0  0
 31 88  1  0  0  0  0
 32 68  2  0  0  0  0
 33 69  1  0  0  0  0
 33 72  1  0  0  0  0
 34 73  1  0  0  0  0
 34 79  2  0  0  0  0
 35 55  1  0  0  0  0
 35 56  1  0  0  0  0
 35 80  2  0  0  0  0
 36 53  1  0  0  0  0
 36 75  1  0  0  0  0
 36 81  2  0  0  0  0
 37 65  1  0  0  0  0
 37 70  1  0  0  0  0
 37 82  2  0  0  0  0
 38 66  1  0  0  0  0
 38 76  1  0  0  0  0
 38 83  2  0  0  0  0
 39 71  1  0  0  0  0
 39 74  1  0  0  0  0
 39 84  2  0  0  0  0
 40 43  1  0  0  0  0
 41 53  1  0  0  0  0
 42 70  1  0  0  0  0
 43 45  1  0  0  0  0
 44 46  1  0  0  0  0
 44 48  1  0  0  0  0
 45 52  1  0  0  0  0
 46 54  1  0  0  0  0
 47 50  1  0  0  0  0
 47 55  1  0  0  0  0
 48 71  1  0  0  0  0
 49 54  1  0  0  0  0
 49 71  1  0  0  0  0
 50 77  1  0  0  0  0
 51 55  1  0  0  0  0
 51 77  1  0  0  0  0
 52 75  1  0  0  0  0
 53 70  1  0  0  0  0
 54 69  1  0  0  0  0
 55 63  1  0  0  0  0
 57 64  1  0  0  0  0
 58 66  1  0  0  0  0
 59 67  1  0  0  0  0
 60 67  1  0  0  0  0
 61 67  1  0  0  0  0
 62 78  1  0  0  0  0
 63 86  1  0  0  0  0
 64 77  1  0  0  0  0
 65 67  1  0  0  0  0
 65 76  1  0  0  0  0
 66 78  1  0  0  0  0
 68 69  1  0  0  0  0
M  CHG  2  77   1  78   1
M  ISO  4  39 100  63 101  74 100  86 101
M  END
> <Batch ID>
0146

> <Smiles>
CNC(C)C(=O)NC(C(=O)N1Cc2cc([101O:1][101CH2:1]C3(C(C)=O)CCN(C(C)c4cccc([100NH:0][100C:0](=O)N5CCCC(n6nc(-c7ccc(Oc8ccc(F)cc8F)cc7)c(C(N)=O)c6N)C5)c4)C3)ccc2CC1C(=O)NC1CCCc2ccccc21)C(C)(C)C

> <Shape>
0.261

> <Color>
0.064

> <Negative vol penalty>
0.000

$$$$

  -OEChem-04052303103D

 83 91  0     1  0  0  0  0  0999 V2000
  -24.7424  -30.9138   22.3095 C   0  0  0  0  0  0  0  0  0  0  0  0
  -24.5322  -29.6853   22.9277 C   0  0  0  0  0  0  0  0  0  0  0  0
  -22.6098  -16.1841   21.8999 C   0  0  0  0  0  0  0  0  0  0  0  0
  -21.9404  -15.3979   19.7157 C   0  0  0  0  0  0  0  0  0  0  0  0
  -25.2568  -30.9623   21.0146 C   0  0  0  0  0  0  0  0  0  0  0  0
  -24.8352  -28.5045   22.2507 C   0  0  0  0  0  0  0  0  0  0  0  0
  -27.0024  -23.3186   24.6829 C   0  0  0  0  0  0  0  0  0  0  0  0
  -21.4338  -16.9286   21.9923 C   0  0  0  0  0  0  0  0  0  0  0  0
  -20.7644  -16.1424   19.8081 C   0  0  0  0  0  0  0  0  0  0  0  0
  -26.3813  -22.1298   25.0634 C   0  0  0  0  0  0  0  0  0  0  0  0
  -18.7742  -19.3199   22.6492 C   0  0  0  0  0  0  0  0  0  0  0  0
  -18.8700  -20.6316   23.1138 C   0  0  0  0  0  0  0  0  0  0  0  0
  -31.4729  -18.4417   24.5095 C   0  0  0  0  0  0  0  0  0  0  0  0
  -30.6744  -18.5634   25.6718 C   0  0  0  0  0  0  0  0  0  0  0  0
  -26.9539  -21.1556   22.9321 C   0  0  0  0  0  0  0  0  0  0  0  0
  -20.3379  -21.1761   21.2737 C   0  0  0  0  0  0  0  0  0  0  0  0
  -22.8631  -15.4188   20.7615 C   0  0  0  0  0  0  0  0  0  0  0  0
  -24.2778  -13.3204   21.0823 C   0  0  0  0  0  0  0  0  0  0  0  0
  -25.5753  -29.7818   20.3250 C   0  0  0  0  0  0  0  0  0  0  0  0
  -27.5954  -23.4387   23.4179 C   0  0  0  0  0  0  0  0  0  0  0  0
  -25.3531  -28.5373   20.9447 C   0  0  0  0  0  0  0  0  0  0  0  0
  -27.5842  -22.3462   22.5390 C   0  0  0  0  0  0  0  0  0  0  0  0
  -20.5111  -16.9077   20.9465 C   0  0  0  0  0  0  0  0  0  0  0  0
  -26.3545  -21.0491   24.1869 C   0  0  0  0  0  0  0  0  0  0  0  0
  -19.4602  -18.9362   21.4969 C   0  0  0  0  0  0  0  0  0  0  0  0
  -19.6519  -21.5597   22.4260 C   0  0  0  0  0  0  0  0  0  0  0  0
  -20.2421  -19.8643   20.8091 C   0  0  0  0  0  0  0  0  0  0  0  0
  -24.0779  -14.6501   20.6652 C   0  0  0  0  0  0  0  0  0  0  0  0
  -30.6632  -17.8864   23.5462 C   0  0  0  0  0  0  0  0  0  0  0  0
  -25.5902  -13.0575   20.7738 C   0  0  0  0  0  0  0  0  0  0  0  0
  -29.4336  -18.0740   25.3358 C   0  0  0  0  0  0  0  0  0  0  0  0
  -30.9249  -17.5222   22.1424 C   0  0  0  0  0  0  0  0  0  0  0  0
  -23.3594  -12.4049   21.6938 C   0  0  0  0  0  0  0  0  0  0  0  0
  -27.1062  -25.2853   20.8774 C   0  0  0  0  0  0  0  0  0  0  0  0
  -29.7881  -23.8239   19.7845 C   0  0  0  0  0  0  0  0  0  0  0  0
  -31.8672  -21.1202   19.9027 C   0  0  0  0  0  0  0  0  0  0  0  0
  -30.3271  -16.6812   20.0865 C   0  0  0  0  0  0  0  0  0  0  0  0
  -26.0847  -29.8831   18.9090 C   0  0  0  0  0  0  0  0  0  0  0  0
  -28.2847  -24.7190   23.0329 C   0  0  0  0  0  0  0  0  0  0  0  0
  -28.2241  -22.4171   21.1775 C   0  0  0  0  0  0  0  0  0  0  0  0
  -26.7312  -28.5971   18.4007 C   0  0  0  0  0  0  0  0  0  0  0  0
  -29.0478  -14.2858   17.7137 C   0  0  0  0  0  0  0  0  0  0  0  0
  -25.8581  -27.3920   18.7358 C   0  0  0  0  0  0  0  0  0  0  0  0
  -27.6328  -14.0137   18.2239 C   0  0  0  0  0  0  0  0  0  0  0  0
  -29.4580  -15.7365   17.9474 C   0  0  0  0  0  0  0  0  0  0  0  0
  -27.9200  -15.9052   19.8851 C   0  0  0  0  0  0  0  0  0  0  0  0
  -25.6927  -27.2352   20.2523 C   0  0  1  0  0  0  0  0  0  0  0  0
  -28.4073  -24.9009   21.5232 C   0  0  1  0  0  0  0  0  0  0  0  0
  -27.4832  -14.4426   19.6944 C   0  0  1  0  0  0  0  0  0  0  0  0
  -33.9566  -20.1952   18.8654 C   0  0  0  0  0  0  0  0  0  0  0  0
  -28.2142  -23.0882   17.2762 C   0  0  0  0  0  0  0  0  0  0  0  0
  -29.9906  -21.4077   16.7389 C   0  0  0  0  0  0  0  0  0  0  0  0
  -30.5638  -23.8329   16.8525 C   0  0  0  0  0  0  0  0  0  0  0  0
  -24.5430  -17.4015   25.5030 C   0  0  0  0  0  0  0  0  0  0  0  0
  -25.7345  -17.7468   27.6732 C   0  0  0  0  0  0  0  0  0  0  0  0
  -33.2800  -21.0821   22.5029 C   0  0  0  0  0  0  0  0  0  0  0  0
  -27.0400  -17.3951   25.5243 C   0  0  0  0  0  0  0  0  0  0  0  0
  -25.7489  -19.5678   25.9461 C   0  0  0  0  0  0  0  0  0  1  0  0
  -30.0757  -22.5732   18.9896 C   0  0  1  0  0  0  0  0  0  0  0  0
  -33.3779  -21.0151   20.0080 C   0  0  2  0  0  0  0  0  0  0  0  0
  -29.6972  -22.7245   17.4891 C   0  0  0  0  0  0  0  0  0  0  0  0
  -25.7844  -18.0382   26.1618 C   0  0  0  0  0  0  0  0  0  0  0  0
  -25.1754  -15.1939   20.1325 N   0  0  0  0  0  0  0  0  0  0  0  0
  -30.0102  -16.9989   21.3935 N   0  0  0  0  0  0  0  0  0  0  0  0
  -26.0776  -14.2011   20.2129 N   0  0  0  0  0  0  0  0  0  0  0  0
  -28.8801  -23.6925   20.8448 N   0  0  0  0  0  0  0  0  0  0  0  0
  -29.2706  -16.1171   19.3481 N   0  0  0  0  0  0  0  0  0  0  0  0
  -26.3632  -11.9619   20.9305 N   0  0  0  0  0  0  0  0  0  0  0  0
  -22.0493  -12.8375   21.9404 N   0  0  0  0  0  0  0  0  0  0  0  0
  -28.2630  -17.9437   26.0644 N   0  0  0  0  0  0  0  0  0  0  0  0
  -26.8815  -26.6480   20.8323 N   0  0  0  0  0  0  0  0  0  0  0  0
  -31.4804  -22.2555   19.2224 N   0  0  0  0  0  0  0  0  0  0  0  0
  -33.7637  -20.3676   21.2936 N   0  3  0  0  0  0  0  0  0  0  0  0
  -23.6953  -11.2432   22.0271 O   0  0  0  0  0  0  0  0  0  0  0  0
  -26.3620  -24.4105   20.4502 O   0  0  0  0  0  0  0  0  0  0  0  0
  -30.3538  -24.8771   19.4805 O   0  0  0  0  0  0  0  0  0  0  0  0
  -31.1064  -20.2774   20.3733 O   0  0  0  0  0  0  0  0  0  0  0  0
  -31.4363  -16.8720   19.5822 O   0  0  0  0  0  0  0  0  0  0  0  0
  -29.4184  -17.6593   24.0418 O   0  0  0  0  0  0  0  0  0  0  0  0
  -19.3634  -17.6338   21.0364 O   0  0  0  0  0  0  0  0  0  0  0  0
  -25.7483  -19.8878   24.5554 O   0  0  0  0  0  0  0  0  0  1  0  0
  -19.7426  -22.8196   22.8714 F   0  0  0  0  0  0  0  0  0  0  0  0
  -20.9025  -19.5019   19.7008 F   0  0  0  0  0  0  0  0  0  0  0  0
  1  2  1  0  0  0  0
  1  5  2  0  0  0  0
  2  6  2  0  0  0  0
  3  8  2  0  0  0  0
  3 17  1  0  0  0  0
  4  9  1  0  0  0  0
  4 17  2  0  0  0  0
  5 19  1  0  0  0  0
  6 21  1  0  0  0  0
  7 10  2  0  0  0  0
  7 20  1  0  0  0  0
  8 23  1  0  0  0  0
  9 23  2  0  0  0  0
 10 24  1  0  0  0  0
 11 12  2  0  0  0  0
 11 25  1  0  0  0  0
 12 26  1  0  0  0  0
 13 14  1  0  0  0  0
 13 29  2  0  0  0  0
 14 31  2  0  0  0  0
 15 22  1  0  0  0  0
 15 24  2  0  0  0  0
 16 26  2  0  0  0  0
 16 27  1  0  0  0  0
 17 28  1  0  0  0  0
 18 28  1  0  0  0  0
 18 30  2  0  0  0  0
 18 33  1  0  0  0  0
 19 21  2  0  0  0  0
 19 38  1  0  0  0  0
 20 22  2  0  0  0  0
 20 39  1  0  0  0  0
 21 47  1  0  0  0  0
 22 40  1  0  0  0  0
 23 80  1  0  0  0  0
 24 81  1  0  0  0  0
 25 27  2  0  0  0  0
 25 80  1  0  0  0  0
 26 82  1  0  0  0  0
 27 83  1  0  0  0  0
 28 63  2  0  0  0  0
 29 32  1  0  0  0  0
 29 79  1  0  0  0  0
 30 65  1  0  0  0  0
 30 68  1  0  0  0  0
 31 70  1  0  0  0  0
 31 79  1  0  0  0  0
 32 64  2  0  0  0  0
 33 69  1  0  0  0  0
 33 74  2  0  0  0  0
 34 48  1  0  0  0  0
 34 71  1  0  0  0  0
 34 75  2  0  0  0  0
 35 59  1  0  0  0  0
 35 66  1  0  0  0  0
 35 76  2  0  0  0  0
 36 60  1  0  0  0  0
 36 72  1  0  0  0  0
 36 77  2  0  0  0  0
 37 64  1  0  0  0  0
 37 67  1  0  0  0  0
 37 78  2  0  0  0  0
 38 41  1  0  0  0  0
 39 48  1  0  0  0  0
 40 66  1  0  0  0  0
 41 43  1  0  0  0  0
 42 44  1  0  0  0  0
 42 45  1  0  0  0  0
 43 47  1  0  0  0  0
 44 49  1  0  0  0  0
 45 67  1  0  0  0  0
 46 49  1  0  0  0  0
 46 67  1  0  0  0  0
 47 71  1  0  0  0  0
 48 66  1  0  0  0  0
 49 65  1  0  0  0  0
 50 60  1  0  0  0  0
 51 61  1  0  0  0  0
 52 61  1  0  0  0  0
 53 61  1  0  0  0  0
 54 62  1  0  0  0  0
 55 62  1  0  0  0  0
 56 73  1  0  0  0  0
 57 62  1  0  0  0  0
 57 70  1  0  0  0  0
 58 62  1  0  0  0  0
 58 81  1  0  0  0  0
 59 61  1  0  0  0  0
 59 72  1  0  0  0  0
 60 73  1  0  0  0  0
 63 65  1  0  0  0  0
M  CHG  1  73   1
M  ISO  4  37 100  58 101  64 100  81 101
M  END
> <Batch ID>
0146

> <Smiles>
CNC(C)C(=O)NC(C(=O)N1Cc2cc([101O:1][101CH2:1]C(C)(C)CNc3ccc(C=[100N:0][100C:0](=O)N4CCCC(n5nc(-c6ccc(Oc7ccc(F)cc7F)cc6)c(C(N)=O)c5N)C4)o3)ccc2CC1C(=O)NC1CCCc2ccccc21)C(C)(C)C

> <Shape>
0.174

> <Color>
0.090

> <Negative vol penalty>
0.000

$$$$

  -OEChem-04052303103D

 84 93  0     1  0  0  0  0  0999 V2000
  -29.3080  -36.9171   20.5643 C   0  0  0  0  0  0  0  0  0  0  0  0
  -29.4847  -35.5675   20.2762 C   0  0  0  0  0  0  0  0  0  0  0  0
  -24.9130   -7.7912   20.6814 C   0  0  0  0  0  0  0  0  0  0  0  0
  -23.5106   -9.7081   20.2392 C   0  0  0  0  0  0  0  0  0  0  0  0
  -28.4617  -37.3019   21.6033 C   0  0  0  0  0  0  0  0  0  0  0  0
  -28.8160  -34.6020   21.0278 C   0  0  0  0  0  0  0  0  0  0  0  0
  -26.6244  -29.2451   19.0260 C   0  0  0  0  0  0  0  0  0  0  0  0
  -23.7918   -7.0622   21.0774 C   0  0  0  0  0  0  0  0  0  0  0  0
  -22.3893   -8.9791   20.6352 C   0  0  0  0  0  0  0  0  0  0  0  0
  -27.1283  -27.9463   19.0803 C   0  0  0  0  0  0  0  0  0  0  0  0
  -21.3440   -4.8099   22.5469 C   0  0  0  0  0  0  0  0  0  0  0  0
  -21.4414   -4.0491   23.7119 C   0  0  0  0  0  0  0  0  0  0  0  0
  -25.8248  -27.5301   21.0669 C   0  0  0  0  0  0  0  0  0  0  0  0
  -26.5501  -18.7869   19.2333 C   0  0  0  0  0  0  0  0  0  0  0  0
  -21.9174   -6.0504   24.9789 C   0  0  0  0  0  0  0  0  0  0  0  0
  -24.7725   -9.1142   20.2624 C   0  0  0  0  0  0  0  0  0  0  0  0
  -26.8141   -9.5646   18.8005 C   0  0  0  0  0  0  0  0  0  0  0  0
  -27.7748  -36.3409   22.3618 C   0  0  0  0  0  0  0  0  0  0  0  0
  -25.7238  -29.7005   19.9996 C   0  0  0  0  0  0  0  0  0  0  0  0
  -27.9607  -34.9742   22.0788 C   0  0  0  0  0  0  0  0  0  0  0  0
  -25.3090  -28.8343   21.0213 C   0  0  0  0  0  0  0  0  0  0  0  0
  -25.8461  -19.6447   18.3396 C   0  0  0  0  0  0  0  0  0  0  0  0
  -22.5299   -7.6561   21.0543 C   0  0  0  0  0  0  0  0  0  0  0  0
  -26.7308  -27.0895   20.1025 C   0  0  0  0  0  0  0  0  0  0  0  0
  -21.5333   -6.1910   22.5978 C   0  0  0  0  0  0  0  0  0  0  0  0
  -21.7281   -4.6694   24.9279 C   0  0  0  0  0  0  0  0  0  0  0  0
  -21.8200   -6.8112   23.8139 C   0  0  0  0  0  0  0  0  0  0  0  0
  -25.9305   -9.8679   19.8537 C   0  0  0  0  0  0  0  0  0  0  0  0
  -24.9400  -18.9540   17.5654 C   0  0  0  0  0  0  0  0  0  0  0  0
  -27.7380  -10.5806   18.8241 C   0  0  0  0  0  0  0  0  0  0  0  0
  -26.1550  -17.4731   19.1083 C   0  0  0  0  0  0  0  0  0  0  0  0
  -26.8007   -8.4630   17.8830 C   0  0  0  0  0  0  0  0  0  0  0  0
  -25.7614  -32.0070   22.1864 C   0  0  0  0  0  0  0  0  0  0  0  0
  -22.6809  -31.0956   22.6363 C   0  0  0  0  0  0  0  0  0  0  0  0
  -20.3144  -28.6512   22.3698 C   0  0  0  0  0  0  0  0  0  0  0  0
  -27.5539  -16.2210   20.7881 C   0  0  0  0  0  0  0  0  0  0  0  0
  -26.9073  -36.8033   23.5056 C   0  0  0  0  0  0  0  0  0  0  0  0
  -25.1688  -31.0957   19.9117 C   0  0  0  0  0  0  0  0  0  0  0  0
  -24.3286  -29.2680   22.0792 C   0  0  0  0  0  0  0  0  0  0  0  0
  -25.9449  -35.7320   24.0120 C   0  0  0  0  0  0  0  0  0  0  0  0
  -29.8216  -13.6787   21.8232 C   0  0  0  0  0  0  0  0  0  0  0  0
  -27.5122  -21.4786   17.8217 C   0  0  0  0  0  0  0  0  0  0  0  0
  -25.7267  -21.8471   19.5811 C   0  0  0  0  0  0  0  0  0  0  0  0
  -26.6716  -34.4027   24.1900 C   0  0  0  0  0  0  0  0  0  0  0  0
  -27.7305  -22.9886   17.7314 C   0  0  0  0  0  0  0  0  0  0  0  0
  -25.9496  -23.3563   19.4865 C   0  0  0  0  0  0  0  0  0  0  0  0
  -29.1645  -12.3858   21.3344 C   0  0  0  0  0  0  0  0  0  0  0  0
  -28.7871  -14.6918   22.3099 C   0  0  0  0  0  0  0  0  0  0  0  0
  -27.0567  -13.6986   20.8648 C   0  0  0  0  0  0  0  0  0  0  0  0
  -26.0766  -21.1429   18.2594 C   0  0  0  0  0  0  0  0  0  0  0  0
  -27.2335  -33.8981   22.8554 C   0  0  1  0  0  0  0  0  0  0  0  0
  -24.6533  -31.6191   21.2487 C   0  0  1  0  0  0  0  0  0  0  0  0
  -27.3816  -23.6919   19.0496 C   0  0  0  0  0  0  0  0  0  0  0  0
  -28.0547  -12.6724   20.3040 C   0  0  2  0  0  0  0  0  0  0  0  0
  -24.0212  -19.4709   16.5259 C   0  0  0  0  0  0  0  0  0  0  0  0
  -17.8959  -28.1895   22.8548 C   0  0  0  0  0  0  0  0  0  0  0  0
  -23.3375  -30.7831   25.5996 C   0  0  0  0  0  0  0  0  0  0  0  0
  -21.2355  -29.4468   25.8529 C   0  0  0  0  0  0  0  0  0  0  0  0
  -21.1161  -31.8307   25.1281 C   0  0  0  0  0  0  0  0  0  0  0  0
  -19.7116  -28.1769   19.5113 C   0  0  0  0  0  0  0  0  0  0  0  0
  -27.5647  -25.2028   18.9190 C   0  0  0  0  0  0  0  0  0  1  0  0
  -21.9820  -30.0868   23.5154 C   0  0  1  0  0  0  0  0  0  0  0  0
  -18.8995  -28.6747   21.8203 C   0  0  2  0  0  0  0  0  0  0  0  0
  -21.9378  -30.5290   25.0053 C   0  0  0  0  0  0  0  0  0  0  0  0
  -26.2634  -10.9888   20.4993 N   0  0  0  0  0  0  0  0  0  0  0  0
  -27.3664  -11.3987   19.8502 N   0  0  0  0  0  0  0  0  0  0  0  0
  -23.8192  -30.6436   21.9538 N   0  0  0  0  0  0  0  0  0  0  0  0
  -27.7700  -14.9165   21.2804 N   0  0  0  0  0  0  0  0  0  0  0  0
  -28.8240  -10.8450   18.0671 N   0  0  0  0  0  0  0  0  0  0  0  0
  -26.0952   -8.6037   16.6802 N   0  0  0  0  0  0  0  0  0  0  0  0
  -26.5853  -16.3070   19.7886 N   0  0  0  0  0  0  0  0  0  0  0  0
  -26.1802  -33.3169   22.0509 N   0  0  0  0  0  0  0  0  0  0  0  0
  -20.6693  -29.8653   22.9186 N   0  0  0  0  0  0  0  0  0  0  0  0
  -18.7959  -27.7995   20.6185 N   0  3  0  0  0  0  0  0  0  0  0  0
  -27.3832   -7.3798   18.1299 O   0  0  0  0  0  0  0  0  0  0  0  0
  -26.2027  -31.1797   22.9754 O   0  0  0  0  0  0  0  0  0  0  0  0
  -22.2293  -32.2405   22.5525 O   0  0  0  0  0  0  0  0  0  0  0  0
  -21.0316  -27.6544   22.3206 O   0  0  0  0  0  0  0  0  0  0  0  0
  -28.2011  -17.1863   21.2020 O   0  0  0  0  0  0  0  0  0  0  0  0
  -21.4355   -6.9450   21.4405 O   0  0  0  0  0  0  0  0  0  0  0  0
  -27.2216  -25.8215   20.1583 O   0  0  0  0  0  0  0  0  0  1  0  0
  -21.8201   -3.9388   26.0469 F   0  0  0  0  0  0  0  0  0  0  0  0
  -22.0018   -8.1377   23.8693 F   0  0  0  0  0  0  0  0  0  0  0  0
  -24.9404  -17.2780   17.9171 S   0  0  0  0  0  0  0  0  0  0  0  0
  1  2  1  0  0  0  0
  1  5  2  0  0  0  0
  2  6  2  0  0  0  0
  3  8  2  0  0  0  0
  3 16  1  0  0  0  0
  4  9  1  0  0  0  0
  4 16  2  0  0  0  0
  5 18  1  0  0  0  0
  6 20  1  0  0  0  0
  7 10  2  0  0  0  0
  7 19  1  0  0  0  0
  8 23  1  0  0  0  0
  9 23  2  0  0  0  0
 10 24  1  0  0  0  0
 11 12  2  0  0  0  0
 11 25  1  0  0  0  0
 12 26  1  0  0  0  0
 13 21  1  0  0  0  0
 13 24  2  0  0  0  0
 14 22  1  0  0  0  0
 14 31  2  0  0  0  0
 15 26  2  0  0  0  0
 15 27  1  0  0  0  0
 16 28  1  0  0  0  0
 17 28  1  0  0  0  0
 17 30  2  0  0  0  0
 17 32  1  0  0  0  0
 18 20  2  0  0  0  0
 18 37  1  0  0  0  0
 19 21  2  0  0  0  0
 19 38  1  0  0  0  0
 20 51  1  0  0  0  0
 21 39  1  0  0  0  0
 22 29  2  0  0  0  0
 22 50  1  0  0  0  0
 23 80  1  0  0  0  0
 24 81  1  0  0  0  0
 25 27  2  0  0  0  0
 25 80  1  0  0  0  0
 26 82  1  0  0  0  0
 27 83  1  0  0  0  0
 28 65  2  0  0  0  0
 29 55  1  0  0  0  0
 29 84  1  0  0  0  0
 30 66  1  0  0  0  0
 30 69  1  0  0  0  0
 31 71  1  0  0  0  0
 31 84  1  0  0  0  0
 32 70  1  0  0  0  0
 32 75  2  0  0  0  0
 33 52  1  0  0  0  0
 33 72  1  0  0  0  0
 33 76  2  0  0  0  0
 34 62  1  0  0  0  0
 34 67  1  0  0  0  0
 34 77  2  0  0  0  0
 35 63  1  0  0  0  0
 35 73  1  0  0  0  0
 35 78  2  0  0  0  0
 36 68  1  0  0  0  0
 36 71  1  0  0  0  0
 36 79  2  0  0  0  0
 37 40  1  0  0  0  0
 38 52  1  0  0  0  0
 39 67  1  0  0  0  0
 40 44  1  0  0  0  0
 41 47  1  0  0  0  0
 41 48  1  0  0  0  0
 42 45  1  0  0  0  0
 42 50  1  0  0  0  0
 43 46  1  0  0  0  0
 43 50  1  0  0  0  0
 44 51  1  0  0  0  0
 45 53  1  0  0  0  0
 46 53  1  0  0  0  0
 47 54  1  0  0  0  0
 48 68  1  0  0  0  0
 49 54  1  0  0  0  0
 49 68  1  0  0  0  0
 51 72  1  0  0  0  0
 52 67  1  0  0  0  0
 53 61  1  0  0  0  0
 54 66  1  0  0  0  0
 56 63  1  0  0  0  0
 57 64  1  0  0  0  0
 58 64  1  0  0  0  0
 59 64  1  0  0  0  0
 60 74  1  0  0  0  0
 61 81  1  0  0  0  0
 62 64  1  0  0  0  0
 62 73  1  0  0  0  0
 63 74  1  0  0  0  0
 65 66  1  0  0  0  0
M  CHG  1  74   1
M  ISO  4  36 100  61 101  71 100  81 101
M  END
> <Batch ID>
0146

> <Smiles>
CNC(C)C(=O)NC(C(=O)N1Cc2cc([101O:1][101CH2:1]C3CCC(c4cc([100NH:0][100C:0](=O)N5CCCC(n6nc(-c7ccc(Oc8ccc(F)cc8F)cc7)c(C(N)=O)c6N)C5)sc4C)CC3)ccc2CC1C(=O)NC1CCCc2ccccc21)C(C)(C)C

> <Shape>
0.263

> <Color>
0.104

> <Negative vol penalty>
0.000

$$$$

  -OEChem-04052303103D

 88 97  0     1  0  0  0  0  0999 V2000
  -22.7740   -8.6445   20.5755 C   0  0  0  0  0  0  0  0  0  0  0  0
  -22.0376   -9.6775   21.1465 C   0  0  0  0  0  0  0  0  0  0  0  0
  -28.5629  -28.4548   20.5394 C   0  0  0  0  0  0  0  0  0  0  0  0
  -26.9613  -26.7548   19.9213 C   0  0  0  0  0  0  0  0  0  0  0  0
  -24.1668   -8.7071   20.5628 C   0  0  0  0  0  0  0  0  0  0  0  0
  -22.6937  -10.7732   21.7063 C   0  0  0  0  0  0  0  0  0  0  0  0
  -21.4541  -17.4550   19.3172 C   0  0  0  0  0  0  0  0  0  0  0  0
  -29.6053  -27.5584   20.3040 C   0  0  0  0  0  0  0  0  0  0  0  0
  -28.0038  -25.8583   19.6859 C   0  0  0  0  0  0  0  0  0  0  0  0
  -21.1147  -18.7832   19.0585 C   0  0  0  0  0  0  0  0  0  0  0  0
  -30.2618  -25.2516   17.2459 C   0  0  0  0  0  0  0  0  0  0  0  0
  -30.2061  -24.4867   16.0809 C   0  0  0  0  0  0  0  0  0  0  0  0
  -19.0643  -26.0963   20.2519 C   0  0  0  0  0  0  0  0  0  0  0  0
  -17.2865  -24.5535   20.7961 C   0  0  0  0  0  0  0  0  0  0  0  0
  -22.8030  -19.5300   20.6206 C   0  0  0  0  0  0  0  0  0  0  0  0
  -18.2141  -25.9811   22.5104 C   0  0  0  0  0  0  0  0  0  0  0  0
  -30.2029  -22.4672   17.4071 C   0  0  0  0  0  0  0  0  0  0  0  0
  -27.2409  -28.0530   20.3481 C   0  0  0  0  0  0  0  0  0  0  0  0
  -18.1625  -25.1062   19.8619 C   0  0  0  0  0  0  0  0  0  0  0  0
  -25.9439  -30.2141   19.9540 C   0  0  0  0  0  0  0  0  0  0  0  0
  -24.8400   -9.8087   21.1140 C   0  0  0  0  0  0  0  0  0  0  0  0
  -22.4808  -17.1594   20.2181 C   0  0  0  0  0  0  0  0  0  0  0  0
  -24.0968  -10.8500   21.7022 C   0  0  0  0  0  0  0  0  0  0  0  0
  -23.1557  -18.2019   20.8743 C   0  0  0  0  0  0  0  0  0  0  0  0
  -19.0901  -26.5337   21.5762 C   0  0  0  0  0  0  0  0  0  0  0  0
  -29.3258  -26.2602   19.8773 C   0  0  0  0  0  0  0  0  0  0  0  0
  -21.7874  -19.8181   19.7087 C   0  0  0  0  0  0  0  0  0  0  0  0
  -30.2882  -24.6244   18.4916 C   0  0  0  0  0  0  0  0  0  0  0  0
  -30.1766  -23.0944   16.1615 C   0  0  0  0  0  0  0  0  0  0  0  0
  -17.3123  -24.9909   22.1204 C   0  0  0  0  0  0  0  0  0  0  0  0
  -30.2587  -23.2322   18.5722 C   0  0  0  0  0  0  0  0  0  0  0  0
  -26.1636  -28.9783   20.5915 C   0  0  0  0  0  0  0  0  0  0  0  0
  -24.8001  -30.7025   20.5366 C   0  0  0  0  0  0  0  0  0  0  0  0
  -18.1367  -24.6425   18.4656 C   0  0  0  0  0  0  0  0  0  0  0  0
  -26.7057  -30.8624   18.9268 C   0  0  0  0  0  0  0  0  0  0  0  0
  -24.5310  -14.5133   21.9126 C   0  0  0  0  0  0  0  0  0  0  0  0
  -26.4476  -16.7948   21.1835 C   0  0  0  0  0  0  0  0  0  0  0  0
  -29.1391  -18.7049   20.3204 C   0  0  0  0  0  0  0  0  0  0  0  0
  -20.1614  -28.0861   23.2462 C   0  0  0  0  0  0  0  0  0  0  0  0
  -26.3482   -9.8095   21.1192 C   0  0  0  0  0  0  0  0  0  0  0  0
  -22.8385  -15.7418   20.5736 C   0  0  0  0  0  0  0  0  0  0  0  0
  -24.2301  -17.8356   21.8615 C   0  0  0  0  0  0  0  0  0  0  0  0
  -26.9556  -11.1818   21.3984 C   0  0  0  0  0  0  0  0  0  0  0  0
  -22.3252  -30.5497   24.6337 C   0  0  0  0  0  0  0  0  0  0  0  0
  -26.2607  -11.8417   22.5853 C   0  0  0  0  0  0  0  0  0  0  0  0
  -23.5324  -30.5431   23.6931 C   0  0  0  0  0  0  0  0  0  0  0  0
  -20.8194  -23.2138   16.3696 C   0  0  0  0  0  0  0  0  0  0  0  0
  -21.7532  -29.1472   24.8321 C   0  0  0  0  0  0  0  0  0  0  0  0
  -19.3598  -23.5874   16.5870 C   0  0  0  0  0  0  0  0  0  0  0  0
  -22.6418  -28.4191   22.6528 C   0  0  0  0  0  0  0  0  0  0  0  0
  -20.5556  -23.8467   18.6618 C   0  0  0  0  0  0  0  0  0  0  0  0
  -24.7715  -12.0669   22.2972 C   0  0  1  0  0  0  0  0  0  0  0  0
  -24.3416  -15.5479   20.8425 C   0  0  1  0  0  0  0  0  0  0  0  0
  -23.2127  -29.8184   22.3709 C   0  0  2  0  0  0  0  0  0  0  0  0
  -21.3249  -22.8520   17.7788 C   0  0  2  0  0  0  0  0  0  0  0  0
  -23.5685  -22.1764   16.9277 C   0  0  0  0  0  0  0  0  0  0  0  0
  -31.4907  -19.2271   21.0239 C   0  0  0  0  0  0  0  0  0  0  0  0
  -25.3793  -18.5037   23.4731 C   0  0  0  0  0  0  0  0  0  0  0  0
  -27.5784  -19.6999   23.5123 C   0  0  0  0  0  0  0  0  0  0  0  0
  -27.4818  -17.2547   23.9962 C   0  0  0  0  0  0  0  0  0  0  0  0
  -30.2456  -17.7385   17.7513 C   0  0  0  0  0  0  0  0  0  0  0  0
  -22.8379  -23.0384   17.8986 C   0  0  0  0  0  0  0  0  0  0  0  0
  -20.9574  -21.4042   18.1425 C   0  0  0  0  0  0  0  0  0  1  0  0
  -27.1299  -18.0641   21.6270 C   0  0  1  0  0  0  0  0  0  0  0  0
  -30.6062  -18.3573   20.1441 C   0  0  2  0  0  0  0  0  0  0  0  0
  -26.8769  -18.3796   23.1283 C   0  0  0  0  0  0  0  0  0  0  0  0
  -25.2340  -28.6991   21.5091 N   0  0  0  0  0  0  0  0  0  0  0  0
  -24.4191  -29.7663   21.4523 N   0  0  0  0  0  0  0  0  0  0  0  0
  -19.2977  -24.0840   17.9528 N   0  0  0  0  0  0  0  0  0  0  0  0
  -25.0554  -16.7430   21.3234 N   0  0  0  0  0  0  0  0  0  0  0  0
  -21.4706  -28.5241   23.5372 N   0  0  0  0  0  0  0  0  0  0  0  0
  -24.0930  -31.8373   20.3499 N   0  0  0  0  0  0  0  0  0  0  0  0
  -27.8536  -30.2215   18.4410 N   0  0  0  0  0  0  0  0  0  0  0  0
  -20.0059  -27.5396   21.9727 N   0  0  0  0  0  0  0  0  0  0  0  0
  -24.5913  -13.2171   21.4376 N   0  0  0  0  0  0  0  0  0  0  0  0
  -28.5383  -17.9142   21.2771 N   0  0  0  0  0  0  0  0  0  0  0  0
  -31.0178  -18.5523   18.7251 N   0  3  0  0  0  0  0  0  0  0  0  0
  -17.0818  -24.7719   17.8476 O   0  0  0  0  0  0  0  0  0  0  0  0
  -26.3874  -31.9846   18.4655 O   0  0  0  0  0  0  0  0  0  0  0  0
  -24.6178  -14.8641   23.0835 O   0  0  0  0  0  0  0  0  0  0  0  0
  -27.1287  -15.8707   20.7303 O   0  0  0  0  0  0  0  0  0  0  0  0
  -28.5826  -19.5918   19.6768 O   0  0  0  0  0  0  0  0  0  0  0  0
  -19.2395  -28.2131   24.0561 O   0  0  0  0  0  0  0  0  0  0  0  0
  -30.3427  -25.3853   19.6473 O   0  0  0  0  0  0  0  0  0  0  0  0
  -21.4541  -21.1126   19.4481 O   0  0  0  0  0  0  0  0  0  1  0  0
  -30.1215  -22.3600   15.0427 F   0  0  0  0  0  0  0  0  0  0  0  0
  -16.4732  -24.4582   23.0182 F   0  0  0  0  0  0  0  0  0  0  0  0
  -30.2825  -22.6240   19.7660 F   0  0  0  0  0  0  0  0  0  0  0  0
  1  2  1  0  0  0  0
  1  5  2  0  0  0  0
  2  6  2  0  0  0  0
  3  8  2  0  0  0  0
  3 18  1  0  0  0  0
  4  9  1  0  0  0  0
  4 18  2  0  0  0  0
  5 21  1  0  0  0  0
  6 23  1  0  0  0  0
  7 10  2  0  0  0  0
  7 22  1  0  0  0  0
  8 26  1  0  0  0  0
  9 26  2  0  0  0  0
 10 27  1  0  0  0  0
 11 12  2  0  0  0  0
 11 28  1  0  0  0  0
 12 29  1  0  0  0  0
 13 19  2  0  0  0  0
 13 25  1  0  0  0  0
 14 19  1  0  0  0  0
 14 30  2  0  0  0  0
 15 24  1  0  0  0  0
 15 27  2  0  0  0  0
 16 25  2  0  0  0  0
 16 30  1  0  0  0  0
 17 29  2  0  0  0  0
 17 31  1  0  0  0  0
 18 32  1  0  0  0  0
 19 34  1  0  0  0  0
 20 32  1  0  0  0  0
 20 33  2  0  0  0  0
 20 35  1  0  0  0  0
 21 23  2  0  0  0  0
 21 40  1  0  0  0  0
 22 24  2  0  0  0  0
 22 41  1  0  0  0  0
 23 52  1  0  0  0  0
 24 42  1  0  0  0  0
 25 74  1  0  0  0  0
 26 84  1  0  0  0  0
 27 85  1  0  0  0  0
 28 31  2  0  0  0  0
 28 84  1  0  0  0  0
 29 86  1  0  0  0  0
 30 87  1  0  0  0  0
 31 88  1  0  0  0  0
 32 67  2  0  0  0  0
 33 68  1  0  0  0  0
 33 72  1  0  0  0  0
 34 69  1  0  0  0  0
 34 78  2  0  0  0  0
 35 73  1  0  0  0  0
 35 79  2  0  0  0  0
 36 53  1  0  0  0  0
 36 75  1  0  0  0  0
 36 80  2  0  0  0  0
 37 64  1  0  0  0  0
 37 70  1  0  0  0  0
 37 81  2  0  0  0  0
 38 65  1  0  0  0  0
 38 76  1  0  0  0  0
 38 82  2  0  0  0  0
 39 71  1  0  0  0  0
 39 74  1  0  0  0  0
 39 83  2  0  0  0  0
 40 43  1  0  0  0  0
 41 53  1  0  0  0  0
 42 70  1  0  0  0  0
 43 45  1  0  0  0  0
 44 46  1  0  0  0  0
 44 48  1  0  0  0  0
 45 52  1  0  0  0  0
 46 54  1  0  0  0  0
 47 49  1  0  0  0  0
 47 55  1  0  0  0  0
 48 71  1  0  0  0  0
 49 69  1  0  0  0  0
 50 54  1  0  0  0  0
 50 71  1  0  0  0  0
 51 55  1  0  0  0  0
 51 69  1  0  0  0  0
 52 75  1  0  0  0  0
 53 70  1  0  0  0  0
 54 68  1  0  0  0  0
 55 62  1  0  0  0  0
 55 63  1  0  0  0  0
 56 62  1  0  0  0  0
 57 65  1  0  0  0  0
 58 66  1  0  0  0  0
 59 66  1  0  0  0  0
 60 66  1  0  0  0  0
 61 77  1  0  0  0  0
 63 85  1  0  0  0  0
 64 66  1  0  0  0  0
 64 76  1  0  0  0  0
 65 77  1  0  0  0  0
 67 68  1  0  0  0  0
M  CHG  1  77   1
M  ISO  4  39 100  63 101  74 100  85 101
M  END
> <Batch ID>
0146

> <Smiles>
CCC1([101CH2:1][101O:1]c2ccc3c(c2)CN(C(=O)C(NC(=O)C(C)NC)C(C)(C)C)C(C(=O)NC2CCCc4ccccc42)C3)CCN(C(=O)c2cc(F)cc([100NH:0][100C:0](=O)N3CCCC(n4nc(-c5ccc(Oc6ccc(F)cc6F)cc5)c(C(N)=O)c4N)C3)c2)C1

> <Shape>
0.245

> <Color>
0.045

> <Negative vol penalty>
0.000

$$$$

  -OEChem-04052303103D

 84 93  0     1  0  0  0  0  0999 V2000
  -21.4738  -12.1513   20.8846 C   0  0  0  0  0  0  0  0  0  0  0  0
  -21.6053  -13.3664   21.5492 C   0  0  0  0  0  0  0  0  0  0  0  0
  -18.9915  -25.7793   21.1476 C   0  0  0  0  0  0  0  0  0  0  0  0
  -20.1350  -24.0971   22.4514 C   0  0  0  0  0  0  0  0  0  0  0  0
  -22.6005  -11.5200   20.3592 C   0  0  0  0  0  0  0  0  0  0  0  0
  -22.8637  -13.9503   21.6898 C   0  0  0  0  0  0  0  0  0  0  0  0
  -22.8261  -18.9131   20.6823 C   0  0  0  0  0  0  0  0  0  0  0  0
  -17.8988  -24.9246   21.0032 C   0  0  0  0  0  0  0  0  0  0  0  0
  -19.0422  -23.2424   22.3070 C   0  0  0  0  0  0  0  0  0  0  0  0
  -22.3304  -19.7600   21.6726 C   0  0  0  0  0  0  0  0  0  0  0  0
  -14.9538  -23.0483   19.9883 C   0  0  0  0  0  0  0  0  0  0  0  0
  -14.3823  -22.9322   18.7212 C   0  0  0  0  0  0  0  0  0  0  0  0
  -24.5870  -20.2889   22.3414 C   0  0  0  0  0  0  0  0  0  0  0  0
  -16.4872  -22.1333   17.8450 C   0  0  0  0  0  0  0  0  0  0  0  0
  -24.6355  -24.0244   24.4227 C   0  0  0  0  0  0  0  0  0  0  0  0
  -20.1097  -25.3656   21.8717 C   0  0  0  0  0  0  0  0  0  0  0  0
  -21.4538  -27.1882   23.0461 C   0  0  0  0  0  0  0  0  0  0  0  0
  -23.8721  -12.1012   20.4850 C   0  0  0  0  0  0  0  0  0  0  0  0
  -24.2081  -18.7389   20.5210 C   0  0  0  0  0  0  0  0  0  0  0  0
  -24.0086  -13.3255   21.1667 C   0  0  0  0  0  0  0  0  0  0  0  0
  -25.0977  -19.4411   21.3466 C   0  0  0  0  0  0  0  0  0  0  0  0
  -17.9241  -23.6562   21.5830 C   0  0  0  0  0  0  0  0  0  0  0  0
  -23.2108  -20.4459   22.5042 C   0  0  0  0  0  0  0  0  0  0  0  0
  -16.2921  -22.7069   20.1837 C   0  0  0  0  0  0  0  0  0  0  0  0
  -15.1490  -22.4747   17.6496 C   0  0  0  0  0  0  0  0  0  0  0  0
  -17.0588  -22.2494   19.1121 C   0  0  0  0  0  0  0  0  0  0  0  0
  -21.2391  -26.2478   22.0207 C   0  0  0  0  0  0  0  0  0  0  0  0
  -25.9350  -24.3971   24.6430 C   0  0  0  0  0  0  0  0  0  0  0  0
  -24.4016  -23.0369   25.3952 C   0  0  0  0  0  0  0  0  0  0  0  0
  -22.6603  -27.7660   22.7350 C   0  0  0  0  0  0  0  0  0  0  0  0
  -20.6357  -27.5105   24.1786 C   0  0  0  0  0  0  0  0  0  0  0  0
  -26.1990  -16.2709   20.7423 C   0  0  0  0  0  0  0  0  0  0  0  0
  -28.3653  -18.4197   19.6414 C   0  0  0  0  0  0  0  0  0  0  0  0
  -29.2856  -21.6876   19.2941 C   0  0  0  0  0  0  0  0  0  0  0  0
  -27.7707  -26.5779   20.5533 C   0  0  0  0  0  0  0  0  0  0  0  0
  -25.0669  -11.3581   19.9419 C   0  0  0  0  0  0  0  0  0  0  0  0
  -24.7272  -17.8423   19.4306 C   0  0  0  0  0  0  0  0  0  0  0  0
  -26.5906  -19.3044   21.2011 C   0  0  0  0  0  0  0  0  0  0  0  0
  -26.3146  -12.2271   19.8064 C   0  0  0  0  0  0  0  0  0  0  0  0
  -29.1533  -26.4678   23.9868 C   0  0  0  0  0  0  0  0  0  0  0  0
  -25.3785  -28.1995   18.6361 C   0  0  0  0  0  0  0  0  0  0  0  0
  -26.5308  -13.0516   21.0714 C   0  0  0  0  0  0  0  0  0  0  0  0
  -28.2382  -25.4593   24.6800 C   0  0  0  0  0  0  0  0  0  0  0  0
  -24.0766  -27.9626   19.4011 C   0  0  0  0  0  0  0  0  0  0  0  0
  -29.2585  -26.2025   22.4879 C   0  0  0  0  0  0  0  0  0  0  0  0
  -26.2475  -26.9469   18.6355 C   0  0  0  0  0  0  0  0  0  0  0  0
  -27.0297  -25.1298   22.4874 C   0  0  0  0  0  0  0  0  0  0  0  0
  -25.2735  -26.1938   20.7806 C   0  0  0  0  0  0  0  0  0  0  0  0
  -25.3535  -14.0027   21.3179 C   0  0  1  0  0  0  0  0  0  0  0  0
  -26.8643  -25.4028   23.9900 C   0  0  1  0  0  0  0  0  0  0  0  0
  -26.1452  -17.3435   19.6915 C   0  0  1  0  0  0  0  0  0  0  0  0
  -24.3584  -27.4338   20.8182 C   0  0  2  0  0  0  0  0  0  0  0  0
  -31.1267  -23.1296   18.3839 C   0  0  0  0  0  0  0  0  0  0  0  0
  -22.0393  -20.0016   25.3833 C   0  0  0  0  0  0  0  0  0  0  0  0
  -30.1111  -17.6994   22.0379 C   0  0  0  0  0  0  0  0  0  0  0  0
  -31.4321  -19.7833   21.6136 C   0  0  0  0  0  0  0  0  0  0  0  0
  -31.3565  -17.9836   19.8879 C   0  0  0  0  0  0  0  0  0  0  0  0
  -27.4549  -23.0254   17.3921 C   0  0  0  0  0  0  0  0  0  0  0  0
  -23.1626  -22.2783   25.6304 C   0  0  0  0  0  0  0  0  0  0  0  0
  -29.3072  -19.4113   20.2804 C   0  0  1  0  0  0  0  0  0  0  0  0
  -29.7869  -22.4708   18.0943 C   0  0  2  0  0  0  0  0  0  0  0  0
  -23.0814  -20.9609   24.8224 C   0  0  2  0  0  0  0  0  0  1  0  0
  -30.5236  -18.7207   20.9592 C   0  0  0  0  0  0  0  0  0  0  0  0
  -22.2298  -26.2264   21.1251 N   0  0  0  0  0  0  0  0  0  0  0  0
  -25.4740  -22.8141   26.1601 N   0  0  0  0  0  0  0  0  0  0  0  0
  -23.0786  -27.1605   21.5867 N   0  0  0  0  0  0  0  0  0  0  0  0
  -27.0491  -18.4111   20.1245 N   0  0  0  0  0  0  0  0  0  0  0  0
  -27.9379  -26.1055   21.8655 N   0  0  0  0  0  0  0  0  0  0  0  0
  -26.4871  -26.4689   19.9972 N   0  0  0  0  0  0  0  0  0  0  0  0
  -23.3937  -28.7280   23.3344 N   0  0  0  0  0  0  0  0  0  0  0  0
  -19.4272  -26.8211   24.3477 N   0  0  0  0  0  0  0  0  0  0  0  0
  -25.4421  -15.1536   20.4450 N   0  0  0  0  0  0  0  0  0  0  0  0
  -29.6673  -20.3639   19.2357 N   0  0  0  0  0  0  0  0  0  0  0  0
  -28.8103  -23.5343   17.7251 N   0  3  0  0  0  0  0  0  0  0  0  0
  -20.9588  -28.3954   25.0069 O   0  0  0  0  0  0  0  0  0  0  0  0
  -26.8781  -16.4435   21.7477 O   0  0  0  0  0  0  0  0  0  0  0  0
  -28.7802  -17.6848   18.7417 O   0  0  0  0  0  0  0  0  0  0  0  0
  -28.6249  -22.1997   20.1951 O   0  0  0  0  0  0  0  0  0  0  0  0
  -28.7120  -27.0706   19.9190 O   0  0  0  0  0  0  0  0  0  0  0  0
  -26.4463  -23.6818   25.6774 O   0  0  0  0  0  0  0  0  0  0  0  0
  -16.8578  -22.8220   21.4425 O   0  0  0  0  0  0  0  0  0  0  0  0
  -22.7270  -21.2773   23.4774 O   0  0  0  0  0  0  0  0  0  1  0  0
  -14.5996  -22.3618   16.4332 F   0  0  0  0  0  0  0  0  0  0  0  0
  -18.3446  -21.9188   19.2939 F   0  0  0  0  0  0  0  0  0  0  0  0
  1  2  1  0  0  0  0
  1  5  2  0  0  0  0
  2  6  2  0  0  0  0
  3  8  2  0  0  0  0
  3 16  1  0  0  0  0
  4  9  1  0  0  0  0
  4 16  2  0  0  0  0
  5 18  1  0  0  0  0
  6 20  1  0  0  0  0
  7 10  2  0  0  0  0
  7 19  1  0  0  0  0
  8 22  1  0  0  0  0
  9 22  2  0  0  0  0
 10 23  1  0  0  0  0
 11 12  2  0  0  0  0
 11 24  1  0  0  0  0
 12 25  1  0  0  0  0
 13 21  1  0  0  0  0
 13 23  2  0  0  0  0
 14 25  2  0  0  0  0
 14 26  1  0  0  0  0
 15 28  2  0  0  0  0
 15 29  1  0  0  0  0
 16 27  1  0  0  0  0
 17 27  1  0  0  0  0
 17 30  2  0  0  0  0
 17 31  1  0  0  0  0
 18 20  2  0  0  0  0
 18 36  1  0  0  0  0
 19 21  2  0  0  0  0
 19 37  1  0  0  0  0
 20 49  1  0  0  0  0
 21 38  1  0  0  0  0
 22 81  1  0  0  0  0
 23 82  1  0  0  0  0
 24 26  2  0  0  0  0
 24 81  1  0  0  0  0
 25 83  1  0  0  0  0
 26 84  1  0  0  0  0
 27 64  2  0  0  0  0
 28 50  1  0  0  0  0
 28 80  1  0  0  0  0
 29 59  1  0  0  0  0
 29 65  2  0  0  0  0
 30 66  1  0  0  0  0
 30 70  1  0  0  0  0
 31 71  1  0  0  0  0
 31 75  2  0  0  0  0
 32 51  1  0  0  0  0
 32 72  1  0  0  0  0
 32 76  2  0  0  0  0
 33 60  1  0  0  0  0
 33 67  1  0  0  0  0
 33 77  2  0  0  0  0
 34 61  1  0  0  0  0
 34 73  1  0  0  0  0
 34 78  2  0  0  0  0
 35 68  1  0  0  0  0
 35 69  1  0  0  0  0
 35 79  2  0  0  0  0
 36 39  1  0  0  0  0
 37 51  1  0  0  0  0
 38 67  1  0  0  0  0
 39 42  1  0  0  0  0
 40 43  1  0  0  0  0
 40 45  1  0  0  0  0
 41 44  1  0  0  0  0
 41 46  1  0  0  0  0
 42 49  1  0  0  0  0
 43 50  1  0  0  0  0
 44 52  1  0  0  0  0
 45 68  1  0  0  0  0
 46 69  1  0  0  0  0
 47 50  1  0  0  0  0
 47 68  1  0  0  0  0
 48 52  1  0  0  0  0
 48 69  1  0  0  0  0
 49 72  1  0  0  0  0
 51 67  1  0  0  0  0
 52 66  1  0  0  0  0
 53 61  1  0  0  0  0
 54 62  1  0  0  0  0
 55 63  1  0  0  0  0
 56 63  1  0  0  0  0
 57 63  1  0  0  0  0
 58 74  1  0  0  0  0
 59 62  1  0  0  0  0
 60 63  1  0  0  0  0
 60 73  1  0  0  0  0
 61 74  1  0  0  0  0
 62 82  1  0  0  0  0
 64 66  1  0  0  0  0
 65 80  1  0  0  0  0
M  CHG  1  74   1
M  ISO  4  35 100  62 101  68 100  82 101
M  END
> <Batch ID>
0146

> <Smiles>
CNC(C)C(=O)NC(C(=O)N1Cc2cc([101O:1][101CH:1](C)Cc3cc(C4CCC[100N:0]([100C:0](=O)N5CCCC(n6nc(-c7ccc(Oc8ccc(F)cc8F)cc7)c(C(N)=O)c6N)C5)C4)on3)ccc2CC1C(=O)NC1CCCc2ccccc21)C(C)(C)C

> <Shape>
0.195

> <Color>
0.080

> <Negative vol penalty>
0.000

$$$$

  -OEChem-04052303103D

 87 96  0     1  0  0  0  0  0999 V2000
  -28.2630  -23.3196   18.0848 C   0  0  0  0  0  0  0  0  0  0  0  0
  -27.0549  -23.6482   18.6914 C   0  0  0  0  0  0  0  0  0  0  0  0
  -17.8372  -21.4762   22.8232 C   0  0  0  0  0  0  0  0  0  0  0  0
  -26.8095  -15.3560   21.3246 C   0  0  0  0  0  0  0  0  0  0  0  0
  -24.5241  -15.2837   20.5443 C   0  0  0  0  0  0  0  0  0  0  0  0
  -17.5832  -22.7457   23.3422 C   0  0  0  0  0  0  0  0  0  0  0  0
  -29.4508  -23.8834   18.5486 C   0  0  0  0  0  0  0  0  0  0  0  0
  -27.0341  -24.5402   19.7630 C   0  0  0  0  0  0  0  0  0  0  0  0
  -23.3332  -27.9735   19.3613 C   0  0  0  0  0  0  0  0  0  0  0  0
  -18.9651  -20.7668   23.2359 C   0  0  0  0  0  0  0  0  0  0  0  0
  -26.9144  -13.9767   21.1453 C   0  0  0  0  0  0  0  0  0  0  0  0
  -24.6290  -13.9044   20.3649 C   0  0  0  0  0  0  0  0  0  0  0  0
  -22.0429  -27.5601   19.6896 C   0  0  0  0  0  0  0  0  0  0  0  0
  -27.3853  -11.8273   18.5780 C   0  0  0  0  0  0  0  0  0  0  0  0
  -28.5347  -11.3401   17.9559 C   0  0  0  0  0  0  0  0  0  0  0  0
  -19.5851  -22.5966   24.6865 C   0  0  0  0  0  0  0  0  0  0  0  0
  -22.2676  -28.5992   21.8551 C   0  0  0  0  0  0  0  0  0  0  0  0
  -29.0498  -10.0400   19.9262 C   0  0  0  0  0  0  0  0  0  0  0  0
  -25.6143  -16.0095   21.0242 C   0  0  0  0  0  0  0  0  0  0  0  0
  -18.4571  -23.3060   24.2739 C   0  0  0  0  0  0  0  0  0  0  0  0
  -25.7950  -18.4389   20.2673 C   0  0  0  0  0  0  0  0  0  0  0  0
  -29.4434  -24.7902   19.6202 C   0  0  0  0  0  0  0  0  0  0  0  0
  -24.1058  -28.6946   20.2830 C   0  0  0  0  0  0  0  0  0  0  0  0
  -28.2231  -25.1157   20.2425 C   0  0  0  0  0  0  0  0  0  0  0  0
  -23.5665  -29.0227   21.5350 C   0  0  0  0  0  0  0  0  0  0  0  0
  -19.8391  -21.3271   24.1675 C   0  0  0  0  0  0  0  0  0  0  0  0
  -25.8241  -13.2509   20.6654 C   0  0  0  0  0  0  0  0  0  0  0  0
  -21.5109  -27.8704   20.9377 C   0  0  0  0  0  0  0  0  0  0  0  0
  -27.0681  -11.4210   19.8741 C   0  0  0  0  0  0  0  0  0  0  0  0
  -29.3670  -10.4464   18.6300 C   0  0  0  0  0  0  0  0  0  0  0  0
  -27.9004  -10.5273   20.5482 C   0  0  0  0  0  0  0  0  0  0  0  0
  -25.5052  -17.4342   21.2098 C   0  0  0  0  0  0  0  0  0  0  0  0
  -25.5318  -19.6146   20.9268 C   0  0  0  0  0  0  0  0  0  0  0  0
  -18.1893  -24.6471   24.8233 C   0  0  0  0  0  0  0  0  0  0  0  0
  -26.2605  -18.3201   18.9164 C   0  0  0  0  0  0  0  0  0  0  0  0
  -26.8638  -28.1884   21.7800 C   0  0  0  0  0  0  0  0  0  0  0  0
  -26.4170  -31.2324   22.8080 C   0  0  0  0  0  0  0  0  0  0  0  0
  -24.2421  -33.7800   23.4612 C   0  0  0  0  0  0  0  0  0  0  0  0
  -21.9529  -21.0157   25.5021 C   0  0  0  0  0  0  0  0  0  0  0  0
  -30.7580  -25.3375   20.1171 C   0  0  0  0  0  0  0  0  0  0  0  0
  -25.4861  -29.1563   19.9035 C   0  0  0  0  0  0  0  0  0  0  0  0
  -24.3473  -29.8123   22.5525 C   0  0  0  0  0  0  0  0  0  0  0  0
  -30.6072  -26.5623   21.0157 C   0  0  0  0  0  0  0  0  0  0  0  0
  -25.4745  -21.5097   25.3245 C   0  0  0  0  0  0  0  0  0  0  0  0
  -29.5183  -26.3288   22.0581 C   0  0  0  0  0  0  0  0  0  0  0  0
  -25.9075  -20.6168   24.1595 C   0  0  0  0  0  0  0  0  0  0  0  0
  -24.3504  -20.8729   26.1398 C   0  0  0  0  0  0  0  0  0  0  0  0
  -23.6154  -19.5527   24.1940 C   0  0  0  0  0  0  0  0  0  0  0  0
  -18.2701  -25.7555   22.5800 C   0  0  0  0  0  0  0  0  0  0  0  0
  -28.1567  -26.0984   21.3914 C   0  0  1  0  0  0  0  0  0  0  0  0
  -26.3738  -29.4414   21.1109 C   0  0  1  0  0  0  0  0  0  0  0  0
  -24.7012  -20.1808   23.3049 C   0  0  2  0  0  0  0  0  0  0  0  0
  -18.3380  -27.2983   22.7313 C   0  0  2  0  0  0  0  0  0  0  0  0
  -17.8390  -27.0798   24.2214 C   0  0  0  0  0  0  0  0  0  0  0  0
  -17.3936  -28.0496   21.7924 C   0  0  0  0  0  0  0  0  0  0  0  0
  -16.3499  -27.2730   24.5108 C   0  0  0  0  0  0  0  0  0  0  0  0
  -18.6960  -27.6655   25.3407 C   0  0  0  0  0  0  0  0  0  0  0  0
  -24.1683  -36.1334   24.3292 C   0  0  0  0  0  0  0  0  0  0  0  0
  -26.7786  -30.1917   25.6534 C   0  0  0  0  0  0  0  0  0  0  0  0
  -25.7722  -32.3269   26.4879 C   0  0  0  0  0  0  0  0  0  0  0  0
  -27.9027  -32.3774   25.1913 C   0  0  0  0  0  0  0  0  0  0  0  0
  -23.1425  -34.8086   20.9133 C   0  0  0  0  0  0  0  0  0  0  0  0
  -19.7699  -27.8202   22.5571 C   0  0  0  0  0  0  0  0  0  1  0  0
  -25.7345  -31.8711   23.9935 C   0  0  1  0  0  0  0  0  0  0  0  0
  -24.2762  -35.2526   23.0942 C   0  0  2  0  0  0  0  0  0  0  0  0
  -26.5328  -31.6752   25.3133 C   0  0  0  0  0  0  0  0  0  0  0  0
  -25.0898  -17.9284   22.3791 N   0  0  0  0  0  0  0  0  0  0  0  0
  -25.1167  -19.2566   22.1757 N   0  0  0  0  0  0  0  0  0  0  0  0
  -18.1226  -25.6698   24.0146 N   0  0  0  0  0  0  0  0  0  0  0  0
  -25.6947  -30.2356   22.1368 N   0  0  0  0  0  0  0  0  0  0  0  0
  -23.2403  -20.4894   25.2648 N   0  0  0  0  0  0  0  0  0  0  0  0
  -25.6172  -20.9094   20.5545 N   0  0  0  0  0  0  0  0  0  0  0  0
  -26.4797  -17.0375   18.3956 N   0  0  0  0  0  0  0  0  0  0  0  0
  -20.9846  -20.6058   24.5862 N   0  0  0  0  0  0  0  0  0  0  0  0
  -27.5905  -27.3553   20.9509 N   0  0  0  0  0  0  0  0  0  0  0  0
  -25.5104  -33.2667   23.6323 N   0  0  0  0  0  0  0  0  0  0  0  0
  -18.0180  -24.7940   26.1337 N   0  3  0  0  0  0  0  0  0  0  0  0
  -23.1472  -35.5848   22.1799 N   0  3  0  0  0  0  0  0  0  0  0  0
  -26.4914  -19.3221   18.1980 O   0  0  0  0  0  0  0  0  0  0  0  0
  -26.6032  -27.9927   22.9613 O   0  0  0  0  0  0  0  0  0  0  0  0
  -27.5463  -31.6092   22.4851 O   0  0  0  0  0  0  0  0  0  0  0  0
  -23.1949  -33.1490   23.5874 O   0  0  0  0  0  0  0  0  0  0  0  0
  -21.7319  -21.7956   26.4321 O   0  0  0  0  0  0  0  0  0  0  0  0
  -25.9262  -11.9051   20.4901 O   0  0  0  0  0  0  0  0  0  0  0  0
  -20.2519  -27.4676   21.2611 O   0  0  0  0  0  0  0  0  0  1  0  0
  -30.4700   -9.9774   18.0320 F   0  0  0  0  0  0  0  0  0  0  0  0
  -27.6003  -10.1324   21.7931 F   0  0  0  0  0  0  0  0  0  0  0  0
  1  2  1  0  0  0  0
  1  7  2  0  0  0  0
  2  8  2  0  0  0  0
  3  6  2  0  0  0  0
  3 10  1  0  0  0  0
  4 11  2  0  0  0  0
  4 19  1  0  0  0  0
  5 12  1  0  0  0  0
  5 19  2  0  0  0  0
  6 20  1  0  0  0  0
  7 22  1  0  0  0  0
  8 24  1  0  0  0  0
  9 13  2  0  0  0  0
  9 23  1  0  0  0  0
 10 26  2  0  0  0  0
 11 27  1  0  0  0  0
 12 27  2  0  0  0  0
 13 28  1  0  0  0  0
 14 15  2  0  0  0  0
 14 29  1  0  0  0  0
 15 30  1  0  0  0  0
 16 20  2  0  0  0  0
 16 26  1  0  0  0  0
 17 25  1  0  0  0  0
 17 28  2  0  0  0  0
 18 30  2  0  0  0  0
 18 31  1  0  0  0  0
 19 32  1  0  0  0  0
 20 34  1  0  0  0  0
 21 32  1  0  0  0  0
 21 33  2  0  0  0  0
 21 35  1  0  0  0  0
 22 24  2  0  0  0  0
 22 40  1  0  0  0  0
 23 25  2  0  0  0  0
 23 41  1  0  0  0  0
 24 50  1  0  0  0  0
 25 42  1  0  0  0  0
 26 74  1  0  0  0  0
 27 84  1  0  0  0  0
 28 85  1  0  0  0  0
 29 31  2  0  0  0  0
 29 84  1  0  0  0  0
 30 86  1  0  0  0  0
 31 87  1  0  0  0  0
 32 67  2  0  0  0  0
 33 68  1  0  0  0  0
 33 72  1  0  0  0  0
 34 69  1  0  0  0  0
 34 77  2  0  0  0  0
 35 73  1  0  0  0  0
 35 79  2  0  0  0  0
 36 51  1  0  0  0  0
 36 75  1  0  0  0  0
 36 80  2  0  0  0  0
 37 64  1  0  0  0  0
 37 70  1  0  0  0  0
 37 81  2  0  0  0  0
 38 65  1  0  0  0  0
 38 76  1  0  0  0  0
 38 82  2  0  0  0  0
 39 71  1  0  0  0  0
 39 74  1  0  0  0  0
 39 83  2  0  0  0  0
 40 43  1  0  0  0  0
 41 51  1  0  0  0  0
 42 70  1  0  0  0  0
 43 45  1  0  0  0  0
 44 46  1  0  0  0  0
 44 47  1  0  0  0  0
 45 50  1  0  0  0  0
 46 52  1  0  0  0  0
 47 71  1  0  0  0  0
 48 52  1  0  0  0  0
 48 71  1  0  0  0  0
 49 53  1  0  0  0  0
 49 69  1  0  0  0  0
 50 75  1  0  0  0  0
 51 70  1  0  0  0  0
 52 68  1  0  0  0  0
 53 54  1  0  0  0  0
 53 55  1  0  0  0  0
 53 63  1  0  0  0  0
 54 56  1  0  0  0  0
 54 57  1  0  0  0  0
 54 69  1  0  0  0  0
 58 65  1  0  0  0  0
 59 66  1  0  0  0  0
 60 66  1  0  0  0  0
 61 66  1  0  0  0  0
 62 78  1  0  0  0  0
 63 85  1  0  0  0  0
 64 66  1  0  0  0  0
 64 76  1  0  0  0  0
 65 78  1  0  0  0  0
 67 68  1  0  0  0  0
M  CHG  2  77   1  78   1
M  ISO  4  39 100  63 101  74 100  85 101
M  END
> <Batch ID>
0146

> <Smiles>
CNC(C)C(=O)NC(C(=O)N1Cc2cc([101O:1][101CH2:1]C3(C)CN(C(=N)c4cccc([100NH:0][100C:0](=O)N5CCCC(n6nc(-c7ccc(Oc8ccc(F)cc8F)cc7)c(C(N)=O)c6N)C5)c4)C3(C)C)ccc2CC1C(=O)NC1CCCc2ccccc21)C(C)(C)C

> <Shape>
0.247

> <Color>
0.059

> <Negative vol penalty>
0.000

$$$$

  -OEChem-04052303103D

 91 99  0     1  0  0  0  0  0999 V2000
  -19.9798  -23.5105   22.7373 C   0  0  0  0  0  0  0  0  0  0  0  0
  -21.2930  -23.9609   22.6620 C   0  0  0  0  0  0  0  0  0  0  0  0
  -27.5923  -10.9868   17.1204 C   0  0  0  0  0  0  0  0  0  0  0  0
  -29.0050  -12.7450   16.2544 C   0  0  0  0  0  0  0  0  0  0  0  0
  -18.9283  -24.4174   22.6231 C   0  0  0  0  0  0  0  0  0  0  0  0
  -21.5552  -25.3198   22.4845 C   0  0  0  0  0  0  0  0  0  0  0  0
  -26.2550  -26.7453   22.7736 C   0  0  0  0  0  0  0  0  0  0  0  0
  -29.0215  -20.1960   19.5161 C   0  0  0  0  0  0  0  0  0  0  0  0
  -29.1965  -21.4766   18.9918 C   0  0  0  0  0  0  0  0  0  0  0  0
  -27.3795  -10.5190   15.8236 C   0  0  0  0  0  0  0  0  0  0  0  0
  -28.7922  -12.2773   14.9576 C   0  0  0  0  0  0  0  0  0  0  0  0
  -27.1927  -26.4559   21.7833 C   0  0  0  0  0  0  0  0  0  0  0  0
  -29.0480   -8.6684   13.5380 C   0  0  0  0  0  0  0  0  0  0  0  0
  -29.1364   -7.2931   13.3223 C   0  0  0  0  0  0  0  0  0  0  0  0
  -27.0407  -28.7269   20.9841 C   0  0  0  0  0  0  0  0  0  0  0  0
  -26.9872  -20.9180   20.6011 C   0  0  0  0  0  0  0  0  0  0  0  0
  -26.8453   -7.2660   12.5560 C   0  0  0  0  0  0  0  0  0  0  0  0
  -28.4050  -12.0998   17.3357 C   0  0  0  0  0  0  0  0  0  0  0  0
  -29.6484  -12.1981   19.5610 C   0  0  0  0  0  0  0  0  0  0  0  0
  -19.1786  -25.7862   22.4316 C   0  0  0  0  0  0  0  0  0  0  0  0
  -25.6940  -28.0269   22.8700 C   0  0  0  0  0  0  0  0  0  0  0  0
  -20.5078  -26.2540   22.3910 C   0  0  0  0  0  0  0  0  0  0  0  0
  -26.0980  -29.0307   21.9781 C   0  0  0  0  0  0  0  0  0  0  0  0
  -27.9168  -19.9167   20.3207 C   0  0  0  0  0  0  0  0  0  0  0  0
  -28.2669  -22.4780   19.2722 C   0  0  0  0  0  0  0  0  0  0  0  0
  -27.9795  -11.1642   14.7423 C   0  0  0  0  0  0  0  0  0  0  0  0
  -27.5835  -27.4459   20.8866 C   0  0  0  0  0  0  0  0  0  0  0  0
  -27.8582   -9.3424   13.2628 C   0  0  0  0  0  0  0  0  0  0  0  0
  -27.1622  -22.1988   20.0768 C   0  0  0  0  0  0  0  0  0  0  0  0
  -28.0351   -6.5920   12.8313 C   0  0  0  0  0  0  0  0  0  0  0  0
  -26.7569   -8.6413   12.7718 C   0  0  0  0  0  0  0  0  0  0  0  0
  -28.6247  -12.5838   18.6750 C   0  0  0  0  0  0  0  0  0  0  0  0
  -29.4200  -12.9406   20.6937 C   0  0  0  0  0  0  0  0  0  0  0  0
  -29.7396  -26.7478   20.3081 C   0  0  0  0  0  0  0  0  0  1  0  0
  -30.7108  -11.2531   19.3767 C   0  0  0  0  0  0  0  0  0  0  0  0
  -30.7378  -26.4375   19.4610 C   0  0  0  0  0  0  0  0  0  0  0  0
  -22.7551  -29.2133   22.6264 C   0  0  0  0  0  0  0  0  0  0  0  0
  -29.4586  -25.5722   17.5084 C   0  0  0  0  0  0  0  0  0  0  0  0
  -24.2088  -31.9632   23.5467 C   0  0  0  0  0  0  0  0  0  0  0  0
  -27.0801  -33.7974   23.7422 C   0  0  0  0  0  0  0  0  0  0  0  0
  -26.6979  -18.1703   21.6664 C   0  0  0  0  0  0  0  0  0  0  0  0
  -18.0030  -26.7250   22.3221 C   0  0  0  0  0  0  0  0  0  0  0  0
  -24.7036  -28.3304   23.9606 C   0  0  0  0  0  0  0  0  0  0  0  0
  -25.5408  -30.4281   22.0518 C   0  0  0  0  0  0  0  0  0  0  0  0
  -18.3697  -28.0664   21.6957 C   0  0  0  0  0  0  0  0  0  0  0  0
  -25.8812  -15.0368   23.1468 C   0  0  0  0  0  0  0  0  0  0  0  0
  -19.6037  -28.6384   22.3773 C   0  0  0  0  0  0  0  0  0  0  0  0
  -26.5903  -14.0175   22.2522 C   0  0  0  0  0  0  0  0  0  0  0  0
  -25.3272  -16.2103   22.3407 C   0  0  0  0  0  0  0  0  0  0  0  0
  -27.0108  -15.8618   20.5763 C   0  0  0  0  0  0  0  0  0  0  0  0
  -20.8169  -27.7234   22.1677 C   0  0  1  0  0  0  0  0  0  0  0  0
  -23.8147  -29.5291   23.6439 C   0  0  1  0  0  0  0  0  0  0  0  0
  -27.6422  -14.6937   21.3513 C   0  0  2  0  0  0  0  0  0  0  0  0
  -32.0777  -25.9836   19.9997 C   0  0  0  0  0  0  0  0  0  0  0  0
  -22.7870  -24.0679   19.2099 C   0  0  0  0  0  0  0  0  0  0  0  0
  -27.9473  -36.0232   24.5112 C   0  0  0  0  0  0  0  0  0  0  0  0
  -30.3380  -27.9894   17.5195 C   0  0  0  0  0  0  0  0  0  0  0  0
  -31.8530  -26.0498   17.1524 C   0  0  0  0  0  0  0  0  0  0  0  0
  -22.9795  -33.2886   21.0886 C   0  0  0  0  0  0  0  0  0  0  0  0
  -24.6030  -35.1723   21.3785 C   0  0  0  0  0  0  0  0  0  0  0  0
  -22.9286  -34.6856   23.1623 C   0  0  0  0  0  0  0  0  0  0  0  0
  -28.9174  -32.5386   25.6913 C   0  0  0  0  0  0  0  0  0  0  0  0
  -29.5689  -24.1099   17.9057 C   0  0  0  0  0  0  0  0  0  0  0  0
  -24.2321  -24.2490   19.6384 C   0  0  0  0  0  0  0  0  0  0  0  0
  -24.8990  -22.9194   19.9560 C   0  0  0  0  0  0  0  0  0  0  0  0
  -24.8780  -33.1106   22.8293 C   0  0  1  0  0  0  0  0  0  0  0  0
  -27.7056  -34.5702   24.8895 C   0  0  2  0  0  0  0  0  0  0  0  0
  -30.6052  -26.5277   17.9259 C   0  0  0  0  0  0  0  0  0  0  0  0
  -23.8565  -34.0375   22.1118 C   0  0  0  0  0  0  0  0  0  0  0  0
  -27.8067  -13.5001   19.1997 N   0  0  0  0  0  0  0  0  0  0  0  0
  -28.3162  -13.6963   20.4277 N   0  0  0  0  0  0  0  0  0  0  0  0
  -24.5708  -30.6738   23.1317 N   0  0  0  0  0  0  0  0  0  0  0  0
  -26.3809  -16.8038   21.5146 N   0  0  0  0  0  0  0  0  0  0  0  0
  -30.0576  -13.0143   21.8813 N   0  0  0  0  0  0  0  0  0  0  0  0
  -30.7992  -10.5777   18.1518 N   0  0  0  0  0  0  0  0  0  0  0  0
  -27.7381  -18.6149   20.8510 N   0  0  0  0  0  0  0  0  0  0  0  0
  -28.4532  -23.7466   18.7444 N   0  0  0  0  0  0  0  0  0  0  0  0
  -21.9070  -28.1873   22.9973 N   0  0  0  0  0  0  0  0  0  0  0  0
  -25.7037  -33.7877   23.8234 N   0  0  0  0  0  0  0  0  0  0  0  0
  -29.0104  -33.9613   25.2737 N   0  3  0  0  0  0  0  0  0  0  0  0
  -31.5469  -11.0026   20.2776 O   0  0  0  0  0  0  0  0  0  0  0  0
  -22.7094  -29.8540   21.5829 O   0  0  0  0  0  0  0  0  0  0  0  0
  -28.4585  -25.9979   16.9226 O   0  0  0  0  0  0  0  0  0  0  0  0
  -23.4003  -32.2021   24.4471 O   0  0  0  0  0  0  0  0  0  0  0  0
  -27.7459  -33.2596   22.8602 O   0  0  0  0  0  0  0  0  0  0  0  0
  -26.1096  -18.8864   22.4807 O   0  0  0  0  0  0  0  0  0  0  0  0
  -27.7723  -10.7079   13.4768 O   0  0  0  0  0  0  0  0  0  0  0  0
  -28.4981  -27.1659   19.9186 O   0  0  0  0  0  0  0  0  0  1  0  0
  -26.2435  -23.1638   20.3634 O   0  0  0  0  0  0  0  0  0  0  0  0
  -28.1207   -5.2716   12.6227 F   0  0  0  0  0  0  0  0  0  0  0  0
  -25.6116   -9.2836   12.5045 F   0  0  0  0  0  0  0  0  0  0  0  0
  1  2  1  0  0  0  0
  1  5  2  0  0  0  0
  2  6  2  0  0  0  0
  3 10  2  0  0  0  0
  3 18  1  0  0  0  0
  4 11  1  0  0  0  0
  4 18  2  0  0  0  0
  5 20  1  0  0  0  0
  6 22  1  0  0  0  0
  7 12  2  0  0  0  0
  7 21  1  0  0  0  0
  8  9  2  0  0  0  0
  8 24  1  0  0  0  0
  9 25  1  0  0  0  0
 10 26  1  0  0  0  0
 11 26  2  0  0  0  0
 12 27  1  0  0  0  0
 13 14  2  0  0  0  0
 13 28  1  0  0  0  0
 14 30  1  0  0  0  0
 15 23  1  0  0  0  0
 15 27  2  0  0  0  0
 16 24  2  0  0  0  0
 16 29  1  0  0  0  0
 17 30  2  0  0  0  0
 17 31  1  0  0  0  0
 18 32  1  0  0  0  0
 19 32  1  0  0  0  0
 19 33  2  0  0  0  0
 19 35  1  0  0  0  0
 20 22  2  0  0  0  0
 20 42  1  0  0  0  0
 21 23  2  0  0  0  0
 21 43  1  0  0  0  0
 22 51  1  0  0  0  0
 23 44  1  0  0  0  0
 24 76  1  0  0  0  0
 25 29  2  0  0  0  0
 25 77  1  0  0  0  0
 26 87  1  0  0  0  0
 27 88  1  0  0  0  0
 28 31  2  0  0  0  0
 28 87  1  0  0  0  0
 29 89  1  0  0  0  0
 30 90  1  0  0  0  0
 31 91  1  0  0  0  0
 32 70  2  0  0  0  0
 33 71  1  0  0  0  0
 33 74  1  0  0  0  0
 34 36  2  0  0  0  0
 34 88  1  0  0  0  0
 35 75  1  0  0  0  0
 35 81  2  0  0  0  0
 36 54  1  0  0  0  0
 36 68  1  0  0  0  0
 37 52  1  0  0  0  0
 37 78  1  0  0  0  0
 37 82  2  0  0  0  0
 38 63  1  0  0  0  0
 38 68  1  0  0  0  0
 38 83  2  0  0  0  0
 39 66  1  0  0  0  0
 39 72  1  0  0  0  0
 39 84  2  0  0  0  0
 40 67  1  0  0  0  0
 40 79  1  0  0  0  0
 40 85  2  0  0  0  0
 41 73  1  0  0  0  0
 41 76  1  0  0  0  0
 41 86  2  0  0  0  0
 42 45  1  0  0  0  0
 43 52  1  0  0  0  0
 44 72  1  0  0  0  0
 45 47  1  0  0  0  0
 46 48  1  0  0  0  0
 46 49  1  0  0  0  0
 47 51  1  0  0  0  0
 48 53  1  0  0  0  0
 49 73  1  0  0  0  0
 50 53  1  0  0  0  0
 50 73  1  0  0  0  0
 51 78  1  0  0  0  0
 52 72  1  0  0  0  0
 53 71  1  0  0  0  0
 55 64  1  0  0  0  0
 56 67  1  0  0  0  0
 57 68  1  0  0  0  0
 58 68  1  0  0  0  0
 59 69  1  0  0  0  0
 60 69  1  0  0  0  0
 61 69  1  0  0  0  0
 62 80  1  0  0  0  0
 63 77  1  0  0  0  0
 64 65  1  0  0  0  0
 65 89  1  0  0  0  0
 66 69  1  0  0  0  0
 66 79  1  0  0  0  0
 67 80  1  0  0  0  0
 70 71  1  0  0  0  0
M  CHG  1  80   1
M  ISO  4  34 101  41 100  76 100  88 101
M  END
> <Batch ID>
0146

> <Smiles>
CCCOc1cc([100NH:0][100C:0](=O)N2CCCC(n3nc(-c4ccc(Oc5ccc(F)cc5F)cc4)c(C(N)=O)c3N)C2)ccc1NCC(=O)C(C)(C)C(C)=[101CH:1][101O:1]c1ccc2c(c1)CN(C(=O)C(NC(=O)C(C)NC)C(C)(C)C)C(C(=O)NC1CCCc3ccccc31)C2

> <Shape>
0.276

> <Color>
0.073

> <Negative vol penalty>
0.000

$$$$

  -OEChem-04052303103D

 85 94  0     1  0  0  0  0  0999 V2000
  -26.6378  -37.0379   25.3970 C   0  0  0  0  0  0  0  0  0  0  0  0
  -27.4203  -36.1230   24.6997 C   0  0  0  0  0  0  0  0  0  0  0  0
  -24.3093   -8.4197   21.2105 C   0  0  0  0  0  0  0  0  0  0  0  0
  -23.2229  -10.4733   20.5475 C   0  0  0  0  0  0  0  0  0  0  0  0
  -25.4146  -36.6399   25.9349 C   0  0  0  0  0  0  0  0  0  0  0  0
  -26.9806  -34.8093   24.5410 C   0  0  0  0  0  0  0  0  0  0  0  0
  -27.2048  -18.6119   19.2415 C   0  0  0  0  0  0  0  0  0  0  0  0
  -27.2285  -29.3618   19.8956 C   0  0  0  0  0  0  0  0  0  0  0  0
  -27.4643  -17.2534   19.0611 C   0  0  0  0  0  0  0  0  0  0  0  0
  -23.2465   -8.1340   22.0674 C   0  0  0  0  0  0  0  0  0  0  0  0
  -22.1600  -10.1876   21.4044 C   0  0  0  0  0  0  0  0  0  0  0  0
  -27.5554  -28.0076   19.8401 C   0  0  0  0  0  0  0  0  0  0  0  0
  -20.1021   -6.9164   21.8160 C   0  0  0  0  0  0  0  0  0  0  0  0
  -19.5925   -5.6180   21.8063 C   0  0  0  0  0  0  0  0  0  0  0  0
  -25.3887  -27.4538   20.7444 C   0  0  0  0  0  0  0  0  0  0  0  0
  -29.5686  -17.5012   20.2220 C   0  0  0  0  0  0  0  0  0  0  0  0
  -20.1377   -5.3866   24.1486 C   0  0  0  0  0  0  0  0  0  0  0  0
  -24.2976   -9.5894   20.4506 C   0  0  0  0  0  0  0  0  0  0  0  0
  -25.5208   -9.5152   18.2132 C   0  0  0  0  0  0  0  0  0  0  0  0
  -24.9552  -35.3232   25.7744 C   0  0  0  0  0  0  0  0  0  0  0  0
  -25.9813  -29.7734   20.3869 C   0  0  0  0  0  0  0  0  0  0  0  0
  -25.7507  -34.3930   25.0785 C   0  0  0  0  0  0  0  0  0  0  0  0
  -28.1273  -19.4152   19.9121 C   0  0  0  0  0  0  0  0  0  0  0  0
  -25.0474  -28.8136   20.8027 C   0  0  0  0  0  0  0  0  0  0  0  0
  -29.3091  -18.8598   20.4023 C   0  0  0  0  0  0  0  0  0  0  0  0
  -28.6462  -16.6980   19.5514 C   0  0  0  0  0  0  0  0  0  0  0  0
  -22.1718   -9.0179   22.1644 C   0  0  0  0  0  0  0  0  0  0  0  0
  -26.6366  -27.0535   20.2673 C   0  0  0  0  0  0  0  0  0  0  0  0
  -20.6296   -7.4499   22.9920 C   0  0  0  0  0  0  0  0  0  0  0  0
  -19.6103   -4.8531   22.9726 C   0  0  0  0  0  0  0  0  0  0  0  0
  -20.6473   -6.6850   24.1583 C   0  0  0  0  0  0  0  0  0  0  0  0
  -25.3955   -9.8853   19.5656 C   0  0  0  0  0  0  0  0  0  0  0  0
  -26.7329  -10.0326   17.8265 C   0  0  0  0  0  0  0  0  0  0  0  0
  -26.5863  -22.5650   21.5467 C   0  0  0  0  0  0  0  0  0  0  0  0
  -26.4625  -23.4026   20.5025 C   0  0  0  0  0  0  0  0  0  0  0  0
  -24.6218   -8.7703   17.3808 C   0  0  0  0  0  0  0  0  0  0  0  0
  -25.0110  -31.5494   22.8381 C   0  0  0  0  0  0  0  0  0  0  0  0
  -22.0979  -31.1564   21.4661 C   0  0  0  0  0  0  0  0  0  0  0  0
  -20.0775  -29.2986   19.4381 C   0  0  0  0  0  0  0  0  0  0  0  0
  -30.0329  -14.6089   19.7945 C   0  0  0  0  0  0  0  0  0  0  0  0
  -23.6481  -34.9273   26.4144 C   0  0  0  0  0  0  0  0  0  0  0  0
  -25.6338  -31.2366   20.4152 C   0  0  0  0  0  0  0  0  0  0  0  0
  -23.6872  -29.2024   21.3195 C   0  0  0  0  0  0  0  0  0  0  0  0
  -27.1142  -21.1636   21.4357 C   0  0  0  0  0  0  0  0  0  0  0  0
  -26.8191  -22.9867   19.0971 C   0  0  0  0  0  0  0  0  0  0  0  0
  -23.0810  -33.6147   25.8797 C   0  0  0  0  0  0  0  0  0  0  0  0
  -27.0068  -21.4747   18.9318 C   0  0  0  0  0  0  0  0  0  0  0  0
  -31.0358  -11.1996   19.5749 C   0  0  0  0  0  0  0  0  0  0  0  0
  -24.1702  -32.5486   25.8175 C   0  0  0  0  0  0  0  0  0  0  0  0
  -29.7151  -10.4425   19.4184 C   0  0  0  0  0  0  0  0  0  0  0  0
  -30.8967  -12.3939   20.5173 C   0  0  0  0  0  0  0  0  0  0  0  0
  -28.4881  -12.5658   20.0294 C   0  0  0  0  0  0  0  0  0  0  0  0
  -27.8230  -20.8904   20.0952 C   0  0  2  0  0  0  0  0  0  0  0  0
  -25.2964  -32.9655   24.8639 C   0  0  1  0  0  0  0  0  0  0  0  0
  -24.5303  -31.5694   21.4146 C   0  0  1  0  0  0  0  0  0  0  0  0
  -28.5625  -11.3926   19.0385 C   0  0  2  0  0  0  0  0  0  0  0  0
  -30.3102  -19.6999   21.1252 C   0  0  0  0  0  0  0  0  0  0  0  0
  -17.7367  -29.2080   18.5382 C   0  0  0  0  0  0  0  0  0  0  0  0
  -21.1019  -30.1424   24.1661 C   0  0  0  0  0  0  0  0  0  0  0  0
  -19.1010  -29.1978   22.9947 C   0  0  0  0  0  0  0  0  0  0  0  0
  -19.5124  -31.6581   22.9700 C   0  0  0  0  0  0  0  0  0  0  0  0
  -21.0198  -29.5246   16.6416 C   0  0  0  0  0  0  0  0  0  0  0  0
  -25.9644  -24.8079   20.6687 C   0  0  0  0  0  0  0  0  0  1  0  0
  -20.9876  -30.1407   21.5868 C   0  0  1  0  0  0  0  0  0  0  0  0
  -19.1573  -29.6942   18.2973 C   0  0  2  0  0  0  0  0  0  0  0  0
  -20.2020  -30.2772   22.9215 C   0  0  0  0  0  0  0  0  0  0  0  0
  -26.4443  -10.5838   20.0084 N   0  0  0  0  0  0  0  0  0  0  0  0
  -27.2403  -10.6566   18.9280 N   0  0  0  0  0  0  0  0  0  0  0  0
  -23.3970  -30.6457   21.3336 N   0  0  0  0  0  0  0  0  0  0  0  0
  -29.7882  -13.2517   20.0929 N   0  0  0  0  0  0  0  0  0  0  0  0
  -27.4035  -10.0101   16.6551 N   0  0  0  0  0  0  0  0  0  0  0  0
  -23.4196   -8.3131   17.9375 N   0  0  0  0  0  0  0  0  0  0  0  0
  -28.9093  -15.3175   19.3701 N   0  0  0  0  0  0  0  0  0  0  0  0
  -24.8948  -32.7631   23.4883 N   0  0  0  0  0  0  0  0  0  0  0  0
  -20.1652  -30.2911   20.3912 N   0  0  0  0  0  0  0  0  0  0  0  0
  -19.6424  -29.1112   17.0145 N   0  3  0  0  0  0  0  0  0  0  0  0
  -24.8846   -8.5036   16.1836 O   0  0  0  0  0  0  0  0  0  0  0  0
  -25.4531  -30.5093   23.3119 O   0  0  0  0  0  0  0  0  0  0  0  0
  -21.8221  -32.3586   21.4815 O   0  0  0  0  0  0  0  0  0  0  0  0
  -20.6573  -28.2158   19.4812 O   0  0  0  0  0  0  0  0  0  0  0  0
  -31.1617  -15.0991   19.8810 O   0  0  0  0  0  0  0  0  0  0  0  0
  -21.1343   -8.7394   23.0002 O   0  0  0  0  0  0  0  0  0  0  0  0
  -26.9533  -25.7311   20.2149 O   0  0  0  0  0  0  0  0  0  1  0  0
  -19.1196   -3.6068   22.9635 F   0  0  0  0  0  0  0  0  0  0  0  0
  -21.1517   -7.1925   25.2914 F   0  0  0  0  0  0  0  0  0  0  0  0
  1  2  1  0  0  0  0
  1  5  2  0  0  0  0
  2  6  2  0  0  0  0
  3 10  2  0  0  0  0
  3 18  1  0  0  0  0
  4 11  1  0  0  0  0
  4 18  2  0  0  0  0
  5 20  1  0  0  0  0
  6 22  1  0  0  0  0
  7  9  2  0  0  0  0
  7 23  1  0  0  0  0
  8 12  2  0  0  0  0
  8 21  1  0  0  0  0
  9 26  1  0  0  0  0
 10 27  1  0  0  0  0
 11 27  2  0  0  0  0
 12 28  1  0  0  0  0
 13 14  2  0  0  0  0
 13 29  1  0  0  0  0
 14 30  1  0  0  0  0
 15 24  1  0  0  0  0
 15 28  2  0  0  0  0
 16 25  1  0  0  0  0
 16 26  2  0  0  0  0
 17 30  2  0  0  0  0
 17 31  1  0  0  0  0
 18 32  1  0  0  0  0
 19 32  1  0  0  0  0
 19 33  2  0  0  0  0
 19 36  1  0  0  0  0
 20 22  2  0  0  0  0
 20 41  1  0  0  0  0
 21 24  2  0  0  0  0
 21 42  1  0  0  0  0
 22 54  1  0  0  0  0
 23 25  2  0  0  0  0
 23 53  1  0  0  0  0
 24 43  1  0  0  0  0
 25 57  1  0  0  0  0
 26 73  1  0  0  0  0
 27 82  1  0  0  0  0
 28 83  1  0  0  0  0
 29 31  2  0  0  0  0
 29 82  1  0  0  0  0
 30 84  1  0  0  0  0
 31 85  1  0  0  0  0
 32 67  2  0  0  0  0
 33 68  1  0  0  0  0
 33 71  1  0  0  0  0
 34 35  2  0  0  0  0
 34 44  1  0  0  0  0
 35 45  1  0  0  0  0
 35 63  1  0  0  0  0
 36 72  1  0  0  0  0
 36 77  2  0  0  0  0
 37 55  1  0  0  0  0
 37 74  1  0  0  0  0
 37 78  2  0  0  0  0
 38 64  1  0  0  0  0
 38 69  1  0  0  0  0
 38 79  2  0  0  0  0
 39 65  1  0  0  0  0
 39 75  1  0  0  0  0
 39 80  2  0  0  0  0
 40 70  1  0  0  0  0
 40 73  1  0  0  0  0
 40 81  2  0  0  0  0
 41 46  1  0  0  0  0
 42 55  1  0  0  0  0
 43 69  1  0  0  0  0
 44 53  1  0  0  0  0
 45 47  1  0  0  0  0
 46 49  1  0  0  0  0
 47 53  1  0  0  0  0
 48 50  1  0  0  0  0
 48 51  1  0  0  0  0
 49 54  1  0  0  0  0
 50 56  1  0  0  0  0
 51 70  1  0  0  0  0
 52 56  1  0  0  0  0
 52 70  1  0  0  0  0
 54 74  1  0  0  0  0
 55 69  1  0  0  0  0
 56 68  1  0  0  0  0
 58 65  1  0  0  0  0
 59 66  1  0  0  0  0
 60 66  1  0  0  0  0
 61 66  1  0  0  0  0
 62 76  1  0  0  0  0
 63 83  1  0  0  0  0
 64 66  1  0  0  0  0
 64 75  1  0  0  0  0
 65 76  1  0  0  0  0
 67 68  1  0  0  0  0
M  CHG  1  76   1
M  ISO  4  40 100  63 101  73 100  83 101
M  END
> <Batch ID>
0146

> <Smiles>
CNC(C)C(=O)NC(C(=O)N1Cc2cc([101O:1][101CH2:1]C3=CCC(c4ccc([100NH:0][100C:0](=O)N5CCCC(n6nc(-c7ccc(Oc8ccc(F)cc8F)cc7)c(C(N)=O)c6N)C5)cc4C)CC3)ccc2CC1C(=O)NC1CCCc2ccccc21)C(C)(C)C

> <Shape>
0.279

> <Color>
0.079

> <Negative vol penalty>
0.000

$$$$

  -OEChem-04052303103D

 83 92  0     1  0  0  0  0  0999 V2000
  -28.4227  -24.1811   25.4909 C   0  0  0  0  0  0  0  0  0  0  0  0
  -28.1287  -24.5171   24.1732 C   0  0  0  0  0  0  0  0  0  0  0  0
  -28.8902  -20.8500   13.9580 C   0  0  0  0  0  0  0  0  0  0  0  0
  -25.6526  -13.8517   21.4878 C   0  0  0  0  0  0  0  0  0  0  0  0
  -26.3637  -13.7679   19.1804 C   0  0  0  0  0  0  0  0  0  0  0  0
  -27.5771  -24.5942   26.5196 C   0  0  0  0  0  0  0  0  0  0  0  0
  -26.9882  -25.2654   23.8835 C   0  0  0  0  0  0  0  0  0  0  0  0
  -28.4157  -22.1311   13.6767 C   0  0  0  0  0  0  0  0  0  0  0  0
  -27.8941  -28.9810   20.5641 C   0  0  0  0  0  0  0  0  0  0  0  0
  -28.9733  -20.4116   15.2796 C   0  0  0  0  0  0  0  0  0  0  0  0
  -24.6497  -12.9222   21.2125 C   0  0  0  0  0  0  0  0  0  0  0  0
  -25.3608  -12.8384   18.9050 C   0  0  0  0  0  0  0  0  0  0  0  0
  -27.9925  -28.6240   19.2200 C   0  0  0  0  0  0  0  0  0  0  0  0
  -24.4023   -9.5767   20.7886 C   0  0  0  0  0  0  0  0  0  0  0  0
  -24.2304   -8.5234   21.6866 C   0  0  0  0  0  0  0  0  0  0  0  0
  -28.1076  -22.5357   16.0386 C   0  0  0  0  0  0  0  0  0  0  0  0
  -25.7235  -29.3615   18.8643 C   0  0  0  0  0  0  0  0  0  0  0  0
  -21.9610   -9.2434   22.0969 C   0  0  0  0  0  0  0  0  0  0  0  0
  -26.5096  -14.2746   20.4717 C   0  0  0  0  0  0  0  0  0  0  0  0
  -28.8633  -14.9665   21.1710 C   0  0  0  0  0  0  0  0  0  0  0  0
  -28.0245  -22.9740   14.7169 C   0  0  0  0  0  0  0  0  0  0  0  0
  -26.4310  -25.3561   26.2434 C   0  0  0  0  0  0  0  0  0  0  0  0
  -26.7040  -29.5217   21.0717 C   0  0  0  0  0  0  0  0  0  0  0  0
  -26.1259  -25.6878   24.9095 C   0  0  0  0  0  0  0  0  0  0  0  0
  -25.6134  -29.7269   20.2146 C   0  0  0  0  0  0  0  0  0  0  0  0
  -28.5820  -21.2545   16.3199 C   0  0  0  0  0  0  0  0  0  0  0  0
  -24.5038  -12.4155   19.9212 C   0  0  0  0  0  0  0  0  0  0  0  0
  -26.9062  -28.8116   18.3705 C   0  0  0  0  0  0  0  0  0  0  0  0
  -23.3535  -10.4635   20.5447 C   0  0  0  0  0  0  0  0  0  0  0  0
  -23.0098   -8.3567   22.3408 C   0  0  0  0  0  0  0  0  0  0  0  0
  -22.1329  -10.2968   21.1988 C   0  0  0  0  0  0  0  0  0  0  0  0
  -27.5454  -15.2352   20.7554 C   0  0  0  0  0  0  0  0  0  0  0  0
  -29.4410  -16.2056   21.3032 C   0  0  0  0  0  0  0  0  0  0  0  0
  -29.5077  -13.7093   21.4157 C   0  0  0  0  0  0  0  0  0  0  0  0
  -27.3779  -26.6654   15.4994 C   0  0  0  0  0  0  0  0  0  0  0  0
  -24.5984  -28.6315   23.2803 C   0  0  0  0  0  0  0  0  0  0  0  0
  -23.3106  -31.5452   22.6681 C   0  0  0  0  0  0  0  0  0  0  0  0
  -22.9217  -34.1404   20.4864 C   0  0  0  0  0  0  0  0  0  0  0  0
  -28.3193  -21.5194   18.8113 C   0  0  0  0  0  0  0  0  0  0  0  0
  -25.5217  -25.7394   27.3840 C   0  0  0  0  0  0  0  0  0  0  0  0
  -26.6228  -29.9265   22.5181 C   0  0  0  0  0  0  0  0  0  0  0  0
  -24.3201  -30.3226   20.7055 C   0  0  0  0  0  0  0  0  0  0  0  0
  -24.5342  -26.8482   27.0296 C   0  0  0  0  0  0  0  0  0  0  0  0
  -28.3458  -20.7620   22.2902 C   0  0  0  0  0  0  0  0  0  0  0  0
  -23.8727  -26.5642   25.6848 C   0  0  0  0  0  0  0  0  0  0  0  0
  -28.2696  -19.2339   22.3291 C   0  0  0  0  0  0  0  0  0  0  0  0
  -28.3623  -25.2730   13.5876 C   0  0  0  0  0  0  0  0  0  0  0  0
  -27.5071  -21.3428   21.1531 C   0  0  0  0  0  0  0  0  0  0  0  0
  -27.7109  -19.2531   19.8645 C   0  0  0  0  0  0  0  0  0  0  0  0
  -27.5199  -24.3361   14.4185 C   0  0  2  0  0  0  0  0  0  0  0  0
  -24.9114  -26.5194   24.5576 C   0  0  1  0  0  0  0  0  0  0  0  0
  -28.2122  -25.5145   15.0499 C   0  0  2  0  0  0  0  0  0  0  0  0
  -25.1911  -29.9914   23.0409 C   0  0  1  0  0  0  0  0  0  0  0  0
  -28.5915  -18.6184   20.9532 C   0  0  2  0  0  0  0  0  0  0  0  0
  -21.7823  -36.3641   20.2532 C   0  0  0  0  0  0  0  0  0  0  0  0
  -20.6520  -30.1292   22.1816 C   0  0  0  0  0  0  0  0  0  0  0  0
  -19.8301  -32.2088   21.0557 C   0  0  0  0  0  0  0  0  0  0  0  0
  -20.4750  -32.2685   23.4646 C   0  0  0  0  0  0  0  0  0  0  0  0
  -25.5005  -35.5603   20.1813 C   0  0  0  0  0  0  0  0  0  0  0  0
  -27.8696  -27.3800   16.7340 C   0  0  0  0  0  0  0  0  0  1  0  0
  -22.2784  -32.0765   21.7031 C   0  0  1  0  0  0  0  0  0  0  0  0
  -23.0529  -35.6413   20.6727 C   0  0  2  0  0  0  0  0  0  0  0  0
  -20.8325  -31.6577   22.0921 C   0  0  0  0  0  0  0  0  0  0  0  0
  -27.3001  -16.5423   20.6318 N   0  0  0  0  0  0  0  0  0  0  0  0
  -28.4717  -17.1060   20.9719 N   0  0  0  0  0  0  0  0  0  0  0  0
  -24.2878  -30.6964   22.1292 N   0  0  0  0  0  0  0  0  0  0  0  0
  -27.8699  -20.7157   19.8804 N   0  0  0  0  0  0  0  0  0  0  0  0
  -30.6784  -16.6018   21.6695 N   0  0  0  0  0  0  0  0  0  0  0  0
  -28.7687  -12.5327   21.2315 N   0  0  0  0  0  0  0  0  0  0  0  0
  -28.6665  -20.8094   17.6625 N   0  0  0  0  0  0  0  0  0  0  0  0
  -25.3069  -27.8596   24.1811 N   0  0  0  0  0  0  0  0  0  0  0  0
  -22.4854  -33.5191   21.6374 N   0  0  0  0  0  0  0  0  0  0  0  0
  -24.1839  -36.1676   19.8574 N   0  3  0  0  0  0  0  0  0  0  0  0
  -30.6984  -13.6322   21.8026 O   0  0  0  0  0  0  0  0  0  0  0  0
  -26.3688  -26.9758   14.8788 O   0  0  0  0  0  0  0  0  0  0  0  0
  -23.5733  -28.3073   22.6923 O   0  0  0  0  0  0  0  0  0  0  0  0
  -23.2563  -31.8770   23.8550 O   0  0  0  0  0  0  0  0  0  0  0  0
  -23.1770  -33.5762   19.4248 O   0  0  0  0  0  0  0  0  0  0  0  0
  -28.4168  -22.7447   18.9170 O   0  0  0  0  0  0  0  0  0  0  0  0
  -23.5254  -11.5083   19.6522 O   0  0  0  0  0  0  0  0  0  0  0  0
  -26.9993  -28.4634   17.0583 O   0  0  0  0  0  0  0  0  0  1  0  0
  -22.8444   -7.3443   23.2020 F   0  0  0  0  0  0  0  0  0  0  0  0
  -21.1213  -11.1448   20.9677 F   0  0  0  0  0  0  0  0  0  0  0  0
  1  2  1  0  0  0  0
  1  6  2  0  0  0  0
  2  7  2  0  0  0  0
  3  8  2  0  0  0  0
  3 10  1  0  0  0  0
  4 11  2  0  0  0  0
  4 19  1  0  0  0  0
  5 12  1  0  0  0  0
  5 19  2  0  0  0  0
  6 22  1  0  0  0  0
  7 24  1  0  0  0  0
  8 21  1  0  0  0  0
  9 13  2  0  0  0  0
  9 23  1  0  0  0  0
 10 26  2  0  0  0  0
 11 27  1  0  0  0  0
 12 27  2  0  0  0  0
 13 28  1  0  0  0  0
 14 15  2  0  0  0  0
 14 29  1  0  0  0  0
 15 30  1  0  0  0  0
 16 21  2  0  0  0  0
 16 26  1  0  0  0  0
 17 25  1  0  0  0  0
 17 28  2  0  0  0  0
 18 30  2  0  0  0  0
 18 31  1  0  0  0  0
 19 32  1  0  0  0  0
 20 32  1  0  0  0  0
 20 33  2  0  0  0  0
 20 34  1  0  0  0  0
 21 50  1  0  0  0  0
 22 24  2  0  0  0  0
 22 40  1  0  0  0  0
 23 25  2  0  0  0  0
 23 41  1  0  0  0  0
 24 51  1  0  0  0  0
 25 42  1  0  0  0  0
 26 70  1  0  0  0  0
 27 80  1  0  0  0  0
 28 81  1  0  0  0  0
 29 31  2  0  0  0  0
 29 80  1  0  0  0  0
 30 82  1  0  0  0  0
 31 83  1  0  0  0  0
 32 64  2  0  0  0  0
 33 65  1  0  0  0  0
 33 68  1  0  0  0  0
 34 69  1  0  0  0  0
 34 74  2  0  0  0  0
 35 52  1  0  0  0  0
 35 60  1  0  0  0  0
 35 75  2  0  0  0  0
 36 53  1  0  0  0  0
 36 71  1  0  0  0  0
 36 76  2  0  0  0  0
 37 61  1  0  0  0  0
 37 66  1  0  0  0  0
 37 77  2  0  0  0  0
 38 62  1  0  0  0  0
 38 72  1  0  0  0  0
 38 78  2  0  0  0  0
 39 67  1  0  0  0  0
 39 70  1  0  0  0  0
 39 79  2  0  0  0  0
 40 43  1  0  0  0  0
 41 53  1  0  0  0  0
 42 66  1  0  0  0  0
 43 45  1  0  0  0  0
 44 46  1  0  0  0  0
 44 48  1  0  0  0  0
 45 51  1  0  0  0  0
 46 54  1  0  0  0  0
 47 50  1  0  0  0  0
 47 52  1  0  0  0  0
 48 67  1  0  0  0  0
 49 54  1  0  0  0  0
 49 67  1  0  0  0  0
 50 52  1  0  0  0  0
 51 71  1  0  0  0  0
 53 66  1  0  0  0  0
 54 65  1  0  0  0  0
 55 62  1  0  0  0  0
 56 63  1  0  0  0  0
 57 63  1  0  0  0  0
 58 63  1  0  0  0  0
 59 73  1  0  0  0  0
 60 81  1  0  0  0  0
 61 63  1  0  0  0  0
 61 72  1  0  0  0  0
 62 73  1  0  0  0  0
 64 65  1  0  0  0  0
M  CHG  1  73   1
M  ISO  4  39 100  60 101  70 100  81 101
M  END
> <Batch ID>
0146

> <Smiles>
CNC(C)C(=O)NC(C(=O)N1Cc2cc([101O:1][101CH2:1]C(=O)C3CC3c3cccc([100NH:0][100C:0](=O)N4CCCC(n5nc(-c6ccc(Oc7ccc(F)cc7F)cc6)c(C(N)=O)c5N)C4)c3)ccc2CC1C(=O)NC1CCCc2ccccc21)C(C)(C)C

> <Shape>
0.201

> <Color>
0.080

> <Negative vol penalty>
0.000

$$$$

  -OEChem-04052303103D

 84 93  0     1  0  0  0  0  0999 V2000
  -28.0680  -34.1332   26.5179 C   0  0  0  0  0  0  0  0  0  0  0  0
  -28.3939  -33.0581   25.6973 C   0  0  0  0  0  0  0  0  0  0  0  0
  -24.2081   -9.6389   21.6012 C   0  0  0  0  0  0  0  0  0  0  0  0
  -23.2262  -11.0031   19.8657 C   0  0  0  0  0  0  0  0  0  0  0  0
  -26.7632  -34.2807   26.9864 C   0  0  0  0  0  0  0  0  0  0  0  0
  -27.4151  -32.1292   25.3456 C   0  0  0  0  0  0  0  0  0  0  0  0
  -26.9188  -29.1413   20.0228 C   0  0  0  0  0  0  0  0  0  0  0  0
  -22.9351   -9.3408   22.0871 C   0  0  0  0  0  0  0  0  0  0  0  0
  -21.9532  -10.7049   20.3516 C   0  0  0  0  0  0  0  0  0  0  0  0
  -27.2986  -27.8593   19.6278 C   0  0  0  0  0  0  0  0  0  0  0  0
  -20.3829   -7.2738   21.2828 C   0  0  0  0  0  0  0  0  0  0  0  0
  -20.1079   -5.9456   21.6080 C   0  0  0  0  0  0  0  0  0  0  0  0
  -25.0642  -27.0666   20.0728 C   0  0  0  0  0  0  0  0  0  0  0  0
  -26.6675  -20.3276   17.4928 C   0  0  0  0  0  0  0  0  0  0  0  0
  -26.7236  -17.9147   17.3852 C   0  0  0  0  0  0  0  0  0  0  0  0
  -28.0959  -19.0844   18.9932 C   0  0  0  0  0  0  0  0  0  0  0  0
  -19.6522   -6.5985   23.8890 C   0  0  0  0  0  0  0  0  0  0  0  0
  -24.3537  -10.4702   20.4905 C   0  0  0  0  0  0  0  0  0  0  0  0
  -26.3963  -10.0667   19.0166 C   0  0  0  0  0  0  0  0  0  0  0  0
  -25.7657  -33.3585   26.6323 C   0  0  0  0  0  0  0  0  0  0  0  0
  -25.6095  -29.3936   20.4569 C   0  0  0  0  0  0  0  0  0  0  0  0
  -26.0960  -32.2638   25.8108 C   0  0  0  0  0  0  0  0  0  0  0  0
  -24.6695  -28.3532   20.4703 C   0  0  0  0  0  0  0  0  0  0  0  0
  -26.2288  -19.1335   16.9209 C   0  0  0  0  0  0  0  0  0  0  0  0
  -27.6011  -20.3032   18.5289 C   0  0  0  0  0  0  0  0  0  0  0  0
  -27.6571  -17.8902   18.4214 C   0  0  0  0  0  0  0  0  0  0  0  0
  -21.8076   -9.8737   21.4623 C   0  0  0  0  0  0  0  0  0  0  0  0
  -26.3721  -26.8211   19.6555 C   0  0  0  0  0  0  0  0  0  0  0  0
  -20.2927   -8.2644   22.2607 C   0  0  0  0  0  0  0  0  0  0  0  0
  -19.7425   -5.6080   22.9111 C   0  0  0  0  0  0  0  0  0  0  0  0
  -19.9273   -7.9268   23.5638 C   0  0  0  0  0  0  0  0  0  0  0  0
  -25.6685  -10.7790   19.9885 C   0  0  0  0  0  0  0  0  0  0  0  0
  -27.5753  -10.7605   18.8937 C   0  0  0  0  0  0  0  0  0  0  0  0
  -28.1917  -23.7269   19.6694 C   0  0  0  0  0  0  0  0  0  0  0  0
  -27.7488  -24.9549   19.9596 C   0  0  0  0  0  0  0  0  0  1  0  0
  -26.0386   -8.8837   18.2897 C   0  0  0  0  0  0  0  0  0  0  0  0
  -24.3015  -30.3982   23.1741 C   0  0  0  0  0  0  0  0  0  0  0  0
  -21.5807  -30.4047   21.4079 C   0  0  0  0  0  0  0  0  0  0  0  0
  -19.8741  -29.1948   18.7115 C   0  0  0  0  0  0  0  0  0  0  0  0
  -29.0889  -16.4505   19.9126 C   0  0  0  0  0  0  0  0  0  0  0  0
  -24.3801  -33.5335   27.2017 C   0  0  0  0  0  0  0  0  0  0  0  0
  -25.2083  -30.7878   20.8543 C   0  0  0  0  0  0  0  0  0  0  0  0
  -23.2459  -28.5763   20.9086 C   0  0  0  0  0  0  0  0  0  0  0  0
  -29.3080  -23.0255   20.3762 C   0  0  0  0  0  0  0  0  0  0  0  0
  -27.5678  -22.8022   18.6678 C   0  0  0  0  0  0  0  0  0  0  0  0
  -23.3160  -32.7127   26.4777 C   0  0  0  0  0  0  0  0  0  0  0  0
  -30.5506  -13.5605   21.3920 C   0  0  0  0  0  0  0  0  0  0  0  0
  -23.7991  -31.2817   26.2643 C   0  0  0  0  0  0  0  0  0  0  0  0
  -29.5336  -12.4532   21.1063 C   0  0  0  0  0  0  0  0  0  0  0  0
  -28.9129  -21.5560   20.2608 C   0  0  0  0  0  0  0  0  0  0  0  0
  -29.8680  -14.8950   21.6870 C   0  0  0  0  0  0  0  0  0  0  0  0
  -27.8843  -14.2280   20.3873 C   0  0  0  0  0  0  0  0  0  0  0  0
  -25.0565  -31.2490   25.3871 C   0  0  1  0  0  0  0  0  0  0  0  0
  -23.9864  -30.8206   21.7670 C   0  0  1  0  0  0  0  0  0  0  0  0
  -28.5260  -12.8799   20.0208 C   0  0  2  0  0  0  0  0  0  0  0  0
  -25.2307  -19.1598   15.8131 C   0  0  0  0  0  0  0  0  0  0  0  0
  -17.6564  -29.3582   17.5485 C   0  0  0  0  0  0  0  0  0  0  0  0
  -20.3196  -28.6635   23.5731 C   0  0  0  0  0  0  0  0  0  0  0  0
  -18.5013  -28.0860   21.9519 C   0  0  0  0  0  0  0  0  0  0  0  0
  -18.8236  -30.4529   22.6706 C   0  0  0  0  0  0  0  0  0  0  0  0
  -21.1213  -30.2077   16.2261 C   0  0  0  0  0  0  0  0  0  0  0  0
  -20.5013  -29.3940   21.1034 C   0  0  1  0  0  0  0  0  0  0  0  0
  -19.0768  -29.8960   17.6266 C   0  0  2  0  0  0  0  0  0  0  0  0
  -19.5637  -29.1442   22.3183 C   0  0  0  0  0  0  0  0  0  0  0  0
  -26.3299  -11.8436   20.4504 N   0  0  0  0  0  0  0  0  0  0  0  0
  -27.4857  -11.8053   19.7657 N   0  0  0  0  0  0  0  0  0  0  0  0
  -28.0353  -21.4858   19.0949 N   0  0  3  0  0  0  0  0  0  0  0  0
  -22.9039  -29.9555   21.2937 N   0  0  0  0  0  0  0  0  0  0  0  0
  -28.9313  -15.2365   20.6142 N   0  0  0  0  0  0  0  0  0  0  0  0
  -28.6696  -10.5726   18.1258 N   0  0  0  0  0  0  0  0  0  0  0  0
  -24.7892   -8.2991   18.5381 N   0  0  0  0  0  0  0  0  0  0  0  0
  -28.1591  -16.6519   18.8930 N   0  0  0  0  0  0  0  0  0  0  0  0
  -24.7064  -31.4335   23.9950 N   0  0  0  0  0  0  0  0  0  0  0  0
  -19.8162  -29.8759   19.9090 N   0  0  0  0  0  0  0  0  0  0  0  0
  -19.7262  -29.7023   16.2993 N   0  3  0  0  0  0  0  0  0  0  0  0
  -26.8109   -8.3512   17.4570 O   0  0  0  0  0  0  0  0  0  0  0  0
  -24.1843  -29.2206   23.4920 O   0  0  0  0  0  0  0  0  0  0  0  0
  -21.2615  -31.5524   21.7281 O   0  0  0  0  0  0  0  0  0  0  0  0
  -20.4840  -28.1456   18.5172 O   0  0  0  0  0  0  0  0  0  0  0  0
  -29.9993  -17.2397   20.1774 O   0  0  0  0  0  0  0  0  0  0  0  0
  -20.5653   -9.5827   21.9360 O   0  0  0  0  0  0  0  0  0  0  0  0
  -26.7404  -25.5687   19.2711 O   0  0  0  0  0  0  0  0  0  1  0  0
  -19.4769   -4.3327   23.2229 F   0  0  0  0  0  0  0  0  0  0  0  0
  -19.8377   -8.8742   24.5073 F   0  0  0  0  0  0  0  0  0  0  0  0
  1  2  1  0  0  0  0
  1  5  2  0  0  0  0
  2  6  2  0  0  0  0
  3  8  2  0  0  0  0
  3 18  1  0  0  0  0
  4  9  1  0  0  0  0
  4 18  2  0  0  0  0
  5 20  1  0  0  0  0
  6 22  1  0  0  0  0
  7 10  2  0  0  0  0
  7 21  1  0  0  0  0
  8 27  1  0  0  0  0
  9 27  2  0  0  0  0
 10 28  1  0  0  0  0
 11 12  2  0  0  0  0
 11 29  1  0  0  0  0
 12 30  1  0  0  0  0
 13 23  1  0  0  0  0
 13 28  2  0  0  0  0
 14 24  2  0  0  0  0
 14 25  1  0  0  0  0
 15 24  1  0  0  0  0
 15 26  2  0  0  0  0
 16 25  2  0  0  0  0
 16 26  1  0  0  0  0
 17 30  2  0  0  0  0
 17 31  1  0  0  0  0
 18 32  1  0  0  0  0
 19 32  1  0  0  0  0
 19 33  2  0  0  0  0
 19 36  1  0  0  0  0
 20 22  2  0  0  0  0
 20 41  1  0  0  0  0
 21 23  2  0  0  0  0
 21 42  1  0  0  0  0
 22 53  1  0  0  0  0
 23 43  1  0  0  0  0
 24 56  1  0  0  0  0
 25 67  1  0  0  0  0
 26 72  1  0  0  0  0
 27 81  1  0  0  0  0
 28 82  1  0  0  0  0
 29 31  2  0  0  0  0
 29 81  1  0  0  0  0
 30 83  1  0  0  0  0
 31 84  1  0  0  0  0
 32 65  2  0  0  0  0
 33 66  1  0  0  0  0
 33 70  1  0  0  0  0
 34 35  2  0  0  0  0
 34 44  1  0  0  0  0
 34 45  1  0  0  0  0
 35 82  1  0  0  0  0
 36 71  1  0  0  0  0
 36 76  2  0  0  0  0
 37 54  1  0  0  0  0
 37 73  1  0  0  0  0
 37 77  2  0  0  0  0
 38 62  1  0  0  0  0
 38 68  1  0  0  0  0
 38 78  2  0  0  0  0
 39 63  1  0  0  0  0
 39 74  1  0  0  0  0
 39 79  2  0  0  0  0
 40 69  1  0  0  0  0
 40 72  1  0  0  0  0
 40 80  2  0  0  0  0
 41 46  1  0  0  0  0
 42 54  1  0  0  0  0
 43 68  1  0  0  0  0
 44 50  1  0  0  0  0
 45 67  1  0  0  0  0
 46 48  1  0  0  0  0
 47 49  1  0  0  0  0
 47 51  1  0  0  0  0
 48 53  1  0  0  0  0
 49 55  1  0  0  0  0
 50 67  1  0  0  0  0
 51 69  1  0  0  0  0
 52 55  1  0  0  0  0
 52 69  1  0  0  0  0
 53 73  1  0  0  0  0
 54 68  1  0  0  0  0
 55 66  1  0  0  0  0
 57 63  1  0  0  0  0
 58 64  1  0  0  0  0
 59 64  1  0  0  0  0
 60 64  1  0  0  0  0
 61 75  1  0  0  0  0
 62 64  1  0  0  0  0
 62 74  1  0  0  0  0
 63 75  1  0  0  0  0
 65 66  1  0  0  0  0
M  CHG  1  75   1
M  ISO  4  35 101  40 100  72 100  82 101
M  END
> <Batch ID>
0146

> <Smiles>
CNC(C)C(=O)NC(C(=O)N1Cc2cc([101O:1][101CH:1]=C3CCN(c4cc(C)cc([100NH:0][100C:0](=O)N5CCCC(n6nc(-c7ccc(Oc8ccc(F)cc8F)cc7)c(C(N)=O)c6N)C5)c4)C3)ccc2CC1C(=O)NC1CCCc2ccccc21)C(C)(C)C

> <Shape>
0.288

> <Color>
0.079

> <Negative vol penalty>
0.000

$$$$

  -OEChem-04052303103D

 84 93  0     1  0  0  0  0  0999 V2000
  -31.6964  -21.9697   17.9611 C   0  0  0  0  0  0  0  0  0  0  0  0
  -30.5314  -22.5684   17.4950 C   0  0  0  0  0  0  0  0  0  0  0  0
  -27.4845  -13.4674   22.5653 C   0  0  0  0  0  0  0  0  0  0  0  0
  -26.8681  -13.1611   20.2494 C   0  0  0  0  0  0  0  0  0  0  0  0
  -32.0545  -22.1002   19.3013 C   0  0  0  0  0  0  0  0  0  0  0  0
  -29.7303  -23.3075   18.3661 C   0  0  0  0  0  0  0  0  0  0  0  0
  -23.4725  -26.7410   19.0448 C   0  0  0  0  0  0  0  0  0  0  0  0
  -26.8813  -12.2515   22.8867 C   0  0  0  0  0  0  0  0  0  0  0  0
  -26.2649  -11.9451   20.5707 C   0  0  0  0  0  0  0  0  0  0  0  0
  -22.2826  -26.8033   19.7687 C   0  0  0  0  0  0  0  0  0  0  0  0
  -24.2486   -8.9332   20.8405 C   0  0  0  0  0  0  0  0  0  0  0  0
  -22.9911   -8.6698   20.2976 C   0  0  0  0  0  0  0  0  0  0  0  0
  -23.4390  -27.9305   21.5608 C   0  0  0  0  0  0  0  0  0  0  0  0
  -22.1039  -10.6262   21.4033 C   0  0  0  0  0  0  0  0  0  0  0  0
  -27.4778  -13.9223   21.2466 C   0  0  0  0  0  0  0  0  0  0  0  0
  -29.4382  -15.3890   20.5300 C   0  0  0  0  0  0  0  0  0  0  0  0
  -31.2503  -22.8310   20.1913 C   0  0  0  0  0  0  0  0  0  0  0  0
  -24.6588  -27.2641   19.5789 C   0  0  0  0  0  0  0  0  0  0  0  0
  -30.0871  -23.4707   19.7169 C   0  0  0  0  0  0  0  0  0  0  0  0
  -24.6421  -27.8759   20.8405 C   0  0  0  0  0  0  0  0  0  0  0  0
  -26.2715  -11.4903   21.8894 C   0  0  0  0  0  0  0  0  0  0  0  0
  -22.2663  -27.3955   21.0281 C   0  0  0  0  0  0  0  0  0  0  0  0
  -24.4338  -10.0431   21.6650 C   0  0  0  0  0  0  0  0  0  0  0  0
  -21.9187   -9.5163   20.5789 C   0  0  0  0  0  0  0  0  0  0  0  0
  -23.3614  -10.8895   21.9463 C   0  0  0  0  0  0  0  0  0  0  0  0
  -28.1003  -15.1785   20.9141 C   0  0  0  0  0  0  0  0  0  0  0  0
  -23.8835  -23.6958   22.9220 C   0  0  0  0  0  0  0  0  0  0  0  0
  -24.8527  -24.1913   23.7419 C   0  0  0  0  0  0  0  0  0  0  0  0
  -29.5277  -16.7443   20.3260 C   0  0  0  0  0  0  0  0  0  0  0  0
  -22.7622  -25.2876   23.8474 C   0  0  0  0  0  0  0  0  0  0  0  0
  -30.5046  -14.4439   20.3716 C   0  0  0  0  0  0  0  0  0  0  0  0
  -27.4849  -26.0497   20.3804 C   0  0  0  0  0  0  0  0  0  0  0  0
  -19.1061  -26.1456   21.3980 C   0  0  0  0  0  0  0  0  0  0  0  0
  -28.2433  -29.1632   20.8838 C   0  0  0  0  0  0  0  0  0  0  0  0
  -27.1756  -32.3301   21.5744 C   0  0  0  0  0  0  0  0  0  0  0  0
  -26.5595  -21.2640   22.5573 C   0  0  0  0  0  0  0  0  0  0  0  0
  -31.6892  -22.9466   21.6298 C   0  0  0  0  0  0  0  0  0  0  0  0
  -25.9285  -27.2129   18.7740 C   0  0  0  0  0  0  0  0  0  0  0  0
  -25.8843  -28.4706   21.4501 C   0  0  0  0  0  0  0  0  0  0  0  0
  -24.3655  -22.5648   22.1158 C   0  0  0  0  0  0  0  0  0  0  0  0
  -26.1263  -23.4719   23.6492 C   0  0  0  0  0  0  0  0  0  0  0  0
  -30.5596  -23.3681   22.5639 C   0  0  0  0  0  0  0  0  0  0  0  0
  -26.9281  -20.5353   19.0630 C   0  0  0  0  0  0  0  0  0  0  0  0
  -29.8435  -24.5850   21.9976 C   0  0  0  0  0  0  0  0  0  0  0  0
  -27.3607  -19.0726   19.1068 C   0  0  0  0  0  0  0  0  0  0  0  0
  -25.8993  -20.8728   20.1444 C   0  0  0  0  0  0  0  0  0  0  0  0
  -26.7583  -19.0161   21.5497 C   0  0  0  0  0  0  0  0  0  0  0  0
  -29.1842  -24.2539   20.6527 C   0  0  1  0  0  0  0  0  0  0  0  0
  -27.1850  -27.3181   19.6328 C   0  0  1  0  0  0  0  0  0  0  0  0
  -27.8452  -18.6937   20.5153 C   0  0  1  0  0  0  0  0  0  0  0  0
  -18.3299  -24.8647   21.5681 C   0  0  0  0  0  0  0  0  0  0  0  0
  -28.0316  -34.6569   21.9627 C   0  0  0  0  0  0  0  0  0  0  0  0
  -29.1505  -28.3596   23.6840 C   0  0  0  0  0  0  0  0  0  0  0  0
  -29.0863  -30.7793   24.3236 C   0  0  0  0  0  0  0  0  0  0  0  0
  -30.6437  -30.0045   22.5356 C   0  0  0  0  0  0  0  0  0  0  0  0
  -25.6842  -33.3916   19.2489 C   0  0  0  0  0  0  0  0  0  0  0  0
  -20.4117  -26.0815   23.5821 C   0  0  0  0  0  0  0  0  0  0  0  0
  -20.4757  -26.2231   22.0649 C   0  0  2  0  0  0  0  0  0  1  0  0
  -28.1628  -30.1066   22.0596 C   0  0  1  0  0  0  0  0  0  0  0  0
  -27.5063  -33.6666   20.9350 C   0  0  2  0  0  0  0  0  0  0  0  0
  -29.2377  -29.7997   23.1403 C   0  0  0  0  0  0  0  0  0  0  0  0
  -27.3909  -16.3095   20.9528 N   0  0  0  0  0  0  0  0  0  0  0  0
  -22.6686  -24.3101   22.9596 N   0  0  0  0  0  0  0  0  0  0  0  0
  -28.2864  -17.2438   20.5904 N   0  0  0  0  0  0  0  0  0  0  0  0
  -27.1022  -28.3902   20.6267 N   0  0  0  0  0  0  0  0  0  0  0  0
  -25.7607  -22.4082   22.6596 N   0  0  0  0  0  0  0  0  0  0  0  0
  -26.3355  -20.4163   21.4675 N   0  0  0  0  0  0  0  0  0  0  0  0
  -30.5463  -17.5456   19.9482 N   0  0  0  0  0  0  0  0  0  0  0  0
  -30.2405  -13.0903   20.6217 N   0  0  0  0  0  0  0  0  0  0  0  0
  -21.7458  -26.1323   24.1685 N   0  0  0  0  0  0  0  0  0  0  0  0
  -28.6983  -25.4763   20.0515 N   0  0  0  0  0  0  0  0  0  0  0  0
  -28.2387  -31.4547   21.5072 N   0  0  0  0  0  0  0  0  0  0  0  0
  -26.2924  -34.2504   20.2975 N   0  3  0  0  0  0  0  0  0  0  0  0
  -31.6619  -14.7915   20.0347 O   0  0  0  0  0  0  0  0  0  0  0  0
  -26.6760  -25.6237   21.1964 O   0  0  0  0  0  0  0  0  0  0  0  0
  -18.6472  -27.0789   20.7389 O   0  0  0  0  0  0  0  0  0  0  0  0
  -29.2780  -29.1191   20.2136 O   0  0  0  0  0  0  0  0  0  0  0  0
  -26.0845  -32.0883   22.0860 O   0  0  0  0  0  0  0  0  0  0  0  0
  -27.3973  -20.9870   23.4254 O   0  0  0  0  0  0  0  0  0  0  0  0
  -25.6831  -10.3037   22.2026 O   0  0  0  0  0  0  0  0  0  0  0  0
  -21.0972  -27.4575   21.7428 O   0  0  0  0  0  0  0  0  0  1  0  0
  -20.7115   -9.2640   20.0562 F   0  0  0  0  0  0  0  0  0  0  0  0
  -23.5335  -11.9580   22.7367 F   0  0  0  0  0  0  0  0  0  0  0  0
  -24.2988  -25.4845   24.6420 S   0  0  0  0  0  0  0  0  0  0  0  0
  1  2  1  0  0  0  0
  1  5  2  0  0  0  0
  2  6  2  0  0  0  0
  3  8  2  0  0  0  0
  3 15  1  0  0  0  0
  4  9  1  0  0  0  0
  4 15  2  0  0  0  0
  5 17  1  0  0  0  0
  6 19  1  0  0  0  0
  7 10  2  0  0  0  0
  7 18  1  0  0  0  0
  8 21  1  0  0  0  0
  9 21  2  0  0  0  0
 10 22  1  0  0  0  0
 11 12  2  0  0  0  0
 11 23  1  0  0  0  0
 12 24  1  0  0  0  0
 13 20  1  0  0  0  0
 13 22  2  0  0  0  0
 14 24  2  0  0  0  0
 14 25  1  0  0  0  0
 15 26  1  0  0  0  0
 16 26  1  0  0  0  0
 16 29  2  0  0  0  0
 16 31  1  0  0  0  0
 17 19  2  0  0  0  0
 17 37  1  0  0  0  0
 18 20  2  0  0  0  0
 18 38  1  0  0  0  0
 19 48  1  0  0  0  0
 20 39  1  0  0  0  0
 21 80  1  0  0  0  0
 22 81  1  0  0  0  0
 23 25  2  0  0  0  0
 23 80  1  0  0  0  0
 24 82  1  0  0  0  0
 25 83  1  0  0  0  0
 26 62  2  0  0  0  0
 27 28  2  0  0  0  0
 27 40  1  0  0  0  0
 27 63  1  0  0  0  0
 28 41  1  0  0  0  0
 28 84  1  0  0  0  0
 29 64  1  0  0  0  0
 29 68  1  0  0  0  0
 30 63  2  0  0  0  0
 30 70  1  0  0  0  0
 30 84  1  0  0  0  0
 31 69  1  0  0  0  0
 31 74  2  0  0  0  0
 32 49  1  0  0  0  0
 32 71  1  0  0  0  0
 32 75  2  0  0  0  0
 33 51  1  0  0  0  0
 33 58  1  0  0  0  0
 33 76  2  0  0  0  0
 34 59  1  0  0  0  0
 34 65  1  0  0  0  0
 34 77  2  0  0  0  0
 35 60  1  0  0  0  0
 35 72  1  0  0  0  0
 35 78  2  0  0  0  0
 36 66  1  0  0  0  0
 36 67  1  0  0  0  0
 36 79  2  0  0  0  0
 37 42  1  0  0  0  0
 38 49  1  0  0  0  0
 39 65  1  0  0  0  0
 40 66  1  0  0  0  0
 41 66  1  0  0  0  0
 42 44  1  0  0  0  0
 43 45  1  0  0  0  0
 43 46  1  0  0  0  0
 44 48  1  0  0  0  0
 45 50  1  0  0  0  0
 46 67  1  0  0  0  0
 47 50  1  0  0  0  0
 47 67  1  0  0  0  0
 48 71  1  0  0  0  0
 49 65  1  0  0  0  0
 50 64  1  0  0  0  0
 52 60  1  0  0  0  0
 53 61  1  0  0  0  0
 54 61  1  0  0  0  0
 55 61  1  0  0  0  0
 56 73  1  0  0  0  0
 57 58  1  0  0  0  0
 57 70  1  0  0  0  0
 58 81  1  0  0  0  0
 59 61  1  0  0  0  0
 59 72  1  0  0  0  0
 60 73  1  0  0  0  0
 62 64  1  0  0  0  0
M  CHG  1  73   1
M  ISO  4  36 100  58 101  66 100  81 101
M  END
> <Batch ID>
0146

> <Smiles>
CNC(C)C(=O)NC(C(=O)N1Cc2cc([101O:1][101CH:1](CNc3nc4c(s3)C[100N:0]([100C:0](=O)N3CCCC(n5nc(-c6ccc(Oc7ccc(F)cc7F)cc6)c(C(N)=O)c5N)C3)C4)C(C)=O)ccc2CC1C(=O)NC1CCCc2ccccc21)C(C)(C)C

> <Shape>
0.242

> <Color>
0.065

> <Negative vol penalty>
0.000

$$$$

  -OEChem-04052303103D

 91100  0     1  0  0  0  0  0999 V2000
  -31.2666  -39.0325   17.8867 C   0  0  0  0  0  0  0  0  0  0  0  0
  -31.2298  -37.7620   17.3209 C   0  0  0  0  0  0  0  0  0  0  0  0
  -23.4985   -9.7150   19.9755 C   0  0  0  0  0  0  0  0  0  0  0  0
  -23.9906   -9.9777   22.3262 C   0  0  0  0  0  0  0  0  0  0  0  0
  -28.9027  -20.0007   23.2342 C   0  0  0  0  0  0  0  0  0  0  0  0
  -31.2584  -39.1773   19.2733 C   0  0  0  0  0  0  0  0  0  0  0  0
  -31.1858  -36.6356   18.1416 C   0  0  0  0  0  0  0  0  0  0  0  0
  -28.5213  -29.9896   18.3623 C   0  0  0  0  0  0  0  0  0  0  0  0
  -28.6442  -18.6904   22.8318 C   0  0  0  0  0  0  0  0  0  0  0  0
  -22.9085   -8.4785   20.2372 C   0  0  0  0  0  0  0  0  0  0  0  0
  -23.4005   -8.7412   22.5879 C   0  0  0  0  0  0  0  0  0  0  0  0
  -28.9263  -28.6736   18.5809 C   0  0  0  0  0  0  0  0  0  0  0  0
  -20.2773   -7.4946   22.9230 C   0  0  0  0  0  0  0  0  0  0  0  0
  -19.4095   -7.4098   24.0116 C   0  0  0  0  0  0  0  0  0  0  0  0
  -28.8361  -29.0478   20.9623 C   0  0  0  0  0  0  0  0  0  0  0  0
  -30.8643  -18.5417   21.8904 C   0  0  0  0  0  0  0  0  0  0  0  0
  -20.8320   -5.7345   25.0151 C   0  0  0  0  0  0  0  0  0  0  0  0
  -24.0396  -10.4646   21.0200 C   0  0  0  0  0  0  0  0  0  0  0  0
  -30.1419  -20.5816   22.9645 C   0  0  0  0  0  0  0  0  0  0  0  0
  -24.0191  -13.0003   20.7417 C   0  0  0  0  0  0  0  0  0  0  0  0
  -31.2045  -38.0523   20.1114 C   0  0  0  0  0  0  0  0  0  0  0  0
  -28.2808  -30.8493   19.4438 C   0  0  0  0  0  0  0  0  0  0  0  0
  -31.1782  -36.7654   19.5408 C   0  0  0  0  0  0  0  0  0  0  0  0
  -28.4257  -30.3735   20.7548 C   0  0  0  0  0  0  0  0  0  0  0  0
  -29.6250  -17.9609   22.1599 C   0  0  0  0  0  0  0  0  0  0  0  0
  -22.8594   -7.9916   21.5434 C   0  0  0  0  0  0  0  0  0  0  0  0
  -29.0866  -28.2033   19.8810 C   0  0  0  0  0  0  0  0  0  0  0  0
  -21.4225   -6.6993   22.8803 C   0  0  0  0  0  0  0  0  0  0  0  0
  -31.1227  -19.8520   22.2927 C   0  0  0  0  0  0  0  0  0  0  0  0
  -19.6868   -6.5298   25.0577 C   0  0  0  0  0  0  0  0  0  0  0  0
  -21.6998   -5.8193   23.9264 C   0  0  0  0  0  0  0  0  0  0  0  0
  -24.6498  -11.7417   20.7502 C   0  0  0  0  0  0  0  0  0  0  0  0
  -25.0232  -13.8854   20.4335 C   0  0  0  0  0  0  0  0  0  0  0  0
  -30.3988  -21.9671   23.3964 C   0  0  0  0  0  0  0  0  0  0  0  0
  -22.6483  -13.3391   20.9904 C   0  0  0  0  0  0  0  0  0  0  0  0
  -29.5481  -33.5803   20.4632 C   0  0  0  0  0  0  0  0  0  0  0  0
  -27.1218  -33.4521   22.6124 C   0  0  0  0  0  0  0  0  0  0  0  0
  -24.8674  -31.5478   24.3265 C   0  0  0  0  0  0  0  0  0  0  0  0
  -30.2240  -15.7676   21.0750 C   0  0  0  0  0  0  0  0  0  0  0  0
  -31.2453  -38.2572   21.6050 C   0  0  0  0  0  0  0  0  0  0  0  0
  -27.8187  -32.2583   19.1915 C   0  0  0  0  0  0  0  0  0  0  0  0
  -28.1605  -31.2502   21.9504 C   0  0  0  0  0  0  0  0  0  0  0  0
  -30.8193  -37.0260   22.4005 C   0  0  0  0  0  0  0  0  0  0  0  0
  -29.7442  -13.0721   18.7988 C   0  0  0  0  0  0  0  0  0  0  0  0
  -31.5030  -35.7758   21.8562 C   0  0  0  0  0  0  0  0  0  0  0  0
  -28.3242  -12.5892   19.1029 C   0  0  0  0  0  0  0  0  0  0  0  0
  -29.0470  -24.1120   20.8206 C   0  0  0  0  0  0  0  0  0  0  0  0
  -30.4772  -13.5113   20.0651 C   0  0  0  0  0  0  0  0  0  0  0  0
  -29.5359  -22.7304   21.2392 C   0  0  0  0  0  0  0  0  0  0  0  0
  -28.3437  -14.0163   21.1885 C   0  0  0  0  0  0  0  0  0  0  0  0
  -31.1049  -35.5201   20.3975 C   0  0  1  0  0  0  0  0  0  0  0  0
  -28.0988  -33.1973   20.3607 C   0  0  1  0  0  0  0  0  0  0  0  0
  -27.5432  -13.6245   19.9358 C   0  0  2  0  0  0  0  0  0  0  0  0
  -30.0561  -25.0487   21.4834 C   0  0  2  0  0  0  0  0  0  0  0  0
  -30.2872  -24.4176   22.8828 C   0  0  0  0  0  0  0  0  0  0  0  0
  -29.2345  -24.8103   23.9254 C   0  0  0  0  0  0  0  0  0  0  0  0
  -31.6978  -24.6961   23.4016 C   0  0  0  0  0  0  0  0  0  0  0  0
  -33.6036  -21.7096   20.4625 C   0  0  0  0  0  0  0  0  0  0  0  0
  -23.0416  -31.7208   26.0393 C   0  0  0  0  0  0  0  0  0  0  0  0
  -29.2156  -33.7788   24.8076 C   0  0  0  0  0  0  0  0  0  0  0  0
  -27.5029  -33.0019   26.4603 C   0  0  0  0  0  0  0  0  0  0  0  0
  -27.1195  -35.0964   25.1608 C   0  0  0  0  0  0  0  0  0  0  0  0
  -22.8423  -30.4926   22.4438 C   0  0  0  0  0  0  0  0  0  0  0  0
  -29.6266  -26.5040   21.4547 C   0  0  0  0  0  0  0  0  0  1  0  0
  -32.7142  -20.4987   20.6481 C   0  0  0  0  0  0  0  0  0  0  0  0
  -26.9444  -32.8621   23.9906 C   0  0  1  0  0  0  0  0  0  0  0  0
  -23.3761  -31.7145   24.5558 C   0  0  2  0  0  0  0  0  0  0  0  0
  -27.7025  -33.6686   25.0825 C   0  0  0  0  0  0  0  0  0  0  0  0
  -25.9535  -11.8163   20.4695 N   0  0  0  0  0  0  0  0  0  0  0  0
  -26.1502  -13.1324   20.2817 N   0  0  0  0  0  0  0  0  0  0  0  0
  -30.1106  -22.9673   22.5785 N   0  0  0  0  0  0  0  0  0  0  0  0
  -27.7168  -32.6219   21.6519 N   0  0  0  0  0  0  0  0  0  0  0  0
  -29.6797  -14.4952   20.8004 N   0  0  0  0  0  0  0  0  0  0  0  0
  -25.0431  -15.2265   20.2802 N   0  0  0  0  0  0  0  0  0  0  0  0
  -21.7494  -12.3073   21.2931 N   0  0  0  0  0  0  0  0  0  0  0  0
  -29.3616  -16.6300   21.7510 N   0  0  0  0  0  0  0  0  0  0  0  0
  -29.7828  -34.9355   20.3295 N   0  0  0  0  0  0  0  0  0  0  0  0
  -25.5055  -32.7646   24.2108 N   0  0  0  0  0  0  0  0  0  0  0  0
  -30.9145  -22.1908   24.6015 N   0  3  0  0  0  0  0  0  0  0  0  0
  -22.6249  -30.6015   23.9094 N   0  3  0  0  0  0  0  0  0  0  0  0
  -22.2295  -14.5199   20.9293 O   0  0  0  0  0  0  0  0  0  0  0  0
  -30.3909  -32.7108   20.6513 O   0  0  0  0  0  0  0  0  0  0  0  0
  -26.7397  -34.6044   22.3941 O   0  0  0  0  0  0  0  0  0  0  0  0
  -25.4123  -30.4481   24.2605 O   0  0  0  0  0  0  0  0  0  0  0  0
  -31.3610  -16.0793   20.7114 O   0  0  0  0  0  0  0  0  0  0  0  0
  -22.2835   -6.7852   21.7992 O   0  0  0  0  0  0  0  0  0  0  0  0
  -29.4824  -26.9194   20.0971 O   0  0  0  0  0  0  0  0  0  1  0  0
  -32.3382  -20.4046   22.0205 O   0  0  0  0  0  0  0  0  0  0  0  0
  -18.8541   -6.4496   26.1038 F   0  0  0  0  0  0  0  0  0  0  0  0
  -22.7991   -5.0536   23.8916 F   0  0  0  0  0  0  0  0  0  0  0  0
  -31.2160  -24.9478   20.7628 F   0  0  0  0  0  0  0  0  0  0  0  0
  1  2  1  0  0  0  0
  1  6  2  0  0  0  0
  2  7  2  0  0  0  0
  3 10  2  0  0  0  0
  3 18  1  0  0  0  0
  4 11  1  0  0  0  0
  4 18  2  0  0  0  0
  5  9  2  0  0  0  0
  5 19  1  0  0  0  0
  6 21  1  0  0  0  0
  7 23  1  0  0  0  0
  8 12  2  0  0  0  0
  8 22  1  0  0  0  0
  9 25  1  0  0  0  0
 10 26  1  0  0  0  0
 11 26  2  0  0  0  0
 12 27  1  0  0  0  0
 13 14  2  0  0  0  0
 13 28  1  0  0  0  0
 14 30  1  0  0  0  0
 15 24  1  0  0  0  0
 15 27  2  0  0  0  0
 16 25  2  0  0  0  0
 16 29  1  0  0  0  0
 17 30  2  0  0  0  0
 17 31  1  0  0  0  0
 18 32  1  0  0  0  0
 19 29  2  0  0  0  0
 19 34  1  0  0  0  0
 20 32  1  0  0  0  0
 20 33  2  0  0  0  0
 20 35  1  0  0  0  0
 21 23  2  0  0  0  0
 21 40  1  0  0  0  0
 22 24  2  0  0  0  0
 22 41  1  0  0  0  0
 23 51  1  0  0  0  0
 24 42  1  0  0  0  0
 25 76  1  0  0  0  0
 26 86  1  0  0  0  0
 27 87  1  0  0  0  0
 28 31  2  0  0  0  0
 28 86  1  0  0  0  0
 29 88  1  0  0  0  0
 30 89  1  0  0  0  0
 31 90  1  0  0  0  0
 32 69  2  0  0  0  0
 33 70  1  0  0  0  0
 33 74  1  0  0  0  0
 34 71  1  0  0  0  0
 34 79  2  0  0  0  0
 35 75  1  0  0  0  0
 35 81  2  0  0  0  0
 36 52  1  0  0  0  0
 36 77  1  0  0  0  0
 36 82  2  0  0  0  0
 37 66  1  0  0  0  0
 37 72  1  0  0  0  0
 37 83  2  0  0  0  0
 38 67  1  0  0  0  0
 38 78  1  0  0  0  0
 38 84  2  0  0  0  0
 39 73  1  0  0  0  0
 39 76  1  0  0  0  0
 39 85  2  0  0  0  0
 40 43  1  0  0  0  0
 41 52  1  0  0  0  0
 42 72  1  0  0  0  0
 43 45  1  0  0  0  0
 44 46  1  0  0  0  0
 44 48  1  0  0  0  0
 45 51  1  0  0  0  0
 46 53  1  0  0  0  0
 47 49  1  0  0  0  0
 47 54  1  0  0  0  0
 48 73  1  0  0  0  0
 49 71  1  0  0  0  0
 50 53  1  0  0  0  0
 50 73  1  0  0  0  0
 51 77  1  0  0  0  0
 52 72  1  0  0  0  0
 53 70  1  0  0  0  0
 54 55  1  0  0  0  0
 54 64  1  0  0  0  0
 54 91  1  0  0  0  0
 55 56  1  0  0  0  0
 55 57  1  0  0  0  0
 55 71  1  0  0  0  0
 58 65  1  0  0  0  0
 59 67  1  0  0  0  0
 60 68  1  0  0  0  0
 61 68  1  0  0  0  0
 62 68  1  0  0  0  0
 63 80  1  0  0  0  0
 64 87  1  0  0  0  0
 65 88  1  0  0  0  0
 66 68  1  0  0  0  0
 66 78  1  0  0  0  0
 67 80  1  0  0  0  0
 69 70  1  0  0  0  0
M  CHG  2  79   1  80   1
M  ISO  4  39 100  64 101  76 100  87 101
M  END
> <Batch ID>
0146

> <Smiles>
CCOc1cc([100NH:0][100C:0](=O)N2CCCC(n3nc(-c4ccc(Oc5ccc(F)cc5F)cc4)c(C(N)=O)c3N)C2)ccc1C(=N)N1CCC(F)([101CH2:1][101O:1]c2ccc3c(c2)CN(C(=O)C(NC(=O)C(C)NC)C(C)(C)C)C(C(=O)NC2CCCc4ccccc42)C3)C1(C)C

> <Shape>
0.271

> <Color>
0.170

> <Negative vol penalty>
0.000

$$$$

  -OEChem-04052303103D

 87 95  0     1  0  0  0  0  0999 V2000
  -21.9403  -15.5410   26.8212 C   0  0  0  0  0  0  0  0  0  0  0  0
  -22.8275  -16.6081   26.7239 C   0  0  0  0  0  0  0  0  0  0  0  0
  -23.1322   -9.7755   20.0913 C   0  0  0  0  0  0  0  0  0  0  0  0
  -23.7729  -10.0215   22.4078 C   0  0  0  0  0  0  0  0  0  0  0  0
  -20.8700  -15.4425   25.9331 C   0  0  0  0  0  0  0  0  0  0  0  0
  -22.6456  -17.5768   25.7376 C   0  0  0  0  0  0  0  0  0  0  0  0
  -23.2128  -22.2859   27.5119 C   0  0  0  0  0  0  0  0  0  0  0  0
  -22.3871   -8.6424   20.4177 C   0  0  0  0  0  0  0  0  0  0  0  0
  -23.0278   -8.8884   22.7342 C   0  0  0  0  0  0  0  0  0  0  0  0
  -24.5164  -22.7400   27.7073 C   0  0  0  0  0  0  0  0  0  0  0  0
  -19.7804   -8.1083   23.2503 C   0  0  0  0  0  0  0  0  0  0  0  0
  -18.9646   -8.1742   24.3798 C   0  0  0  0  0  0  0  0  0  0  0  0
  -24.4063  -23.9374   25.6160 C   0  0  0  0  0  0  0  0  0  0  0  0
  -29.6914  -17.7425   22.8516 C   0  0  0  0  0  0  0  0  0  0  0  0
  -31.9106  -16.8714   22.4604 C   0  0  0  0  0  0  0  0  0  0  0  0
  -31.5992  -18.7747   23.9155 C   0  0  0  0  0  0  0  0  0  0  0  0
  -20.1842   -6.3376   25.3679 C   0  0  0  0  0  0  0  0  0  0  0  0
  -23.8252  -10.4651   21.0863 C   0  0  0  0  0  0  0  0  0  0  0  0
  -24.1494  -12.9704   20.7316 C   0  0  0  0  0  0  0  0  0  0  0  0
  -20.6693  -16.4158   24.9416 C   0  0  0  0  0  0  0  0  0  0  0  0
  -22.4988  -22.6459   26.3598 C   0  0  0  0  0  0  0  0  0  0  0  0
  -21.5724  -17.4906   24.8346 C   0  0  0  0  0  0  0  0  0  0  0  0
  -23.0929  -23.4886   25.4096 C   0  0  0  0  0  0  0  0  0  0  0  0
  -30.5349  -16.8177   22.2361 C   0  0  0  0  0  0  0  0  0  0  0  0
  -30.2235  -18.7211   23.6912 C   0  0  0  0  0  0  0  0  0  0  0  0
  -22.3349   -8.1989   21.7391 C   0  0  0  0  0  0  0  0  0  0  0  0
  -25.1144  -23.5635   26.7579 C   0  0  0  0  0  0  0  0  0  0  0  0
  -20.7981   -7.1570   23.1796 C   0  0  0  0  0  0  0  0  0  0  0  0
  -19.1665   -7.2889   25.4386 C   0  0  0  0  0  0  0  0  0  0  0  0
  -32.4428  -17.8499   23.3001 C   0  0  0  0  0  0  0  0  0  0  0  0
  -21.0001   -6.2717   24.2384 C   0  0  0  0  0  0  0  0  0  0  0  0
  -24.5955  -11.6353   20.7497 C   0  0  0  0  0  0  0  0  0  0  0  0
  -25.2519  -13.6956   20.3505 C   0  0  0  0  0  0  0  0  0  0  0  0
  -22.8543  -13.5071   21.0323 C   0  0  0  0  0  0  0  0  0  0  0  0
  -21.2266  -21.0540   23.9204 C   0  0  0  0  0  0  0  0  0  0  0  0
  -28.6728  -21.5102   25.6700 C   0  0  0  0  0  0  0  0  0  0  0  0
  -20.0639  -23.9762   23.1258 C   0  0  0  0  0  0  0  0  0  0  0  0
  -20.3588  -27.3691   23.3445 C   0  0  0  0  0  0  0  0  0  0  0  0
  -30.6919  -14.8315   20.6945 C   0  0  0  0  0  0  0  0  0  0  0  0
  -19.5253  -16.2415   23.9743 C   0  0  0  0  0  0  0  0  0  0  0  0
  -21.0839  -22.1695   26.1768 C   0  0  0  0  0  0  0  0  0  0  0  0
  -22.3620  -23.9206   24.1656 C   0  0  0  0  0  0  0  0  0  0  0  0
  -19.1873  -17.5103   23.1958 C   0  0  0  0  0  0  0  0  0  0  0  0
  -29.7232  -12.1784   18.5266 C   0  0  0  0  0  0  0  0  0  0  0  0
  -20.4573  -18.1582   22.6536 C   0  0  0  0  0  0  0  0  0  0  0  0
  -28.2661  -11.9104   18.9102 C   0  0  0  0  0  0  0  0  0  0  0  0
  -30.5731  -12.5387   19.7438 C   0  0  0  0  0  0  0  0  0  0  0  0
  -28.5910  -13.3696   20.9480 C   0  0  0  0  0  0  0  0  0  0  0  0
  -21.3943  -18.5747   23.7938 C   0  0  1  0  0  0  0  0  0  0  0  0
  -20.6338  -22.1801   24.7192 C   0  0  1  0  0  0  0  0  0  0  0  0
  -27.6817  -13.0661   19.7460 C   0  0  2  0  0  0  0  0  0  0  0  0
  -19.2816  -29.4948   22.5582 C   0  0  0  0  0  0  0  0  0  0  0  0
  -21.3040  -23.5808   20.3661 C   0  0  0  0  0  0  0  0  0  0  0  0
  -21.0366  -26.0385   19.9706 C   0  0  0  0  0  0  0  0  0  0  0  0
  -19.0255  -24.6116   20.3479 C   0  0  0  0  0  0  0  0  0  0  0  0
  -29.4671  -24.3609   24.7832 C   0  0  0  0  0  0  0  0  0  0  0  0
  -29.1094  -25.0930   27.1413 C   0  0  0  0  0  0  0  0  0  0  0  0
  -19.7647  -28.2288   26.1134 C   0  0  0  0  0  0  0  0  0  0  0  0
  -28.9931  -22.6582   26.6167 C   0  0  0  0  0  0  0  0  0  0  0  0
  -29.8464  -20.6842   25.1844 C   0  0  0  0  0  0  0  0  0  0  0  0
  -27.1687  -24.2523   25.7774 C   0  0  0  0  0  0  0  0  0  1  0  0
  -20.5580  -25.1323   22.2902 C   0  0  1  0  0  0  0  0  0  0  0  0
  -19.3414  -28.4502   23.6618 C   0  0  2  0  0  0  0  0  0  0  0  0
  -20.4958  -24.8313   20.7661 C   0  0  0  0  0  0  0  0  0  0  0  0
  -28.6730  -24.0705   26.0694 C   0  0  0  0  0  0  0  0  0  0  0  0
  -25.8810  -11.5164   20.4073 N   0  0  0  0  0  0  0  0  0  0  0  0
  -26.2522  -12.7861   20.1703 N   0  0  0  0  0  0  0  0  0  0  0  0
  -20.9830  -23.4234   24.0288 N   0  0  0  0  0  0  0  0  0  0  0  0
  -29.9602  -13.6436   20.4844 N   0  0  0  0  0  0  0  0  0  0  0  0
  -25.4535  -15.0160   20.1553 N   0  0  0  0  0  0  0  0  0  0  0  0
  -21.8348  -12.6215   21.4075 N   0  0  0  0  0  0  0  0  0  0  0  0
  -29.9948  -15.8240   21.3826 N   0  0  0  0  0  0  0  0  0  0  0  0
  -29.3850  -19.6410   24.3033 N   0  0  0  0  0  0  0  0  0  0  0  0
  -20.9268  -19.7975   24.4110 N   0  0  0  0  0  0  0  0  0  0  0  0
  -19.7795  -26.2955   22.7018 N   0  0  0  0  0  0  0  0  0  0  0  0
  -19.6937  -29.1345   24.9380 N   0  3  0  0  0  0  0  0  0  0  0  0
  -22.6041  -14.7338   20.9543 O   0  0  0  0  0  0  0  0  0  0  0  0
  -21.9046  -21.3064   22.9313 O   0  0  0  0  0  0  0  0  0  0  0  0
  -27.5153  -21.2861   25.3153 O   0  0  0  0  0  0  0  0  0  0  0  0
  -18.9030  -23.5828   22.9875 O   0  0  0  0  0  0  0  0  0  0  0  0
  -21.5490  -27.4688   23.6343 O   0  0  0  0  0  0  0  0  0  0  0  0
  -31.8420  -14.9690   20.2697 O   0  0  0  0  0  0  0  0  0  0  0  0
  -21.6077   -7.0934   22.0579 O   0  0  0  0  0  0  0  0  0  0  0  0
  -26.3869  -24.0076   26.9459 O   0  0  0  0  0  0  0  0  0  1  0  0
  -18.3840   -7.3533   26.5238 F   0  0  0  0  0  0  0  0  0  0  0  0
  -33.7639  -17.9019   23.5152 F   0  0  0  0  0  0  0  0  0  0  0  0
  -21.9769   -5.3564   24.1768 F   0  0  0  0  0  0  0  0  0  0  0  0
  1  2  1  0  0  0  0
  1  5  2  0  0  0  0
  2  6  2  0  0  0  0
  3  8  2  0  0  0  0
  3 18  1  0  0  0  0
  4  9  1  0  0  0  0
  4 18  2  0  0  0  0
  5 20  1  0  0  0  0
  6 22  1  0  0  0  0
  7 10  2  0  0  0  0
  7 21  1  0  0  0  0
  8 26  1  0  0  0  0
  9 26  2  0  0  0  0
 10 27  1  0  0  0  0
 11 12  2  0  0  0  0
 11 28  1  0  0  0  0
 12 29  1  0  0  0  0
 13 23  1  0  0  0  0
 13 27  2  0  0  0  0
 14 24  1  0  0  0  0
 14 25  2  0  0  0  0
 15 24  2  0  0  0  0
 15 30  1  0  0  0  0
 16 25  1  0  0  0  0
 16 30  2  0  0  0  0
 17 29  2  0  0  0  0
 17 31  1  0  0  0  0
 18 32  1  0  0  0  0
 19 32  1  0  0  0  0
 19 33  2  0  0  0  0
 19 34  1  0  0  0  0
 20 22  2  0  0  0  0
 20 40  1  0  0  0  0
 21 23  2  0  0  0  0
 21 41  1  0  0  0  0
 22 49  1  0  0  0  0
 23 42  1  0  0  0  0
 24 72  1  0  0  0  0
 25 73  1  0  0  0  0
 26 83  1  0  0  0  0
 27 84  1  0  0  0  0
 28 31  2  0  0  0  0
 28 83  1  0  0  0  0
 29 85  1  0  0  0  0
 30 86  1  0  0  0  0
 31 87  1  0  0  0  0
 32 66  2  0  0  0  0
 33 67  1  0  0  0  0
 33 70  1  0  0  0  0
 34 71  1  0  0  0  0
 34 77  2  0  0  0  0
 35 50  1  0  0  0  0
 35 74  1  0  0  0  0
 35 78  2  0  0  0  0
 36 59  1  0  0  0  0
 36 60  1  0  0  0  0
 36 79  2  0  0  0  0
 37 62  1  0  0  0  0
 37 68  1  0  0  0  0
 37 80  2  0  0  0  0
 38 63  1  0  0  0  0
 38 75  1  0  0  0  0
 38 81  2  0  0  0  0
 39 69  1  0  0  0  0
 39 72  1  0  0  0  0
 39 82  2  0  0  0  0
 40 43  1  0  0  0  0
 41 50  1  0  0  0  0
 42 68  1  0  0  0  0
 43 45  1  0  0  0  0
 44 46  1  0  0  0  0
 44 47  1  0  0  0  0
 45 49  1  0  0  0  0
 46 51  1  0  0  0  0
 47 69  1  0  0  0  0
 48 51  1  0  0  0  0
 48 69  1  0  0  0  0
 49 74  1  0  0  0  0
 50 68  1  0  0  0  0
 51 67  1  0  0  0  0
 52 63  1  0  0  0  0
 53 64  1  0  0  0  0
 54 64  1  0  0  0  0
 55 64  1  0  0  0  0
 56 65  1  0  0  0  0
 57 65  1  0  0  0  0
 58 76  1  0  0  0  0
 59 65  1  0  0  0  0
 60 73  1  0  0  0  0
 61 65  1  0  0  0  0
 61 84  1  0  0  0  0
 62 64  1  0  0  0  0
 62 75  1  0  0  0  0
 63 76  1  0  0  0  0
 66 67  1  0  0  0  0
M  CHG  1  76   1
M  ISO  4  39 100  61 101  72 100  84 101
M  END
> <Batch ID>
0146

> <Smiles>
CNC(C)C(=O)NC(C(=O)N1Cc2cc([101O:1][101CH2:1]C(C)(C)CC(=O)CNc3cc(F)cc([100NH:0][100C:0](=O)N4CCCC(n5nc(-c6ccc(Oc7ccc(F)cc7F)cc6)c(C(N)=O)c5N)C4)c3)ccc2CC1C(=O)NC1CCCc2ccccc21)C(C)(C)C

> <Shape>
0.204

> <Color>
0.179

> <Negative vol penalty>
0.000

$$$$

  -OEChem-04052303103D

 85 93  0     1  0  0  0  0  0999 V2000
  -23.4701  -35.8992   15.6368 C   0  0  0  0  0  0  0  0  0  0  0  0
  -24.1179  -34.6688   15.6797 C   0  0  0  0  0  0  0  0  0  0  0  0
  -23.0873   -9.9080   22.1956 C   0  0  0  0  0  0  0  0  0  0  0  0
  -23.8137   -9.3069   19.9712 C   0  0  0  0  0  0  0  0  0  0  0  0
  -23.4719  -36.7261   16.7593 C   0  0  0  0  0  0  0  0  0  0  0  0
  -24.7689  -34.2651   16.8449 C   0  0  0  0  0  0  0  0  0  0  0  0
  -25.2344  -28.5564   19.0128 C   0  0  0  0  0  0  0  0  0  0  0  0
  -22.3598   -8.7209   22.2789 C   0  0  0  0  0  0  0  0  0  0  0  0
  -23.0861   -8.1197   20.0544 C   0  0  0  0  0  0  0  0  0  0  0  0
  -26.2502  -27.6044   18.9376 C   0  0  0  0  0  0  0  0  0  0  0  0
  -20.6023   -5.6802   23.2176 C   0  0  0  0  0  0  0  0  0  0  0  0
  -20.6976   -4.9426   24.3976 C   0  0  0  0  0  0  0  0  0  0  0  0
  -27.0526  -28.2983   21.1042 C   0  0  0  0  0  0  0  0  0  0  0  0
  -28.4911  -19.9621   18.2243 C   0  0  0  0  0  0  0  0  0  0  0  0
  -23.0794   -4.7146   24.0628 C   0  0  0  0  0  0  0  0  0  0  0  0
  -23.8142  -10.2011   21.0417 C   0  0  0  0  0  0  0  0  0  0  0  0
  -25.9049  -11.6327   21.3366 C   0  0  0  0  0  0  0  0  0  0  0  0
  -24.1150  -36.3282   17.9420 C   0  0  0  0  0  0  0  0  0  0  0  0
  -25.1265  -29.3953   20.1313 C   0  0  0  0  0  0  0  0  0  0  0  0
  -24.7805  -35.0881   17.9839 C   0  0  0  0  0  0  0  0  0  0  0  0
  -26.0330  -29.2584   21.1923 C   0  0  0  0  0  0  0  0  0  0  0  0
  -28.7287  -18.5649   18.0776 C   0  0  0  0  0  0  0  0  0  0  0  0
  -22.3592   -7.8267   21.2083 C   0  0  0  0  0  0  0  0  0  0  0  0
  -27.1612  -27.4772   19.9821 C   0  0  0  0  0  0  0  0  0  0  0  0
  -21.7456   -5.9350   22.4601 C   0  0  0  0  0  0  0  0  0  0  0  0
  -21.9361   -4.4598   24.8203 C   0  0  0  0  0  0  0  0  0  0  0  0
  -22.9841   -5.4522   22.8828 C   0  0  0  0  0  0  0  0  0  0  0  0
  -24.5655  -11.4275   20.9549 C   0  0  0  0  0  0  0  0  0  0  0  0
  -29.6119  -18.0884   19.0212 C   0  0  0  0  0  0  0  0  0  0  0  0
  -26.1431  -12.9560   21.0559 C   0  0  0  0  0  0  0  0  0  0  0  0
  -29.2017  -20.5002   19.2747 C   0  0  0  0  0  0  0  0  0  0  0  0
  -26.8495  -10.7098   21.8949 C   0  0  0  0  0  0  0  0  0  0  0  0
  -30.1025  -16.7604   19.2100 C   0  0  0  0  0  0  0  0  0  0  0  0
  -25.2896  -32.5342   20.6051 C   0  0  0  0  0  0  0  0  0  0  0  0
  -28.6381  -24.1805   19.7440 C   0  0  0  0  0  0  0  0  0  0  0  0
  -24.4211  -31.7303   23.6253 C   0  0  0  0  0  0  0  0  0  0  0  0
  -24.3144  -29.3558   26.0743 C   0  0  0  0  0  0  0  0  0  0  0  0
  -25.7217  -17.3623   17.6570 C   0  0  0  0  0  0  0  0  0  0  0  0
  -24.1304  -37.2767   19.1145 C   0  0  0  0  0  0  0  0  0  0  0  0
  -24.0089  -30.3990   20.2090 C   0  0  0  0  0  0  0  0  0  0  0  0
  -25.9482  -30.1209   22.4241 C   0  0  0  0  0  0  0  0  0  0  0  0
  -24.5239  -36.6115   20.4309 C   0  0  0  0  0  0  0  0  0  0  0  0
  -22.9589  -16.6790   19.7963 C   0  0  0  0  0  0  0  0  0  0  0  0
  -25.7555  -35.7326   20.2377 C   0  0  0  0  0  0  0  0  0  0  0  0
  -23.2380  -15.2671   20.3146 C   0  0  0  0  0  0  0  0  0  0  0  0
  -23.3986  -16.8440   18.3432 C   0  0  0  0  0  0  0  0  0  0  0  0
  -25.0787  -15.0582   18.5922 C   0  0  0  0  0  0  0  0  0  0  0  0
  -25.4766  -34.6042   19.2374 C   0  0  1  0  0  0  0  0  0  0  0  0
  -24.3042  -31.5489   21.1671 C   0  0  1  0  0  0  0  0  0  0  0  0
  -24.7035  -14.8598   20.0707 C   0  0  2  0  0  0  0  0  0  0  0  0
  -31.4888  -16.5812   19.7901 C   0  0  0  0  0  0  0  0  0  0  0  0
  -23.5784  -29.0055   28.4477 C   0  0  0  0  0  0  0  0  0  0  0  0
  -26.8474  -33.2986   24.6067 C   0  0  0  0  0  0  0  0  0  0  0  0
  -26.6108  -32.1467   26.8169 C   0  0  0  0  0  0  0  0  0  0  0  0
  -24.7780  -33.6145   25.9750 C   0  0  0  0  0  0  0  0  0  0  0  0
  -22.4145  -27.2254   25.2930 C   0  0  0  0  0  0  0  0  0  0  0  0
  -28.0929  -17.7346   17.0262 C   0  0  0  0  0  0  0  0  0  0  0  0
  -28.4153  -22.8569   19.0436 C   0  0  0  0  0  0  0  0  0  0  0  0
  -27.8811  -25.3616   19.1684 C   0  0  0  0  0  0  0  0  0  1  0  0
  -25.1614  -31.3638   24.8889 C   0  0  1  0  0  0  0  0  0  0  0  0
  -23.1883  -28.8949   26.9820 C   0  0  2  0  0  0  0  0  0  0  0  0
  -25.8525  -32.5908   25.5480 C   0  0  0  0  0  0  0  0  0  0  0  0
  -23.9928  -12.5320   20.4690 N   0  0  0  0  0  0  0  0  0  0  0  0
  -24.9771  -13.4440   20.5434 N   0  0  0  0  0  0  0  0  0  0  0  0
  -24.8418  -31.0918   22.4501 N   0  0  0  0  0  0  0  0  0  0  0  0
  -24.7979  -16.4425   18.1800 N   0  0  0  0  0  0  0  0  0  0  0  0
  -27.2339  -13.7381   21.2000 N   0  0  0  0  0  0  0  0  0  0  0  0
  -26.4399   -9.3883   22.1190 N   0  0  0  0  0  0  0  0  0  0  0  0
  -29.1932  -21.8265   19.6826 N   0  0  0  0  0  0  0  0  0  0  0  0
  -24.7117  -33.5489   19.8664 N   0  0  0  0  0  0  0  0  0  0  0  0
  -24.1937  -30.6901   25.7481 N   0  0  0  0  0  0  0  0  0  0  0  0
  -27.0280  -16.9030   17.5413 N   0  0  0  0  0  0  0  0  0  0  0  0
  -22.8396  -27.4748   26.6944 N   0  3  0  0  0  0  0  0  0  0  0  0
  -28.0169  -11.0510   22.2016 O   0  0  0  0  0  0  0  0  0  0  0  0
  -29.4917  -15.7076   18.9344 O   0  0  0  0  0  0  0  0  0  0  0  0
  -26.4857  -32.3856   20.8267 O   0  0  0  0  0  0  0  0  0  0  0  0
  -29.3821  -24.3017   20.7164 O   0  0  0  0  0  0  0  0  0  0  0  0
  -23.4987  -32.5474   23.6803 O   0  0  0  0  0  0  0  0  0  0  0  0
  -25.2133  -28.6081   25.6958 O   0  0  0  0  0  0  0  0  0  0  0  0
  -25.4068  -18.5096   17.3232 O   0  0  0  0  0  0  0  0  0  0  0  0
  -21.6495   -6.6681   21.2893 O   0  0  0  0  0  0  0  0  0  0  0  0
  -28.1541  -26.5492   19.9110 O   0  0  0  0  0  0  0  0  0  1  0  0
  -22.0276   -3.7529   25.9543 F   0  0  0  0  0  0  0  0  0  0  0  0
  -24.0862   -5.6947   22.1599 F   0  0  0  0  0  0  0  0  0  0  0  0
  -30.1507  -19.3230   20.0784 S   0  0  0  0  0  0  0  0  0  0  0  0
  1  2  1  0  0  0  0
  1  5  2  0  0  0  0
  2  6  2  0  0  0  0
  3  8  2  0  0  0  0
  3 16  1  0  0  0  0
  4  9  1  0  0  0  0
  4 16  2  0  0  0  0
  5 18  1  0  0  0  0
  6 20  1  0  0  0  0
  7 10  2  0  0  0  0
  7 19  1  0  0  0  0
  8 23  1  0  0  0  0
  9 23  2  0  0  0  0
 10 24  1  0  0  0  0
 11 12  2  0  0  0  0
 11 25  1  0  0  0  0
 12 26  1  0  0  0  0
 13 21  1  0  0  0  0
 13 24  2  0  0  0  0
 14 22  1  0  0  0  0
 14 31  2  0  0  0  0
 15 26  2  0  0  0  0
 15 27  1  0  0  0  0
 16 28  1  0  0  0  0
 17 28  1  0  0  0  0
 17 30  2  0  0  0  0
 17 32  1  0  0  0  0
 18 20  2  0  0  0  0
 18 39  1  0  0  0  0
 19 21  2  0  0  0  0
 19 40  1  0  0  0  0
 20 48  1  0  0  0  0
 21 41  1  0  0  0  0
 22 29  2  0  0  0  0
 22 57  1  0  0  0  0
 23 81  1  0  0  0  0
 24 82  1  0  0  0  0
 25 27  2  0  0  0  0
 25 81  1  0  0  0  0
 26 83  1  0  0  0  0
 27 84  1  0  0  0  0
 28 63  2  0  0  0  0
 29 33  1  0  0  0  0
 29 85  1  0  0  0  0
 30 64  1  0  0  0  0
 30 67  1  0  0  0  0
 31 69  1  0  0  0  0
 31 85  1  0  0  0  0
 32 68  1  0  0  0  0
 32 74  2  0  0  0  0
 33 51  1  0  0  0  0
 33 75  2  0  0  0  0
 34 49  1  0  0  0  0
 34 70  1  0  0  0  0
 34 76  2  0  0  0  0
 35 58  1  0  0  0  0
 35 59  1  0  0  0  0
 35 77  2  0  0  0  0
 36 60  1  0  0  0  0
 36 65  1  0  0  0  0
 36 78  2  0  0  0  0
 37 61  1  0  0  0  0
 37 71  1  0  0  0  0
 37 79  2  0  0  0  0
 38 66  1  0  0  0  0
 38 72  1  0  0  0  0
 38 80  2  0  0  0  0
 39 42  1  0  0  0  0
 40 49  1  0  0  0  0
 41 65  1  0  0  0  0
 42 44  1  0  0  0  0
 43 45  1  0  0  0  0
 43 46  1  0  0  0  0
 44 48  1  0  0  0  0
 45 50  1  0  0  0  0
 46 66  1  0  0  0  0
 47 50  1  0  0  0  0
 47 66  1  0  0  0  0
 48 70  1  0  0  0  0
 49 65  1  0  0  0  0
 50 64  1  0  0  0  0
 52 61  1  0  0  0  0
 53 62  1  0  0  0  0
 54 62  1  0  0  0  0
 55 62  1  0  0  0  0
 56 73  1  0  0  0  0
 57 72  1  0  0  0  0
 58 69  1  0  0  0  0
 59 82  1  0  0  0  0
 60 62  1  0  0  0  0
 60 71  1  0  0  0  0
 61 73  1  0  0  0  0
 63 64  1  0  0  0  0
M  CHG  1  73   1
M  ISO  4  38 100  59 101  72 100  82 101
M  END
> <Batch ID>
0146

> <Smiles>
CNC(C)C(=O)NC(C(=O)N1Cc2cc([101O:1][101CH2:1]C(=O)CNc3cc(C[100NH:0][100C:0](=O)N4CCCC(n5nc(-c6ccc(Oc7ccc(F)cc7F)cc6)c(C(N)=O)c5N)C4)c(C(C)=O)s3)ccc2CC1C(=O)NC1CCCc2ccccc21)C(C)(C)C

> <Shape>
0.274

> <Color>
0.147

> <Negative vol penalty>
0.000

$$$$
