
  -OEChem-04052303133D

 84 93  0     1  0  0  0  0  0999 V2000
  -27.8307  -24.4896   17.0494 C   0  0  0  0  0  0  0  0  0  0  0  0
  -26.6531  -24.7567   17.7402 C   0  0  0  0  0  0  0  0  0  0  0  0
  -23.1843  -12.4012   20.8344 C   0  0  0  0  0  0  0  0  0  0  0  0
  -24.2436  -12.1542   18.6771 C   0  0  0  0  0  0  0  0  0  0  0  0
  -29.0467  -24.9677   17.5358 C   0  0  0  0  0  0  0  0  0  0  0  0
  -26.6909  -25.5013   18.9185 C   0  0  0  0  0  0  0  0  0  0  0  0
  -23.0543  -29.0203   19.1107 C   0  0  0  0  0  0  0  0  0  0  0  0
  -22.1067  -11.6332   20.3933 C   0  0  0  0  0  0  0  0  0  0  0  0
  -23.1660  -11.3862   18.2359 C   0  0  0  0  0  0  0  0  0  0  0  0
  -21.7679  -28.5896   19.4326 C   0  0  0  0  0  0  0  0  0  0  0  0
  -19.2446   -9.4359   19.9520 C   0  0  0  0  0  0  0  0  0  0  0  0
  -18.7608   -8.4457   20.8070 C   0  0  0  0  0  0  0  0  0  0  0  0
  -22.0941  -29.3329   21.7042 C   0  0  0  0  0  0  0  0  0  0  0  0
  -23.0062  -24.1025   22.5600 C   0  0  0  0  0  0  0  0  0  0  0  0
  -20.9227   -7.3673   20.7813 C   0  0  0  0  0  0  0  0  0  0  0  0
  -24.2527  -12.6618   19.9763 C   0  0  0  0  0  0  0  0  0  0  0  0
  -26.5383  -12.9944   21.0595 C   0  0  0  0  0  0  0  0  0  0  0  0
  -29.0983  -25.7267   18.7156 C   0  0  0  0  0  0  0  0  0  0  0  0
  -23.8756  -29.6015   20.0874 C   0  0  0  0  0  0  0  0  0  0  0  0
  -27.9089  -25.9889   19.4220 C   0  0  0  0  0  0  0  0  0  0  0  0
  -23.3896  -29.7725   21.3915 C   0  0  0  0  0  0  0  0  0  0  0  0
  -24.0662  -23.1500   22.5136 C   0  0  0  0  0  0  0  0  0  0  0  0
  -22.0976  -11.1257   19.0941 C   0  0  0  0  0  0  0  0  0  0  0  0
  -21.2887  -28.7433   20.7302 C   0  0  0  0  0  0  0  0  0  0  0  0
  -20.5674   -9.3918   19.5116 C   0  0  0  0  0  0  0  0  0  0  0  0
  -19.5999   -7.4114   21.2217 C   0  0  0  0  0  0  0  0  0  0  0  0
  -21.4064   -8.3575   19.9262 C   0  0  0  0  0  0  0  0  0  0  0  0
  -25.3659  -13.4555   20.4312 C   0  0  0  0  0  0  0  0  0  0  0  0
  -24.3725  -22.7939   21.2135 C   0  0  0  0  0  0  0  0  0  0  0  0
  -27.2742  -14.1310   21.2897 C   0  0  0  0  0  0  0  0  0  0  0  0
  -22.5549  -24.4360   21.3009 C   0  0  0  0  0  0  0  0  0  0  0  0
  -26.9274  -11.6581   21.4040 C   0  0  0  0  0  0  0  0  0  0  0  0
  -26.6744  -28.8572   21.3973 C   0  0  0  0  0  0  0  0  0  0  0  0
  -26.3324  -31.7480   22.8287 C   0  0  0  0  0  0  0  0  0  0  0  0
  -24.2393  -34.2251   23.8914 C   0  0  0  0  0  0  0  0  0  0  0  0
  -20.7209  -26.1147   21.6975 C   0  0  0  0  0  0  0  0  0  0  0  0
  -25.8786  -19.6931   22.1296 C   0  0  0  0  0  0  0  0  0  0  0  0
  -30.4419  -26.1820   19.2277 C   0  0  0  0  0  0  0  0  0  0  0  0
  -25.2509  -30.0852   19.7175 C   0  0  0  0  0  0  0  0  0  0  0  0
  -24.7927  -22.5528   23.6777 C   0  0  0  0  0  0  0  0  0  0  0  0
  -24.2241  -30.4089   22.4717 C   0  0  0  0  0  0  0  0  0  0  0  0
  -25.4441  -21.8259   20.8090 C   0  0  0  0  0  0  0  0  0  0  0  0
  -30.3509  -27.2812   20.2830 C   0  0  0  0  0  0  0  0  0  0  0  0
  -28.0224  -18.5280   19.5784 C   0  0  0  0  0  0  0  0  0  0  0  0
  -29.2958  -26.9322   21.3279 C   0  0  0  0  0  0  0  0  0  0  0  0
  -27.6911  -17.0365   19.5624 C   0  0  0  0  0  0  0  0  0  0  0  0
  -26.1082  -21.9085   23.2199 C   0  0  0  0  0  0  0  0  0  0  0  0
  -26.7754  -19.3920   19.7757 C   0  0  0  0  0  0  0  0  0  0  0  0
  -25.6417  -17.5303   20.9472 C   0  0  0  0  0  0  0  0  0  0  0  0
  -27.9061  -26.8141   20.6905 C   0  0  1  0  0  0  0  0  0  0  0  0
  -26.1881  -30.1950   20.9163 C   0  0  1  0  0  0  0  0  0  0  0  0
  -26.8848  -16.6381   20.8108 C   0  0  1  0  0  0  0  0  0  0  0  0
  -24.2490  -36.4459   25.0600 C   0  0  0  0  0  0  0  0  0  0  0  0
  -18.2991  -26.6654   21.2604 C   0  0  0  0  0  0  0  0  0  0  0  0
  -26.7745  -30.3385   25.4985 C   0  0  0  0  0  0  0  0  0  0  0  0
  -25.8463  -32.3632   26.6418 C   0  0  0  0  0  0  0  0  0  0  0  0
  -27.9288  -32.5464   25.2807 C   0  0  0  0  0  0  0  0  0  0  0  0
  -23.0705  -35.5963   21.5435 C   0  0  0  0  0  0  0  0  0  0  0  0
  -25.7078  -32.2379   24.1127 C   0  0  1  0  0  0  0  0  0  0  0  0
  -24.2924  -35.7323   23.7177 C   0  0  2  0  0  0  0  0  0  0  0  0
  -19.7427  -26.9413   20.8668 C   0  0  1  0  0  0  0  0  0  1  0  0
  -26.5491  -31.8577   25.3638 C   0  0  0  0  0  0  0  0  0  0  0  0
  -25.3533  -14.7817   20.2727 N   0  0  0  0  0  0  0  0  0  0  0  0
  -26.5268  -15.1636   20.8046 N   0  0  0  0  0  0  0  0  0  0  0  0
  -25.5644  -30.8599   22.0623 N   0  0  0  0  0  0  0  0  0  0  0  0
  -25.9060  -21.0919   22.0101 N   0  0  0  0  0  0  0  0  0  0  0  0
  -26.0111  -18.9476   20.9491 N   0  0  0  0  0  0  0  0  0  0  0  0
  -28.4812  -14.3379   21.8579 N   0  0  0  0  0  0  0  0  0  0  0  0
  -26.0529  -10.6072   21.0958 N   0  0  0  0  0  0  0  0  0  0  0  0
  -21.5699  -25.2973   20.9041 N   0  0  0  0  0  0  0  0  0  0  0  0
  -27.3520  -28.1272   20.4394 N   0  0  0  0  0  0  0  0  0  0  0  0
  -25.5014  -33.6724   23.9449 N   0  0  0  0  0  0  0  0  0  0  0  0
  -23.1384  -36.2003   22.8991 N   0  3  0  0  0  0  0  0  0  0  0  0
  -28.0109  -11.4054   21.9833 O   0  0  0  0  0  0  0  0  0  0  0  0
  -26.4528  -28.5134   22.5524 O   0  0  0  0  0  0  0  0  0  0  0  0
  -27.4572  -32.1444   22.5136 O   0  0  0  0  0  0  0  0  0  0  0  0
  -23.1838  -33.6011   23.9753 O   0  0  0  0  0  0  0  0  0  0  0  0
  -20.7427  -26.1962   22.9223 O   0  0  0  0  0  0  0  0  0  0  0  0
  -25.7346  -19.1420   23.2282 O   0  0  0  0  0  0  0  0  0  0  0  0
  -21.0464  -10.3760   18.6633 O   0  0  0  0  0  0  0  0  0  0  0  0
  -20.0236  -28.3198   21.0499 O   0  0  0  0  0  0  0  0  0  1  0  0
  -19.1356   -6.4614   22.0440 F   0  0  0  0  0  0  0  0  0  0  0  0
  -22.6785   -8.3105   19.5074 F   0  0  0  0  0  0  0  0  0  0  0  0
  -23.4058  -23.6034   20.0692 S   0  0  0  0  0  0  0  0  0  0  0  0
  1  2  1  0  0  0  0
  1  5  2  0  0  0  0
  2  6  2  0  0  0  0
  3  8  2  0  0  0  0
  3 16  1  0  0  0  0
  4  9  1  0  0  0  0
  4 16  2  0  0  0  0
  5 18  1  0  0  0  0
  6 20  1  0  0  0  0
  7 10  2  0  0  0  0
  7 19  1  0  0  0  0
  8 23  1  0  0  0  0
  9 23  2  0  0  0  0
 10 24  1  0  0  0  0
 11 12  2  0  0  0  0
 11 25  1  0  0  0  0
 12 26  1  0  0  0  0
 13 21  1  0  0  0  0
 13 24  2  0  0  0  0
 14 22  1  0  0  0  0
 14 31  2  0  0  0  0
 15 26  2  0  0  0  0
 15 27  1  0  0  0  0
 16 28  1  0  0  0  0
 17 28  1  0  0  0  0
 17 30  2  0  0  0  0
 17 32  1  0  0  0  0
 18 20  2  0  0  0  0
 18 38  1  0  0  0  0
 19 21  2  0  0  0  0
 19 39  1  0  0  0  0
 20 50  1  0  0  0  0
 21 41  1  0  0  0  0
 22 29  2  0  0  0  0
 22 40  1  0  0  0  0
 23 80  1  0  0  0  0
 24 81  1  0  0  0  0
 25 27  2  0  0  0  0
 25 80  1  0  0  0  0
 26 82  1  0  0  0  0
 27 83  1  0  0  0  0
 28 63  2  0  0  0  0
 29 42  1  0  0  0  0
 29 84  1  0  0  0  0
 30 64  1  0  0  0  0
 30 68  1  0  0  0  0
 31 70  1  0  0  0  0
 31 84  1  0  0  0  0
 32 69  1  0  0  0  0
 32 74  2  0  0  0  0
 33 51  1  0  0  0  0
 33 71  1  0  0  0  0
 33 75  2  0  0  0  0
 34 59  1  0  0  0  0
 34 65  1  0  0  0  0
 34 76  2  0  0  0  0
 35 60  1  0  0  0  0
 35 72  1  0  0  0  0
 35 77  2  0  0  0  0
 36 61  1  0  0  0  0
 36 70  1  0  0  0  0
 36 78  2  0  0  0  0
 37 66  1  0  0  0  0
 37 67  1  0  0  0  0
 37 79  2  0  0  0  0
 38 43  1  0  0  0  0
 39 51  1  0  0  0  0
 40 47  1  0  0  0  0
 41 65  1  0  0  0  0
 42 66  1  0  0  0  0
 43 45  1  0  0  0  0
 44 46  1  0  0  0  0
 44 48  1  0  0  0  0
 45 50  1  0  0  0  0
 46 52  1  0  0  0  0
 47 66  1  0  0  0  0
 48 67  1  0  0  0  0
 49 52  1  0  0  0  0
 49 67  1  0  0  0  0
 50 71  1  0  0  0  0
 51 65  1  0  0  0  0
 52 64  1  0  0  0  0
 53 60  1  0  0  0  0
 54 61  1  0  0  0  0
 55 62  1  0  0  0  0
 56 62  1  0  0  0  0
 57 62  1  0  0  0  0
 58 73  1  0  0  0  0
 59 62  1  0  0  0  0
 59 72  1  0  0  0  0
 60 73  1  0  0  0  0
 61 81  1  0  0  0  0
 63 64  1  0  0  0  0
M  CHG  1  73   1
M  ISO  4  37 100  61 101  66 100  81 101
M  END
> <Batch ID>
0147

> <Smiles>
CNC(C)C(=O)NC(C(=O)N1Cc2cc([101O:1][101CH:1](C)C(=O)Nc3cc4c(s3)C[100N:0]([100C:0](=O)N3CCCC(n5nc(-c6ccc(Oc7ccc(F)cc7F)cc6)c(C(N)=O)c5N)C3)CC4)ccc2CC1C(=O)NC1CCCc2ccccc21)C(C)(C)C

> <Shape>
0.300

> <Color>
0.070

> <Negative vol penalty>
0.000

$$$$

  -OEChem-04052303133D

 82 91  0     1  0  0  0  0  0999 V2000
  -29.1941  -32.2402   26.2199 C   0  0  0  0  0  0  0  0  0  0  0  0
  -28.9592  -31.0697   25.5056 C   0  0  0  0  0  0  0  0  0  0  0  0
  -22.9128  -11.8648   23.0504 C   0  0  0  0  0  0  0  0  0  0  0  0
  -22.3248  -13.9777   22.0372 C   0  0  0  0  0  0  0  0  0  0  0  0
  -28.1229  -33.0375   26.6211 C   0  0  0  0  0  0  0  0  0  0  0  0
  -27.6529  -30.6953   25.1929 C   0  0  0  0  0  0  0  0  0  0  0  0
  -27.1720  -29.1434   20.3965 C   0  0  0  0  0  0  0  0  0  0  0  0
  -21.8131  -11.9671   23.9022 C   0  0  0  0  0  0  0  0  0  0  0  0
  -21.2250  -14.0801   22.8890 C   0  0  0  0  0  0  0  0  0  0  0  0
  -27.6057  -27.8523   20.0985 C   0  0  0  0  0  0  0  0  0  0  0  0
  -21.0068  -13.6148   26.7412 C   0  0  0  0  0  0  0  0  0  0  0  0
  -21.2027  -13.3179   28.0899 C   0  0  0  0  0  0  0  0  0  0  0  0
  -25.3252  -27.0714   20.1909 C   0  0  0  0  0  0  0  0  0  0  0  0
  -19.5625  -11.5505   27.9393 C   0  0  0  0  0  0  0  0  0  0  0  0
  -30.3767  -19.1589   19.5808 C   0  0  0  0  0  0  0  0  0  0  0  0
  -23.1688  -12.8701   22.1179 C   0  0  0  0  0  0  0  0  0  0  0  0
  -24.3420  -12.1652   19.9652 C   0  0  0  0  0  0  0  0  0  0  0  0
  -26.8034  -32.6776   26.3048 C   0  0  0  0  0  0  0  0  0  0  0  0
  -25.8104  -29.4065   20.6051 C   0  0  0  0  0  0  0  0  0  0  0  0
  -26.5630  -31.4878   25.5914 C   0  0  0  0  0  0  0  0  0  0  0  0
  -24.8765  -28.3671   20.4889 C   0  0  0  0  0  0  0  0  0  0  0  0
  -20.9691  -13.0748   23.8215 C   0  0  0  0  0  0  0  0  0  0  0  0
  -26.6826  -26.8155   19.9985 C   0  0  0  0  0  0  0  0  0  0  0  0
  -20.0886  -12.8795   25.9915 C   0  0  0  0  0  0  0  0  0  0  0  0
  -20.4806  -12.2858   28.6890 C   0  0  0  0  0  0  0  0  0  0  0  0
  -19.3665  -11.8473   26.5905 C   0  0  0  0  0  0  0  0  0  0  0  0
  -24.3050  -12.7652   21.2381 C   0  0  0  0  0  0  0  0  0  0  0  0
  -25.6402  -12.3269   19.5469 C   0  0  0  0  0  0  0  0  0  0  0  0
  -29.2183  -18.4301   19.7507 C   0  0  0  0  0  0  0  0  0  0  0  0
  -28.9639  -20.5688   18.6719 C   0  0  0  0  0  0  0  0  0  0  0  0
  -23.2962  -11.5196   19.2267 C   0  0  0  0  0  0  0  0  0  0  0  0
  -24.0809  -30.4752   23.0485 C   0  0  0  0  0  0  0  0  0  0  0  0
  -21.6848  -30.4414   20.8621 C   0  0  0  0  0  0  0  0  0  0  0  0
  -20.4360  -29.1694   17.9519 C   0  0  0  0  0  0  0  0  0  0  0  0
  -29.9001  -16.2934   20.8979 C   0  0  0  0  0  0  0  0  0  0  0  0
  -25.6751  -33.5468   26.8009 C   0  0  0  0  0  0  0  0  0  0  0  0
  -25.3558  -30.8097   20.8994 C   0  0  0  0  0  0  0  0  0  0  0  0
  -23.4014  -28.6010   20.6837 C   0  0  0  0  0  0  0  0  0  0  0  0
  -24.3442  -33.2732   26.1051 C   0  0  0  0  0  0  0  0  0  0  0  0
  -30.0965  -12.7556   21.2474 C   0  0  0  0  0  0  0  0  0  0  0  0
  -24.0789  -31.7729   26.0314 C   0  0  0  0  0  0  0  0  0  0  0  0
  -28.6375  -12.3014   21.1628 C   0  0  0  0  0  0  0  0  0  0  0  0
  -28.1040  -22.8991   18.9826 C   0  0  0  0  0  0  0  0  0  0  0  0
  -30.2346  -14.0851   21.9871 C   0  0  0  0  0  0  0  0  0  0  0  0
  -27.9290  -14.7165   21.3914 C   0  0  0  0  0  0  0  0  0  0  0  0
  -29.4395  -23.8804   17.2793 C   0  0  0  0  0  0  0  0  0  0  0  0
  -25.1617  -31.0608   25.2117 C   0  0  1  0  0  0  0  0  0  0  0  0
  -28.4256  -21.7669   18.0040 C   0  0  1  0  0  0  0  0  0  0  0  0
  -24.0015  -30.8646   21.5994 C   0  0  1  0  0  0  0  0  0  0  0  0
  -28.1942  -24.1451   18.1087 C   0  0  2  0  0  0  0  0  0  0  0  0
  -27.7327  -13.4142   20.5983 C   0  0  2  0  0  0  0  0  0  0  0  0
  -18.4385  -29.3066   16.4391 C   0  0  0  0  0  0  0  0  0  0  0  0
  -20.0799  -28.7521   22.8320 C   0  0  0  0  0  0  0  0  0  0  0  0
  -18.5481  -28.1376   20.9494 C   0  0  0  0  0  0  0  0  0  0  0  0
  -18.7589  -30.5205   21.6563 C   0  0  0  0  0  0  0  0  0  0  0  0
  -22.0764  -30.1232   15.6808 C   0  0  0  0  0  0  0  0  0  0  0  0
  -28.2763  -25.4296   18.9054 C   0  0  0  0  0  0  0  0  0  1  0  0
  -20.6653  -29.4244   20.4089 C   0  0  1  0  0  0  0  0  0  0  0  0
  -19.8294  -29.8454   16.7355 C   0  0  2  0  0  0  0  0  0  0  0  0
  -19.5410  -29.2035   21.4598 C   0  0  0  0  0  0  0  0  0  0  0  0
  -30.2329  -20.3854   18.9620 N   0  0  0  0  0  0  0  0  0  0  0  0
  -25.4860  -13.2702   21.6046 N   0  0  0  0  0  0  0  0  0  0  0  0
  -26.2772  -12.9878   20.5557 N   0  0  0  0  0  0  0  0  0  0  0  0
  -23.0071  -29.9891   20.9759 N   0  0  0  0  0  0  0  0  0  0  0  0
  -29.3516  -15.0921   21.3945 N   0  0  0  0  0  0  0  0  0  0  0  0
  -26.2876  -11.9668   18.4184 N   0  0  0  0  0  0  0  0  0  0  0  0
  -22.0214  -11.4407   19.8038 N   0  0  0  0  0  0  0  0  0  0  0  0
  -28.9684  -17.1605   20.3281 N   0  0  0  0  0  0  0  0  0  0  0  0
  -24.9373  -31.2607   23.7961 N   0  0  0  0  0  0  0  0  0  0  0  0
  -20.1863  -29.8785   19.1078 N   0  0  0  0  0  0  0  0  0  0  0  0
  -29.3991  -22.4002   17.0267 N   0  3  0  0  0  0  0  0  0  0  0  0
  -20.6859  -29.6203   15.5369 N   0  3  0  0  0  0  0  0  0  0  0  0
  -23.4907  -11.0128   18.0959 O   0  0  0  0  0  0  0  0  0  0  0  0
  -23.4134  -29.5327   23.4583 O   0  0  0  0  0  0  0  0  0  0  0  0
  -21.3227  -31.5965   21.0993 O   0  0  0  0  0  0  0  0  0  0  0  0
  -21.0649  -28.1157   17.8840 O   0  0  0  0  0  0  0  0  0  0  0  0
  -31.1112  -16.5234   20.9479 O   0  0  0  0  0  0  0  0  0  0  0  0
  -19.8957  -13.1749   24.6524 O   0  0  0  0  0  0  0  0  0  0  0  0
  -27.1033  -25.5543   19.7084 O   0  0  0  0  0  0  0  0  0  1  0  0
  -20.6700  -11.9998   29.9838 F   0  0  0  0  0  0  0  0  0  0  0  0
  -18.4838  -11.1367   25.8751 F   0  0  0  0  0  0  0  0  0  0  0  0
  -27.8884  -19.3072   19.1153 S   0  0  0  0  0  0  0  0  0  0  0  0
  1  2  1  0  0  0  0
  1  5  2  0  0  0  0
  2  6  2  0  0  0  0
  3  8  2  0  0  0  0
  3 16  1  0  0  0  0
  4  9  1  0  0  0  0
  4 16  2  0  0  0  0
  5 18  1  0  0  0  0
  6 20  1  0  0  0  0
  7 10  2  0  0  0  0
  7 19  1  0  0  0  0
  8 22  1  0  0  0  0
  9 22  2  0  0  0  0
 10 23  1  0  0  0  0
 11 12  2  0  0  0  0
 11 24  1  0  0  0  0
 12 25  1  0  0  0  0
 13 21  1  0  0  0  0
 13 23  2  0  0  0  0
 14 25  2  0  0  0  0
 14 26  1  0  0  0  0
 15 29  2  0  0  0  0
 15 61  1  0  0  0  0
 16 27  1  0  0  0  0
 17 27  1  0  0  0  0
 17 28  2  0  0  0  0
 17 31  1  0  0  0  0
 18 20  2  0  0  0  0
 18 36  1  0  0  0  0
 19 21  2  0  0  0  0
 19 37  1  0  0  0  0
 20 47  1  0  0  0  0
 21 38  1  0  0  0  0
 22 78  1  0  0  0  0
 23 79  1  0  0  0  0
 24 26  2  0  0  0  0
 24 78  1  0  0  0  0
 25 80  1  0  0  0  0
 26 81  1  0  0  0  0
 27 62  2  0  0  0  0
 28 63  1  0  0  0  0
 28 66  1  0  0  0  0
 29 68  1  0  0  0  0
 29 82  1  0  0  0  0
 30 48  1  0  0  0  0
 30 61  2  0  0  0  0
 30 82  1  0  0  0  0
 31 67  1  0  0  0  0
 31 73  2  0  0  0  0
 32 49  1  0  0  0  0
 32 69  1  0  0  0  0
 32 74  2  0  0  0  0
 33 58  1  0  0  0  0
 33 64  1  0  0  0  0
 33 75  2  0  0  0  0
 34 59  1  0  0  0  0
 34 70  1  0  0  0  0
 34 76  2  0  0  0  0
 35 65  1  0  0  0  0
 35 68  1  0  0  0  0
 35 77  2  0  0  0  0
 36 39  1  0  0  0  0
 37 49  1  0  0  0  0
 38 64  1  0  0  0  0
 39 41  1  0  0  0  0
 40 42  1  0  0  0  0
 40 44  1  0  0  0  0
 41 47  1  0  0  0  0
 42 51  1  0  0  0  0
 43 48  1  0  0  0  0
 43 50  1  0  0  0  0
 44 65  1  0  0  0  0
 45 51  1  0  0  0  0
 45 65  1  0  0  0  0
 46 50  1  0  0  0  0
 46 71  1  0  0  0  0
 47 69  1  0  0  0  0
 48 71  1  0  0  0  0
 49 64  1  0  0  0  0
 50 57  1  0  0  0  0
 51 63  1  0  0  0  0
 52 59  1  0  0  0  0
 53 60  1  0  0  0  0
 54 60  1  0  0  0  0
 55 60  1  0  0  0  0
 56 72  1  0  0  0  0
 57 79  1  0  0  0  0
 58 60  1  0  0  0  0
 58 70  1  0  0  0  0
 59 72  1  0  0  0  0
 62 63  1  0  0  0  0
M  CHG  2  71   1  72   1
M  ISO  4  35 100  57 101  68 100  79 101
M  END
> <Batch ID>
0147

> <Smiles>
CNC(C)C(=O)NC(C(=O)N1Cc2cc([101O:1][101CH2:1]C3CNC(c4ncc([100NH:0][100C:0](=O)N5CCCC(n6nc(-c7ccc(Oc8ccc(F)cc8F)cc7)c(C(N)=O)c6N)C5)s4)C3)ccc2CC1C(=O)NC1CCCc2ccccc21)C(C)(C)C

> <Shape>
0.289

> <Color>
0.065

> <Negative vol penalty>
0.000

$$$$

  -OEChem-04052303133D

 85 94  0     1  0  0  0  0  0999 V2000
  -22.3680   -7.8927   20.6681 C   0  0  0  0  0  0  0  0  0  0  0  0
  -22.0252   -9.2392   20.5972 C   0  0  0  0  0  0  0  0  0  0  0  0
  -28.0365  -29.3568   21.2543 C   0  0  0  0  0  0  0  0  0  0  0  0
  -26.5469  -27.5172   20.7703 C   0  0  0  0  0  0  0  0  0  0  0  0
  -23.5721   -7.5113   21.2584 C   0  0  0  0  0  0  0  0  0  0  0  0
  -22.8861  -10.2049   21.1175 C   0  0  0  0  0  0  0  0  0  0  0  0
  -23.8462  -15.8438   18.9295 C   0  0  0  0  0  0  0  0  0  0  0  0
  -29.1151  -28.4732   21.2934 C   0  0  0  0  0  0  0  0  0  0  0  0
  -27.6255  -26.6336   20.8093 C   0  0  0  0  0  0  0  0  0  0  0  0
  -23.3398  -17.0904   19.2946 C   0  0  0  0  0  0  0  0  0  0  0  0
  -30.1573  -25.7046   18.7728 C   0  0  0  0  0  0  0  0  0  0  0  0
  -30.2485  -24.7505   17.7595 C   0  0  0  0  0  0  0  0  0  0  0  0
  -19.9978  -24.9360   22.5697 C   0  0  0  0  0  0  0  0  0  0  0  0
  -25.2956  -17.4807   20.6516 C   0  0  0  0  0  0  0  0  0  0  0  0
  -30.1310  -22.9883   19.4081 C   0  0  0  0  0  0  0  0  0  0  0  0
  -18.0593  -23.7315   23.2389 C   0  0  0  0  0  0  0  0  0  0  0  0
  -18.1885  -25.9765   23.7099 C   0  0  0  0  0  0  0  0  0  0  0  0
  -26.7524  -28.8788   20.9928 C   0  0  0  0  0  0  0  0  0  0  0  0
  -25.4697  -30.8906   20.0901 C   0  0  0  0  0  0  0  0  0  0  0  0
  -24.4526   -8.4735   21.7776 C   0  0  0  0  0  0  0  0  0  0  0  0
  -25.0781  -15.4009   19.4322 C   0  0  0  0  0  0  0  0  0  0  0  0
  -24.1025   -9.8359   21.7165 C   0  0  0  0  0  0  0  0  0  0  0  0
  -19.3021  -23.7335   22.6263 C   0  0  0  0  0  0  0  0  0  0  0  0
  -25.8166  -16.2291   20.2894 C   0  0  0  0  0  0  0  0  0  0  0  0
  -19.4375  -26.0836   23.1196 C   0  0  0  0  0  0  0  0  0  0  0  0
  -28.9096  -27.1116   21.0709 C   0  0  0  0  0  0  0  0  0  0  0  0
  -24.0632  -17.9078   20.1580 C   0  0  0  0  0  0  0  0  0  0  0  0
  -30.0531  -25.3006   20.1039 C   0  0  0  0  0  0  0  0  0  0  0  0
  -30.2353  -23.3923   18.0771 C   0  0  0  0  0  0  0  0  0  0  0  0
  -30.0399  -23.9425   20.4215 C   0  0  0  0  0  0  0  0  0  0  0  0
  -25.6378  -29.7910   20.9528 C   0  0  0  0  0  0  0  0  0  0  0  0
  -24.2583  -31.4280   20.4507 C   0  0  0  0  0  0  0  0  0  0  0  0
  -26.3316  -31.3823   19.0551 C   0  0  0  0  0  0  0  0  0  0  0  0
  -26.0166  -12.9602   21.2394 C   0  0  0  0  0  0  0  0  0  0  0  0
  -28.9769  -14.0901   20.5451 C   0  0  0  0  0  0  0  0  0  0  0  0
  -30.9239  -16.7329   19.6116 C   0  0  0  0  0  0  0  0  0  0  0  0
  -19.6924  -28.5533   23.5836 C   0  0  0  0  0  0  0  0  0  0  0  0
  -25.7211   -8.0097   22.4487 C   0  0  0  0  0  0  0  0  0  0  0  0
  -25.6230  -14.0648   19.0076 C   0  0  0  0  0  0  0  0  0  0  0  0
  -27.1537  -15.8088   20.8407 C   0  0  0  0  0  0  0  0  0  0  0  0
  -26.7502   -9.1208   22.6402 C   0  0  0  0  0  0  0  0  0  0  0  0
  -21.5113  -31.6552   24.4371 C   0  0  0  0  0  0  0  0  0  0  0  0
  -26.0862  -10.3713   23.2078 C   0  0  0  0  0  0  0  0  0  0  0  0
  -21.2332  -22.0958   22.6673 C   0  0  0  0  0  0  0  0  0  0  0  0
  -22.6370  -31.7828   23.4097 C   0  0  0  0  0  0  0  0  0  0  0  0
  -21.8230  -20.8272   22.0469 C   0  0  0  0  0  0  0  0  0  0  0  0
  -20.2824  -30.9465   23.8843 C   0  0  0  0  0  0  0  0  0  0  0  0
  -21.8951  -29.4643   22.6704 C   0  0  0  0  0  0  0  0  0  0  0  0
  -20.5612  -21.2893   19.9124 C   0  0  0  0  0  0  0  0  0  0  0  0
  -25.0213  -10.9147   22.2475 C   0  0  1  0  0  0  0  0  0  0  0  0
  -19.8846  -22.4670   22.0370 C   0  0  2  0  0  0  0  0  0  0  0  0
  -26.6472  -13.4988   19.9864 C   0  0  1  0  0  0  0  0  0  0  0  0
  -22.4878  -30.8111   22.2272 C   0  0  2  0  0  0  0  0  0  0  0  0
  -21.9232  -20.8922   20.5065 C   0  0  1  0  0  0  0  0  0  0  0  0
  -23.0211  -21.8857   20.0774 C   0  0  0  0  0  0  0  0  0  0  0  0
  -33.3125  -17.3589   19.1640 C   0  0  0  0  0  0  0  0  0  0  0  0
  -29.5207  -14.1521   23.5468 C   0  0  0  0  0  0  0  0  0  0  0  0
  -31.4840  -15.6369   23.0900 C   0  0  0  0  0  0  0  0  0  0  0  0
  -31.4284  -13.3237   22.1579 C   0  0  0  0  0  0  0  0  0  0  0  0
  -30.3326  -17.4421   16.7998 C   0  0  0  0  0  0  0  0  0  0  0  0
  -22.3072  -19.5007   19.9705 C   0  0  0  0  0  0  0  0  0  1  0  0
  -29.9133  -15.0929   21.1748 C   0  0  1  0  0  0  0  0  0  0  0  0
  -32.0092  -16.8620   18.5580 C   0  0  2  0  0  0  0  0  0  0  0  0
  -30.5605  -14.5588   22.4837 C   0  0  0  0  0  0  0  0  0  0  0  0
  -17.4825  -24.8259   23.7841 N   0  0  0  0  0  0  0  0  0  0  0  0
  -24.6150  -29.6377   21.7981 N   0  0  0  0  0  0  0  0  0  0  0  0
  -23.7926  -30.6481   21.4682 N   0  0  0  0  0  0  0  0  0  0  0  0
  -27.6411  -14.4909   20.4011 N   0  0  0  0  0  0  0  0  0  0  0  0
  -20.6137  -29.6099   23.3821 N   0  0  0  0  0  0  0  0  0  0  0  0
  -23.5566  -32.4868   19.9937 N   0  0  0  0  0  0  0  0  0  0  0  0
  -26.1670  -30.8837   17.7556 N   0  0  0  0  0  0  0  0  0  0  0  0
  -20.1221  -27.3236   23.0784 N   0  0  0  0  0  0  0  0  0  0  0  0
  -25.6442  -11.6321   21.1558 N   0  0  0  0  0  0  0  0  0  0  0  0
  -30.8738  -15.4603   20.1399 N   0  0  0  0  0  0  0  0  0  0  0  0
  -20.0569  -22.5482   20.5416 N   0  3  0  0  0  0  0  0  0  0  0  0
  -31.5891  -17.8199   17.4964 N   0  3  0  0  0  0  0  0  0  0  0  0
  -27.2321  -32.2263   19.2794 O   0  0  0  0  0  0  0  0  0  0  0  0
  -25.8794  -13.6948   22.2106 O   0  0  0  0  0  0  0  0  0  0  0  0
  -29.4161  -12.9942   20.1875 O   0  0  0  0  0  0  0  0  0  0  0  0
  -30.1961  -17.6685   19.9363 O   0  0  0  0  0  0  0  0  0  0  0  0
  -18.6221  -28.7304   24.1694 O   0  0  0  0  0  0  0  0  0  0  0  0
  -29.9618  -26.2491   21.1087 O   0  0  0  0  0  0  0  0  0  0  0  0
  -23.5709  -19.1248   20.5165 O   0  0  0  0  0  0  0  0  0  1  0  0
  -30.3213  -22.4762   17.1038 F   0  0  0  0  0  0  0  0  0  0  0  0
  -29.9387  -23.5483   21.6983 F   0  0  0  0  0  0  0  0  0  0  0  0
  1  2  1  0  0  0  0
  1  5  2  0  0  0  0
  2  6  2  0  0  0  0
  3  8  2  0  0  0  0
  3 18  1  0  0  0  0
  4  9  1  0  0  0  0
  4 18  2  0  0  0  0
  5 20  1  0  0  0  0
  6 22  1  0  0  0  0
  7 10  2  0  0  0  0
  7 21  1  0  0  0  0
  8 26  1  0  0  0  0
  9 26  2  0  0  0  0
 10 27  1  0  0  0  0
 11 12  2  0  0  0  0
 11 28  1  0  0  0  0
 12 29  1  0  0  0  0
 13 23  2  0  0  0  0
 13 25  1  0  0  0  0
 14 24  1  0  0  0  0
 14 27  2  0  0  0  0
 15 29  2  0  0  0  0
 15 30  1  0  0  0  0
 16 23  1  0  0  0  0
 16 65  2  0  0  0  0
 17 25  2  0  0  0  0
 17 65  1  0  0  0  0
 18 31  1  0  0  0  0
 19 31  1  0  0  0  0
 19 32  2  0  0  0  0
 19 33  1  0  0  0  0
 20 22  2  0  0  0  0
 20 38  1  0  0  0  0
 21 24  2  0  0  0  0
 21 39  1  0  0  0  0
 22 50  1  0  0  0  0
 23 51  1  0  0  0  0
 24 40  1  0  0  0  0
 25 72  1  0  0  0  0
 26 82  1  0  0  0  0
 27 83  1  0  0  0  0
 28 30  2  0  0  0  0
 28 82  1  0  0  0  0
 29 84  1  0  0  0  0
 30 85  1  0  0  0  0
 31 66  2  0  0  0  0
 32 67  1  0  0  0  0
 32 70  1  0  0  0  0
 33 71  1  0  0  0  0
 33 77  2  0  0  0  0
 34 52  1  0  0  0  0
 34 73  1  0  0  0  0
 34 78  2  0  0  0  0
 35 62  1  0  0  0  0
 35 68  1  0  0  0  0
 35 79  2  0  0  0  0
 36 63  1  0  0  0  0
 36 74  1  0  0  0  0
 36 80  2  0  0  0  0
 37 69  1  0  0  0  0
 37 72  1  0  0  0  0
 37 81  2  0  0  0  0
 38 41  1  0  0  0  0
 39 52  1  0  0  0  0
 40 68  1  0  0  0  0
 41 43  1  0  0  0  0
 42 45  1  0  0  0  0
 42 47  1  0  0  0  0
 43 50  1  0  0  0  0
 44 46  1  0  0  0  0
 44 51  1  0  0  0  0
 45 53  1  0  0  0  0
 46 54  1  0  0  0  0
 47 69  1  0  0  0  0
 48 53  1  0  0  0  0
 48 69  1  0  0  0  0
 49 54  1  0  0  0  0
 49 75  1  0  0  0  0
 50 73  1  0  0  0  0
 51 75  1  0  0  0  0
 52 68  1  0  0  0  0
 53 67  1  0  0  0  0
 54 55  1  0  0  0  0
 54 61  1  0  0  0  0
 56 63  1  0  0  0  0
 57 64  1  0  0  0  0
 58 64  1  0  0  0  0
 59 64  1  0  0  0  0
 60 76  1  0  0  0  0
 61 83  1  0  0  0  0
 62 64  1  0  0  0  0
 62 74  1  0  0  0  0
 63 76  1  0  0  0  0
 66 67  1  0  0  0  0
M  CHG  2  75   1  76   1
M  ISO  4  37 100  61 101  72 100  83 101
M  END
> <Batch ID>
0147

> <Smiles>
CNC(C)C(=O)NC(C(=O)N1Cc2cc([101O:1][101CH2:1]C3(C)CCC(c4cncc([100NH:0][100C:0](=O)N5CCCC(n6nc(-c7ccc(Oc8ccc(F)cc8F)cc7)c(C(N)=O)c6N)C5)c4)NC3)ccc2CC1C(=O)NC1CCCc2ccccc21)C(C)(C)C

> <Shape>
0.282

> <Color>
0.051

> <Negative vol penalty>
0.000

$$$$

  -OEChem-04052303133D

 88 98  0     1  0  0  0  0  0999 V2000
  -35.9916  -25.8191   24.8427 C   0  0  0  0  0  0  0  0  0  0  0  0
  -35.3163  -25.0042   23.9397 C   0  0  0  0  0  0  0  0  0  0  0  0
  -23.0784   -9.8642   19.9439 C   0  0  0  0  0  0  0  0  0  0  0  0
  -23.8358   -9.8772   22.2381 C   0  0  0  0  0  0  0  0  0  0  0  0
  -35.2732  -26.6303   25.7201 C   0  0  0  0  0  0  0  0  0  0  0  0
  -33.9221  -24.9992   23.9144 C   0  0  0  0  0  0  0  0  0  0  0  0
  -32.0641  -25.1828   19.2070 C   0  0  0  0  0  0  0  0  0  0  0  0
  -22.3355   -8.7108   20.1957 C   0  0  0  0  0  0  0  0  0  0  0  0
  -23.0928   -8.7238   22.4899 C   0  0  0  0  0  0  0  0  0  0  0  0
  -32.0745  -23.9983   18.4718 C   0  0  0  0  0  0  0  0  0  0  0  0
  -19.8649   -7.9239   23.0907 C   0  0  0  0  0  0  0  0  0  0  0  0
  -19.1067   -7.8859   24.2609 C   0  0  0  0  0  0  0  0  0  0  0  0
  -30.5749  -19.8774   21.4806 C   0  0  0  0  0  0  0  0  0  0  0  0
  -29.5109  -17.8953   22.3615 C   0  0  0  0  0  0  0  0  0  0  0  0
  -29.7405  -23.6671   18.9837 C   0  0  0  0  0  0  0  0  0  0  0  0
  -31.1429  -17.7045   20.5903 C   0  0  0  0  0  0  0  0  0  0  0  0
  -20.3493   -5.9515   25.0032 C   0  0  0  0  0  0  0  0  0  0  0  0
  -23.8286  -10.4474   20.9651 C   0  0  0  0  0  0  0  0  0  0  0  0
  -24.1678  -12.9726   20.8397 C   0  0  0  0  0  0  0  0  0  0  0  0
  -33.8696  -26.6425   25.6988 C   0  0  0  0  0  0  0  0  0  0  0  0
  -30.8926  -25.6135   19.8463 C   0  0  0  0  0  0  0  0  0  0  0  0
  -33.1843  -25.8103   24.7932 C   0  0  0  0  0  0  0  0  0  0  0  0
  -29.6762  -19.2804   22.3646 C   0  0  0  0  0  0  0  0  0  0  0  0
  -29.7172  -24.8587   19.7244 C   0  0  0  0  0  0  0  0  0  0  0  0
  -31.3082  -19.0895   20.5934 C   0  0  0  0  0  0  0  0  0  0  0  0
  -30.2442  -17.1074   21.4743 C   0  0  0  0  0  0  0  0  0  0  0  0
  -22.3427   -8.1406   21.4687 C   0  0  0  0  0  0  0  0  0  0  0  0
  -30.9134  -23.2388   18.3624 C   0  0  0  0  0  0  0  0  0  0  0  0
  -20.8653   -6.9757   22.8767 C   0  0  0  0  0  0  0  0  0  0  0  0
  -19.3489   -6.8997   25.2171 C   0  0  0  0  0  0  0  0  0  0  0  0
  -21.1075   -5.9895   23.8329 C   0  0  0  0  0  0  0  0  0  0  0  0
  -24.5967  -11.6385   20.7055 C   0  0  0  0  0  0  0  0  0  0  0  0
  -25.2596  -13.7224   20.4759 C   0  0  0  0  0  0  0  0  0  0  0  0
  -32.7662  -18.7588   17.3744 C   0  0  0  0  0  0  0  0  0  0  0  0
  -22.8963  -13.4880   21.2560 C   0  0  0  0  0  0  0  0  0  0  0  0
  -30.0502  -26.1452   22.8648 C   0  0  0  0  0  0  0  0  0  0  0  0
  -27.3267  -27.2592   21.4996 C   0  0  0  0  0  0  0  0  0  0  0  0
  -25.2111  -27.2416   18.8218 C   0  0  0  0  0  0  0  0  0  0  0  0
  -30.7244  -14.7743   20.6542 C   0  0  0  0  0  0  0  0  0  0  0  0
  -33.1359  -27.5008   26.6987 C   0  0  0  0  0  0  0  0  0  0  0  0
  -30.8910  -26.9072   20.6135 C   0  0  0  0  0  0  0  0  0  0  0  0
  -28.4283  -25.2878   20.3748 C   0  0  0  0  0  0  0  0  0  0  0  0
  -31.9789  -18.5350   16.1068 C   0  0  0  0  0  0  0  0  0  0  0  0
  -31.6649  -27.7168   26.3526 C   0  0  0  0  0  0  0  0  0  0  0  0
  -30.8457  -19.5487   16.2059 C   0  0  0  0  0  0  0  0  0  0  0  0
  -29.6152  -12.3539   18.2902 C   0  0  0  0  0  0  0  0  0  0  0  0
  -27.3895  -20.0160   23.3153 C   0  0  0  0  0  0  0  0  0  0  0  0
  -28.0479  -21.2454   22.7717 C   0  0  0  0  0  0  0  0  0  0  0  0
  -31.0086  -26.3959   25.9633 C   0  0  0  0  0  0  0  0  0  0  0  0
  -28.1754  -12.0617   18.7189 C   0  0  0  0  0  0  0  0  0  0  0  0
  -30.5288  -12.5864   19.4924 C   0  0  0  0  0  0  0  0  0  0  0  0
  -28.6195  -13.3120   20.8699 C   0  0  0  0  0  0  0  0  0  0  0  0
  -28.8927  -20.1211   23.3130 C   0  0  0  0  0  0  0  0  0  0  0  0
  -31.6729  -25.7957   24.7184 C   0  0  1  0  0  0  0  0  0  0  0  0
  -29.7746  -26.9857   21.6502 C   0  0  1  0  0  0  0  0  0  0  0  0
  -27.6482  -13.1350   19.6914 C   0  0  2  0  0  0  0  0  0  0  0  0
  -30.6183  -19.7009   17.7057 C   0  0  2  0  0  0  0  0  0  0  0  0
  -23.0483  -28.2246   18.0135 C   0  0  0  0  0  0  0  0  0  0  0  0
  -25.7846  -25.3574   23.3204 C   0  0  0  0  0  0  0  0  0  0  0  0
  -23.7878  -25.6740   21.8436 C   0  0  0  0  0  0  0  0  0  0  0  0
  -24.7547  -27.6221   23.0654 C   0  0  0  0  0  0  0  0  0  0  0  0
  -26.5322  -28.5500   16.5193 C   0  0  0  0  0  0  0  0  0  0  0  0
  -32.2738  -19.7324   19.6402 C   0  0  0  0  0  0  0  0  0  0  0  0
  -30.0224  -21.0543   18.0619 C   0  0  0  0  0  0  0  0  0  1  0  0
  -26.0062  -26.6491   21.0958 C   0  0  1  0  0  0  0  0  0  0  0  0
  -24.5616  -28.3717   18.0437 C   0  0  2  0  0  0  0  0  0  0  0  0
  -25.1080  -26.3163   22.3205 C   0  0  0  0  0  0  0  0  0  0  0  0
  -25.8621  -11.5430   20.2888 N   0  0  0  0  0  0  0  0  0  0  0  0
  -26.2378  -12.8267   20.1580 N   0  0  0  0  0  0  0  0  0  0  0  0
  -31.9388  -19.4527   18.2576 N   0  0  0  0  0  0  0  0  0  0  0  0
  -28.4790  -26.5569   21.1193 N   0  0  0  0  0  0  0  0  0  0  0  0
  -29.9677  -13.6187   20.3667 N   0  0  0  0  0  0  0  0  0  0  0  0
  -25.4686  -15.0539   20.4000 N   0  0  0  0  0  0  0  0  0  0  0  0
  -21.8850  -12.5785   21.5943 N   0  0  0  0  0  0  0  0  0  0  0  0
  -30.0752  -15.7005   21.4697 N   0  0  0  0  0  0  0  0  0  0  0  0
  -31.2181  -26.4764   23.5250 N   0  0  0  0  0  0  0  0  0  0  0  0
  -25.4016  -27.5765   20.1458 N   0  0  0  0  0  0  0  0  0  0  0  0
  -25.0604  -28.3873   16.6395 N   0  3  0  0  0  0  0  0  0  0  0  0
  -33.9008  -18.3466   17.5666 O   0  0  0  0  0  0  0  0  0  0  0  0
  -22.6587  -14.7185   21.3103 O   0  0  0  0  0  0  0  0  0  0  0  0
  -29.2610  -25.2625   23.1806 O   0  0  0  0  0  0  0  0  0  0  0  0
  -27.3356  -28.3235   22.1231 O   0  0  0  0  0  0  0  0  0  0  0  0
  -25.5153  -26.1676   18.3075 O   0  0  0  0  0  0  0  0  0  0  0  0
  -31.8539  -14.9432   20.1874 O   0  0  0  0  0  0  0  0  0  0  0  0
  -21.6177   -7.0153   21.7148 O   0  0  0  0  0  0  0  0  0  0  0  0
  -30.9209  -22.0819   17.6459 O   0  0  0  0  0  0  0  0  0  1  0  0
  -18.6218   -6.8642   26.3415 F   0  0  0  0  0  0  0  0  0  0  0  0
  -22.0680   -5.0766   23.6335 F   0  0  0  0  0  0  0  0  0  0  0  0
  1  2  1  0  0  0  0
  1  5  2  0  0  0  0
  2  6  2  0  0  0  0
  3  8  2  0  0  0  0
  3 18  1  0  0  0  0
  4  9  1  0  0  0  0
  4 18  2  0  0  0  0
  5 20  1  0  0  0  0
  6 22  1  0  0  0  0
  7 10  2  0  0  0  0
  7 21  1  0  0  0  0
  8 27  1  0  0  0  0
  9 27  2  0  0  0  0
 10 28  1  0  0  0  0
 11 12  2  0  0  0  0
 11 29  1  0  0  0  0
 12 30  1  0  0  0  0
 13 23  1  0  0  0  0
 13 25  2  0  0  0  0
 14 23  2  0  0  0  0
 14 26  1  0  0  0  0
 15 24  1  0  0  0  0
 15 28  2  0  0  0  0
 16 25  1  0  0  0  0
 16 26  2  0  0  0  0
 17 30  2  0  0  0  0
 17 31  1  0  0  0  0
 18 32  1  0  0  0  0
 19 32  1  0  0  0  0
 19 33  2  0  0  0  0
 19 35  1  0  0  0  0
 20 22  2  0  0  0  0
 20 40  1  0  0  0  0
 21 24  2  0  0  0  0
 21 41  1  0  0  0  0
 22 54  1  0  0  0  0
 23 53  1  0  0  0  0
 24 42  1  0  0  0  0
 25 63  1  0  0  0  0
 26 75  1  0  0  0  0
 27 85  1  0  0  0  0
 28 86  1  0  0  0  0
 29 31  2  0  0  0  0
 29 85  1  0  0  0  0
 30 87  1  0  0  0  0
 31 88  1  0  0  0  0
 32 68  2  0  0  0  0
 33 69  1  0  0  0  0
 33 73  1  0  0  0  0
 34 43  1  0  0  0  0
 34 70  1  0  0  0  0
 34 79  2  0  0  0  0
 35 74  1  0  0  0  0
 35 80  2  0  0  0  0
 36 55  1  0  0  0  0
 36 76  1  0  0  0  0
 36 81  2  0  0  0  0
 37 65  1  0  0  0  0
 37 71  1  0  0  0  0
 37 82  2  0  0  0  0
 38 66  1  0  0  0  0
 38 77  1  0  0  0  0
 38 83  2  0  0  0  0
 39 72  1  0  0  0  0
 39 75  1  0  0  0  0
 39 84  2  0  0  0  0
 40 44  1  0  0  0  0
 41 55  1  0  0  0  0
 42 71  1  0  0  0  0
 43 45  1  0  0  0  0
 44 49  1  0  0  0  0
 45 57  1  0  0  0  0
 46 50  1  0  0  0  0
 46 51  1  0  0  0  0
 47 48  1  0  0  0  0
 47 53  1  0  0  0  0
 48 53  1  0  0  0  0
 49 54  1  0  0  0  0
 50 56  1  0  0  0  0
 51 72  1  0  0  0  0
 52 56  1  0  0  0  0
 52 72  1  0  0  0  0
 54 76  1  0  0  0  0
 55 71  1  0  0  0  0
 56 69  1  0  0  0  0
 57 64  1  0  0  0  0
 57 70  1  0  0  0  0
 58 66  1  0  0  0  0
 59 67  1  0  0  0  0
 60 67  1  0  0  0  0
 61 67  1  0  0  0  0
 62 78  1  0  0  0  0
 63 70  1  0  0  0  0
 64 86  1  0  0  0  0
 65 67  1  0  0  0  0
 65 77  1  0  0  0  0
 66 78  1  0  0  0  0
 68 69  1  0  0  0  0
M  CHG  1  78   1
M  ISO  4  39 100  64 101  75 100  86 101
M  END
> <Batch ID>
0147

> <Smiles>
CNC(C)C(=O)NC(C(=O)N1Cc2cc([101O:1][101CH2:1]C3CCC(=O)N3Cc3cc([100NH:0][100C:0](=O)N4CCCC(n5nc(-c6ccc(Oc7ccc(F)cc7F)cc6)c(C(N)=O)c5N)C4)cc(C4CC4)c3)ccc2CC1C(=O)NC1CCCc2ccccc21)C(C)(C)C

> <Shape>
0.266

> <Color>
0.192

> <Negative vol penalty>
0.000

$$$$

  -OEChem-04052303133D

 82 90  0     1  0  0  0  0  0999 V2000
  -16.7300  -24.2239   23.7324 C   0  0  0  0  0  0  0  0  0  0  0  0
  -17.9916  -23.6613   23.5670 C   0  0  0  0  0  0  0  0  0  0  0  0
  -22.5776  -10.9263   19.8427 C   0  0  0  0  0  0  0  0  0  0  0  0
  -23.5263   -9.9959   21.8604 C   0  0  0  0  0  0  0  0  0  0  0  0
  -16.5037  -25.5476   23.3578 C   0  0  0  0  0  0  0  0  0  0  0  0
  -19.0274  -24.4220   23.0258 C   0  0  0  0  0  0  0  0  0  0  0  0
  -24.9667  -24.1241   24.4892 C   0  0  0  0  0  0  0  0  0  0  0  0
  -21.5827   -9.9489   19.8598 C   0  0  0  0  0  0  0  0  0  0  0  0
  -22.5314   -9.0184   21.8775 C   0  0  0  0  0  0  0  0  0  0  0  0
  -26.0495  -23.4824   23.8895 C   0  0  0  0  0  0  0  0  0  0  0  0
  -19.2794   -8.7919   22.7685 C   0  0  0  0  0  0  0  0  0  0  0  0
  -18.6534   -8.5277   23.9867 C   0  0  0  0  0  0  0  0  0  0  0  0
  -26.6207  -25.5281   22.7458 C   0  0  0  0  0  0  0  0  0  0  0  0
  -31.0535  -17.3928   22.3172 C   0  0  0  0  0  0  0  0  0  0  0  0
  -19.4030   -6.2337   23.8743 C   0  0  0  0  0  0  0  0  0  0  0  0
  -32.8749  -17.0014   21.0902 C   0  0  0  0  0  0  0  0  0  0  0  0
  -23.5494  -10.9498   20.8430 C   0  0  0  0  0  0  0  0  0  0  0  0
  -24.5333  -13.2286   21.4323 C   0  0  0  0  0  0  0  0  0  0  0  0
  -17.5397  -26.3279   22.8207 C   0  0  0  0  0  0  0  0  0  0  0  0
  -24.6959  -25.4719   24.2128 C   0  0  0  0  0  0  0  0  0  0  0  0
  -18.8144  -25.7570   22.6424 C   0  0  0  0  0  0  0  0  0  0  0  0
  -25.5354  -26.1853   23.3453 C   0  0  0  0  0  0  0  0  0  0  0  0
  -32.0008  -16.4015   21.9665 C   0  0  0  0  0  0  0  0  0  0  0  0
  -21.5596   -8.9949   20.8772 C   0  0  0  0  0  0  0  0  0  0  0  0
  -26.8749  -24.1836   23.0155 C   0  0  0  0  0  0  0  0  0  0  0  0
  -19.9671   -7.7770   22.1032 C   0  0  0  0  0  0  0  0  0  0  0  0
  -18.7152   -7.2486   24.5396 C   0  0  0  0  0  0  0  0  0  0  0  0
  -20.0289   -6.4979   22.6561 C   0  0  0  0  0  0  0  0  0  0  0  0
  -24.5778  -11.9590   20.8257 C   0  0  0  0  0  0  0  0  0  0  0  0
  -25.7450  -13.7981   21.1261 C   0  0  0  0  0  0  0  0  0  0  0  0
  -31.4163  -18.5279   21.6304 C   0  0  0  0  0  0  0  0  0  0  0  0
  -23.4899  -13.8385   22.2036 C   0  0  0  0  0  0  0  0  0  0  0  0
  -22.2662  -27.0491   22.9041 C   0  0  0  0  0  0  0  0  0  0  0  0
  -29.3605  -21.6402   22.0417 C   0  0  0  0  0  0  0  0  0  0  0  0
  -23.9844  -29.6524   23.7944 C   0  0  0  0  0  0  0  0  0  0  0  0
  -27.0263  -30.9871   24.5770 C   0  0  0  0  0  0  0  0  0  0  0  0
  -31.2954  -13.4677   20.6467 C   0  0  0  0  0  0  0  0  0  0  0  0
  -17.2350  -27.7397   22.3865 C   0  0  0  0  0  0  0  0  0  0  0  0
  -23.5398  -26.1569   24.8885 C   0  0  0  0  0  0  0  0  0  0  0  0
  -25.2997  -27.6393   23.0310 C   0  0  0  0  0  0  0  0  0  0  0  0
  -18.4822  -28.5925   22.1684 C   0  0  0  0  0  0  0  0  0  0  0  0
  -29.3471  -12.3342   17.8906 C   0  0  0  0  0  0  0  0  0  0  0  0
  -19.5163  -27.8263   21.3496 C   0  0  0  0  0  0  0  0  0  0  0  0
  -27.9310  -12.2344   18.4602 C   0  0  0  0  0  0  0  0  0  0  0  0
  -30.3997  -11.9322   18.9215 C   0  0  0  0  0  0  0  0  0  0  0  0
  -28.8991  -12.5525   20.7754 C   0  0  0  0  0  0  0  0  0  0  0  0
  -19.9699  -26.5576   22.0819 C   0  0  1  0  0  0  0  0  0  0  0  0
  -23.0547  -27.3923   24.1362 C   0  0  1  0  0  0  0  0  0  0  0  0
  -27.8062  -13.0015   19.7904 C   0  0  2  0  0  0  0  0  0  0  0  0
  -28.1203  -33.1504   25.2257 C   0  0  0  0  0  0  0  0  0  0  0  0
  -23.7853  -30.6163   20.9063 C   0  0  0  0  0  0  0  0  0  0  0  0
  -25.6427  -32.2245   21.3883 C   0  0  0  0  0  0  0  0  0  0  0  0
  -23.4849  -32.4065   22.6266 C   0  0  0  0  0  0  0  0  0  0  0  0
  -27.9473  -29.8802   27.1626 C   0  0  0  0  0  0  0  0  0  0  0  0
  -32.0441  -15.0078   22.4430 C   0  0  0  0  0  0  0  0  0  0  0  0
  -29.6871  -20.1886   22.3214 C   0  0  0  0  0  0  0  0  0  0  0  0
  -28.1370  -22.1850   22.7527 C   0  0  0  0  0  0  0  0  0  1  0  0
  -25.0570  -30.4970   23.1501 C   0  0  1  0  0  0  0  0  0  0  0  0
  -27.4729  -31.8695   25.7287 C   0  0  2  0  0  0  0  0  0  0  0  0
  -24.4960  -31.4081   22.0220 C   0  0  0  0  0  0  0  0  0  0  0  0
  -25.7268  -11.7348   20.1826 N   0  0  0  0  0  0  0  0  0  0  0  0
  -26.4155  -12.8712   20.3834 N   0  0  0  0  0  0  0  0  0  0  0  0
  -24.1528  -28.2630   23.7117 N   0  0  0  0  0  0  0  0  0  0  0  0
  -30.2270  -12.6973   20.1587 N   0  0  0  0  0  0  0  0  0  0  0  0
  -26.2918  -14.9963   21.4224 N   0  0  0  0  0  0  0  0  0  0  0  0
  -22.3104  -13.1139   22.4232 N   0  0  0  0  0  0  0  0  0  0  0  0
  -30.8609  -19.7986   21.5831 N   0  0  0  0  0  0  0  0  0  0  0  0
  -20.9124  -26.8881   23.1292 N   0  0  0  0  0  0  0  0  0  0  0  0
  -25.7117  -31.2220   24.2337 N   0  0  0  0  0  0  0  0  0  0  0  0
  -31.0456  -14.1668   21.8213 N   0  0  0  0  0  0  0  0  0  0  0  0
  -28.4592  -31.1481   26.5817 N   0  3  0  0  0  0  0  0  0  0  0  0
  -23.5937  -14.9983   22.6701 O   0  0  0  0  0  0  0  0  0  0  0  0
  -22.8432  -26.9400   21.8285 O   0  0  0  0  0  0  0  0  0  0  0  0
  -30.0357  -22.3410   21.2889 O   0  0  0  0  0  0  0  0  0  0  0  0
  -23.0359  -30.2052   24.3569 O   0  0  0  0  0  0  0  0  0  0  0  0
  -27.7704  -30.1737   24.0337 O   0  0  0  0  0  0  0  0  0  0  0  0
  -32.3890  -13.5321   20.0750 O   0  0  0  0  0  0  0  0  0  0  0  0
  -32.5257  -18.2977   20.8801 O   0  0  0  0  0  0  0  0  0  0  0  0
  -20.5887   -8.0411   20.8942 O   0  0  0  0  0  0  0  0  0  0  0  0
  -27.9321  -23.5594   22.4283 O   0  0  0  0  0  0  0  0  0  1  0  0
  -18.1154   -6.9955   25.7102 F   0  0  0  0  0  0  0  0  0  0  0  0
  -20.6891   -5.5191   22.0221 F   0  0  0  0  0  0  0  0  0  0  0  0
  1  2  1  0  0  0  0
  1  5  2  0  0  0  0
  2  6  2  0  0  0  0
  3  8  2  0  0  0  0
  3 17  1  0  0  0  0
  4  9  1  0  0  0  0
  4 17  2  0  0  0  0
  5 19  1  0  0  0  0
  6 21  1  0  0  0  0
  7 10  2  0  0  0  0
  7 20  1  0  0  0  0
  8 24  1  0  0  0  0
  9 24  2  0  0  0  0
 10 25  1  0  0  0  0
 11 12  2  0  0  0  0
 11 26  1  0  0  0  0
 12 27  1  0  0  0  0
 13 22  1  0  0  0  0
 13 25  2  0  0  0  0
 14 23  1  0  0  0  0
 14 31  2  0  0  0  0
 15 27  2  0  0  0  0
 15 28  1  0  0  0  0
 16 23  2  0  0  0  0
 16 78  1  0  0  0  0
 17 29  1  0  0  0  0
 18 29  1  0  0  0  0
 18 30  2  0  0  0  0
 18 32  1  0  0  0  0
 19 21  2  0  0  0  0
 19 38  1  0  0  0  0
 20 22  2  0  0  0  0
 20 39  1  0  0  0  0
 21 47  1  0  0  0  0
 22 40  1  0  0  0  0
 23 55  1  0  0  0  0
 24 79  1  0  0  0  0
 25 80  1  0  0  0  0
 26 28  2  0  0  0  0
 26 79  1  0  0  0  0
 27 81  1  0  0  0  0
 28 82  1  0  0  0  0
 29 61  2  0  0  0  0
 30 62  1  0  0  0  0
 30 65  1  0  0  0  0
 31 67  1  0  0  0  0
 31 78  1  0  0  0  0
 32 66  1  0  0  0  0
 32 72  2  0  0  0  0
 33 48  1  0  0  0  0
 33 68  1  0  0  0  0
 33 73  2  0  0  0  0
 34 56  1  0  0  0  0
 34 57  1  0  0  0  0
 34 74  2  0  0  0  0
 35 58  1  0  0  0  0
 35 63  1  0  0  0  0
 35 75  2  0  0  0  0
 36 59  1  0  0  0  0
 36 69  1  0  0  0  0
 36 76  2  0  0  0  0
 37 64  1  0  0  0  0
 37 70  1  0  0  0  0
 37 77  2  0  0  0  0
 38 41  1  0  0  0  0
 39 48  1  0  0  0  0
 40 63  1  0  0  0  0
 41 43  1  0  0  0  0
 42 44  1  0  0  0  0
 42 45  1  0  0  0  0
 43 47  1  0  0  0  0
 44 49  1  0  0  0  0
 45 64  1  0  0  0  0
 46 49  1  0  0  0  0
 46 64  1  0  0  0  0
 47 68  1  0  0  0  0
 48 63  1  0  0  0  0
 49 62  1  0  0  0  0
 50 59  1  0  0  0  0
 51 60  1  0  0  0  0
 52 60  1  0  0  0  0
 53 60  1  0  0  0  0
 54 71  1  0  0  0  0
 55 70  1  0  0  0  0
 56 67  1  0  0  0  0
 57 80  1  0  0  0  0
 58 60  1  0  0  0  0
 58 69  1  0  0  0  0
 59 71  1  0  0  0  0
 61 62  1  0  0  0  0
M  CHG  1  71   1
M  ISO  4  37 100  57 101  70 100  80 101
M  END
> <Batch ID>
0147

> <Smiles>
CNC(C)C(=O)NC(C(=O)N1Cc2cc([101O:1][101CH2:1]C(=O)CNc3cc(C[100NH:0][100C:0](=O)N4CCCC(n5nc(-c6ccc(Oc7ccc(F)cc7F)cc6)c(C(N)=O)c5N)C4)co3)ccc2CC1C(=O)NC1CCCc2ccccc21)C(C)(C)C

> <Shape>
0.290

> <Color>
0.090

> <Negative vol penalty>
0.000

$$$$

  -OEChem-04052303133D

 87 96  0     1  0  0  0  0  0999 V2000
  -23.9769  -18.8886   25.4479 C   0  0  0  0  0  0  0  0  0  0  0  0
  -25.0736  -19.5894   24.9563 C   0  0  0  0  0  0  0  0  0  0  0  0
  -23.0738   -9.8647   20.1948 C   0  0  0  0  0  0  0  0  0  0  0  0
  -23.7478  -10.1523   22.4970 C   0  0  0  0  0  0  0  0  0  0  0  0
  -29.6979  -19.4532   21.6953 C   0  0  0  0  0  0  0  0  0  0  0  0
  -31.3916  -19.0343   20.0240 C   0  0  0  0  0  0  0  0  0  0  0  0
  -22.6854  -19.3424   25.1834 C   0  0  0  0  0  0  0  0  0  0  0  0
  -24.8792  -20.7440   24.1990 C   0  0  0  0  0  0  0  0  0  0  0  0
  -27.9708  -24.5121   25.5733 C   0  0  0  0  0  0  0  0  0  0  0  0
  -29.5144  -18.0796   21.8537 C   0  0  0  0  0  0  0  0  0  0  0  0
  -31.2081  -17.6607   20.1824 C   0  0  0  0  0  0  0  0  0  0  0  0
  -22.3079   -8.7567   20.5574 C   0  0  0  0  0  0  0  0  0  0  0  0
  -22.9819   -9.0444   22.8597 C   0  0  0  0  0  0  0  0  0  0  0  0
  -29.2896  -24.4491   25.1256 C   0  0  0  0  0  0  0  0  0  0  0  0
  -19.7246   -8.3498   23.4323 C   0  0  0  0  0  0  0  0  0  0  0  0
  -18.9241   -8.4612   24.5692 C   0  0  0  0  0  0  0  0  0  0  0  0
  -28.7622  -26.0172   23.3700 C   0  0  0  0  0  0  0  0  0  0  0  0
  -20.1149   -6.6224   25.5879 C   0  0  0  0  0  0  0  0  0  0  0  0
  -23.7938  -10.5624   21.1646 C   0  0  0  0  0  0  0  0  0  0  0  0
  -30.6365  -19.9306   20.7805 C   0  0  0  0  0  0  0  0  0  0  0  0
  -24.1689  -13.0506   20.7448 C   0  0  0  0  0  0  0  0  0  0  0  0
  -22.4754  -20.5085   24.4306 C   0  0  0  0  0  0  0  0  0  0  0  0
  -27.0335  -25.3212   24.9150 C   0  0  0  0  0  0  0  0  0  0  0  0
  -23.5837  -21.2131   23.9230 C   0  0  0  0  0  0  0  0  0  0  0  0
  -27.4327  -26.0908   23.8129 C   0  0  0  0  0  0  0  0  0  0  0  0
  -30.2695  -17.1833   21.0972 C   0  0  0  0  0  0  0  0  0  0  0  0
  -22.2619   -8.3466   21.8898 C   0  0  0  0  0  0  0  0  0  0  0  0
  -29.6848  -25.1995   24.0220 C   0  0  0  0  0  0  0  0  0  0  0  0
  -20.7201   -7.3746   23.3732 C   0  0  0  0  0  0  0  0  0  0  0  0
  -19.1193   -7.5976   25.6470 C   0  0  0  0  0  0  0  0  0  0  0  0
  -20.9153   -6.5109   24.4509 C   0  0  0  0  0  0  0  0  0  0  0  0
  -24.5856  -11.7067   20.7905 C   0  0  0  0  0  0  0  0  0  0  0  0
  -25.2823  -13.7415   20.3334 C   0  0  0  0  0  0  0  0  0  0  0  0
  -30.8304  -21.3820   20.6129 C   0  0  0  0  0  0  0  0  0  0  0  0
  -22.8897  -13.6232   21.0473 C   0  0  0  0  0  0  0  0  0  0  0  0
  -24.3129  -24.7913   23.3590 C   0  0  0  0  0  0  0  0  0  0  0  0
  -24.1802  -28.0314   23.2806 C   0  0  0  0  0  0  0  0  0  0  0  0
  -25.8540  -31.0033   23.3973 C   0  0  0  0  0  0  0  0  0  0  0  0
  -30.7499  -14.7637   20.5864 C   0  0  0  0  0  0  0  0  0  0  0  0
  -21.0598  -20.9338   24.1307 C   0  0  0  0  0  0  0  0  0  0  0  0
  -25.6212  -25.3987   25.4267 C   0  0  0  0  0  0  0  0  0  0  0  0
  -26.4700  -26.9906   23.0836 C   0  0  0  0  0  0  0  0  0  0  0  0
  -20.9482  -22.3738   23.6365 C   0  0  0  0  0  0  0  0  0  0  0  0
  -29.6968  -12.0811   18.4955 C   0  0  0  0  0  0  0  0  0  0  0  0
  -21.9951  -22.6523   22.5625 C   0  0  0  0  0  0  0  0  0  0  0  0
  -28.2389  -11.8551   18.9025 C   0  0  0  0  0  0  0  0  0  0  0  0
  -33.4829  -22.4103   22.8622 C   0  0  0  0  0  0  0  0  0  0  0  0
  -30.5691  -12.4517   19.6937 C   0  0  0  0  0  0  0  0  0  0  0  0
  -32.5445  -21.3154   22.3666 C   0  0  0  0  0  0  0  0  0  0  0  0
  -28.6205  -13.3556   20.8999 C   0  0  0  0  0  0  0  0  0  0  0  0
  -23.4142  -22.4836   23.1185 C   0  0  1  0  0  0  0  0  0  0  0  0
  -24.6262  -25.8609   24.3667 C   0  0  1  0  0  0  0  0  0  0  0  0
  -27.6902  -13.0434   19.7163 C   0  0  2  0  0  0  0  0  0  0  0  0
  -31.9580  -23.4728   21.3152 C   0  0  1  0  0  0  0  0  0  0  0  0
  -32.6996  -23.7232   22.6575 C   0  0  2  0  0  0  0  0  0  0  0  0
  -32.7485  -23.7891   20.0495 C   0  0  0  0  0  0  0  0  0  0  0  0
  -33.6421  -24.9301   22.6475 C   0  0  0  0  0  0  0  0  0  0  0  0
  -25.4796  -33.4813   23.2692 C   0  0  0  0  0  0  0  0  0  0  0  0
  -23.8246  -27.8189   20.2577 C   0  0  0  0  0  0  0  0  0  0  0  0
  -24.4065  -30.2481   20.0885 C   0  0  0  0  0  0  0  0  0  0  0  0
  -22.3809  -29.5382   21.3596 C   0  0  0  0  0  0  0  0  0  0  0  0
  -26.9195  -31.4224   26.1264 C   0  0  0  0  0  0  0  0  0  0  0  0
  -31.6725  -23.9142   23.7919 C   0  0  0  0  0  0  0  0  0  1  0  0
  -24.6724  -29.0990   22.3335 C   0  0  1  0  0  0  0  0  0  0  0  0
  -25.5963  -32.2741   24.1867 C   0  0  2  0  0  0  0  0  0  0  0  0
  -23.8390  -29.1577   21.0222 C   0  0  0  0  0  0  0  0  0  0  0  0
  -25.8639  -11.5509   20.4362 N   0  0  0  0  0  0  0  0  0  0  0  0
  -26.2601  -12.8059   20.1639 N   0  0  0  0  0  0  0  0  0  0  0  0
  -31.7231  -22.0085   21.3604 N   0  0  0  0  0  0  0  0  0  0  0  0
  -25.0988  -27.0274   23.6182 N   0  0  0  0  0  0  0  0  0  0  0  0
  -29.9897  -13.5876   20.4140 N   0  0  0  0  0  0  0  0  0  0  0  0
  -25.5106  -15.0520   20.1035 N   0  0  0  0  0  0  0  0  0  0  0  0
  -21.8555  -12.7700   21.4559 N   0  0  0  0  0  0  0  0  0  0  0  0
  -30.0832  -15.7879   21.2580 N   0  0  0  0  0  0  0  0  0  0  0  0
  -23.7879  -23.6371   23.9085 N   0  0  0  0  0  0  0  0  0  0  0  0
  -24.6814  -30.3451   23.0920 N   0  0  0  0  0  0  0  0  0  0  0  0
  -30.1059  -22.0382   19.7115 N   0  3  0  0  0  0  0  0  0  0  0  0
  -26.7076  -32.5206   25.1486 N   0  3  0  0  0  0  0  0  0  0  0  0
  -22.6656  -14.8529   20.9421 O   0  0  0  0  0  0  0  0  0  0  0  0
  -24.5299  -24.9983   22.1709 O   0  0  0  0  0  0  0  0  0  0  0  0
  -23.0257  -28.0903   23.7109 O   0  0  0  0  0  0  0  0  0  0  0  0
  -26.9823  -30.6335   23.0799 O   0  0  0  0  0  0  0  0  0  0  0  0
  -31.8975  -14.8651   20.1451 O   0  0  0  0  0  0  0  0  0  0  0  0
  -21.5145   -7.2657   22.2441 O   0  0  0  0  0  0  0  0  0  0  0  0
  -30.9713  -25.1393   23.5825 O   0  0  0  0  0  0  0  0  0  1  0  0
  -18.3516   -7.7057   26.7392 F   0  0  0  0  0  0  0  0  0  0  0  0
  -21.8709   -5.5728   24.4004 F   0  0  0  0  0  0  0  0  0  0  0  0
  1  2  1  0  0  0  0
  1  7  2  0  0  0  0
  2  8  2  0  0  0  0
  3 12  2  0  0  0  0
  3 19  1  0  0  0  0
  4 13  1  0  0  0  0
  4 19  2  0  0  0  0
  5 10  2  0  0  0  0
  5 20  1  0  0  0  0
  6 11  1  0  0  0  0
  6 20  2  0  0  0  0
  7 22  1  0  0  0  0
  8 24  1  0  0  0  0
  9 14  2  0  0  0  0
  9 23  1  0  0  0  0
 10 26  1  0  0  0  0
 11 26  2  0  0  0  0
 12 27  1  0  0  0  0
 13 27  2  0  0  0  0
 14 28  1  0  0  0  0
 15 16  2  0  0  0  0
 15 29  1  0  0  0  0
 16 30  1  0  0  0  0
 17 25  1  0  0  0  0
 17 28  2  0  0  0  0
 18 30  2  0  0  0  0
 18 31  1  0  0  0  0
 19 32  1  0  0  0  0
 20 34  1  0  0  0  0
 21 32  1  0  0  0  0
 21 33  2  0  0  0  0
 21 35  1  0  0  0  0
 22 24  2  0  0  0  0
 22 40  1  0  0  0  0
 23 25  2  0  0  0  0
 23 41  1  0  0  0  0
 24 51  1  0  0  0  0
 25 42  1  0  0  0  0
 26 74  1  0  0  0  0
 27 84  1  0  0  0  0
 28 85  1  0  0  0  0
 29 31  2  0  0  0  0
 29 84  1  0  0  0  0
 30 86  1  0  0  0  0
 31 87  1  0  0  0  0
 32 67  2  0  0  0  0
 33 68  1  0  0  0  0
 33 72  1  0  0  0  0
 34 69  1  0  0  0  0
 34 77  2  0  0  0  0
 35 73  1  0  0  0  0
 35 79  2  0  0  0  0
 36 52  1  0  0  0  0
 36 75  1  0  0  0  0
 36 80  2  0  0  0  0
 37 64  1  0  0  0  0
 37 70  1  0  0  0  0
 37 81  2  0  0  0  0
 38 65  1  0  0  0  0
 38 76  1  0  0  0  0
 38 82  2  0  0  0  0
 39 71  1  0  0  0  0
 39 74  1  0  0  0  0
 39 83  2  0  0  0  0
 40 43  1  0  0  0  0
 41 52  1  0  0  0  0
 42 70  1  0  0  0  0
 43 45  1  0  0  0  0
 44 46  1  0  0  0  0
 44 48  1  0  0  0  0
 45 51  1  0  0  0  0
 46 53  1  0  0  0  0
 47 49  1  0  0  0  0
 47 55  1  0  0  0  0
 48 71  1  0  0  0  0
 49 69  1  0  0  0  0
 50 53  1  0  0  0  0
 50 71  1  0  0  0  0
 51 75  1  0  0  0  0
 52 70  1  0  0  0  0
 53 68  1  0  0  0  0
 54 55  1  0  0  0  0
 54 56  1  0  0  0  0
 54 69  1  0  0  0  0
 55 57  1  0  0  0  0
 55 63  1  0  0  0  0
 58 65  1  0  0  0  0
 59 66  1  0  0  0  0
 60 66  1  0  0  0  0
 61 66  1  0  0  0  0
 62 78  1  0  0  0  0
 63 85  1  0  0  0  0
 64 66  1  0  0  0  0
 64 76  1  0  0  0  0
 65 78  1  0  0  0  0
 67 68  1  0  0  0  0
M  CHG  2  77   1  78   1
M  ISO  4  39 100  63 101  74 100  85 101
M  END
> <Batch ID>
0147

> <Smiles>
CNC(C)C(=O)NC(C(=O)N1Cc2cc([101O:1][101CH2:1]C3(C)CCN(C(=N)c4ccc([100NH:0][100C:0](=O)N5CCCC(n6nc(-c7ccc(Oc8ccc(F)cc8F)cc7)c(C(N)=O)c6N)C5)cc4)C3C)ccc2CC1C(=O)NC1CCCc2ccccc21)C(C)(C)C

> <Shape>
0.260

> <Color>
0.184

> <Negative vol penalty>
0.000

$$$$

  -OEChem-04052303133D

 88 97  0     1  0  0  0  0  0999 V2000
  -27.2987  -34.0300   24.9105 C   0  0  0  0  0  0  0  0  0  0  0  0
  -27.5854  -32.7619   24.4153 C   0  0  0  0  0  0  0  0  0  0  0  0
  -23.4228  -10.4010   23.2988 C   0  0  0  0  0  0  0  0  0  0  0  0
  -24.0951  -10.4715   20.9793 C   0  0  0  0  0  0  0  0  0  0  0  0
  -26.0067  -34.3351   25.3364 C   0  0  0  0  0  0  0  0  0  0  0  0
  -26.5803  -31.7978   24.3467 C   0  0  0  0  0  0  0  0  0  0  0  0
  -26.5864  -29.2950   19.9443 C   0  0  0  0  0  0  0  0  0  0  0  0
  -22.5962   -9.3111   23.0261 C   0  0  0  0  0  0  0  0  0  0  0  0
  -23.2686   -9.3814   20.7066 C   0  0  0  0  0  0  0  0  0  0  0  0
  -27.5454  -28.2964   19.7810 C   0  0  0  0  0  0  0  0  0  0  0  0
  -22.9398   -5.9800   22.5579 C   0  0  0  0  0  0  0  0  0  0  0  0
  -22.9744   -4.9028   23.4433 C   0  0  0  0  0  0  0  0  0  0  0  0
  -28.8117  -19.9060   19.6053 C   0  0  0  0  0  0  0  0  0  0  0  0
  -31.0379  -19.7765   18.6757 C   0  0  0  0  0  0  0  0  0  0  0  0
  -25.8862  -26.6255   20.3048 C   0  0  0  0  0  0  0  0  0  0  0  0
  -30.2110  -17.9953   20.0831 C   0  0  0  0  0  0  0  0  0  0  0  0
  -20.6210   -5.2027   23.9001 C   0  0  0  0  0  0  0  0  0  0  0  0
  -24.1722  -10.9813   22.2753 C   0  0  0  0  0  0  0  0  0  0  0  0
  -29.8294  -20.4566   18.8264 C   0  0  0  0  0  0  0  0  0  0  0  0
  -26.3778  -12.0731   22.9469 C   0  0  0  0  0  0  0  0  0  0  0  0
  -24.9830  -33.3772   25.2640 C   0  0  0  0  0  0  0  0  0  0  0  0
  -25.2704  -28.9666   20.3004 C   0  0  0  0  0  0  0  0  0  0  0  0
  -25.2736  -32.0900   24.7732 C   0  0  0  0  0  0  0  0  0  0  0  0
  -24.9117  -27.6217   20.4695 C   0  0  0  0  0  0  0  0  0  0  0  0
  -29.0025  -18.6754   20.2337 C   0  0  0  0  0  0  0  0  0  0  0  0
  -22.5191   -8.8012   21.7301 C   0  0  0  0  0  0  0  0  0  0  0  0
  -27.1961  -26.9616   19.9640 C   0  0  0  0  0  0  0  0  0  0  0  0
  -21.7458   -6.6687   22.3436 C   0  0  0  0  0  0  0  0  0  0  0  0
  -21.8150   -4.5141   24.1144 C   0  0  0  0  0  0  0  0  0  0  0  0
  -31.2287  -18.5458   19.3041 C   0  0  0  0  0  0  0  0  0  0  0  0
  -20.5864   -6.2800   23.0147 C   0  0  0  0  0  0  0  0  0  0  0  0
  -25.0257  -12.1076   22.5562 C   0  0  0  0  0  0  0  0  0  0  0  0
  -26.7283  -13.3936   23.0877 C   0  0  0  0  0  0  0  0  0  0  0  0
  -29.8249  -24.2060   18.2873 C   0  0  0  0  0  0  0  0  0  0  0  0
  -29.6289  -21.7574   18.1632 C   0  0  0  0  0  0  0  0  0  0  0  0
  -27.2398  -10.9480   23.1630 C   0  0  0  0  0  0  0  0  0  0  0  0
  -23.3886  -29.6159   22.7785 C   0  0  0  0  0  0  0  0  0  0  0  0
  -21.1521  -28.1071   20.9775 C   0  0  0  0  0  0  0  0  0  0  0  0
  -20.4583  -25.8775   18.4887 C   0  0  0  0  0  0  0  0  0  0  0  0
  -26.7087  -18.6584   21.2753 C   0  0  0  0  0  0  0  0  0  0  0  0
  -23.6128  -33.7387   25.7802 C   0  0  0  0  0  0  0  0  0  0  0  0
  -24.2412  -30.0537   20.4467 C   0  0  0  0  0  0  0  0  0  0  0  0
  -23.5076  -27.2150   20.8323 C   0  0  0  0  0  0  0  0  0  0  0  0
  -22.5174  -32.7779   25.3251 C   0  0  0  0  0  0  0  0  0  0  0  0
  -23.8727  -17.5728   23.1342 C   0  0  0  0  0  0  0  0  0  0  0  0
  -22.9654  -31.3315   25.5098 C   0  0  0  0  0  0  0  0  0  0  0  0
  -24.0311  -16.0513   23.1817 C   0  0  0  0  0  0  0  0  0  0  0  0
  -30.2771  -24.3003   20.6113 C   0  0  0  0  0  0  0  0  0  0  0  0
  -24.3330  -18.1494   21.7965 C   0  0  0  0  0  0  0  0  0  0  0  0
  -30.5359  -22.8696   20.1505 C   0  0  0  0  0  0  0  0  0  0  0  0
  -25.8471  -16.2401   21.4343 C   0  0  0  0  0  0  0  0  0  0  0  0
  -24.2045  -31.0250   24.6600 C   0  0  1  0  0  0  0  0  0  0  0  0
  -23.0555  -29.6412   21.3136 C   0  0  1  0  0  0  0  0  0  0  0  0
  -25.4572  -15.6206   22.7862 C   0  0  2  0  0  0  0  0  0  0  0  0
  -30.3429  -25.1682   19.3384 C   0  0  1  0  0  0  0  0  0  0  0  0
  -31.7785  -25.5642   18.9906 C   0  0  0  0  0  0  0  0  0  0  0  0
  -18.5360  -24.8248   17.2665 C   0  0  0  0  0  0  0  0  0  0  0  0
  -20.6174  -26.3018   23.3785 C   0  0  0  0  0  0  0  0  0  0  0  0
  -19.4311  -24.7233   21.8392 C   0  0  0  0  0  0  0  0  0  0  0  0
  -18.5670  -27.0422   22.1529 C   0  0  0  0  0  0  0  0  0  0  0  0
  -21.3441  -26.9952   15.8954 C   0  0  0  0  0  0  0  0  0  0  0  0
  -29.4494  -26.3990   19.4518 C   0  0  0  0  0  0  0  0  0  1  0  0
  -20.6877  -26.6788   20.8253 C   0  0  1  0  0  0  0  0  0  0  0  0
  -19.5399  -25.9670   17.2833 C   0  0  2  0  0  0  0  0  0  0  0  0
  -19.8528  -26.1940   22.0441 C   0  0  0  0  0  0  0  0  0  0  0  0
  -24.5497  -13.3515   22.4555 N   0  0  0  0  0  0  0  0  0  0  0  0
  -25.6084  -14.1109   22.7850 N   0  0  0  0  0  0  0  0  0  0  0  0
  -29.9598  -22.8677   18.7986 N   0  0  0  0  0  0  0  0  0  0  0  0
  -22.5386  -28.3149   20.9703 N   0  0  0  0  0  0  0  0  0  0  0  0
  -25.6935  -17.7024   21.4898 N   0  0  0  0  0  0  0  0  0  0  0  0
  -27.8821  -13.9996   23.4398 N   0  0  0  0  0  0  0  0  0  0  0  0
  -26.7185   -9.6608   22.9736 N   0  0  0  0  0  0  0  0  0  0  0  0
  -27.9683  -18.1153   21.0240 N   0  0  0  0  0  0  0  0  0  0  0  0
  -23.8316  -30.8267   23.2758 N   0  0  0  0  0  0  0  0  0  0  0  0
  -19.9791  -26.6135   19.5517 N   0  0  0  0  0  0  0  0  0  0  0  0
  -29.1200  -21.7932   16.9352 N   0  3  0  0  0  0  0  0  0  0  0  0
  -20.3330  -25.9143   16.0227 N   0  3  0  0  0  0  0  0  0  0  0  0
  -29.3949  -24.4589   17.1758 O   0  0  0  0  0  0  0  0  0  0  0  0
  -28.4321  -11.0796   23.5296 O   0  0  0  0  0  0  0  0  0  0  0  0
  -23.2524  -28.5754   23.4112 O   0  0  0  0  0  0  0  0  0  0  0  0
  -20.3152  -29.0063   21.0913 O   0  0  0  0  0  0  0  0  0  0  0  0
  -21.4951  -25.2175   18.4886 O   0  0  0  0  0  0  0  0  0  0  0  0
  -26.4834  -19.8697   21.3387 O   0  0  0  0  0  0  0  0  0  0  0  0
  -21.7129   -7.7375   21.4637 O   0  0  0  0  0  0  0  0  0  0  0  0
  -28.1305  -25.9849   19.8058 O   0  0  0  0  0  0  0  0  0  1  0  0
  -21.8480   -3.4786   24.9634 F   0  0  0  0  0  0  0  0  0  0  0  0
  -32.3892  -17.8928   19.1594 F   0  0  0  0  0  0  0  0  0  0  0  0
  -19.4361   -6.9369   22.8121 F   0  0  0  0  0  0  0  0  0  0  0  0
  1  2  1  0  0  0  0
  1  5  2  0  0  0  0
  2  6  2  0  0  0  0
  3  8  2  0  0  0  0
  3 18  1  0  0  0  0
  4  9  1  0  0  0  0
  4 18  2  0  0  0  0
  5 21  1  0  0  0  0
  6 23  1  0  0  0  0
  7 10  2  0  0  0  0
  7 22  1  0  0  0  0
  8 26  1  0  0  0  0
  9 26  2  0  0  0  0
 10 27  1  0  0  0  0
 11 12  2  0  0  0  0
 11 28  1  0  0  0  0
 12 29  1  0  0  0  0
 13 19  2  0  0  0  0
 13 25  1  0  0  0  0
 14 19  1  0  0  0  0
 14 30  2  0  0  0  0
 15 24  1  0  0  0  0
 15 27  2  0  0  0  0
 16 25  2  0  0  0  0
 16 30  1  0  0  0  0
 17 29  2  0  0  0  0
 17 31  1  0  0  0  0
 18 32  1  0  0  0  0
 19 35  1  0  0  0  0
 20 32  1  0  0  0  0
 20 33  2  0  0  0  0
 20 36  1  0  0  0  0
 21 23  2  0  0  0  0
 21 41  1  0  0  0  0
 22 24  2  0  0  0  0
 22 42  1  0  0  0  0
 23 52  1  0  0  0  0
 24 43  1  0  0  0  0
 25 73  1  0  0  0  0
 26 84  1  0  0  0  0
 27 85  1  0  0  0  0
 28 31  2  0  0  0  0
 28 84  1  0  0  0  0
 29 86  1  0  0  0  0
 30 87  1  0  0  0  0
 31 88  1  0  0  0  0
 32 66  2  0  0  0  0
 33 67  1  0  0  0  0
 33 71  1  0  0  0  0
 34 55  1  0  0  0  0
 34 68  1  0  0  0  0
 34 78  2  0  0  0  0
 35 68  1  0  0  0  0
 35 76  2  0  0  0  0
 36 72  1  0  0  0  0
 36 79  2  0  0  0  0
 37 53  1  0  0  0  0
 37 74  1  0  0  0  0
 37 80  2  0  0  0  0
 38 63  1  0  0  0  0
 38 69  1  0  0  0  0
 38 81  2  0  0  0  0
 39 64  1  0  0  0  0
 39 75  1  0  0  0  0
 39 82  2  0  0  0  0
 40 70  1  0  0  0  0
 40 73  1  0  0  0  0
 40 83  2  0  0  0  0
 41 44  1  0  0  0  0
 42 53  1  0  0  0  0
 43 69  1  0  0  0  0
 44 46  1  0  0  0  0
 45 47  1  0  0  0  0
 45 49  1  0  0  0  0
 46 52  1  0  0  0  0
 47 54  1  0  0  0  0
 48 50  1  0  0  0  0
 48 55  1  0  0  0  0
 49 70  1  0  0  0  0
 50 68  1  0  0  0  0
 51 54  1  0  0  0  0
 51 70  1  0  0  0  0
 52 74  1  0  0  0  0
 53 69  1  0  0  0  0
 54 67  1  0  0  0  0
 55 56  1  0  0  0  0
 55 62  1  0  0  0  0
 57 64  1  0  0  0  0
 58 65  1  0  0  0  0
 59 65  1  0  0  0  0
 60 65  1  0  0  0  0
 61 77  1  0  0  0  0
 62 85  1  0  0  0  0
 63 65  1  0  0  0  0
 63 75  1  0  0  0  0
 64 77  1  0  0  0  0
 66 67  1  0  0  0  0
M  CHG  2  76   1  77   1
M  ISO  4  40 100  62 101  73 100  85 101
M  END
> <Batch ID>
0147

> <Smiles>
CNC(C)C(=O)NC(C(=O)N1Cc2cc([101O:1][101CH2:1]C3(C)CCN(C(=N)c4cc(F)cc([100NH:0][100C:0](=O)N5CCCC(n6nc(-c7ccc(Oc8ccc(F)cc8F)cc7)c(C(N)=O)c6N)C5)c4)C3=O)ccc2CC1C(=O)NC1CCCc2ccccc21)C(C)(C)C

> <Shape>
0.298

> <Color>
0.074

> <Negative vol penalty>
0.000

$$$$

  -OEChem-04052303133D

 87 96  0     1  0  0  0  0  0999 V2000
  -26.2626  -32.1209   23.8803 C   0  0  0  0  0  0  0  0  0  0  0  0
  -26.8055  -30.8598   24.1051 C   0  0  0  0  0  0  0  0  0  0  0  0
  -23.1259   -9.8430   19.8835 C   0  0  0  0  0  0  0  0  0  0  0  0
  -23.8508   -9.7953   22.1877 C   0  0  0  0  0  0  0  0  0  0  0  0
  -25.4624  -32.3446   22.7607 C   0  0  0  0  0  0  0  0  0  0  0  0
  -26.5476  -29.8214   23.2109 C   0  0  0  0  0  0  0  0  0  0  0  0
  -30.7032  -27.1605   22.0727 C   0  0  0  0  0  0  0  0  0  0  0  0
  -22.3889   -8.6771   20.0912 C   0  0  0  0  0  0  0  0  0  0  0  0
  -23.1138   -8.6294   22.3954 C   0  0  0  0  0  0  0  0  0  0  0  0
  -31.1418  -26.2309   23.0145 C   0  0  0  0  0  0  0  0  0  0  0  0
  -19.8843   -7.7876   22.9267 C   0  0  0  0  0  0  0  0  0  0  0  0
  -19.1101   -7.7098   24.0843 C   0  0  0  0  0  0  0  0  0  0  0  0
  -33.2740  -17.6878   24.7247 C   0  0  0  0  0  0  0  0  0  0  0  0
  -33.8021  -18.8085   25.4284 C   0  0  0  0  0  0  0  0  0  0  0  0
  -30.1091  -24.4619   21.7404 C   0  0  0  0  0  0  0  0  0  0  0  0
  -20.3578   -5.7642   24.7880 C   0  0  0  0  0  0  0  0  0  0  0  0
  -23.8569  -10.4020   20.9317 C   0  0  0  0  0  0  0  0  0  0  0  0
  -24.1775  -12.9324   20.8842 C   0  0  0  0  0  0  0  0  0  0  0  0
  -25.2025  -31.3109   21.8471 C   0  0  0  0  0  0  0  0  0  0  0  0
  -29.9537  -26.7485   20.9614 C   0  0  0  0  0  0  0  0  0  0  0  0
  -25.7421  -30.0312   22.0787 C   0  0  0  0  0  0  0  0  0  0  0  0
  -29.6644  -25.3880   20.7845 C   0  0  0  0  0  0  0  0  0  0  0  0
  -22.3828   -8.0703   21.3471 C   0  0  0  0  0  0  0  0  0  0  0  0
  -30.8423  -24.8817   22.8500 C   0  0  0  0  0  0  0  0  0  0  0  0
  -20.8952   -6.8537   22.6996 C   0  0  0  0  0  0  0  0  0  0  0  0
  -19.3468   -6.6981   25.0150 C   0  0  0  0  0  0  0  0  0  0  0  0
  -21.1320   -5.8421   23.6303 C   0  0  0  0  0  0  0  0  0  0  0  0
  -24.6189  -11.6060   20.7176 C   0  0  0  0  0  0  0  0  0  0  0  0
  -31.8988  -17.7229   24.6532 C   0  0  0  0  0  0  0  0  0  0  0  0
  -32.8103  -19.6577   25.8678 C   0  0  0  0  0  0  0  0  0  0  0  0
  -25.2681  -13.7008   20.5579 C   0  0  0  0  0  0  0  0  0  0  0  0
  -22.8961  -13.4257   21.2971 C   0  0  0  0  0  0  0  0  0  0  0  0
  -27.0241  -27.3493   19.8840 C   0  0  0  0  0  0  0  0  0  0  0  0
  -28.0261  -25.6102   17.3356 C   0  0  0  0  0  0  0  0  0  0  0  0
  -30.1493  -23.2421   16.0986 C   0  0  0  0  0  0  0  0  0  0  0  0
  -30.7419  -14.7173   20.8793 C   0  0  0  0  0  0  0  0  0  0  0  0
  -24.2929  -31.5884   20.6765 C   0  0  0  0  0  0  0  0  0  0  0  0
  -29.5108  -27.7605   19.9405 C   0  0  0  0  0  0  0  0  0  0  0  0
  -28.8802  -24.8917   19.5983 C   0  0  0  0  0  0  0  0  0  0  0  0
  -24.3747  -30.5318   19.5778 C   0  0  0  0  0  0  0  0  0  0  0  0
  -29.6443  -12.4770   18.3774 C   0  0  0  0  0  0  0  0  0  0  0  0
  -24.3185  -29.1310   20.1790 C   0  0  0  0  0  0  0  0  0  0  0  0
  -28.2160  -12.1272   18.7858 C   0  0  0  0  0  0  0  0  0  0  0  0
  -31.0403  -15.2762   24.4922 C   0  0  0  0  0  0  0  0  0  0  0  0
  -30.5392  -12.6131   19.6020 C   0  0  0  0  0  0  0  0  0  0  0  0
  -30.3173  -14.5037   23.3970 C   0  0  0  0  0  0  0  0  0  0  0  0
  -31.1858  -16.5447   22.4902 C   0  0  0  0  0  0  0  0  0  0  0  0
  -28.6175  -13.3257   20.9983 C   0  0  0  0  0  0  0  0  0  0  0  0
  -25.5055  -28.8858   21.1184 C   0  0  1  0  0  0  0  0  0  0  0  0
  -30.9644  -16.7299   23.9980 C   0  0  2  0  0  0  0  0  0  0  0  0
  -28.3147  -27.2939   19.1165 C   0  0  1  0  0  0  0  0  0  0  0  0
  -27.6728  -13.1549   19.7907 C   0  0  2  0  0  0  0  0  0  0  0  0
  -30.7039  -22.0030   13.9881 C   0  0  0  0  0  0  0  0  0  0  0  0
  -33.5076  -22.1460   23.6330 C   0  0  0  0  0  0  0  0  0  0  0  0
  -32.1834  -20.7770   27.9931 C   0  0  0  0  0  0  0  0  0  0  0  0
  -34.4122  -21.3129   27.0462 C   0  0  0  0  0  0  0  0  0  0  0  0
  -25.5539  -23.8626   17.7150 C   0  0  0  0  0  0  0  0  0  0  0  0
  -26.6305  -22.1425   16.2485 C   0  0  0  0  0  0  0  0  0  0  0  0
  -26.0956  -24.4007   15.3335 C   0  0  0  0  0  0  0  0  0  0  0  0
  -32.9038  -24.3234   16.0501 C   0  0  0  0  0  0  0  0  0  0  0  0
  -32.3229  -22.2041   25.9244 C   0  0  0  0  0  0  0  0  0  0  0  0
  -32.4821  -24.2642   24.4580 C   0  0  0  0  0  0  0  0  0  1  0  0
  -28.0086  -24.1465   16.9668 C   0  0  1  0  0  0  0  0  0  0  0  0
  -31.0130  -23.2168   14.8505 C   0  0  2  0  0  0  0  0  0  0  0  0
  -33.1879  -22.9632   24.8827 C   0  0  2  0  0  0  0  0  0  0  0  0
  -32.9484  -20.9189   26.6278 C   0  0  0  0  0  0  0  0  0  0  0  0
  -26.5853  -23.6473   16.5894 C   0  0  0  0  0  0  0  0  0  0  0  0
  -25.8908  -11.5325   20.3165 N   0  0  0  0  0  0  0  0  0  0  0  0
  -26.2579  -12.8223   20.2282 N   0  0  0  0  0  0  0  0  0  0  0  0
  -28.4641  -25.9205   18.6309 N   0  0  0  0  0  0  0  0  0  0  0  0
  -29.9992  -13.5734   20.5662 N   0  0  0  0  0  0  0  0  0  0  0  0
  -30.6324  -15.2328   22.1702 N   0  0  0  0  0  0  0  0  0  0  0  0
  -25.4675  -15.0355   20.5236 N   0  0  0  0  0  0  0  0  0  0  0  0
  -21.8876  -12.4991   21.5944 N   0  0  0  0  0  0  0  0  0  0  0  0
  -26.7040  -28.6078   20.3564 N   0  0  0  0  0  0  0  0  0  0  0  0
  -29.0000  -23.9800   15.9096 N   0  0  0  0  0  0  0  0  0  0  0  0
  -32.4562  -23.1756   15.2200 N   0  3  0  0  0  0  0  0  0  0  0  0
  -22.6478  -14.6522   21.3835 O   0  0  0  0  0  0  0  0  0  0  0  0
  -26.3667  -26.3262   20.0352 O   0  0  0  0  0  0  0  0  0  0  0  0
  -27.6711  -26.4480   16.5027 O   0  0  0  0  0  0  0  0  0  0  0  0
  -30.4611  -22.6618   17.1363 O   0  0  0  0  0  0  0  0  0  0  0  0
  -31.5048  -15.2346   20.0522 O   0  0  0  0  0  0  0  0  0  0  0  0
  -21.6635   -6.9328   21.5502 O   0  0  0  0  0  0  0  0  0  0  0  0
  -31.2716  -23.9658   23.7747 O   0  0  0  0  0  0  0  0  0  1  0  0
  -18.6043   -6.6244   26.1273 F   0  0  0  0  0  0  0  0  0  0  0  0
  -22.1026   -4.9427   23.4182 F   0  0  0  0  0  0  0  0  0  0  0  0
  -31.2499  -19.1029   25.4323 S   0  0  0  0  0  0  0  0  0  0  0  0
  1  2  1  0  0  0  0
  1  5  2  0  0  0  0
  2  6  2  0  0  0  0
  3  8  2  0  0  0  0
  3 17  1  0  0  0  0
  4  9  1  0  0  0  0
  4 17  2  0  0  0  0
  5 19  1  0  0  0  0
  6 21  1  0  0  0  0
  7 10  2  0  0  0  0
  7 20  1  0  0  0  0
  8 23  1  0  0  0  0
  9 23  2  0  0  0  0
 10 24  1  0  0  0  0
 11 12  2  0  0  0  0
 11 25  1  0  0  0  0
 12 26  1  0  0  0  0
 13 14  1  0  0  0  0
 13 29  2  0  0  0  0
 14 30  2  0  0  0  0
 15 22  1  0  0  0  0
 15 24  2  0  0  0  0
 16 26  2  0  0  0  0
 16 27  1  0  0  0  0
 17 28  1  0  0  0  0
 18 28  1  0  0  0  0
 18 31  2  0  0  0  0
 18 32  1  0  0  0  0
 19 21  2  0  0  0  0
 19 37  1  0  0  0  0
 20 22  2  0  0  0  0
 20 38  1  0  0  0  0
 21 49  1  0  0  0  0
 22 39  1  0  0  0  0
 23 83  1  0  0  0  0
 24 84  1  0  0  0  0
 25 27  2  0  0  0  0
 25 83  1  0  0  0  0
 26 85  1  0  0  0  0
 27 86  1  0  0  0  0
 28 68  2  0  0  0  0
 29 50  1  0  0  0  0
 29 87  1  0  0  0  0
 30 66  1  0  0  0  0
 30 87  1  0  0  0  0
 31 69  1  0  0  0  0
 31 73  1  0  0  0  0
 32 74  1  0  0  0  0
 32 78  2  0  0  0  0
 33 51  1  0  0  0  0
 33 75  1  0  0  0  0
 33 79  2  0  0  0  0
 34 63  1  0  0  0  0
 34 70  1  0  0  0  0
 34 80  2  0  0  0  0
 35 64  1  0  0  0  0
 35 76  1  0  0  0  0
 35 81  2  0  0  0  0
 36 71  1  0  0  0  0
 36 72  1  0  0  0  0
 36 82  2  0  0  0  0
 37 40  1  0  0  0  0
 38 51  1  0  0  0  0
 39 70  1  0  0  0  0
 40 42  1  0  0  0  0
 41 43  1  0  0  0  0
 41 45  1  0  0  0  0
 42 49  1  0  0  0  0
 43 52  1  0  0  0  0
 44 46  1  0  0  0  0
 44 50  1  0  0  0  0
 45 71  1  0  0  0  0
 46 72  1  0  0  0  0
 47 50  1  0  0  0  0
 47 72  1  0  0  0  0
 48 52  1  0  0  0  0
 48 71  1  0  0  0  0
 49 75  1  0  0  0  0
 51 70  1  0  0  0  0
 52 69  1  0  0  0  0
 53 64  1  0  0  0  0
 54 65  1  0  0  0  0
 55 66  1  0  0  0  0
 56 66  1  0  0  0  0
 57 67  1  0  0  0  0
 58 67  1  0  0  0  0
 59 67  1  0  0  0  0
 60 77  1  0  0  0  0
 61 65  1  0  0  0  0
 61 66  1  0  0  0  0
 62 65  1  0  0  0  0
 62 84  1  0  0  0  0
 63 67  1  0  0  0  0
 63 76  1  0  0  0  0
 64 77  1  0  0  0  0
 68 69  1  0  0  0  0
M  CHG  1  77   1
M  ISO  4  36 100  62 101  72 100  84 101
M  END
> <Batch ID>
0147

> <Smiles>
CNC(C)C(=O)NC(C(=O)N1Cc2cc([101O:1][101CH2:1]C(C)CC(C)(C)c3ccc(C4CC[100N:0]([100C:0](=O)N5CCCC(n6nc(-c7ccc(Oc8ccc(F)cc8F)cc7)c(C(N)=O)c6N)C5)C4)s3)ccc2CC1C(=O)NC1CCCc2ccccc21)C(C)(C)C

> <Shape>
0.296

> <Color>
0.210

> <Negative vol penalty>
0.000

$$$$

  -OEChem-04052303133D

 85 94  0     1  0  0  0  0  0999 V2000
  -37.9907  -31.3182   19.0231 C   0  0  0  0  0  0  0  0  0  0  0  0
  -36.7715  -30.8391   19.4914 C   0  0  0  0  0  0  0  0  0  0  0  0
  -23.1285   -9.8632   19.9577 C   0  0  0  0  0  0  0  0  0  0  0  0
  -23.8854   -9.9159   22.2514 C   0  0  0  0  0  0  0  0  0  0  0  0
  -38.4958  -30.8637   17.8056 C   0  0  0  0  0  0  0  0  0  0  0  0
  -36.0561  -29.9058   18.7420 C   0  0  0  0  0  0  0  0  0  0  0  0
  -32.5934  -25.3342   20.8906 C   0  0  0  0  0  0  0  0  0  0  0  0
  -22.4067   -8.6994   20.2226 C   0  0  0  0  0  0  0  0  0  0  0  0
  -23.1637   -8.7521   22.5163 C   0  0  0  0  0  0  0  0  0  0  0  0
  -31.2180  -25.2090   21.0812 C   0  0  0  0  0  0  0  0  0  0  0  0
  -19.4728   -7.8657   21.6819 C   0  0  0  0  0  0  0  0  0  0  0  0
  -18.1676   -7.7876   21.1961 C   0  0  0  0  0  0  0  0  0  0  0  0
  -31.0285  -24.1056   18.9444 C   0  0  0  0  0  0  0  0  0  0  0  0
  -28.5672  -19.1327   20.8290 C   0  0  0  0  0  0  0  0  0  0  0  0
  -18.7662   -5.8380   19.9008 C   0  0  0  0  0  0  0  0  0  0  0  0
  -23.8679  -10.4715   20.9721 C   0  0  0  0  0  0  0  0  0  0  0  0
  -24.1610  -13.0009   20.8182 C   0  0  0  0  0  0  0  0  0  0  0  0
  -37.7909  -29.9171   17.0456 C   0  0  0  0  0  0  0  0  0  0  0  0
  -33.1962  -24.8550   19.7187 C   0  0  0  0  0  0  0  0  0  0  0  0
  -36.5516  -29.4391   17.5126 C   0  0  0  0  0  0  0  0  0  0  0  0
  -32.4121  -24.2237   18.7425 C   0  0  0  0  0  0  0  0  0  0  0  0
  -29.2789  -17.9385   21.0639 C   0  0  0  0  0  0  0  0  0  0  0  0
  -22.4243   -8.1438   21.5019 C   0  0  0  0  0  0  0  0  0  0  0  0
  -30.4349  -24.5973   20.1067 C   0  0  0  0  0  0  0  0  0  0  0  0
  -20.4248   -6.9299   21.2770 C   0  0  0  0  0  0  0  0  0  0  0  0
  -17.8143   -6.7738   20.3056 C   0  0  0  0  0  0  0  0  0  0  0  0
  -20.0715   -5.9161   20.3865 C   0  0  0  0  0  0  0  0  0  0  0  0
  -24.6141  -11.6734   20.6989 C   0  0  0  0  0  0  0  0  0  0  0  0
  -30.1237  -18.0330   22.1323 C   0  0  0  0  0  0  0  0  0  0  0  0
  -25.2389  -13.7664   20.4458 C   0  0  0  0  0  0  0  0  0  0  0  0
  -28.9179  -20.0991   21.7568 C   0  0  0  0  0  0  0  0  0  0  0  0
  -22.8803  -13.4977   21.2289 C   0  0  0  0  0  0  0  0  0  0  0  0
  -34.8227  -26.1787   17.3299 C   0  0  0  0  0  0  0  0  0  0  0  0
  -35.2265  -23.0938   16.4121 C   0  0  0  0  0  0  0  0  0  0  0  0
  -27.5343  -22.1123   21.1434 C   0  0  0  0  0  0  0  0  0  0  0  0
  -34.1015  -19.8730   16.5029 C   0  0  0  0  0  0  0  0  0  0  0  0
  -30.7935  -14.5934   21.0852 C   0  0  0  0  0  0  0  0  0  0  0  0
  -38.3543  -29.4909   15.7131 C   0  0  0  0  0  0  0  0  0  0  0  0
  -34.6849  -24.9738   19.5402 C   0  0  0  0  0  0  0  0  0  0  0  0
  -33.0135  -23.6743   17.4757 C   0  0  0  0  0  0  0  0  0  0  0  0
  -29.3258  -16.6005   20.4498 C   0  0  0  0  0  0  0  0  0  0  0  0
  -37.7142  -28.2205   15.1593 C   0  0  0  0  0  0  0  0  0  0  0  0
  -29.6217  -12.4770   18.2763 C   0  0  0  0  0  0  0  0  0  0  0  0
  -36.1950  -28.2942   15.2748 C   0  0  0  0  0  0  0  0  0  0  0  0
  -28.1930  -12.1428   18.7095 C   0  0  0  0  0  0  0  0  0  0  0  0
  -30.5317  -12.7463   19.4717 C   0  0  0  0  0  0  0  0  0  0  0  0
  -28.5996  -13.4207   20.8449 C   0  0  0  0  0  0  0  0  0  0  0  0
  -35.7580  -28.4077   16.7403 C   0  0  1  0  0  0  0  0  0  0  0  0
  -35.1185  -24.9102   18.0789 C   0  0  1  0  0  0  0  0  0  0  0  0
  -27.6374  -13.2137   19.6676 C   0  0  2  0  0  0  0  0  0  0  0  0
  -30.9078  -16.7866   22.3985 C   0  0  0  0  0  0  0  0  0  0  0  0
  -32.4044  -17.0413   22.1741 C   0  0  0  0  0  0  0  0  0  0  0  0
  -30.6285  -16.2247   23.7938 C   0  0  0  0  0  0  0  0  0  0  0  0
  -34.1018  -17.3946   16.1098 C   0  0  0  0  0  0  0  0  0  0  0  0
  -34.1227  -23.8927   13.6819 C   0  0  0  0  0  0  0  0  0  0  0  0
  -33.7739  -21.4628   13.1895 C   0  0  0  0  0  0  0  0  0  0  0  0
  -36.0754  -22.3322   13.6018 C   0  0  0  0  0  0  0  0  0  0  0  0
  -35.5990  -19.3596   19.0035 C   0  0  0  0  0  0  0  0  0  0  0  0
  -27.3463  -23.5340   21.6606 C   0  0  0  0  0  0  0  0  0  0  0  0
  -28.6271  -24.3543   21.6327 C   0  0  0  0  0  0  0  0  0  1  0  0
  -34.4617  -22.1297   15.5375 C   0  0  1  0  0  0  0  0  0  0  0  0
  -34.8198  -18.5623   16.7683 C   0  0  2  0  0  0  0  0  0  0  0  0
  -34.5965  -22.4663   14.0256 C   0  0  0  0  0  0  0  0  0  0  0  0
  -25.8811  -11.5964   20.2831 N   0  0  0  0  0  0  0  0  0  0  0  0
  -26.2333  -12.8852   20.1378 N   0  0  0  0  0  0  0  0  0  0  0  0
  -34.4726  -23.8202   17.3447 N   0  0  0  0  0  0  0  0  0  0  0  0
  -30.3093  -15.8897   21.3306 N   0  0  0  0  0  0  0  0  0  0  0  0
  -29.9450  -13.7448   20.3617 N   0  0  0  0  0  0  0  0  0  0  0  0
  -25.4236  -15.1006   20.3549 N   0  0  0  0  0  0  0  0  0  0  0  0
  -21.8858  -12.5738   21.5776 N   0  0  0  0  0  0  0  0  0  0  0  0
  -28.4865  -21.3877   21.9113 N   0  0  0  0  0  0  0  0  0  0  0  0
  -35.8346  -27.1177   17.3919 N   0  0  0  0  0  0  0  0  0  0  0  0
  -34.9283  -20.7948   15.8964 N   0  0  0  0  0  0  0  0  0  0  0  0
  -34.8964  -18.3010   18.2335 N   0  3  0  0  0  0  0  0  0  0  0  0
  -22.6203  -14.7242   21.2694 O   0  0  0  0  0  0  0  0  0  0  0  0
  -33.7560  -26.2962   16.7383 O   0  0  0  0  0  0  0  0  0  0  0  0
  -36.4486  -23.1932   16.2777 O   0  0  0  0  0  0  0  0  0  0  0  0
  -26.9169  -21.6833   20.1744 O   0  0  0  0  0  0  0  0  0  0  0  0
  -32.9236  -20.0592   16.8003 O   0  0  0  0  0  0  0  0  0  0  0  0
  -31.9181  -14.2208   21.4354 O   0  0  0  0  0  0  0  0  0  0  0  0
  -21.7199   -7.0083   21.7608 O   0  0  0  0  0  0  0  0  0  0  0  0
  -29.0825  -24.4735   20.2912 O   0  0  0  0  0  0  0  0  0  1  0  0
  -16.5605   -6.6980   19.8404 F   0  0  0  0  0  0  0  0  0  0  0  0
  -20.9814   -5.0136   19.9949 F   0  0  0  0  0  0  0  0  0  0  0  0
  -30.0966  -19.5313   22.8864 S   0  0  0  0  0  0  0  0  0  0  0  0
  1  2  1  0  0  0  0
  1  5  2  0  0  0  0
  2  6  2  0  0  0  0
  3  8  2  0  0  0  0
  3 16  1  0  0  0  0
  4  9  1  0  0  0  0
  4 16  2  0  0  0  0
  5 18  1  0  0  0  0
  6 20  1  0  0  0  0
  7 10  2  0  0  0  0
  7 19  1  0  0  0  0
  8 23  1  0  0  0  0
  9 23  2  0  0  0  0
 10 24  1  0  0  0  0
 11 12  2  0  0  0  0
 11 25  1  0  0  0  0
 12 26  1  0  0  0  0
 13 21  1  0  0  0  0
 13 24  2  0  0  0  0
 14 22  1  0  0  0  0
 14 31  2  0  0  0  0
 15 26  2  0  0  0  0
 15 27  1  0  0  0  0
 16 28  1  0  0  0  0
 17 28  1  0  0  0  0
 17 30  2  0  0  0  0
 17 32  1  0  0  0  0
 18 20  2  0  0  0  0
 18 38  1  0  0  0  0
 19 21  2  0  0  0  0
 19 39  1  0  0  0  0
 20 48  1  0  0  0  0
 21 40  1  0  0  0  0
 22 29  2  0  0  0  0
 22 41  1  0  0  0  0
 23 81  1  0  0  0  0
 24 82  1  0  0  0  0
 25 27  2  0  0  0  0
 25 81  1  0  0  0  0
 26 83  1  0  0  0  0
 27 84  1  0  0  0  0
 28 64  2  0  0  0  0
 29 51  1  0  0  0  0
 29 85  1  0  0  0  0
 30 65  1  0  0  0  0
 30 69  1  0  0  0  0
 31 71  1  0  0  0  0
 31 85  1  0  0  0  0
 32 70  1  0  0  0  0
 32 75  2  0  0  0  0
 33 49  1  0  0  0  0
 33 72  1  0  0  0  0
 33 76  2  0  0  0  0
 34 61  1  0  0  0  0
 34 66  1  0  0  0  0
 34 77  2  0  0  0  0
 35 59  1  0  0  0  0
 35 71  1  0  0  0  0
 35 78  2  0  0  0  0
 36 62  1  0  0  0  0
 36 73  1  0  0  0  0
 36 79  2  0  0  0  0
 37 67  1  0  0  0  0
 37 68  1  0  0  0  0
 37 80  2  0  0  0  0
 38 42  1  0  0  0  0
 39 49  1  0  0  0  0
 40 66  1  0  0  0  0
 41 67  1  0  0  0  0
 42 44  1  0  0  0  0
 43 45  1  0  0  0  0
 43 46  1  0  0  0  0
 44 48  1  0  0  0  0
 45 50  1  0  0  0  0
 46 68  1  0  0  0  0
 47 50  1  0  0  0  0
 47 68  1  0  0  0  0
 48 72  1  0  0  0  0
 49 66  1  0  0  0  0
 50 65  1  0  0  0  0
 51 52  1  0  0  0  0
 51 53  1  0  0  0  0
 51 67  1  0  0  0  0
 54 62  1  0  0  0  0
 55 63  1  0  0  0  0
 56 63  1  0  0  0  0
 57 63  1  0  0  0  0
 58 74  1  0  0  0  0
 59 60  1  0  0  0  0
 60 82  1  0  0  0  0
 61 63  1  0  0  0  0
 61 73  1  0  0  0  0
 62 74  1  0  0  0  0
 64 65  1  0  0  0  0
M  CHG  1  74   1
M  ISO  4  37 100  60 101  67 100  82 101
M  END
> <Batch ID>
0147

> <Smiles>
CNC(C)C(=O)NC(C(=O)N1Cc2cc([101O:1][101CH2:1]CC(=O)Nc3cc4c(s3)C(C)(C)[100N:0]([100C:0](=O)N3CCCC(n5nc(-c6ccc(Oc7ccc(F)cc7F)cc6)c(C(N)=O)c5N)C3)C4)ccc2CC1C(=O)NC1CCCc2ccccc21)C(C)(C)C

> <Shape>
0.205

> <Color>
0.169

> <Negative vol penalty>
0.000

$$$$

  -OEChem-04052303133D

 87 96  0     1  0  0  0  0  0999 V2000
  -27.5813  -35.8038   24.3736 C   0  0  0  0  0  0  0  0  0  0  0  0
  -27.8072  -34.4313   24.3487 C   0  0  0  0  0  0  0  0  0  0  0  0
  -25.8965  -20.6904   18.4995 C   0  0  0  0  0  0  0  0  0  0  0  0
  -24.6353   -9.2271   21.6984 C   0  0  0  0  0  0  0  0  0  0  0  0
  -23.6700  -11.0141   23.0069 C   0  0  0  0  0  0  0  0  0  0  0  0
  -26.8001  -21.6697   18.9117 C   0  0  0  0  0  0  0  0  0  0  0  0
  -26.2794  -36.2964   24.2947 C   0  0  0  0  0  0  0  0  0  0  0  0
  -26.7311  -33.5505   24.2459 C   0  0  0  0  0  0  0  0  0  0  0  0
  -27.5655  -29.8466   20.8947 C   0  0  0  0  0  0  0  0  0  0  0  0
  -26.2156  -19.3405   18.6468 C   0  0  0  0  0  0  0  0  0  0  0  0
  -24.1194   -8.2917   22.5953 C   0  0  0  0  0  0  0  0  0  0  0  0
  -23.1541  -10.0786   23.9038 C   0  0  0  0  0  0  0  0  0  0  0  0
  -28.3809  -28.7915   21.3018 C   0  0  0  0  0  0  0  0  0  0  0  0
  -21.1383   -6.8257   23.2255 C   0  0  0  0  0  0  0  0  0  0  0  0
  -20.5131   -5.6967   22.6965 C   0  0  0  0  0  0  0  0  0  0  0  0
  -28.3422  -19.9493   19.6184 C   0  0  0  0  0  0  0  0  0  0  0  0
  -26.4216  -27.4531   21.7365 C   0  0  0  0  0  0  0  0  0  0  0  0
  -22.1226   -4.2823   23.8127 C   0  0  0  0  0  0  0  0  0  0  0  0
  -24.4107  -10.5883   21.9042 C   0  0  0  0  0  0  0  0  0  0  0  0
  -28.0230  -21.2992   19.4711 C   0  0  0  0  0  0  0  0  0  0  0  0
  -24.3174  -12.0622   19.8242 C   0  0  0  0  0  0  0  0  0  0  0  0
  -25.1875  -35.4215   24.1811 C   0  0  0  0  0  0  0  0  0  0  0  0
  -26.1694  -29.7164   20.9159 C   0  0  0  0  0  0  0  0  0  0  0  0
  -25.4132  -34.0318   24.1667 C   0  0  0  0  0  0  0  0  0  0  0  0
  -25.5908  -28.5071   21.3268 C   0  0  0  0  0  0  0  0  0  0  0  0
  -27.4385  -18.9700   19.2062 C   0  0  0  0  0  0  0  0  0  0  0  0
  -23.3788   -8.7174   23.6980 C   0  0  0  0  0  0  0  0  0  0  0  0
  -27.8089  -27.5955   21.7255 C   0  0  0  0  0  0  0  0  0  0  0  0
  -22.2558   -6.6831   24.0481 C   0  0  0  0  0  0  0  0  0  0  0  0
  -21.0052   -4.4250   22.9900 C   0  0  0  0  0  0  0  0  0  0  0  0
  -22.7479   -5.4113   24.3417 C   0  0  0  0  0  0  0  0  0  0  0  0
  -24.9438  -11.5551   20.9784 C   0  0  0  0  0  0  0  0  0  0  0  0
  -25.2302  -12.9426   19.2968 C   0  0  0  0  0  0  0  0  0  0  0  0
  -28.9783  -22.3332   19.9074 C   0  0  0  0  0  0  0  0  0  0  0  0
  -23.0258  -11.7641   19.2776 C   0  0  0  0  0  0  0  0  0  0  0  0
  -23.8025  -31.1862   22.4459 C   0  0  0  0  0  0  0  0  0  0  0  0
  -21.9420  -29.3381   20.5366 C   0  0  0  0  0  0  0  0  0  0  0  0
  -21.6338  -26.5085   18.6538 C   0  0  0  0  0  0  0  0  0  0  0  0
  -28.9315  -17.0597   19.8906 C   0  0  0  0  0  0  0  0  0  0  0  0
  -23.7948  -35.9994   24.1463 C   0  0  0  0  0  0  0  0  0  0  0  0
  -25.3044  -30.8547   20.4484 C   0  0  0  0  0  0  0  0  0  0  0  0
  -24.0979  -28.3095   21.3489 C   0  0  0  0  0  0  0  0  0  0  0  0
  -22.7372  -35.0109   23.6619 C   0  0  0  0  0  0  0  0  0  0  0  0
  -30.0900  -13.7423   20.4648 C   0  0  0  0  0  0  0  0  0  0  0  0
  -22.9084  -33.6633   24.3556 C   0  0  0  0  0  0  0  0  0  0  0  0
  -28.8029  -12.9193   20.5547 C   0  0  0  0  0  0  0  0  0  0  0  0
  -28.3396  -23.0217   23.4104 C   0  0  0  0  0  0  0  0  0  0  0  0
  -29.9242  -15.1249   21.0931 C   0  0  0  0  0  0  0  0  0  0  0  0
  -27.9328  -22.3067   22.1264 C   0  0  0  0  0  0  0  0  0  0  0  0
  -27.4955  -15.0783   20.6826 C   0  0  0  0  0  0  0  0  0  0  0  0
  -24.2737  -33.0452   24.0311 C   0  0  1  0  0  0  0  0  0  0  0  0
  -23.8830  -30.7901   20.9988 C   0  0  1  0  0  0  0  0  0  0  0  0
  -27.5941  -13.7017   20.0050 C   0  0  2  0  0  0  0  0  0  0  0  0
  -29.7932  -23.8679   21.6730 C   0  0  1  0  0  0  0  0  0  0  0  0
  -29.0159  -24.3251   22.9383 C   0  0  2  0  0  0  0  0  0  0  0  0
  -31.1792  -23.2806   21.9198 C   0  0  0  0  0  0  0  0  0  0  0  0
  -29.8935  -24.9206   24.0429 C   0  0  0  0  0  0  0  0  0  0  0  0
  -19.9819  -25.2501   17.2449 C   0  0  0  0  0  0  0  0  0  0  0  0
  -20.5296  -28.3697   23.0620 C   0  0  0  0  0  0  0  0  0  0  0  0
  -19.5893  -26.4733   21.7250 C   0  0  0  0  0  0  0  0  0  0  0  0
  -19.0118  -28.8253   21.1272 C   0  0  0  0  0  0  0  0  0  0  0  0
  -23.3345  -26.7441   16.2432 C   0  0  0  0  0  0  0  0  0  0  0  0
  -27.9495  -25.3677   22.5457 C   0  0  0  0  0  0  0  0  0  1  0  0
  -21.3374  -27.9590   20.6443 C   0  0  1  0  0  0  0  0  0  0  0  0
  -21.0961  -26.2850   17.2518 C   0  0  2  0  0  0  0  0  0  0  0  0
  -20.1451  -27.9109   21.6412 C   0  0  0  0  0  0  0  0  0  0  0  0
  -26.1606  -12.0703   21.1733 N   0  0  0  0  0  0  0  0  0  0  0  0
  -26.3061  -12.9103   20.1343 N   0  0  0  0  0  0  0  0  0  0  0  0
  -28.9204  -22.7895   21.1470 N   0  0  0  0  0  0  0  0  0  0  0  0
  -23.2943  -29.4539   20.8884 N   0  0  0  0  0  0  0  0  0  0  0  0
  -28.7624  -15.8087   20.5208 N   0  0  0  0  0  0  0  0  0  0  0  0
  -25.2095  -13.7333   18.2029 N   0  0  0  0  0  0  0  0  0  0  0  0
  -22.2155  -10.8361   19.9459 N   0  0  0  0  0  0  0  0  0  0  0  0
  -27.7619  -17.5985   19.3554 N   0  0  0  0  0  0  0  0  0  0  0  0
  -24.2629  -32.4628   22.7063 N   0  0  0  0  0  0  0  0  0  0  0  0
  -20.9960  -27.5556   19.2845 N   0  0  0  0  0  0  0  0  0  0  0  0
  -29.8846  -22.7898   19.0481 N   0  3  0  0  0  0  0  0  0  0  0  0
  -22.1834  -25.8111   16.3495 N   0  3  0  0  0  0  0  0  0  0  0  0
  -22.6095  -12.2924   18.2188 O   0  0  0  0  0  0  0  0  0  0  0  0
  -23.3543  -30.3929   23.2654 O   0  0  0  0  0  0  0  0  0  0  0  0
  -21.2423  -30.2765   20.1476 O   0  0  0  0  0  0  0  0  0  0  0  0
  -22.5275  -25.8203   19.1419 O   0  0  0  0  0  0  0  0  0  0  0  0
  -30.0375  -17.5996   19.8062 O   0  0  0  0  0  0  0  0  0  0  0  0
  -22.8750   -7.8049   24.5732 O   0  0  0  0  0  0  0  0  0  0  0  0
  -28.6025  -26.5643   22.1239 O   0  0  0  0  0  0  0  0  0  1  0  0
  -20.4037   -3.3408   22.4832 F   0  0  0  0  0  0  0  0  0  0  0  0
  -23.8204   -5.2679   25.1323 F   0  0  0  0  0  0  0  0  0  0  0  0
  1  2  1  0  0  0  0
  1  7  2  0  0  0  0
  2  8  2  0  0  0  0
  3  6  2  0  0  0  0
  3 10  1  0  0  0  0
  4 11  2  0  0  0  0
  4 19  1  0  0  0  0
  5 12  1  0  0  0  0
  5 19  2  0  0  0  0
  6 20  1  0  0  0  0
  7 22  1  0  0  0  0
  8 24  1  0  0  0  0
  9 13  2  0  0  0  0
  9 23  1  0  0  0  0
 10 26  2  0  0  0  0
 11 27  1  0  0  0  0
 12 27  2  0  0  0  0
 13 28  1  0  0  0  0
 14 15  2  0  0  0  0
 14 29  1  0  0  0  0
 15 30  1  0  0  0  0
 16 20  2  0  0  0  0
 16 26  1  0  0  0  0
 17 25  1  0  0  0  0
 17 28  2  0  0  0  0
 18 30  2  0  0  0  0
 18 31  1  0  0  0  0
 19 32  1  0  0  0  0
 20 34  1  0  0  0  0
 21 32  1  0  0  0  0
 21 33  2  0  0  0  0
 21 35  1  0  0  0  0
 22 24  2  0  0  0  0
 22 40  1  0  0  0  0
 23 25  2  0  0  0  0
 23 41  1  0  0  0  0
 24 51  1  0  0  0  0
 25 42  1  0  0  0  0
 26 74  1  0  0  0  0
 27 84  1  0  0  0  0
 28 85  1  0  0  0  0
 29 31  2  0  0  0  0
 29 84  1  0  0  0  0
 30 86  1  0  0  0  0
 31 87  1  0  0  0  0
 32 67  2  0  0  0  0
 33 68  1  0  0  0  0
 33 72  1  0  0  0  0
 34 69  1  0  0  0  0
 34 77  2  0  0  0  0
 35 73  1  0  0  0  0
 35 79  2  0  0  0  0
 36 52  1  0  0  0  0
 36 75  1  0  0  0  0
 36 80  2  0  0  0  0
 37 64  1  0  0  0  0
 37 70  1  0  0  0  0
 37 81  2  0  0  0  0
 38 65  1  0  0  0  0
 38 76  1  0  0  0  0
 38 82  2  0  0  0  0
 39 71  1  0  0  0  0
 39 74  1  0  0  0  0
 39 83  2  0  0  0  0
 40 43  1  0  0  0  0
 41 52  1  0  0  0  0
 42 70  1  0  0  0  0
 43 45  1  0  0  0  0
 44 46  1  0  0  0  0
 44 48  1  0  0  0  0
 45 51  1  0  0  0  0
 46 53  1  0  0  0  0
 47 49  1  0  0  0  0
 47 55  1  0  0  0  0
 48 71  1  0  0  0  0
 49 69  1  0  0  0  0
 50 53  1  0  0  0  0
 50 71  1  0  0  0  0
 51 75  1  0  0  0  0
 52 70  1  0  0  0  0
 53 68  1  0  0  0  0
 54 55  1  0  0  0  0
 54 56  1  0  0  0  0
 54 69  1  0  0  0  0
 55 57  1  0  0  0  0
 55 63  1  0  0  0  0
 58 65  1  0  0  0  0
 59 66  1  0  0  0  0
 60 66  1  0  0  0  0
 61 66  1  0  0  0  0
 62 78  1  0  0  0  0
 63 85  1  0  0  0  0
 64 66  1  0  0  0  0
 64 76  1  0  0  0  0
 65 78  1  0  0  0  0
 67 68  1  0  0  0  0
M  CHG  2  77   1  78   1
M  ISO  4  39 100  63 101  74 100  85 101
M  END
> <Batch ID>
0147

> <Smiles>
CNC(C)C(=O)NC(C(=O)N1Cc2cc([101O:1][101CH2:1]C3(C)CCN(C(=N)c4cccc([100NH:0][100C:0](=O)N5CCCC(n6nc(-c7ccc(Oc8ccc(F)cc8F)cc7)c(C(N)=O)c6N)C5)c4)C3C)ccc2CC1C(=O)NC1CCCc2ccccc21)C(C)(C)C

> <Shape>
0.326

> <Color>
0.078

> <Negative vol penalty>
0.000

$$$$

  -OEChem-04052303133D

 85 94  0     1  0  0  0  0  0999 V2000
  -22.9279  -21.8016   18.0221 C   0  0  0  0  0  0  0  0  0  0  0  0
  -24.1095  -21.1429   17.6978 C   0  0  0  0  0  0  0  0  0  0  0  0
  -23.8954  -29.3197   21.3717 C   0  0  0  0  0  0  0  0  0  0  0  0
  -26.1342  -29.4295   20.4702 C   0  0  0  0  0  0  0  0  0  0  0  0
  -22.2734  -21.5088   19.2179 C   0  0  0  0  0  0  0  0  0  0  0  0
  -24.6381  -20.1917   18.5698 C   0  0  0  0  0  0  0  0  0  0  0  0
  -28.3402  -14.0589   18.5635 C   0  0  0  0  0  0  0  0  0  0  0  0
  -23.8367  -30.7130   21.3958 C   0  0  0  0  0  0  0  0  0  0  0  0
  -26.0755  -30.8229   20.4943 C   0  0  0  0  0  0  0  0  0  0  0  0
  -29.4749  -13.4852   19.1354 C   0  0  0  0  0  0  0  0  0  0  0  0
  -23.2340  -34.2424   22.0313 C   0  0  0  0  0  0  0  0  0  0  0  0
  -22.7229  -34.8518   23.1771 C   0  0  0  0  0  0  0  0  0  0  0  0
  -30.9432  -17.6840   22.5557 C   0  0  0  0  0  0  0  0  0  0  0  0
  -28.2159  -13.0038   21.1360 C   0  0  0  0  0  0  0  0  0  0  0  0
  -30.7871  -17.5193   20.1092 C   0  0  0  0  0  0  0  0  0  0  0  0
  -24.4701  -33.8326   24.4984 C   0  0  0  0  0  0  0  0  0  0  0  0
  -25.0442  -28.6779   20.9090 C   0  0  0  0  0  0  0  0  0  0  0  0
  -24.2589  -26.3634   20.1779 C   0  0  0  0  0  0  0  0  0  0  0  0
  -22.7891  -20.5465   20.1004 C   0  0  0  0  0  0  0  0  0  0  0  0
  -27.1356  -14.1192   19.2790 C   0  0  0  0  0  0  0  0  0  0  0  0
  -23.9906  -19.8867   19.7791 C   0  0  0  0  0  0  0  0  0  0  0  0
  -30.3452  -18.9095   22.4434 C   0  0  0  0  0  0  0  0  0  0  0  0
  -27.0666  -13.5765   20.5700 C   0  0  0  0  0  0  0  0  0  0  0  0
  -30.1768  -18.7716   20.0187 C   0  0  0  0  0  0  0  0  0  0  0  0
  -29.9945  -19.4082   21.2135 C   0  0  0  0  0  0  0  0  0  0  0  0
  -31.1672  -16.9808   21.3634 C   0  0  0  0  0  0  0  0  0  0  0  0
  -24.9267  -31.4647   20.9571 C   0  0  0  0  0  0  0  0  0  0  0  0
  -29.4137  -12.9602   20.4229 C   0  0  0  0  0  0  0  0  0  0  0  0
  -24.3631  -33.4280   22.1189 C   0  0  0  0  0  0  0  0  0  0  0  0
  -23.3410  -34.6469   24.4107 C   0  0  0  0  0  0  0  0  0  0  0  0
  -24.9811  -33.2232   23.3525 C   0  0  0  0  0  0  0  0  0  0  0  0
  -25.1056  -27.2385   20.8844 C   0  0  0  0  0  0  0  0  0  0  0  0
  -24.7296  -25.1096   20.4826 C   0  0  0  0  0  0  0  0  0  0  0  0
  -23.1464  -26.6577   19.3227 C   0  0  0  0  0  0  0  0  0  0  0  0
  -25.2700  -16.4654   20.3367 C   0  0  0  0  0  0  0  0  0  0  0  0
  -23.3127  -14.0126   21.1583 C   0  0  0  0  0  0  0  0  0  0  0  0
  -32.2306  -15.0240   22.5392 C   0  0  0  0  0  0  0  0  0  0  0  0
  -22.9817  -10.7072   21.9404 C   0  0  0  0  0  0  0  0  0  0  0  0
  -28.7783  -21.5587   21.0960 C   0  0  0  0  0  0  0  0  0  0  0  0
  -22.0714  -20.2980   21.4034 C   0  0  0  0  0  0  0  0  0  0  0  0
  -25.9135  -14.7173   18.6378 C   0  0  0  0  0  0  0  0  0  0  0  0
  -29.8147  -20.1413   23.1163 C   0  0  0  0  0  0  0  0  0  0  0  0
  -25.7922  -13.5981   21.3723 C   0  0  0  0  0  0  0  0  0  0  0  0
  -22.4982  -19.0070   22.0972 C   0  0  0  0  0  0  0  0  0  0  0  0
  -28.1116  -23.6177   23.9462 C   0  0  0  0  0  0  0  0  0  0  0  0
  -24.0188  -18.8867   22.1126 C   0  0  0  0  0  0  0  0  0  0  0  0
  -27.1655  -24.6616   23.3472 C   0  0  0  0  0  0  0  0  0  0  0  0
  -29.2289  -23.2717   22.9675 C   0  0  0  0  0  0  0  0  0  0  0  0
  -27.8403  -23.8425   21.0373 C   0  0  0  0  0  0  0  0  0  0  0  0
  -24.5822  -18.8307   20.6875 C   0  0  1  0  0  0  0  0  0  0  0  0
  -24.8756  -15.1871   19.6525 C   0  0  1  0  0  0  0  0  0  0  0  0
  -26.6647  -24.2371   21.9524 C   0  0  2  0  0  0  0  0  0  0  0  0
  -29.7669  -19.3073   18.6994 C   0  0  0  0  0  0  0  0  0  0  0  0
  -21.8248   -8.5464   22.4792 C   0  0  0  0  0  0  0  0  0  0  0  0
  -23.2622  -15.1640   23.9834 C   0  0  0  0  0  0  0  0  0  0  0  0
  -22.3577  -12.9716   24.7858 C   0  0  0  0  0  0  0  0  0  0  0  0
  -21.0528  -14.3355   23.1549 C   0  0  0  0  0  0  0  0  0  0  0  0
  -22.7258   -9.9963   19.0789 C   0  0  0  0  0  0  0  0  0  0  0  0
  -32.8404  -13.6860   22.1447 C   0  0  0  0  0  0  0  0  0  0  0  0
  -32.1168  -12.5017   22.7762 C   0  0  0  0  0  0  0  0  0  0  0  0
  -30.6420  -12.4792   22.4017 C   0  0  0  0  0  0  0  0  0  1  0  0
  -23.1435  -13.1432   22.3808 C   0  0  1  0  0  0  0  0  0  0  0  0
  -22.0130   -9.6475   21.4472 C   0  0  2  0  0  0  0  0  0  0  0  0
  -22.4787  -13.9048   23.5621 C   0  0  0  0  0  0  0  0  0  0  0  0
  -26.0431  -26.5951   21.5852 N   0  0  0  0  0  0  0  0  0  0  0  0
  -25.7882  -25.3024   21.3207 N   0  0  0  0  0  0  0  0  0  0  0  0
  -29.4667  -20.5673   21.7470 N   0  0  0  0  0  0  0  0  0  0  0  0
  -24.6260  -14.1993   20.7043 N   0  0  0  0  0  0  0  0  0  0  0  0
  -28.6628  -22.8175   21.6949 N   0  0  0  0  0  0  0  0  0  0  0  0
  -24.3370  -23.8721   20.1128 N   0  0  0  0  0  0  0  0  0  0  0  0
  -23.3864  -26.8438   17.9544 N   0  0  0  0  0  0  0  0  0  0  0  0
  -31.7795  -15.7268   21.4111 N   0  0  0  0  0  0  0  0  0  0  0  0
  -24.3942  -17.5122   20.1211 N   0  0  0  0  0  0  0  0  0  0  0  0
  -22.4088  -11.9614   21.9428 N   0  0  0  0  0  0  0  0  0  0  0  0
  -22.5176   -9.0302   20.1881 N   0  3  0  0  0  0  0  0  0  0  0  0
  -21.9765  -26.7689   19.7615 O   0  0  0  0  0  0  0  0  0  0  0  0
  -26.2924  -16.4990   21.0115 O   0  0  0  0  0  0  0  0  0  0  0  0
  -22.3157  -14.5019   20.6215 O   0  0  0  0  0  0  0  0  0  0  0  0
  -32.1674  -15.3916   23.7076 O   0  0  0  0  0  0  0  0  0  0  0  0
  -24.1304  -10.4477   22.2921 O   0  0  0  0  0  0  0  0  0  0  0  0
  -28.2369  -21.3234   20.0053 O   0  0  0  0  0  0  0  0  0  0  0  0
  -24.8697  -32.8244   20.9802 O   0  0  0  0  0  0  0  0  0  0  0  0
  -30.5281  -12.3961   20.9878 O   0  0  0  0  0  0  0  0  0  1  0  0
  -22.8510  -35.2334   25.5108 F   0  0  0  0  0  0  0  0  0  0  0  0
  -26.0668  -32.4428   23.4428 F   0  0  0  0  0  0  0  0  0  0  0  0
  1  2  1  0  0  0  0
  1  5  2  0  0  0  0
  2  6  2  0  0  0  0
  3  8  2  0  0  0  0
  3 17  1  0  0  0  0
  4  9  1  0  0  0  0
  4 17  2  0  0  0  0
  5 19  1  0  0  0  0
  6 21  1  0  0  0  0
  7 10  2  0  0  0  0
  7 20  1  0  0  0  0
  8 27  1  0  0  0  0
  9 27  2  0  0  0  0
 10 28  1  0  0  0  0
 11 12  2  0  0  0  0
 11 29  1  0  0  0  0
 12 30  1  0  0  0  0
 13 22  1  0  0  0  0
 13 26  2  0  0  0  0
 14 23  1  0  0  0  0
 14 28  2  0  0  0  0
 15 24  2  0  0  0  0
 15 26  1  0  0  0  0
 16 30  2  0  0  0  0
 16 31  1  0  0  0  0
 17 32  1  0  0  0  0
 18 32  1  0  0  0  0
 18 33  2  0  0  0  0
 18 34  1  0  0  0  0
 19 21  2  0  0  0  0
 19 40  1  0  0  0  0
 20 23  2  0  0  0  0
 20 41  1  0  0  0  0
 21 50  1  0  0  0  0
 22 25  2  0  0  0  0
 22 42  1  0  0  0  0
 23 43  1  0  0  0  0
 24 25  1  0  0  0  0
 24 53  1  0  0  0  0
 25 67  1  0  0  0  0
 26 72  1  0  0  0  0
 27 82  1  0  0  0  0
 28 83  1  0  0  0  0
 29 31  2  0  0  0  0
 29 82  1  0  0  0  0
 30 84  1  0  0  0  0
 31 85  1  0  0  0  0
 32 65  2  0  0  0  0
 33 66  1  0  0  0  0
 33 70  1  0  0  0  0
 34 71  1  0  0  0  0
 34 76  2  0  0  0  0
 35 51  1  0  0  0  0
 35 73  1  0  0  0  0
 35 77  2  0  0  0  0
 36 62  1  0  0  0  0
 36 68  1  0  0  0  0
 36 78  2  0  0  0  0
 37 59  1  0  0  0  0
 37 72  1  0  0  0  0
 37 79  2  0  0  0  0
 38 63  1  0  0  0  0
 38 74  1  0  0  0  0
 38 80  2  0  0  0  0
 39 67  1  0  0  0  0
 39 69  1  0  0  0  0
 39 81  2  0  0  0  0
 40 44  1  0  0  0  0
 41 51  1  0  0  0  0
 42 67  1  0  0  0  0
 43 68  1  0  0  0  0
 44 46  1  0  0  0  0
 45 47  1  0  0  0  0
 45 48  1  0  0  0  0
 46 50  1  0  0  0  0
 47 52  1  0  0  0  0
 48 69  1  0  0  0  0
 49 52  1  0  0  0  0
 49 69  1  0  0  0  0
 50 73  1  0  0  0  0
 51 68  1  0  0  0  0
 52 66  1  0  0  0  0
 54 63  1  0  0  0  0
 55 64  1  0  0  0  0
 56 64  1  0  0  0  0
 57 64  1  0  0  0  0
 58 75  1  0  0  0  0
 59 60  1  0  0  0  0
 60 61  1  0  0  0  0
 61 83  1  0  0  0  0
 62 64  1  0  0  0  0
 62 74  1  0  0  0  0
 63 75  1  0  0  0  0
 65 66  1  0  0  0  0
M  CHG  1  75   1
M  ISO  4  39 100  61 101  67 100  83 101
M  END
> <Batch ID>
0147

> <Smiles>
CNC(C)C(=O)NC(C(=O)N1Cc2cc([101O:1][101CH2:1]CCC(=O)Nc3cc(C)c4c(c3)C[100N:0]4[100C:0](=O)N3CCCC(n4nc(-c5ccc(Oc6ccc(F)cc6F)cc5)c(C(N)=O)c4N)C3)ccc2CC1C(=O)NC1CCCc2ccccc21)C(C)(C)C

> <Shape>
0.237

> <Color>
0.054

> <Negative vol penalty>
0.000

$$$$

  -OEChem-04052303133D

 87 95  0     1  0  0  0  0  0999 V2000
  -16.8140  -31.6945   20.9458 C   0  0  0  0  0  0  0  0  0  0  0  0
  -17.9621  -31.9476   20.2020 C   0  0  0  0  0  0  0  0  0  0  0  0
  -26.5918  -10.4994   20.4460 C   0  0  0  0  0  0  0  0  0  0  0  0
  -25.6031  -12.1470   18.9814 C   0  0  0  0  0  0  0  0  0  0  0  0
  -16.8898  -31.6084   22.3353 C   0  0  0  0  0  0  0  0  0  0  0  0
  -19.1866  -32.1159   20.8475 C   0  0  0  0  0  0  0  0  0  0  0  0
  -24.7838  -27.8332   19.3572 C   0  0  0  0  0  0  0  0  0  0  0  0
  -25.3674   -9.8362   20.5265 C   0  0  0  0  0  0  0  0  0  0  0  0
  -24.3787  -11.4838   19.0619 C   0  0  0  0  0  0  0  0  0  0  0  0
  -25.9619  -27.1910   18.9752 C   0  0  0  0  0  0  0  0  0  0  0  0
  -23.5553   -7.7113   18.6200 C   0  0  0  0  0  0  0  0  0  0  0  0
  -23.5608   -6.3224   18.4920 C   0  0  0  0  0  0  0  0  0  0  0  0
  -27.1794  -28.3791   20.6939 C   0  0  0  0  0  0  0  0  0  0  0  0
  -22.5981   -6.1152   20.6982 C   0  0  0  0  0  0  0  0  0  0  0  0
  -28.1352  -20.1546   19.1220 C   0  0  0  0  0  0  0  0  0  0  0  0
  -26.7097  -11.6549   19.6735 C   0  0  0  0  0  0  0  0  0  0  0  0
  -28.9999  -12.1218   18.6514 C   0  0  0  0  0  0  0  0  0  0  0  0
  -18.1175  -31.7662   22.9975 C   0  0  0  0  0  0  0  0  0  0  0  0
  -24.7961  -28.7404   20.4203 C   0  0  0  0  0  0  0  0  0  0  0  0
  -19.2787  -32.0332   22.2473 C   0  0  0  0  0  0  0  0  0  0  0  0
  -26.0001  -29.0160   21.0891 C   0  0  0  0  0  0  0  0  0  0  0  0
  -24.2608  -10.3284   19.8344 C   0  0  0  0  0  0  0  0  0  0  0  0
  -27.1567  -27.4635   19.6418 C   0  0  0  0  0  0  0  0  0  0  0  0
  -23.0714   -8.3022   19.7872 C   0  0  0  0  0  0  0  0  0  0  0  0
  -23.0821   -5.5243   19.5310 C   0  0  0  0  0  0  0  0  0  0  0  0
  -22.5927   -7.5042   20.8263 C   0  0  0  0  0  0  0  0  0  0  0  0
  -27.9741  -12.3407   19.5904 C   0  0  0  0  0  0  0  0  0  0  0  0
  -28.9207  -19.8981   20.2262 C   0  0  0  0  0  0  0  0  0  0  0  0
  -29.9800  -13.0194   18.9981 C   0  0  0  0  0  0  0  0  0  0  0  0
  -29.1939  -22.0718   20.1251 C   0  0  0  0  0  0  0  0  0  0  0  0
  -29.0612  -11.1905   17.5630 C   0  0  0  0  0  0  0  0  0  0  0  0
  -22.8336  -31.0864   22.5929 C   0  0  0  0  0  0  0  0  0  0  0  0
  -31.5083  -25.1338   19.8422 C   0  0  0  0  0  0  0  0  0  0  0  0
  -24.8055  -29.6146   24.4248 C   0  0  0  0  0  0  0  0  0  0  0  0
  -26.8268  -27.4803   26.1558 C   0  0  0  0  0  0  0  0  0  0  0  0
  -29.8877  -18.2562   21.8741 C   0  0  0  0  0  0  0  0  0  0  0  0
  -18.1418  -31.7116   24.5045 C   0  0  0  0  0  0  0  0  0  0  0  0
  -23.5632  -29.5013   20.8261 C   0  0  0  0  0  0  0  0  0  0  0  0
  -25.9726  -30.0251   22.2045 C   0  0  0  0  0  0  0  0  0  0  0  0
  -19.5419  -31.5300   25.0849 C   0  0  0  0  0  0  0  0  0  0  0  0
  -31.7456  -15.3588   22.7855 C   0  0  0  0  0  0  0  0  0  0  0  0
  -20.5262  -32.4818   24.4126 C   0  0  0  0  0  0  0  0  0  0  0  0
  -31.0865  -14.2372   21.9794 C   0  0  0  0  0  0  0  0  0  0  0  0
  -30.7222  -16.3816   23.2757 C   0  0  0  0  0  0  0  0  0  0  0  0
  -29.1957  -15.8199   21.4254 C   0  0  0  0  0  0  0  0  0  0  0  0
  -20.6296  -32.1970   22.9093 C   0  0  1  0  0  0  0  0  0  0  0  0
  -23.4838  -29.7577   22.3417 C   0  0  1  0  0  0  0  0  0  0  0  0
  -30.1949  -14.8000   20.8552 C   0  0  2  0  0  0  0  0  0  0  0  0
  -27.5790  -23.8904   21.8890 C   0  0  0  0  0  0  0  0  0  0  0  0
  -27.5918  -26.9457   28.4852 C   0  0  0  0  0  0  0  0  0  0  0  0
  -31.9772  -23.4759   21.6649 C   0  0  0  0  0  0  0  0  0  0  0  0
  -31.8608  -22.7067   19.3084 C   0  0  0  0  0  0  0  0  0  0  0  0
  -26.6352  -32.0547   24.3799 C   0  0  0  0  0  0  0  0  0  0  0  0
  -27.9949  -30.9800   26.1867 C   0  0  0  0  0  0  0  0  0  0  0  0
  -25.6059  -31.5629   26.6055 C   0  0  0  0  0  0  0  0  0  0  0  0
  -25.7108  -24.7427   26.0186 C   0  0  0  0  0  0  0  0  0  0  0  0
  -30.8880  -25.5816   18.5192 C   0  0  0  0  0  0  0  0  0  0  0  0
  -29.1005  -23.9811   21.8137 C   0  0  0  0  0  0  0  0  0  0  0  0
  -30.5740  -27.0784   18.4388 C   0  0  0  0  0  0  0  0  0  0  0  0
  -29.5270  -27.5301   19.4530 C   0  0  0  0  0  0  0  0  0  1  0  0
  -29.6704  -23.4857   20.4559 C   0  0  1  0  0  0  0  0  0  0  0  0
  -26.1595  -29.6179   25.0882 C   0  0  1  0  0  0  0  0  0  0  0  0
  -26.5777  -26.6386   27.3943 C   0  0  2  0  0  0  0  0  0  0  0  0
  -31.2313  -23.6816   20.3286 C   0  0  0  0  0  0  0  0  0  0  0  0
  -26.5944  -31.0405   25.5404 C   0  0  0  0  0  0  0  0  0  0  0  0
  -28.2748  -13.3018   20.4678 N   0  0  0  0  0  0  0  0  0  0  0  0
  -29.5289  -20.9962   20.8025 N   0  0  0  0  0  0  0  0  0  0  0  0
  -29.5006  -13.6947   20.0817 N   0  0  0  0  0  0  0  0  0  0  0  0
  -24.7792  -29.8182   23.0398 N   0  0  0  0  0  0  0  0  0  0  0  0
  -29.9170  -16.8740   22.1559 N   0  0  0  0  0  0  0  0  0  0  0  0
  -31.1966  -13.2888   18.4787 N   0  0  0  0  0  0  0  0  0  0  0  0
  -27.9670  -10.3415   17.3477 N   0  0  0  0  0  0  0  0  0  0  0  0
  -29.1144  -18.6026   20.7666 N   0  0  0  0  0  0  0  0  0  0  0  0
  -21.4550  -31.0323   22.6712 N   0  0  0  0  0  0  0  0  0  0  0  0
  -26.0859  -28.6431   26.1711 N   0  0  0  0  0  0  0  0  0  0  0  0
  -26.6694  -25.1886   27.0622 N   0  3  0  0  0  0  0  0  0  0  0  0
  -30.0635  -11.1022   16.8139 O   0  0  0  0  0  0  0  0  0  0  0  0
  -23.5304  -32.0877   22.7090 O   0  0  0  0  0  0  0  0  0  0  0  0
  -32.2189  -25.9019   20.4954 O   0  0  0  0  0  0  0  0  0  0  0  0
  -23.7965  -29.4422   25.1143 O   0  0  0  0  0  0  0  0  0  0  0  0
  -27.6039  -27.1420   25.2657 O   0  0  0  0  0  0  0  0  0  0  0  0
  -30.5251  -19.0696   22.5480 O   0  0  0  0  0  0  0  0  0  0  0  0
  -23.0659   -9.6813   19.9125 O   0  0  0  0  0  0  0  0  0  0  0  0
  -28.3118  -26.8244   19.2635 O   0  0  0  0  0  0  0  0  0  1  0  0
  -23.0860   -4.1906   19.4073 F   0  0  0  0  0  0  0  0  0  0  0  0
  -22.1254   -8.0661   21.9495 F   0  0  0  0  0  0  0  0  0  0  0  0
  -28.1499  -21.8359   18.7836 S   0  0  0  0  0  0  0  0  0  0  0  0
  1  2  1  0  0  0  0
  1  5  2  0  0  0  0
  2  6  2  0  0  0  0
  3  8  2  0  0  0  0
  3 16  1  0  0  0  0
  4  9  1  0  0  0  0
  4 16  2  0  0  0  0
  5 18  1  0  0  0  0
  6 20  1  0  0  0  0
  7 10  2  0  0  0  0
  7 19  1  0  0  0  0
  8 22  1  0  0  0  0
  9 22  2  0  0  0  0
 10 23  1  0  0  0  0
 11 12  2  0  0  0  0
 11 24  1  0  0  0  0
 12 25  1  0  0  0  0
 13 21  1  0  0  0  0
 13 23  2  0  0  0  0
 14 25  2  0  0  0  0
 14 26  1  0  0  0  0
 15 28  2  0  0  0  0
 15 87  1  0  0  0  0
 16 27  1  0  0  0  0
 17 27  1  0  0  0  0
 17 29  2  0  0  0  0
 17 31  1  0  0  0  0
 18 20  2  0  0  0  0
 18 37  1  0  0  0  0
 19 21  2  0  0  0  0
 19 38  1  0  0  0  0
 20 46  1  0  0  0  0
 21 39  1  0  0  0  0
 22 83  1  0  0  0  0
 23 84  1  0  0  0  0
 24 26  2  0  0  0  0
 24 83  1  0  0  0  0
 25 85  1  0  0  0  0
 26 86  1  0  0  0  0
 27 66  2  0  0  0  0
 28 67  1  0  0  0  0
 28 73  1  0  0  0  0
 29 68  1  0  0  0  0
 29 71  1  0  0  0  0
 30 61  1  0  0  0  0
 30 67  2  0  0  0  0
 30 87  1  0  0  0  0
 31 72  1  0  0  0  0
 31 77  2  0  0  0  0
 32 47  1  0  0  0  0
 32 74  1  0  0  0  0
 32 78  2  0  0  0  0
 33 57  1  0  0  0  0
 33 64  1  0  0  0  0
 33 79  2  0  0  0  0
 34 62  1  0  0  0  0
 34 69  1  0  0  0  0
 34 80  2  0  0  0  0
 35 63  1  0  0  0  0
 35 75  1  0  0  0  0
 35 81  2  0  0  0  0
 36 70  1  0  0  0  0
 36 73  1  0  0  0  0
 36 82  2  0  0  0  0
 37 40  1  0  0  0  0
 38 47  1  0  0  0  0
 39 69  1  0  0  0  0
 40 42  1  0  0  0  0
 41 43  1  0  0  0  0
 41 44  1  0  0  0  0
 42 46  1  0  0  0  0
 43 48  1  0  0  0  0
 44 70  1  0  0  0  0
 45 48  1  0  0  0  0
 45 70  1  0  0  0  0
 46 74  1  0  0  0  0
 47 69  1  0  0  0  0
 48 68  1  0  0  0  0
 49 58  1  0  0  0  0
 50 63  1  0  0  0  0
 51 64  1  0  0  0  0
 52 64  1  0  0  0  0
 53 65  1  0  0  0  0
 54 65  1  0  0  0  0
 55 65  1  0  0  0  0
 56 76  1  0  0  0  0
 57 59  1  0  0  0  0
 58 61  1  0  0  0  0
 59 60  1  0  0  0  0
 60 84  1  0  0  0  0
 61 64  1  0  0  0  0
 62 65  1  0  0  0  0
 62 75  1  0  0  0  0
 63 76  1  0  0  0  0
 66 68  1  0  0  0  0
M  CHG  1  76   1
M  ISO  4  36 100  60 101  73 100  84 101
M  END
> <Batch ID>
0147

> <Smiles>
CCC(c1nc([100NH:0][100C:0](=O)N2CCCC(n3nc(-c4ccc(Oc5ccc(F)cc5F)cc4)c(C(N)=O)c3N)C2)cs1)C(C)(C)C(=O)CC[101CH2:1][101O:1]c1ccc2c(c1)CN(C(=O)C(NC(=O)C(C)NC)C(C)(C)C)C(C(=O)NC1CCCc3ccccc31)C2

> <Shape>
0.315

> <Color>
0.087

> <Negative vol penalty>
0.000

$$$$

  -OEChem-04052303133D

 83 92  0     1  0  0  0  0  0999 V2000
  -29.1136  -37.0097   24.7102 C   0  0  0  0  0  0  0  0  0  0  0  0
  -29.4264  -35.7236   24.2819 C   0  0  0  0  0  0  0  0  0  0  0  0
  -24.3069   -9.2837   19.9476 C   0  0  0  0  0  0  0  0  0  0  0  0
  -24.7026   -9.7500   22.2849 C   0  0  0  0  0  0  0  0  0  0  0  0
  -27.8458  -37.2839   25.2214 C   0  0  0  0  0  0  0  0  0  0  0  0
  -28.4718  -34.7106   24.3656 C   0  0  0  0  0  0  0  0  0  0  0  0
  -27.6956  -30.0521   20.4666 C   0  0  0  0  0  0  0  0  0  0  0  0
  -24.0523   -7.9477   20.2572 C   0  0  0  0  0  0  0  0  0  0  0  0
  -24.4480   -8.4140   22.5945 C   0  0  0  0  0  0  0  0  0  0  0  0
  -28.1080  -28.7208   20.5018 C   0  0  0  0  0  0  0  0  0  0  0  0
  -21.7472   -6.4212   22.9886 C   0  0  0  0  0  0  0  0  0  0  0  0
  -20.9244   -6.1567   24.0834 C   0  0  0  0  0  0  0  0  0  0  0  0
  -25.9620  -28.0862   21.4027 C   0  0  0  0  0  0  0  0  0  0  0  0
  -28.9900  -19.9374   21.6212 C   0  0  0  0  0  0  0  0  0  0  0  0
  -22.7236   -4.9403   25.1419 C   0  0  0  0  0  0  0  0  0  0  0  0
  -27.2389  -21.0195   22.7005 C   0  0  0  0  0  0  0  0  0  0  0  0
  -24.6321  -10.1849   20.9614 C   0  0  0  0  0  0  0  0  0  0  0  0
  -23.9635  -12.6185   20.5900 C   0  0  0  0  0  0  0  0  0  0  0  0
  -26.8720  -36.2760   25.3025 C   0  0  0  0  0  0  0  0  0  0  0  0
  -26.4151  -30.4126   20.9100 C   0  0  0  0  0  0  0  0  0  0  0  0
  -27.1902  -34.9712   24.8797 C   0  0  0  0  0  0  0  0  0  0  0  0
  -25.5349  -29.4225   21.3696 C   0  0  0  0  0  0  0  0  0  0  0  0
  -28.4899  -21.1655   22.1426 C   0  0  0  0  0  0  0  0  0  0  0  0
  -24.1228   -7.5128   21.5807 C   0  0  0  0  0  0  0  0  0  0  0  0
  -27.2422  -27.7380   20.9726 C   0  0  0  0  0  0  0  0  0  0  0  0
  -23.0583   -5.9452   22.9704 C   0  0  0  0  0  0  0  0  0  0  0  0
  -21.4125   -5.4163   25.1600 C   0  0  0  0  0  0  0  0  0  0  0  0
  -23.5464   -5.2048   24.0471 C   0  0  0  0  0  0  0  0  0  0  0  0
  -24.8957  -11.5650   20.6422 C   0  0  0  0  0  0  0  0  0  0  0  0
  -24.7086  -13.7195   20.2451 C   0  0  0  0  0  0  0  0  0  0  0  0
  -28.1022  -18.8994   21.8007 C   0  0  0  0  0  0  0  0  0  0  0  0
  -28.5925  -24.2479   23.5715 C   0  0  0  0  0  0  0  0  0  0  0  0
  -28.0316  -24.5258   22.3848 C   0  0  0  0  0  0  0  0  0  0  0  0
  -22.5503  -12.6033   20.8318 C   0  0  0  0  0  0  0  0  0  0  0  0
  -25.2845  -32.2705   23.2281 C   0  0  0  0  0  0  0  0  0  0  0  0
  -22.4310  -31.6082   21.8349 C   0  0  0  0  0  0  0  0  0  0  0  0
  -20.5737  -29.5035   19.8939 C   0  0  0  0  0  0  0  0  0  0  0  0
  -29.2493  -16.8949   20.7946 C   0  0  0  0  0  0  0  0  0  0  0  0
  -25.5308  -36.6093   25.9063 C   0  0  0  0  0  0  0  0  0  0  0  0
  -25.9759  -31.8495   20.8405 C   0  0  0  0  0  0  0  0  0  0  0  0
  -24.1425  -29.7546   21.8380 C   0  0  0  0  0  0  0  0  0  0  0  0
  -29.5206  -23.0709   23.4855 C   0  0  0  0  0  0  0  0  0  0  0  0
  -28.4948  -23.5788   21.3159 C   0  0  0  0  0  0  0  0  0  0  0  0
  -24.4549  -35.5667   25.6132 C   0  0  0  0  0  0  0  0  0  0  0  0
  -29.4889  -14.0849   18.6212 C   0  0  0  0  0  0  0  0  0  0  0  0
  -24.9928  -34.1607   25.8595 C   0  0  0  0  0  0  0  0  0  0  0  0
  -28.2386  -13.2654   18.9490 C   0  0  0  0  0  0  0  0  0  0  0  0
  -30.0781  -14.7435   19.8674 C   0  0  0  0  0  0  0  0  0  0  0  0
  -27.8804  -14.7253   20.9806 C   0  0  0  0  0  0  0  0  0  0  0  0
  -29.2489  -22.4814   22.0893 C   0  0  2  0  0  0  0  0  0  0  0  0
  -26.1736  -33.8514   24.9314 C   0  0  1  0  0  0  0  0  0  0  0  0
  -24.8331  -32.1720   21.7984 C   0  0  1  0  0  0  0  0  0  0  0  0
  -27.2138  -14.0956   19.7466 C   0  0  2  0  0  0  0  0  0  0  0  0
  -28.4251  -24.9459   24.8759 C   0  0  0  0  0  0  0  0  0  0  0  0
  -18.2624  -29.2080   18.9624 C   0  0  0  0  0  0  0  0  0  0  0  0
  -21.4448  -30.7010   24.5761 C   0  0  0  0  0  0  0  0  0  0  0  0
  -19.5319  -29.5599   23.4330 C   0  0  0  0  0  0  0  0  0  0  0  0
  -19.7884  -32.0352   23.2606 C   0  0  0  0  0  0  0  0  0  0  0  0
  -21.5577  -29.6165   17.1050 C   0  0  0  0  0  0  0  0  0  0  0  0
  -27.0789  -25.6129   22.0277 C   0  0  0  0  0  0  0  0  0  1  0  0
  -21.3844  -30.5329   22.0004 C   0  0  1  0  0  0  0  0  0  0  0  0
  -19.6544  -29.7683   18.7153 C   0  0  2  0  0  0  0  0  0  0  0  0
  -20.5642  -30.7009   23.3106 C   0  0  0  0  0  0  0  0  0  0  0  0
  -26.1382  -11.9611   20.3533 N   0  0  0  0  0  0  0  0  0  0  0  0
  -25.9918  -13.2758   20.1163 N   0  0  0  0  0  0  0  0  0  0  0  0
  -23.7620  -31.1745   21.7565 N   0  0  0  0  0  0  0  0  0  0  0  0
  -29.0510  -15.5162   20.5694 N   0  0  0  0  0  0  0  0  0  0  0  0
  -24.3847  -15.0143   20.0423 N   0  0  0  0  0  0  0  0  0  0  0  0
  -21.9445  -11.3872   21.1762 N   0  0  0  0  0  0  0  0  0  0  0  0
  -28.1910  -17.5315   21.4422 N   0  0  0  0  0  0  0  0  0  0  0  0
  -25.7011  -33.5343   23.6008 N   0  0  0  0  0  0  0  0  0  0  0  0
  -20.5791  -30.5564   20.7842 N   0  0  0  0  0  0  0  0  0  0  0  0
  -20.2017  -29.1395   17.4800 N   0  3  0  0  0  0  0  0  0  0  0  0
  -21.8430  -13.6341   20.7290 O   0  0  0  0  0  0  0  0  0  0  0  0
  -25.2555  -31.2741   23.9409 O   0  0  0  0  0  0  0  0  0  0  0  0
  -22.0799  -32.7890   21.7700 O   0  0  0  0  0  0  0  0  0  0  0  0
  -21.2194  -28.4647   20.0148 O   0  0  0  0  0  0  0  0  0  0  0  0
  -30.2703  -17.4742   20.4150 O   0  0  0  0  0  0  0  0  0  0  0  0
  -23.8743   -6.2093   21.8832 O   0  0  0  0  0  0  0  0  0  0  0  0
  -27.6424  -26.4378   21.0087 O   0  0  0  0  0  0  0  0  0  1  0  0
  -20.6227   -5.1637   26.2119 F   0  0  0  0  0  0  0  0  0  0  0  0
  -24.8054   -4.7459   24.0358 F   0  0  0  0  0  0  0  0  0  0  0  0
  -26.6724  -19.4070   22.5946 S   0  0  0  0  0  0  0  0  0  0  0  0
  1  2  1  0  0  0  0
  1  5  2  0  0  0  0
  2  6  2  0  0  0  0
  3  8  2  0  0  0  0
  3 17  1  0  0  0  0
  4  9  1  0  0  0  0
  4 17  2  0  0  0  0
  5 19  1  0  0  0  0
  6 21  1  0  0  0  0
  7 10  2  0  0  0  0
  7 20  1  0  0  0  0
  8 24  1  0  0  0  0
  9 24  2  0  0  0  0
 10 25  1  0  0  0  0
 11 12  2  0  0  0  0
 11 26  1  0  0  0  0
 12 27  1  0  0  0  0
 13 22  1  0  0  0  0
 13 25  2  0  0  0  0
 14 23  1  0  0  0  0
 14 31  2  0  0  0  0
 15 27  2  0  0  0  0
 15 28  1  0  0  0  0
 16 23  2  0  0  0  0
 16 83  1  0  0  0  0
 17 29  1  0  0  0  0
 18 29  1  0  0  0  0
 18 30  2  0  0  0  0
 18 34  1  0  0  0  0
 19 21  2  0  0  0  0
 19 39  1  0  0  0  0
 20 22  2  0  0  0  0
 20 40  1  0  0  0  0
 21 51  1  0  0  0  0
 22 41  1  0  0  0  0
 23 50  1  0  0  0  0
 24 79  1  0  0  0  0
 25 80  1  0  0  0  0
 26 28  2  0  0  0  0
 26 79  1  0  0  0  0
 27 81  1  0  0  0  0
 28 82  1  0  0  0  0
 29 64  2  0  0  0  0
 30 65  1  0  0  0  0
 30 68  1  0  0  0  0
 31 70  1  0  0  0  0
 31 83  1  0  0  0  0
 32 33  2  0  0  0  0
 32 42  1  0  0  0  0
 32 54  1  0  0  0  0
 33 43  1  0  0  0  0
 33 60  1  0  0  0  0
 34 69  1  0  0  0  0
 34 74  2  0  0  0  0
 35 52  1  0  0  0  0
 35 71  1  0  0  0  0
 35 75  2  0  0  0  0
 36 61  1  0  0  0  0
 36 66  1  0  0  0  0
 36 76  2  0  0  0  0
 37 62  1  0  0  0  0
 37 72  1  0  0  0  0
 37 77  2  0  0  0  0
 38 67  1  0  0  0  0
 38 70  1  0  0  0  0
 38 78  2  0  0  0  0
 39 44  1  0  0  0  0
 40 52  1  0  0  0  0
 41 66  1  0  0  0  0
 42 50  1  0  0  0  0
 43 50  1  0  0  0  0
 44 46  1  0  0  0  0
 45 47  1  0  0  0  0
 45 48  1  0  0  0  0
 46 51  1  0  0  0  0
 47 53  1  0  0  0  0
 48 67  1  0  0  0  0
 49 53  1  0  0  0  0
 49 67  1  0  0  0  0
 51 71  1  0  0  0  0
 52 66  1  0  0  0  0
 53 65  1  0  0  0  0
 55 62  1  0  0  0  0
 56 63  1  0  0  0  0
 57 63  1  0  0  0  0
 58 63  1  0  0  0  0
 59 73  1  0  0  0  0
 60 80  1  0  0  0  0
 61 63  1  0  0  0  0
 61 72  1  0  0  0  0
 62 73  1  0  0  0  0
 64 65  1  0  0  0  0
M  CHG  1  73   1
M  ISO  4  38 100  60 101  70 100  80 101
M  END
> <Batch ID>
0147

> <Smiles>
CNC(C)C(=O)NC(C(=O)N1Cc2cc([101O:1][101CH2:1]C3=C(C)CC(c4csc([100NH:0][100C:0](=O)N5CCCC(n6nc(-c7ccc(Oc8ccc(F)cc8F)cc7)c(C(N)=O)c6N)C5)c4)C3)ccc2CC1C(=O)NC1CCCc2ccccc21)C(C)(C)C

> <Shape>
0.302

> <Color>
0.114

> <Negative vol penalty>
0.000

$$$$

  -OEChem-04052303133D

 85 94  0     1  0  0  0  0  0999 V2000
  -20.3288  -28.7294   17.0606 C   0  0  0  0  0  0  0  0  0  0  0  0
  -21.0707  -27.6562   17.5437 C   0  0  0  0  0  0  0  0  0  0  0  0
  -23.0960   -9.8283   19.9651 C   0  0  0  0  0  0  0  0  0  0  0  0
  -23.8220   -9.9010   22.2683 C   0  0  0  0  0  0  0  0  0  0  0  0
  -32.5745  -17.6028   23.4120 C   0  0  0  0  0  0  0  0  0  0  0  0
  -20.6496  -30.0290   17.4507 C   0  0  0  0  0  0  0  0  0  0  0  0
  -22.1345  -27.8821   18.4164 C   0  0  0  0  0  0  0  0  0  0  0  0
  -23.9279  -24.2915   23.0420 C   0  0  0  0  0  0  0  0  0  0  0  0
  -32.0050  -16.6914   22.5228 C   0  0  0  0  0  0  0  0  0  0  0  0
  -22.3551   -8.6777   20.2349 C   0  0  0  0  0  0  0  0  0  0  0  0
  -23.0811   -8.7504   22.5382 C   0  0  0  0  0  0  0  0  0  0  0  0
  -24.9403  -23.3392   23.1522 C   0  0  0  0  0  0  0  0  0  0  0  0
  -19.8490   -7.9492   23.1147 C   0  0  0  0  0  0  0  0  0  0  0  0
  -19.0752   -7.9358   24.2751 C   0  0  0  0  0  0  0  0  0  0  0  0
  -26.3925  -25.0039   24.1212 C   0  0  0  0  0  0  0  0  0  0  0  0
  -29.8080  -17.5425   23.0578 C   0  0  0  0  0  0  0  0  0  0  0  0
  -20.3167   -6.0263   25.0811 C   0  0  0  0  0  0  0  0  0  0  0  0
  -23.8294  -10.4400   20.9818 C   0  0  0  0  0  0  0  0  0  0  0  0
  -31.7608  -18.4839   24.1241 C   0  0  0  0  0  0  0  0  0  0  0  0
  -24.1585  -12.9631   20.7993 C   0  0  0  0  0  0  0  0  0  0  0  0
  -21.7119  -30.2701   18.3362 C   0  0  0  0  0  0  0  0  0  0  0  0
  -24.1443  -25.6120   23.4613 C   0  0  0  0  0  0  0  0  0  0  0  0
  -22.4707  -29.1863   18.8176 C   0  0  0  0  0  0  0  0  0  0  0  0
  -25.3805  -25.9704   24.0176 C   0  0  0  0  0  0  0  0  0  0  0  0
  -30.3776  -18.4538   23.9470 C   0  0  0  0  0  0  0  0  0  0  0  0
  -30.6217  -16.6613   22.3457 C   0  0  0  0  0  0  0  0  0  0  0  0
  -22.3476   -8.1388   21.5214 C   0  0  0  0  0  0  0  0  0  0  0  0
  -26.1737  -23.6960   23.6892 C   0  0  0  0  0  0  0  0  0  0  0  0
  -20.8567   -7.0011   22.9374 C   0  0  0  0  0  0  0  0  0  0  0  0
  -19.3090   -6.9744   25.2583 C   0  0  0  0  0  0  0  0  0  0  0  0
  -21.0905   -6.0397   23.9206 C   0  0  0  0  0  0  0  0  0  0  0  0
  -24.5954  -11.6283   20.7035 C   0  0  0  0  0  0  0  0  0  0  0  0
  -25.2516  -13.7093   20.4321 C   0  0  0  0  0  0  0  0  0  0  0  0
  -28.1673  -21.1006   25.1639 C   0  0  0  0  0  0  0  0  0  0  0  0
  -32.3870  -19.4242   25.0452 C   0  0  0  0  0  0  0  0  0  0  0  0
  -27.2373  -22.0372   24.9493 C   0  0  0  0  0  0  0  0  0  1  0  0
  -22.8791  -13.4821   21.1857 C   0  0  0  0  0  0  0  0  0  0  0  0
  -24.1457  -28.4489   22.0276 C   0  0  0  0  0  0  0  0  0  0  0  0
  -24.5077  -29.5457   25.0588 C   0  0  0  0  0  0  0  0  0  0  0  0
  -25.5312  -28.9372   28.2571 C   0  0  0  0  0  0  0  0  0  0  0  0
  -30.7085  -14.7926   20.6584 C   0  0  0  0  0  0  0  0  0  0  0  0
  -22.0508  -31.6960   18.6921 C   0  0  0  0  0  0  0  0  0  0  0  0
  -23.0332  -26.6208   23.3604 C   0  0  0  0  0  0  0  0  0  0  0  0
  -25.6567  -27.3698   24.5012 C   0  0  0  0  0  0  0  0  0  0  0  0
  -28.2875  -20.2761   26.4063 C   0  0  0  0  0  0  0  0  0  0  0  0
  -29.1708  -20.6373   24.1510 C   0  0  0  0  0  0  0  0  0  0  0  0
  -22.9569  -31.8198   19.9144 C   0  0  0  0  0  0  0  0  0  0  0  0
  -29.6430  -12.3098   18.3395 C   0  0  0  0  0  0  0  0  0  0  0  0
  -24.1195  -30.8370   19.8188 C   0  0  0  0  0  0  0  0  0  0  0  0
  -28.1988  -12.0210   18.7557 C   0  0  0  0  0  0  0  0  0  0  0  0
  -28.8758  -18.9664   25.8892 C   0  0  0  0  0  0  0  0  0  0  0  0
  -30.5389  -12.5762   19.5478 C   0  0  0  0  0  0  0  0  0  0  0  0
  -28.6077  -13.3255   20.8812 C   0  0  0  0  0  0  0  0  0  0  0  0
  -23.6164  -29.3888   19.7854 C   0  0  1  0  0  0  0  0  0  0  0  0
  -23.5341  -28.0618   23.3443 C   0  0  1  0  0  0  0  0  0  0  0  0
  -27.6534  -13.1149   19.6944 C   0  0  2  0  0  0  0  0  0  0  0  0
  -25.7374  -30.0384   30.5026 C   0  0  0  0  0  0  0  0  0  0  0  0
  -26.9511  -31.0866   24.0761 C   0  0  0  0  0  0  0  0  0  0  0  0
  -27.6436  -31.3744   26.4648 C   0  0  0  0  0  0  0  0  0  0  0  0
  -25.4911  -32.3497   25.6659 C   0  0  0  0  0  0  0  0  0  0  0  0
  -23.7054  -26.9770   29.5152 C   0  0  0  0  0  0  0  0  0  0  0  0
  -25.6860  -29.8455   25.9537 C   0  0  1  0  0  0  0  0  0  0  0  0
  -24.8600  -29.1905   29.5949 C   0  0  2  0  0  0  0  0  0  0  0  0
  -26.4387  -31.1380   25.5293 C   0  0  0  0  0  0  0  0  0  0  0  0
  -25.8668  -11.5291   20.3064 N   0  0  0  0  0  0  0  0  0  0  0  0
  -33.6692  -19.4857   25.2391 N   0  0  0  0  0  0  0  0  0  0  0  0
  -26.2382  -12.8111   20.1493 N   0  0  0  0  0  0  0  0  0  0  0  0
  -29.5547  -19.3168   24.6438 N   0  0  3  0  0  0  0  0  0  0  0  0
  -24.5407  -28.3218   24.3755 N   0  0  0  0  0  0  0  0  0  0  0  0
  -29.9612  -13.6265   20.3890 N   0  0  0  0  0  0  0  0  0  0  0  0
  -25.4554  -15.0396   20.3266 N   0  0  0  0  0  0  0  0  0  0  0  0
  -21.8675  -12.5760   21.5324 N   0  0  0  0  0  0  0  0  0  0  0  0
  -30.0439  -15.7352   21.4422 N   0  0  0  0  0  0  0  0  0  0  0  0
  -23.2406  -28.9536   21.1135 N   0  0  0  0  0  0  0  0  0  0  0  0
  -25.1660  -29.8769   27.3164 N   0  0  0  0  0  0  0  0  0  0  0  0
  -24.5780  -27.9002   30.2854 N   0  3  0  0  0  0  0  0  0  0  0  0
  -22.6349  -14.7123   21.2067 O   0  0  0  0  0  0  0  0  0  0  0  0
  -25.3499  -28.3022   21.8543 O   0  0  0  0  0  0  0  0  0  0  0  0
  -23.5885  -30.3639   24.9748 O   0  0  0  0  0  0  0  0  0  0  0  0
  -26.3053  -28.0018   28.0667 O   0  0  0  0  0  0  0  0  0  0  0  0
  -31.8434  -14.9558   20.2029 O   0  0  0  0  0  0  0  0  0  0  0  0
  -21.6246   -7.0161   21.7852 O   0  0  0  0  0  0  0  0  0  0  0  0
  -27.1638  -22.7686   23.7972 O   0  0  0  0  0  0  0  0  0  1  0  0
  -18.5668   -6.9627   26.3733 F   0  0  0  0  0  0  0  0  0  0  0  0
  -22.0580   -5.1270   23.7565 F   0  0  0  0  0  0  0  0  0  0  0  0
  1  2  1  0  0  0  0
  1  6  2  0  0  0  0
  2  7  2  0  0  0  0
  3 10  2  0  0  0  0
  3 18  1  0  0  0  0
  4 11  1  0  0  0  0
  4 18  2  0  0  0  0
  5  9  2  0  0  0  0
  5 19  1  0  0  0  0
  6 21  1  0  0  0  0
  7 23  1  0  0  0  0
  8 12  2  0  0  0  0
  8 22  1  0  0  0  0
  9 26  1  0  0  0  0
 10 27  1  0  0  0  0
 11 27  2  0  0  0  0
 12 28  1  0  0  0  0
 13 14  2  0  0  0  0
 13 29  1  0  0  0  0
 14 30  1  0  0  0  0
 15 24  1  0  0  0  0
 15 28  2  0  0  0  0
 16 25  1  0  0  0  0
 16 26  2  0  0  0  0
 17 30  2  0  0  0  0
 17 31  1  0  0  0  0
 18 32  1  0  0  0  0
 19 25  2  0  0  0  0
 19 35  1  0  0  0  0
 20 32  1  0  0  0  0
 20 33  2  0  0  0  0
 20 37  1  0  0  0  0
 21 23  2  0  0  0  0
 21 42  1  0  0  0  0
 22 24  2  0  0  0  0
 22 43  1  0  0  0  0
 23 54  1  0  0  0  0
 24 44  1  0  0  0  0
 25 68  1  0  0  0  0
 26 73  1  0  0  0  0
 27 82  1  0  0  0  0
 28 83  1  0  0  0  0
 29 31  2  0  0  0  0
 29 82  1  0  0  0  0
 30 84  1  0  0  0  0
 31 85  1  0  0  0  0
 32 65  2  0  0  0  0
 33 67  1  0  0  0  0
 33 71  1  0  0  0  0
 34 36  2  0  0  0  0
 34 45  1  0  0  0  0
 34 46  1  0  0  0  0
 35 66  2  0  0  0  0
 36 83  1  0  0  0  0
 37 72  1  0  0  0  0
 37 77  2  0  0  0  0
 38 55  1  0  0  0  0
 38 74  1  0  0  0  0
 38 78  2  0  0  0  0
 39 62  1  0  0  0  0
 39 69  1  0  0  0  0
 39 79  2  0  0  0  0
 40 63  1  0  0  0  0
 40 75  1  0  0  0  0
 40 80  2  0  0  0  0
 41 70  1  0  0  0  0
 41 73  1  0  0  0  0
 41 81  2  0  0  0  0
 42 47  1  0  0  0  0
 43 55  1  0  0  0  0
 44 69  1  0  0  0  0
 45 51  1  0  0  0  0
 46 68  1  0  0  0  0
 47 49  1  0  0  0  0
 48 50  1  0  0  0  0
 48 52  1  0  0  0  0
 49 54  1  0  0  0  0
 50 56  1  0  0  0  0
 51 68  1  0  0  0  0
 52 70  1  0  0  0  0
 53 56  1  0  0  0  0
 53 70  1  0  0  0  0
 54 74  1  0  0  0  0
 55 69  1  0  0  0  0
 56 67  1  0  0  0  0
 57 63  1  0  0  0  0
 58 64  1  0  0  0  0
 59 64  1  0  0  0  0
 60 64  1  0  0  0  0
 61 76  1  0  0  0  0
 62 64  1  0  0  0  0
 62 75  1  0  0  0  0
 63 76  1  0  0  0  0
 65 67  1  0  0  0  0
M  CHG  1  76   1
M  ISO  4  36 101  41 100  73 100  83 101
M  END
> <Batch ID>
0147

> <Smiles>
CNC(C)C(=O)NC(C(=O)N1Cc2cc([101O:1][101CH:1]=C3CCN(c4cc([100NH:0][100C:0](=O)N5CCCC(n6nc(-c7ccc(Oc8ccc(F)cc8F)cc7)c(C(N)=O)c6N)C5)ccc4C=N)C3)ccc2CC1C(=O)NC1CCCc2ccccc21)C(C)(C)C

> <Shape>
0.246

> <Color>
0.213

> <Negative vol penalty>
0.000

$$$$

  -OEChem-04052303133D

 85 93  0     1  0  0  0  0  0999 V2000
  -29.4658  -21.6124   25.8669 C   0  0  0  0  0  0  0  0  0  0  0  0
  -29.6041  -22.8031   25.1626 C   0  0  0  0  0  0  0  0  0  0  0  0
  -26.5777  -12.6889   21.7699 C   0  0  0  0  0  0  0  0  0  0  0  0
  -25.8803  -14.0799   19.9216 C   0  0  0  0  0  0  0  0  0  0  0  0
  -28.2852  -20.8796   25.7644 C   0  0  0  0  0  0  0  0  0  0  0  0
  -28.5576  -23.2674   24.3651 C   0  0  0  0  0  0  0  0  0  0  0  0
  -28.2395  -28.0977   20.6645 C   0  0  0  0  0  0  0  0  0  0  0  0
  -25.3139  -12.0996   21.8033 C   0  0  0  0  0  0  0  0  0  0  0  0
  -24.6165  -13.4905   19.9550 C   0  0  0  0  0  0  0  0  0  0  0  0
  -28.4717  -28.3805   19.3192 C   0  0  0  0  0  0  0  0  0  0  0  0
  -23.6215   -9.7355   20.0771 C   0  0  0  0  0  0  0  0  0  0  0  0
  -23.5565   -8.3473   20.1965 C   0  0  0  0  0  0  0  0  0  0  0  0
  -29.9538  -23.0646   20.4795 C   0  0  0  0  0  0  0  0  0  0  0  0
  -29.6518  -23.9740   19.4250 C   0  0  0  0  0  0  0  0  0  0  0  0
  -26.1199  -28.1014   18.8608 C   0  0  0  0  0  0  0  0  0  0  0  0
  -22.3192   -8.5826   22.2583 C   0  0  0  0  0  0  0  0  0  0  0  0
  -26.8609  -13.6791   20.8291 C   0  0  0  0  0  0  0  0  0  0  0  0
  -29.2837  -13.8629   20.0520 C   0  0  0  0  0  0  0  0  0  0  0  0
  -27.2290  -21.3295   24.9552 C   0  0  0  0  0  0  0  0  0  0  0  0
  -26.9452  -27.8035   21.1169 C   0  0  0  0  0  0  0  0  0  0  0  0
  -27.3491  -22.5543   24.2675 C   0  0  0  0  0  0  0  0  0  0  0  0
  -25.8735  -27.8178   20.2128 C   0  0  0  0  0  0  0  0  0  0  0  0
  -24.3333  -12.5003   20.8958 C   0  0  0  0  0  0  0  0  0  0  0  0
  -27.4123  -28.3795   18.4166 C   0  0  0  0  0  0  0  0  0  0  0  0
  -23.0354  -10.5473   21.0483 C   0  0  0  0  0  0  0  0  0  0  0  0
  -22.9054   -7.7708   21.2871 C   0  0  0  0  0  0  0  0  0  0  0  0
  -22.3843   -9.9708   22.1389 C   0  0  0  0  0  0  0  0  0  0  0  0
  -28.1660  -14.2887   20.7945 C   0  0  0  0  0  0  0  0  0  0  0  0
  -30.2676  -14.7697   20.3621 C   0  0  0  0  0  0  0  0  0  0  0  0
  -29.4673  -21.8007   20.2280 C   0  0  0  0  0  0  0  0  0  0  0  0
  -28.9461  -23.3702   18.4074 C   0  0  0  0  0  0  0  0  0  0  0  0
  -29.4203  -12.7474   19.1616 C   0  0  0  0  0  0  0  0  0  0  0  0
  -25.5618  -25.2834   22.4729 C   0  0  0  0  0  0  0  0  0  0  0  0
  -28.5702  -25.5842   15.4320 C   0  0  0  0  0  0  0  0  0  0  0  0
  -23.0276  -27.2938   22.7138 C   0  0  0  0  0  0  0  0  0  0  0  0
  -21.4060  -30.0634   21.5532 C   0  0  0  0  0  0  0  0  0  0  0  0
  -30.1473  -20.4419   22.2374 C   0  0  0  0  0  0  0  0  0  0  0  0
  -25.9705  -20.5008   24.8868 C   0  0  0  0  0  0  0  0  0  0  0  0
  -26.7073  -27.5269   22.5761 C   0  0  0  0  0  0  0  0  0  0  0  0
  -24.4621  -27.5283   20.6516 C   0  0  0  0  0  0  0  0  0  0  0  0
  -25.0998  -20.8405   23.6815 C   0  0  0  0  0  0  0  0  0  0  0  0
  -31.6965  -17.6886   23.8795 C   0  0  0  0  0  0  0  0  0  0  0  0
  -24.8986  -22.3459   23.5934 C   0  0  0  0  0  0  0  0  0  0  0  0
  -31.0731  -16.4655   23.2030 C   0  0  0  0  0  0  0  0  0  0  0  0
  -30.6860  -18.8225   24.0436 C   0  0  0  0  0  0  0  0  0  0  0  0
  -29.3662  -17.9934   22.1358 C   0  0  0  0  0  0  0  0  0  0  0  0
  -26.2359  -23.0634   23.3698 C   0  0  1  0  0  0  0  0  0  0  0  0
  -25.4284  -26.7359   22.8335 C   0  0  1  0  0  0  0  0  0  0  0  0
  -30.3627  -16.8487   21.8900 C   0  0  2  0  0  0  0  0  0  0  0  0
  -19.3386  -31.4363   21.9254 C   0  0  0  0  0  0  0  0  0  0  0  0
  -21.3600  -25.1588   21.3099 C   0  0  0  0  0  0  0  0  0  0  0  0
  -19.6238  -26.9069   20.8646 C   0  0  0  0  0  0  0  0  0  0  0  0
  -20.2061  -26.2996   23.2130 C   0  0  0  0  0  0  0  0  0  0  0  0
  -26.4927  -27.1945   13.8088 C   0  0  0  0  0  0  0  0  0  0  0  0
  -27.8764  -29.2270   14.2318 C   0  0  0  0  0  0  0  0  0  0  0  0
  -22.9871  -32.4757   22.2164 C   0  0  0  0  0  0  0  0  0  0  0  0
  -28.7714  -27.0070   14.9305 C   0  0  0  0  0  0  0  0  0  0  0  0
  -28.7208  -25.3632   16.9233 C   0  0  0  0  0  0  0  0  0  0  0  0
  -26.7675  -28.0385   16.1530 C   0  0  0  0  0  0  0  0  0  1  0  0
  -21.8494  -27.6388   21.8353 C   0  0  1  0  0  0  0  0  0  0  0  0
  -20.8076  -31.2569   22.2756 C   0  0  2  0  0  0  0  0  0  0  0  0
  -20.7866  -26.5046   21.7967 C   0  0  0  0  0  0  0  0  0  0  0  0
  -27.4773  -27.8461   14.7963 C   0  0  0  0  0  0  0  0  0  0  0  0
  -28.4156  -15.3809   21.5216 N   0  0  0  0  0  0  0  0  0  0  0  0
  -29.7015  -15.6490   21.2376 N   0  0  0  0  0  0  0  0  0  0  0  0
  -24.2814  -27.2574   22.0874 N   0  0  0  0  0  0  0  0  0  0  0  0
  -30.0562  -19.1339   22.7586 N   0  0  0  0  0  0  0  0  0  0  0  0
  -31.5530  -14.8926   19.9686 N   0  0  0  0  0  0  0  0  0  0  0  0
  -28.3104  -11.9166   18.9562 N   0  0  0  0  0  0  0  0  0  0  0  0
  -29.5386  -20.6109   20.9942 N   0  0  0  0  0  0  0  0  0  0  0  0
  -28.5002  -23.9749   17.2414 N   0  0  0  0  0  0  0  0  0  0  0  0
  -26.0340  -24.4896   23.5007 N   0  0  0  0  0  0  0  0  0  0  0  0
  -21.3408  -28.9181   22.3183 N   0  0  0  0  0  0  0  0  0  0  0  0
  -21.5346  -32.5041   21.9055 N   0  3  0  0  0  0  0  0  0  0  0  0
  -30.4996  -12.4854   18.5785 O   0  0  0  0  0  0  0  0  0  0  0  0
  -25.2574  -24.9101   21.3461 O   0  0  0  0  0  0  0  0  0  0  0  0
  -28.3126  -24.6680   14.6510 O   0  0  0  0  0  0  0  0  0  0  0  0
  -22.8432  -27.0720   23.9131 O   0  0  0  0  0  0  0  0  0  0  0  0
  -21.8802  -30.1386   20.4218 O   0  0  0  0  0  0  0  0  0  0  0  0
  -30.7464  -21.3388   22.8363 O   0  0  0  0  0  0  0  0  0  0  0  0
  -23.1000  -11.9253   20.9279 O   0  0  0  0  0  0  0  0  0  0  0  0
  -27.6363  -28.6545   17.1028 O   0  0  0  0  0  0  0  0  0  1  0  0
  -22.8417   -6.4377   21.4009 F   0  0  0  0  0  0  0  0  0  0  0  0
  -21.8183  -10.7455   23.0745 F   0  0  0  0  0  0  0  0  0  0  0  0
  -28.6503  -21.7138   18.7256 S   0  0  0  0  0  0  0  0  0  0  0  0
  1  2  1  0  0  0  0
  1  5  2  0  0  0  0
  2  6  2  0  0  0  0
  3  8  2  0  0  0  0
  3 17  1  0  0  0  0
  4  9  1  0  0  0  0
  4 17  2  0  0  0  0
  5 19  1  0  0  0  0
  6 21  1  0  0  0  0
  7 10  2  0  0  0  0
  7 20  1  0  0  0  0
  8 23  1  0  0  0  0
  9 23  2  0  0  0  0
 10 24  1  0  0  0  0
 11 12  2  0  0  0  0
 11 25  1  0  0  0  0
 12 26  1  0  0  0  0
 13 14  1  0  0  0  0
 13 30  2  0  0  0  0
 14 31  2  0  0  0  0
 15 22  1  0  0  0  0
 15 24  2  0  0  0  0
 16 26  2  0  0  0  0
 16 27  1  0  0  0  0
 17 28  1  0  0  0  0
 18 28  1  0  0  0  0
 18 29  2  0  0  0  0
 18 32  1  0  0  0  0
 19 21  2  0  0  0  0
 19 38  1  0  0  0  0
 20 22  2  0  0  0  0
 20 39  1  0  0  0  0
 21 47  1  0  0  0  0
 22 40  1  0  0  0  0
 23 81  1  0  0  0  0
 24 82  1  0  0  0  0
 25 27  2  0  0  0  0
 25 81  1  0  0  0  0
 26 83  1  0  0  0  0
 27 84  1  0  0  0  0
 28 64  2  0  0  0  0
 29 65  1  0  0  0  0
 29 68  1  0  0  0  0
 30 70  1  0  0  0  0
 30 85  1  0  0  0  0
 31 71  1  0  0  0  0
 31 85  1  0  0  0  0
 32 69  1  0  0  0  0
 32 75  2  0  0  0  0
 33 48  1  0  0  0  0
 33 72  1  0  0  0  0
 33 76  2  0  0  0  0
 34 57  1  0  0  0  0
 34 58  1  0  0  0  0
 34 77  2  0  0  0  0
 35 60  1  0  0  0  0
 35 66  1  0  0  0  0
 35 78  2  0  0  0  0
 36 61  1  0  0  0  0
 36 73  1  0  0  0  0
 36 79  2  0  0  0  0
 37 67  1  0  0  0  0
 37 70  1  0  0  0  0
 37 80  2  0  0  0  0
 38 41  1  0  0  0  0
 39 48  1  0  0  0  0
 40 66  1  0  0  0  0
 41 43  1  0  0  0  0
 42 44  1  0  0  0  0
 42 45  1  0  0  0  0
 43 47  1  0  0  0  0
 44 49  1  0  0  0  0
 45 67  1  0  0  0  0
 46 49  1  0  0  0  0
 46 67  1  0  0  0  0
 47 72  1  0  0  0  0
 48 66  1  0  0  0  0
 49 65  1  0  0  0  0
 50 61  1  0  0  0  0
 51 62  1  0  0  0  0
 52 62  1  0  0  0  0
 53 62  1  0  0  0  0
 54 63  1  0  0  0  0
 55 63  1  0  0  0  0
 56 74  1  0  0  0  0
 57 63  1  0  0  0  0
 58 71  1  0  0  0  0
 59 63  1  0  0  0  0
 59 82  1  0  0  0  0
 60 62  1  0  0  0  0
 60 73  1  0  0  0  0
 61 74  1  0  0  0  0
 64 65  1  0  0  0  0
M  CHG  1  74   1
M  ISO  4  37 100  59 101  70 100  82 101
M  END
> <Batch ID>
0147

> <Smiles>
CNC(C)C(=O)NC(C(=O)N1Cc2cc([101O:1][101CH2:1]C(C)(C)CC(=O)CNc3ccc([100NH:0][100C:0](=O)N4CCCC(n5nc(-c6ccc(Oc7ccc(F)cc7F)cc6)c(C(N)=O)c5N)C4)s3)ccc2CC1C(=O)NC1CCCc2ccccc21)C(C)(C)C

> <Shape>
0.248

> <Color>
0.069

> <Negative vol penalty>
0.000

$$$$

  -OEChem-04052303133D

 85 94  0     1  0  0  0  0  0999 V2000
  -27.6418  -33.5922   15.8404 C   0  0  0  0  0  0  0  0  0  0  0  0
  -28.5041  -32.5799   16.2491 C   0  0  0  0  0  0  0  0  0  0  0  0
  -23.0823   -9.8696   19.9323 C   0  0  0  0  0  0  0  0  0  0  0  0
  -23.8408   -9.8719   22.2262 C   0  0  0  0  0  0  0  0  0  0  0  0
  -26.2660  -33.3674   15.8177 C   0  0  0  0  0  0  0  0  0  0  0  0
  -27.9910  -31.3425   16.6363 C   0  0  0  0  0  0  0  0  0  0  0  0
  -30.5642  -25.8540   15.7640 C   0  0  0  0  0  0  0  0  0  0  0  0
  -22.3398   -8.7149   20.1789 C   0  0  0  0  0  0  0  0  0  0  0  0
  -23.0982   -8.7172   22.4728 C   0  0  0  0  0  0  0  0  0  0  0  0
  -31.3175  -25.0281   16.5972 C   0  0  0  0  0  0  0  0  0  0  0  0
  -19.8707   -7.9138   23.0713 C   0  0  0  0  0  0  0  0  0  0  0  0
  -19.1130   -7.8700   24.2416 C   0  0  0  0  0  0  0  0  0  0  0  0
  -31.7921  -17.5618   21.7239 C   0  0  0  0  0  0  0  0  0  0  0  0
  -29.3230  -23.7995   17.1728 C   0  0  0  0  0  0  0  0  0  0  0  0
  -20.3565   -5.9323   24.9741 C   0  0  0  0  0  0  0  0  0  0  0  0
  -30.7293  -19.1132   23.0899 C   0  0  0  0  0  0  0  0  0  0  0  0
  -23.8329  -10.4481   20.9559 C   0  0  0  0  0  0  0  0  0  0  0  0
  -31.8777  -18.8194   22.3883 C   0  0  0  0  0  0  0  0  0  0  0  0
  -24.1715  -12.9740   20.8423 C   0  0  0  0  0  0  0  0  0  0  0  0
  -25.7364  -32.1235   16.1956 C   0  0  0  0  0  0  0  0  0  0  0  0
  -29.1804  -25.6653   15.6372 C   0  0  0  0  0  0  0  0  0  0  0  0
  -26.6067  -31.1013   16.6199 C   0  0  0  0  0  0  0  0  0  0  0  0
  -28.5547  -24.6226   16.3354 C   0  0  0  0  0  0  0  0  0  0  0  0
  -22.3477   -8.1387   21.4492 C   0  0  0  0  0  0  0  0  0  0  0  0
  -30.6965  -24.0025   17.3040 C   0  0  0  0  0  0  0  0  0  0  0  0
  -20.8712   -6.9668   22.8523 C   0  0  0  0  0  0  0  0  0  0  0  0
  -19.3560   -6.8793   25.1930 C   0  0  0  0  0  0  0  0  0  0  0  0
  -21.1141   -5.9761   23.8037 C   0  0  0  0  0  0  0  0  0  0  0  0
  -24.6006  -11.6406   20.7016 C   0  0  0  0  0  0  0  0  0  0  0  0
  -25.2629  -13.7258   20.4816 C   0  0  0  0  0  0  0  0  0  0  0  0
  -30.5814  -16.9422   21.9434 C   0  0  0  0  0  0  0  0  0  0  0  0
  -31.9783  -21.1733   20.8566 C   0  0  0  0  0  0  0  0  0  0  0  0
  -31.7571  -22.3999   20.3545 C   0  0  0  0  0  0  0  0  0  0  0  0
  -33.0573  -19.7011   22.3304 C   0  0  0  0  0  0  0  0  0  0  0  0
  -22.9001  -13.4872   21.2617 C   0  0  0  0  0  0  0  0  0  0  0  0
  -26.6093  -27.4226   16.2736 C   0  0  0  0  0  0  0  0  0  0  0  0
  -25.0545  -24.9672   14.8327 C   0  0  0  0  0  0  0  0  0  0  0  0
  -25.0368  -21.6721   13.9446 C   0  0  0  0  0  0  0  0  0  0  0  0
  -30.7277  -14.7779   20.6624 C   0  0  0  0  0  0  0  0  0  0  0  0
  -24.2390  -31.9430   16.1997 C   0  0  0  0  0  0  0  0  0  0  0  0
  -28.3863  -26.5478   14.7137 C   0  0  0  0  0  0  0  0  0  0  0  0
  -27.0754  -24.3654   16.2182 C   0  0  0  0  0  0  0  0  0  0  0  0
  -32.4950  -23.6035   20.8813 C   0  0  0  0  0  0  0  0  0  0  0  0
  -23.8019  -30.4820   16.2679 C   0  0  0  0  0  0  0  0  0  0  0  0
  -33.1107  -23.3408   22.2557 C   0  0  0  0  0  0  0  0  0  0  0  0
  -29.6179  -12.3686   18.2874 C   0  0  0  0  0  0  0  0  0  0  0  0
  -24.5899  -29.7385   17.3417 C   0  0  0  0  0  0  0  0  0  0  0  0
  -28.1783  -12.0742   18.7153 C   0  0  0  0  0  0  0  0  0  0  0  0
  -33.8400  -22.0056   22.2848 C   0  0  0  0  0  0  0  0  0  0  0  0
  -30.5319  -12.5956   19.4902 C   0  0  0  0  0  0  0  0  0  0  0  0
  -28.6232  -13.3141   20.8720 C   0  0  0  0  0  0  0  0  0  0  0  0
  -26.0900  -29.7374   17.0237 C   0  0  1  0  0  0  0  0  0  0  0  0
  -26.9006  -26.5892   15.0577 C   0  0  1  0  0  0  0  0  0  0  0  0
  -27.6513  -13.1426   19.6932 C   0  0  2  0  0  0  0  0  0  0  0  0
  -23.6128  -19.9455   12.8095 C   0  0  0  0  0  0  0  0  0  0  0  0
  -23.2965  -24.7856   17.3200 C   0  0  0  0  0  0  0  0  0  0  0  0
  -22.5695  -22.5152   16.5552 C   0  0  0  0  0  0  0  0  0  0  0  0
  -22.0723  -24.5193   15.1555 C   0  0  0  0  0  0  0  0  0  0  0  0
  -27.0673  -21.2122   11.8411 C   0  0  0  0  0  0  0  0  0  0  0  0
  -30.7666  -22.6476   19.2573 C   0  0  0  0  0  0  0  0  0  1  0  0
  -24.4478  -23.6657   15.2985 C   0  0  1  0  0  0  0  0  0  0  0  0
  -24.7088  -20.9845   12.6315 C   0  0  2  0  0  0  0  0  0  0  0  0
  -23.1241  -23.8772   16.0862 C   0  0  0  0  0  0  0  0  0  0  0  0
  -25.8658  -11.5475   20.2839 N   0  0  0  0  0  0  0  0  0  0  0  0
  -26.2412  -12.8318   20.1589 N   0  0  0  0  0  0  0  0  0  0  0  0
  -32.9316  -20.9269   21.8359 N   0  0  0  0  0  0  0  0  0  0  0  0
  -26.3410  -25.2593   15.3075 N   0  0  0  0  0  0  0  0  0  0  0  0
  -29.9711  -13.6235   20.3698 N   0  0  0  0  0  0  0  0  0  0  0  0
  -25.4717  -15.0577   20.4120 N   0  0  0  0  0  0  0  0  0  0  0  0
  -21.8892  -12.5759   21.5961 N   0  0  0  0  0  0  0  0  0  0  0  0
  -30.0787  -15.7000   21.4828 N   0  0  0  0  0  0  0  0  0  0  0  0
  -26.3890  -28.7590   16.0000 N   0  0  0  0  0  0  0  0  0  0  0  0
  -24.3089  -22.8315   14.1097 N   0  0  0  0  0  0  0  0  0  0  0  0
  -34.2283  -19.2559   22.7760 N   0  3  0  0  0  0  0  0  0  0  0  0
  -25.9177  -20.3039   12.0871 N   0  3  0  0  0  0  0  0  0  0  0  0
  -22.6622  -14.7173   21.3219 O   0  0  0  0  0  0  0  0  0  0  0  0
  -26.5847  -26.8921   17.3779 O   0  0  0  0  0  0  0  0  0  0  0  0
  -24.4135  -25.6944   14.0699 O   0  0  0  0  0  0  0  0  0  0  0  0
  -25.8539  -21.2234   14.7455 O   0  0  0  0  0  0  0  0  0  0  0  0
  -31.8569  -14.9492   20.1959 O   0  0  0  0  0  0  0  0  0  0  0  0
  -21.6230   -7.0121   21.6903 O   0  0  0  0  0  0  0  0  0  0  0  0
  -31.4294  -23.1954   18.1184 O   0  0  0  0  0  0  0  0  0  1  0  0
  -18.6293   -6.8383   26.3176 F   0  0  0  0  0  0  0  0  0  0  0  0
  -22.0747   -5.0644   23.5995 F   0  0  0  0  0  0  0  0  0  0  0  0
  -29.5544  -17.8757   22.9464 S   0  0  0  0  0  0  0  0  0  0  0  0
  1  2  1  0  0  0  0
  1  5  2  0  0  0  0
  2  6  2  0  0  0  0
  3  8  2  0  0  0  0
  3 17  1  0  0  0  0
  4  9  1  0  0  0  0
  4 17  2  0  0  0  0
  5 20  1  0  0  0  0
  6 22  1  0  0  0  0
  7 10  2  0  0  0  0
  7 21  1  0  0  0  0
  8 24  1  0  0  0  0
  9 24  2  0  0  0  0
 10 25  1  0  0  0  0
 11 12  2  0  0  0  0
 11 26  1  0  0  0  0
 12 27  1  0  0  0  0
 13 18  1  0  0  0  0
 13 31  2  0  0  0  0
 14 23  1  0  0  0  0
 14 25  2  0  0  0  0
 15 27  2  0  0  0  0
 15 28  1  0  0  0  0
 16 18  2  0  0  0  0
 16 85  1  0  0  0  0
 17 29  1  0  0  0  0
 18 34  1  0  0  0  0
 19 29  1  0  0  0  0
 19 30  2  0  0  0  0
 19 35  1  0  0  0  0
 20 22  2  0  0  0  0
 20 40  1  0  0  0  0
 21 23  2  0  0  0  0
 21 41  1  0  0  0  0
 22 52  1  0  0  0  0
 23 42  1  0  0  0  0
 24 81  1  0  0  0  0
 25 82  1  0  0  0  0
 26 28  2  0  0  0  0
 26 81  1  0  0  0  0
 27 83  1  0  0  0  0
 28 84  1  0  0  0  0
 29 64  2  0  0  0  0
 30 65  1  0  0  0  0
 30 69  1  0  0  0  0
 31 71  1  0  0  0  0
 31 85  1  0  0  0  0
 32 33  2  0  0  0  0
 32 66  1  0  0  0  0
 33 43  1  0  0  0  0
 33 60  1  0  0  0  0
 34 66  1  0  0  0  0
 34 74  2  0  0  0  0
 35 70  1  0  0  0  0
 35 76  2  0  0  0  0
 36 53  1  0  0  0  0
 36 72  1  0  0  0  0
 36 77  2  0  0  0  0
 37 61  1  0  0  0  0
 37 67  1  0  0  0  0
 37 78  2  0  0  0  0
 38 62  1  0  0  0  0
 38 73  1  0  0  0  0
 38 79  2  0  0  0  0
 39 68  1  0  0  0  0
 39 71  1  0  0  0  0
 39 80  2  0  0  0  0
 40 44  1  0  0  0  0
 41 53  1  0  0  0  0
 42 67  1  0  0  0  0
 43 45  1  0  0  0  0
 44 47  1  0  0  0  0
 45 49  1  0  0  0  0
 46 48  1  0  0  0  0
 46 50  1  0  0  0  0
 47 52  1  0  0  0  0
 48 54  1  0  0  0  0
 49 66  1  0  0  0  0
 50 68  1  0  0  0  0
 51 54  1  0  0  0  0
 51 68  1  0  0  0  0
 52 72  1  0  0  0  0
 53 67  1  0  0  0  0
 54 65  1  0  0  0  0
 55 62  1  0  0  0  0
 56 63  1  0  0  0  0
 57 63  1  0  0  0  0
 58 63  1  0  0  0  0
 59 75  1  0  0  0  0
 60 82  1  0  0  0  0
 61 63  1  0  0  0  0
 61 73  1  0  0  0  0
 62 75  1  0  0  0  0
 64 65  1  0  0  0  0
M  CHG  2  74   1  75   1
M  ISO  4  39 100  60 101  71 100  82 101
M  END
> <Batch ID>
0147

> <Smiles>
CNC(C)C(=O)NC(C(=O)N1Cc2cc([101O:1][101CH2:1]C3=CN(C(=N)c4csc([100NH:0][100C:0](=O)N5CCCC(n6nc(-c7ccc(Oc8ccc(F)cc8F)cc7)c(C(N)=O)c6N)C5)c4)CCC3)ccc2CC1C(=O)NC1CCCc2ccccc21)C(C)(C)C

> <Shape>
0.196

> <Color>
0.188

> <Negative vol penalty>
0.000

$$$$

  -OEChem-04052303133D

 84 93  0     1  0  0  0  0  0999 V2000
  -26.9013  -25.0935    9.4460 C   0  0  0  0  0  0  0  0  0  0  0  0
  -27.0486  -24.5702   10.7265 C   0  0  0  0  0  0  0  0  0  0  0  0
  -22.8870  -10.1274   19.9877 C   0  0  0  0  0  0  0  0  0  0  0  0
  -23.8094   -9.8708   22.2059 C   0  0  0  0  0  0  0  0  0  0  0  0
  -26.4475  -26.4009    9.2763 C   0  0  0  0  0  0  0  0  0  0  0  0
  -26.7431  -25.3544   11.8384 C   0  0  0  0  0  0  0  0  0  0  0  0
  -24.0386  -22.8412   15.3045 C   0  0  0  0  0  0  0  0  0  0  0  0
  -22.0741   -9.0134   20.1969 C   0  0  0  0  0  0  0  0  0  0  0  0
  -22.9964   -8.7569   22.4151 C   0  0  0  0  0  0  0  0  0  0  0  0
  -24.7283  -21.9535   16.1292 C   0  0  0  0  0  0  0  0  0  0  0  0
  -20.0161   -6.0209   20.0148 C   0  0  0  0  0  0  0  0  0  0  0  0
  -19.9292   -5.0780   18.9906 C   0  0  0  0  0  0  0  0  0  0  0  0
  -24.7489  -23.6088   17.8838 C   0  0  0  0  0  0  0  0  0  0  0  0
  -29.7434  -17.6867   19.8424 C   0  0  0  0  0  0  0  0  0  0  0  0
  -22.3119   -4.7042   19.1326 C   0  0  0  0  0  0  0  0  0  0  0  0
  -31.0545  -19.4209   19.0202 C   0  0  0  0  0  0  0  0  0  0  0  0
  -23.7548  -10.5561   20.9922 C   0  0  0  0  0  0  0  0  0  0  0  0
  -24.2863  -13.0501   21.0606 C   0  0  0  0  0  0  0  0  0  0  0  0
  -26.1271  -27.1983   10.3864 C   0  0  0  0  0  0  0  0  0  0  0  0
  -23.7080  -24.1255   15.7603 C   0  0  0  0  0  0  0  0  0  0  0  0
  -26.2859  -26.6741   11.6835 C   0  0  0  0  0  0  0  0  0  0  0  0
  -24.0528  -24.5100   17.0639 C   0  0  0  0  0  0  0  0  0  0  0  0
  -29.8454  -18.7684   18.9206 C   0  0  0  0  0  0  0  0  0  0  0  0
  -22.1287   -8.3282   21.4106 C   0  0  0  0  0  0  0  0  0  0  0  0
  -25.0861  -22.3382   17.4180 C   0  0  0  0  0  0  0  0  0  0  0  0
  -21.2509   -6.3055   20.5979 C   0  0  0  0  0  0  0  0  0  0  0  0
  -21.0771   -4.4197   18.5495 C   0  0  0  0  0  0  0  0  0  0  0  0
  -22.3988   -5.6471   20.1568 C   0  0  0  0  0  0  0  0  0  0  0  0
  -24.5952  -11.7064   20.7765 C   0  0  0  0  0  0  0  0  0  0  0  0
  -30.8787  -17.5534   20.6113 C   0  0  0  0  0  0  0  0  0  0  0  0
  -25.4053  -13.7482   20.6769 C   0  0  0  0  0  0  0  0  0  0  0  0
  -23.0945  -13.6168   21.6212 C   0  0  0  0  0  0  0  0  0  0  0  0
  -24.4462  -27.0837   14.8617 C   0  0  0  0  0  0  0  0  0  0  0  0
  -27.7791  -20.1669   18.5141 C   0  0  0  0  0  0  0  0  0  0  0  0
  -22.2785  -27.8976   17.1334 C   0  0  0  0  0  0  0  0  0  0  0  0
  -20.6191  -27.0469   19.9916 C   0  0  0  0  0  0  0  0  0  0  0  0
  -30.8863  -14.3846   20.4585 C   0  0  0  0  0  0  0  0  0  0  0  0
  -25.6852  -28.6215   10.1545 C   0  0  0  0  0  0  0  0  0  0  0  0
  -22.9404  -25.0618   14.8677 C   0  0  0  0  0  0  0  0  0  0  0  0
  -23.7034  -25.8703   17.6080 C   0  0  0  0  0  0  0  0  0  0  0  0
  -25.0262  -29.2610   11.3739 C   0  0  0  0  0  0  0  0  0  0  0  0
  -30.3572  -15.7077   23.7930 C   0  0  0  0  0  0  0  0  0  0  0  0
  -29.4545  -12.3173   18.0284 C   0  0  0  0  0  0  0  0  0  0  0  0
  -25.8489  -28.9893   12.6293 C   0  0  0  0  0  0  0  0  0  0  0  0
  -30.6987  -17.0089   23.0780 C   0  0  0  0  0  0  0  0  0  0  0  0
  -28.0410  -12.0602   18.5469 C   0  0  0  0  0  0  0  0  0  0  0  0
  -30.4608  -12.3152   19.1723 C   0  0  0  0  0  0  0  0  0  0  0  0
  -29.7465  -14.8640   22.6848 C   0  0  0  0  0  0  0  0  0  0  0  0
  -28.7342  -13.0772   20.7757 C   0  0  0  0  0  0  0  0  0  0  0  0
  -25.9412  -27.4853   12.9136 C   0  0  1  0  0  0  0  0  0  0  0  0
  -31.1679  -16.5393   21.6946 C   0  0  1  0  0  0  0  0  0  0  0  0
  -23.1070  -26.5278   15.2554 C   0  0  1  0  0  0  0  0  0  0  0  0
  -27.6751  -13.0621   19.6545 C   0  0  2  0  0  0  0  0  0  0  0  0
  -18.9386  -27.9323   21.6315 C   0  0  0  0  0  0  0  0  0  0  0  0
  -24.4223  -29.6900   18.3589 C   0  0  0  0  0  0  0  0  0  0  0  0
  -23.0477  -29.7866   20.4492 C   0  0  0  0  0  0  0  0  0  0  0  0
  -22.1296  -30.6881   18.3121 C   0  0  0  0  0  0  0  0  0  0  0  0
  -18.7207  -24.8528   19.4077 C   0  0  0  0  0  0  0  0  0  0  0  0
  -28.7758  -19.1458   17.9678 C   0  0  0  0  0  0  0  0  0  0  0  0
  -26.6200  -20.5306   17.6066 C   0  0  0  0  0  0  0  0  0  1  0  0
  -22.3388  -28.1866   18.6139 C   0  0  1  0  0  0  0  0  0  0  0  0
  -19.1490  -27.1207   20.3628 C   0  0  2  0  0  0  0  0  0  0  0  0
  -22.9930  -29.5628   18.9229 C   0  0  0  0  0  0  0  0  0  0  0  0
  -25.8148  -11.5573   20.2527 N   0  0  0  0  0  0  0  0  0  0  0  0
  -26.2821  -12.8164   20.2045 N   0  0  0  0  0  0  0  0  0  0  0  0
  -22.9580  -26.7523   16.6947 N   0  0  0  0  0  0  0  0  0  0  0  0
  -30.0818  -13.2630   20.2209 N   0  0  0  0  0  0  0  0  0  0  0  0
  -30.4957  -15.2474   21.4867 N   0  0  0  0  0  0  0  0  0  0  0  0
  -25.7149  -15.0619   20.7009 N   0  0  0  0  0  0  0  0  0  0  0  0
  -22.0408  -12.7567   21.9590 N   0  0  0  0  0  0  0  0  0  0  0  0
  -24.7113  -27.0068   13.5077 N   0  0  0  0  0  0  0  0  0  0  0  0
  -20.9748  -28.0480   19.1127 N   0  0  0  0  0  0  0  0  0  0  0  0
  -18.6013  -25.7524   20.5839 N   0  3  0  0  0  0  0  0  0  0  0  0
  -22.9615  -14.8510   21.8014 O   0  0  0  0  0  0  0  0  0  0  0  0
  -25.1839  -27.5493   15.7223 O   0  0  0  0  0  0  0  0  0  0  0  0
  -27.9077  -20.6694   19.6298 O   0  0  0  0  0  0  0  0  0  0  0  0
  -21.6458  -28.6560   16.3944 O   0  0  0  0  0  0  0  0  0  0  0  0
  -21.3770  -26.1894   20.4397 O   0  0  0  0  0  0  0  0  0  0  0  0
  -31.9136  -14.5943   19.8009 O   0  0  0  0  0  0  0  0  0  0  0  0
  -21.3354   -7.2413   21.6152 O   0  0  0  0  0  0  0  0  0  0  0  0
  -25.7668  -21.4649   18.2331 O   0  0  0  0  0  0  0  0  0  1  0  0
  -20.9932   -3.5131   17.5670 F   0  0  0  0  0  0  0  0  0  0  0  0
  -23.5876   -5.9155   20.7139 F   0  0  0  0  0  0  0  0  0  0  0  0
  -32.0605  -18.7295   20.2211 S   0  0  0  0  0  0  0  0  0  0  0  0
  1  2  1  0  0  0  0
  1  5  2  0  0  0  0
  2  6  2  0  0  0  0
  3  8  2  0  0  0  0
  3 17  1  0  0  0  0
  4  9  1  0  0  0  0
  4 17  2  0  0  0  0
  5 19  1  0  0  0  0
  6 21  1  0  0  0  0
  7 10  2  0  0  0  0
  7 20  1  0  0  0  0
  8 24  1  0  0  0  0
  9 24  2  0  0  0  0
 10 25  1  0  0  0  0
 11 12  2  0  0  0  0
 11 26  1  0  0  0  0
 12 27  1  0  0  0  0
 13 22  1  0  0  0  0
 13 25  2  0  0  0  0
 14 23  1  0  0  0  0
 14 30  2  0  0  0  0
 15 27  2  0  0  0  0
 15 28  1  0  0  0  0
 16 23  2  0  0  0  0
 16 84  1  0  0  0  0
 17 29  1  0  0  0  0
 18 29  1  0  0  0  0
 18 31  2  0  0  0  0
 18 32  1  0  0  0  0
 19 21  2  0  0  0  0
 19 38  1  0  0  0  0
 20 22  2  0  0  0  0
 20 39  1  0  0  0  0
 21 50  1  0  0  0  0
 22 40  1  0  0  0  0
 23 59  1  0  0  0  0
 24 80  1  0  0  0  0
 25 81  1  0  0  0  0
 26 28  2  0  0  0  0
 26 80  1  0  0  0  0
 27 82  1  0  0  0  0
 28 83  1  0  0  0  0
 29 64  2  0  0  0  0
 30 51  1  0  0  0  0
 30 84  1  0  0  0  0
 31 65  1  0  0  0  0
 31 69  1  0  0  0  0
 32 70  1  0  0  0  0
 32 74  2  0  0  0  0
 33 52  1  0  0  0  0
 33 71  1  0  0  0  0
 33 75  2  0  0  0  0
 34 59  1  0  0  0  0
 34 60  1  0  0  0  0
 34 76  2  0  0  0  0
 35 61  1  0  0  0  0
 35 66  1  0  0  0  0
 35 77  2  0  0  0  0
 36 62  1  0  0  0  0
 36 72  1  0  0  0  0
 36 78  2  0  0  0  0
 37 67  1  0  0  0  0
 37 68  1  0  0  0  0
 37 79  2  0  0  0  0
 38 41  1  0  0  0  0
 39 52  1  0  0  0  0
 40 66  1  0  0  0  0
 41 44  1  0  0  0  0
 42 45  1  0  0  0  0
 42 48  1  0  0  0  0
 43 46  1  0  0  0  0
 43 47  1  0  0  0  0
 44 50  1  0  0  0  0
 45 51  1  0  0  0  0
 46 53  1  0  0  0  0
 47 67  1  0  0  0  0
 48 68  1  0  0  0  0
 49 53  1  0  0  0  0
 49 67  1  0  0  0  0
 50 71  1  0  0  0  0
 51 68  1  0  0  0  0
 52 66  1  0  0  0  0
 53 65  1  0  0  0  0
 54 62  1  0  0  0  0
 55 63  1  0  0  0  0
 56 63  1  0  0  0  0
 57 63  1  0  0  0  0
 58 73  1  0  0  0  0
 60 81  1  0  0  0  0
 61 63  1  0  0  0  0
 61 72  1  0  0  0  0
 62 73  1  0  0  0  0
 64 65  1  0  0  0  0
M  CHG  1  73   1
M  ISO  4  37 100  60 101  68 100  81 101
M  END
> <Batch ID>
0147

> <Smiles>
CNC(C)C(=O)NC(C(=O)N1Cc2cc([101O:1][101CH2:1]C(=O)Cc3csc(C4CCC[100N:0]4[100C:0](=O)N4CCCC(n5nc(-c6ccc(Oc7ccc(F)cc7F)cc6)c(C(N)=O)c5N)C4)c3)ccc2CC1C(=O)NC1CCCc2ccccc21)C(C)(C)C

> <Shape>
0.223

> <Color>
0.179

> <Negative vol penalty>
0.000

$$$$

  -OEChem-04052303133D

 86 95  0     1  0  0  0  0  0999 V2000
  -16.4405  -29.0459   23.1830 C   0  0  0  0  0  0  0  0  0  0  0  0
  -17.3365  -28.6141   22.2102 C   0  0  0  0  0  0  0  0  0  0  0  0
  -26.9622  -11.5061   21.5639 C   0  0  0  0  0  0  0  0  0  0  0  0
  -25.9745  -13.0979   20.0383 C   0  0  0  0  0  0  0  0  0  0  0  0
  -16.8485  -29.9701   24.1438 C   0  0  0  0  0  0  0  0  0  0  0  0
  -18.6407  -29.1072   22.1971 C   0  0  0  0  0  0  0  0  0  0  0  0
  -23.7090  -26.0695   20.5873 C   0  0  0  0  0  0  0  0  0  0  0  0
  -25.7706  -10.7813   21.5792 C   0  0  0  0  0  0  0  0  0  0  0  0
  -24.7828  -12.3731   20.0535 C   0  0  0  0  0  0  0  0  0  0  0  0
  -24.4451  -26.0338   19.4038 C   0  0  0  0  0  0  0  0  0  0  0  0
  -24.1789   -8.5625   19.5852 C   0  0  0  0  0  0  0  0  0  0  0  0
  -24.2622   -7.1754   19.4645 C   0  0  0  0  0  0  0  0  0  0  0  0
  -25.9453  -27.7001   20.2937 C   0  0  0  0  0  0  0  0  0  0  0  0
  -29.8244  -22.1788   18.1969 C   0  0  0  0  0  0  0  0  0  0  0  0
  -30.0870  -22.1613   20.9742 C   0  0  0  0  0  0  0  0  0  0  0  0
  -23.1893   -6.9238   21.6145 C   0  0  0  0  0  0  0  0  0  0  0  0
  -27.0642  -12.6644   20.7935 C   0  0  0  0  0  0  0  0  0  0  0  0
  -29.3812  -13.2458   19.8985 C   0  0  0  0  0  0  0  0  0  0  0  0
  -18.1612  -30.4675   24.1483 C   0  0  0  0  0  0  0  0  0  0  0  0
  -24.0798  -26.9302   21.6304 C   0  0  0  0  0  0  0  0  0  0  0  0
  -19.0663  -30.0400   23.1581 C   0  0  0  0  0  0  0  0  0  0  0  0
  -25.2137  -27.7430   21.4904 C   0  0  0  0  0  0  0  0  0  0  0  0
  -30.0388  -20.9758   18.8696 C   0  0  0  0  0  0  0  0  0  0  0  0
  -29.8727  -23.3643   20.3015 C   0  0  0  0  0  0  0  0  0  0  0  0
  -29.7414  -23.3731   18.9129 C   0  0  0  0  0  0  0  0  0  0  0  0
  -30.1701  -20.9671   20.2583 C   0  0  0  0  0  0  0  0  0  0  0  0
  -24.6809  -11.2147   20.8240 C   0  0  0  0  0  0  0  0  0  0  0  0
  -25.5617  -26.8513   19.2557 C   0  0  0  0  0  0  0  0  0  0  0  0
  -23.6008   -9.1303   20.7206 C   0  0  0  0  0  0  0  0  0  0  0  0
  -23.7674   -6.3561   20.4791 C   0  0  0  0  0  0  0  0  0  0  0  0
  -23.1059   -8.3110   21.7352 C   0  0  0  0  0  0  0  0  0  0  0  0
  -28.2947  -13.4139   20.7777 C   0  0  0  0  0  0  0  0  0  0  0  0
  -30.2934  -14.1931   20.2950 C   0  0  0  0  0  0  0  0  0  0  0  0
  -29.5508  -12.3166   18.8199 C   0  0  0  0  0  0  0  0  0  0  0  0
  -22.7016  -29.3802   23.1143 C   0  0  0  0  0  0  0  0  0  0  0  0
  -25.3095  -29.1814   25.0330 C   0  0  0  0  0  0  0  0  0  0  0  0
  -28.5547  -28.1980   25.4184 C   0  0  0  0  0  0  0  0  0  0  0  0
  -30.5402  -19.5908   22.3355 C   0  0  0  0  0  0  0  0  0  0  0  0
  -18.5424  -31.5010   25.1785 C   0  0  0  0  0  0  0  0  0  0  0  0
  -23.2909  -26.9374   22.9110 C   0  0  0  0  0  0  0  0  0  0  0  0
  -25.6656  -28.6698   22.5883 C   0  0  0  0  0  0  0  0  0  0  0  0
  -20.0503  -31.6912   25.3215 C   0  0  0  0  0  0  0  0  0  0  0  0
  -31.0578  -16.7719   24.4481 C   0  0  0  0  0  0  0  0  0  0  0  0
  -20.7059  -31.8096   23.9493 C   0  0  0  0  0  0  0  0  0  0  0  0
  -30.5048  -15.6011   23.6324 C   0  0  0  0  0  0  0  0  0  0  0  0
  -29.9328  -26.6124   17.1583 C   0  0  0  0  0  0  0  0  0  0  0  0
  -30.2296  -18.0406   24.2527 C   0  0  0  0  0  0  0  0  0  0  0  0
  -30.4516  -25.6843   18.2563 C   0  0  0  0  0  0  0  0  0  0  0  0
  -29.4735  -17.2693   22.0385 C   0  0  0  0  0  0  0  0  0  0  0  0
  -28.3692  -24.8093   17.3770 C   0  0  0  0  0  0  0  0  0  0  0  0
  -20.4967  -30.5330   23.1259 C   0  0  1  0  0  0  0  0  0  0  0  0
  -23.4588  -28.2267   23.7091 C   0  0  1  0  0  0  0  0  0  0  0  0
  -30.3128  -15.9863   22.1524 C   0  0  2  0  0  0  0  0  0  0  0  0
  -28.4250  -26.3264   17.1038 C   0  0  2  0  0  0  0  0  0  0  0  0
  -30.1242  -19.7119   18.0771 C   0  0  0  0  0  0  0  0  0  0  0  0
  -29.7877  -24.6290   21.0928 C   0  0  0  0  0  0  0  0  0  0  0  0
  -27.8360  -26.6774   15.7365 C   0  0  0  0  0  0  0  0  0  0  0  0
  -30.4303  -28.2045   27.0855 C   0  0  0  0  0  0  0  0  0  0  0  0
  -25.7862  -32.1443   24.4815 C   0  0  0  0  0  0  0  0  0  0  0  0
  -28.1151  -31.8608   25.3555 C   0  0  0  0  0  0  0  0  0  0  0  0
  -26.1638  -31.4509   26.8545 C   0  0  0  0  0  0  0  0  0  0  0  0
  -28.6858  -25.2416   25.4564 C   0  0  0  0  0  0  0  0  0  0  0  0
  -27.6759  -27.1070   18.1971 C   0  0  0  0  0  0  0  0  0  1  0  0
  -26.6918  -29.7882   25.0246 C   0  0  1  0  0  0  0  0  0  0  0  0
  -29.2488  -27.4270   26.5267 C   0  0  2  0  0  0  0  0  0  0  0  0
  -26.6799  -31.2951   25.4074 C   0  0  0  0  0  0  0  0  0  0  0  0
  -28.4964  -14.3910   21.6658 N   0  0  0  0  0  0  0  0  0  0  0  0
  -29.7202  -14.8453   21.3468 N   0  0  0  0  0  0  0  0  0  0  0  0
  -29.5289  -24.5533   18.2315 N   0  0  3  0  0  0  0  0  0  0  0  0
  -24.8577  -28.6454   23.8188 N   0  0  0  0  0  0  0  0  0  0  0  0
  -30.0935  -18.3458   22.8268 N   0  0  0  0  0  0  0  0  0  0  0  0
  -31.5219  -14.5233   19.8430 N   0  0  0  0  0  0  0  0  0  0  0  0
  -28.5151  -11.4123   18.5481 N   0  0  0  0  0  0  0  0  0  0  0  0
  -30.3893  -19.7552   20.9590 N   0  0  0  0  0  0  0  0  0  0  0  0
  -21.4010  -29.4930   23.5673 N   0  0  0  0  0  0  0  0  0  0  0  0
  -27.5085  -28.9555   25.9009 N   0  0  0  0  0  0  0  0  0  0  0  0
  -29.7467  -26.1191   26.0146 N   0  3  0  0  0  0  0  0  0  0  0  0
  -30.5967  -12.2781   18.1284 O   0  0  0  0  0  0  0  0  0  0  0  0
  -23.2568  -30.1146   22.3054 O   0  0  0  0  0  0  0  0  0  0  0  0
  -24.6576  -29.1766   26.0802 O   0  0  0  0  0  0  0  0  0  0  0  0
  -28.9078  -28.1373   24.2427 O   0  0  0  0  0  0  0  0  0  0  0  0
  -31.0462  -20.4372   23.0768 O   0  0  0  0  0  0  0  0  0  0  0  0
  -23.5180  -10.5076   20.8385 O   0  0  0  0  0  0  0  0  0  0  0  0
  -26.2816  -26.8189   18.1013 O   0  0  0  0  0  0  0  0  0  1  0  0
  -23.8462   -5.0240   20.3624 F   0  0  0  0  0  0  0  0  0  0  0  0
  -22.5484   -8.8507   22.8278 F   0  0  0  0  0  0  0  0  0  0  0  0
  1  2  1  0  0  0  0
  1  5  2  0  0  0  0
  2  6  2  0  0  0  0
  3  8  2  0  0  0  0
  3 17  1  0  0  0  0
  4  9  1  0  0  0  0
  4 17  2  0  0  0  0
  5 19  1  0  0  0  0
  6 21  1  0  0  0  0
  7 10  2  0  0  0  0
  7 20  1  0  0  0  0
  8 27  1  0  0  0  0
  9 27  2  0  0  0  0
 10 28  1  0  0  0  0
 11 12  2  0  0  0  0
 11 29  1  0  0  0  0
 12 30  1  0  0  0  0
 13 22  1  0  0  0  0
 13 28  2  0  0  0  0
 14 23  2  0  0  0  0
 14 25  1  0  0  0  0
 15 24  1  0  0  0  0
 15 26  2  0  0  0  0
 16 30  2  0  0  0  0
 16 31  1  0  0  0  0
 17 32  1  0  0  0  0
 18 32  1  0  0  0  0
 18 33  2  0  0  0  0
 18 34  1  0  0  0  0
 19 21  2  0  0  0  0
 19 39  1  0  0  0  0
 20 22  2  0  0  0  0
 20 40  1  0  0  0  0
 21 51  1  0  0  0  0
 22 41  1  0  0  0  0
 23 26  1  0  0  0  0
 23 55  1  0  0  0  0
 24 25  2  0  0  0  0
 24 56  1  0  0  0  0
 25 69  1  0  0  0  0
 26 74  1  0  0  0  0
 27 83  1  0  0  0  0
 28 84  1  0  0  0  0
 29 31  2  0  0  0  0
 29 83  1  0  0  0  0
 30 85  1  0  0  0  0
 31 86  1  0  0  0  0
 32 67  2  0  0  0  0
 33 68  1  0  0  0  0
 33 72  1  0  0  0  0
 34 73  1  0  0  0  0
 34 78  2  0  0  0  0
 35 52  1  0  0  0  0
 35 75  1  0  0  0  0
 35 79  2  0  0  0  0
 36 64  1  0  0  0  0
 36 70  1  0  0  0  0
 36 80  2  0  0  0  0
 37 65  1  0  0  0  0
 37 76  1  0  0  0  0
 37 81  2  0  0  0  0
 38 71  1  0  0  0  0
 38 74  1  0  0  0  0
 38 82  2  0  0  0  0
 39 42  1  0  0  0  0
 40 52  1  0  0  0  0
 41 70  1  0  0  0  0
 42 44  1  0  0  0  0
 43 45  1  0  0  0  0
 43 47  1  0  0  0  0
 44 51  1  0  0  0  0
 45 53  1  0  0  0  0
 46 48  1  0  0  0  0
 46 54  1  0  0  0  0
 47 71  1  0  0  0  0
 48 69  1  0  0  0  0
 49 53  1  0  0  0  0
 49 71  1  0  0  0  0
 50 54  1  0  0  0  0
 50 69  1  0  0  0  0
 51 75  1  0  0  0  0
 52 70  1  0  0  0  0
 53 68  1  0  0  0  0
 54 57  1  0  0  0  0
 54 63  1  0  0  0  0
 58 65  1  0  0  0  0
 59 66  1  0  0  0  0
 60 66  1  0  0  0  0
 61 66  1  0  0  0  0
 62 77  1  0  0  0  0
 63 84  1  0  0  0  0
 64 66  1  0  0  0  0
 64 76  1  0  0  0  0
 65 77  1  0  0  0  0
 67 68  1  0  0  0  0
M  CHG  1  77   1
M  ISO  4  38 100  63 101  74 100  84 101
M  END
> <Batch ID>
0147

> <Smiles>
CNC(C)C(=O)NC(C(=O)N1Cc2cc([101O:1][101CH2:1]C3(C)CCN(c4cc(C)c([100NH:0][100C:0](=O)N5CCCC(n6nc(-c7ccc(Oc8ccc(F)cc8F)cc7)c(C(N)=O)c6N)C5)cc4C)C3)ccc2CC1C(=O)NC1CCCc2ccccc21)C(C)(C)C

> <Shape>
0.320

> <Color>
0.069

> <Negative vol penalty>
0.000

$$$$

  -OEChem-04052303133D

 85 94  0     1  0  0  0  0  0999 V2000
  -29.2633  -36.6664   16.5594 C   0  0  0  0  0  0  0  0  0  0  0  0
  -28.0790  -36.0816   16.9961 C   0  0  0  0  0  0  0  0  0  0  0  0
  -26.5740  -13.3487   19.7231 C   0  0  0  0  0  0  0  0  0  0  0  0
  -24.4774  -13.8816   20.7989 C   0  0  0  0  0  0  0  0  0  0  0  0
  -30.3554  -35.8647   16.2302 C   0  0  0  0  0  0  0  0  0  0  0  0
  -27.9857  -34.6944   17.1028 C   0  0  0  0  0  0  0  0  0  0  0  0
  -24.8285  -31.5279   21.2875 C   0  0  0  0  0  0  0  0  0  0  0  0
  -21.1919  -23.2231   22.2622 C   0  0  0  0  0  0  0  0  0  0  0  0
  -22.8111  -24.3544   23.6534 C   0  0  0  0  0  0  0  0  0  0  0  0
  -22.2139  -22.4687   21.6861 C   0  0  0  0  0  0  0  0  0  0  0  0
  -23.8331  -23.6000   23.0774 C   0  0  0  0  0  0  0  0  0  0  0  0
  -26.4988  -12.0479   20.2209 C   0  0  0  0  0  0  0  0  0  0  0  0
  -24.4022  -12.5807   21.2967 C   0  0  0  0  0  0  0  0  0  0  0  0
  -23.5748  -30.9190   21.2535 C   0  0  0  0  0  0  0  0  0  0  0  0
  -23.5473   -9.5206   20.1455 C   0  0  0  0  0  0  0  0  0  0  0  0
  -22.3225   -8.8604   20.0469 C   0  0  0  0  0  0  0  0  0  0  0  0
  -24.6190  -28.8128   20.7127 C   0  0  0  0  0  0  0  0  0  0  0  0
  -22.2501   -8.6356   22.4513 C   0  0  0  0  0  0  0  0  0  0  0  0
  -25.5634  -14.2656   20.0121 C   0  0  0  0  0  0  0  0  0  0  0  0
  -25.1323  -16.0824   18.2740 C   0  0  0  0  0  0  0  0  0  0  0  0
  -30.2786  -34.4674   16.3422 C   0  0  0  0  0  0  0  0  0  0  0  0
  -25.9880  -30.7849   21.0231 C   0  0  0  0  0  0  0  0  0  0  0  0
  -29.0774  -33.8730   16.7735 C   0  0  0  0  0  0  0  0  0  0  0  0
  -25.8865  -29.4141   20.7465 C   0  0  0  0  0  0  0  0  0  0  0  0
  -21.4904  -24.1661   23.2458 C   0  0  0  0  0  0  0  0  0  0  0  0
  -23.5345  -22.6571   22.0938 C   0  0  0  0  0  0  0  0  0  0  0  0
  -25.4129  -11.6639   21.0076 C   0  0  0  0  0  0  0  0  0  0  0  0
  -23.4696  -29.5619   20.9633 C   0  0  0  0  0  0  0  0  0  0  0  0
  -24.1235   -9.7382   21.3970 C   0  0  0  0  0  0  0  0  0  0  0  0
  -21.6739   -8.4179   21.1998 C   0  0  0  0  0  0  0  0  0  0  0  0
  -23.4749   -9.2958   22.5499 C   0  0  0  0  0  0  0  0  0  0  0  0
  -25.6407  -15.6096   19.4987 C   0  0  0  0  0  0  0  0  0  0  0  0
  -25.4617  -17.4157   18.2573 C   0  0  0  0  0  0  0  0  0  0  0  0
  -18.9559  -28.5043   21.8522 C   0  0  0  0  0  0  0  0  0  0  0  0
  -20.2619  -28.4319   22.1591 C   0  0  0  0  0  0  0  0  0  0  0  0
  -24.4254  -15.3792   17.2437 C   0  0  0  0  0  0  0  0  0  0  0  0
  -28.2713  -30.9004   18.8147 C   0  0  0  0  0  0  0  0  0  0  0  0
  -29.6195  -28.5875   20.6465 C   0  0  0  0  0  0  0  0  0  0  0  0
  -29.1988  -26.0942   22.9386 C   0  0  0  0  0  0  0  0  0  0  0  0
  -25.9354  -21.9534   21.7992 C   0  0  0  0  0  0  0  0  0  0  0  0
  -31.4700  -33.6396   15.9298 C   0  0  0  0  0  0  0  0  0  0  0  0
  -27.3351  -31.4508   21.0899 C   0  0  0  0  0  0  0  0  0  0  0  0
  -27.1024  -28.5676   20.4754 C   0  0  0  0  0  0  0  0  0  0  0  0
  -17.9618  -27.4520   22.2479 C   0  0  0  0  0  0  0  0  0  0  0  0
  -20.8197  -27.2498   22.9023 C   0  0  0  0  0  0  0  0  0  0  0  0
  -31.4118  -32.1979   16.4281 C   0  0  0  0  0  0  0  0  0  0  0  0
  -28.8017  -20.2100   20.6067 C   0  0  0  0  0  0  0  0  0  0  0  0
  -30.0325  -31.5993   16.1706 C   0  0  0  0  0  0  0  0  0  0  0  0
  -28.2307  -18.8917   20.0792 C   0  0  0  0  0  0  0  0  0  0  0  0
  -28.0702  -20.6830   21.8616 C   0  0  0  0  0  0  0  0  0  0  0  0
  -26.0391  -19.4529   21.2055 C   0  0  0  0  0  0  0  0  0  0  0  0
  -18.4762  -26.4887   23.3148 C   0  0  0  0  0  0  0  0  0  0  0  0
  -28.9454  -32.3732   16.9260 C   0  0  1  0  0  0  0  0  0  0  0  0
  -28.4081  -30.7091   20.2988 C   0  0  1  0  0  0  0  0  0  0  0  0
  -26.7013  -18.9697   19.9049 C   0  0  2  0  0  0  0  0  0  0  0  0
  -30.4810  -24.3563   24.2164 C   0  0  0  0  0  0  0  0  0  0  0  0
  -29.8033  -26.8748   18.1280 C   0  0  0  0  0  0  0  0  0  0  0  0
  -30.1812  -24.8816   19.5952 C   0  0  0  0  0  0  0  0  0  0  0  0
  -31.8138  -26.7677   19.6116 C   0  0  0  0  0  0  0  0  0  0  0  0
  -28.4301  -27.2742   25.5416 C   0  0  0  0  0  0  0  0  0  0  0  0
  -20.3910  -24.9775   23.8653 C   0  0  0  0  0  0  0  0  0  0  0  0
  -21.2368  -29.5048   21.7801 C   0  0  0  0  0  0  0  0  0  1  0  0
  -29.5481  -27.0802   20.6890 C   0  0  1  0  0  0  0  0  0  0  0  0
  -29.9354  -25.7758   24.2272 C   0  0  2  0  0  0  0  0  0  0  0  0
  -30.3134  -26.4172   19.5091 C   0  0  0  0  0  0  0  0  0  0  0  0
  -26.2472  -16.5649   20.2084 N   0  0  0  0  0  0  0  0  0  0  0  0
  -26.1220  -17.6512   19.4273 N   0  0  0  0  0  0  0  0  0  0  0  0
  -28.3965  -29.2659   20.5462 N   0  0  0  0  0  0  0  0  0  0  0  0
  -26.6267  -20.7364   21.6205 N   0  0  0  0  0  0  0  0  0  0  0  0
  -25.2481  -18.3979   17.3561 N   0  0  0  0  0  0  0  0  0  0  0  0
  -24.1702  -14.0126   17.4217 N   0  0  0  0  0  0  0  0  0  0  0  0
  -24.5729  -21.8906   21.5090 N   0  0  0  0  0  0  0  0  0  0  0  0
  -28.9427  -32.0047   18.3255 N   0  0  0  0  0  0  0  0  0  0  0  0
  -30.0279  -26.6859   22.0092 N   0  0  0  0  0  0  0  0  0  0  0  0
  -19.8776  -26.0607   22.9605 N   0  3  2  0  0  0  0  0  0  0  0  0
  -29.0212  -25.9191   25.3953 N   0  3  0  0  0  0  0  0  0  0  0  0
  -24.0461  -15.9423   16.1889 O   0  0  0  0  0  0  0  0  0  0  0  0
  -27.6071  -30.1042   18.1616 O   0  0  0  0  0  0  0  0  0  0  0  0
  -30.7193  -29.1429   20.7076 O   0  0  0  0  0  0  0  0  0  0  0  0
  -28.0080  -25.8399   22.7717 O   0  0  0  0  0  0  0  0  0  0  0  0
  -26.5150  -22.9826   22.1554 O   0  0  0  0  0  0  0  0  0  0  0  0
  -25.3391  -10.3945   21.4933 O   0  0  0  0  0  0  0  0  0  0  0  0
  -22.2471  -28.9652   20.9289 O   0  0  0  0  0  0  0  0  0  1  0  0
  -20.4971   -7.7853   21.1050 F   0  0  0  0  0  0  0  0  0  0  0  0
  -24.0230   -9.5030   23.7551 F   0  0  0  0  0  0  0  0  0  0  0  0
  1  2  1  0  0  0  0
  1  5  2  0  0  0  0
  2  6  2  0  0  0  0
  3 12  2  0  0  0  0
  3 19  1  0  0  0  0
  4 13  1  0  0  0  0
  4 19  2  0  0  0  0
  5 21  1  0  0  0  0
  6 23  1  0  0  0  0
  7 14  2  0  0  0  0
  7 22  1  0  0  0  0
  8 10  2  0  0  0  0
  8 25  1  0  0  0  0
  9 11  1  0  0  0  0
  9 25  2  0  0  0  0
 10 26  1  0  0  0  0
 11 26  2  0  0  0  0
 12 27  1  0  0  0  0
 13 27  2  0  0  0  0
 14 28  1  0  0  0  0
 15 16  2  0  0  0  0
 15 29  1  0  0  0  0
 16 30  1  0  0  0  0
 17 24  1  0  0  0  0
 17 28  2  0  0  0  0
 18 30  2  0  0  0  0
 18 31  1  0  0  0  0
 19 32  1  0  0  0  0
 20 32  1  0  0  0  0
 20 33  2  0  0  0  0
 20 36  1  0  0  0  0
 21 23  2  0  0  0  0
 21 41  1  0  0  0  0
 22 24  2  0  0  0  0
 22 42  1  0  0  0  0
 23 53  1  0  0  0  0
 24 43  1  0  0  0  0
 25 61  1  0  0  0  0
 26 72  1  0  0  0  0
 27 82  1  0  0  0  0
 28 83  1  0  0  0  0
 29 31  2  0  0  0  0
 29 82  1  0  0  0  0
 30 84  1  0  0  0  0
 31 85  1  0  0  0  0
 32 66  2  0  0  0  0
 33 67  1  0  0  0  0
 33 70  1  0  0  0  0
 34 35  2  0  0  0  0
 34 44  1  0  0  0  0
 35 45  1  0  0  0  0
 35 62  1  0  0  0  0
 36 71  1  0  0  0  0
 36 77  2  0  0  0  0
 37 54  1  0  0  0  0
 37 73  1  0  0  0  0
 37 78  2  0  0  0  0
 38 63  1  0  0  0  0
 38 68  1  0  0  0  0
 38 79  2  0  0  0  0
 39 64  1  0  0  0  0
 39 74  1  0  0  0  0
 39 80  2  0  0  0  0
 40 69  1  0  0  0  0
 40 72  1  0  0  0  0
 40 81  2  0  0  0  0
 41 46  1  0  0  0  0
 42 54  1  0  0  0  0
 43 68  1  0  0  0  0
 44 52  1  0  0  0  0
 45 75  1  0  0  0  0
 46 48  1  0  0  0  0
 47 49  1  0  0  0  0
 47 50  1  0  0  0  0
 48 53  1  0  0  0  0
 49 55  1  0  0  0  0
 50 69  1  0  0  0  0
 51 55  1  0  0  0  0
 51 69  1  0  0  0  0
 52 75  1  0  0  0  0
 53 73  1  0  0  0  0
 54 68  1  0  0  0  0
 55 67  1  0  0  0  0
 56 64  1  0  0  0  0
 57 65  1  0  0  0  0
 58 65  1  0  0  0  0
 59 65  1  0  0  0  0
 60 76  1  0  0  0  0
 61 75  1  0  0  0  0
 62 83  1  0  0  0  0
 63 65  1  0  0  0  0
 63 74  1  0  0  0  0
 64 76  1  0  0  0  0
 66 67  1  0  0  0  0
M  CHG  2  75   1  76   1
M  ISO  4  40 100  62 101  72 100  83 101
M  END
> <Batch ID>
0147

> <Smiles>
CNC(C)C(=O)NC(C(=O)N1Cc2cc([101O:1][101CH2:1]C3=CCCN(Cc4ccc([100NH:0][100C:0](=O)N5CCCC(n6nc(-c7ccc(Oc8ccc(F)cc8F)cc7)c(C(N)=O)c6N)C5)cc4)C3)ccc2CC1C(=O)NC1CCCc2ccccc21)C(C)(C)C

> <Shape>
0.229

> <Color>
0.071

> <Negative vol penalty>
0.000

$$$$

  -OEChem-04052303133D

 85 94  0     1  0  0  0  0  0999 V2000
  -27.6976  -37.5314   17.9417 C   0  0  0  0  0  0  0  0  0  0  0  0
  -27.7522  -36.2291   17.4553 C   0  0  0  0  0  0  0  0  0  0  0  0
  -24.3004   -8.9243   20.0550 C   0  0  0  0  0  0  0  0  0  0  0  0
  -22.9405  -10.4667   21.3234 C   0  0  0  0  0  0  0  0  0  0  0  0
  -27.6672  -37.7600   19.3167 C   0  0  0  0  0  0  0  0  0  0  0  0
  -27.7776  -35.1547   18.3438 C   0  0  0  0  0  0  0  0  0  0  0  0
  -25.5693  -28.3682   18.9620 C   0  0  0  0  0  0  0  0  0  0  0  0
  -23.5025   -7.8651   20.4874 C   0  0  0  0  0  0  0  0  0  0  0  0
  -22.1425   -9.4075   21.7558 C   0  0  0  0  0  0  0  0  0  0  0  0
  -26.0609  -27.0988   19.2633 C   0  0  0  0  0  0  0  0  0  0  0  0
  -20.4876   -6.5418   19.7178 C   0  0  0  0  0  0  0  0  0  0  0  0
  -20.0856   -5.6031   18.7676 C   0  0  0  0  0  0  0  0  0  0  0  0
  -25.9244  -27.6111   21.6166 C   0  0  0  0  0  0  0  0  0  0  0  0
  -29.2525  -19.5421   20.7966 C   0  0  0  0  0  0  0  0  0  0  0  0
  -21.2018   -3.8615   20.0159 C   0  0  0  0  0  0  0  0  0  0  0  0
  -27.2111  -19.3189   19.7078 C   0  0  0  0  0  0  0  0  0  0  0  0
  -24.0194  -10.2251   20.4730 C   0  0  0  0  0  0  0  0  0  0  0  0
  -24.6609  -12.1067   18.8744 C   0  0  0  0  0  0  0  0  0  0  0  0
  -27.6826  -36.6875   20.2223 C   0  0  0  0  0  0  0  0  0  0  0  0
  -25.2614  -29.2740   19.9872 C   0  0  0  0  0  0  0  0  0  0  0  0
  -27.7488  -35.3693   19.7322 C   0  0  0  0  0  0  0  0  0  0  0  0
  -25.4267  -28.8905   21.3258 C   0  0  0  0  0  0  0  0  0  0  0  0
  -28.1660  -18.6807   20.4684 C   0  0  0  0  0  0  0  0  0  0  0  0
  -22.4235   -8.1067   21.3378 C   0  0  0  0  0  0  0  0  0  0  0  0
  -26.2413  -26.7211   20.5907 C   0  0  0  0  0  0  0  0  0  0  0  0
  -21.2468   -6.1404   20.8170 C   0  0  0  0  0  0  0  0  0  0  0  0
  -20.4426   -4.2629   18.9167 C   0  0  0  0  0  0  0  0  0  0  0  0
  -21.6039   -4.8003   20.9661 C   0  0  0  0  0  0  0  0  0  0  0  0
  -24.8437  -11.3196   20.0271 C   0  0  0  0  0  0  0  0  0  0  0  0
  -25.7014  -13.0028   18.9019 C   0  0  0  0  0  0  0  0  0  0  0  0
  -29.0867  -20.8060   20.2740 C   0  0  0  0  0  0  0  0  0  0  0  0
  -31.1545  -22.0668   21.0242 C   0  0  0  0  0  0  0  0  0  0  0  0
  -23.6416  -12.0344   17.8686 C   0  0  0  0  0  0  0  0  0  0  0  0
  -28.5719  -23.9459   20.6285 C   0  0  0  0  0  0  0  0  0  0  0  0
  -26.3310  -32.1426   20.8420 C   0  0  0  0  0  0  0  0  0  0  0  0
  -23.9001  -31.9807   22.9836 C   0  0  0  0  0  0  0  0  0  0  0  0
  -21.7653  -30.0353   24.8015 C   0  0  0  0  0  0  0  0  0  0  0  0
  -28.9660  -16.5940   21.6311 C   0  0  0  0  0  0  0  0  0  0  0  0
  -27.6961  -36.9859   21.7007 C   0  0  0  0  0  0  0  0  0  0  0  0
  -24.7068  -30.6300   19.6462 C   0  0  0  0  0  0  0  0  0  0  0  0
  -25.0919  -29.8186   22.4637 C   0  0  0  0  0  0  0  0  0  0  0  0
  -31.6583  -23.4803   20.8487 C   0  0  0  0  0  0  0  0  0  0  0  0
  -27.3477  -35.7795   22.5687 C   0  0  0  0  0  0  0  0  0  0  0  0
  -30.8565  -24.0106   19.6729 C   0  0  0  0  0  0  0  0  0  0  0  0
  -29.8470  -13.1485   21.8028 C   0  0  0  0  0  0  0  0  0  0  0  0
  -28.1197  -34.5480   22.1058 C   0  0  0  0  0  0  0  0  0  0  0  0
  -28.6088  -12.4303   21.2613 C   0  0  0  0  0  0  0  0  0  0  0  0
  -29.4734  -14.3765   22.6312 C   0  0  0  0  0  0  0  0  0  0  0  0
  -27.3415  -14.6112   21.4191 C   0  0  0  0  0  0  0  0  0  0  0  0
  -27.7528  -34.1767   20.6638 C   0  0  1  0  0  0  0  0  0  0  0  0
  -29.5533  -23.2351   19.7427 C   0  0  1  0  0  0  0  0  0  0  0  0
  -24.9121  -31.6559   20.7565 C   0  0  1  0  0  0  0  0  0  0  0  0
  -27.6694  -13.4048   20.5241 C   0  0  2  0  0  0  0  0  0  0  0  0
  -19.9168  -30.1876   26.4920 C   0  0  0  0  0  0  0  0  0  0  0  0
  -25.9473  -32.5838   25.1642 C   0  0  0  0  0  0  0  0  0  0  0  0
  -24.2768  -31.7943   26.8537 C   0  0  0  0  0  0  0  0  0  0  0  0
  -23.7634  -33.7741   25.4256 C   0  0  0  0  0  0  0  0  0  0  0  0
  -19.8333  -28.7307   22.9782 C   0  0  0  0  0  0  0  0  0  0  0  0
  -27.6041  -24.8841   19.9395 C   0  0  0  0  0  0  0  0  0  1  0  0
  -23.7510  -31.4656   24.3948 C   0  0  1  0  0  0  0  0  0  0  0  0
  -20.2641  -30.1134   25.0132 C   0  0  2  0  0  0  0  0  0  0  0  0
  -24.4429  -32.3874   25.4383 C   0  0  0  0  0  0  0  0  0  0  0  0
  -25.9161  -11.6835   20.7352 N   0  0  0  0  0  0  0  0  0  0  0  0
  -26.4166  -12.7092   20.0255 N   0  0  0  0  0  0  0  0  0  0  0  0
  -29.9180  -21.9691   20.3532 N   0  0  0  0  0  0  0  0  0  0  0  0
  -24.5587  -31.1359   22.0790 N   0  0  0  0  0  0  0  0  0  0  0  0
  -28.5858  -15.2559   21.8672 N   0  0  0  0  0  0  0  0  0  0  0  0
  -26.0653  -14.0054   18.0743 N   0  0  0  0  0  0  0  0  0  0  0  0
  -22.6478  -11.0541   17.9938 N   0  0  0  0  0  0  0  0  0  0  0  0
  -28.0580  -17.3249   20.8657 N   0  0  0  0  0  0  0  0  0  0  0  0
  -26.4742  -33.4999   20.6259 N   0  0  0  0  0  0  0  0  0  0  0  0
  -22.3202  -31.2835   24.6139 N   0  0  0  0  0  0  0  0  0  0  0  0
  -19.5961  -28.9141   24.4332 N   0  3  0  0  0  0  0  0  0  0  0  0
  -31.7622  -21.2361   21.6841 O   0  0  0  0  0  0  0  0  0  0  0  0
  -23.6222  -12.8054   16.8793 O   0  0  0  0  0  0  0  0  0  0  0  0
  -28.5643  -23.7680   21.8457 O   0  0  0  0  0  0  0  0  0  0  0  0
  -27.2293  -31.3460   21.0873 O   0  0  0  0  0  0  0  0  0  0  0  0
  -23.4425  -33.0887   22.6928 O   0  0  0  0  0  0  0  0  0  0  0  0
  -22.3843  -28.9735   24.8062 O   0  0  0  0  0  0  0  0  0  0  0  0
  -30.0323  -17.0496   22.0522 O   0  0  0  0  0  0  0  0  0  0  0  0
  -21.6445   -7.0734   21.7598 O   0  0  0  0  0  0  0  0  0  0  0  0
  -26.7215  -25.4829   20.8876 O   0  0  0  0  0  0  0  0  0  1  0  0
  -20.0552   -3.3614   18.0050 F   0  0  0  0  0  0  0  0  0  0  0  0
  -22.3321   -4.4085   22.0206 F   0  0  0  0  0  0  0  0  0  0  0  0
  -27.6259  -20.9501   19.3922 S   0  0  0  0  0  0  0  0  0  0  0  0
  1  2  1  0  0  0  0
  1  5  2  0  0  0  0
  2  6  2  0  0  0  0
  3  8  2  0  0  0  0
  3 17  1  0  0  0  0
  4  9  1  0  0  0  0
  4 17  2  0  0  0  0
  5 19  1  0  0  0  0
  6 21  1  0  0  0  0
  7 10  2  0  0  0  0
  7 20  1  0  0  0  0
  8 24  1  0  0  0  0
  9 24  2  0  0  0  0
 10 25  1  0  0  0  0
 11 12  2  0  0  0  0
 11 26  1  0  0  0  0
 12 27  1  0  0  0  0
 13 22  1  0  0  0  0
 13 25  2  0  0  0  0
 14 23  1  0  0  0  0
 14 31  2  0  0  0  0
 15 27  2  0  0  0  0
 15 28  1  0  0  0  0
 16 23  2  0  0  0  0
 16 85  1  0  0  0  0
 17 29  1  0  0  0  0
 18 29  1  0  0  0  0
 18 30  2  0  0  0  0
 18 33  1  0  0  0  0
 19 21  2  0  0  0  0
 19 39  1  0  0  0  0
 20 22  2  0  0  0  0
 20 40  1  0  0  0  0
 21 50  1  0  0  0  0
 22 41  1  0  0  0  0
 23 70  1  0  0  0  0
 24 81  1  0  0  0  0
 25 82  1  0  0  0  0
 26 28  2  0  0  0  0
 26 81  1  0  0  0  0
 27 83  1  0  0  0  0
 28 84  1  0  0  0  0
 29 63  2  0  0  0  0
 30 64  1  0  0  0  0
 30 68  1  0  0  0  0
 31 65  1  0  0  0  0
 31 85  1  0  0  0  0
 32 42  1  0  0  0  0
 32 65  1  0  0  0  0
 32 74  2  0  0  0  0
 33 69  1  0  0  0  0
 33 75  2  0  0  0  0
 34 51  1  0  0  0  0
 34 59  1  0  0  0  0
 34 76  2  0  0  0  0
 35 52  1  0  0  0  0
 35 71  1  0  0  0  0
 35 77  2  0  0  0  0
 36 60  1  0  0  0  0
 36 66  1  0  0  0  0
 36 78  2  0  0  0  0
 37 61  1  0  0  0  0
 37 72  1  0  0  0  0
 37 79  2  0  0  0  0
 38 67  1  0  0  0  0
 38 70  1  0  0  0  0
 38 80  2  0  0  0  0
 39 43  1  0  0  0  0
 40 52  1  0  0  0  0
 41 66  1  0  0  0  0
 42 44  1  0  0  0  0
 43 46  1  0  0  0  0
 44 51  1  0  0  0  0
 45 47  1  0  0  0  0
 45 48  1  0  0  0  0
 46 50  1  0  0  0  0
 47 53  1  0  0  0  0
 48 67  1  0  0  0  0
 49 53  1  0  0  0  0
 49 67  1  0  0  0  0
 50 71  1  0  0  0  0
 51 65  1  0  0  0  0
 52 66  1  0  0  0  0
 53 64  1  0  0  0  0
 54 61  1  0  0  0  0
 55 62  1  0  0  0  0
 56 62  1  0  0  0  0
 57 62  1  0  0  0  0
 58 73  1  0  0  0  0
 59 82  1  0  0  0  0
 60 62  1  0  0  0  0
 60 72  1  0  0  0  0
 61 73  1  0  0  0  0
 63 64  1  0  0  0  0
M  CHG  1  73   1
M  ISO  4  38 100  59 101  70 100  82 101
M  END
> <Batch ID>
0147

> <Smiles>
CNC(C)C(=O)NC(C(=O)N1Cc2cc([101O:1][101CH2:1]C(=O)C3CCC(=O)N3c3cc([100NH:0][100C:0](=O)N4CCCC(n5nc(-c6ccc(Oc7ccc(F)cc7F)cc6)c(C(N)=O)c5N)C4)cs3)ccc2CC1C(=O)NC1CCCc2ccccc21)C(C)(C)C

> <Shape>
0.266

> <Color>
0.096

> <Negative vol penalty>
0.000

$$$$

  -OEChem-04052303133D

 84 92  0     1  0  0  0  0  0999 V2000
  -29.3706  -13.1112   19.5325 C   0  0  0  0  0  0  0  0  0  0  0  0
  -28.7992  -14.3793   19.5626 C   0  0  0  0  0  0  0  0  0  0  0  0
  -30.0358  -21.2545   21.5696 C   0  0  0  0  0  0  0  0  0  0  0  0
  -28.4113  -20.9387   19.8094 C   0  0  0  0  0  0  0  0  0  0  0  0
  -28.5621  -11.9808   19.6440 C   0  0  0  0  0  0  0  0  0  0  0  0
  -27.4188  -14.5177   19.7031 C   0  0  0  0  0  0  0  0  0  0  0  0
  -24.4501  -18.9592   22.6974 C   0  0  0  0  0  0  0  0  0  0  0  0
  -30.4349  -19.9243   21.4399 C   0  0  0  0  0  0  0  0  0  0  0  0
  -28.8105  -19.6084   19.6796 C   0  0  0  0  0  0  0  0  0  0  0  0
  -23.8293  -20.1298   22.2639 C   0  0  0  0  0  0  0  0  0  0  0  0
  -31.6333  -16.5119   21.8179 C   0  0  0  0  0  0  0  0  0  0  0  0
  -31.8114  -15.7698   22.9855 C   0  0  0  0  0  0  0  0  0  0  0  0
  -21.7066  -18.9842   22.2292 C   0  0  0  0  0  0  0  0  0  0  0  0
  -29.4972  -16.1389   23.5731 C   0  0  0  0  0  0  0  0  0  0  0  0
  -29.0239  -21.7617   20.7543 C   0  0  0  0  0  0  0  0  0  0  0  0
  -29.1330  -24.2506   20.2059 C   0  0  0  0  0  0  0  0  0  0  0  0
  -27.1721  -12.1056   19.7958 C   0  0  0  0  0  0  0  0  0  0  0  0
  -23.7043  -17.7873   22.8899 C   0  0  0  0  0  0  0  0  0  0  0  0
  -26.5908  -13.3878   19.8155 C   0  0  0  0  0  0  0  0  0  0  0  0
  -22.3199  -17.8007   22.6676 C   0  0  0  0  0  0  0  0  0  0  0  0
  -29.8223  -19.1013   20.4949 C   0  0  0  0  0  0  0  0  0  0  0  0
  -22.4578  -20.1417   22.0269 C   0  0  0  0  0  0  0  0  0  0  0  0
  -30.3872  -17.0675   21.5279 C   0  0  0  0  0  0  0  0  0  0  0  0
  -30.7434  -15.5833   23.8631 C   0  0  0  0  0  0  0  0  0  0  0  0
  -29.3191  -16.8810   22.4055 C   0  0  0  0  0  0  0  0  0  0  0  0
  -28.6107  -23.1355   20.8882 C   0  0  0  0  0  0  0  0  0  0  0  0
  -28.4081  -25.3154   20.6827 C   0  0  0  0  0  0  0  0  0  0  0  0
  -20.3887  -28.4289   20.5385 C   0  0  0  0  0  0  0  0  0  0  0  0
  -21.3017  -29.3762   20.7932 C   0  0  0  0  0  0  0  0  0  0  0  0
  -20.7057  -27.1370   19.8738 C   0  0  0  0  0  0  0  0  0  0  0  0
  -21.2059  -24.1350   20.2258 C   0  0  0  0  0  0  0  0  0  0  0  0
  -30.1798  -24.3180   19.2284 C   0  0  0  0  0  0  0  0  0  0  0  0
  -21.7512  -22.9561   19.8780 C   0  0  0  0  0  0  0  0  0  0  0  0
  -20.3350  -24.9540   19.3351 C   0  0  0  0  0  0  0  0  0  0  0  0
  -23.7231  -14.8800   21.6050 C   0  0  0  0  0  0  0  0  0  0  0  0
  -21.5220  -14.2721   23.9088 C   0  0  0  0  0  0  0  0  0  0  0  0
  -19.1495  -15.4847   26.0414 C   0  0  0  0  0  0  0  0  0  0  0  0
  -23.6810  -27.6801   22.2061 C   0  0  0  0  0  0  0  0  0  0  0  0
  -26.3341  -10.8535   19.8651 C   0  0  0  0  0  0  0  0  0  0  0  0
  -24.3845  -16.5399   23.3835 C   0  0  0  0  0  0  0  0  0  0  0  0
  -21.4710  -16.5747   22.8788 C   0  0  0  0  0  0  0  0  0  0  0  0
  -22.7876  -29.3126   20.5826 C   0  0  0  0  0  0  0  0  0  0  0  0
  -21.9348  -27.0428   18.9953 C   0  0  0  0  0  0  0  0  0  0  0  0
  -24.9202  -11.0950   20.3875 C   0  0  0  0  0  0  0  0  0  0  0  0
  -25.2151  -25.6609   24.5769 C   0  0  0  0  0  0  0  0  0  0  0  0
  -24.2969  -12.3060   19.7005 C   0  0  0  0  0  0  0  0  0  0  0  0
  -26.2777  -24.9029   23.7832 C   0  0  0  0  0  0  0  0  0  0  0  0
  -23.2228  -26.9687   19.8093 C   0  0  0  0  0  0  0  0  0  0  0  0
  -23.9246  -25.7845   23.7763 C   0  0  0  0  0  0  0  0  0  0  0  0
  -25.1678  -25.7060   21.6373 C   0  0  0  0  0  0  0  0  0  0  0  0
  -25.1000  -13.5794   19.9915 C   0  0  1  0  0  0  0  0  0  0  0  0
  -23.6116  -15.2670   23.0526 C   0  0  1  0  0  0  0  0  0  0  0  0
  -26.4970  -25.5477   22.4039 C   0  0  2  0  0  0  0  0  0  0  0  0
  -17.4927  -14.7412   27.7734 C   0  0  0  0  0  0  0  0  0  0  0  0
  -19.6805  -13.2457   21.7031 C   0  0  0  0  0  0  0  0  0  0  0  0
  -17.7708  -13.4186   23.3130 C   0  0  0  0  0  0  0  0  0  0  0  0
  -19.6693  -11.8736   23.7940 C   0  0  0  0  0  0  0  0  0  0  0  0
  -20.4584  -17.0945   28.1520 C   0  0  0  0  0  0  0  0  0  0  0  0
  -22.6294  -22.1811   20.8155 C   0  0  0  0  0  0  0  0  0  1  0  0
  -20.0184  -14.3689   24.0032 C   0  0  1  0  0  0  0  0  0  0  0  0
  -18.9060  -15.2426   27.5201 C   0  0  2  0  0  0  0  0  0  0  0  0
  -19.3008  -13.2494   23.1974 C   0  0  0  0  0  0  0  0  0  0  0  0
  -27.6299  -23.4616   21.7342 N   0  0  0  0  0  0  0  0  0  0  0  0
  -19.9463  -26.0955   19.9925 N   0  0  0  0  0  0  0  0  0  0  0  0
  -27.5302  -24.7936   21.5867 N   0  0  0  0  0  0  0  0  0  0  0  0
  -22.1834  -15.3779   23.3561 N   0  0  0  0  0  0  0  0  0  0  0  0
  -23.3179  -27.9783   20.8772 N   0  0  0  0  0  0  0  0  0  0  0  0
  -24.1659  -26.3909   22.4670 N   0  0  0  0  0  0  0  0  0  0  0  0
  -28.4425  -26.6376   20.4128 N   0  0  0  0  0  0  0  0  0  0  0  0
  -30.8199  -23.1294   18.8520 N   0  0  0  0  0  0  0  0  0  0  0  0
  -24.8058  -14.0698   21.3210 N   0  0  0  0  0  0  0  0  0  0  0  0
  -19.6985  -14.3793   25.4265 N   0  0  0  0  0  0  0  0  0  0  0  0
  -19.1027  -16.5029   28.2906 N   0  3  0  0  0  0  0  0  0  0  0  0
  -30.5480  -25.4023   18.7164 O   0  0  0  0  0  0  0  0  0  0  0  0
  -20.0434  -24.6091   18.1959 O   0  0  0  0  0  0  0  0  0  0  0  0
  -22.8877  -15.2853   20.8052 O   0  0  0  0  0  0  0  0  0  0  0  0
  -22.0893  -13.2558   24.3173 O   0  0  0  0  0  0  0  0  0  0  0  0
  -18.8763  -16.5467   25.4865 O   0  0  0  0  0  0  0  0  0  0  0  0
  -23.5599  -28.5158   23.1115 O   0  0  0  0  0  0  0  0  0  0  0  0
  -21.5884  -22.3502   18.6498 O   0  0  0  0  0  0  0  0  0  0  0  0
  -30.2117  -17.8033   20.3679 O   0  0  0  0  0  0  0  0  0  0  0  0
  -21.8453  -21.2907   21.6002 O   0  0  0  0  0  0  0  0  0  1  0  0
  -30.9141  -14.8695   24.9835 F   0  0  0  0  0  0  0  0  0  0  0  0
  -28.1193  -17.4114   22.1316 F   0  0  0  0  0  0  0  0  0  0  0  0
  1  2  1  0  0  0  0
  1  5  2  0  0  0  0
  2  6  2  0  0  0  0
  3  8  2  0  0  0  0
  3 15  1  0  0  0  0
  4  9  1  0  0  0  0
  4 15  2  0  0  0  0
  5 17  1  0  0  0  0
  6 19  1  0  0  0  0
  7 10  2  0  0  0  0
  7 18  1  0  0  0  0
  8 21  1  0  0  0  0
  9 21  2  0  0  0  0
 10 22  1  0  0  0  0
 11 12  2  0  0  0  0
 11 23  1  0  0  0  0
 12 24  1  0  0  0  0
 13 20  1  0  0  0  0
 13 22  2  0  0  0  0
 14 24  2  0  0  0  0
 14 25  1  0  0  0  0
 15 26  1  0  0  0  0
 16 26  1  0  0  0  0
 16 27  2  0  0  0  0
 16 32  1  0  0  0  0
 17 19  2  0  0  0  0
 17 39  1  0  0  0  0
 18 20  2  0  0  0  0
 18 40  1  0  0  0  0
 19 51  1  0  0  0  0
 20 41  1  0  0  0  0
 21 81  1  0  0  0  0
 22 82  1  0  0  0  0
 23 25  2  0  0  0  0
 23 81  1  0  0  0  0
 24 83  1  0  0  0  0
 25 84  1  0  0  0  0
 26 63  2  0  0  0  0
 27 65  1  0  0  0  0
 27 69  1  0  0  0  0
 28 29  2  0  0  0  0
 28 30  1  0  0  0  0
 29 42  1  0  0  0  0
 30 43  1  0  0  0  0
 30 64  2  0  0  0  0
 31 33  2  0  0  0  0
 31 34  1  0  0  0  0
 32 70  1  0  0  0  0
 32 74  2  0  0  0  0
 33 59  1  0  0  0  0
 33 80  1  0  0  0  0
 34 64  1  0  0  0  0
 34 75  2  0  0  0  0
 35 52  1  0  0  0  0
 35 71  1  0  0  0  0
 35 76  2  0  0  0  0
 36 60  1  0  0  0  0
 36 66  1  0  0  0  0
 36 77  2  0  0  0  0
 37 61  1  0  0  0  0
 37 72  1  0  0  0  0
 37 78  2  0  0  0  0
 38 67  1  0  0  0  0
 38 68  1  0  0  0  0
 38 79  2  0  0  0  0
 39 44  1  0  0  0  0
 40 52  1  0  0  0  0
 41 66  1  0  0  0  0
 42 67  1  0  0  0  0
 43 48  1  0  0  0  0
 44 46  1  0  0  0  0
 45 47  1  0  0  0  0
 45 49  1  0  0  0  0
 46 51  1  0  0  0  0
 47 53  1  0  0  0  0
 48 67  1  0  0  0  0
 49 68  1  0  0  0  0
 50 53  1  0  0  0  0
 50 68  1  0  0  0  0
 51 71  1  0  0  0  0
 52 66  1  0  0  0  0
 53 65  1  0  0  0  0
 54 61  1  0  0  0  0
 55 62  1  0  0  0  0
 56 62  1  0  0  0  0
 57 62  1  0  0  0  0
 58 73  1  0  0  0  0
 59 82  1  0  0  0  0
 60 62  1  0  0  0  0
 60 72  1  0  0  0  0
 61 73  1  0  0  0  0
 63 65  1  0  0  0  0
M  CHG  1  73   1
M  ISO  4  38 100  59 101  67 100  82 101
M  END
> <Batch ID>
0147

> <Smiles>
CNC(C)C(=O)NC(C(=O)N1Cc2cc([101O:1][101CH2:1]C(=O)CC(=O)NC3=CC[100N:0]([100C:0](=O)N4CCCC(n5nc(-c6ccc(Oc7ccc(F)cc7F)cc6)c(C(N)=O)c5N)C4)CC=C3)ccc2CC1C(=O)NC1CCCc2ccccc21)C(C)(C)C

> <Shape>
0.183

> <Color>
0.081

> <Negative vol penalty>
0.000

$$$$

  -OEChem-04052303133D

 84 93  0     1  0  0  0  0  0999 V2000
  -30.0261  -35.3876   25.4038 C   0  0  0  0  0  0  0  0  0  0  0  0
  -30.2476  -34.5965   24.2811 C   0  0  0  0  0  0  0  0  0  0  0  0
  -22.8563   -9.4106   22.6155 C   0  0  0  0  0  0  0  0  0  0  0  0
  -24.0708  -10.2048   20.6838 C   0  0  0  0  0  0  0  0  0  0  0  0
  -29.1380  -34.9621   26.3908 C   0  0  0  0  0  0  0  0  0  0  0  0
  -29.5819  -33.3788   24.1452 C   0  0  0  0  0  0  0  0  0  0  0  0
  -26.8134  -29.0571   19.1477 C   0  0  0  0  0  0  0  0  0  0  0  0
  -22.3276   -8.3681   21.8544 C   0  0  0  0  0  0  0  0  0  0  0  0
  -23.5422   -9.1623   19.9228 C   0  0  0  0  0  0  0  0  0  0  0  0
  -26.8595  -27.7287   18.7271 C   0  0  0  0  0  0  0  0  0  0  0  0
  -23.3507   -5.3591   20.7001 C   0  0  0  0  0  0  0  0  0  0  0  0
  -23.3465   -4.0830   21.2631 C   0  0  0  0  0  0  0  0  0  0  0  0
  -25.2880  -27.1326   20.4575 C   0  0  0  0  0  0  0  0  0  0  0  0
  -27.8486  -19.0359   19.7614 C   0  0  0  0  0  0  0  0  0  0  0  0
  -20.9389   -4.0082   21.0753 C   0  0  0  0  0  0  0  0  0  0  0  0
  -28.6367  -16.8890   19.3466 C   0  0  0  0  0  0  0  0  0  0  0  0
  -23.7279  -10.3290   22.0302 C   0  0  0  0  0  0  0  0  0  0  0  0
  -25.0691  -11.2972   23.9721 C   0  0  0  0  0  0  0  0  0  0  0  0
  -28.4537  -33.7431   26.2623 C   0  0  0  0  0  0  0  0  0  0  0  0
  -26.0113  -29.4320   20.2351 C   0  0  0  0  0  0  0  0  0  0  0  0
  -28.6848  -32.9360   25.1320 C   0  0  0  0  0  0  0  0  0  0  0  0
  -25.2316  -28.4669   20.8883 C   0  0  0  0  0  0  0  0  0  0  0  0
  -27.6454  -17.6373   19.9425 C   0  0  0  0  0  0  0  0  0  0  0  0
  -22.6705   -8.2439   20.5081 C   0  0  0  0  0  0  0  0  0  0  0  0
  -26.0990  -26.7657   19.3838 C   0  0  0  0  0  0  0  0  0  0  0  0
  -22.1491   -5.9599   20.3248 C   0  0  0  0  0  0  0  0  0  0  0  0
  -22.1406   -3.4075   21.4507 C   0  0  0  0  0  0  0  0  0  0  0  0
  -20.9432   -5.2844   20.5123 C   0  0  0  0  0  0  0  0  0  0  0  0
  -24.2739  -11.4065   22.8156 C   0  0  0  0  0  0  0  0  0  0  0  0
  -28.9877  -19.3033   19.0341 C   0  0  0  0  0  0  0  0  0  0  0  0
  -25.3264  -12.5964   24.3360 C   0  0  0  0  0  0  0  0  0  0  0  0
  -25.5338  -10.1260   24.6563 C   0  0  0  0  0  0  0  0  0  0  0  0
  -27.5506  -23.5307   18.6335 C   0  0  0  0  0  0  0  0  0  0  0  0
  -26.5631  -30.6957   23.0991 C   0  0  0  0  0  0  0  0  0  0  0  0
  -23.3242  -30.7951   23.2483 C   0  0  0  0  0  0  0  0  0  0  0  0
  -20.5790  -28.6354   22.3448 C   0  0  0  0  0  0  0  0  0  0  0  0
  -25.5147  -17.7297   21.2833 C   0  0  0  0  0  0  0  0  0  0  0  0
  -27.5391  -33.3029   27.3778 C   0  0  0  0  0  0  0  0  0  0  0  0
  -25.9521  -30.8738   20.6596 C   0  0  0  0  0  0  0  0  0  0  0  0
  -24.3386  -28.8212   22.0483 C   0  0  0  0  0  0  0  0  0  0  0  0
  -26.5904  -32.1756   26.9787 C   0  0  0  0  0  0  0  0  0  0  0  0
  -23.4501  -16.9957   24.0897 C   0  0  0  0  0  0  0  0  0  0  0  0
  -27.3464  -31.0806   26.2328 C   0  0  0  0  0  0  0  0  0  0  0  0
  -29.8200  -21.5987   19.7862 C   0  0  0  0  0  0  0  0  0  0  0  0
  -29.9084  -22.9502   19.0957 C   0  0  0  0  0  0  0  0  0  0  0  0
  -23.5044  -15.4696   24.1904 C   0  0  0  0  0  0  0  0  0  0  0  0
  -23.4473  -17.4685   22.6371 C   0  0  0  0  0  0  0  0  0  0  0  0
  -24.5924  -15.4119   21.9101 C   0  0  0  0  0  0  0  0  0  0  0  0
  -27.9628  -31.6204   24.9367 C   0  0  1  0  0  0  0  0  0  0  0  0
  -29.5492  -20.6406   18.6298 C   0  0  2  0  0  0  0  0  0  0  0  0
  -28.8028  -22.9098   18.0511 C   0  0  1  0  0  0  0  0  0  0  0  0
  -25.4953  -31.0531   22.1041 C   0  0  1  0  0  0  0  0  0  0  0  0
  -24.6627  -14.8905   23.3547 C   0  0  2  0  0  0  0  0  0  0  0  0
  -18.2088  -29.1811   21.7267 C   0  0  0  0  0  0  0  0  0  0  0  0
  -22.7506  -30.3297   26.2088 C   0  0  0  0  0  0  0  0  0  0  0  0
  -20.5963  -29.2384   25.5483 C   0  0  0  0  0  0  0  0  0  0  0  0
  -20.9961  -31.6388   24.9995 C   0  0  0  0  0  0  0  0  0  0  0  0
  -20.7884  -27.1726   19.7806 C   0  0  0  0  0  0  0  0  0  0  0  0
  -27.3610  -25.0126   18.3889 C   0  0  0  0  0  0  0  0  0  1  0  0
  -22.2463  -29.8505   23.7224 C   0  0  1  0  0  0  0  0  0  0  0  0
  -19.5968  -28.8421   21.2059 C   0  0  2  0  0  0  0  0  0  0  0  0
  -21.6721  -30.2547   25.1096 C   0  0  0  0  0  0  0  0  0  0  0  0
  -24.0412  -12.6749   22.4679 N   0  0  0  0  0  0  0  0  0  0  0  0
  -24.6939  -13.3746   23.4115 N   0  0  0  0  0  0  0  0  0  0  0  0
  -24.3198  -30.2430   22.4299 N   0  0  0  0  0  0  0  0  0  0  0  0
  -24.5748  -16.8831   21.9084 N   0  0  0  0  0  0  0  0  0  0  0  0
  -26.0295  -13.1377   25.3534 N   0  0  0  0  0  0  0  0  0  0  0  0
  -26.7653   -9.5750   24.2768 N   0  0  0  0  0  0  0  0  0  0  0  0
  -26.5608  -17.0607   20.6487 N   0  0  0  0  0  0  0  0  0  0  0  0
  -26.9508  -31.7456   23.9096 N   0  0  0  0  0  0  0  0  0  0  0  0
  -21.2518  -29.7979   22.6563 N   0  0  0  0  0  0  0  0  0  0  0  0
  -28.6549  -21.4488   17.7134 N   0  3  0  0  0  0  0  0  0  0  0  0
  -19.4989  -27.6082   20.3759 N   0  3  0  0  0  0  0  0  0  0  0  0
  -24.8687   -9.5747   25.5658 O   0  0  0  0  0  0  0  0  0  0  0  0
  -26.7399  -22.8582   19.2688 O   0  0  0  0  0  0  0  0  0  0  0  0
  -27.0015  -29.5519   23.1301 O   0  0  0  0  0  0  0  0  0  0  0  0
  -23.2804  -31.9808   23.5857 O   0  0  0  0  0  0  0  0  0  0  0  0
  -20.7312  -27.5519   22.9047 O   0  0  0  0  0  0  0  0  0  0  0  0
  -25.4149  -18.9583   21.3323 O   0  0  0  0  0  0  0  0  0  0  0  0
  -22.1550   -7.2266   19.7652 O   0  0  0  0  0  0  0  0  0  0  0  0
  -26.1426  -25.4682   18.9757 O   0  0  0  0  0  0  0  0  0  1  0  0
  -22.1368   -2.1814   21.9900 F   0  0  0  0  0  0  0  0  0  0  0  0
  -19.7857   -5.8559   20.1526 F   0  0  0  0  0  0  0  0  0  0  0  0
  -29.8062  -17.8717   18.5728 S   0  0  0  0  0  0  0  0  0  0  0  0
  1  2  1  0  0  0  0
  1  5  2  0  0  0  0
  2  6  2  0  0  0  0
  3  8  2  0  0  0  0
  3 17  1  0  0  0  0
  4  9  1  0  0  0  0
  4 17  2  0  0  0  0
  5 19  1  0  0  0  0
  6 21  1  0  0  0  0
  7 10  2  0  0  0  0
  7 20  1  0  0  0  0
  8 24  1  0  0  0  0
  9 24  2  0  0  0  0
 10 25  1  0  0  0  0
 11 12  2  0  0  0  0
 11 26  1  0  0  0  0
 12 27  1  0  0  0  0
 13 22  1  0  0  0  0
 13 25  2  0  0  0  0
 14 23  1  0  0  0  0
 14 30  2  0  0  0  0
 15 27  2  0  0  0  0
 15 28  1  0  0  0  0
 16 23  2  0  0  0  0
 16 84  1  0  0  0  0
 17 29  1  0  0  0  0
 18 29  1  0  0  0  0
 18 31  2  0  0  0  0
 18 32  1  0  0  0  0
 19 21  2  0  0  0  0
 19 38  1  0  0  0  0
 20 22  2  0  0  0  0
 20 39  1  0  0  0  0
 21 49  1  0  0  0  0
 22 40  1  0  0  0  0
 23 69  1  0  0  0  0
 24 80  1  0  0  0  0
 25 81  1  0  0  0  0
 26 28  2  0  0  0  0
 26 80  1  0  0  0  0
 27 82  1  0  0  0  0
 28 83  1  0  0  0  0
 29 63  2  0  0  0  0
 30 50  1  0  0  0  0
 30 84  1  0  0  0  0
 31 64  1  0  0  0  0
 31 67  1  0  0  0  0
 32 68  1  0  0  0  0
 32 74  2  0  0  0  0
 33 51  1  0  0  0  0
 33 59  1  0  0  0  0
 33 75  2  0  0  0  0
 34 52  1  0  0  0  0
 34 70  1  0  0  0  0
 34 76  2  0  0  0  0
 35 60  1  0  0  0  0
 35 65  1  0  0  0  0
 35 77  2  0  0  0  0
 36 61  1  0  0  0  0
 36 71  1  0  0  0  0
 36 78  2  0  0  0  0
 37 66  1  0  0  0  0
 37 69  1  0  0  0  0
 37 79  2  0  0  0  0
 38 41  1  0  0  0  0
 39 52  1  0  0  0  0
 40 65  1  0  0  0  0
 41 43  1  0  0  0  0
 42 46  1  0  0  0  0
 42 47  1  0  0  0  0
 43 49  1  0  0  0  0
 44 45  1  0  0  0  0
 44 50  1  0  0  0  0
 45 51  1  0  0  0  0
 46 53  1  0  0  0  0
 47 66  1  0  0  0  0
 48 53  1  0  0  0  0
 48 66  1  0  0  0  0
 49 70  1  0  0  0  0
 50 72  1  0  0  0  0
 51 72  1  0  0  0  0
 52 65  1  0  0  0  0
 53 64  1  0  0  0  0
 54 61  1  0  0  0  0
 55 62  1  0  0  0  0
 56 62  1  0  0  0  0
 57 62  1  0  0  0  0
 58 73  1  0  0  0  0
 59 81  1  0  0  0  0
 60 62  1  0  0  0  0
 60 71  1  0  0  0  0
 61 73  1  0  0  0  0
 63 64  1  0  0  0  0
M  CHG  2  72   1  73   1
M  ISO  4  37 100  59 101  69 100  81 101
M  END
> <Batch ID>
0147

> <Smiles>
CNC(C)C(=O)NC(C(=O)N1Cc2cc([101O:1][101CH2:1]C(=O)C3CCC(c4cc([100NH:0][100C:0](=O)N5CCCC(n6nc(-c7ccc(Oc8ccc(F)cc8F)cc7)c(C(N)=O)c6N)C5)cs4)N3)ccc2CC1C(=O)NC1CCCc2ccccc21)C(C)(C)C

> <Shape>
0.240

> <Color>
0.077

> <Negative vol penalty>
0.000

$$$$

  -OEChem-04052303133D

 94104  0     1  0  0  0  0  0999 V2000
  -27.6945  -38.2324   23.8981 C   0  0  0  0  0  0  0  0  0  0  0  0
  -28.0158  -37.2597   24.8393 C   0  0  0  0  0  0  0  0  0  0  0  0
  -23.8226   -9.1004   20.2856 C   0  0  0  0  0  0  0  0  0  0  0  0
  -22.8055  -10.9931   21.3902 C   0  0  0  0  0  0  0  0  0  0  0  0
  -26.4545  -38.2023   23.2615 C   0  0  0  0  0  0  0  0  0  0  0  0
  -27.0966  -36.2568   25.1454 C   0  0  0  0  0  0  0  0  0  0  0  0
  -25.3313  -20.2772   17.0274 C   0  0  0  0  0  0  0  0  0  0  0  0
  -28.7571  -29.3050   24.2478 C   0  0  0  0  0  0  0  0  0  0  0  0
  -24.4452  -21.1395   16.3816 C   0  0  0  0  0  0  0  0  0  0  0  0
  -22.9848   -8.2377   20.9923 C   0  0  0  0  0  0  0  0  0  0  0  0
  -21.9677  -10.1305   22.0969 C   0  0  0  0  0  0  0  0  0  0  0  0
  -29.0732  -27.9473   24.3030 C   0  0  0  0  0  0  0  0  0  0  0  0
  -22.8243   -6.9099   24.0964 C   0  0  0  0  0  0  0  0  0  0  0  0
  -23.3973   -5.7721   24.6643 C   0  0  0  0  0  0  0  0  0  0  0  0
  -26.8127  -27.4381   24.9948 C   0  0  0  0  0  0  0  0  0  0  0  0
  -25.5599  -23.0348   17.3828 C   0  0  0  0  0  0  0  0  0  0  0  0
  -21.9354   -4.3756   23.3415 C   0  0  0  0  0  0  0  0  0  0  0  0
  -23.7330  -10.4781   20.4845 C   0  0  0  0  0  0  0  0  0  0  0  0
  -24.3469  -11.9648   18.5045 C   0  0  0  0  0  0  0  0  0  0  0  0
  -25.5234  -37.1929   23.5529 C   0  0  0  0  0  0  0  0  0  0  0  0
  -27.4618  -29.7332   24.5513 C   0  0  0  0  0  0  0  0  0  0  0  0
  -25.8423  -36.2139   24.5131 C   0  0  0  0  0  0  0  0  0  0  0  0
  -26.3316  -20.7937   17.8509 C   0  0  0  0  0  0  0  0  0  0  0  0
  -26.4868  -28.7954   24.9291 C   0  0  0  0  0  0  0  0  0  0  0  0
  -24.5595  -22.5182   16.5593 C   0  0  0  0  0  0  0  0  0  0  0  0
  -26.4459  -22.1725   18.0286 C   0  0  0  0  0  0  0  0  0  0  0  0
  -22.0573   -8.7527   21.8979 C   0  0  0  0  0  0  0  0  0  0  0  0
  -28.1035  -27.0163   24.6758 C   0  0  0  0  0  0  0  0  0  0  0  0
  -21.8068   -6.7806   23.1510 C   0  0  0  0  0  0  0  0  0  0  0  0
  -22.9529   -4.5049   24.2869 C   0  0  0  0  0  0  0  0  0  0  0  0
  -21.3624   -5.5135   22.7736 C   0  0  0  0  0  0  0  0  0  0  0  0
  -24.5986  -11.3698   19.7552 C   0  0  0  0  0  0  0  0  0  0  0  0
  -25.4679  -12.7166   18.2501 C   0  0  0  0  0  0  0  0  0  0  0  0
  -23.2022  -11.8483   17.6490 C   0  0  0  0  0  0  0  0  0  0  0  0
  -29.3532  -16.3306   20.0202 C   0  0  0  0  0  0  0  0  0  0  0  0
  -25.0801  -32.6153   24.8628 C   0  0  0  0  0  0  0  0  0  0  0  0
  -23.5234  -30.3085   23.5721 C   0  0  0  0  0  0  0  0  0  0  0  0
  -22.2897  -27.6724   21.7928 C   0  0  0  0  0  0  0  0  0  0  0  0
  -24.1772  -37.2290   22.8737 C   0  0  0  0  0  0  0  0  0  0  0  0
  -27.0929  -31.1919   24.5647 C   0  0  0  0  0  0  0  0  0  0  0  0
  -25.1159  -29.3055   25.2805 C   0  0  0  0  0  0  0  0  0  0  0  0
  -23.4057  -35.9161   22.9805 C   0  0  0  0  0  0  0  0  0  0  0  0
  -29.9548  -12.8405   20.5653 C   0  0  0  0  0  0  0  0  0  0  0  0
  -26.5485  -18.8994   19.5165 C   0  0  0  0  0  0  0  0  0  0  0  0
  -23.4430  -35.3900   24.4118 C   0  0  0  0  0  0  0  0  0  0  0  0
  -27.5199  -17.9580   20.2263 C   0  0  0  0  0  0  0  0  0  0  0  0
  -29.4414  -22.6675   21.2975 C   0  0  0  0  0  0  0  0  0  0  0  0
  -28.5877  -12.1995   20.3300 C   0  0  0  0  0  0  0  0  0  0  0  0
  -30.2146  -23.2320   22.4855 C   0  0  0  0  0  0  0  0  0  0  0  0
  -28.1173  -19.0271   17.5323 C   0  0  0  0  0  0  0  0  0  0  0  0
  -27.8001  -23.6191   22.7282 C   0  0  0  0  0  0  0  0  0  0  0  0
  -29.8229  -14.2157   21.2122 C   0  0  0  0  0  0  0  0  0  0  0  0
  -27.5763  -14.5212   20.2215 C   0  0  0  0  0  0  0  0  0  0  0  0
  -27.2843  -19.8357   18.5429 C   0  0  1  0  0  0  0  0  0  0  0  0
  -24.8815  -35.0955   24.8540 C   0  0  1  0  0  0  0  0  0  0  0  0
  -28.3674  -17.1562   19.2324 C   0  0  1  0  0  0  0  0  0  0  0  0
  -25.6483  -31.4533   24.1024 C   0  0  1  0  0  0  0  0  0  0  0  0
  -28.1815  -23.5228   21.2518 C   0  0  2  0  0  0  0  0  0  0  0  0
  -27.6630  -13.1435   19.5413 C   0  0  2  0  0  0  0  0  0  0  0  0
  -29.0874  -18.0864   18.2504 C   0  0  1  0  0  0  0  0  0  0  0  0
  -29.1465  -23.7603   23.4744 C   0  0  1  0  0  0  0  0  0  0  0  0
  -23.6120  -23.4400   15.8691 C   0  0  0  0  0  0  0  0  0  0  0  0
  -29.1352  -22.9357   24.7669 C   0  0  0  0  0  0  0  0  0  0  0  0
  -20.2109  -26.8798   20.6319 C   0  0  0  0  0  0  0  0  0  0  0  0
  -25.8274  -23.8022   20.4493 C   0  0  0  0  0  0  0  0  0  0  0  0
  -22.2588  -29.6779   26.2753 C   0  0  0  0  0  0  0  0  0  0  0  0
  -20.7166  -28.0912   25.1039 C   0  0  0  0  0  0  0  0  0  0  0  0
  -20.6605  -30.5221   24.5469 C   0  0  0  0  0  0  0  0  0  0  0  0
  -23.6678  -27.5217   19.1780 C   0  0  0  0  0  0  0  0  0  0  0  0
  -27.5199  -22.7546   18.9151 C   0  0  0  0  0  0  0  0  0  0  0  0
  -29.4220  -25.2310   23.8205 C   0  0  0  0  0  0  0  0  0  1  0  0
  -22.6196  -29.1198   23.7804 C   0  0  1  0  0  0  0  0  0  0  0  0
  -21.5360  -27.6097   20.4766 C   0  0  2  0  0  0  0  0  0  0  0  0
  -27.0845  -22.9239   20.3886 C   0  0  1  0  0  0  0  0  0  0  0  0
  -21.5921  -29.3498   24.9244 C   0  0  0  0  0  0  0  0  0  0  0  0
  -25.7863  -11.7139   20.2603 N   0  0  0  0  0  0  0  0  0  0  0  0
  -26.2909  -12.5331   19.3221 N   0  0  0  0  0  0  0  0  0  0  0  0
  -28.9190  -15.0749   20.4454 N   0  0  0  0  0  0  0  0  0  0  0  0
  -24.7052  -30.3436   24.3222 N   0  0  0  0  0  0  0  0  0  0  0  0
  -25.8200  -13.5101   17.2163 N   0  0  0  0  0  0  0  0  0  0  0  0
  -22.1389  -11.0344   18.0629 N   0  0  0  0  0  0  0  0  0  0  0  0
  -25.3384  -33.8447   24.2872 N   0  0  0  0  0  0  0  0  0  0  0  0
  -22.0158  -28.8339   22.4835 N   0  0  0  0  0  0  0  0  0  0  0  0
  -29.7920  -17.2708   17.2187 N   0  3  0  0  0  0  0  0  0  0  0  0
  -22.3469  -26.8980   19.4486 N   0  3  0  0  0  0  0  0  0  0  0  0
  -23.1316  -12.4352   16.5427 O   0  0  0  0  0  0  0  0  0  0  0  0
  -30.4760  -16.7886   20.2474 O   0  0  0  0  0  0  0  0  0  0  0  0
  -24.4518  -32.4127   25.8952 O   0  0  0  0  0  0  0  0  0  0  0  0
  -23.1904  -31.1863   22.7710 O   0  0  0  0  0  0  0  0  0  0  0  0
  -23.0431  -26.7785   22.1721 O   0  0  0  0  0  0  0  0  0  0  0  0
  -21.2395   -7.9112   22.5875 O   0  0  0  0  0  0  0  0  0  0  0  0
  -28.4176  -25.6920   24.7233 O   0  0  0  0  0  0  0  0  0  1  0  0
  -23.5043   -3.4123   24.8312 F   0  0  0  0  0  0  0  0  0  0  0  0
  -20.3860   -5.3829   21.8650 F   0  0  0  0  0  0  0  0  0  0  0  0
  1  2  1  0  0  0  0
  1  5  2  0  0  0  0
  2  6  2  0  0  0  0
  3 10  2  0  0  0  0
  3 18  1  0  0  0  0
  4 11  1  0  0  0  0
  4 18  2  0  0  0  0
  5 20  1  0  0  0  0
  6 22  1  0  0  0  0
  7  9  2  0  0  0  0
  7 23  1  0  0  0  0
  8 12  2  0  0  0  0
  8 21  1  0  0  0  0
  9 25  1  0  0  0  0
 10 27  1  0  0  0  0
 11 27  2  0  0  0  0
 12 28  1  0  0  0  0
 13 14  2  0  0  0  0
 13 29  1  0  0  0  0
 14 30  1  0  0  0  0
 15 24  1  0  0  0  0
 15 28  2  0  0  0  0
 16 25  2  0  0  0  0
 16 26  1  0  0  0  0
 17 30  2  0  0  0  0
 17 31  1  0  0  0  0
 18 32  1  0  0  0  0
 19 32  1  0  0  0  0
 19 33  2  0  0  0  0
 19 34  1  0  0  0  0
 20 22  2  0  0  0  0
 20 39  1  0  0  0  0
 21 24  2  0  0  0  0
 21 40  1  0  0  0  0
 22 55  1  0  0  0  0
 23 26  2  0  0  0  0
 23 54  1  0  0  0  0
 24 41  1  0  0  0  0
 25 62  1  0  0  0  0
 26 70  1  0  0  0  0
 27 91  1  0  0  0  0
 28 92  1  0  0  0  0
 29 31  2  0  0  0  0
 29 91  1  0  0  0  0
 30 93  1  0  0  0  0
 31 94  1  0  0  0  0
 32 76  2  0  0  0  0
 33 77  1  0  0  0  0
 33 80  1  0  0  0  0
 34 81  1  0  0  0  0
 34 86  2  0  0  0  0
 35 56  1  0  0  0  0
 35 78  1  0  0  0  0
 35 87  2  0  0  0  0
 36 57  1  0  0  0  0
 36 82  1  0  0  0  0
 36 88  2  0  0  0  0
 37 72  1  0  0  0  0
 37 79  1  0  0  0  0
 37 89  2  0  0  0  0
 38 73  1  0  0  0  0
 38 83  1  0  0  0  0
 38 90  2  0  0  0  0
 39 42  1  0  0  0  0
 40 57  1  0  0  0  0
 41 79  1  0  0  0  0
 42 45  1  0  0  0  0
 43 48  1  0  0  0  0
 43 52  1  0  0  0  0
 44 46  1  0  0  0  0
 44 54  1  0  0  0  0
 45 55  1  0  0  0  0
 46 56  1  0  0  0  0
 47 49  1  0  0  0  0
 47 58  1  0  0  0  0
 48 59  1  0  0  0  0
 49 61  1  0  0  0  0
 50 54  1  0  0  0  0
 50 60  1  0  0  0  0
 51 58  1  0  0  0  0
 51 61  1  0  0  0  0
 52 78  1  0  0  0  0
 53 59  1  0  0  0  0
 53 78  1  0  0  0  0
 55 82  1  0  0  0  0
 56 60  1  0  0  0  0
 57 79  1  0  0  0  0
 58 74  1  0  0  0  0
 59 77  1  0  0  0  0
 60 84  1  0  0  0  0
 61 63  1  0  0  0  0
 61 71  1  0  0  0  0
 64 73  1  0  0  0  0
 65 74  1  0  0  0  0
 66 75  1  0  0  0  0
 67 75  1  0  0  0  0
 68 75  1  0  0  0  0
 69 85  1  0  0  0  0
 70 74  1  0  0  0  0
 71 92  1  0  0  0  0
 72 75  1  0  0  0  0
 72 83  1  0  0  0  0
 73 85  1  0  0  0  0
 76 77  1  0  0  0  0
M  CHG  2  84   1  85   1
M  ISO  4  35 100  56 100  71 101  92 101
M  END
> <Batch ID>
0147

> <Smiles>
CNC(C)C(=O)NC(C(=O)N1Cc2cc([101O:1][101CH2:1]C3(C)CCC(C(C)Cc4cc(C)ccc4C4CC[100CH:0]([100C:0](=O)N5CCCC(n6nc(-c7ccc(Oc8ccc(F)cc8F)cc7)c(C(N)=O)c6N)C5)C(N)C4)C3)ccc2CC1C(=O)NC1CCCc2ccccc21)C(C)(C)C

> <Shape>
0.294

> <Color>
0.085

> <Negative vol penalty>
0.000

$$$$

  -OEChem-04052303133D

 92101  0     1  0  0  0  0  0999 V2000
  -25.3825  -32.0186   17.5144 C   0  0  0  0  0  0  0  0  0  0  0  0
  -25.6746  -30.8011   18.1208 C   0  0  0  0  0  0  0  0  0  0  0  0
  -23.1798   -9.6844   20.0177 C   0  0  0  0  0  0  0  0  0  0  0  0
  -23.7996   -9.9318   22.3398 C   0  0  0  0  0  0  0  0  0  0  0  0
  -24.6900  -33.0002   18.2222 C   0  0  0  0  0  0  0  0  0  0  0  0
  -25.2753  -30.5649   19.4358 C   0  0  0  0  0  0  0  0  0  0  0  0
  -23.2195  -25.9774   20.0474 C   0  0  0  0  0  0  0  0  0  0  0  0
  -22.4558   -8.5348   20.3334 C   0  0  0  0  0  0  0  0  0  0  0  0
  -23.0755   -8.7821   22.6555 C   0  0  0  0  0  0  0  0  0  0  0  0
  -24.0930  -24.8935   20.1255 C   0  0  0  0  0  0  0  0  0  0  0  0
  -19.8412   -7.9335   23.1454 C   0  0  0  0  0  0  0  0  0  0  0  0
  -19.0166   -7.9772   24.2694 C   0  0  0  0  0  0  0  0  0  0  0  0
  -31.4336  -18.8318   23.9487 C   0  0  0  0  0  0  0  0  0  0  0  0
  -29.5558  -17.7691   22.8618 C   0  0  0  0  0  0  0  0  0  0  0  0
  -23.8799  -24.9027   22.5284 C   0  0  0  0  0  0  0  0  0  0  0  0
  -31.7950  -16.9443   22.4846 C   0  0  0  0  0  0  0  0  0  0  0  0
  -20.2667   -6.1608   25.2570 C   0  0  0  0  0  0  0  0  0  0  0  0
  -23.8518  -10.3829   21.0209 C   0  0  0  0  0  0  0  0  0  0  0  0
  -30.0612  -18.7525   23.7122 C   0  0  0  0  0  0  0  0  0  0  0  0
  -24.1273  -12.8961   20.6806 C   0  0  0  0  0  0  0  0  0  0  0  0
  -24.2735  -32.7722   19.5433 C   0  0  0  0  0  0  0  0  0  0  0  0
  -22.6773  -26.5399   21.2119 C   0  0  0  0  0  0  0  0  0  0  0  0
  -24.5778  -31.5448   20.1623 C   0  0  0  0  0  0  0  0  0  0  0  0
  -22.9978  -25.9920   22.4622 C   0  0  0  0  0  0  0  0  0  0  0  0
  -32.3005  -17.9277   23.3349 C   0  0  0  0  0  0  0  0  0  0  0  0
  -30.4227  -16.8650   22.2480 C   0  0  0  0  0  0  0  0  0  0  0  0
  -22.4036   -8.0836   21.6523 C   0  0  0  0  0  0  0  0  0  0  0  0
  -24.4255  -24.3578   21.3663 C   0  0  0  0  0  0  0  0  0  0  0  0
  -20.8786   -7.0035   23.0771 C   0  0  0  0  0  0  0  0  0  0  0  0
  -19.2293   -7.0908   25.3253 C   0  0  0  0  0  0  0  0  0  0  0  0
  -21.0913   -6.1172   24.1329 C   0  0  0  0  0  0  0  0  0  0  0  0
  -24.6004  -11.5703   20.6954 C   0  0  0  0  0  0  0  0  0  0  0  0
  -25.2173  -13.6454   20.3107 C   0  0  0  0  0  0  0  0  0  0  0  0
  -29.1456  -19.7077   24.3613 C   0  0  0  0  0  0  0  0  0  0  0  0
  -22.8195  -13.4048   20.9750 C   0  0  0  0  0  0  0  0  0  0  0  0
  -22.8234  -29.3947   22.6021 C   0  0  0  0  0  0  0  0  0  0  0  0
  -20.6362  -28.0946   24.6141 C   0  0  0  0  0  0  0  0  0  0  0  0
  -19.2773  -25.2832   25.9911 C   0  0  0  0  0  0  0  0  0  0  0  0
  -30.6306  -14.8901   20.6978 C   0  0  0  0  0  0  0  0  0  0  0  0
  -23.5690  -33.8811   20.2839 C   0  0  0  0  0  0  0  0  0  0  0  0
  -21.7157  -27.6919   21.1090 C   0  0  0  0  0  0  0  0  0  0  0  0
  -22.4269  -26.5465   23.7409 C   0  0  0  0  0  0  0  0  0  0  0  0
  -22.8533  -33.4108   21.5476 C   0  0  0  0  0  0  0  0  0  0  0  0
  -29.7310  -12.2288   18.5104 C   0  0  0  0  0  0  0  0  0  0  0  0
  -23.7616  -32.5007   22.3682 C   0  0  0  0  0  0  0  0  0  0  0  0
  -28.2771  -11.9292   18.8826 C   0  0  0  0  0  0  0  0  0  0  0  0
  -27.8421  -22.0385   21.9227 C   0  0  0  0  0  0  0  0  0  0  0  0
  -30.5650  -12.6001   19.7352 C   0  0  0  0  0  0  0  0  0  0  0  0
  -28.8390  -20.9436   22.2795 C   0  0  0  0  0  0  0  0  0  0  0  0
  -28.5582  -13.3845   20.9297 C   0  0  0  0  0  0  0  0  0  0  0  0
  -24.1398  -31.2416   21.5788 C   0  0  1  0  0  0  0  0  0  0  0  0
  -21.6259  -28.5118   22.3924 C   0  0  1  0  0  0  0  0  0  0  0  0
  -27.6636  -13.0686   19.7199 C   0  0  2  0  0  0  0  0  0  0  0  0
  -26.5341  -21.6099   22.6218 C   0  0  2  0  0  0  0  0  0  0  0  0
  -27.0577  -21.0540   23.9999 C   0  0  0  0  0  0  0  0  0  0  0  0
  -25.8358  -20.5325   21.7613 C   0  0  0  0  0  0  0  0  0  0  0  0
  -26.1683  -19.9618   24.6023 C   0  0  0  0  0  0  0  0  0  0  0  0
  -27.3159  -22.1432   25.0550 C   0  0  0  0  0  0  0  0  0  0  0  0
  -17.5301  -24.5402   27.6320 C   0  0  0  0  0  0  0  0  0  0  0  0
  -34.0913  -17.8285   25.1038 C   0  0  0  0  0  0  0  0  0  0  0  0
  -34.3394  -19.3958   23.1498 C   0  0  0  0  0  0  0  0  0  0  0  0
  -34.6400  -16.9468   22.8448 C   0  0  0  0  0  0  0  0  0  0  0  0
  -22.4620  -28.9038   26.9209 C   0  0  0  0  0  0  0  0  0  0  0  0
  -21.1782  -27.3387   28.3942 C   0  0  0  0  0  0  0  0  0  0  0  0
  -20.0252  -29.2819   27.3372 C   0  0  0  0  0  0  0  0  0  0  0  0
  -17.7919  -23.7915   23.9109 C   0  0  0  0  0  0  0  0  0  0  0  0
  -25.5755  -22.8017   22.7490 C   0  0  0  0  0  0  0  0  0  1  0  0
  -20.7018  -27.3124   25.9036 C   0  0  1  0  0  0  0  0  0  0  0  0
  -17.8347  -24.8474   26.1741 C   0  0  2  0  0  0  0  0  0  0  0  0
  -33.7679  -18.0120   23.5886 C   0  0  0  0  0  0  0  0  0  0  0  0
  -21.1043  -28.1998   27.1152 C   0  0  0  0  0  0  0  0  0  0  0  0
  -25.8904  -11.4793   20.3612 N   0  0  0  0  0  0  0  0  0  0  0  0
  -26.2372  -12.7575   20.1330 N   0  0  0  0  0  0  0  0  0  0  0  0
  -28.3910  -20.4971   23.6123 N   0  0  0  0  0  0  0  0  0  0  0  0
  -21.4961  -27.6770   23.5884 N   0  0  0  0  0  0  0  0  0  0  0  0
  -29.9247  -13.6886   20.4769 N   0  0  0  0  0  0  0  0  0  0  0  0
  -25.3933  -14.9707   20.1234 N   0  0  0  0  0  0  0  0  0  0  0  0
  -21.8158  -12.4968   21.3389 N   0  0  0  0  0  0  0  0  0  0  0  0
  -29.9087  -15.8648   21.3859 N   0  0  0  0  0  0  0  0  0  0  0  0
  -23.0434  -30.2969   21.5788 N   0  0  0  0  0  0  0  0  0  0  0  0
  -19.4076  -26.6547   26.0483 N   0  0  0  0  0  0  0  0  0  0  0  0
  -29.0903  -19.7606   25.6889 N   0  3  0  0  0  0  0  0  0  0  0  0
  -17.5568  -23.6249   25.3683 N   0  3  0  0  0  0  0  0  0  0  0  0
  -22.5449  -14.6265   20.9012 O   0  0  0  0  0  0  0  0  0  0  0  0
  -23.4971  -29.2679   23.6179 O   0  0  0  0  0  0  0  0  0  0  0  0
  -19.8458  -29.0368   24.5178 O   0  0  0  0  0  0  0  0  0  0  0  0
  -20.1971  -24.4865   25.8187 O   0  0  0  0  0  0  0  0  0  0  0  0
  -31.7805  -15.0532   20.2817 O   0  0  0  0  0  0  0  0  0  0  0  0
  -21.6970   -6.9620   21.9607 O   0  0  0  0  0  0  0  0  0  0  0  0
  -25.2783  -23.3003   21.4454 O   0  0  0  0  0  0  0  0  0  1  0  0
  -18.4382   -7.1339   26.4054 F   0  0  0  0  0  0  0  0  0  0  0  0
  -22.0870   -5.2223   24.0735 F   0  0  0  0  0  0  0  0  0  0  0  0
  1  2  1  0  0  0  0
  1  5  2  0  0  0  0
  2  6  2  0  0  0  0
  3  8  2  0  0  0  0
  3 18  1  0  0  0  0
  4  9  1  0  0  0  0
  4 18  2  0  0  0  0
  5 21  1  0  0  0  0
  6 23  1  0  0  0  0
  7 10  2  0  0  0  0
  7 22  1  0  0  0  0
  8 27  1  0  0  0  0
  9 27  2  0  0  0  0
 10 28  1  0  0  0  0
 11 12  2  0  0  0  0
 11 29  1  0  0  0  0
 12 30  1  0  0  0  0
 13 19  2  0  0  0  0
 13 25  1  0  0  0  0
 14 19  1  0  0  0  0
 14 26  2  0  0  0  0
 15 24  1  0  0  0  0
 15 28  2  0  0  0  0
 16 25  2  0  0  0  0
 16 26  1  0  0  0  0
 17 30  2  0  0  0  0
 17 31  1  0  0  0  0
 18 32  1  0  0  0  0
 19 34  1  0  0  0  0
 20 32  1  0  0  0  0
 20 33  2  0  0  0  0
 20 35  1  0  0  0  0
 21 23  2  0  0  0  0
 21 40  1  0  0  0  0
 22 24  2  0  0  0  0
 22 41  1  0  0  0  0
 23 51  1  0  0  0  0
 24 42  1  0  0  0  0
 25 70  1  0  0  0  0
 26 79  1  0  0  0  0
 27 89  1  0  0  0  0
 28 90  1  0  0  0  0
 29 31  2  0  0  0  0
 29 89  1  0  0  0  0
 30 91  1  0  0  0  0
 31 92  1  0  0  0  0
 32 72  2  0  0  0  0
 33 73  1  0  0  0  0
 33 77  1  0  0  0  0
 34 74  1  0  0  0  0
 34 82  2  0  0  0  0
 35 78  1  0  0  0  0
 35 84  2  0  0  0  0
 36 52  1  0  0  0  0
 36 80  1  0  0  0  0
 36 85  2  0  0  0  0
 37 68  1  0  0  0  0
 37 75  1  0  0  0  0
 37 86  2  0  0  0  0
 38 69  1  0  0  0  0
 38 81  1  0  0  0  0
 38 87  2  0  0  0  0
 39 76  1  0  0  0  0
 39 79  1  0  0  0  0
 39 88  2  0  0  0  0
 40 43  1  0  0  0  0
 41 52  1  0  0  0  0
 42 75  1  0  0  0  0
 43 45  1  0  0  0  0
 44 46  1  0  0  0  0
 44 48  1  0  0  0  0
 45 51  1  0  0  0  0
 46 53  1  0  0  0  0
 47 49  1  0  0  0  0
 47 54  1  0  0  0  0
 48 76  1  0  0  0  0
 49 74  1  0  0  0  0
 50 53  1  0  0  0  0
 50 76  1  0  0  0  0
 51 80  1  0  0  0  0
 52 75  1  0  0  0  0
 53 73  1  0  0  0  0
 54 55  1  0  0  0  0
 54 56  1  0  0  0  0
 54 67  1  0  0  0  0
 55 57  1  0  0  0  0
 55 58  1  0  0  0  0
 55 74  1  0  0  0  0
 59 69  1  0  0  0  0
 60 70  1  0  0  0  0
 61 70  1  0  0  0  0
 62 70  1  0  0  0  0
 63 71  1  0  0  0  0
 64 71  1  0  0  0  0
 65 71  1  0  0  0  0
 66 83  1  0  0  0  0
 67 90  1  0  0  0  0
 68 71  1  0  0  0  0
 68 81  1  0  0  0  0
 69 83  1  0  0  0  0
 72 73  1  0  0  0  0
M  CHG  2  82   1  83   1
M  ISO  4  39 100  67 101  79 100  90 101
M  END
> <Batch ID>
0147

> <Smiles>
CNC(C)C(=O)NC(C(=O)N1Cc2cc([101O:1][101CH2:1]C3(C)CCN(C(=N)c4cc([100NH:0][100C:0](=O)N5CCCC(n6nc(-c7ccc(Oc8ccc(F)cc8F)cc7)c(C(N)=O)c6N)C5)cc(C(C)(C)C)c4)C3(C)C)ccc2CC1C(=O)NC1CCCc2ccccc21)C(C)(C)C

> <Shape>
0.237

> <Color>
0.189

> <Negative vol penalty>
0.000

$$$$

  -OEChem-04052303133D

 86 95  0     1  0  0  0  0  0999 V2000
  -19.7045  -21.6892   21.4787 C   0  0  0  0  0  0  0  0  0  0  0  0
  -21.0534  -21.3621   21.5720 C   0  0  0  0  0  0  0  0  0  0  0  0
  -25.7534  -14.3189   21.0738 C   0  0  0  0  0  0  0  0  0  0  0  0
  -25.8402  -14.4333   18.6621 C   0  0  0  0  0  0  0  0  0  0  0  0
  -19.3219  -22.9203   20.9477 C   0  0  0  0  0  0  0  0  0  0  0  0
  -22.0207  -22.2657   21.1333 C   0  0  0  0  0  0  0  0  0  0  0  0
  -31.9392  -21.6959   14.7424 C   0  0  0  0  0  0  0  0  0  0  0  0
  -28.6884  -24.4471   22.5823 C   0  0  0  0  0  0  0  0  0  0  0  0
  -30.7848  -21.2874   15.4092 C   0  0  0  0  0  0  0  0  0  0  0  0
  -24.7502  -13.3532   20.9919 C   0  0  0  0  0  0  0  0  0  0  0  0
  -24.8371  -13.4676   18.5802 C   0  0  0  0  0  0  0  0  0  0  0  0
  -29.9169  -24.6465   21.9539 C   0  0  0  0  0  0  0  0  0  0  0  0
  -24.5306  -10.0355   20.3777 C   0  0  0  0  0  0  0  0  0  0  0  0
  -24.6401   -8.9155   21.2018 C   0  0  0  0  0  0  0  0  0  0  0  0
  -29.1416  -26.7761   21.1275 C   0  0  0  0  0  0  0  0  0  0  0  0
  -30.8677  -23.2575   16.8381 C   0  0  0  0  0  0  0  0  0  0  0  0
  -22.5302   -9.4724   22.2389 C   0  0  0  0  0  0  0  0  0  0  0  0
  -26.2983  -14.8590   19.9089 C   0  0  0  0  0  0  0  0  0  0  0  0
  -28.7243  -15.6381   20.0324 C   0  0  0  0  0  0  0  0  0  0  0  0
  -20.2853  -23.8433   20.5112 C   0  0  0  0  0  0  0  0  0  0  0  0
  -27.6718  -25.4074   22.4787 C   0  0  0  0  0  0  0  0  0  0  0  0
  -21.6506  -23.5098   20.5948 C   0  0  0  0  0  0  0  0  0  0  0  0
  -32.5305  -22.8852   15.1331 C   0  0  0  0  0  0  0  0  0  0  0  0
  -27.9021  -26.5877   21.7576 C   0  0  0  0  0  0  0  0  0  0  0  0
  -32.0122  -23.6685   16.1724 C   0  0  0  0  0  0  0  0  0  0  0  0
  -30.2526  -22.0628   16.4497 C   0  0  0  0  0  0  0  0  0  0  0  0
  -24.2920  -12.9275   19.7451 C   0  0  0  0  0  0  0  0  0  0  0  0
  -30.1426  -25.8098   21.2239 C   0  0  0  0  0  0  0  0  0  0  0  0
  -23.4210  -10.8740   20.4842 C   0  0  0  0  0  0  0  0  0  0  0  0
  -23.6399   -8.6339   22.1324 C   0  0  0  0  0  0  0  0  0  0  0  0
  -22.4208  -10.5924   21.4148 C   0  0  0  0  0  0  0  0  0  0  0  0
  -27.3342  -15.8570   19.9929 C   0  0  0  0  0  0  0  0  0  0  0  0
  -29.2680  -16.8970   20.1109 C   0  0  0  0  0  0  0  0  0  0  0  0
  -29.4585  -14.4070   20.0009 C   0  0  0  0  0  0  0  0  0  0  0  0
  -24.7277  -25.4370   21.2807 C   0  0  0  0  0  0  0  0  0  0  0  0
  -24.6405  -28.3999   22.5982 C   0  0  0  0  0  0  0  0  0  0  0  0
  -26.3627  -31.1323   23.7005 C   0  0  0  0  0  0  0  0  0  0  0  0
  -28.4186  -22.2682   18.1645 C   0  0  0  0  0  0  0  0  0  0  0  0
  -19.8219  -25.1423   19.9008 C   0  0  0  0  0  0  0  0  0  0  0  0
  -26.3616  -25.1894   23.1847 C   0  0  0  0  0  0  0  0  0  0  0  0
  -33.7773  -23.5197   14.6063 C   0  0  0  0  0  0  0  0  0  0  0  0
  -26.8505  -27.6587   21.6328 C   0  0  0  0  0  0  0  0  0  0  0  0
  -20.9217  -26.1966   19.8045 C   0  0  0  0  0  0  0  0  0  0  0  0
  -27.5868  -21.3387   21.4993 C   0  0  0  0  0  0  0  0  0  0  0  0
  -22.1995  -25.5849   19.2390 C   0  0  0  0  0  0  0  0  0  0  0  0
  -27.5724  -19.8090   21.4565 C   0  0  0  0  0  0  0  0  0  0  0  0
  -33.7026  -24.9152   15.2585 C   0  0  0  0  0  0  0  0  0  0  0  0
  -27.0421  -21.9474   20.2084 C   0  0  0  0  0  0  0  0  0  0  0  0
  -27.6638  -19.9329   18.9339 C   0  0  0  0  0  0  0  0  0  0  0  0
  -22.7303  -24.4735   20.1524 C   0  0  1  0  0  0  0  0  0  0  0  0
  -25.2174  -26.0006   22.5846 C   0  0  1  0  0  0  0  0  0  0  0  0
  -28.2637  -19.2743   20.1869 C   0  0  2  0  0  0  0  0  0  0  0  0
  -26.0157  -33.4127   24.6889 C   0  0  0  0  0  0  0  0  0  0  0  0
  -23.8002  -29.4556   19.8615 C   0  0  0  0  0  0  0  0  0  0  0  0
  -24.3895  -31.7588   20.6464 C   0  0  0  0  0  0  0  0  0  0  0  0
  -22.5825  -30.4768   21.7925 C   0  0  0  0  0  0  0  0  0  0  0  0
  -33.0519  -28.6582   18.5303 C   0  0  0  0  0  0  0  0  0  0  0  0
  -33.9507  -27.3348   20.4486 C   0  0  0  0  0  0  0  0  0  0  0  0
  -27.8600  -30.4242   26.1532 C   0  0  0  0  0  0  0  0  0  0  0  0
  -33.2733  -26.1267   18.3666 C   0  0  0  0  0  0  0  0  0  0  0  0
  -32.3544  -25.9395   17.1579 C   0  0  0  0  0  0  0  0  0  0  0  0
  -31.5035  -27.2212   19.8778 C   0  0  0  0  0  0  0  0  0  1  0  0
  -24.9926  -29.7902   22.1269 C   0  0  1  0  0  0  0  0  0  0  0  0
  -26.2574  -31.9400   24.9815 C   0  0  2  0  0  0  0  0  0  0  0  0
  -23.9605  -30.3495   21.1074 C   0  0  0  0  0  0  0  0  0  0  0  0
  -32.9279  -27.3267   19.2920 C   0  0  0  0  0  0  0  0  0  0  0  0
  -27.0147  -17.1529   20.0424 N   0  0  0  0  0  0  0  0  0  0  0  0
  -28.2117  -17.7597   20.1139 N   0  0  0  0  0  0  0  0  0  0  0  0
  -32.7868  -24.7989   16.3913 N   0  0  1  0  0  0  0  0  0  0  0  0
  -25.5838  -27.3963   22.3357 N   0  0  0  0  0  0  0  0  0  0  0  0
  -27.7471  -21.3974   19.0485 N   0  0  0  0  0  0  0  0  0  0  0  0
  -30.5418  -17.3390   20.1770 N   0  0  0  0  0  0  0  0  0  0  0  0
  -28.7432  -13.2045   19.9188 N   0  0  0  0  0  0  0  0  0  0  0  0
  -29.0804  -21.6286   17.1168 N   0  0  0  0  0  0  0  0  0  0  0  0
  -23.4038  -25.0414   21.3006 N   0  0  0  0  0  0  0  0  0  0  0  0
  -25.1451  -30.6024   23.3293 N   0  0  0  0  0  0  0  0  0  0  0  0
  -27.5129  -31.8184   25.7752 N   0  3  0  0  0  0  0  0  0  0  0  0
  -30.7110  -14.3734   20.0607 O   0  0  0  0  0  0  0  0  0  0  0  0
  -25.4938  -25.3676   20.3268 O   0  0  0  0  0  0  0  0  0  0  0  0
  -23.5713  -28.2127   23.1841 O   0  0  0  0  0  0  0  0  0  0  0  0
  -27.4187  -30.9891   23.0882 O   0  0  0  0  0  0  0  0  0  0  0  0
  -28.4301  -23.4892   18.3403 O   0  0  0  0  0  0  0  0  0  0  0  0
  -23.3133  -11.9851   19.6648 O   0  0  0  0  0  0  0  0  0  0  0  0
  -31.3406  -26.0067   20.6091 O   0  0  0  0  0  0  0  0  0  1  0  0
  -23.7444   -7.5575   22.9227 F   0  0  0  0  0  0  0  0  0  0  0  0
  -21.3518  -11.3936   21.5209 F   0  0  0  0  0  0  0  0  0  0  0  0
  1  2  1  0  0  0  0
  1  5  2  0  0  0  0
  2  6  2  0  0  0  0
  3 10  2  0  0  0  0
  3 18  1  0  0  0  0
  4 11  1  0  0  0  0
  4 18  2  0  0  0  0
  5 20  1  0  0  0  0
  6 22  1  0  0  0  0
  7  9  2  0  0  0  0
  7 23  1  0  0  0  0
  8 12  2  0  0  0  0
  8 21  1  0  0  0  0
  9 26  1  0  0  0  0
 10 27  1  0  0  0  0
 11 27  2  0  0  0  0
 12 28  1  0  0  0  0
 13 14  2  0  0  0  0
 13 29  1  0  0  0  0
 14 30  1  0  0  0  0
 15 24  1  0  0  0  0
 15 28  2  0  0  0  0
 16 25  1  0  0  0  0
 16 26  2  0  0  0  0
 17 30  2  0  0  0  0
 17 31  1  0  0  0  0
 18 32  1  0  0  0  0
 19 32  1  0  0  0  0
 19 33  2  0  0  0  0
 19 34  1  0  0  0  0
 20 22  2  0  0  0  0
 20 39  1  0  0  0  0
 21 24  2  0  0  0  0
 21 40  1  0  0  0  0
 22 50  1  0  0  0  0
 23 25  2  0  0  0  0
 23 41  1  0  0  0  0
 24 42  1  0  0  0  0
 25 69  1  0  0  0  0
 26 74  1  0  0  0  0
 27 83  1  0  0  0  0
 28 84  1  0  0  0  0
 29 31  2  0  0  0  0
 29 83  1  0  0  0  0
 30 85  1  0  0  0  0
 31 86  1  0  0  0  0
 32 67  2  0  0  0  0
 33 68  1  0  0  0  0
 33 72  1  0  0  0  0
 34 73  1  0  0  0  0
 34 78  2  0  0  0  0
 35 51  1  0  0  0  0
 35 75  1  0  0  0  0
 35 79  2  0  0  0  0
 36 63  1  0  0  0  0
 36 70  1  0  0  0  0
 36 80  2  0  0  0  0
 37 64  1  0  0  0  0
 37 76  1  0  0  0  0
 37 81  2  0  0  0  0
 38 71  1  0  0  0  0
 38 74  1  0  0  0  0
 38 82  2  0  0  0  0
 39 43  1  0  0  0  0
 40 51  1  0  0  0  0
 41 47  1  0  0  0  0
 42 70  1  0  0  0  0
 43 45  1  0  0  0  0
 44 46  1  0  0  0  0
 44 48  1  0  0  0  0
 45 50  1  0  0  0  0
 46 52  1  0  0  0  0
 47 69  1  0  0  0  0
 48 71  1  0  0  0  0
 49 52  1  0  0  0  0
 49 71  1  0  0  0  0
 50 75  1  0  0  0  0
 51 70  1  0  0  0  0
 52 68  1  0  0  0  0
 53 64  1  0  0  0  0
 54 65  1  0  0  0  0
 55 65  1  0  0  0  0
 56 65  1  0  0  0  0
 57 66  1  0  0  0  0
 58 66  1  0  0  0  0
 59 77  1  0  0  0  0
 60 61  1  0  0  0  0
 60 66  1  0  0  0  0
 61 69  1  0  0  0  0
 62 66  1  0  0  0  0
 62 84  1  0  0  0  0
 63 65  1  0  0  0  0
 63 76  1  0  0  0  0
 64 77  1  0  0  0  0
 67 68  1  0  0  0  0
M  CHG  1  77   1
M  ISO  4  38 100  62 101  74 100  84 101
M  END
> <Batch ID>
0147

> <Smiles>
CNC(C)C(=O)NC(C(=O)N1Cc2cc([101O:1][101CH2:1]C(C)(C)CCN3CCc4ccc([100NH:0][100C:0](=O)N5CCCC(n6nc(-c7ccc(Oc8ccc(F)cc8F)cc7)c(C(N)=O)c6N)C5)cc43)ccc2CC1C(=O)NC1CCCc2ccccc21)C(C)(C)C

> <Shape>
0.243

> <Color>
0.058

> <Negative vol penalty>
0.000

$$$$

  -OEChem-04052303133D

 88 97  0     1  0  0  0  0  0999 V2000
  -25.3157  -31.6756   24.4742 C   0  0  0  0  0  0  0  0  0  0  0  0
  -25.4641  -30.3071   24.6752 C   0  0  0  0  0  0  0  0  0  0  0  0
  -23.2654  -10.0779   22.1714 C   0  0  0  0  0  0  0  0  0  0  0  0
  -23.5053   -9.5315   19.8303 C   0  0  0  0  0  0  0  0  0  0  0  0
  -25.0531  -32.1669   23.1961 C   0  0  0  0  0  0  0  0  0  0  0  0
  -25.3489  -29.4288   23.5983 C   0  0  0  0  0  0  0  0  0  0  0  0
  -28.9863  -25.9055   23.5671 C   0  0  0  0  0  0  0  0  0  0  0  0
  -32.7177  -17.1636   23.6470 C   0  0  0  0  0  0  0  0  0  0  0  0
  -32.1021  -16.3430   22.7019 C   0  0  0  0  0  0  0  0  0  0  0  0
  -22.5109   -8.9207   22.3642 C   0  0  0  0  0  0  0  0  0  0  0  0
  -22.7508   -8.3743   20.0231 C   0  0  0  0  0  0  0  0  0  0  0  0
  -28.8422  -24.8338   24.4472 C   0  0  0  0  0  0  0  0  0  0  0  0
  -23.0808   -5.6083   22.7333 C   0  0  0  0  0  0  0  0  0  0  0  0
  -23.3743   -4.8211   23.8467 C   0  0  0  0  0  0  0  0  0  0  0  0
  -28.0162  -23.4676   22.6388 C   0  0  0  0  0  0  0  0  0  0  0  0
  -29.9404  -17.1789   23.3840 C   0  0  0  0  0  0  0  0  0  0  0  0
  -21.1217   -5.1346   24.6621 C   0  0  0  0  0  0  0  0  0  0  0  0
  -23.7625  -10.3834   20.9044 C   0  0  0  0  0  0  0  0  0  0  0  0
  -24.1335  -12.9071   20.9312 C   0  0  0  0  0  0  0  0  0  0  0  0
  -24.9442  -31.2950   22.1013 C   0  0  0  0  0  0  0  0  0  0  0  0
  -28.6355  -25.7693   22.2163 C   0  0  0  0  0  0  0  0  0  0  0  0
  -25.0833  -29.9087   22.3045 C   0  0  0  0  0  0  0  0  0  0  0  0
  -28.1592  -24.5383   21.7431 C   0  0  0  0  0  0  0  0  0  0  0  0
  -31.9446  -17.9918   24.4607 C   0  0  0  0  0  0  0  0  0  0  0  0
  -30.5560  -17.9995   24.3291 C   0  0  0  0  0  0  0  0  0  0  0  0
  -30.7135  -16.3506   22.5703 C   0  0  0  0  0  0  0  0  0  0  0  0
  -22.2537   -8.0688   21.2901 C   0  0  0  0  0  0  0  0  0  0  0  0
  -28.3544  -23.6155   23.9837 C   0  0  0  0  0  0  0  0  0  0  0  0
  -21.8078   -6.1587   22.5843 C   0  0  0  0  0  0  0  0  0  0  0  0
  -22.3947   -4.5842   24.8112 C   0  0  0  0  0  0  0  0  0  0  0  0
  -20.8282   -5.9219   23.5487 C   0  0  0  0  0  0  0  0  0  0  0  0
  -24.5414  -11.5790   20.7045 C   0  0  0  0  0  0  0  0  0  0  0  0
  -25.2280  -13.6649   20.5929 C   0  0  0  0  0  0  0  0  0  0  0  0
  -29.9053  -20.2497   25.1349 C   0  0  0  0  0  0  0  0  0  0  0  0
  -22.8776  -13.4108   21.4052 C   0  0  0  0  0  0  0  0  0  0  0  0
  -26.5070  -27.1497   20.3012 C   0  0  0  0  0  0  0  0  0  0  0  0
  -28.0025  -25.3955   18.0190 C   0  0  0  0  0  0  0  0  0  0  0  0
  -29.3208  -22.0512   17.7105 C   0  0  0  0  0  0  0  0  0  0  0  0
  -30.7091  -14.6360   20.7247 C   0  0  0  0  0  0  0  0  0  0  0  0
  -24.6126  -31.8688   20.7465 C   0  0  0  0  0  0  0  0  0  0  0  0
  -28.8221  -26.9269   21.2742 C   0  0  0  0  0  0  0  0  0  0  0  0
  -27.7877  -24.3343   20.2978 C   0  0  0  0  0  0  0  0  0  0  0  0
  -24.8771  -30.9028   19.5945 C   0  0  0  0  0  0  0  0  0  0  0  0
  -29.5206  -12.3836   18.2364 C   0  0  0  0  0  0  0  0  0  0  0  0
  -28.0784  -18.9679   27.0581 C   0  0  0  0  0  0  0  0  0  0  0  0
  -24.3146  -29.5218   19.9160 C   0  0  0  0  0  0  0  0  0  0  0  0
  -28.0857  -12.0827   18.6754 C   0  0  0  0  0  0  0  0  0  0  0  0
  -27.9805  -20.4538   26.7828 C   0  0  0  0  0  0  0  0  0  0  0  0
  -28.5721  -18.2391   25.8213 C   0  0  0  0  0  0  0  0  0  0  0  0
  -30.4608  -12.5285   19.4318 C   0  0  0  0  0  0  0  0  0  0  0  0
  -28.5891  -13.1890   20.8911 C   0  0  0  0  0  0  0  0  0  0  0  0
  -24.9899  -28.9263   21.1573 C   0  0  1  0  0  0  0  0  0  0  0  0
  -27.9491  -26.8289   20.0269 C   0  0  1  0  0  0  0  0  0  0  0  0
  -27.5924  -13.0988   19.7241 C   0  0  2  0  0  0  0  0  0  0  0  0
  -29.3281  -21.0278   26.3323 C   0  0  1  0  0  0  0  0  0  0  0  0
  -30.3732  -20.9718   27.4622 C   0  0  0  0  0  0  0  0  0  0  0  0
  -33.0841  -18.0770   26.6924 C   0  0  0  0  0  0  0  0  0  0  0  0
  -31.1615  -21.1502   16.2623 C   0  0  0  0  0  0  0  0  0  0  0  0
  -25.7487  -24.7144   16.0782 C   0  0  0  0  0  0  0  0  0  0  0  0
  -26.9528  -22.5875   15.5354 C   0  0  0  0  0  0  0  0  0  0  0  0
  -28.0265  -24.7858   15.0481 C   0  0  0  0  0  0  0  0  0  0  0  0
  -30.7689  -20.9415   20.0409 C   0  0  0  0  0  0  0  0  0  0  0  0
  -32.6310  -18.8603   25.4644 C   0  0  0  0  0  0  0  0  0  0  0  0
  -29.1160  -22.5034   25.9431 C   0  0  0  0  0  0  0  0  0  1  0  0
  -27.8224  -24.0105   17.4459 C   0  0  1  0  0  0  0  0  0  0  0  0
  -30.7845  -21.6536   17.6469 C   0  0  2  0  0  0  0  0  0  0  0  0
  -27.1303  -24.0306   16.0537 C   0  0  0  0  0  0  0  0  0  0  0  0
  -25.7970  -11.4945   20.2568 N   0  0  0  0  0  0  0  0  0  0  0  0
  -26.1874  -12.7791   20.1992 N   0  0  0  0  0  0  0  0  0  0  0  0
  -29.7370  -18.8511   25.1635 N   0  0  0  0  0  0  0  0  0  0  0  0
  -27.9819  -25.4980   19.4171 N   0  0  0  0  0  0  0  0  0  0  0  0
  -29.9312  -13.5102   20.3807 N   0  0  0  0  0  0  0  0  0  0  0  0
  -25.4536  -14.9959   20.5967 N   0  0  0  0  0  0  0  0  0  0  0  0
  -21.8836  -13.7180   20.4661 N   0  0  0  0  0  0  0  0  0  0  0  0
  -30.0887  -15.5168   21.6101 N   0  0  0  0  0  0  0  0  0  0  0  0
  -26.3008  -28.4128   20.8221 N   0  0  0  0  0  0  0  0  0  0  0  0
  -29.1442  -23.3931   17.4472 N   0  0  0  0  0  0  0  0  0  0  0  0
  -31.0714  -20.5743   18.6336 N   0  3  0  0  0  0  0  0  0  0  0  0
  -30.5378  -20.8550   24.2640 O   0  0  0  0  0  0  0  0  0  0  0  0
  -22.6496  -13.5989   22.6243 O   0  0  0  0  0  0  0  0  0  0  0  0
  -25.6450  -26.3136   20.0568 O   0  0  0  0  0  0  0  0  0  0  0  0
  -28.1630  -26.3501   17.2544 O   0  0  0  0  0  0  0  0  0  0  0  0
  -28.4236  -21.2506   17.9645 O   0  0  0  0  0  0  0  0  0  0  0  0
  -31.8313  -14.8201   20.2463 O   0  0  0  0  0  0  0  0  0  0  0  0
  -21.5177   -6.9394   21.4779 O   0  0  0  0  0  0  0  0  0  0  0  0
  -28.2122  -22.5680   24.8407 O   0  0  0  0  0  0  0  0  0  1  0  0
  -22.6763   -3.8270   25.8796 F   0  0  0  0  0  0  0  0  0  0  0  0
  -19.6031   -6.4470   23.4104 F   0  0  0  0  0  0  0  0  0  0  0  0
  1  2  1  0  0  0  0
  1  5  2  0  0  0  0
  2  6  2  0  0  0  0
  3 10  2  0  0  0  0
  3 18  1  0  0  0  0
  4 11  1  0  0  0  0
  4 18  2  0  0  0  0
  5 20  1  0  0  0  0
  6 22  1  0  0  0  0
  7 12  2  0  0  0  0
  7 21  1  0  0  0  0
  8  9  2  0  0  0  0
  8 24  1  0  0  0  0
  9 26  1  0  0  0  0
 10 27  1  0  0  0  0
 11 27  2  0  0  0  0
 12 28  1  0  0  0  0
 13 14  2  0  0  0  0
 13 29  1  0  0  0  0
 14 30  1  0  0  0  0
 15 23  1  0  0  0  0
 15 28  2  0  0  0  0
 16 25  1  0  0  0  0
 16 26  2  0  0  0  0
 17 30  2  0  0  0  0
 17 31  1  0  0  0  0
 18 32  1  0  0  0  0
 19 32  1  0  0  0  0
 19 33  2  0  0  0  0
 19 35  1  0  0  0  0
 20 22  2  0  0  0  0
 20 40  1  0  0  0  0
 21 23  2  0  0  0  0
 21 41  1  0  0  0  0
 22 52  1  0  0  0  0
 23 42  1  0  0  0  0
 24 25  2  0  0  0  0
 24 63  1  0  0  0  0
 25 70  1  0  0  0  0
 26 75  1  0  0  0  0
 27 85  1  0  0  0  0
 28 86  1  0  0  0  0
 29 31  2  0  0  0  0
 29 85  1  0  0  0  0
 30 87  1  0  0  0  0
 31 88  1  0  0  0  0
 32 68  2  0  0  0  0
 33 69  1  0  0  0  0
 33 73  1  0  0  0  0
 34 55  1  0  0  0  0
 34 70  1  0  0  0  0
 34 79  2  0  0  0  0
 35 74  1  0  0  0  0
 35 80  2  0  0  0  0
 36 53  1  0  0  0  0
 36 76  1  0  0  0  0
 36 81  2  0  0  0  0
 37 65  1  0  0  0  0
 37 71  1  0  0  0  0
 37 82  2  0  0  0  0
 38 66  1  0  0  0  0
 38 77  1  0  0  0  0
 38 83  2  0  0  0  0
 39 72  1  0  0  0  0
 39 75  1  0  0  0  0
 39 84  2  0  0  0  0
 40 43  1  0  0  0  0
 41 53  1  0  0  0  0
 42 71  1  0  0  0  0
 43 46  1  0  0  0  0
 44 47  1  0  0  0  0
 44 50  1  0  0  0  0
 45 48  1  0  0  0  0
 45 49  1  0  0  0  0
 46 52  1  0  0  0  0
 47 54  1  0  0  0  0
 48 55  1  0  0  0  0
 49 70  1  0  0  0  0
 50 72  1  0  0  0  0
 51 54  1  0  0  0  0
 51 72  1  0  0  0  0
 52 76  1  0  0  0  0
 53 71  1  0  0  0  0
 54 69  1  0  0  0  0
 55 56  1  0  0  0  0
 55 64  1  0  0  0  0
 57 63  1  0  0  0  0
 58 66  1  0  0  0  0
 59 67  1  0  0  0  0
 60 67  1  0  0  0  0
 61 67  1  0  0  0  0
 62 78  1  0  0  0  0
 64 86  1  0  0  0  0
 65 67  1  0  0  0  0
 65 77  1  0  0  0  0
 66 78  1  0  0  0  0
 68 69  1  0  0  0  0
M  CHG  1  78   1
M  ISO  4  39 100  64 101  75 100  86 101
M  END
> <Batch ID>
0147

> <Smiles>
CCc1ccc([100NH:0][100C:0](=O)N2CCCC(n3nc(-c4ccc(Oc5ccc(F)cc5F)cc4)c(C(N)=O)c3N)C2)cc1N1CCCC(C)([101CH2:1][101O:1]c2ccc3c(c2)CN(C(=O)C(NC(=O)C(C)NC)C(C)(C)C)C(C(=O)NC2CCCc4ccccc42)C3)C1=O

> <Shape>
0.285

> <Color>
0.195

> <Negative vol penalty>
0.000

$$$$

  -OEChem-04052303133D

 86 95  0     1  0  0  0  0  0999 V2000
  -25.7260  -35.6164   23.2661 C   0  0  0  0  0  0  0  0  0  0  0  0
  -26.5875  -34.5311   23.1426 C   0  0  0  0  0  0  0  0  0  0  0  0
  -24.2134   -9.3337   21.3262 C   0  0  0  0  0  0  0  0  0  0  0  0
  -24.9692  -10.3194   23.3984 C   0  0  0  0  0  0  0  0  0  0  0  0
  -24.3566  -35.4041   23.4192 C   0  0  0  0  0  0  0  0  0  0  0  0
  -26.0802  -33.2326   23.1733 C   0  0  0  0  0  0  0  0  0  0  0  0
  -28.6810  -21.3677   22.3982 C   0  0  0  0  0  0  0  0  0  0  0  0
  -29.5528  -21.4647   20.1471 C   0  0  0  0  0  0  0  0  0  0  0  0
  -28.0663  -30.2851   19.5660 C   0  0  0  0  0  0  0  0  0  0  0  0
  -29.0517  -22.6973   22.5991 C   0  0  0  0  0  0  0  0  0  0  0  0
  -29.9234  -22.7944   20.3479 C   0  0  0  0  0  0  0  0  0  0  0  0
  -23.8739   -8.1642   22.0063 C   0  0  0  0  0  0  0  0  0  0  0  0
  -24.6297   -9.1499   24.0786 C   0  0  0  0  0  0  0  0  0  0  0  0
  -29.3474  -29.7821   19.7885 C   0  0  0  0  0  0  0  0  0  0  0  0
  -22.4736   -5.0510   23.2562 C   0  0  0  0  0  0  0  0  0  0  0  0
  -21.2416   -4.4656   22.9646 C   0  0  0  0  0  0  0  0  0  0  0  0
  -28.3944  -27.6733   20.4697 C   0  0  0  0  0  0  0  0  0  0  0  0
  -20.1155   -6.4809   23.6771 C   0  0  0  0  0  0  0  0  0  0  0  0
  -24.7611  -10.4113   22.0222 C   0  0  0  0  0  0  0  0  0  0  0  0
  -24.2897  -12.7380   21.0884 C   0  0  0  0  0  0  0  0  0  0  0  0
  -28.9317  -20.7514   21.1722 C   0  0  0  0  0  0  0  0  0  0  0  0
  -23.8311  -34.1026   23.4421 C   0  0  0  0  0  0  0  0  0  0  0  0
  -26.9373  -29.4882   19.8045 C   0  0  0  0  0  0  0  0  0  0  0  0
  -24.7026  -33.0026   23.3282 C   0  0  0  0  0  0  0  0  0  0  0  0
  -27.1002  -28.1677   20.2470 C   0  0  0  0  0  0  0  0  0  0  0  0
  -29.6729  -23.4106   21.5740 C   0  0  0  0  0  0  0  0  0  0  0  0
  -24.0820   -8.0723   23.3825 C   0  0  0  0  0  0  0  0  0  0  0  0
  -29.5115  -28.4769   20.2432 C   0  0  0  0  0  0  0  0  0  0  0  0
  -22.5266   -6.3513   23.7583 C   0  0  0  0  0  0  0  0  0  0  0  0
  -20.0625   -5.1806   23.1751 C   0  0  0  0  0  0  0  0  0  0  0  0
  -21.3475   -7.0662   23.9687 C   0  0  0  0  0  0  0  0  0  0  0  0
  -25.1125  -11.6195   21.3201 C   0  0  0  0  0  0  0  0  0  0  0  0
  -25.0849  -13.6093   20.3849 C   0  0  0  0  0  0  0  0  0  0  0  0
  -22.9284  -12.9688   21.4746 C   0  0  0  0  0  0  0  0  0  0  0  0
  -24.4373  -29.6678   21.7593 C   0  0  0  0  0  0  0  0  0  0  0  0
  -23.4393  -27.0716   20.0901 C   0  0  0  0  0  0  0  0  0  0  0  0
  -24.2559  -24.3828   18.1535 C   0  0  0  0  0  0  0  0  0  0  0  0
  -30.6648  -25.6149   20.8695 C   0  0  0  0  0  0  0  0  0  0  0  0
  -29.9895  -16.1547   19.6339 C   0  0  0  0  0  0  0  0  0  0  0  0
  -22.3493  -33.9217   23.6572 C   0  0  0  0  0  0  0  0  0  0  0  0
  -25.5632  -30.0369   19.5340 C   0  0  0  0  0  0  0  0  0  0  0  0
  -25.9214  -27.2646   20.4988 C   0  0  0  0  0  0  0  0  0  0  0  0
  -21.8487  -32.5236   23.3037 C   0  0  0  0  0  0  0  0  0  0  0  0
  -29.5759  -12.9556   18.1924 C   0  0  0  0  0  0  0  0  0  0  0  0
  -22.7675  -31.4613   23.8988 C   0  0  0  0  0  0  0  0  0  0  0  0
  -28.3330  -12.3927   18.8761 C   0  0  0  0  0  0  0  0  0  0  0  0
  -28.5762  -18.3838   22.1811 C   0  0  0  0  0  0  0  0  0  0  0  0
  -30.4130  -13.7654   19.1735 C   0  0  0  0  0  0  0  0  0  0  0  0
  -28.5265  -16.9929   21.5630 C   0  0  0  0  0  0  0  0  0  0  0  0
  -29.4195  -18.5413   19.9669 C   0  0  0  0  0  0  0  0  0  0  0  0
  -28.3970  -14.3660   20.4869 C   0  0  0  0  0  0  0  0  0  0  0  0
  -28.5297  -19.3094   20.9545 C   0  0  2  0  0  0  0  0  0  0  0  0
  -24.1874  -31.5797   23.3319 C   0  0  1  0  0  0  0  0  0  0  0  0
  -24.4661  -29.3056   20.3014 C   0  0  1  0  0  0  0  0  0  0  0  0
  -27.5235  -13.5174   19.5398 C   0  0  2  0  0  0  0  0  0  0  0  0
  -23.2287  -22.4221   16.9713 C   0  0  0  0  0  0  0  0  0  0  0  0
  -32.2869  -27.1011   22.1023 C   0  0  0  0  0  0  0  0  0  0  0  0
  -23.1119  -25.6352   22.7621 C   0  0  0  0  0  0  0  0  0  0  0  0
  -23.0185  -23.4705   21.5076 C   0  0  0  0  0  0  0  0  0  0  0  0
  -21.2753  -25.2119   21.1182 C   0  0  0  0  0  0  0  0  0  0  0  0
  -25.2076  -25.3272   15.5150 C   0  0  0  0  0  0  0  0  0  0  0  0
  -23.6139  -25.5787   20.2301 C   0  0  1  0  0  0  0  0  0  0  0  0
  -23.6777  -23.8697   16.8470 C   0  0  2  0  0  0  0  0  0  0  0  0
  -30.9041  -26.9951   21.4763 C   0  0  1  0  0  0  0  0  0  1  0  0
  -22.7773  -24.9915   21.4017 C   0  0  0  0  0  0  0  0  0  0  0  0
  -26.3365  -11.7642   20.8054 N   0  0  0  0  0  0  0  0  0  0  0  0
  -26.2886  -12.9839   20.2432 N   0  0  0  0  0  0  0  0  0  0  0  0
  -24.5981  -27.8492   20.2257 N   0  0  0  0  0  0  0  0  0  0  0  0
  -29.6263  -14.8165   19.8215 N   0  0  0  0  0  0  0  0  0  0  0  0
  -29.2500  -17.1307   20.3008 N   0  0  0  0  0  0  0  0  0  0  0  0
  -24.8648  -14.8417   19.8797 N   0  0  0  0  0  0  0  0  0  0  0  0
  -22.2592  -11.9689   22.1935 N   0  0  0  0  0  0  0  0  0  0  0  0
  -30.0435  -24.7406   21.7745 N   0  0  0  0  0  0  0  0  0  0  0  0
  -24.2489  -31.0152   22.0007 N   0  0  0  0  0  0  0  0  0  0  0  0
  -23.2988  -25.0067   18.9255 N   0  0  0  0  0  0  0  0  0  0  0  0
  -24.6953  -23.9547   15.7615 N   0  3  0  0  0  0  0  0  0  0  0  0
  -22.3182  -14.0234   21.1765 O   0  0  0  0  0  0  0  0  0  0  0  0
  -24.5744  -28.7895   22.6029 O   0  0  0  0  0  0  0  0  0  0  0  0
  -22.3173  -27.5305   19.8615 O   0  0  0  0  0  0  0  0  0  0  0  0
  -25.4375  -24.2409   18.4603 O   0  0  0  0  0  0  0  0  0  0  0  0
  -30.9863  -25.3644   19.7115 O   0  0  0  0  0  0  0  0  0  0  0  0
  -30.9614  -16.4646   18.9317 O   0  0  0  0  0  0  0  0  0  0  0  0
  -23.7506   -6.9313   24.0465 O   0  0  0  0  0  0  0  0  0  0  0  0
  -30.7709  -27.9797   20.4636 O   0  0  0  0  0  0  0  0  0  1  0  0
  -18.8795   -4.6189   22.8936 F   0  0  0  0  0  0  0  0  0  0  0  0
  -21.3922   -8.3162   24.4497 F   0  0  0  0  0  0  0  0  0  0  0  0
  1  2  1  0  0  0  0
  1  5  2  0  0  0  0
  2  6  2  0  0  0  0
  3 12  2  0  0  0  0
  3 19  1  0  0  0  0
  4 13  1  0  0  0  0
  4 19  2  0  0  0  0
  5 22  1  0  0  0  0
  6 24  1  0  0  0  0
  7 10  2  0  0  0  0
  7 21  1  0  0  0  0
  8 11  1  0  0  0  0
  8 21  2  0  0  0  0
  9 14  2  0  0  0  0
  9 23  1  0  0  0  0
 10 26  1  0  0  0  0
 11 26  2  0  0  0  0
 12 27  1  0  0  0  0
 13 27  2  0  0  0  0
 14 28  1  0  0  0  0
 15 16  2  0  0  0  0
 15 29  1  0  0  0  0
 16 30  1  0  0  0  0
 17 25  1  0  0  0  0
 17 28  2  0  0  0  0
 18 30  2  0  0  0  0
 18 31  1  0  0  0  0
 19 32  1  0  0  0  0
 20 32  1  0  0  0  0
 20 33  2  0  0  0  0
 20 34  1  0  0  0  0
 21 52  1  0  0  0  0
 22 24  2  0  0  0  0
 22 40  1  0  0  0  0
 23 25  2  0  0  0  0
 23 41  1  0  0  0  0
 24 53  1  0  0  0  0
 25 42  1  0  0  0  0
 26 73  1  0  0  0  0
 27 83  1  0  0  0  0
 28 84  1  0  0  0  0
 29 31  2  0  0  0  0
 29 83  1  0  0  0  0
 30 85  1  0  0  0  0
 31 86  1  0  0  0  0
 32 66  2  0  0  0  0
 33 67  1  0  0  0  0
 33 71  1  0  0  0  0
 34 72  1  0  0  0  0
 34 77  2  0  0  0  0
 35 54  1  0  0  0  0
 35 74  1  0  0  0  0
 35 78  2  0  0  0  0
 36 62  1  0  0  0  0
 36 68  1  0  0  0  0
 36 79  2  0  0  0  0
 37 63  1  0  0  0  0
 37 75  1  0  0  0  0
 37 80  2  0  0  0  0
 38 64  1  0  0  0  0
 38 73  1  0  0  0  0
 38 81  2  0  0  0  0
 39 69  1  0  0  0  0
 39 70  1  0  0  0  0
 39 82  2  0  0  0  0
 40 43  1  0  0  0  0
 41 54  1  0  0  0  0
 42 68  1  0  0  0  0
 43 45  1  0  0  0  0
 44 46  1  0  0  0  0
 44 48  1  0  0  0  0
 45 53  1  0  0  0  0
 46 55  1  0  0  0  0
 47 49  1  0  0  0  0
 47 52  1  0  0  0  0
 48 69  1  0  0  0  0
 49 70  1  0  0  0  0
 50 52  1  0  0  0  0
 50 70  1  0  0  0  0
 51 55  1  0  0  0  0
 51 69  1  0  0  0  0
 53 74  1  0  0  0  0
 54 68  1  0  0  0  0
 55 67  1  0  0  0  0
 56 63  1  0  0  0  0
 57 64  1  0  0  0  0
 58 65  1  0  0  0  0
 59 65  1  0  0  0  0
 60 65  1  0  0  0  0
 61 76  1  0  0  0  0
 62 65  1  0  0  0  0
 62 75  1  0  0  0  0
 63 76  1  0  0  0  0
 64 84  1  0  0  0  0
 66 67  1  0  0  0  0
M  CHG  1  76   1
M  ISO  4  39 100  64 101  70 100  84 101
M  END
> <Batch ID>
0147

> <Smiles>
CNC(C)C(=O)NC(C(=O)N1Cc2cc([101O:1][101CH:1](C)C(=O)Nc3ccc(C4CC[100N:0]([100C:0](=O)N5CCCC(n6nc(-c7ccc(Oc8ccc(F)cc8F)cc7)c(C(N)=O)c6N)C5)C4)cc3)ccc2CC1C(=O)NC1CCCc2ccccc21)C(C)(C)C

> <Shape>
0.325

> <Color>
0.137

> <Negative vol penalty>
0.000

$$$$

  -OEChem-04052303133D

 89 97  0     1  0  0  0  0  0999 V2000
  -28.0561  -24.8862   16.7247 C   0  0  0  0  0  0  0  0  0  0  0  0
  -26.8828  -25.0676   17.4500 C   0  0  0  0  0  0  0  0  0  0  0  0
  -24.8339  -11.5025   20.5521 C   0  0  0  0  0  0  0  0  0  0  0  0
  -22.9808  -12.6736   19.5364 C   0  0  0  0  0  0  0  0  0  0  0  0
  -29.2575  -25.4074   17.2030 C   0  0  0  0  0  0  0  0  0  0  0  0
  -26.9106  -25.7693   18.6547 C   0  0  0  0  0  0  0  0  0  0  0  0
  -23.1077  -29.0891   19.0572 C   0  0  0  0  0  0  0  0  0  0  0  0
  -22.3347  -20.7730   19.9135 C   0  0  0  0  0  0  0  0  0  0  0  0
  -21.2533  -21.6505   19.9913 C   0  0  0  0  0  0  0  0  0  0  0  0
  -23.9772  -10.4642   20.9177 C   0  0  0  0  0  0  0  0  0  0  0  0
  -22.1242  -11.6353   19.9019 C   0  0  0  0  0  0  0  0  0  0  0  0
  -21.8524  -28.5820   19.3899 C   0  0  0  0  0  0  0  0  0  0  0  0
  -22.5207   -7.7974   19.4345 C   0  0  0  0  0  0  0  0  0  0  0  0
  -22.9539   -6.4905   19.2111 C   0  0  0  0  0  0  0  0  0  0  0  0
  -22.1934  -29.2569   21.6806 C   0  0  0  0  0  0  0  0  0  0  0  0
  -23.3556  -21.8627   21.8129 C   0  0  0  0  0  0  0  0  0  0  0  0
  -22.7796   -6.0283   21.5760 C   0  0  0  0  0  0  0  0  0  0  0  0
  -24.3357  -12.6073   19.8615 C   0  0  0  0  0  0  0  0  0  0  0  0
  -25.9507  -13.7986   18.2867 C   0  0  0  0  0  0  0  0  0  0  0  0
  -29.2984  -26.1242   18.4093 C   0  0  0  0  0  0  0  0  0  0  0  0
  -23.9213  -29.6751   20.0376 C   0  0  0  0  0  0  0  0  0  0  0  0
  -28.1140  -26.2994   19.1502 C   0  0  0  0  0  0  0  0  0  0  0  0
  -23.4576  -29.7730   21.3573 C   0  0  0  0  0  0  0  0  0  0  0  0
  -22.2742  -22.7403   21.8906 C   0  0  0  0  0  0  0  0  0  0  0  0
  -23.3859  -20.8790   20.8244 C   0  0  0  0  0  0  0  0  0  0  0  0
  -21.2230  -22.6342   20.9798 C   0  0  0  0  0  0  0  0  0  0  0  0
  -22.6224  -10.5305   20.5926 C   0  0  0  0  0  0  0  0  0  0  0  0
  -21.3962  -28.6632   20.7023 C   0  0  0  0  0  0  0  0  0  0  0  0
  -22.2170   -8.2198   20.7288 C   0  0  0  0  0  0  0  0  0  0  0  0
  -23.0833   -5.6060   20.2818 C   0  0  0  0  0  0  0  0  0  0  0  0
  -22.3464   -7.3353   21.7995 C   0  0  0  0  0  0  0  0  0  0  0  0
  -25.2199  -13.6805   19.4841 C   0  0  0  0  0  0  0  0  0  0  0  0
  -26.6298  -14.9856   18.4145 C   0  0  0  0  0  0  0  0  0  0  0  0
  -26.0103  -12.9144   17.1596 C   0  0  0  0  0  0  0  0  0  0  0  0
  -26.7835  -29.0266   21.2586 C   0  0  0  0  0  0  0  0  0  0  0  0
  -18.7846  -26.1869   21.1175 C   0  0  0  0  0  0  0  0  0  0  0  0
  -26.3303  -31.8416   22.8053 C   0  0  0  0  0  0  0  0  0  0  0  0
  -24.1409  -34.1683   24.0055 C   0  0  0  0  0  0  0  0  0  0  0  0
  -19.3148  -23.9531   19.9911 C   0  0  0  0  0  0  0  0  0  0  0  0
  -25.6066  -19.9542   21.5722 C   0  0  0  0  0  0  0  0  0  0  0  0
  -30.6289  -26.6282   18.9096 C   0  0  0  0  0  0  0  0  0  0  0  0
  -25.2618  -30.2415   19.6572 C   0  0  0  0  0  0  0  0  0  0  0  0
  -24.2840  -30.4110   22.4429 C   0  0  0  0  0  0  0  0  0  0  0  0
  -30.5075  -27.6819   20.0074 C   0  0  0  0  0  0  0  0  0  0  0  0
  -28.5033  -17.8898   21.7296 C   0  0  0  0  0  0  0  0  0  0  0  0
  -29.4957  -27.2414   21.0605 C   0  0  0  0  0  0  0  0  0  0  0  0
  -28.0584  -16.5890   21.0572 C   0  0  0  0  0  0  0  0  0  0  0  0
  -27.3793  -18.5156   22.5535 C   0  0  0  0  0  0  0  0  0  0  0  0
  -25.6726  -17.4167   21.1576 C   0  0  0  0  0  0  0  0  0  0  0  0
  -28.0992  -27.0762   20.4489 C   0  0  1  0  0  0  0  0  0  0  0  0
  -26.2198  -30.3547   20.8390 C   0  0  1  0  0  0  0  0  0  0  0  0
  -26.7513  -16.7831   20.2638 C   0  0  2  0  0  0  0  0  0  0  0  0
  -22.6300  -25.1641   22.4245 C   0  0  0  0  0  0  0  0  0  0  0  0
  -16.1495  -26.2450   19.5334 C   0  0  0  0  0  0  0  0  0  0  0  0
  -24.0664  -36.3422   25.2568 C   0  0  0  0  0  0  0  0  0  0  0  0
  -17.3155  -24.1542   21.4746 C   0  0  0  0  0  0  0  0  0  0  0  0
  -26.9041  -30.3593   25.4098 C   0  0  0  0  0  0  0  0  0  0  0  0
  -25.9024  -32.2908   26.6485 C   0  0  0  0  0  0  0  0  0  0  0  0
  -27.9410  -32.6296   25.2514 C   0  0  0  0  0  0  0  0  0  0  0  0
  -22.8509  -35.5636   21.7365 C   0  0  0  0  0  0  0  0  0  0  0  0
  -22.2668  -23.7830   22.9608 C   0  0  0  0  0  0  0  0  0  0  0  0
  -19.6929  -27.0617   20.2667 C   0  0  0  0  0  0  0  0  0  1  0  0
  -17.3294  -25.3264   19.2326 C   0  0  0  0  0  0  0  0  0  0  0  0
  -25.7118  -32.2516   24.1200 C   0  0  1  0  0  0  0  0  0  0  0  0
  -24.1145  -35.6815   23.8879 C   0  0  2  0  0  0  0  0  0  0  0  0
  -18.1922  -24.9182   20.4596 C   0  0  1  0  0  0  0  0  0  0  0  0
  -26.5999  -31.8690   25.3376 C   0  0  0  0  0  0  0  0  0  0  0  0
  -25.4164  -14.7102   20.3118 N   0  0  0  0  0  0  0  0  0  0  0  0
  -26.2784  -15.4866   19.6334 N   0  0  0  0  0  0  0  0  0  0  0  0
  -25.5903  -30.9444   22.0224 N   0  0  0  0  0  0  0  0  0  0  0  0
  -26.1747  -18.6731   21.7356 N   0  0  0  0  0  0  0  0  0  0  0  0
  -27.4873  -15.6392   17.6021 N   0  0  0  0  0  0  0  0  0  0  0  0
  -25.2496  -11.7377   17.1925 N   0  0  0  0  0  0  0  0  0  0  0  0
  -20.1159  -23.5141   21.0431 N   0  0  0  0  0  0  0  0  0  0  0  0
  -24.4830  -19.9857   20.7469 N   0  0  0  0  0  0  0  0  0  0  0  0
  -27.4744  -28.3678   20.2595 N   0  0  0  0  0  0  0  0  0  0  0  0
  -25.4300  -33.6789   24.0111 N   0  0  0  0  0  0  0  0  0  0  0  0
  -22.9198  -36.1200   23.1123 N   0  3  0  0  0  0  0  0  0  0  0  0
  -26.7300  -13.1524   16.1601 O   0  0  0  0  0  0  0  0  0  0  0  0
  -26.6061  -28.6297   22.4043 O   0  0  0  0  0  0  0  0  0  0  0  0
  -18.5313  -26.4882   22.2856 O   0  0  0  0  0  0  0  0  0  0  0  0
  -27.4263  -32.3061   22.4817 O   0  0  0  0  0  0  0  0  0  0  0  0
  -23.1202  -33.4886   24.0881 O   0  0  0  0  0  0  0  0  0  0  0  0
  -19.4300  -23.6337   18.8099 O   0  0  0  0  0  0  0  0  0  0  0  0
  -26.0980  -20.9543   22.1017 O   0  0  0  0  0  0  0  0  0  0  0  0
  -21.7863   -9.5174   20.9489 O   0  0  0  0  0  0  0  0  0  0  0  0
  -20.1716  -28.1684   21.0299 O   0  0  0  0  0  0  0  0  0  1  0  0
  -23.4979   -4.3505   20.0668 F   0  0  0  0  0  0  0  0  0  0  0  0
  -22.0550   -7.7349   23.0450 F   0  0  0  0  0  0  0  0  0  0  0  0
  1  2  1  0  0  0  0
  1  5  2  0  0  0  0
  2  6  2  0  0  0  0
  3 10  2  0  0  0  0
  3 18  1  0  0  0  0
  4 11  1  0  0  0  0
  4 18  2  0  0  0  0
  5 20  1  0  0  0  0
  6 22  1  0  0  0  0
  7 12  2  0  0  0  0
  7 21  1  0  0  0  0
  8  9  2  0  0  0  0
  8 25  1  0  0  0  0
  9 26  1  0  0  0  0
 10 27  1  0  0  0  0
 11 27  2  0  0  0  0
 12 28  1  0  0  0  0
 13 14  2  0  0  0  0
 13 29  1  0  0  0  0
 14 30  1  0  0  0  0
 15 23  1  0  0  0  0
 15 28  2  0  0  0  0
 16 24  1  0  0  0  0
 16 25  2  0  0  0  0
 17 30  2  0  0  0  0
 17 31  1  0  0  0  0
 18 32  1  0  0  0  0
 19 32  1  0  0  0  0
 19 33  2  0  0  0  0
 19 34  1  0  0  0  0
 20 22  2  0  0  0  0
 20 41  1  0  0  0  0
 21 23  2  0  0  0  0
 21 42  1  0  0  0  0
 22 50  1  0  0  0  0
 23 43  1  0  0  0  0
 24 26  2  0  0  0  0
 24 61  1  0  0  0  0
 25 75  1  0  0  0  0
 26 74  1  0  0  0  0
 27 86  1  0  0  0  0
 28 87  1  0  0  0  0
 29 31  2  0  0  0  0
 29 86  1  0  0  0  0
 30 88  1  0  0  0  0
 31 89  1  0  0  0  0
 32 68  2  0  0  0  0
 33 69  1  0  0  0  0
 33 72  1  0  0  0  0
 34 73  1  0  0  0  0
 34 79  2  0  0  0  0
 35 51  1  0  0  0  0
 35 76  1  0  0  0  0
 35 80  2  0  0  0  0
 36 62  1  0  0  0  0
 36 66  1  0  0  0  0
 36 81  2  0  0  0  0
 37 64  1  0  0  0  0
 37 70  1  0  0  0  0
 37 82  2  0  0  0  0
 38 65  1  0  0  0  0
 38 77  1  0  0  0  0
 38 83  2  0  0  0  0
 39 66  1  0  0  0  0
 39 74  1  0  0  0  0
 39 84  2  0  0  0  0
 40 71  1  0  0  0  0
 40 75  1  0  0  0  0
 40 85  2  0  0  0  0
 41 44  1  0  0  0  0
 42 51  1  0  0  0  0
 43 70  1  0  0  0  0
 44 46  1  0  0  0  0
 45 47  1  0  0  0  0
 45 48  1  0  0  0  0
 46 50  1  0  0  0  0
 47 52  1  0  0  0  0
 48 71  1  0  0  0  0
 49 52  1  0  0  0  0
 49 71  1  0  0  0  0
 50 76  1  0  0  0  0
 51 70  1  0  0  0  0
 52 69  1  0  0  0  0
 53 61  1  0  0  0  0
 54 63  1  0  0  0  0
 55 65  1  0  0  0  0
 56 66  1  0  0  0  0
 57 67  1  0  0  0  0
 58 67  1  0  0  0  0
 59 67  1  0  0  0  0
 60 78  1  0  0  0  0
 62 87  1  0  0  0  0
 63 66  1  0  0  0  0
 64 67  1  0  0  0  0
 64 77  1  0  0  0  0
 65 78  1  0  0  0  0
 68 69  1  0  0  0  0
M  CHG  1  78   1
M  ISO  4  40 100  62 101  75 100  87 101
M  END
> <Batch ID>
0147

> <Smiles>
CCc1cc([100NH:0][100C:0](=O)N2CCCC(n3nc(-c4ccc(Oc5ccc(F)cc5F)cc4)c(C(N)=O)c3N)C2)ccc1NC(=O)C(C)(CC)C(=O)[101CH2:1][101O:1]c1ccc2c(c1)CN(C(=O)C(NC(=O)C(C)NC)C(C)(C)C)C(C(=O)NC1CCCc3ccccc31)C2

> <Shape>
0.283

> <Color>
0.064

> <Negative vol penalty>
0.000

$$$$

  -OEChem-04052303133D

 84 93  0     1  0  0  0  0  0999 V2000
  -28.7264  -11.1841   21.6451 C   0  0  0  0  0  0  0  0  0  0  0  0
  -29.0268  -12.4424   21.1334 C   0  0  0  0  0  0  0  0  0  0  0  0
  -30.8255  -28.1951   20.6809 C   0  0  0  0  0  0  0  0  0  0  0  0
  -20.1214  -27.1809   23.2105 C   0  0  0  0  0  0  0  0  0  0  0  0
  -19.4879  -29.4789   22.8165 C   0  0  0  0  0  0  0  0  0  0  0  0
  -27.4215  -10.6979   21.5758 C   0  0  0  0  0  0  0  0  0  0  0  0
  -28.0225  -13.2149   20.5511 C   0  0  0  0  0  0  0  0  0  0  0  0
  -30.6662  -26.8151   20.5545 C   0  0  0  0  0  0  0  0  0  0  0  0
  -28.1698  -18.0479   22.0563 C   0  0  0  0  0  0  0  0  0  0  0  0
  -29.7076  -29.0294   20.6775 C   0  0  0  0  0  0  0  0  0  0  0  0
  -18.8880  -26.7562   22.7164 C   0  0  0  0  0  0  0  0  0  0  0  0
  -18.2546  -29.0542   22.3224 C   0  0  0  0  0  0  0  0  0  0  0  0
  -29.1317  -18.8686   21.4690 C   0  0  0  0  0  0  0  0  0  0  0  0
  -15.7026  -26.5378   23.8254 C   0  0  0  0  0  0  0  0  0  0  0  0
  -15.0211  -25.5553   24.5436 C   0  0  0  0  0  0  0  0  0  0  0  0
  -28.2712  -27.1038   20.4212 C   0  0  0  0  0  0  0  0  0  0  0  0
  -27.4523  -19.7670   19.9885 C   0  0  0  0  0  0  0  0  0  0  0  0
  -15.0824  -24.1024   22.6142 C   0  0  0  0  0  0  0  0  0  0  0  0
  -20.4213  -28.5422   23.2606 C   0  0  0  0  0  0  0  0  0  0  0  0
  -22.2177  -28.7572   25.0590 C   0  0  0  0  0  0  0  0  0  0  0  0
  -29.3891  -26.2695   20.4246 C   0  0  0  0  0  0  0  0  0  0  0  0
  -26.3988  -11.4688   21.0011 C   0  0  0  0  0  0  0  0  0  0  0  0
  -26.8420  -18.0726   21.6060 C   0  0  0  0  0  0  0  0  0  0  0  0
  -26.7029  -12.7380   20.4729 C   0  0  0  0  0  0  0  0  0  0  0  0
  -26.4750  -18.9474   20.5735 C   0  0  0  0  0  0  0  0  0  0  0  0
  -28.4305  -28.4838   20.5476 C   0  0  0  0  0  0  0  0  0  0  0  0
  -17.9547  -27.6928   22.2724 C   0  0  0  0  0  0  0  0  0  0  0  0
  -28.7736  -19.7262   20.4330 C   0  0  0  0  0  0  0  0  0  0  0  0
  -16.0739  -26.3026   22.5015 C   0  0  0  0  0  0  0  0  0  0  0  0
  -14.7110  -24.3376   23.9380 C   0  0  0  0  0  0  0  0  0  0  0  0
  -15.7638  -25.0849   21.8960 C   0  0  0  0  0  0  0  0  0  0  0  0
  -21.6950  -28.9816   23.7713 C   0  0  0  0  0  0  0  0  0  0  0  0
  -23.4460  -29.3717   25.0429 C   0  0  0  0  0  0  0  0  0  0  0  0
  -21.6443  -28.0559   26.1704 C   0  0  0  0  0  0  0  0  0  0  0  0
  -24.8801  -15.9468   20.2886 C   0  0  0  0  0  0  0  0  0  0  0  0
  -22.7016  -18.3257   20.6310 C   0  0  0  0  0  0  0  0  0  0  0  0
  -22.6152  -21.9033   20.1724 C   0  0  0  0  0  0  0  0  0  0  0  0
  -27.2782  -30.7211   20.6613 C   0  0  0  0  0  0  0  0  0  0  0  0
  -25.0129  -10.8814   20.9063 C   0  0  0  0  0  0  0  0  0  0  0  0
  -25.8108  -17.2004   22.2681 C   0  0  0  0  0  0  0  0  0  0  0  0
  -25.0587  -19.0267   20.0671 C   0  0  0  0  0  0  0  0  0  0  0  0
  -23.9313  -11.9172   20.6108 C   0  0  0  0  0  0  0  0  0  0  0  0
  -25.7948  -32.9924   22.9674 C   0  0  0  0  0  0  0  0  0  0  0  0
  -29.7588  -23.9582   21.4794 C   0  0  0  0  0  0  0  0  0  0  0  0
  -24.3698  -12.8384   19.4767 C   0  0  0  0  0  0  0  0  0  0  0  0
  -24.6264  -32.1991   23.5569 C   0  0  0  0  0  0  0  0  0  0  0  0
  -30.8174  -23.0218   20.9004 C   0  0  0  0  0  0  0  0  0  0  0  0
  -29.9207  -24.2084   19.0376 C   0  0  0  0  0  0  0  0  0  0  0  0
  -25.9981  -32.6854   21.4848 C   0  0  0  0  0  0  0  0  0  0  0  0
  -24.9608  -30.4663   21.7478 C   0  0  0  0  0  0  0  0  0  0  0  0
  -29.2169  -24.7731   20.2876 C   0  0  2  0  0  0  0  0  0  0  0  0
  -25.6359  -13.6160   19.8560 C   0  0  1  0  0  0  0  0  0  0  0  0
  -24.5961  -16.9352   21.3840 C   0  0  1  0  0  0  0  0  0  0  0  0
  -24.7581  -30.6934   23.2548 C   0  0  2  0  0  0  0  0  0  0  0  0
  -30.3985  -22.8043   19.4402 C   0  0  1  0  0  0  0  0  0  0  0  0
  -31.5794  -22.3437   18.5824 C   0  0  0  0  0  0  0  0  0  0  0  0
  -21.1951  -23.6554   21.2728 C   0  0  0  0  0  0  0  0  0  0  0  0
  -20.8732  -17.9457   18.2180 C   0  0  0  0  0  0  0  0  0  0  0  0
  -20.4638  -20.4157   18.2270 C   0  0  0  0  0  0  0  0  0  0  0  0
  -19.7857  -19.0336   20.1899 C   0  0  0  0  0  0  0  0  0  0  0  0
  -24.9871  -23.4426   21.0464 C   0  0  0  0  0  0  0  0  0  0  0  0
  -29.2620  -21.7750   19.3284 C   0  0  0  0  0  0  0  0  0  1  0  0
  -22.2395  -19.4830   19.7788 C   0  0  1  0  0  0  0  0  0  0  0  0
  -22.5464  -22.9578   21.2623 C   0  0  2  0  0  0  0  0  0  0  0  0
  -20.8670  -19.2092   19.1015 C   0  0  0  0  0  0  0  0  0  0  0  0
  -22.5233  -29.6840   22.9938 N   0  0  0  0  0  0  0  0  0  0  0  0
  -23.5789  -29.9063   23.7952 N   0  0  0  0  0  0  0  0  0  0  0  0
  -24.0881  -18.1495   20.7424 N   0  0  0  0  0  0  0  0  0  0  0  0
  -26.1190  -31.2409   21.2753 N   0  0  0  0  0  0  0  0  0  0  0  0
  -24.4144  -29.5016   25.9744 N   0  0  0  0  0  0  0  0  0  0  0  0
  -20.8587  -28.7754   27.0811 N   0  0  0  0  0  0  0  0  0  0  0  0
  -27.2952  -29.3316   20.5449 N   0  0  0  0  0  0  0  0  0  0  0  0
  -25.3088  -14.7135   20.7409 N   0  0  0  0  0  0  0  0  0  0  0  0
  -22.2555  -20.6582   20.6430 N   0  0  0  0  0  0  0  0  0  0  0  0
  -23.6047  -23.9865   21.0553 N   0  3  0  0  0  0  0  0  0  0  0  0
  -21.8368  -26.8309   26.3595 O   0  0  0  0  0  0  0  0  0  0  0  0
  -24.7207  -16.2781   19.1196 O   0  0  0  0  0  0  0  0  0  0  0  0
  -21.8634  -17.6089   21.1834 O   0  0  0  0  0  0  0  0  0  0  0  0
  -22.9507  -22.1593   19.0181 O   0  0  0  0  0  0  0  0  0  0  0  0
  -28.2007  -31.4524   20.2924 O   0  0  0  0  0  0  0  0  0  0  0  0
  -16.7511  -27.2787   21.7900 O   0  0  0  0  0  0  0  0  0  0  0  0
  -29.7106  -20.5279   19.8575 O   0  0  0  0  0  0  0  0  0  1  0  0
  -14.0580  -23.3936   24.6284 F   0  0  0  0  0  0  0  0  0  0  0  0
  -16.1190  -24.8528   20.6248 F   0  0  0  0  0  0  0  0  0  0  0  0
  1  2  1  0  0  0  0
  1  6  2  0  0  0  0
  2  7  2  0  0  0  0
  3  8  2  0  0  0  0
  3 10  1  0  0  0  0
  4 11  2  0  0  0  0
  4 19  1  0  0  0  0
  5 12  1  0  0  0  0
  5 19  2  0  0  0  0
  6 22  1  0  0  0  0
  7 24  1  0  0  0  0
  8 21  1  0  0  0  0
  9 13  2  0  0  0  0
  9 23  1  0  0  0  0
 10 26  2  0  0  0  0
 11 27  1  0  0  0  0
 12 27  2  0  0  0  0
 13 28  1  0  0  0  0
 14 15  2  0  0  0  0
 14 29  1  0  0  0  0
 15 30  1  0  0  0  0
 16 21  2  0  0  0  0
 16 26  1  0  0  0  0
 17 25  1  0  0  0  0
 17 28  2  0  0  0  0
 18 30  2  0  0  0  0
 18 31  1  0  0  0  0
 19 32  1  0  0  0  0
 20 32  1  0  0  0  0
 20 33  2  0  0  0  0
 20 34  1  0  0  0  0
 21 51  1  0  0  0  0
 22 24  2  0  0  0  0
 22 39  1  0  0  0  0
 23 25  2  0  0  0  0
 23 40  1  0  0  0  0
 24 52  1  0  0  0  0
 25 41  1  0  0  0  0
 26 72  1  0  0  0  0
 27 81  1  0  0  0  0
 28 82  1  0  0  0  0
 29 31  2  0  0  0  0
 29 81  1  0  0  0  0
 30 83  1  0  0  0  0
 31 84  1  0  0  0  0
 32 66  2  0  0  0  0
 33 67  1  0  0  0  0
 33 70  1  0  0  0  0
 34 71  1  0  0  0  0
 34 76  2  0  0  0  0
 35 53  1  0  0  0  0
 35 73  1  0  0  0  0
 35 77  2  0  0  0  0
 36 63  1  0  0  0  0
 36 68  1  0  0  0  0
 36 78  2  0  0  0  0
 37 64  1  0  0  0  0
 37 74  1  0  0  0  0
 37 79  2  0  0  0  0
 38 69  1  0  0  0  0
 38 72  1  0  0  0  0
 38 80  2  0  0  0  0
 39 42  1  0  0  0  0
 40 53  1  0  0  0  0
 41 68  1  0  0  0  0
 42 45  1  0  0  0  0
 43 46  1  0  0  0  0
 43 49  1  0  0  0  0
 44 47  1  0  0  0  0
 44 51  1  0  0  0  0
 45 52  1  0  0  0  0
 46 54  1  0  0  0  0
 47 55  1  0  0  0  0
 48 51  1  0  0  0  0
 48 55  1  0  0  0  0
 49 69  1  0  0  0  0
 50 54  1  0  0  0  0
 50 69  1  0  0  0  0
 52 73  1  0  0  0  0
 53 68  1  0  0  0  0
 54 67  1  0  0  0  0
 55 56  1  0  0  0  0
 55 62  1  0  0  0  0
 57 64  1  0  0  0  0
 58 65  1  0  0  0  0
 59 65  1  0  0  0  0
 60 65  1  0  0  0  0
 61 75  1  0  0  0  0
 62 82  1  0  0  0  0
 63 65  1  0  0  0  0
 63 74  1  0  0  0  0
 64 75  1  0  0  0  0
 66 67  1  0  0  0  0
M  CHG  1  75   1
M  ISO  4  38 100  62 101  72 100  82 101
M  END
> <Batch ID>
0147

> <Smiles>
CNC(C)C(=O)NC(C(=O)N1Cc2cc([101O:1][101CH2:1]C3(C)CCC(c4cccc([100NH:0][100C:0](=O)N5CCCC(n6nc(-c7ccc(Oc8ccc(F)cc8F)cc7)c(C(N)=O)c6N)C5)c4)C3)ccc2CC1C(=O)NC1CCCc2ccccc21)C(C)(C)C

> <Shape>
0.248

> <Color>
0.065

> <Negative vol penalty>
0.000

$$$$

  -OEChem-04052303133D

 91 99  0     1  0  0  0  0  0999 V2000
  -33.6601  -26.5730   17.0179 C   0  0  0  0  0  0  0  0  0  0  0  0
  -32.7792  -25.7234   17.6794 C   0  0  0  0  0  0  0  0  0  0  0  0
  -22.8372  -10.0836   20.1490 C   0  0  0  0  0  0  0  0  0  0  0  0
  -23.5827  -10.2342   22.4422 C   0  0  0  0  0  0  0  0  0  0  0  0
  -33.8831  -27.8604   17.5046 C   0  0  0  0  0  0  0  0  0  0  0  0
  -32.1217  -26.1604   18.8288 C   0  0  0  0  0  0  0  0  0  0  0  0
  -27.2026  -24.9569   18.8289 C   0  0  0  0  0  0  0  0  0  0  0  0
  -22.0120   -9.0113   20.4877 C   0  0  0  0  0  0  0  0  0  0  0  0
  -22.7574   -9.1620   22.7809 C   0  0  0  0  0  0  0  0  0  0  0  0
  -26.8691  -23.6411   19.1470 C   0  0  0  0  0  0  0  0  0  0  0  0
  -22.8149   -5.7922   22.5125 C   0  0  0  0  0  0  0  0  0  0  0  0
  -23.3520   -4.7916   23.3224 C   0  0  0  0  0  0  0  0  0  0  0  0
  -32.1708  -18.2753   23.7686 C   0  0  0  0  0  0  0  0  0  0  0  0
  -32.2654  -16.3763   22.2781 C   0  0  0  0  0  0  0  0  0  0  0  0
  -26.3214  -24.3294   21.3932 C   0  0  0  0  0  0  0  0  0  0  0  0
  -30.1441  -17.4249   22.7655 C   0  0  0  0  0  0  0  0  0  0  0  0
  -21.6575   -5.2303   24.9878 C   0  0  0  0  0  0  0  0  0  0  0  0
  -23.6227  -10.6951   21.1263 C   0  0  0  0  0  0  0  0  0  0  0  0
  -32.9094  -17.2927   23.1094 C   0  0  0  0  0  0  0  0  0  0  0  0
  -24.1436  -13.1703   20.7953 C   0  0  0  0  0  0  0  0  0  0  0  0
  -33.2206  -28.3167   18.6550 C   0  0  0  0  0  0  0  0  0  0  0  0
  -27.1083  -25.9686   19.7953 C   0  0  0  0  0  0  0  0  0  0  0  0
  -32.3370  -27.4546   19.3321 C   0  0  0  0  0  0  0  0  0  0  0  0
  -26.6519  -25.6577   21.0841 C   0  0  0  0  0  0  0  0  0  0  0  0
  -30.7881  -18.3413   23.5967 C   0  0  0  0  0  0  0  0  0  0  0  0
  -30.8827  -16.4423   22.1062 C   0  0  0  0  0  0  0  0  0  0  0  0
  -21.9720   -8.5505   21.8036 C   0  0  0  0  0  0  0  0  0  0  0  0
  -26.4311  -23.3267   20.4301 C   0  0  0  0  0  0  0  0  0  0  0  0
  -21.6992   -6.5119   22.9402 C   0  0  0  0  0  0  0  0  0  0  0  0
  -22.7733   -4.5107   24.5601 C   0  0  0  0  0  0  0  0  0  0  0  0
  -21.1205   -6.2309   24.1779 C   0  0  0  0  0  0  0  0  0  0  0  0
  -24.4758  -11.8024   20.7769 C   0  0  0  0  0  0  0  0  0  0  0  0
  -25.2882  -13.8072   20.3822 C   0  0  0  0  0  0  0  0  0  0  0  0
  -34.3429  -17.2249   23.2876 C   0  0  0  0  0  0  0  0  0  0  0  0
  -22.9105  -13.8082   21.1537 C   0  0  0  0  0  0  0  0  0  0  0  0
  -29.1739  -27.9510   21.1764 C   0  0  0  0  0  0  0  0  0  0  0  0
  -29.0642  -20.5302   22.2056 C   0  0  0  0  0  0  0  0  0  0  0  0
  -26.4890  -29.2108   22.4902 C   0  0  0  0  0  0  0  0  0  0  0  0
  -23.2369  -28.7655   23.4243 C   0  0  0  0  0  0  0  0  0  0  0  0
  -30.8137  -14.4774   20.5312 C   0  0  0  0  0  0  0  0  0  0  0  0
  -33.5298  -29.7000   19.1702 C   0  0  0  0  0  0  0  0  0  0  0  0
  -27.4464  -27.3877   19.4287 C   0  0  0  0  0  0  0  0  0  0  0  0
  -26.5138  -26.7107   22.1521 C   0  0  0  0  0  0  0  0  0  0  0  0
  -32.5088  -30.2159   20.1809 C   0  0  0  0  0  0  0  0  0  0  0  0
  -29.5442  -11.9533   18.3645 C   0  0  0  0  0  0  0  0  0  0  0  0
  -32.1997  -29.1445   21.2218 C   0  0  0  0  0  0  0  0  0  0  0  0
  -28.0851  -11.8015   18.8005 C   0  0  0  0  0  0  0  0  0  0  0  0
  -30.4664  -12.2196   19.5529 C   0  0  0  0  0  0  0  0  0  0  0  0
  -28.6079  -13.1922   20.8449 C   0  0  0  0  0  0  0  0  0  0  0  0
  -31.5860  -27.9007   20.5679 C   0  0  1  0  0  0  0  0  0  0  0  0
  -27.8034  -28.2481   20.6369 C   0  0  1  0  0  0  0  0  0  0  0  0
  -27.6320  -12.9872   19.6748 C   0  0  2  0  0  0  0  0  0  0  0  0
  -21.3164  -29.9645   24.5068 C   0  0  0  0  0  0  0  0  0  0  0  0
  -29.0050  -21.7637   24.4029 C   0  0  0  0  0  0  0  0  0  0  0  0
  -31.1893  -21.3679   23.3042 C   0  0  0  0  0  0  0  0  0  0  0  0
  -27.8072  -28.8539   25.2187 C   0  0  0  0  0  0  0  0  0  0  0  0
  -25.5544  -29.1544   26.2688 C   0  0  0  0  0  0  0  0  0  0  0  0
  -26.5634  -31.0048   24.9344 C   0  0  0  0  0  0  0  0  0  0  0  0
  -25.4810  -19.2296   21.2336 C   0  0  0  0  0  0  0  0  0  0  0  0
  -27.6175  -18.6057   20.1233 C   0  0  0  0  0  0  0  0  0  0  0  0
  -21.5511  -28.4893   21.0075 C   0  0  0  0  0  0  0  0  0  0  0  0
  -29.9879  -19.4067   24.3104 C   0  0  0  0  0  0  0  0  0  0  0  0
  -27.6203  -20.0170   22.2525 C   0  0  0  0  0  0  0  0  0  0  0  0
  -26.7986  -21.0088   20.0450 C   0  0  0  0  0  0  0  0  0  1  0  0
  -25.6898  -28.9522   23.7446 C   0  0  1  0  0  0  0  0  0  0  0  0
  -21.9978  -29.6116   23.1937 C   0  0  2  0  0  0  0  0  0  0  0  0
  -29.7995  -20.7493   23.5541 C   0  0  0  0  0  0  0  0  0  0  0  0
  -26.4081  -29.4709   25.0223 C   0  0  0  0  0  0  0  0  0  0  0  0
  -26.9080  -19.7297   20.9032 C   0  0  0  0  0  0  0  0  0  0  0  0
  -25.7330  -11.5824   20.3832 N   0  0  0  0  0  0  0  0  0  0  0  0
  -26.2008  -12.8205   20.1502 N   0  0  0  0  0  0  0  0  0  0  0  0
  -26.8625  -28.0824   21.7466 N   0  0  0  0  0  0  0  0  0  0  0  0
  -29.9771  -13.3587   20.3326 N   0  0  0  0  0  0  0  0  0  0  0  0
  -25.5930  -15.1094   20.1984 N   0  0  0  0  0  0  0  0  0  0  0  0
  -34.9722  -18.1036   24.0858 N   0  0  0  0  0  0  0  0  0  0  0  0
  -21.8348  -13.0047   21.5555 N   0  0  0  0  0  0  0  0  0  0  0  0
  -30.2291  -15.5125   21.2600 N   0  0  0  0  0  0  0  0  0  0  0  0
  -30.1909  -28.1289   20.2579 N   0  0  0  0  0  0  0  0  0  0  0  0
  -24.3738  -29.5399   23.5186 N   0  0  0  0  0  0  0  0  0  0  0  0
  -35.0635  -16.2813   22.6587 N   0  3  0  0  0  0  0  0  0  0  0  0
  -21.0212  -28.8781   22.3398 N   0  3  0  0  0  0  0  0  0  0  0  0
  -22.7619  -15.0527   21.1031 O   0  0  0  0  0  0  0  0  0  0  0  0
  -29.2996  -27.5886   22.3403 O   0  0  0  0  0  0  0  0  0  0  0  0
  -29.6250  -20.7877   21.1392 O   0  0  0  0  0  0  0  0  0  0  0  0
  -26.7653  -30.3717   22.1778 O   0  0  0  0  0  0  0  0  0  0  0  0
  -23.1994  -27.5405   23.5156 O   0  0  0  0  0  0  0  0  0  0  0  0
  -31.9546  -14.5256   20.0641 O   0  0  0  0  0  0  0  0  0  0  0  0
  -21.1667   -7.5043   22.1345 O   0  0  0  0  0  0  0  0  0  0  0  0
  -26.1034  -22.0347   20.7455 O   0  0  0  0  0  0  0  0  0  1  0  0
  -23.2882   -3.5488   25.3371 F   0  0  0  0  0  0  0  0  0  0  0  0
  -20.0478   -6.9181   24.5936 F   0  0  0  0  0  0  0  0  0  0  0  0
  1  2  1  0  0  0  0
  1  5  2  0  0  0  0
  2  6  2  0  0  0  0
  3  8  2  0  0  0  0
  3 18  1  0  0  0  0
  4  9  1  0  0  0  0
  4 18  2  0  0  0  0
  5 21  1  0  0  0  0
  6 23  1  0  0  0  0
  7 10  2  0  0  0  0
  7 22  1  0  0  0  0
  8 27  1  0  0  0  0
  9 27  2  0  0  0  0
 10 28  1  0  0  0  0
 11 12  2  0  0  0  0
 11 29  1  0  0  0  0
 12 30  1  0  0  0  0
 13 19  1  0  0  0  0
 13 25  2  0  0  0  0
 14 19  2  0  0  0  0
 14 26  1  0  0  0  0
 15 24  1  0  0  0  0
 15 28  2  0  0  0  0
 16 25  1  0  0  0  0
 16 26  2  0  0  0  0
 17 30  2  0  0  0  0
 17 31  1  0  0  0  0
 18 32  1  0  0  0  0
 19 34  1  0  0  0  0
 20 32  1  0  0  0  0
 20 33  2  0  0  0  0
 20 35  1  0  0  0  0
 21 23  2  0  0  0  0
 21 41  1  0  0  0  0
 22 24  2  0  0  0  0
 22 42  1  0  0  0  0
 23 50  1  0  0  0  0
 24 43  1  0  0  0  0
 25 62  1  0  0  0  0
 26 77  1  0  0  0  0
 27 88  1  0  0  0  0
 28 89  1  0  0  0  0
 29 31  2  0  0  0  0
 29 88  1  0  0  0  0
 30 90  1  0  0  0  0
 31 91  1  0  0  0  0
 32 70  2  0  0  0  0
 33 71  1  0  0  0  0
 33 74  1  0  0  0  0
 34 75  1  0  0  0  0
 34 80  2  0  0  0  0
 35 76  1  0  0  0  0
 35 82  2  0  0  0  0
 36 51  1  0  0  0  0
 36 78  1  0  0  0  0
 36 83  2  0  0  0  0
 37 63  1  0  0  0  0
 37 67  1  0  0  0  0
 37 84  2  0  0  0  0
 38 65  1  0  0  0  0
 38 72  1  0  0  0  0
 38 85  2  0  0  0  0
 39 66  1  0  0  0  0
 39 79  1  0  0  0  0
 39 86  2  0  0  0  0
 40 73  1  0  0  0  0
 40 77  1  0  0  0  0
 40 87  2  0  0  0  0
 41 44  1  0  0  0  0
 42 51  1  0  0  0  0
 43 72  1  0  0  0  0
 44 46  1  0  0  0  0
 45 47  1  0  0  0  0
 45 48  1  0  0  0  0
 46 50  1  0  0  0  0
 47 52  1  0  0  0  0
 48 73  1  0  0  0  0
 49 52  1  0  0  0  0
 49 73  1  0  0  0  0
 50 78  1  0  0  0  0
 51 72  1  0  0  0  0
 52 71  1  0  0  0  0
 53 66  1  0  0  0  0
 54 67  1  0  0  0  0
 55 67  1  0  0  0  0
 56 68  1  0  0  0  0
 57 68  1  0  0  0  0
 58 68  1  0  0  0  0
 59 69  1  0  0  0  0
 60 69  1  0  0  0  0
 61 81  1  0  0  0  0
 62 67  1  0  0  0  0
 63 69  1  0  0  0  0
 64 69  1  0  0  0  0
 64 89  1  0  0  0  0
 65 68  1  0  0  0  0
 65 79  1  0  0  0  0
 66 81  1  0  0  0  0
 70 71  1  0  0  0  0
M  CHG  2  80   1  81   1
M  ISO  4  40 100  64 101  77 100  89 101
M  END
> <Batch ID>
0147

> <Smiles>
CNC(C)C(=O)NC(C(=O)N1Cc2cc([101O:1][101CH2:1]C(C)(C)CC(=O)C(C)(C)Cc3cc([100NH:0][100C:0](=O)N4CCCC(n5nc(-c6ccc(Oc7ccc(F)cc7F)cc6)c(C(N)=O)c5N)C4)cc(C(=N)N)c3)ccc2CC1C(=O)NC1CCCc2ccccc21)C(C)(C)C

> <Shape>
0.311

> <Color>
0.194

> <Negative vol penalty>
0.000

$$$$

  -OEChem-04052303133D

 85 94  0     1  0  0  0  0  0999 V2000
  -18.7846  -25.5132   21.3296 C   0  0  0  0  0  0  0  0  0  0  0  0
  -19.0524  -24.2482   20.8162 C   0  0  0  0  0  0  0  0  0  0  0  0
  -29.7440  -11.5954   18.7543 C   0  0  0  0  0  0  0  0  0  0  0  0
  -28.2952  -23.9784   21.5588 C   0  0  0  0  0  0  0  0  0  0  0  0
  -28.5782  -23.1912   19.2923 C   0  0  0  0  0  0  0  0  0  0  0  0
  -19.5352  -26.0043   22.3970 C   0  0  0  0  0  0  0  0  0  0  0  0
  -20.0718  -23.4740   21.3693 C   0  0  0  0  0  0  0  0  0  0  0  0
  -28.3876  -11.3341   18.9479 C   0  0  0  0  0  0  0  0  0  0  0  0
  -20.1509  -17.3803   21.9749 C   0  0  0  0  0  0  0  0  0  0  0  0
  -30.3012  -12.7810   19.2336 C   0  0  0  0  0  0  0  0  0  0  0  0
  -28.1389  -25.2816   21.0867 C   0  0  0  0  0  0  0  0  0  0  0  0
  -28.4218  -24.4944   18.8201 C   0  0  0  0  0  0  0  0  0  0  0  0
  -20.7361  -16.3696   21.2135 C   0  0  0  0  0  0  0  0  0  0  0  0
  -25.6997  -27.1383   19.6597 C   0  0  0  0  0  0  0  0  0  0  0  0
  -24.6617  -27.9013   20.1944 C   0  0  0  0  0  0  0  0  0  0  0  0
  -28.1455  -13.4440   20.0997 C   0  0  0  0  0  0  0  0  0  0  0  0
  -22.6371  -16.3598   22.6985 C   0  0  0  0  0  0  0  0  0  0  0  0
  -26.2644  -29.5266   20.9862 C   0  0  0  0  0  0  0  0  0  0  0  0
  -28.5149  -22.9332   20.6616 C   0  0  0  0  0  0  0  0  0  0  0  0
  -27.7481  -20.8342   21.8920 C   0  0  0  0  0  0  0  0  0  0  0  0
  -27.5883  -12.2584   19.6205 C   0  0  0  0  0  0  0  0  0  0  0  0
  -20.5579  -25.2318   22.9698 C   0  0  0  0  0  0  0  0  0  0  0  0
  -20.8105  -17.8969   23.0995 C   0  0  0  0  0  0  0  0  0  0  0  0
  -20.8376  -23.9557   22.4445 C   0  0  0  0  0  0  0  0  0  0  0  0
  -22.0570  -17.3753   23.4740 C   0  0  0  0  0  0  0  0  0  0  0  0
  -29.5019  -13.7053   19.9062 C   0  0  0  0  0  0  0  0  0  0  0  0
  -28.2022  -25.5396   19.7174 C   0  0  0  0  0  0  0  0  0  0  0  0
  -21.9807  -15.8612   21.5736 C   0  0  0  0  0  0  0  0  0  0  0  0
  -27.0201  -27.5693   19.7883 C   0  0  0  0  0  0  0  0  0  0  0  0
  -24.9440  -29.0955   20.8576 C   0  0  0  0  0  0  0  0  0  0  0  0
  -27.3024  -28.7635   20.4515 C   0  0  0  0  0  0  0  0  0  0  0  0
  -28.6770  -21.5869   21.1487 C   0  0  0  0  0  0  0  0  0  0  0  0
  -28.3739  -19.6303   22.1053 C   0  0  0  0  0  0  0  0  0  0  0  0
  -26.4368  -21.1913   22.3487 C   0  0  0  0  0  0  0  0  0  0  0  0
  -21.9345  -20.7531   23.9254 C   0  0  0  0  0  0  0  0  0  0  0  0
  -22.4936  -19.2809   26.7613 C   0  0  0  0  0  0  0  0  0  0  0  0
  -23.7382  -16.0797   27.8662 C   0  0  0  0  0  0  0  0  0  0  0  0
  -31.3961  -15.3221   20.2864 C   0  0  0  0  0  0  0  0  0  0  0  0
  -21.3736  -25.8241   24.0916 C   0  0  0  0  0  0  0  0  0  0  0  0
  -20.1537  -18.9685   23.9257 C   0  0  0  0  0  0  0  0  0  0  0  0
  -22.7972  -17.8814   24.6841 C   0  0  0  0  0  0  0  0  0  0  0  0
  -22.1884  -24.7899   24.8641 C   0  0  0  0  0  0  0  0  0  0  0  0
  -33.1740  -18.2285   21.3202 C   0  0  0  0  0  0  0  0  0  0  0  0
  -25.7581  -11.8657   21.3229 C   0  0  0  0  0  0  0  0  0  0  0  0
  -25.2245  -13.0072   19.1190 C   0  0  0  0  0  0  0  0  0  0  0  0
  -22.9142  -23.8550   23.9018 C   0  0  0  0  0  0  0  0  0  0  0  0
  -32.0861  -19.2994   21.4289 C   0  0  0  0  0  0  0  0  0  0  0  0
  -24.2699  -11.5756   21.5276 C   0  0  0  0  0  0  0  0  0  0  0  0
  -23.7381  -12.7136   19.3322 C   0  0  0  0  0  0  0  0  0  0  0  0
  -32.9208  -17.2796   20.1501 C   0  0  0  0  0  0  0  0  0  0  0  0
  -30.5008  -17.7328   20.2375 C   0  0  0  0  0  0  0  0  0  0  0  0
  -26.1121  -11.9735   19.8309 C   0  0  0  0  0  0  0  0  0  0  0  0
  -21.9188  -23.0759   23.0336 C   0  0  1  0  0  0  0  0  0  0  0  0
  -21.1472  -19.7776   24.7538 C   0  0  1  0  0  0  0  0  0  0  0  0
  -30.6779  -18.6730   21.4409 C   0  0  2  0  0  0  0  0  0  0  0  0
  -23.3429  -12.5899   20.8208 C   0  0  0  0  0  0  0  0  0  0  0  0
  -21.8899  -12.0867   20.9119 C   0  0  0  0  0  0  0  0  0  0  0  0
  -23.3041  -14.8025   29.9823 C   0  0  0  0  0  0  0  0  0  0  0  0
  -25.0334  -20.6436   27.7625 C   0  0  0  0  0  0  0  0  0  0  0  0
  -25.6380  -18.5089   28.9226 C   0  0  0  0  0  0  0  0  0  0  0  0
  -23.5598  -19.7301   29.5648 C   0  0  0  0  0  0  0  0  0  0  0  0
  -22.8425  -13.6856   26.3746 C   0  0  0  0  0  0  0  0  0  0  0  0
  -23.4129  -13.9634   21.5161 C   0  0  0  0  0  0  0  0  0  1  0  0
  -23.6449  -18.5054   27.3546 C   0  0  1  0  0  0  0  0  0  0  0  0
  -22.9350  -14.9676   28.5162 C   0  0  2  0  0  0  0  0  0  0  0  0
  -24.4642  -19.3474   28.3731 C   0  0  0  0  0  0  0  0  0  0  0  0
  -29.8070  -20.9174   20.9062 N   0  0  0  0  0  0  0  0  0  0  0  0
  -29.5923  -19.7313   21.5006 N   0  0  0  0  0  0  0  0  0  0  0  0
  -22.1165  -18.9341   25.4562 N   0  0  0  0  0  0  0  0  0  0  0  0
  -31.5692  -16.7212   20.2300 N   0  0  0  0  0  0  0  0  0  0  0  0
  -27.9955  -18.5058   22.7492 N   0  0  0  0  0  0  0  0  0  0  0  0
  -25.3425  -20.9211   21.5157 N   0  0  0  0  0  0  0  0  0  0  0  0
  -30.0685  -14.9092   20.3935 N   0  0  0  0  0  0  0  0  0  0  0  0
  -21.3323  -21.9893   23.7884 N   0  0  0  0  0  0  0  0  0  0  0  0
  -23.0711  -17.2856   27.9124 N   0  0  0  0  0  0  0  0  0  0  0  0
  -23.1844  -13.6736   27.8202 N   0  3  0  0  0  0  0  0  0  0  0  0
  -26.2428  -21.7488   23.4556 O   0  0  0  0  0  0  0  0  0  0  0  0
  -23.0094  -20.4102   23.4472 O   0  0  0  0  0  0  0  0  0  0  0  0
  -21.9443  -20.1571   27.4338 O   0  0  0  0  0  0  0  0  0  0  0  0
  -24.8480  -15.8978   27.3706 O   0  0  0  0  0  0  0  0  0  0  0  0
  -32.3567  -14.5481   20.2703 O   0  0  0  0  0  0  0  0  0  0  0  0
  -28.0495  -26.8111   19.2563 O   0  0  0  0  0  0  0  0  0  0  0  0
  -22.5544  -14.8750   20.8318 O   0  0  0  0  0  0  0  0  0  1  0  0
  -23.9470  -29.8289   21.3696 F   0  0  0  0  0  0  0  0  0  0  0  0
  -28.5688  -29.1834   20.5772 F   0  0  0  0  0  0  0  0  0  0  0  0
  1  2  1  0  0  0  0
  1  6  2  0  0  0  0
  2  7  2  0  0  0  0
  3  8  2  0  0  0  0
  3 10  1  0  0  0  0
  4 11  2  0  0  0  0
  4 19  1  0  0  0  0
  5 12  1  0  0  0  0
  5 19  2  0  0  0  0
  6 22  1  0  0  0  0
  7 24  1  0  0  0  0
  8 21  1  0  0  0  0
  9 13  2  0  0  0  0
  9 23  1  0  0  0  0
 10 26  2  0  0  0  0
 11 27  1  0  0  0  0
 12 27  2  0  0  0  0
 13 28  1  0  0  0  0
 14 15  2  0  0  0  0
 14 29  1  0  0  0  0
 15 30  1  0  0  0  0
 16 21  2  0  0  0  0
 16 26  1  0  0  0  0
 17 25  1  0  0  0  0
 17 28  2  0  0  0  0
 18 30  2  0  0  0  0
 18 31  1  0  0  0  0
 19 32  1  0  0  0  0
 20 32  1  0  0  0  0
 20 33  2  0  0  0  0
 20 34  1  0  0  0  0
 21 52  1  0  0  0  0
 22 24  2  0  0  0  0
 22 39  1  0  0  0  0
 23 25  2  0  0  0  0
 23 40  1  0  0  0  0
 24 53  1  0  0  0  0
 25 41  1  0  0  0  0
 26 73  1  0  0  0  0
 27 82  1  0  0  0  0
 28 83  1  0  0  0  0
 29 31  2  0  0  0  0
 29 82  1  0  0  0  0
 30 84  1  0  0  0  0
 31 85  1  0  0  0  0
 32 67  2  0  0  0  0
 33 68  1  0  0  0  0
 33 71  1  0  0  0  0
 34 72  1  0  0  0  0
 34 77  2  0  0  0  0
 35 54  1  0  0  0  0
 35 74  1  0  0  0  0
 35 78  2  0  0  0  0
 36 64  1  0  0  0  0
 36 69  1  0  0  0  0
 36 79  2  0  0  0  0
 37 65  1  0  0  0  0
 37 75  1  0  0  0  0
 37 80  2  0  0  0  0
 38 70  1  0  0  0  0
 38 73  1  0  0  0  0
 38 81  2  0  0  0  0
 39 42  1  0  0  0  0
 40 54  1  0  0  0  0
 41 69  1  0  0  0  0
 42 46  1  0  0  0  0
 43 47  1  0  0  0  0
 43 50  1  0  0  0  0
 44 48  1  0  0  0  0
 44 52  1  0  0  0  0
 45 49  1  0  0  0  0
 45 52  1  0  0  0  0
 46 53  1  0  0  0  0
 47 55  1  0  0  0  0
 48 56  1  0  0  0  0
 49 56  1  0  0  0  0
 50 70  1  0  0  0  0
 51 55  1  0  0  0  0
 51 70  1  0  0  0  0
 53 74  1  0  0  0  0
 54 69  1  0  0  0  0
 55 68  1  0  0  0  0
 56 57  1  0  0  0  0
 56 63  1  0  0  0  0
 58 65  1  0  0  0  0
 59 66  1  0  0  0  0
 60 66  1  0  0  0  0
 61 66  1  0  0  0  0
 62 76  1  0  0  0  0
 63 83  1  0  0  0  0
 64 66  1  0  0  0  0
 64 75  1  0  0  0  0
 65 76  1  0  0  0  0
 67 68  1  0  0  0  0
M  CHG  1  76   1
M  ISO  4  38 100  63 101  73 100  83 101
M  END
> <Batch ID>
0147

> <Smiles>
CNC(C)C(=O)NC(C(=O)N1Cc2cc([101O:1][101CH2:1]C3(C)CCC(c4cccc([100NH:0][100C:0](=O)N5CCCC(n6nc(-c7ccc(Oc8ccc(F)cc8F)cc7)c(C(N)=O)c6N)C5)c4)CC3)ccc2CC1C(=O)NC1CCCc2ccccc21)C(C)(C)C

> <Shape>
0.200

> <Color>
0.095

> <Negative vol penalty>
0.000

$$$$

  -OEChem-04052303133D

 88 97  0     1  0  0  0  0  0999 V2000
  -19.0518  -33.5791   20.8691 C   0  0  0  0  0  0  0  0  0  0  0  0
  -20.3980  -33.3137   20.6394 C   0  0  0  0  0  0  0  0  0  0  0  0
  -24.0648  -10.0234   22.2677 C   0  0  0  0  0  0  0  0  0  0  0  0
  -24.3902  -11.4849   24.1639 C   0  0  0  0  0  0  0  0  0  0  0  0
  -18.3598  -32.8688   21.8493 C   0  0  0  0  0  0  0  0  0  0  0  0
  -21.0533  -32.3387   21.3905 C   0  0  0  0  0  0  0  0  0  0  0  0
  -28.4750  -22.0961   21.4143 C   0  0  0  0  0  0  0  0  0  0  0  0
  -29.8022  -21.6909   19.4366 C   0  0  0  0  0  0  0  0  0  0  0  0
  -25.4974  -28.5853   19.4753 C   0  0  0  0  0  0  0  0  0  0  0  0
  -28.8248  -23.4457   21.3725 C   0  0  0  0  0  0  0  0  0  0  0  0
  -30.1520  -23.0405   19.3947 C   0  0  0  0  0  0  0  0  0  0  0  0
  -23.5639   -9.0353   23.1153 C   0  0  0  0  0  0  0  0  0  0  0  0
  -23.8893  -10.4968   25.0114 C   0  0  0  0  0  0  0  0  0  0  0  0
  -26.8850  -28.6331   19.6021 C   0  0  0  0  0  0  0  0  0  0  0  0
  -20.6591   -8.3571   24.7074 C   0  0  0  0  0  0  0  0  0  0  0  0
  -19.5010   -7.6886   24.3106 C   0  0  0  0  0  0  0  0  0  0  0  0
  -26.7520  -27.1944   21.5338 C   0  0  0  0  0  0  0  0  0  0  0  0
  -20.7015   -5.5922   24.3383 C   0  0  0  0  0  0  0  0  0  0  0  0
  -24.4779  -11.2483   22.7920 C   0  0  0  0  0  0  0  0  0  0  0  0
  -24.2653  -13.2798   21.2638 C   0  0  0  0  0  0  0  0  0  0  0  0
  -28.9638  -21.2186   20.4463 C   0  0  0  0  0  0  0  0  0  0  0  0
  -19.0045  -31.8779   22.6062 C   0  0  0  0  0  0  0  0  0  0  0  0
  -24.7245  -27.8493   20.3849 C   0  0  0  0  0  0  0  0  0  0  0  0
  -20.3697  -31.6154   22.3827 C   0  0  0  0  0  0  0  0  0  0  0  0
  -25.3550  -27.1368   21.4149 C   0  0  0  0  0  0  0  0  0  0  0  0
  -29.6632  -23.9179   20.3627 C   0  0  0  0  0  0  0  0  0  0  0  0
  -23.4762   -9.2720   24.4871 C   0  0  0  0  0  0  0  0  0  0  0  0
  -27.5123  -27.9400   20.6332 C   0  0  0  0  0  0  0  0  0  0  0  0
  -21.8385   -7.6431   24.9197 C   0  0  0  0  0  0  0  0  0  0  0  0
  -19.5222   -6.3062   24.1260 C   0  0  0  0  0  0  0  0  0  0  0  0
  -21.8597   -6.2607   24.7351 C   0  0  0  0  0  0  0  0  0  0  0  0
  -24.9959  -12.2692   21.9171 C   0  0  0  0  0  0  0  0  0  0  0  0
  -25.2098  -13.9852   20.5590 C   0  0  0  0  0  0  0  0  0  0  0  0
  -22.8587  -13.5561   21.2916 C   0  0  0  0  0  0  0  0  0  0  0  0
  -22.4483  -28.5623   22.4859 C   0  0  0  0  0  0  0  0  0  0  0  0
  -22.2816  -25.3392   22.8116 C   0  0  0  0  0  0  0  0  0  0  0  0
  -23.8312  -22.3131   22.5140 C   0  0  0  0  0  0  0  0  0  0  0  0
  -30.8366  -25.9279   19.3931 C   0  0  0  0  0  0  0  0  0  0  0  0
  -30.2183  -16.4214   20.2794 C   0  0  0  0  0  0  0  0  0  0  0  0
  -18.2271  -31.1693   23.6871 C   0  0  0  0  0  0  0  0  0  0  0  0
  -23.2309  -27.7861   20.2185 C   0  0  0  0  0  0  0  0  0  0  0  0
  -24.5723  -26.3154   22.4054 C   0  0  0  0  0  0  0  0  0  0  0  0
  -18.8990  -29.8912   24.1824 C   0  0  0  0  0  0  0  0  0  0  0  0
  -30.0455  -12.9645   19.5702 C   0  0  0  0  0  0  0  0  0  0  0  0
  -20.3817  -30.1349   24.4451 C   0  0  0  0  0  0  0  0  0  0  0  0
  -28.6744  -12.5417   20.0904 C   0  0  0  0  0  0  0  0  0  0  0  0
  -28.3516  -19.1418   21.8822 C   0  0  0  0  0  0  0  0  0  0  0  0
  -30.6756  -14.0033   20.4882 C   0  0  0  0  0  0  0  0  0  0  0  0
  -28.4018  -17.6445   21.6093 C   0  0  0  0  0  0  0  0  0  0  0  0
  -29.6445  -18.8032   19.9195 C   0  0  0  0  0  0  0  0  0  0  0  0
  -28.4426  -14.8367   21.1731 C   0  0  0  0  0  0  0  0  0  0  0  0
  -28.5844  -19.7549   20.4918 C   0  0  2  0  0  0  0  0  0  0  0  0
  -21.1091  -30.5480   23.1599 C   0  0  1  0  0  0  0  0  0  0  0  0
  -22.5009  -27.4228   21.5078 C   0  0  1  0  0  0  0  0  0  0  0  0
  -27.7688  -13.7671   20.2888 C   0  0  2  0  0  0  0  0  0  0  0  0
  -23.4540  -19.8612   22.8922 C   0  0  0  0  0  0  0  0  0  0  0  0
  -31.9259  -28.0599   18.6023 C   0  0  0  0  0  0  0  0  0  0  0  0
  -31.5871  -27.6748   21.0708 C   0  0  0  0  0  0  0  0  0  0  0  0
  -22.6402  -25.7495   25.8138 C   0  0  0  0  0  0  0  0  0  0  0  0
  -23.2035  -23.3179   26.0084 C   0  0  0  0  0  0  0  0  0  0  0  0
  -20.9509  -24.0131   25.1927 C   0  0  0  0  0  0  0  0  0  0  0  0
  -24.2276  -21.6918   19.6477 C   0  0  0  0  0  0  0  0  0  0  0  0
  -29.6251  -28.1513   19.5620 C   0  0  0  0  0  0  0  0  0  1  0  0
  -22.9614  -24.3169   23.6901 C   0  0  1  0  0  0  0  0  0  0  0  0
  -23.3757  -21.0050   21.8930 C   0  0  2  0  0  0  0  0  0  0  0  0
  -30.9990  -27.4472   19.6670 C   0  0  0  0  0  0  0  0  0  0  0  0
  -22.4539  -24.3663   25.1589 C   0  0  0  0  0  0  0  0  0  0  0  0
  -26.3036  -12.3242   21.6509 N   0  0  0  0  0  0  0  0  0  0  0  0
  -26.4022  -13.3778   20.8225 N   0  0  0  0  0  0  0  0  0  0  0  0
  -23.1140  -26.2901   22.2046 N   0  0  0  0  0  0  0  0  0  0  0  0
  -29.7940  -15.1540   20.6936 N   0  0  0  0  0  0  0  0  0  0  0  0
  -29.3772  -17.5049   20.5301 N   0  0  0  0  0  0  0  0  0  0  0  0
  -25.1284  -15.0597   19.7458 N   0  0  0  0  0  0  0  0  0  0  0  0
  -22.0313  -12.7327   22.0673 N   0  0  0  0  0  0  0  0  0  0  0  0
  -30.0130  -25.2679   20.3205 N   0  0  0  0  0  0  0  0  0  0  0  0
  -21.3552  -29.3921   22.3245 N   0  0  0  0  0  0  0  0  0  0  0  0
  -22.7729  -23.0266   23.0358 N   0  0  0  0  0  0  0  0  0  0  0  0
  -24.2292  -20.6636   20.7200 N   0  3  0  0  0  0  0  0  0  0  0  0
  -22.3485  -14.4950   20.6347 O   0  0  0  0  0  0  0  0  0  0  0  0
  -23.3330  -28.6791   23.3257 O   0  0  0  0  0  0  0  0  0  0  0  0
  -21.0579  -25.2913   22.6637 O   0  0  0  0  0  0  0  0  0  0  0  0
  -25.0085  -22.6651   22.5375 O   0  0  0  0  0  0  0  0  0  0  0  0
  -31.4041  -25.3906   18.4437 O   0  0  0  0  0  0  0  0  0  0  0  0
  -31.3227  -16.5863   19.7438 O   0  0  0  0  0  0  0  0  0  0  0  0
  -22.9873   -8.3081   25.3144 O   0  0  0  0  0  0  0  0  0  0  0  0
  -28.8754  -27.9858   20.7604 O   0  0  0  0  0  0  0  0  0  1  0  0
  -18.4096   -5.6642   23.7464 F   0  0  0  0  0  0  0  0  0  0  0  0
  -22.9894   -5.5692   24.9387 F   0  0  0  0  0  0  0  0  0  0  0  0
  1  2  1  0  0  0  0
  1  5  2  0  0  0  0
  2  6  2  0  0  0  0
  3 12  2  0  0  0  0
  3 19  1  0  0  0  0
  4 13  1  0  0  0  0
  4 19  2  0  0  0  0
  5 22  1  0  0  0  0
  6 24  1  0  0  0  0
  7 10  2  0  0  0  0
  7 21  1  0  0  0  0
  8 11  1  0  0  0  0
  8 21  2  0  0  0  0
  9 14  2  0  0  0  0
  9 23  1  0  0  0  0
 10 26  1  0  0  0  0
 11 26  2  0  0  0  0
 12 27  1  0  0  0  0
 13 27  2  0  0  0  0
 14 28  1  0  0  0  0
 15 16  2  0  0  0  0
 15 29  1  0  0  0  0
 16 30  1  0  0  0  0
 17 25  1  0  0  0  0
 17 28  2  0  0  0  0
 18 30  2  0  0  0  0
 18 31  1  0  0  0  0
 19 32  1  0  0  0  0
 20 32  1  0  0  0  0
 20 33  2  0  0  0  0
 20 34  1  0  0  0  0
 21 52  1  0  0  0  0
 22 24  2  0  0  0  0
 22 40  1  0  0  0  0
 23 25  2  0  0  0  0
 23 41  1  0  0  0  0
 24 53  1  0  0  0  0
 25 42  1  0  0  0  0
 26 75  1  0  0  0  0
 27 85  1  0  0  0  0
 28 86  1  0  0  0  0
 29 31  2  0  0  0  0
 29 85  1  0  0  0  0
 30 87  1  0  0  0  0
 31 88  1  0  0  0  0
 32 68  2  0  0  0  0
 33 69  1  0  0  0  0
 33 73  1  0  0  0  0
 34 74  1  0  0  0  0
 34 79  2  0  0  0  0
 35 54  1  0  0  0  0
 35 76  1  0  0  0  0
 35 80  2  0  0  0  0
 36 64  1  0  0  0  0
 36 70  1  0  0  0  0
 36 81  2  0  0  0  0
 37 65  1  0  0  0  0
 37 77  1  0  0  0  0
 37 82  2  0  0  0  0
 38 66  1  0  0  0  0
 38 75  1  0  0  0  0
 38 83  2  0  0  0  0
 39 71  1  0  0  0  0
 39 72  1  0  0  0  0
 39 84  2  0  0  0  0
 40 43  1  0  0  0  0
 41 54  1  0  0  0  0
 42 70  1  0  0  0  0
 43 45  1  0  0  0  0
 44 46  1  0  0  0  0
 44 48  1  0  0  0  0
 45 53  1  0  0  0  0
 46 55  1  0  0  0  0
 47 49  1  0  0  0  0
 47 52  1  0  0  0  0
 48 71  1  0  0  0  0
 49 72  1  0  0  0  0
 50 52  1  0  0  0  0
 50 72  1  0  0  0  0
 51 55  1  0  0  0  0
 51 71  1  0  0  0  0
 53 76  1  0  0  0  0
 54 70  1  0  0  0  0
 55 69  1  0  0  0  0
 56 65  1  0  0  0  0
 57 66  1  0  0  0  0
 58 66  1  0  0  0  0
 59 67  1  0  0  0  0
 60 67  1  0  0  0  0
 61 67  1  0  0  0  0
 62 78  1  0  0  0  0
 63 66  1  0  0  0  0
 63 86  1  0  0  0  0
 64 67  1  0  0  0  0
 64 77  1  0  0  0  0
 65 78  1  0  0  0  0
 68 69  1  0  0  0  0
M  CHG  1  78   1
M  ISO  4  39 100  63 101  72 100  86 101
M  END
> <Batch ID>
0147

> <Smiles>
CNC(C)C(=O)NC(C(=O)N1Cc2cc([101O:1][101CH2:1]C(C)(C)C(=O)Nc3ccc(C4CC[100N:0]([100C:0](=O)N5CCCC(n6nc(-c7ccc(Oc8ccc(F)cc8F)cc7)c(C(N)=O)c6N)C5)C4)cc3)ccc2CC1C(=O)NC1CCCc2ccccc21)C(C)(C)C

> <Shape>
0.282

> <Color>
0.146

> <Negative vol penalty>
0.000

$$$$

  -OEChem-04052303133D

 82 90  0     1  0  0  0  0  0999 V2000
  -17.9656  -31.6881   19.8637 C   0  0  0  0  0  0  0  0  0  0  0  0
  -19.3223  -31.6510   19.5579 C   0  0  0  0  0  0  0  0  0  0  0  0
  -26.1833  -13.3203   19.8310 C   0  0  0  0  0  0  0  0  0  0  0  0
  -24.5301  -15.0405   20.2120 C   0  0  0  0  0  0  0  0  0  0  0  0
  -17.5189  -31.2327   21.1035 C   0  0  0  0  0  0  0  0  0  0  0  0
  -20.2332  -31.1595   20.4923 C   0  0  0  0  0  0  0  0  0  0  0  0
  -25.3544  -28.0066   19.3350 C   0  0  0  0  0  0  0  0  0  0  0  0
  -25.1740  -12.3583   19.7947 C   0  0  0  0  0  0  0  0  0  0  0  0
  -23.5208  -14.0784   20.1756 C   0  0  0  0  0  0  0  0  0  0  0  0
  -26.6930  -28.3880   19.2559 C   0  0  0  0  0  0  0  0  0  0  0  0
  -23.2685  -10.6630   22.0127 C   0  0  0  0  0  0  0  0  0  0  0  0
  -23.4763   -9.4797   22.7214 C   0  0  0  0  0  0  0  0  0  0  0  0
  -31.0637  -23.5815   22.8512 C   0  0  0  0  0  0  0  0  0  0  0  0
  -31.2414  -24.8262   22.1809 C   0  0  0  0  0  0  0  0  0  0  0  0
  -27.0141  -27.7155   21.5502 C   0  0  0  0  0  0  0  0  0  0  0  0
  -23.2731   -8.2166   20.6719 C   0  0  0  0  0  0  0  0  0  0  0  0
  -25.8614  -14.6615   20.0397 C   0  0  0  0  0  0  0  0  0  0  0  0
  -27.4177  -16.3904   18.9927 C   0  0  0  0  0  0  0  0  0  0  0  0
  -18.4238  -30.7264   22.0498 C   0  0  0  0  0  0  0  0  0  0  0  0
  -24.8319  -27.4860   20.5277 C   0  0  0  0  0  0  0  0  0  0  0  0
  -19.7984  -30.6981   21.7464 C   0  0  0  0  0  0  0  0  0  0  0  0
  -25.6691  -27.3258   21.6411 C   0  0  0  0  0  0  0  0  0  0  0  0
  -23.8427  -12.7373   19.9670 C   0  0  0  0  0  0  0  0  0  0  0  0
  -27.5224  -28.2452   20.3644 C   0  0  0  0  0  0  0  0  0  0  0  0
  -23.0629  -10.6231   20.6336 C   0  0  0  0  0  0  0  0  0  0  0  0
  -23.4787   -8.2565   22.0510 C   0  0  0  0  0  0  0  0  0  0  0  0
  -23.0653   -9.3999   19.9632 C   0  0  0  0  0  0  0  0  0  0  0  0
  -26.9036  -15.6556   20.0779 C   0  0  0  0  0  0  0  0  0  0  0  0
  -28.3819  -17.1951   19.5489 C   0  0  0  0  0  0  0  0  0  0  0  0
  -30.2563  -22.7214   22.1399 C   0  0  0  0  0  0  0  0  0  0  0  0
  -30.5631  -24.8700   20.9826 C   0  0  0  0  0  0  0  0  0  0  0  0
  -27.0561  -16.3492   17.6059 C   0  0  0  0  0  0  0  0  0  0  0  0
  -22.5613  -28.3844   22.5626 C   0  0  0  0  0  0  0  0  0  0  0  0
  -23.2025  -25.5173   23.9375 C   0  0  0  0  0  0  0  0  0  0  0  0
  -25.4259  -22.9773   24.4391 C   0  0  0  0  0  0  0  0  0  0  0  0
  -30.1322  -20.6419   23.5563 C   0  0  0  0  0  0  0  0  0  0  0  0
  -17.8991  -30.2894   23.3946 C   0  0  0  0  0  0  0  0  0  0  0  0
  -23.3924  -27.0543   20.5887 C   0  0  0  0  0  0  0  0  0  0  0  0
  -25.1621  -26.7533   22.9386 C   0  0  0  0  0  0  0  0  0  0  0  0
  -18.8868  -29.4358   24.1857 C   0  0  0  0  0  0  0  0  0  0  0  0
  -30.4471  -17.1488   24.1700 C   0  0  0  0  0  0  0  0  0  0  0  0
  -20.2768  -30.0634   24.1576 C   0  0  0  0  0  0  0  0  0  0  0  0
  -29.5956  -16.5094   23.0708 C   0  0  0  0  0  0  0  0  0  0  0  0
  -29.8285  -18.4480   24.6831 C   0  0  0  0  0  0  0  0  0  0  0  0
  -28.6545  -18.7953   22.5453 C   0  0  0  0  0  0  0  0  0  0  0  0
  -20.8146  -30.1490   22.7241 C   0  0  1  0  0  0  0  0  0  0  0  0
  -22.8400  -27.0151   22.0102 C   0  0  1  0  0  0  0  0  0  0  0  0
  -29.2704  -17.5178   21.9515 C   0  0  2  0  0  0  0  0  0  0  0  0
  -25.6780  -20.7883   25.6401 C   0  0  0  0  0  0  0  0  0  0  0  0
  -23.6035  -27.0097   26.5685 C   0  0  0  0  0  0  0  0  0  0  0  0
  -24.7521  -24.9747   27.4673 C   0  0  0  0  0  0  0  0  0  0  0  0
  -22.3592  -24.8500   26.7734 C   0  0  0  0  0  0  0  0  0  0  0  0
  -31.7318  -29.4895   19.5075 C   0  0  0  0  0  0  0  0  0  0  0  0
  -31.4992  -27.6509   17.8299 C   0  0  0  0  0  0  0  0  0  0  0  0
  -25.8146  -21.4990   21.9048 C   0  0  0  0  0  0  0  0  0  0  0  0
  -31.2257  -27.1795   20.3096 C   0  0  0  0  0  0  0  0  0  0  0  0
  -29.4624  -28.5142   19.0154 C   0  0  0  0  0  0  0  0  0  1  0  0
  -24.1552  -25.0319   25.0032 C   0  0  1  0  0  0  0  0  0  0  0  0
  -25.2720  -21.4701   24.3427 C   0  0  2  0  0  0  0  0  0  0  0  0
  -23.7269  -25.4792   26.4294 C   0  0  0  0  0  0  0  0  0  0  0  0
  -30.9661  -28.1935   19.1689 C   0  0  0  0  0  0  0  0  0  0  0  0
  -27.4925  -15.9659   21.2359 N   0  0  0  0  0  0  0  0  0  0  0  0
  -28.3867  -16.9044   20.8815 N   0  0  0  0  0  0  0  0  0  0  0  0
  -23.7457  -26.3518   22.9504 N   0  0  0  0  0  0  0  0  0  0  0  0
  -29.5516  -19.3559   23.5678 N   0  0  0  0  0  0  0  0  0  0  0  0
  -29.2176  -18.1157   19.0232 N   0  0  0  0  0  0  0  0  0  0  0  0
  -26.0450  -15.4652   17.2051 N   0  0  0  0  0  0  0  0  0  0  0  0
  -29.8236  -21.4037   22.4298 N   0  0  0  0  0  0  0  0  0  0  0  0
  -30.5299  -25.9315   20.0936 N   0  0  0  0  0  0  0  0  0  0  0  0
  -21.2920  -28.8552   22.2853 N   0  0  0  0  0  0  0  0  0  0  0  0
  -24.2538  -23.5861   24.8349 N   0  0  0  0  0  0  0  0  0  0  0  0
  -26.1218  -20.9319   23.2431 N   0  3  0  0  0  0  0  0  0  0  0  0
  -27.6243  -17.0631   16.7451 O   0  0  0  0  0  0  0  0  0  0  0  0
  -23.4326  -28.9698   23.1948 O   0  0  0  0  0  0  0  0  0  0  0  0
  -22.0215  -25.1631   23.9754 O   0  0  0  0  0  0  0  0  0  0  0  0
  -26.4815  -23.5562   24.1919 O   0  0  0  0  0  0  0  0  0  0  0  0
  -30.8722  -21.0279   24.4647 O   0  0  0  0  0  0  0  0  0  0  0  0
  -22.8576  -11.7988   19.9314 O   0  0  0  0  0  0  0  0  0  0  0  0
  -28.8293  -28.6173   20.2900 O   0  0  0  0  0  0  0  0  0  1  0  0
  -23.6798   -7.1204   22.7314 F   0  0  0  0  0  0  0  0  0  0  0  0
  -22.8695   -9.3554   18.6383 F   0  0  0  0  0  0  0  0  0  0  0  0
  -29.7164  -23.4148   20.6701 S   0  0  0  0  0  0  0  0  0  0  0  0
  1  2  1  0  0  0  0
  1  5  2  0  0  0  0
  2  6  2  0  0  0  0
  3  8  2  0  0  0  0
  3 17  1  0  0  0  0
  4  9  1  0  0  0  0
  4 17  2  0  0  0  0
  5 19  1  0  0  0  0
  6 21  1  0  0  0  0
  7 10  2  0  0  0  0
  7 20  1  0  0  0  0
  8 23  1  0  0  0  0
  9 23  2  0  0  0  0
 10 24  1  0  0  0  0
 11 12  2  0  0  0  0
 11 25  1  0  0  0  0
 12 26  1  0  0  0  0
 13 14  1  0  0  0  0
 13 30  2  0  0  0  0
 14 31  2  0  0  0  0
 15 22  1  0  0  0  0
 15 24  2  0  0  0  0
 16 26  2  0  0  0  0
 16 27  1  0  0  0  0
 17 28  1  0  0  0  0
 18 28  1  0  0  0  0
 18 29  2  0  0  0  0
 18 32  1  0  0  0  0
 19 21  2  0  0  0  0
 19 37  1  0  0  0  0
 20 22  2  0  0  0  0
 20 38  1  0  0  0  0
 21 46  1  0  0  0  0
 22 39  1  0  0  0  0
 23 78  1  0  0  0  0
 24 79  1  0  0  0  0
 25 27  2  0  0  0  0
 25 78  1  0  0  0  0
 26 80  1  0  0  0  0
 27 81  1  0  0  0  0
 28 62  2  0  0  0  0
 29 63  1  0  0  0  0
 29 66  1  0  0  0  0
 30 68  1  0  0  0  0
 30 82  1  0  0  0  0
 31 69  1  0  0  0  0
 31 82  1  0  0  0  0
 32 67  1  0  0  0  0
 32 73  2  0  0  0  0
 33 47  1  0  0  0  0
 33 70  1  0  0  0  0
 33 74  2  0  0  0  0
 34 58  1  0  0  0  0
 34 64  1  0  0  0  0
 34 75  2  0  0  0  0
 35 59  1  0  0  0  0
 35 71  1  0  0  0  0
 35 76  2  0  0  0  0
 36 65  1  0  0  0  0
 36 68  1  0  0  0  0
 36 77  2  0  0  0  0
 37 40  1  0  0  0  0
 38 47  1  0  0  0  0
 39 64  1  0  0  0  0
 40 42  1  0  0  0  0
 41 43  1  0  0  0  0
 41 44  1  0  0  0  0
 42 46  1  0  0  0  0
 43 48  1  0  0  0  0
 44 65  1  0  0  0  0
 45 48  1  0  0  0  0
 45 65  1  0  0  0  0
 46 70  1  0  0  0  0
 47 64  1  0  0  0  0
 48 63  1  0  0  0  0
 49 59  1  0  0  0  0
 50 60  1  0  0  0  0
 51 60  1  0  0  0  0
 52 60  1  0  0  0  0
 53 61  1  0  0  0  0
 54 61  1  0  0  0  0
 55 72  1  0  0  0  0
 56 61  1  0  0  0  0
 56 69  1  0  0  0  0
 57 61  1  0  0  0  0
 57 79  1  0  0  0  0
 58 60  1  0  0  0  0
 58 71  1  0  0  0  0
 59 72  1  0  0  0  0
 62 63  1  0  0  0  0
M  CHG  1  72   1
M  ISO  4  36 100  57 101  68 100  79 101
M  END
> <Batch ID>
0147

> <Smiles>
CNC(C)C(=O)NC(C(=O)N1Cc2cc([101O:1][101CH2:1]C(C)(C)CNc3ccc([100NH:0][100C:0](=O)N4CCCC(n5nc(-c6ccc(Oc7ccc(F)cc7F)cc6)c(C(N)=O)c5N)C4)s3)ccc2CC1C(=O)NC1CCCc2ccccc21)C(C)(C)C

> <Shape>
0.201

> <Color>
0.072

> <Negative vol penalty>
0.000

$$$$

  -OEChem-04052303133D

 84 93  0     1  0  0  0  0  0999 V2000
  -22.9437   -6.6919   23.8247 C   0  0  0  0  0  0  0  0  0  0  0  0
  -24.1237   -7.3803   24.0871 C   0  0  0  0  0  0  0  0  0  0  0  0
  -25.2414  -32.0695   21.6070 C   0  0  0  0  0  0  0  0  0  0  0  0
  -25.4921  -32.2878   24.0000 C   0  0  0  0  0  0  0  0  0  0  0  0
  -22.2282   -6.9568   22.6577 C   0  0  0  0  0  0  0  0  0  0  0  0
  -24.5896   -8.3334   23.1821 C   0  0  0  0  0  0  0  0  0  0  0  0
  -28.1473  -14.5469   22.9553 C   0  0  0  0  0  0  0  0  0  0  0  0
  -25.7789  -33.3449   21.4343 C   0  0  0  0  0  0  0  0  0  0  0  0
  -26.0296  -33.5632   23.8274 C   0  0  0  0  0  0  0  0  0  0  0  0
  -29.2411  -15.1394   22.3256 C   0  0  0  0  0  0  0  0  0  0  0  0
  -24.8881  -36.6853   23.2107 C   0  0  0  0  0  0  0  0  0  0  0  0
  -24.4264  -37.7018   24.0469 C   0  0  0  0  0  0  0  0  0  0  0  0
  -27.8804  -15.5705   20.3809 C   0  0  0  0  0  0  0  0  0  0  0  0
  -28.8002  -22.4278   21.8645 C   0  0  0  0  0  0  0  0  0  0  0  0
  -26.6703  -38.0383   24.8768 C   0  0  0  0  0  0  0  0  0  0  0  0
  -28.9818  -23.0913   19.7424 C   0  0  0  0  0  0  0  0  0  0  0  0
  -25.0979  -31.5409   22.8899 C   0  0  0  0  0  0  0  0  0  0  0  0
  -23.2650  -29.7793   22.6774 C   0  0  0  0  0  0  0  0  0  0  0  0
  -22.6805   -7.9205   21.7426 C   0  0  0  0  0  0  0  0  0  0  0  0
  -26.9127  -14.4518   22.2971 C   0  0  0  0  0  0  0  0  0  0  0  0
  -23.8803   -8.6105   22.0012 C   0  0  0  0  0  0  0  0  0  0  0  0
  -26.7719  -14.9786   21.0053 C   0  0  0  0  0  0  0  0  0  0  0  0
  -29.2640  -22.0409   20.5844 C   0  0  0  0  0  0  0  0  0  0  0  0
  -26.1730  -34.0918   22.5445 C   0  0  0  0  0  0  0  0  0  0  0  0
  -29.1085  -15.6487   21.0372 C   0  0  0  0  0  0  0  0  0  0  0  0
  -26.2409  -36.3452   23.2077 C   0  0  0  0  0  0  0  0  0  0  0  0
  -25.3175  -38.3783   24.8799 C   0  0  0  0  0  0  0  0  0  0  0  0
  -27.1320  -37.0217   24.0407 C   0  0  0  0  0  0  0  0  0  0  0  0
  -24.5422  -30.2236   23.0689 C   0  0  0  0  0  0  0  0  0  0  0  0
  -23.2241  -28.4636   23.0693 C   0  0  0  0  0  0  0  0  0  0  0  0
  -28.2680  -23.6872   21.7134 C   0  0  0  0  0  0  0  0  0  0  0  0
  -22.2100  -30.4922   22.0182 C   0  0  0  0  0  0  0  0  0  0  0  0
  -25.0542  -12.0531   21.3506 C   0  0  0  0  0  0  0  0  0  0  0  0
  -23.0057  -14.4524   20.5963 C   0  0  0  0  0  0  0  0  0  0  0  0
  -23.2226  -17.7254   19.0936 C   0  0  0  0  0  0  0  0  0  0  0  0
  -27.4554  -24.3492   24.0042 C   0  0  0  0  0  0  0  0  0  0  0  0
  -21.8980   -8.1385   20.4719 C   0  0  0  0  0  0  0  0  0  0  0  0
  -25.7354  -13.8337   23.0003 C   0  0  0  0  0  0  0  0  0  0  0  0
  -25.4625  -14.9197   20.2633 C   0  0  0  0  0  0  0  0  0  0  0  0
  -22.2628   -9.4310   19.7461 C   0  0  0  0  0  0  0  0  0  0  0  0
  -25.0252  -25.4757   26.3499 C   0  0  0  0  0  0  0  0  0  0  0  0
  -23.7779   -9.5850   19.6590 C   0  0  0  0  0  0  0  0  0  0  0  0
  -24.5050  -26.7775   25.7361 C   0  0  0  0  0  0  0  0  0  0  0  0
  -30.8160  -19.3968   18.4591 C   0  0  0  0  0  0  0  0  0  0  0  0
  -31.2608  -18.8859   20.8695 C   0  0  0  0  0  0  0  0  0  0  0  0
  -26.5219  -25.2918   26.1054 C   0  0  0  0  0  0  0  0  0  0  0  0
  -29.6859  -20.3418   18.8690 C   0  0  0  0  0  0  0  0  0  0  0  0
  -30.1301  -19.8313   21.2786 C   0  0  0  0  0  0  0  0  0  0  0  0
  -26.4194  -26.7020   24.0880 C   0  0  0  0  0  0  0  0  0  0  0  0
  -24.4051   -9.6693   21.0558 C   0  0  1  0  0  0  0  0  0  0  0  0
  -24.6628  -13.3298   22.0395 C   0  0  1  0  0  0  0  0  0  0  0  0
  -24.9036  -26.8996   24.2523 C   0  0  2  0  0  0  0  0  0  0  0  0
  -31.0666  -18.2636   19.4732 C   0  0  0  0  0  0  0  0  0  0  0  0
  -32.3448  -17.5031   19.0759 C   0  0  0  0  0  0  0  0  0  0  0  0
  -21.7602  -19.7463   19.3668 C   0  0  0  0  0  0  0  0  0  0  0  0
  -21.5651  -13.3853   18.1273 C   0  0  0  0  0  0  0  0  0  0  0  0
  -21.3184  -15.7478   17.3359 C   0  0  0  0  0  0  0  0  0  0  0  0
  -20.2488  -15.0319   19.4728 C   0  0  0  0  0  0  0  0  0  0  0  0
  -25.5183  -19.4257   19.8668 C   0  0  0  0  0  0  0  0  0  0  0  0
  -29.8969  -17.2616   19.4775 C   0  0  0  0  0  0  0  0  0  1  0  0
  -22.7604  -15.3042   19.3743 C   0  0  1  0  0  0  0  0  0  0  0  0
  -23.0484  -19.0606   19.7946 C   0  0  2  0  0  0  0  0  0  0  0  0
  -21.4989  -14.8566   18.5833 C   0  0  0  0  0  0  0  0  0  0  0  0
  -25.2606  -29.2677   23.6641 N   0  0  0  0  0  0  0  0  0  0  0  0
  -24.4321  -28.2097   23.6495 N   0  0  0  0  0  0  0  0  0  0  0  0
  -29.8849  -20.8335   20.2377 N   0  0  0  0  0  0  0  0  0  0  0  0
  -24.3425  -14.3001   20.9907 N   0  0  0  0  0  0  0  0  0  0  0  0
  -26.8243  -25.4163   24.6779 N   0  0  0  0  0  0  0  0  0  0  0  0
  -22.2731  -27.5106   22.9708 N   0  0  0  0  0  0  0  0  0  0  0  0
  -22.4186  -31.8378   21.6864 N   0  0  0  0  0  0  0  0  0  0  0  0
  -27.6627  -24.5690   22.6428 N   0  0  0  0  0  0  0  0  0  0  0  0
  -24.2134  -10.9894   21.6171 N   0  0  0  0  0  0  0  0  0  0  0  0
  -22.7135  -16.6853   19.8421 N   0  0  0  0  0  0  0  0  0  0  0  0
  -24.1898  -19.9648   19.4776 N   0  3  0  0  0  0  0  0  0  0  0  0
  -21.1088  -29.9565   21.7467 O   0  0  0  0  0  0  0  0  0  0  0  0
  -26.0448  -12.0348   20.6295 O   0  0  0  0  0  0  0  0  0  0  0  0
  -22.0459  -13.9469   21.1836 O   0  0  0  0  0  0  0  0  0  0  0  0
  -23.7537  -17.6164   17.9906 O   0  0  0  0  0  0  0  0  0  0  0  0
  -27.7630  -23.3057   24.5860 O   0  0  0  0  0  0  0  0  0  0  0  0
  -28.3749  -24.0989   20.4228 O   0  0  0  0  0  0  0  0  0  0  0  0
  -26.6978  -35.3364   22.3764 O   0  0  0  0  0  0  0  0  0  0  0  0
  -30.1747  -16.2269   20.4201 O   0  0  0  0  0  0  0  0  0  1  0  0
  -24.8742  -39.3555   25.6817 F   0  0  0  0  0  0  0  0  0  0  0  0
  -28.4329  -36.7003   24.0412 F   0  0  0  0  0  0  0  0  0  0  0  0
  1  2  1  0  0  0  0
  1  5  2  0  0  0  0
  2  6  2  0  0  0  0
  3  8  2  0  0  0  0
  3 17  1  0  0  0  0
  4  9  1  0  0  0  0
  4 17  2  0  0  0  0
  5 19  1  0  0  0  0
  6 21  1  0  0  0  0
  7 10  2  0  0  0  0
  7 20  1  0  0  0  0
  8 24  1  0  0  0  0
  9 24  2  0  0  0  0
 10 25  1  0  0  0  0
 11 12  2  0  0  0  0
 11 26  1  0  0  0  0
 12 27  1  0  0  0  0
 13 22  1  0  0  0  0
 13 25  2  0  0  0  0
 14 23  1  0  0  0  0
 14 31  2  0  0  0  0
 15 27  2  0  0  0  0
 15 28  1  0  0  0  0
 16 23  2  0  0  0  0
 16 80  1  0  0  0  0
 17 29  1  0  0  0  0
 18 29  1  0  0  0  0
 18 30  2  0  0  0  0
 18 32  1  0  0  0  0
 19 21  2  0  0  0  0
 19 37  1  0  0  0  0
 20 22  2  0  0  0  0
 20 38  1  0  0  0  0
 21 50  1  0  0  0  0
 22 39  1  0  0  0  0
 23 66  1  0  0  0  0
 24 81  1  0  0  0  0
 25 82  1  0  0  0  0
 26 28  2  0  0  0  0
 26 81  1  0  0  0  0
 27 83  1  0  0  0  0
 28 84  1  0  0  0  0
 29 64  2  0  0  0  0
 30 65  1  0  0  0  0
 30 69  1  0  0  0  0
 31 71  1  0  0  0  0
 31 80  1  0  0  0  0
 32 70  1  0  0  0  0
 32 75  2  0  0  0  0
 33 51  1  0  0  0  0
 33 72  1  0  0  0  0
 33 76  2  0  0  0  0
 34 61  1  0  0  0  0
 34 67  1  0  0  0  0
 34 77  2  0  0  0  0
 35 62  1  0  0  0  0
 35 73  1  0  0  0  0
 35 78  2  0  0  0  0
 36 68  1  0  0  0  0
 36 71  1  0  0  0  0
 36 79  2  0  0  0  0
 37 40  1  0  0  0  0
 38 51  1  0  0  0  0
 39 67  1  0  0  0  0
 40 42  1  0  0  0  0
 41 43  1  0  0  0  0
 41 46  1  0  0  0  0
 42 50  1  0  0  0  0
 43 52  1  0  0  0  0
 44 47  1  0  0  0  0
 44 53  1  0  0  0  0
 45 48  1  0  0  0  0
 45 53  1  0  0  0  0
 46 68  1  0  0  0  0
 47 66  1  0  0  0  0
 48 66  1  0  0  0  0
 49 52  1  0  0  0  0
 49 68  1  0  0  0  0
 50 72  1  0  0  0  0
 51 67  1  0  0  0  0
 52 65  1  0  0  0  0
 53 54  1  0  0  0  0
 53 60  1  0  0  0  0
 55 62  1  0  0  0  0
 56 63  1  0  0  0  0
 57 63  1  0  0  0  0
 58 63  1  0  0  0  0
 59 74  1  0  0  0  0
 60 82  1  0  0  0  0
 61 63  1  0  0  0  0
 61 73  1  0  0  0  0
 62 74  1  0  0  0  0
 64 65  1  0  0  0  0
M  CHG  1  74   1
M  ISO  4  36 100  60 101  71 100  82 101
M  END
> <Batch ID>
0147

> <Smiles>
CNC(C)C(=O)NC(C(=O)N1Cc2cc([101O:1][101CH2:1]C3(C)CCN(c4coc([100NH:0][100C:0](=O)N5CCCC(n6nc(-c7ccc(Oc8ccc(F)cc8F)cc7)c(C(N)=O)c6N)C5)c4)CC3)ccc2CC1C(=O)NC1CCCc2ccccc21)C(C)(C)C

> <Shape>
0.259

> <Color>
0.059

> <Negative vol penalty>
0.000

$$$$

  -OEChem-04052303133D

 86 94  0     1  0  0  0  0  0999 V2000
  -33.5482  -36.4394   26.4892 C   0  0  0  0  0  0  0  0  0  0  0  0
  -33.4979  -35.0996   26.1179 C   0  0  0  0  0  0  0  0  0  0  0  0
  -23.1421   -9.7391   19.9592 C   0  0  0  0  0  0  0  0  0  0  0  0
  -23.8388   -9.8560   22.2696 C   0  0  0  0  0  0  0  0  0  0  0  0
  -32.4925  -37.0036   27.2041 C   0  0  0  0  0  0  0  0  0  0  0  0
  -32.3922  -34.3229   26.4623 C   0  0  0  0  0  0  0  0  0  0  0  0
  -29.9104  -29.7895   23.1766 C   0  0  0  0  0  0  0  0  0  0  0  0
  -22.4168   -8.5804   20.2365 C   0  0  0  0  0  0  0  0  0  0  0  0
  -23.1133   -8.6973   22.5470 C   0  0  0  0  0  0  0  0  0  0  0  0
  -30.0391  -28.4030   23.2443 C   0  0  0  0  0  0  0  0  0  0  0  0
  -19.8879   -7.8515   23.0962 C   0  0  0  0  0  0  0  0  0  0  0  0
  -19.1003   -7.8417   24.2473 C   0  0  0  0  0  0  0  0  0  0  0  0
  -31.6435  -17.6849   21.6392 C   0  0  0  0  0  0  0  0  0  0  0  0
  -31.6866  -18.9713   22.2501 C   0  0  0  0  0  0  0  0  0  0  0  0
  -28.0337  -28.2880   24.5800 C   0  0  0  0  0  0  0  0  0  0  0  0
  -20.3626   -5.9643   25.0951 C   0  0  0  0  0  0  0  0  0  0  0  0
  -23.8532  -10.3769   20.9757 C   0  0  0  0  0  0  0  0  0  0  0  0
  -24.1436  -12.9022   20.7613 C   0  0  0  0  0  0  0  0  0  0  0  0
  -31.3690  -36.2359   27.5490 C   0  0  0  0  0  0  0  0  0  0  0  0
  -28.8467  -30.4379   23.8204 C   0  0  0  0  0  0  0  0  0  0  0  0
  -31.3211  -34.8770   27.1836 C   0  0  0  0  0  0  0  0  0  0  0  0
  -27.8923  -29.6827   24.5169 C   0  0  0  0  0  0  0  0  0  0  0  0
  -22.4024   -8.0595   21.5303 C   0  0  0  0  0  0  0  0  0  0  0  0
  -29.1023  -27.6522   23.9484 C   0  0  0  0  0  0  0  0  0  0  0  0
  -20.9129   -6.9176   22.9444 C   0  0  0  0  0  0  0  0  0  0  0  0
  -19.3377   -6.8982   25.2468 C   0  0  0  0  0  0  0  0  0  0  0  0
  -21.1502   -5.9740   23.9439 C   0  0  0  0  0  0  0  0  0  0  0  0
  -24.6031  -11.5735   20.6898 C   0  0  0  0  0  0  0  0  0  0  0  0
  -25.2288  -13.6610   20.3966 C   0  0  0  0  0  0  0  0  0  0  0  0
  -30.4401  -17.0500   21.8543 C   0  0  0  0  0  0  0  0  0  0  0  0
  -30.5143  -19.2708   22.9088 C   0  0  0  0  0  0  0  0  0  0  0  0
  -22.8513  -13.4056   21.1250 C   0  0  0  0  0  0  0  0  0  0  0  0
  -28.6098  -32.5905   26.1472 C   0  0  0  0  0  0  0  0  0  0  0  0
  -25.4611  -32.5087   25.3720 C   0  0  0  0  0  0  0  0  0  0  0  0
  -22.8606  -30.7809   23.9938 C   0  0  0  0  0  0  0  0  0  0  0  0
  -30.6644  -14.8364   20.6728 C   0  0  0  0  0  0  0  0  0  0  0  0
  -30.2736  -36.8775   28.3634 C   0  0  0  0  0  0  0  0  0  0  0  0
  -28.7071  -31.9318   23.7156 C   0  0  0  0  0  0  0  0  0  0  0  0
  -26.7206  -30.3287   25.2084 C   0  0  0  0  0  0  0  0  0  0  0  0
  -28.9701  -36.0830   28.3641 C   0  0  0  0  0  0  0  0  0  0  0  0
  -29.6674  -12.3043   18.3767 C   0  0  0  0  0  0  0  0  0  0  0  0
  -29.2460  -34.6049   28.6210 C   0  0  0  0  0  0  0  0  0  0  0  0
  -28.2232  -11.9978   18.7797 C   0  0  0  0  0  0  0  0  0  0  0  0
  -30.5442  -12.6021   19.5917 C   0  0  0  0  0  0  0  0  0  0  0  0
  -28.5851  -13.3383   20.8913 C   0  0  0  0  0  0  0  0  0  0  0  0
  -30.1276  -34.0083   27.5172 C   0  0  1  0  0  0  0  0  0  0  0  0
  -27.8706  -32.5342   24.8402 C   0  0  1  0  0  0  0  0  0  0  0  0
  -27.6487  -13.0957   19.6963 C   0  0  2  0  0  0  0  0  0  0  0  0
  -20.3991  -30.9577   23.5388 C   0  0  0  0  0  0  0  0  0  0  0  0
  -24.8795  -31.9507   28.3149 C   0  0  0  0  0  0  0  0  0  0  0  0
  -22.5836  -31.2074   27.6483 C   0  0  0  0  0  0  0  0  0  0  0  0
  -23.3030  -33.5584   27.2266 C   0  0  0  0  0  0  0  0  0  0  0  0
  -30.2109  -22.2157   25.9538 C   0  0  0  0  0  0  0  0  0  0  0  0
  -31.6741  -23.7807   24.7041 C   0  0  0  0  0  0  0  0  0  0  0  0
  -29.9262  -23.6287   21.4323 C   0  0  0  0  0  0  0  0  0  0  0  0
  -27.7442  -24.4541   22.2913 C   0  0  0  0  0  0  0  0  0  0  0  0
  -23.2674  -30.5629   21.0705 C   0  0  0  0  0  0  0  0  0  0  0  0
  -29.2591  -23.3180   23.9169 C   0  0  0  0  0  0  0  0  0  0  0  0
  -31.1644  -21.5345   23.7326 C   0  0  0  0  0  0  0  0  0  0  0  0
  -29.8482  -25.6459   22.9120 C   0  0  0  0  0  0  0  0  0  1  0  0
  -24.2709  -31.6946   25.8189 C   0  0  1  0  0  0  0  0  0  0  0  0
  -21.7981  -31.1911   22.9902 C   0  0  2  0  0  0  0  0  0  0  0  0
  -23.7823  -32.0905   27.2408 C   0  0  0  0  0  0  0  0  0  0  0  0
  -30.5712  -22.7243   24.5313 C   0  0  0  0  0  0  0  0  0  0  0  0
  -29.2389  -24.2463   22.6566 C   0  0  0  0  0  0  0  0  0  0  0  0
  -25.8807  -11.4895   20.3094 N   0  0  0  0  0  0  0  0  0  0  0  0
  -26.2332  -12.7751   20.1385 N   0  0  0  0  0  0  0  0  0  0  0  0
  -26.6313  -31.7928   25.0823 N   0  0  0  0  0  0  0  0  0  0  0  0
  -29.9394  -13.6546   20.4111 N   0  0  0  0  0  0  0  0  0  0  0  0
  -25.4123  -14.9928   20.2747 N   0  0  0  0  0  0  0  0  0  0  0  0
  -21.8504  -12.4880   21.4724 N   0  0  0  0  0  0  0  0  0  0  0  0
  -29.9751  -15.7788   21.4352 N   0  0  0  0  0  0  0  0  0  0  0  0
  -30.2339  -20.4368   23.6018 N   0  0  0  0  0  0  0  0  0  0  0  0
  -29.3431  -33.7475   26.3294 N   0  0  0  0  0  0  0  0  0  0  0  0
  -23.2604  -31.8430   24.7770 N   0  0  0  0  0  0  0  0  0  0  0  0
  -21.9456  -30.4083   21.7306 N   0  3  0  0  0  0  0  0  0  0  0  0
  -22.5870  -14.6318   21.1256 O   0  0  0  0  0  0  0  0  0  0  0  0
  -28.5203  -31.6543   26.9328 O   0  0  0  0  0  0  0  0  0  0  0  0
  -25.3542  -33.7339   25.2765 O   0  0  0  0  0  0  0  0  0  0  0  0
  -23.2900  -29.6324   24.0773 O   0  0  0  0  0  0  0  0  0  0  0  0
  -31.8019  -15.0116   20.2286 O   0  0  0  0  0  0  0  0  0  0  0  0
  -21.6945   -6.9290   21.8013 O   0  0  0  0  0  0  0  0  0  0  0  0
  -29.2268  -26.2891   24.0170 O   0  0  0  0  0  0  0  0  0  1  0  0
  -18.5822   -6.8899   26.3529 F   0  0  0  0  0  0  0  0  0  0  0  0
  -22.1342   -5.0751   23.8044 F   0  0  0  0  0  0  0  0  0  0  0  0
  -29.3685  -18.0038   22.7893 S   0  0  0  0  0  0  0  0  0  0  0  0
  1  2  1  0  0  0  0
  1  5  2  0  0  0  0
  2  6  2  0  0  0  0
  3  8  2  0  0  0  0
  3 17  1  0  0  0  0
  4  9  1  0  0  0  0
  4 17  2  0  0  0  0
  5 19  1  0  0  0  0
  6 21  1  0  0  0  0
  7 10  2  0  0  0  0
  7 20  1  0  0  0  0
  8 23  1  0  0  0  0
  9 23  2  0  0  0  0
 10 24  1  0  0  0  0
 11 12  2  0  0  0  0
 11 25  1  0  0  0  0
 12 26  1  0  0  0  0
 13 14  1  0  0  0  0
 13 30  2  0  0  0  0
 14 31  2  0  0  0  0
 15 22  1  0  0  0  0
 15 24  2  0  0  0  0
 16 26  2  0  0  0  0
 16 27  1  0  0  0  0
 17 28  1  0  0  0  0
 18 28  1  0  0  0  0
 18 29  2  0  0  0  0
 18 32  1  0  0  0  0
 19 21  2  0  0  0  0
 19 37  1  0  0  0  0
 20 22  2  0  0  0  0
 20 38  1  0  0  0  0
 21 46  1  0  0  0  0
 22 39  1  0  0  0  0
 23 82  1  0  0  0  0
 24 83  1  0  0  0  0
 25 27  2  0  0  0  0
 25 82  1  0  0  0  0
 26 84  1  0  0  0  0
 27 85  1  0  0  0  0
 28 66  2  0  0  0  0
 29 67  1  0  0  0  0
 29 70  1  0  0  0  0
 30 72  1  0  0  0  0
 30 86  1  0  0  0  0
 31 73  1  0  0  0  0
 31 86  1  0  0  0  0
 32 71  1  0  0  0  0
 32 77  2  0  0  0  0
 33 47  1  0  0  0  0
 33 74  1  0  0  0  0
 33 78  2  0  0  0  0
 34 61  1  0  0  0  0
 34 68  1  0  0  0  0
 34 79  2  0  0  0  0
 35 62  1  0  0  0  0
 35 75  1  0  0  0  0
 35 80  2  0  0  0  0
 36 69  1  0  0  0  0
 36 72  1  0  0  0  0
 36 81  2  0  0  0  0
 37 40  1  0  0  0  0
 38 47  1  0  0  0  0
 39 68  1  0  0  0  0
 40 42  1  0  0  0  0
 41 43  1  0  0  0  0
 41 44  1  0  0  0  0
 42 46  1  0  0  0  0
 43 48  1  0  0  0  0
 44 69  1  0  0  0  0
 45 48  1  0  0  0  0
 45 69  1  0  0  0  0
 46 74  1  0  0  0  0
 47 68  1  0  0  0  0
 48 67  1  0  0  0  0
 49 62  1  0  0  0  0
 50 63  1  0  0  0  0
 51 63  1  0  0  0  0
 52 63  1  0  0  0  0
 53 64  1  0  0  0  0
 54 64  1  0  0  0  0
 55 65  1  0  0  0  0
 56 65  1  0  0  0  0
 57 76  1  0  0  0  0
 58 64  1  0  0  0  0
 58 65  1  0  0  0  0
 59 64  1  0  0  0  0
 59 73  1  0  0  0  0
 60 65  1  0  0  0  0
 60 83  1  0  0  0  0
 61 63  1  0  0  0  0
 61 75  1  0  0  0  0
 62 76  1  0  0  0  0
 66 67  1  0  0  0  0
M  CHG  1  76   1
M  ISO  4  36 100  60 101  72 100  83 101
M  END
> <Batch ID>
0147

> <Smiles>
CNC(C)C(=O)NC(C(=O)N1Cc2cc([101O:1][101CH2:1]C(C)(C)CC(C)(C)CNc3ccc([100NH:0][100C:0](=O)N4CCCC(n5nc(-c6ccc(Oc7ccc(F)cc7F)cc6)c(C(N)=O)c5N)C4)s3)ccc2CC1C(=O)NC1CCCc2ccccc21)C(C)(C)C

> <Shape>
0.275

> <Color>
0.195

> <Negative vol penalty>
0.000

$$$$

  -OEChem-04052303133D

 86 95  0     1  0  0  0  0  0999 V2000
  -26.6555  -36.4038   20.8481 C   0  0  0  0  0  0  0  0  0  0  0  0
  -27.1743  -35.1151   20.9225 C   0  0  0  0  0  0  0  0  0  0  0  0
  -24.4622   -9.1371   21.5604 C   0  0  0  0  0  0  0  0  0  0  0  0
  -24.2926  -10.5696   23.4984 C   0  0  0  0  0  0  0  0  0  0  0  0
  -25.4702  -36.7163   21.5125 C   0  0  0  0  0  0  0  0  0  0  0  0
  -26.5086  -34.1383   21.6622 C   0  0  0  0  0  0  0  0  0  0  0  0
  -26.2019  -29.7176   19.2112 C   0  0  0  0  0  0  0  0  0  0  0  0
  -24.1460   -8.0315   22.3498 C   0  0  0  0  0  0  0  0  0  0  0  0
  -23.9763   -9.4640   24.2879 C   0  0  0  0  0  0  0  0  0  0  0  0
  -27.3436  -28.9175   19.1958 C   0  0  0  0  0  0  0  0  0  0  0  0
  -21.3716   -6.6415   23.6930 C   0  0  0  0  0  0  0  0  0  0  0  0
  -20.4361   -5.7351   23.1942 C   0  0  0  0  0  0  0  0  0  0  0  0
  -28.5822  -19.9484   19.4677 C   0  0  0  0  0  0  0  0  0  0  0  0
  -26.4188  -27.5741   20.9732 C   0  0  0  0  0  0  0  0  0  0  0  0
  -22.0903   -3.9767   23.2866 C   0  0  0  0  0  0  0  0  0  0  0  0
  -26.6214  -21.1913   19.5801 C   0  0  0  0  0  0  0  0  0  0  0  0
  -24.5356  -10.4061   22.1347 C   0  0  0  0  0  0  0  0  0  0  0  0
  -27.9684  -21.2224   19.2936 C   0  0  0  0  0  0  0  0  0  0  0  0
  -23.9659  -12.3822   20.6253 C   0  0  0  0  0  0  0  0  0  0  0  0
  -24.7846  -35.7403   22.2528 C   0  0  0  0  0  0  0  0  0  0  0  0
  -25.1631  -29.4581   20.1167 C   0  0  0  0  0  0  0  0  0  0  0  0
  -25.3137  -34.4384   22.3382 C   0  0  0  0  0  0  0  0  0  0  0  0
  -25.2639  -28.3708   20.9964 C   0  0  0  0  0  0  0  0  0  0  0  0
  -23.9030   -8.1950   23.7136 C   0  0  0  0  0  0  0  0  0  0  0  0
  -27.4535  -27.8474   20.0788 C   0  0  0  0  0  0  0  0  0  0  0  0
  -22.6666   -6.2155   23.9884 C   0  0  0  0  0  0  0  0  0  0  0  0
  -20.7954   -4.4028   22.9911 C   0  0  0  0  0  0  0  0  0  0  0  0
  -23.0259   -4.8831   23.7853 C   0  0  0  0  0  0  0  0  0  0  0  0
  -24.8628  -11.5485   21.3198 C   0  0  0  0  0  0  0  0  0  0  0  0
  -24.7679  -13.3117   20.0094 C   0  0  0  0  0  0  0  0  0  0  0  0
  -27.6808  -18.9920   19.8809 C   0  0  0  0  0  0  0  0  0  0  0  0
  -28.6914  -22.4306   18.8579 C   0  0  0  0  0  0  0  0  0  0  0  0
  -22.5357  -12.3218   20.5442 C   0  0  0  0  0  0  0  0  0  0  0  0
  -23.8175  -31.0642   22.5070 C   0  0  0  0  0  0  0  0  0  0  0  0
  -21.7593  -28.5569   22.5167 C   0  0  0  0  0  0  0  0  0  0  0  0
  -21.1781  -25.2827   21.7497 C   0  0  0  0  0  0  0  0  0  0  0  0
  -29.0398  -16.8820   20.0981 C   0  0  0  0  0  0  0  0  0  0  0  0
  -23.5318  -36.1376   22.9928 C   0  0  0  0  0  0  0  0  0  0  0  0
  -23.9265  -30.3142   20.1025 C   0  0  0  0  0  0  0  0  0  0  0  0
  -24.1679  -28.0376   21.9743 C   0  0  0  0  0  0  0  0  0  0  0  0
  -22.6899  -34.9482   23.4475 C   0  0  0  0  0  0  0  0  0  0  0  0
  -29.7954  -13.4651   19.4416 C   0  0  0  0  0  0  0  0  0  0  0  0
  -23.5715  -33.8890   24.1014 C   0  0  0  0  0  0  0  0  0  0  0  0
  -28.5057  -12.7304   19.8146 C   0  0  0  0  0  0  0  0  0  0  0  0
  -30.0228  -24.0503   21.8171 C   0  0  0  0  0  0  0  0  0  0  0  0
  -30.0711  -14.6388   20.3798 C   0  0  0  0  0  0  0  0  0  0  0  0
  -29.1572  -22.9518   21.2093 C   0  0  0  0  0  0  0  0  0  0  0  0
  -27.6727  -14.8558   20.8990 C   0  0  0  0  0  0  0  0  0  0  0  0
  -24.6076  -33.3451   23.1103 C   0  0  1  0  0  0  0  0  0  0  0  0
  -23.1541  -30.2702   21.4174 C   0  0  1  0  0  0  0  0  0  0  0  0
  -27.3187  -13.7052   19.9426 C   0  0  2  0  0  0  0  0  0  0  0  0
  -29.9364  -24.4913   19.4410 C   0  0  1  0  0  0  0  0  0  0  0  0
  -29.9382  -25.2189   20.8139 C   0  0  2  0  0  0  0  0  0  0  0  0
  -31.3079  -24.1467   18.8690 C   0  0  0  0  0  0  0  0  0  0  0  0
  -31.0980  -26.1990   21.0124 C   0  0  0  0  0  0  0  0  0  0  0  0
  -19.4151  -23.5043   21.9123 C   0  0  0  0  0  0  0  0  0  0  0  0
  -22.3609  -28.2359   25.4908 C   0  0  0  0  0  0  0  0  0  0  0  0
  -21.3582  -25.9447   25.3750 C   0  0  0  0  0  0  0  0  0  0  0  0
  -19.9542  -27.9453   24.8759 C   0  0  0  0  0  0  0  0  0  0  0  0
  -21.0572  -24.9706   18.8092 C   0  0  0  0  0  0  0  0  0  0  0  0
  -28.6130  -25.9858   20.9984 C   0  0  0  0  0  0  0  0  0  1  0  0
  -21.7104  -27.2166   23.2096 C   0  0  1  0  0  0  0  0  0  0  0  0
  -20.0152  -24.6033   21.0493 C   0  0  2  0  0  0  0  0  0  0  0  0
  -21.3676  -27.3428   24.7208 C   0  0  0  0  0  0  0  0  0  0  0  0
  -26.1370  -11.9158   21.1604 N   0  0  0  0  0  0  0  0  0  0  0  0
  -26.0466  -12.9906   20.3586 N   0  0  0  0  0  0  0  0  0  0  0  0
  -29.2377  -23.2229   19.7645 N   0  0  0  0  0  0  0  0  0  0  0  0
  -22.9815  -28.9081   21.9262 N   0  0  0  0  0  0  0  0  0  0  0  0
  -28.9047  -15.5217   20.4479 N   0  0  0  0  0  0  0  0  0  0  0  0
  -24.4970  -14.3642   19.2086 N   0  0  0  0  0  0  0  0  0  0  0  0
  -21.8695  -11.3026   21.2383 N   0  0  0  0  0  0  0  0  0  0  0  0
  -27.8563  -17.6160   20.1700 N   0  0  0  0  0  0  0  0  0  0  0  0
  -23.9918  -32.4008   22.2028 N   0  0  0  0  0  0  0  0  0  0  0  0
  -20.7711  -26.3985   22.4501 N   0  0  0  0  0  0  0  0  0  0  0  0
  -28.7843  -22.7039   17.5599 N   0  3  0  0  0  0  0  0  0  0  0  0
  -20.4666  -23.9981   19.7644 N   0  3  0  0  0  0  0  0  0  0  0  0
  -21.8694  -13.1374   19.8626 O   0  0  0  0  0  0  0  0  0  0  0  0
  -24.1454  -30.5057   23.5474 O   0  0  0  0  0  0  0  0  0  0  0  0
  -20.7482  -29.2632   22.4940 O   0  0  0  0  0  0  0  0  0  0  0  0
  -22.3316  -24.8632   21.6853 O   0  0  0  0  0  0  0  0  0  0  0  0
  -30.1196  -17.3541   19.7336 O   0  0  0  0  0  0  0  0  0  0  0  0
  -23.5941   -7.1164   24.4843 O   0  0  0  0  0  0  0  0  0  0  0  0
  -28.5670  -27.0653   20.0663 O   0  0  0  0  0  0  0  0  0  1  0  0
  -19.8964   -3.5321   22.5136 F   0  0  0  0  0  0  0  0  0  0  0  0
  -24.2682   -4.4677   24.0684 F   0  0  0  0  0  0  0  0  0  0  0  0
  -26.1018  -19.6309   20.0570 S   0  0  0  0  0  0  0  0  0  0  0  0
  1  2  1  0  0  0  0
  1  5  2  0  0  0  0
  2  6  2  0  0  0  0
  3  8  2  0  0  0  0
  3 17  1  0  0  0  0
  4  9  1  0  0  0  0
  4 17  2  0  0  0  0
  5 20  1  0  0  0  0
  6 22  1  0  0  0  0
  7 10  2  0  0  0  0
  7 21  1  0  0  0  0
  8 24  1  0  0  0  0
  9 24  2  0  0  0  0
 10 25  1  0  0  0  0
 11 12  2  0  0  0  0
 11 26  1  0  0  0  0
 12 27  1  0  0  0  0
 13 18  1  0  0  0  0
 13 31  2  0  0  0  0
 14 23  1  0  0  0  0
 14 25  2  0  0  0  0
 15 27  2  0  0  0  0
 15 28  1  0  0  0  0
 16 18  2  0  0  0  0
 16 86  1  0  0  0  0
 17 29  1  0  0  0  0
 18 32  1  0  0  0  0
 19 29  1  0  0  0  0
 19 30  2  0  0  0  0
 19 33  1  0  0  0  0
 20 22  2  0  0  0  0
 20 38  1  0  0  0  0
 21 23  2  0  0  0  0
 21 39  1  0  0  0  0
 22 49  1  0  0  0  0
 23 40  1  0  0  0  0
 24 82  1  0  0  0  0
 25 83  1  0  0  0  0
 26 28  2  0  0  0  0
 26 82  1  0  0  0  0
 27 84  1  0  0  0  0
 28 85  1  0  0  0  0
 29 65  2  0  0  0  0
 30 66  1  0  0  0  0
 30 70  1  0  0  0  0
 31 72  1  0  0  0  0
 31 86  1  0  0  0  0
 32 67  1  0  0  0  0
 32 75  2  0  0  0  0
 33 71  1  0  0  0  0
 33 77  2  0  0  0  0
 34 50  1  0  0  0  0
 34 73  1  0  0  0  0
 34 78  2  0  0  0  0
 35 62  1  0  0  0  0
 35 68  1  0  0  0  0
 35 79  2  0  0  0  0
 36 63  1  0  0  0  0
 36 74  1  0  0  0  0
 36 80  2  0  0  0  0
 37 69  1  0  0  0  0
 37 72  1  0  0  0  0
 37 81  2  0  0  0  0
 38 41  1  0  0  0  0
 39 50  1  0  0  0  0
 40 68  1  0  0  0  0
 41 43  1  0  0  0  0
 42 44  1  0  0  0  0
 42 46  1  0  0  0  0
 43 49  1  0  0  0  0
 44 51  1  0  0  0  0
 45 47  1  0  0  0  0
 45 53  1  0  0  0  0
 46 69  1  0  0  0  0
 47 67  1  0  0  0  0
 48 51  1  0  0  0  0
 48 69  1  0  0  0  0
 49 73  1  0  0  0  0
 50 68  1  0  0  0  0
 51 66  1  0  0  0  0
 52 53  1  0  0  0  0
 52 54  1  0  0  0  0
 52 67  1  0  0  0  0
 53 55  1  0  0  0  0
 53 61  1  0  0  0  0
 56 63  1  0  0  0  0
 57 64  1  0  0  0  0
 58 64  1  0  0  0  0
 59 64  1  0  0  0  0
 60 76  1  0  0  0  0
 61 83  1  0  0  0  0
 62 64  1  0  0  0  0
 62 74  1  0  0  0  0
 63 76  1  0  0  0  0
 65 66  1  0  0  0  0
M  CHG  2  75   1  76   1
M  ISO  4  37 100  61 101  72 100  83 101
M  END
> <Batch ID>
0147

> <Smiles>
CNC(C)C(=O)NC(C(=O)N1Cc2cc([101O:1][101CH2:1]C3(C)CCN(C(=N)c4csc([100NH:0][100C:0](=O)N5CCCC(n6nc(-c7ccc(Oc8ccc(F)cc8F)cc7)c(C(N)=O)c6N)C5)c4)C3C)ccc2CC1C(=O)NC1CCCc2ccccc21)C(C)(C)C

> <Shape>
0.338

> <Color>
0.112

> <Negative vol penalty>
0.000

$$$$

  -OEChem-04052303133D

 85 94  0     1  0  0  0  0  0999 V2000
  -24.6134  -35.2595   14.4555 C   0  0  0  0  0  0  0  0  0  0  0  0
  -24.8176  -33.9094   14.7217 C   0  0  0  0  0  0  0  0  0  0  0  0
  -23.2705   -9.6839   20.2553 C   0  0  0  0  0  0  0  0  0  0  0  0
  -23.8707  -10.1025   22.5579 C   0  0  0  0  0  0  0  0  0  0  0  0
  -25.2953  -36.2254   15.1944 C   0  0  0  0  0  0  0  0  0  0  0  0
  -25.7047  -33.5244   15.7263 C   0  0  0  0  0  0  0  0  0  0  0  0
  -25.1839  -28.6833   19.4409 C   0  0  0  0  0  0  0  0  0  0  0  0
  -22.5817   -8.5349   20.6437 C   0  0  0  0  0  0  0  0  0  0  0  0
  -23.1818   -8.9534   22.9463 C   0  0  0  0  0  0  0  0  0  0  0  0
  -25.7497  -27.4095   19.4067 C   0  0  0  0  0  0  0  0  0  0  0  0
  -19.9737   -8.0359   23.4817 C   0  0  0  0  0  0  0  0  0  0  0  0
  -19.1426   -8.1267   24.5982 C   0  0  0  0  0  0  0  0  0  0  0  0
  -31.3434  -19.4908   21.7202 C   0  0  0  0  0  0  0  0  0  0  0  0
  -31.3754  -18.1407   21.2661 C   0  0  0  0  0  0  0  0  0  0  0  0
  -27.4863  -28.1470   20.9099 C   0  0  0  0  0  0  0  0  0  0  0  0
  -20.4447   -6.4199   25.7064 C   0  0  0  0  0  0  0  0  0  0  0  0
  -23.9150  -10.4677   21.2124 C   0  0  0  0  0  0  0  0  0  0  0  0
  -24.1125  -12.9606   20.7086 C   0  0  0  0  0  0  0  0  0  0  0  0
  -26.1840  -35.8522   16.2150 C   0  0  0  0  0  0  0  0  0  0  0  0
  -25.7722  -29.7032   20.2026 C   0  0  0  0  0  0  0  0  0  0  0  0
  -26.4002  -34.4862   16.4786 C   0  0  0  0  0  0  0  0  0  0  0  0
  -26.9245  -29.4322   20.9542 C   0  0  0  0  0  0  0  0  0  0  0  0
  -22.5373   -8.1696   21.9892 C   0  0  0  0  0  0  0  0  0  0  0  0
  -26.9027  -27.1420   20.1389 C   0  0  0  0  0  0  0  0  0  0  0  0
  -21.0403   -7.1370   23.4775 C   0  0  0  0  0  0  0  0  0  0  0  0
  -19.3781   -7.3188   25.7105 C   0  0  0  0  0  0  0  0  0  0  0  0
  -21.2758   -6.3290   24.5899 C   0  0  0  0  0  0  0  0  0  0  0  0
  -24.6272  -11.6544   20.8117 C   0  0  0  0  0  0  0  0  0  0  0  0
  -30.1353  -19.8139   22.2979 C   0  0  0  0  0  0  0  0  0  0  0  0
  -25.1800  -13.7186   20.2934 C   0  0  0  0  0  0  0  0  0  0  0  0
  -30.1905  -17.4832   21.5143 C   0  0  0  0  0  0  0  0  0  0  0  0
  -22.7878  -13.4455   20.9653 C   0  0  0  0  0  0  0  0  0  0  0  0
  -29.8109  -21.1382   22.8575 C   0  0  0  0  0  0  0  0  0  0  0  0
  -27.0575  -32.5355   19.5471 C   0  0  0  0  0  0  0  0  0  0  0  0
  -27.2011  -32.7825   22.7783 C   0  0  0  0  0  0  0  0  0  0  0  0
  -27.3106  -31.2048   25.8025 C   0  0  0  0  0  0  0  0  0  0  0  0
  -30.5492  -15.1581   20.6133 C   0  0  0  0  0  0  0  0  0  0  0  0
  -26.9340  -36.9313   16.9550 C   0  0  0  0  0  0  0  0  0  0  0  0
  -25.1345  -31.0646   20.2502 C   0  0  0  0  0  0  0  0  0  0  0  0
  -27.5834  -30.4869   21.8039 C   0  0  0  0  0  0  0  0  0  0  0  0
  -27.5738  -36.4473   18.2537 C   0  0  0  0  0  0  0  0  0  0  0  0
  -29.7451  -12.3319   18.6026 C   0  0  0  0  0  0  0  0  0  0  0  0
  -28.3054  -35.1279   18.0291 C   0  0  0  0  0  0  0  0  0  0  0  0
  -28.2995  -12.0111   18.9896 C   0  0  0  0  0  0  0  0  0  0  0  0
  -28.6250  -23.2372   20.1657 C   0  0  0  0  0  0  0  0  0  0  0  0
  -30.5609  -12.8091   19.8028 C   0  0  0  0  0  0  0  0  0  0  0  0
  -28.9602  -21.8334   20.6586 C   0  0  0  0  0  0  0  0  0  0  0  0
  -28.5245  -13.6054   20.9376 C   0  0  0  0  0  0  0  0  0  0  0  0
  -28.9064  -23.4071   22.5467 C   0  0  0  0  0  0  0  0  0  0  0  0
  -27.3357  -34.0294   17.5769 C   0  0  1  0  0  0  0  0  0  0  0  0
  -26.1090  -32.1672   20.6527 C   0  0  1  0  0  0  0  0  0  0  0  0
  -27.6462  -13.1827   19.7487 C   0  0  2  0  0  0  0  0  0  0  0  0
  -28.0387  -23.9524   21.3976 C   0  0  2  0  0  0  0  0  0  0  0  0
  -26.5637  -23.5726   21.6048 C   0  0  0  0  0  0  0  0  0  0  0  0
  -27.4630  -31.6716   28.2635 C   0  0  0  0  0  0  0  0  0  0  0  0
  -30.1724  -33.4056   22.4735 C   0  0  0  0  0  0  0  0  0  0  0  0
  -30.4527  -32.9227   24.9141 C   0  0  0  0  0  0  0  0  0  0  0  0
  -28.9836  -34.7989   24.1764 C   0  0  0  0  0  0  0  0  0  0  0  0
  -24.7022  -29.9088   26.3278 C   0  0  0  0  0  0  0  0  0  0  0  0
  -28.1599  -25.4717   21.2727 C   0  0  0  0  0  0  0  0  0  1  0  0
  -28.2150  -32.4147   23.8346 C   0  0  1  0  0  0  0  0  0  0  0  0
  -26.5316  -31.4314   27.0856 C   0  0  2  0  0  0  0  0  0  0  0  0
  -29.4448  -33.3659   23.8322 C   0  0  0  0  0  0  0  0  0  0  0  0
  -25.9211  -11.5830   20.4879 N   0  0  0  0  0  0  0  0  0  0  0  0
  -26.2283  -12.8539   20.1772 N   0  0  0  0  0  0  0  0  0  0  0  0
  -29.2676  -22.0562   22.0790 N   0  0  0  0  0  0  0  0  0  0  0  0
  -26.9256  -31.8040   21.8126 N   0  0  0  0  0  0  0  0  0  0  0  0
  -29.8828  -13.9227   20.4697 N   0  0  0  0  0  0  0  0  0  0  0  0
  -25.3148  -15.0337   20.0200 N   0  0  0  0  0  0  0  0  0  0  0  0
  -21.8115  -12.5318   21.3852 N   0  0  0  0  0  0  0  0  0  0  0  0
  -29.7935  -16.1521   21.2340 N   0  0  0  0  0  0  0  0  0  0  0  0
  -26.5837  -33.5234   18.7050 N   0  0  0  0  0  0  0  0  0  0  0  0
  -27.4906  -32.3778   25.1004 N   0  0  0  0  0  0  0  0  0  0  0  0
  -30.0686  -21.3873   24.1381 N   0  3  0  0  0  0  0  0  0  0  0  0
  -25.6824  -30.2457   27.3922 N   0  3  0  0  0  0  0  0  0  0  0  0
  -22.4750  -14.6504   20.8107 O   0  0  0  0  0  0  0  0  0  0  0  0
  -28.1398  -31.9667   19.4650 O   0  0  0  0  0  0  0  0  0  0  0  0
  -26.6677  -33.8942   22.8130 O   0  0  0  0  0  0  0  0  0  0  0  0
  -27.7217  -30.0986   25.4594 O   0  0  0  0  0  0  0  0  0  0  0  0
  -31.6954  -15.3301   20.1906 O   0  0  0  0  0  0  0  0  0  0  0  0
  -21.8651   -7.0486   22.3686 O   0  0  0  0  0  0  0  0  0  0  0  0
  -27.4574  -25.8998   20.1067 O   0  0  0  0  0  0  0  0  0  1  0  0
  -18.5807   -7.4072   26.7832 F   0  0  0  0  0  0  0  0  0  0  0  0
  -22.2997   -5.4644   24.5922 F   0  0  0  0  0  0  0  0  0  0  0  0
  -29.0462  -18.4926   22.2914 S   0  0  0  0  0  0  0  0  0  0  0  0
  1  2  1  0  0  0  0
  1  5  2  0  0  0  0
  2  6  2  0  0  0  0
  3  8  2  0  0  0  0
  3 17  1  0  0  0  0
  4  9  1  0  0  0  0
  4 17  2  0  0  0  0
  5 19  1  0  0  0  0
  6 21  1  0  0  0  0
  7 10  2  0  0  0  0
  7 20  1  0  0  0  0
  8 23  1  0  0  0  0
  9 23  2  0  0  0  0
 10 24  1  0  0  0  0
 11 12  2  0  0  0  0
 11 25  1  0  0  0  0
 12 26  1  0  0  0  0
 13 14  1  0  0  0  0
 13 29  2  0  0  0  0
 14 31  2  0  0  0  0
 15 22  1  0  0  0  0
 15 24  2  0  0  0  0
 16 26  2  0  0  0  0
 16 27  1  0  0  0  0
 17 28  1  0  0  0  0
 18 28  1  0  0  0  0
 18 30  2  0  0  0  0
 18 32  1  0  0  0  0
 19 21  2  0  0  0  0
 19 38  1  0  0  0  0
 20 22  2  0  0  0  0
 20 39  1  0  0  0  0
 21 50  1  0  0  0  0
 22 40  1  0  0  0  0
 23 81  1  0  0  0  0
 24 82  1  0  0  0  0
 25 27  2  0  0  0  0
 25 81  1  0  0  0  0
 26 83  1  0  0  0  0
 27 84  1  0  0  0  0
 28 64  2  0  0  0  0
 29 33  1  0  0  0  0
 29 85  1  0  0  0  0
 30 65  1  0  0  0  0
 30 69  1  0  0  0  0
 31 71  1  0  0  0  0
 31 85  1  0  0  0  0
 32 70  1  0  0  0  0
 32 76  2  0  0  0  0
 33 66  1  0  0  0  0
 33 74  2  0  0  0  0
 34 51  1  0  0  0  0
 34 72  1  0  0  0  0
 34 77  2  0  0  0  0
 35 61  1  0  0  0  0
 35 67  1  0  0  0  0
 35 78  2  0  0  0  0
 36 62  1  0  0  0  0
 36 73  1  0  0  0  0
 36 79  2  0  0  0  0
 37 68  1  0  0  0  0
 37 71  1  0  0  0  0
 37 80  2  0  0  0  0
 38 41  1  0  0  0  0
 39 51  1  0  0  0  0
 40 67  1  0  0  0  0
 41 43  1  0  0  0  0
 42 44  1  0  0  0  0
 42 46  1  0  0  0  0
 43 50  1  0  0  0  0
 44 52  1  0  0  0  0
 45 47  1  0  0  0  0
 45 53  1  0  0  0  0
 46 68  1  0  0  0  0
 47 66  1  0  0  0  0
 48 52  1  0  0  0  0
 48 68  1  0  0  0  0
 49 53  1  0  0  0  0
 49 66  1  0  0  0  0
 50 72  1  0  0  0  0
 51 67  1  0  0  0  0
 52 65  1  0  0  0  0
 53 54  1  0  0  0  0
 53 60  1  0  0  0  0
 55 62  1  0  0  0  0
 56 63  1  0  0  0  0
 57 63  1  0  0  0  0
 58 63  1  0  0  0  0
 59 75  1  0  0  0  0
 60 82  1  0  0  0  0
 61 63  1  0  0  0  0
 61 73  1  0  0  0  0
 62 75  1  0  0  0  0
 64 65  1  0  0  0  0
M  CHG  2  74   1  75   1
M  ISO  4  37 100  60 101  71 100  82 101
M  END
> <Batch ID>
0147

> <Smiles>
CNC(C)C(=O)NC(C(=O)N1Cc2cc([101O:1][101CH2:1]C3(C)CCN(C(=N)c4ccc([100NH:0][100C:0](=O)N5CCCC(n6nc(-c7ccc(Oc8ccc(F)cc8F)cc7)c(C(N)=O)c6N)C5)s4)C3)ccc2CC1C(=O)NC1CCCc2ccccc21)C(C)(C)C

> <Shape>
0.308

> <Color>
0.198

> <Negative vol penalty>
0.000

$$$$

  -OEChem-04052303133D

 87 95  0     1  0  0  0  0  0999 V2000
  -23.2831  -30.9457   21.2868 C   0  0  0  0  0  0  0  0  0  0  0  0
  -23.3860  -30.0485   20.2286 C   0  0  0  0  0  0  0  0  0  0  0  0
  -23.1408   -9.9325   19.8633 C   0  0  0  0  0  0  0  0  0  0  0  0
  -23.7731   -9.7803   22.1901 C   0  0  0  0  0  0  0  0  0  0  0  0
  -26.7324  -17.5572   16.5073 C   0  0  0  0  0  0  0  0  0  0  0  0
  -24.4287  -31.3483   21.9719 C   0  0  0  0  0  0  0  0  0  0  0  0
  -24.6350  -29.5543   19.8540 C   0  0  0  0  0  0  0  0  0  0  0  0
  -24.5778  -24.5593   19.0223 C   0  0  0  0  0  0  0  0  0  0  0  0
  -25.7726  -18.5026   16.1458 C   0  0  0  0  0  0  0  0  0  0  0  0
  -22.3656   -8.7808   19.9985 C   0  0  0  0  0  0  0  0  0  0  0  0
  -22.9978   -8.6286   22.3254 C   0  0  0  0  0  0  0  0  0  0  0  0
  -24.0488  -24.1219   17.8088 C   0  0  0  0  0  0  0  0  0  0  0  0
  -19.7288   -7.8583   22.7005 C   0  0  0  0  0  0  0  0  0  0  0  0
  -18.9079   -7.7598   23.8238 C   0  0  0  0  0  0  0  0  0  0  0  0
  -28.4525  -18.9144   15.4894 C   0  0  0  0  0  0  0  0  0  0  0  0
  -26.2823  -23.8685   16.9334 C   0  0  0  0  0  0  0  0  0  0  0  0
  -20.0751   -5.7558   24.5010 C   0  0  0  0  0  0  0  0  0  0  0  0
  -23.8446  -10.4322   20.9590 C   0  0  0  0  0  0  0  0  0  0  0  0
  -28.0724  -17.7632   16.1791 C   0  0  0  0  0  0  0  0  0  0  0  0
  -27.4927  -19.8598   15.1278 C   0  0  0  0  0  0  0  0  0  0  0  0
  -24.2335  -12.9527   21.0191 C   0  0  0  0  0  0  0  0  0  0  0  0
  -25.6912  -30.8513   21.6118 C   0  0  0  0  0  0  0  0  0  0  0  0
  -25.9651  -24.6652   19.1971 C   0  0  0  0  0  0  0  0  0  0  0  0
  -25.7988  -29.9516   20.5340 C   0  0  0  0  0  0  0  0  0  0  0  0
  -26.8265  -24.3051   18.1510 C   0  0  0  0  0  0  0  0  0  0  0  0
  -26.1527  -19.6538   15.4560 C   0  0  0  0  0  0  0  0  0  0  0  0
  -22.2941   -8.1289   21.2296 C   0  0  0  0  0  0  0  0  0  0  0  0
  -24.9010  -23.7792   16.7632 C   0  0  0  0  0  0  0  0  0  0  0  0
  -20.7229   -6.9055   22.4773 C   0  0  0  0  0  0  0  0  0  0  0  0
  -19.0810   -6.7085   24.7241 C   0  0  0  0  0  0  0  0  0  0  0  0
  -20.8960   -5.8543   23.3776 C   0  0  0  0  0  0  0  0  0  0  0  0
  -24.6460  -11.6215   20.8198 C   0  0  0  0  0  0  0  0  0  0  0  0
  -25.3561  -13.7018   20.7640 C   0  0  0  0  0  0  0  0  0  0  0  0
  -29.0856  -16.7639   16.5620 C   0  0  0  0  0  0  0  0  0  0  0  0
  -27.9230  -21.0523   14.4089 C   0  0  0  0  0  0  0  0  0  0  0  0
  -22.9504  -13.4661   21.4009 C   0  0  0  0  0  0  0  0  0  0  0  0
  -27.9722  -27.0507   19.8176 C   0  0  0  0  0  0  0  0  0  0  0  0
  -30.1465  -24.6518   20.0180 C   0  0  0  0  0  0  0  0  0  0  0  0
  -23.8196  -20.3565   14.8154 C   0  0  0  0  0  0  0  0  0  0  0  0
  -31.0454  -21.4763   19.1491 C   0  0  0  0  0  0  0  0  0  0  0  0
  -29.7733  -14.7946   17.5318 C   0  0  0  0  0  0  0  0  0  0  0  0
  -26.9065  -31.3520   22.3514 C   0  0  0  0  0  0  0  0  0  0  0  0
  -26.5206  -25.1132   20.5212 C   0  0  0  0  0  0  0  0  0  0  0  0
  -28.3238  -24.3817   18.2945 C   0  0  0  0  0  0  0  0  0  0  0  0
  -28.1493  -30.4929   22.1330 C   0  0  0  0  0  0  0  0  0  0  0  0
  -30.1744  -12.3253   20.1292 C   0  0  0  0  0  0  0  0  0  0  0  0
  -28.3250  -30.1751   20.6515 C   0  0  0  0  0  0  0  0  0  0  0  0
  -28.7343  -12.0071   20.5309 C   0  0  0  0  0  0  0  0  0  0  0  0
  -30.2877  -12.6176   18.6361 C   0  0  0  0  0  0  0  0  0  0  0  0
  -27.9316  -13.3871   18.5635 C   0  0  0  0  0  0  0  0  0  0  0  0
  -27.1330  -29.3742   20.1139 C   0  0  1  0  0  0  0  0  0  0  0  0
  -27.9358  -25.6732   20.4168 C   0  0  1  0  0  0  0  0  0  0  0  0
  -27.7735  -13.1174   20.0696 C   0  0  1  0  0  0  0  0  0  0  0  0
  -29.3093  -21.5575   14.6772 C   0  0  0  0  0  0  0  0  0  0  0  0
  -21.6236  -21.3328   14.1274 C   0  0  0  0  0  0  0  0  0  0  0  0
  -32.8961  -19.8054   19.4330 C   0  0  0  0  0  0  0  0  0  0  0  0
  -31.8360  -26.1823   17.9899 C   0  0  0  0  0  0  0  0  0  0  0  0
  -33.1484  -24.0852   17.6051 C   0  0  0  0  0  0  0  0  0  0  0  0
  -33.1342  -25.1492   19.8613 C   0  0  0  0  0  0  0  0  0  0  0  0
  -29.2524  -19.5457   20.4972 C   0  0  0  0  0  0  0  0  0  0  0  0
  -23.1389  -22.6627   15.6211 C   0  0  0  0  0  0  0  0  0  1  0  0
  -31.0624  -23.9547   19.0411 C   0  0  1  0  0  0  0  0  0  0  0  0
  -23.0775  -21.6553   14.4704 C   0  0  1  0  0  0  0  0  0  0  0  0
  -31.5704  -20.3162   19.9756 C   0  0  2  0  0  0  0  0  0  0  0  0
  -32.2670  -24.8431   18.6207 C   0  0  0  0  0  0  0  0  0  0  0  0
  -25.9303  -11.5273   20.4652 N   0  0  0  0  0  0  0  0  0  0  0  0
  -28.7705  -15.6871   17.2043 N   0  0  0  0  0  0  0  0  0  0  0  0
  -26.3345  -12.8087   20.4396 N   0  0  0  0  0  0  0  0  0  0  0  0
  -28.8183  -24.8316   19.6062 N   0  0  0  0  0  0  0  0  0  0  0  0
  -29.3370  -13.6532   18.2291 N   0  0  0  0  0  0  0  0  0  0  0  0
  -25.5919  -15.0308   20.7876 N   0  0  0  0  0  0  0  0  0  0  0  0
  -21.9068  -12.5577   21.6243 N   0  0  0  0  0  0  0  0  0  0  0  0
  -25.1611  -20.5985   15.0989 N   0  0  0  0  0  0  0  0  0  0  0  0
  -27.2336  -27.9873   20.5152 N   0  0  0  0  0  0  0  0  0  0  0  0
  -31.4406  -22.6919   19.6662 N   0  0  0  0  0  0  0  0  0  0  0  0
  -30.5940  -19.1904   19.9672 N   0  3  0  0  0  0  0  0  0  0  0  0
  -27.2316  -21.6759   13.6036 O   0  0  0  0  0  0  0  0  0  0  0  0
  -22.7314  -14.6951   21.5239 O   0  0  0  0  0  0  0  0  0  0  0  0
  -28.6234  -27.2493   18.7986 O   0  0  0  0  0  0  0  0  0  0  0  0
  -30.5913  -25.0168   21.1091 O   0  0  0  0  0  0  0  0  0  0  0  0
  -23.2499  -19.2691   14.8155 O   0  0  0  0  0  0  0  0  0  0  0  0
  -30.3568  -21.3196   18.1432 O   0  0  0  0  0  0  0  0  0  0  0  0
  -30.9610  -14.9588   17.2429 O   0  0  0  0  0  0  0  0  0  0  0  0
  -21.5376   -7.0052   21.3620 O   0  0  0  0  0  0  0  0  0  0  0  0
  -24.3873  -23.3526   15.5774 O   0  0  0  0  0  0  0  0  0  1  0  0
  -18.2936   -6.6149   25.8037 F   0  0  0  0  0  0  0  0  0  0  0  0
  -21.8501   -4.9366   23.1692 F   0  0  0  0  0  0  0  0  0  0  0  0
  1  2  1  0  0  0  0
  1  6  2  0  0  0  0
  2  7  2  0  0  0  0
  3 10  2  0  0  0  0
  3 18  1  0  0  0  0
  4 11  1  0  0  0  0
  4 18  2  0  0  0  0
  5  9  2  0  0  0  0
  5 19  1  0  0  0  0
  6 22  1  0  0  0  0
  7 24  1  0  0  0  0
  8 12  2  0  0  0  0
  8 23  1  0  0  0  0
  9 26  1  0  0  0  0
 10 27  1  0  0  0  0
 11 27  2  0  0  0  0
 12 28  1  0  0  0  0
 13 14  2  0  0  0  0
 13 29  1  0  0  0  0
 14 30  1  0  0  0  0
 15 19  2  0  0  0  0
 15 20  1  0  0  0  0
 16 25  1  0  0  0  0
 16 28  2  0  0  0  0
 17 30  2  0  0  0  0
 17 31  1  0  0  0  0
 18 32  1  0  0  0  0
 19 34  1  0  0  0  0
 20 26  2  0  0  0  0
 20 35  1  0  0  0  0
 21 32  1  0  0  0  0
 21 33  2  0  0  0  0
 21 36  1  0  0  0  0
 22 24  2  0  0  0  0
 22 42  1  0  0  0  0
 23 25  2  0  0  0  0
 23 43  1  0  0  0  0
 24 51  1  0  0  0  0
 25 44  1  0  0  0  0
 26 73  1  0  0  0  0
 27 84  1  0  0  0  0
 28 85  1  0  0  0  0
 29 31  2  0  0  0  0
 29 84  1  0  0  0  0
 30 86  1  0  0  0  0
 31 87  1  0  0  0  0
 32 66  2  0  0  0  0
 33 68  1  0  0  0  0
 33 71  1  0  0  0  0
 34 67  2  0  0  0  0
 35 54  1  0  0  0  0
 35 77  2  0  0  0  0
 36 72  1  0  0  0  0
 36 78  2  0  0  0  0
 37 52  1  0  0  0  0
 37 74  1  0  0  0  0
 37 79  2  0  0  0  0
 38 62  1  0  0  0  0
 38 69  1  0  0  0  0
 38 80  2  0  0  0  0
 39 63  1  0  0  0  0
 39 73  1  0  0  0  0
 39 81  2  0  0  0  0
 40 64  1  0  0  0  0
 40 75  1  0  0  0  0
 40 82  2  0  0  0  0
 41 67  1  0  0  0  0
 41 70  1  0  0  0  0
 41 83  2  0  0  0  0
 42 45  1  0  0  0  0
 43 52  1  0  0  0  0
 44 69  1  0  0  0  0
 45 47  1  0  0  0  0
 46 48  1  0  0  0  0
 46 49  1  0  0  0  0
 47 51  1  0  0  0  0
 48 53  1  0  0  0  0
 49 70  1  0  0  0  0
 50 53  1  0  0  0  0
 50 70  1  0  0  0  0
 51 74  1  0  0  0  0
 52 69  1  0  0  0  0
 53 68  1  0  0  0  0
 55 63  1  0  0  0  0
 56 64  1  0  0  0  0
 57 65  1  0  0  0  0
 58 65  1  0  0  0  0
 59 65  1  0  0  0  0
 60 76  1  0  0  0  0
 61 63  1  0  0  0  0
 61 85  1  0  0  0  0
 62 65  1  0  0  0  0
 62 75  1  0  0  0  0
 64 76  1  0  0  0  0
 66 68  1  0  0  0  0
M  CHG  1  76   1
M  ISO  4  41 100  61 101  67 100  85 101
M  END
> <Batch ID>
0147

> <Smiles>
CNC(C)C(=O)NC(C(=O)N1Cc2cc([101O:1][101CH2:1]C(C)C(=O)Nc3ccc(C=[100N:0][100C:0](=O)N4CCCC(n5nc(-c6ccc(Oc7ccc(F)cc7F)cc6)c(C(N)=O)c5N)C4)cc3C(C)=O)ccc2CC1C(=O)NC1CCCc2ccccc21)C(C)(C)C

> <Shape>
0.258

> <Color>
0.175

> <Negative vol penalty>
0.000

$$$$

  -OEChem-04052303133D

 81 89  0     1  0  0  0  0  0999 V2000
  -29.9494  -36.2665   21.0766 C   0  0  0  0  0  0  0  0  0  0  0  0
  -29.9806  -34.8757   21.0643 C   0  0  0  0  0  0  0  0  0  0  0  0
  -23.8502   -9.3563   22.4499 C   0  0  0  0  0  0  0  0  0  0  0  0
  -23.2281   -9.9233   20.1852 C   0  0  0  0  0  0  0  0  0  0  0  0
  -28.9735  -36.9343   21.8152 C   0  0  0  0  0  0  0  0  0  0  0  0
  -29.0364  -34.1519   21.7917 C   0  0  0  0  0  0  0  0  0  0  0  0
  -27.1061  -30.2810   19.1582 C   0  0  0  0  0  0  0  0  0  0  0  0
  -23.0349   -8.2261   22.3909 C   0  0  0  0  0  0  0  0  0  0  0  0
  -22.4128   -8.7931   20.1262 C   0  0  0  0  0  0  0  0  0  0  0  0
  -27.8896  -29.1332   19.0467 C   0  0  0  0  0  0  0  0  0  0  0  0
  -23.1887   -5.1088   21.0901 C   0  0  0  0  0  0  0  0  0  0  0  0
  -23.7074   -3.9092   21.5773 C   0  0  0  0  0  0  0  0  0  0  0  0
  -26.6069  -28.0941   20.8057 C   0  0  0  0  0  0  0  0  0  0  0  0
  -27.2592  -20.2112   19.5581 C   0  0  0  0  0  0  0  0  0  0  0  0
  -21.9184   -3.7935   23.1970 C   0  0  0  0  0  0  0  0  0  0  0  0
  -28.1429  -18.4007   18.3990 C   0  0  0  0  0  0  0  0  0  0  0  0
  -23.9468  -10.2050   21.3471 C   0  0  0  0  0  0  0  0  0  0  0  0
  -26.1487  -11.4597   21.0555 C   0  0  0  0  0  0  0  0  0  0  0  0
  -28.0110  -36.2182   22.5442 C   0  0  0  0  0  0  0  0  0  0  0  0
  -26.0724  -30.3481   20.1034 C   0  0  0  0  0  0  0  0  0  0  0  0
  -28.0475  -34.8107   22.5418 C   0  0  0  0  0  0  0  0  0  0  0  0
  -25.8101  -29.2429   20.9255 C   0  0  0  0  0  0  0  0  0  0  0  0
  -27.2170  -18.8044   19.3356 C   0  0  0  0  0  0  0  0  0  0  0  0
  -22.3162   -7.9445   21.2290 C   0  0  0  0  0  0  0  0  0  0  0  0
  -27.6420  -28.0406   19.8725 C   0  0  0  0  0  0  0  0  0  0  0  0
  -22.0349   -5.6509   21.6564 C   0  0  0  0  0  0  0  0  0  0  0  0
  -23.0723   -3.2515   22.6308 C   0  0  0  0  0  0  0  0  0  0  0  0
  -21.3998   -4.9932   22.7098 C   0  0  0  0  0  0  0  0  0  0  0  0
  -24.7884  -11.3729   21.4076 C   0  0  0  0  0  0  0  0  0  0  0  0
  -26.4814  -12.7712   21.2916 C   0  0  0  0  0  0  0  0  0  0  0  0
  -28.2161  -20.8290   18.7831 C   0  0  0  0  0  0  0  0  0  0  0  0
  -27.0324  -10.4456   20.5593 C   0  0  0  0  0  0  0  0  0  0  0  0
  -25.4601  -32.1745   22.6319 C   0  0  0  0  0  0  0  0  0  0  0  0
  -28.4087  -24.5405   19.3026 C   0  0  0  0  0  0  0  0  0  0  0  0
  -22.6491  -30.5555   22.6324 C   0  0  0  0  0  0  0  0  0  0  0  0
  -20.9223  -27.7485   21.7460 C   0  0  0  0  0  0  0  0  0  0  0  0
  -25.3709  -18.2164   20.9458 C   0  0  0  0  0  0  0  0  0  0  0  0
  -27.0045  -36.9842   23.3657 C   0  0  0  0  0  0  0  0  0  0  0  0
  -25.2192  -31.5836   20.1928 C   0  0  0  0  0  0  0  0  0  0  0  0
  -24.6992  -29.2569   21.9424 C   0  0  0  0  0  0  0  0  0  0  0  0
  -25.8112  -36.1412   23.8080 C   0  0  0  0  0  0  0  0  0  0  0  0
  -23.9332  -16.4384   23.6750 C   0  0  0  0  0  0  0  0  0  0  0  0
  -26.2813  -34.8016   24.3656 C   0  0  0  0  0  0  0  0  0  0  0  0
  -24.1394  -14.9692   23.2994 C   0  0  0  0  0  0  0  0  0  0  0  0
  -23.6204  -17.2980   22.4515 C   0  0  0  0  0  0  0  0  0  0  0  0
  -24.7883  -15.7113   20.9724 C   0  0  0  0  0  0  0  0  0  0  0  0
  -27.0254  -33.9902   23.2981 C   0  0  1  0  0  0  0  0  0  0  0  0
  -24.5239  -31.7332   21.5425 C   0  0  1  0  0  0  0  0  0  0  0  0
  -25.1699  -14.8172   22.1634 C   0  0  2  0  0  0  0  0  0  0  0  0
  -18.6501  -26.6972   21.9175 C   0  0  0  0  0  0  0  0  0  0  0  0
  -23.1934  -29.8611   25.5532 C   0  0  0  0  0  0  0  0  0  0  0  0
  -21.4415  -28.0805   25.3839 C   0  0  0  0  0  0  0  0  0  0  0  0
  -20.8213  -30.4737   25.0512 C   0  0  0  0  0  0  0  0  0  0  0  0
  -20.6042  -27.6804   18.8044 C   0  0  0  0  0  0  0  0  0  0  0  0
  -27.8363  -23.1652   19.5728 C   0  0  0  0  0  0  0  0  0  0  0  0
  -27.7829  -25.6764   20.0884 C   0  0  0  0  0  0  0  0  0  1  0  0
  -22.1513  -29.2780   23.2641 C   0  0  1  0  0  0  0  0  0  0  0  0
  -19.5723  -27.5658   21.0762 C   0  0  2  0  0  0  0  0  0  0  0  0
  -21.9241  -29.4235   24.7954 C   0  0  0  0  0  0  0  0  0  0  0  0
  -24.2911  -12.5366   21.8350 N   0  0  0  0  0  0  0  0  0  0  0  0
  -25.3446  -13.3669   21.7531 N   0  0  0  0  0  0  0  0  0  0  0  0
  -23.8968  -30.4901   21.9961 N   0  0  0  0  0  0  0  0  0  0  0  0
  -24.6410  -17.1055   21.4190 N   0  0  0  0  0  0  0  0  0  0  0  0
  -27.6326  -13.4614   21.1474 N   0  0  0  0  0  0  0  0  0  0  0  0
  -26.5274   -9.1513   20.3747 N   0  0  0  0  0  0  0  0  0  0  0  0
  -26.3366  -17.9066   19.9886 N   0  0  0  0  0  0  0  0  0  0  0  0
  -28.5112  -22.1846   18.7616 N   0  0  0  0  0  0  0  0  0  0  0  0
  -26.0864  -33.3804   22.3811 N   0  0  0  0  0  0  0  0  0  0  0  0
  -20.9593  -28.8909   22.5174 N   0  0  0  0  0  0  0  0  0  0  0  0
  -19.7387  -26.9209   19.7430 N   0  3  0  0  0  0  0  0  0  0  0  0
  -28.2385  -10.6763   20.3032 O   0  0  0  0  0  0  0  0  0  0  0  0
  -25.6024  -31.4735   23.6269 O   0  0  0  0  0  0  0  0  0  0  0  0
  -29.3210  -24.7356   18.5005 O   0  0  0  0  0  0  0  0  0  0  0  0
  -21.9533  -31.5721   22.6947 O   0  0  0  0  0  0  0  0  0  0  0  0
  -21.8499  -26.9551   21.6026 O   0  0  0  0  0  0  0  0  0  0  0  0
  -25.1739  -19.3546   21.3791 O   0  0  0  0  0  0  0  0  0  0  0  0
  -21.5207   -6.8416   21.1710 O   0  0  0  0  0  0  0  0  0  0  0  0
  -28.4056  -26.9192   19.7661 O   0  0  0  0  0  0  0  0  0  1  0  0
  -23.5696   -2.0987   23.0975 F   0  0  0  0  0  0  0  0  0  0  0  0
  -20.2903   -5.5084   23.2570 F   0  0  0  0  0  0  0  0  0  0  0  0
  -29.0580  -19.7148   17.7923 S   0  0  0  0  0  0  0  0  0  0  0  0
  1  2  1  0  0  0  0
  1  5  2  0  0  0  0
  2  6  2  0  0  0  0
  3  8  2  0  0  0  0
  3 17  1  0  0  0  0
  4  9  1  0  0  0  0
  4 17  2  0  0  0  0
  5 19  1  0  0  0  0
  6 21  1  0  0  0  0
  7 10  2  0  0  0  0
  7 20  1  0  0  0  0
  8 24  1  0  0  0  0
  9 24  2  0  0  0  0
 10 25  1  0  0  0  0
 11 12  2  0  0  0  0
 11 26  1  0  0  0  0
 12 27  1  0  0  0  0
 13 22  1  0  0  0  0
 13 25  2  0  0  0  0
 14 23  1  0  0  0  0
 14 31  2  0  0  0  0
 15 27  2  0  0  0  0
 15 28  1  0  0  0  0
 16 23  2  0  0  0  0
 16 81  1  0  0  0  0
 17 29  1  0  0  0  0
 18 29  1  0  0  0  0
 18 30  2  0  0  0  0
 18 32  1  0  0  0  0
 19 21  2  0  0  0  0
 19 38  1  0  0  0  0
 20 22  2  0  0  0  0
 20 39  1  0  0  0  0
 21 47  1  0  0  0  0
 22 40  1  0  0  0  0
 23 66  1  0  0  0  0
 24 77  1  0  0  0  0
 25 78  1  0  0  0  0
 26 28  2  0  0  0  0
 26 77  1  0  0  0  0
 27 79  1  0  0  0  0
 28 80  1  0  0  0  0
 29 60  2  0  0  0  0
 30 61  1  0  0  0  0
 30 64  1  0  0  0  0
 31 67  1  0  0  0  0
 31 81  1  0  0  0  0
 32 65  1  0  0  0  0
 32 71  2  0  0  0  0
 33 48  1  0  0  0  0
 33 68  1  0  0  0  0
 33 72  2  0  0  0  0
 34 55  1  0  0  0  0
 34 56  1  0  0  0  0
 34 73  2  0  0  0  0
 35 57  1  0  0  0  0
 35 62  1  0  0  0  0
 35 74  2  0  0  0  0
 36 58  1  0  0  0  0
 36 69  1  0  0  0  0
 36 75  2  0  0  0  0
 37 63  1  0  0  0  0
 37 66  1  0  0  0  0
 37 76  2  0  0  0  0
 38 41  1  0  0  0  0
 39 48  1  0  0  0  0
 40 62  1  0  0  0  0
 41 43  1  0  0  0  0
 42 44  1  0  0  0  0
 42 45  1  0  0  0  0
 43 47  1  0  0  0  0
 44 49  1  0  0  0  0
 45 63  1  0  0  0  0
 46 49  1  0  0  0  0
 46 63  1  0  0  0  0
 47 68  1  0  0  0  0
 48 62  1  0  0  0  0
 49 61  1  0  0  0  0
 50 58  1  0  0  0  0
 51 59  1  0  0  0  0
 52 59  1  0  0  0  0
 53 59  1  0  0  0  0
 54 70  1  0  0  0  0
 55 67  1  0  0  0  0
 56 78  1  0  0  0  0
 57 59  1  0  0  0  0
 57 69  1  0  0  0  0
 58 70  1  0  0  0  0
 60 61  1  0  0  0  0
M  CHG  1  70   1
M  ISO  4  37 100  56 101  66 100  78 101
M  END
> <Batch ID>
0147

> <Smiles>
CNC(C)C(=O)NC(C(=O)N1Cc2cc([101O:1][101CH2:1]C(=O)CNc3cc([100NH:0][100C:0](=O)N4CCCC(n5nc(-c6ccc(Oc7ccc(F)cc7F)cc6)c(C(N)=O)c5N)C4)cs3)ccc2CC1C(=O)NC1CCCc2ccccc21)C(C)(C)C

> <Shape>
0.293

> <Color>
0.100

> <Negative vol penalty>
0.000

$$$$

  -OEChem-04052303133D

 84 93  0     1  0  0  0  0  0999 V2000
  -18.7839  -27.9227   21.4101 C   0  0  0  0  0  0  0  0  0  0  0  0
  -19.9378  -27.1595   21.5562 C   0  0  0  0  0  0  0  0  0  0  0  0
  -32.5010  -18.4474   21.7658 C   0  0  0  0  0  0  0  0  0  0  0  0
  -23.0955   -9.8677   21.4834 C   0  0  0  0  0  0  0  0  0  0  0  0
  -23.8050  -10.8134   23.5904 C   0  0  0  0  0  0  0  0  0  0  0  0
  -18.1237  -28.4090   22.5377 C   0  0  0  0  0  0  0  0  0  0  0  0
  -20.4329  -26.8832   22.8302 C   0  0  0  0  0  0  0  0  0  0  0  0
  -21.8005  -22.0377   23.3741 C   0  0  0  0  0  0  0  0  0  0  0  0
  -31.6788  -19.5269   22.0887 C   0  0  0  0  0  0  0  0  0  0  0  0
  -31.9412  -17.2634   21.2856 C   0  0  0  0  0  0  0  0  0  0  0  0
  -22.3604   -8.8985   22.1659 C   0  0  0  0  0  0  0  0  0  0  0  0
  -23.0699   -9.8442   24.2729 C   0  0  0  0  0  0  0  0  0  0  0  0
  -23.0232  -21.6555   22.8239 C   0  0  0  0  0  0  0  0  0  0  0  0
  -22.9666   -5.9907   23.7790 C   0  0  0  0  0  0  0  0  0  0  0  0
  -23.0665   -4.6717   23.3364 C   0  0  0  0  0  0  0  0  0  0  0  0
  -24.0438  -21.8033   25.0046 C   0  0  0  0  0  0  0  0  0  0  0  0
  -20.6883   -4.6342   22.9119 C   0  0  0  0  0  0  0  0  0  0  0  0
  -23.8178  -10.8251   22.1956 C   0  0  0  0  0  0  0  0  0  0  0  0
  -24.1314  -13.0941   21.0726 C   0  0  0  0  0  0  0  0  0  0  0  0
  -18.6056  -28.1304   23.8265 C   0  0  0  0  0  0  0  0  0  0  0  0
  -21.6926  -22.3165   24.7442 C   0  0  0  0  0  0  0  0  0  0  0  0
  -19.7794  -27.3674   23.9761 C   0  0  0  0  0  0  0  0  0  0  0  0
  -22.8181  -22.1863   25.5702 C   0  0  0  0  0  0  0  0  0  0  0  0
  -30.2967  -19.4223   21.9317 C   0  0  0  0  0  0  0  0  0  0  0  0
  -30.5591  -17.1589   21.1286 C   0  0  0  0  0  0  0  0  0  0  0  0
  -22.3476   -8.8867   23.5607 C   0  0  0  0  0  0  0  0  0  0  0  0
  -24.1458  -21.5411   23.6387 C   0  0  0  0  0  0  0  0  0  0  0  0
  -21.7276   -6.6314   23.7881 C   0  0  0  0  0  0  0  0  0  0  0  0
  -21.9274   -3.9935   22.9028 C   0  0  0  0  0  0  0  0  0  0  0  0
  -20.5885   -5.9532   23.3545 C   0  0  0  0  0  0  0  0  0  0  0  0
  -29.7369  -18.2383   21.4517 C   0  0  0  0  0  0  0  0  0  0  0  0
  -24.5778  -11.8263   21.4911 C   0  0  0  0  0  0  0  0  0  0  0  0
  -25.2220  -13.6553   20.4544 C   0  0  0  0  0  0  0  0  0  0  0  0
  -27.6107  -21.7718   22.7299 C   0  0  0  0  0  0  0  0  0  0  0  0
  -26.3931  -22.0333   23.2170 C   0  0  0  0  0  0  0  0  0  1  0  0
  -22.8459  -13.7095   21.2288 C   0  0  0  0  0  0  0  0  0  0  0  0
  -20.9280  -24.8823   26.4576 C   0  0  0  0  0  0  0  0  0  0  0  0
  -21.1118  -22.7998   28.9378 C   0  0  0  0  0  0  0  0  0  0  0  0
  -22.3708  -19.8830   30.1846 C   0  0  0  0  0  0  0  0  0  0  0  0
  -30.6700  -14.7913   20.2749 C   0  0  0  0  0  0  0  0  0  0  0  0
  -17.8844  -28.7176   25.0138 C   0  0  0  0  0  0  0  0  0  0  0  0
  -20.3604  -22.7016   25.3269 C   0  0  0  0  0  0  0  0  0  0  0  0
  -22.7505  -22.4547   27.0507 C   0  0  0  0  0  0  0  0  0  0  0  0
  -28.7887  -22.6895   22.8197 C   0  0  0  0  0  0  0  0  0  0  0  0
  -28.0307  -20.4692   22.1181 C   0  0  0  0  0  0  0  0  0  0  0  0
  -18.2640  -28.0653   26.3407 C   0  0  0  0  0  0  0  0  0  0  0  0
  -29.6370  -11.6062   19.0647 C   0  0  0  0  0  0  0  0  0  0  0  0
  -19.7788  -27.9256   26.4528 C   0  0  0  0  0  0  0  0  0  0  0  0
  -28.1919  -11.4838   19.5536 C   0  0  0  0  0  0  0  0  0  0  0  0
  -29.9687  -21.7233   22.8740 C   0  0  0  0  0  0  0  0  0  0  0  0
  -30.5228  -12.3180   20.0856 C   0  0  0  0  0  0  0  0  0  0  0  0
  -28.5775  -13.4994   21.0286 C   0  0  0  0  0  0  0  0  0  0  0  0
  -20.3336  -27.0255   25.3421 C   0  0  1  0  0  0  0  0  0  0  0  0
  -20.4816  -23.4599   26.6451 C   0  0  1  0  0  0  0  0  0  0  0  0
  -27.6328  -12.8469   20.0061 C   0  0  2  0  0  0  0  0  0  0  0  0
  -22.3743  -18.4646   32.2547 C   0  0  0  0  0  0  0  0  0  0  0  0
  -23.0515  -24.7457   30.2649 C   0  0  0  0  0  0  0  0  0  0  0  0
  -23.7353  -22.9001   31.8122 C   0  0  0  0  0  0  0  0  0  0  0  0
  -21.3792  -23.7194   31.8155 C   0  0  0  0  0  0  0  0  0  0  0  0
  -21.1439  -17.5970   28.7605 C   0  0  0  0  0  0  0  0  0  0  0  0
  -22.2083  -22.3381   29.8671 C   0  0  1  0  0  0  0  0  0  0  0  0
  -21.7063  -18.7297   30.9145 C   0  0  2  0  0  0  0  0  0  0  0  0
  -22.5956  -23.4226   30.9117 C   0  0  0  0  0  0  0  0  0  0  0  0
  -25.8525  -11.5952   21.1661 N   0  0  0  0  0  0  0  0  0  0  0  0
  -26.2165  -12.7255   20.5367 N   0  0  0  0  0  0  0  0  0  0  0  0
  -29.4851  -20.4929   22.2519 N   0  0  3  0  0  0  0  0  0  0  0  0
  -21.4270  -22.8344   27.5721 N   0  0  0  0  0  0  0  0  0  0  0  0
  -29.9323  -13.6036   20.4643 N   0  0  0  0  0  0  0  0  0  0  0  0
  -25.4178  -14.8483   19.8538 N   0  0  0  0  0  0  0  0  0  0  0  0
  -21.8380  -12.9934   21.8888 N   0  0  0  0  0  0  0  0  0  0  0  0
  -29.9937  -15.9546   20.6409 N   0  0  0  0  0  0  0  0  0  0  0  0
  -20.0923  -25.6327   25.6526 N   0  0  0  0  0  0  0  0  0  0  0  0
  -21.7469  -21.0834   30.4513 N   0  0  0  0  0  0  0  0  0  0  0  0
  -21.7833  -17.4861   30.0968 N   0  3  0  0  0  0  0  0  0  0  0  0
  -22.5935  -14.8540   20.7814 O   0  0  0  0  0  0  0  0  0  0  0  0
  -21.9537  -25.2707   27.0041 O   0  0  0  0  0  0  0  0  0  0  0  0
  -20.0138  -23.1112   29.4058 O   0  0  0  0  0  0  0  0  0  0  0  0
  -23.3479  -19.7345   29.4541 O   0  0  0  0  0  0  0  0  0  0  0  0
  -31.8069  -14.7798   19.7960 O   0  0  0  0  0  0  0  0  0  0  0  0
  -21.6303   -7.9412   24.2271 O   0  0  0  0  0  0  0  0  0  0  0  0
  -25.3406  -21.1690   23.1041 O   0  0  0  0  0  0  0  0  0  1  0  0
  -22.0236   -2.7273   22.4764 F   0  0  0  0  0  0  0  0  0  0  0  0
  -19.3957   -6.5639   23.3598 F   0  0  0  0  0  0  0  0  0  0  0  0
  -28.4073  -18.1383   21.3006 F   0  0  0  0  0  0  0  0  0  0  0  0
  1  2  1  0  0  0  0
  1  6  2  0  0  0  0
  2  7  2  0  0  0  0
  3  9  2  0  0  0  0
  3 10  1  0  0  0  0
  4 11  2  0  0  0  0
  4 18  1  0  0  0  0
  5 12  1  0  0  0  0
  5 18  2  0  0  0  0
  6 20  1  0  0  0  0
  7 22  1  0  0  0  0
  8 13  2  0  0  0  0
  8 21  1  0  0  0  0
  9 24  1  0  0  0  0
 10 25  2  0  0  0  0
 11 26  1  0  0  0  0
 12 26  2  0  0  0  0
 13 27  1  0  0  0  0
 14 15  2  0  0  0  0
 14 28  1  0  0  0  0
 15 29  1  0  0  0  0
 16 23  1  0  0  0  0
 16 27  2  0  0  0  0
 17 29  2  0  0  0  0
 17 30  1  0  0  0  0
 18 32  1  0  0  0  0
 19 32  1  0  0  0  0
 19 33  2  0  0  0  0
 19 36  1  0  0  0  0
 20 22  2  0  0  0  0
 20 41  1  0  0  0  0
 21 23  2  0  0  0  0
 21 42  1  0  0  0  0
 22 53  1  0  0  0  0
 23 43  1  0  0  0  0
 24 31  2  0  0  0  0
 24 66  1  0  0  0  0
 25 31  1  0  0  0  0
 25 71  1  0  0  0  0
 26 80  1  0  0  0  0
 27 81  1  0  0  0  0
 28 30  2  0  0  0  0
 28 80  1  0  0  0  0
 29 82  1  0  0  0  0
 30 83  1  0  0  0  0
 31 84  1  0  0  0  0
 32 64  2  0  0  0  0
 33 65  1  0  0  0  0
 33 69  1  0  0  0  0
 34 35  2  0  0  0  0
 34 44  1  0  0  0  0
 34 45  1  0  0  0  0
 35 81  1  0  0  0  0
 36 70  1  0  0  0  0
 36 75  2  0  0  0  0
 37 54  1  0  0  0  0
 37 72  1  0  0  0  0
 37 76  2  0  0  0  0
 38 61  1  0  0  0  0
 38 67  1  0  0  0  0
 38 77  2  0  0  0  0
 39 62  1  0  0  0  0
 39 73  1  0  0  0  0
 39 78  2  0  0  0  0
 40 68  1  0  0  0  0
 40 71  1  0  0  0  0
 40 79  2  0  0  0  0
 41 46  1  0  0  0  0
 42 54  1  0  0  0  0
 43 67  1  0  0  0  0
 44 50  1  0  0  0  0
 45 66  1  0  0  0  0
 46 48  1  0  0  0  0
 47 49  1  0  0  0  0
 47 51  1  0  0  0  0
 48 53  1  0  0  0  0
 49 55  1  0  0  0  0
 50 66  1  0  0  0  0
 51 68  1  0  0  0  0
 52 55  1  0  0  0  0
 52 68  1  0  0  0  0
 53 72  1  0  0  0  0
 54 67  1  0  0  0  0
 55 65  1  0  0  0  0
 56 62  1  0  0  0  0
 57 63  1  0  0  0  0
 58 63  1  0  0  0  0
 59 63  1  0  0  0  0
 60 74  1  0  0  0  0
 61 63  1  0  0  0  0
 61 73  1  0  0  0  0
 62 74  1  0  0  0  0
 64 65  1  0  0  0  0
M  CHG  1  74   1
M  ISO  4  35 101  40 100  71 100  81 101
M  END
> <Batch ID>
0147

> <Smiles>
CNC(C)C(=O)NC(C(=O)N1Cc2cc([101O:1][101CH:1]=C3CCN(c4cccc([100NH:0][100C:0](=O)N5CCCC(n6nc(-c7ccc(Oc8ccc(F)cc8F)cc7)c(C(N)=O)c6N)C5)c4F)C3)ccc2CC1C(=O)NC1CCCc2ccccc21)C(C)(C)C

> <Shape>
0.207

> <Color>
0.178

> <Negative vol penalty>
0.000

$$$$

  -OEChem-04052303133D

 88 97  0     1  0  0  0  0  0999 V2000
  -30.7644  -31.2863   11.9281 C   0  0  0  0  0  0  0  0  0  0  0  0
  -30.0144  -31.0190   13.0689 C   0  0  0  0  0  0  0  0  0  0  0  0
  -31.3465  -19.0595   20.6453 C   0  0  0  0  0  0  0  0  0  0  0  0
  -23.0697   -9.8795   19.9259 C   0  0  0  0  0  0  0  0  0  0  0  0
  -23.8281   -9.8710   22.2198 C   0  0  0  0  0  0  0  0  0  0  0  0
  -30.6176  -19.8444   21.5386 C   0  0  0  0  0  0  0  0  0  0  0  0
  -31.2041  -30.2367   11.1226 C   0  0  0  0  0  0  0  0  0  0  0  0
  -29.7025  -29.7019   13.4042 C   0  0  0  0  0  0  0  0  0  0  0  0
  -28.6497  -25.4913   19.1032 C   0  0  0  0  0  0  0  0  0  0  0  0
  -31.1729  -17.6755   20.6306 C   0  0  0  0  0  0  0  0  0  0  0  0
  -22.3214   -8.7277   20.1691 C   0  0  0  0  0  0  0  0  0  0  0  0
  -23.0799   -8.7192   22.4629 C   0  0  0  0  0  0  0  0  0  0  0  0
  -27.7155  -24.5967   19.6235 C   0  0  0  0  0  0  0  0  0  0  0  0
  -19.8484   -7.9299   23.0591 C   0  0  0  0  0  0  0  0  0  0  0  0
  -19.0906   -7.8863   24.2293 C   0  0  0  0  0  0  0  0  0  0  0  0
  -29.5415  -17.8615   22.4029 C   0  0  0  0  0  0  0  0  0  0  0  0
  -28.5959  -22.8591   18.2004 C   0  0  0  0  0  0  0  0  0  0  0  0
  -20.3245   -5.9402   24.9557 C   0  0  0  0  0  0  0  0  0  0  0  0
  -23.8231  -10.4512   20.9513 C   0  0  0  0  0  0  0  0  0  0  0  0
  -29.7151  -19.2454   22.4175 C   0  0  0  0  0  0  0  0  0  0  0  0
  -24.1742  -12.9757   20.8455 C   0  0  0  0  0  0  0  0  0  0  0  0
  -30.9057  -28.9054   11.4534 C   0  0  0  0  0  0  0  0  0  0  0  0
  -29.5584  -25.0787   18.1181 C   0  0  0  0  0  0  0  0  0  0  0  0
  -30.1375  -28.6335   12.6015 C   0  0  0  0  0  0  0  0  0  0  0  0
  -29.5423  -23.7498   17.6711 C   0  0  0  0  0  0  0  0  0  0  0  0
  -30.2704  -17.0765   21.5095 C   0  0  0  0  0  0  0  0  0  0  0  0
  -22.3265   -8.1476   21.4375 C   0  0  0  0  0  0  0  0  0  0  0  0
  -27.6866  -23.2811   19.1700 C   0  0  0  0  0  0  0  0  0  0  0  0
  -20.8442   -6.9787   22.8371 C   0  0  0  0  0  0  0  0  0  0  0  0
  -19.3286   -6.8915   25.1776 C   0  0  0  0  0  0  0  0  0  0  0  0
  -21.0823   -5.9839   23.7854 C   0  0  0  0  0  0  0  0  0  0  0  0
  -24.5967  -11.6406   20.7006 C   0  0  0  0  0  0  0  0  0  0  0  0
  -25.2693  -13.7231   20.4870 C   0  0  0  0  0  0  0  0  0  0  0  0
  -28.9441  -20.0740   23.3615 C   0  0  0  0  0  0  0  0  0  0  0  0
  -22.9054  -13.4938   21.2665 C   0  0  0  0  0  0  0  0  0  0  0  0
  -24.8499  -20.6540   20.8549 C   0  0  0  0  0  0  0  0  0  0  0  0
  -30.1372  -25.9181   15.1074 C   0  0  0  0  0  0  0  0  0  0  0  0
  -32.6386  -23.8781   15.4294 C   0  0  0  0  0  0  0  0  0  0  0  0
  -33.9991  -21.1935   17.0384 C   0  0  0  0  0  0  0  0  0  0  0  0
  -30.7392  -14.7477   20.6709 C   0  0  0  0  0  0  0  0  0  0  0  0
  -31.3626  -27.8071   10.5262 C   0  0  0  0  0  0  0  0  0  0  0  0
  -30.5774  -26.0489   17.5863 C   0  0  0  0  0  0  0  0  0  0  0  0
  -30.5096  -23.2516   16.6297 C   0  0  0  0  0  0  0  0  0  0  0  0
  -31.3079  -26.4172   11.1549 C   0  0  0  0  0  0  0  0  0  0  0  0
  -29.6175  -12.3512   18.2886 C   0  0  0  0  0  0  0  0  0  0  0  0
  -29.9776  -26.2073   11.8712 C   0  0  0  0  0  0  0  0  0  0  0  0
  -28.1765  -12.0625   18.7156 C   0  0  0  0  0  0  0  0  0  0  0  0
  -25.5962  -21.4060   23.1237 C   0  0  0  0  0  0  0  0  0  0  0  0
  -30.5327  -12.5700   19.4920 C   0  0  0  0  0  0  0  0  0  0  0  0
  -26.9280  -21.3853   23.8648 C   0  0  0  0  0  0  0  0  0  0  0  0
  -28.6275  -13.2937   20.8761 C   0  0  0  0  0  0  0  0  0  0  0  0
  -27.1692  -20.3023   21.6722 C   0  0  0  0  0  0  0  0  0  0  0  0
  -29.7999  -27.2166   13.0119 C   0  0  1  0  0  0  0  0  0  0  0  0
  -31.1181  -25.6558   16.2150 C   0  0  1  0  0  0  0  0  0  0  0  0
  -27.6548  -13.1306   19.6968 C   0  0  2  0  0  0  0  0  0  0  0  0
  -25.9744  -21.2671   21.6408 C   0  0  1  0  0  0  0  0  0  0  0  0
  -23.5430  -21.3998   20.8492 C   0  0  0  0  0  0  0  0  0  0  0  0
  -36.0406  -19.7342   17.0556 C   0  0  0  0  0  0  0  0  0  0  0  0
  -31.6410  -22.4571   12.9203 C   0  0  0  0  0  0  0  0  0  0  0  0
  -33.0997  -20.5142   13.5251 C   0  0  0  0  0  0  0  0  0  0  0  0
  -34.1230  -22.7376   13.0432 C   0  0  0  0  0  0  0  0  0  0  0  0
  -34.6580  -21.9493   19.8229 C   0  0  0  0  0  0  0  0  0  0  0  0
  -26.3522  -22.6148   21.0224 C   0  0  0  0  0  0  0  0  0  1  0  0
  -32.8495  -22.4008   15.2012 C   0  0  1  0  0  0  0  0  0  0  0  0
  -35.3751  -20.9707   17.6396 C   0  0  2  0  0  0  0  0  0  0  0  0
  -32.9087  -22.0370   13.6907 C   0  0  0  0  0  0  0  0  0  0  0  0
  -25.8614  -11.5425   20.2826 N   0  0  0  0  0  0  0  0  0  0  0  0
  -26.2431  -12.8253   20.1616 N   0  0  0  0  0  0  0  0  0  0  0  0
  -27.7685  -20.5514   22.9951 N   0  0  0  0  0  0  0  0  0  0  0  0
  -31.4828  -24.2399   16.1359 N   0  0  0  0  0  0  0  0  0  0  0  0
  -29.9769  -13.5979   20.3748 N   0  0  0  0  0  0  0  0  0  0  0  0
  -25.4847  -15.0542   20.4215 N   0  0  0  0  0  0  0  0  0  0  0  0
  -21.8899  -12.5865   21.5981 N   0  0  0  0  0  0  0  0  0  0  0  0
  -30.0947  -15.6706   21.4940 N   0  0  0  0  0  0  0  0  0  0  0  0
  -30.5840  -26.8221   14.1625 N   0  0  0  0  0  0  0  0  0  0  0  0
  -34.0480  -22.0391   15.9503 N   0  0  0  0  0  0  0  0  0  0  0  0
  -29.4434  -20.3265   24.5678 N   0  3  0  0  0  0  0  0  0  0  0  0
  -35.2732  -20.7965   19.1162 N   0  3  0  0  0  0  0  0  0  0  0  0
  -22.6736  -14.7249   21.3305 O   0  0  0  0  0  0  0  0  0  0  0  0
  -24.9914  -19.5955   20.2445 O   0  0  0  0  0  0  0  0  0  0  0  0
  -29.0557  -25.3419   15.1091 O   0  0  0  0  0  0  0  0  0  0  0  0
  -33.4723  -24.6810   15.0030 O   0  0  0  0  0  0  0  0  0  0  0  0
  -32.9831  -20.6670   17.4867 O   0  0  0  0  0  0  0  0  0  0  0  0
  -31.8692  -14.9149   20.2049 O   0  0  0  0  0  0  0  0  0  0  0  0
  -21.5963   -7.0238   21.6752 O   0  0  0  0  0  0  0  0  0  0  0  0
  -26.7754  -22.4060   19.6757 O   0  0  0  0  0  0  0  0  0  1  0  0
  -18.6019   -6.8506   26.3020 F   0  0  0  0  0  0  0  0  0  0  0  0
  -22.0384   -5.0680   23.5783 F   0  0  0  0  0  0  0  0  0  0  0  0
  1  2  1  0  0  0  0
  1  7  2  0  0  0  0
  2  8  2  0  0  0  0
  3  6  2  0  0  0  0
  3 10  1  0  0  0  0
  4 11  2  0  0  0  0
  4 19  1  0  0  0  0
  5 12  1  0  0  0  0
  5 19  2  0  0  0  0
  6 20  1  0  0  0  0
  7 22  1  0  0  0  0
  8 24  1  0  0  0  0
  9 13  2  0  0  0  0
  9 23  1  0  0  0  0
 10 26  2  0  0  0  0
 11 27  1  0  0  0  0
 12 27  2  0  0  0  0
 13 28  1  0  0  0  0
 14 15  2  0  0  0  0
 14 29  1  0  0  0  0
 15 30  1  0  0  0  0
 16 20  2  0  0  0  0
 16 26  1  0  0  0  0
 17 25  1  0  0  0  0
 17 28  2  0  0  0  0
 18 30  2  0  0  0  0
 18 31  1  0  0  0  0
 19 32  1  0  0  0  0
 20 34  1  0  0  0  0
 21 32  1  0  0  0  0
 21 33  2  0  0  0  0
 21 35  1  0  0  0  0
 22 24  2  0  0  0  0
 22 41  1  0  0  0  0
 23 25  2  0  0  0  0
 23 42  1  0  0  0  0
 24 53  1  0  0  0  0
 25 43  1  0  0  0  0
 26 74  1  0  0  0  0
 27 85  1  0  0  0  0
 28 86  1  0  0  0  0
 29 31  2  0  0  0  0
 29 85  1  0  0  0  0
 30 87  1  0  0  0  0
 31 88  1  0  0  0  0
 32 67  2  0  0  0  0
 33 68  1  0  0  0  0
 33 72  1  0  0  0  0
 34 69  1  0  0  0  0
 34 77  2  0  0  0  0
 35 73  1  0  0  0  0
 35 79  2  0  0  0  0
 36 56  1  0  0  0  0
 36 57  1  0  0  0  0
 36 80  2  0  0  0  0
 37 54  1  0  0  0  0
 37 75  1  0  0  0  0
 37 81  2  0  0  0  0
 38 64  1  0  0  0  0
 38 70  1  0  0  0  0
 38 82  2  0  0  0  0
 39 65  1  0  0  0  0
 39 76  1  0  0  0  0
 39 83  2  0  0  0  0
 40 71  1  0  0  0  0
 40 74  1  0  0  0  0
 40 84  2  0  0  0  0
 41 44  1  0  0  0  0
 42 54  1  0  0  0  0
 43 70  1  0  0  0  0
 44 46  1  0  0  0  0
 45 47  1  0  0  0  0
 45 49  1  0  0  0  0
 46 53  1  0  0  0  0
 47 55  1  0  0  0  0
 48 50  1  0  0  0  0
 48 56  1  0  0  0  0
 49 71  1  0  0  0  0
 50 69  1  0  0  0  0
 51 55  1  0  0  0  0
 51 71  1  0  0  0  0
 52 56  1  0  0  0  0
 52 69  1  0  0  0  0
 53 75  1  0  0  0  0
 54 70  1  0  0  0  0
 55 68  1  0  0  0  0
 56 63  1  0  0  0  0
 58 65  1  0  0  0  0
 59 66  1  0  0  0  0
 60 66  1  0  0  0  0
 61 66  1  0  0  0  0
 62 78  1  0  0  0  0
 63 86  1  0  0  0  0
 64 66  1  0  0  0  0
 64 76  1  0  0  0  0
 65 78  1  0  0  0  0
 67 68  1  0  0  0  0
M  CHG  2  77   1  78   1
M  ISO  4  40 100  63 101  74 100  86 101
M  END
> <Batch ID>
0147

> <Smiles>
CNC(C)C(=O)NC(C(=O)N1Cc2cc([101O:1][101CH2:1]C3(C(C)=O)CCN(C(=N)c4cccc([100NH:0][100C:0](=O)N5CCCC(n6nc(-c7ccc(Oc8ccc(F)cc8F)cc7)c(C(N)=O)c6N)C5)c4)C3)ccc2CC1C(=O)NC1CCCc2ccccc21)C(C)(C)C

> <Shape>
0.217

> <Color>
0.184

> <Negative vol penalty>
0.000

$$$$

  -OEChem-04052303133D

 96105  0     1  0  0  0  0  0999 V2000
  -24.9195  -37.7325   23.3067 C   0  0  0  0  0  0  0  0  0  0  0  0
  -25.8035  -36.9386   22.5830 C   0  0  0  0  0  0  0  0  0  0  0  0
  -24.6932   -8.7378   21.4800 C   0  0  0  0  0  0  0  0  0  0  0  0
  -22.9862  -10.3726   20.9793 C   0  0  0  0  0  0  0  0  0  0  0  0
  -24.0681  -37.1494   24.2442 C   0  0  0  0  0  0  0  0  0  0  0  0
  -25.8374  -35.5612   22.7973 C   0  0  0  0  0  0  0  0  0  0  0  0
  -26.9858  -29.3984   19.3306 C   0  0  0  0  0  0  0  0  0  0  0  0
  -23.8557   -8.1544   22.4306 C   0  0  0  0  0  0  0  0  0  0  0  0
  -22.1486   -9.7891   21.9299 C   0  0  0  0  0  0  0  0  0  0  0  0
  -27.7531  -28.2380   19.4221 C   0  0  0  0  0  0  0  0  0  0  0  0
  -21.2038   -6.0569   22.4619 C   0  0  0  0  0  0  0  0  0  0  0  0
  -21.1029   -4.6658   22.4704 C   0  0  0  0  0  0  0  0  0  0  0  0
  -25.3417  -20.4916   18.3966 C   0  0  0  0  0  0  0  0  0  0  0  0
  -27.1942  -19.0582   18.9887 C   0  0  0  0  0  0  0  0  0  0  0  0
  -26.1805  -27.3307   21.0105 C   0  0  0  0  0  0  0  0  0  0  0  0
  -24.9730  -18.1333   18.7701 C   0  0  0  0  0  0  0  0  0  0  0  0
  -21.9282   -4.6198   24.7406 C   0  0  0  0  0  0  0  0  0  0  0  0
  -24.2585   -9.8470   20.7543 C   0  0  0  0  0  0  0  0  0  0  0  0
  -26.6996  -20.3221   18.6669 C   0  0  0  0  0  0  0  0  0  0  0  0
  -25.2139  -10.1265   18.4056 C   0  0  0  0  0  0  0  0  0  0  0  0
  -24.0848  -35.7629   24.4632 C   0  0  0  0  0  0  0  0  0  0  0  0
  -25.8139  -29.5384   20.0879 C   0  0  0  0  0  0  0  0  0  0  0  0
  -24.9863  -34.9592   23.7396 C   0  0  0  0  0  0  0  0  0  0  0  0
  -25.3987  -28.4929   20.9249 C   0  0  0  0  0  0  0  0  0  0  0  0
  -24.4784  -19.3972   18.4483 C   0  0  0  0  0  0  0  0  0  0  0  0
  -26.3309  -17.9638   19.0403 C   0  0  0  0  0  0  0  0  0  0  0  0
  -22.5834   -8.6800   22.6556 C   0  0  0  0  0  0  0  0  0  0  0  0
  -27.3520  -27.2051   20.2643 C   0  0  0  0  0  0  0  0  0  0  0  0
  -21.6669   -6.7296   23.5927 C   0  0  0  0  0  0  0  0  0  0  0  0
  -21.4651   -3.9472   23.6097 C   0  0  0  0  0  0  0  0  0  0  0  0
  -22.0291   -6.0110   24.7321 C   0  0  0  0  0  0  0  0  0  0  0  0
  -25.1234  -10.4504   19.7726 C   0  0  0  0  0  0  0  0  0  0  0  0
  -26.1726  -10.9782   17.9136 C   0  0  0  0  0  0  0  0  0  0  0  0
  -28.6774  -23.3369   19.7716 C   0  0  0  0  0  0  0  0  0  0  0  0
  -27.5944  -21.4569   18.6128 C   0  0  0  0  0  0  0  0  0  0  0  0
  -24.4955   -9.1438   17.6481 C   0  0  0  0  0  0  0  0  0  0  0  0
  -24.8368  -31.5345   22.3605 C   0  0  0  0  0  0  0  0  0  0  0  0
  -22.0303  -29.9473   22.0048 C   0  0  0  0  0  0  0  0  0  0  0  0
  -20.4127  -27.1051   21.0291 C   0  0  0  0  0  0  0  0  0  0  0  0
  -28.1540  -16.3388   19.6583 C   0  0  0  0  0  0  0  0  0  0  0  0
  -23.1789  -35.1841   25.5210 C   0  0  0  0  0  0  0  0  0  0  0  0
  -24.9832  -30.7856   19.9577 C   0  0  0  0  0  0  0  0  0  0  0  0
  -24.1379  -28.5853   21.7435 C   0  0  0  0  0  0  0  0  0  0  0  0
  -23.0143  -33.6699   25.4200 C   0  0  0  0  0  0  0  0  0  0  0  0
  -30.0927  -13.3796   19.2555 C   0  0  0  0  0  0  0  0  0  0  0  0
  -24.3699  -32.9972   25.2284 C   0  0  0  0  0  0  0  0  0  0  0  0
  -29.0462  -12.2638   19.2119 C   0  0  0  0  0  0  0  0  0  0  0  0
  -28.0818  -22.6536   21.9605 C   0  0  0  0  0  0  0  0  0  0  0  0
  -29.7035  -14.4841   20.2365 C   0  0  0  0  0  0  0  0  0  0  0  0
  -27.1747  -21.9110   20.9848 C   0  0  0  0  0  0  0  0  0  0  0  0
  -27.3151  -13.9306   19.9942 C   0  0  0  0  0  0  0  0  0  0  0  0
  -25.0353  -33.4582   23.9260 C   0  0  1  0  0  0  0  0  0  0  0  0
  -24.0812  -31.0312   21.1632 C   0  0  1  0  0  0  0  0  0  0  0  0
  -27.6317  -12.8268   18.9719 C   0  0  2  0  0  0  0  0  0  0  0  0
  -28.6156  -23.8764   21.1873 C   0  0  1  0  0  0  0  0  0  0  0  0
  -29.9965  -24.2940   21.6825 C   0  0  0  0  0  0  0  0  0  0  0  0
  -20.2374  -17.4637   19.6199 C   0  0  0  0  0  0  0  0  0  0  0  0
  -20.8985  -22.5499   18.5868 C   0  0  0  0  0  0  0  0  0  0  0  0
  -18.5331  -20.5334   20.7089 C   0  0  0  0  0  0  0  0  0  0  0  0
  -18.1216  -26.0902   20.8935 C   0  0  0  0  0  0  0  0  0  0  0  0
  -22.0784  -29.4427   25.0137 C   0  0  0  0  0  0  0  0  0  0  0  0
  -20.3408  -27.6724   24.6742 C   0  0  0  0  0  0  0  0  0  0  0  0
  -19.8325  -30.0443   24.0926 C   0  0  0  0  0  0  0  0  0  0  0  0
  -20.5753  -26.8452   18.0855 C   0  0  0  0  0  0  0  0  0  0  0  0
  -23.0086  -19.5806   18.1548 C   0  0  0  0  0  0  0  0  0  0  0  0
  -27.6385  -25.0520   21.2329 C   0  0  0  0  0  0  0  0  0  1  0  0
  -20.0434  -18.6968   18.7423 C   0  0  0  0  0  0  0  0  0  0  0  0
  -20.3642  -21.1630   18.2418 C   0  0  0  0  0  0  0  0  0  0  0  0
  -20.0470  -20.3468   20.6711 C   0  0  0  0  0  0  0  0  0  0  0  0
  -22.2209  -19.9057   19.4334 C   0  0  0  0  0  0  0  0  0  0  0  0
  -21.4101  -28.7195   22.6269 C   0  0  1  0  0  0  0  0  0  0  0  0
  -19.1860  -26.8919   20.1606 C   0  0  2  0  0  0  0  0  0  0  0  0
  -20.9403  -28.9685   24.0880 C   0  0  0  0  0  0  0  0  0  0  0  0
  -20.6689  -20.0276   19.2730 C   0  0  0  0  0  0  0  0  0  0  0  0
  -25.9582  -11.4312   20.1265 N   0  0  0  0  0  0  0  0  0  0  0  0
  -26.5824  -11.7309   18.9747 N   0  0  0  0  0  0  0  0  0  0  0  0
  -27.8147  -22.1880   19.6912 N   0  0  0  0  0  0  0  0  0  0  0  0
  -23.3631  -29.8273   21.5866 N   0  0  0  0  0  0  0  0  0  0  0  0
  -28.3535  -14.9718   19.9456 N   0  0  0  0  0  0  0  0  0  0  0  0
  -26.6967  -11.1491   16.6814 N   0  0  0  0  0  0  0  0  0  0  0  0
  -23.5457   -8.3535   18.3096 N   0  0  0  0  0  0  0  0  0  0  0  0
  -26.8339  -16.6796   19.3652 N   0  0  0  0  0  0  0  0  0  0  0  0
  -24.4413  -32.7870   22.7898 N   0  0  0  0  0  0  0  0  0  0  0  0
  -20.3475  -28.2956   21.7216 N   0  0  0  0  0  0  0  0  0  0  0  0
  -28.2144  -21.7812   17.4658 N   0  3  0  0  0  0  0  0  0  0  0  0
  -19.5533  -26.1583   18.9165 N   0  3  0  0  0  0  0  0  0  0  0  0
  -29.2989  -23.7764   18.8203 O   0  0  0  0  0  0  0  0  0  0  0  0
  -24.7018   -8.9603   16.4245 O   0  0  0  0  0  0  0  0  0  0  0  0
  -25.7127  -30.8373   22.8589 O   0  0  0  0  0  0  0  0  0  0  0  0
  -21.3547  -30.9727   21.8876 O   0  0  0  0  0  0  0  0  0  0  0  0
  -21.3346  -26.2946   21.0901 O   0  0  0  0  0  0  0  0  0  0  0  0
  -29.0899  -17.1424   19.6447 O   0  0  0  0  0  0  0  0  0  0  0  0
  -21.7658   -8.1108   23.5830 O   0  0  0  0  0  0  0  0  0  0  0  0
  -28.1061  -26.0614   20.3568 O   0  0  0  0  0  0  0  0  0  1  0  0
  -21.3667   -2.6114   23.6182 F   0  0  0  0  0  0  0  0  0  0  0  0
  -22.4737   -6.6517   25.8219 F   0  0  0  0  0  0  0  0  0  0  0  0
  1  2  1  0  0  0  0
  1  5  2  0  0  0  0
  2  6  2  0  0  0  0
  3  8  2  0  0  0  0
  3 18  1  0  0  0  0
  4  9  1  0  0  0  0
  4 18  2  0  0  0  0
  5 21  1  0  0  0  0
  6 23  1  0  0  0  0
  7 10  2  0  0  0  0
  7 22  1  0  0  0  0
  8 27  1  0  0  0  0
  9 27  2  0  0  0  0
 10 28  1  0  0  0  0
 11 12  2  0  0  0  0
 11 29  1  0  0  0  0
 12 30  1  0  0  0  0
 13 19  1  0  0  0  0
 13 25  2  0  0  0  0
 14 19  2  0  0  0  0
 14 26  1  0  0  0  0
 15 24  1  0  0  0  0
 15 28  2  0  0  0  0
 16 25  1  0  0  0  0
 16 26  2  0  0  0  0
 17 30  2  0  0  0  0
 17 31  1  0  0  0  0
 18 32  1  0  0  0  0
 19 35  1  0  0  0  0
 20 32  1  0  0  0  0
 20 33  2  0  0  0  0
 20 36  1  0  0  0  0
 21 23  2  0  0  0  0
 21 41  1  0  0  0  0
 22 24  2  0  0  0  0
 22 42  1  0  0  0  0
 23 52  1  0  0  0  0
 24 43  1  0  0  0  0
 25 65  1  0  0  0  0
 26 82  1  0  0  0  0
 27 93  1  0  0  0  0
 28 94  1  0  0  0  0
 29 31  2  0  0  0  0
 29 93  1  0  0  0  0
 30 95  1  0  0  0  0
 31 96  1  0  0  0  0
 32 75  2  0  0  0  0
 33 76  1  0  0  0  0
 33 80  1  0  0  0  0
 34 55  1  0  0  0  0
 34 77  1  0  0  0  0
 34 87  2  0  0  0  0
 35 77  1  0  0  0  0
 35 85  2  0  0  0  0
 36 81  1  0  0  0  0
 36 88  2  0  0  0  0
 37 53  1  0  0  0  0
 37 83  1  0  0  0  0
 37 89  2  0  0  0  0
 38 71  1  0  0  0  0
 38 78  1  0  0  0  0
 38 90  2  0  0  0  0
 39 72  1  0  0  0  0
 39 84  1  0  0  0  0
 39 91  2  0  0  0  0
 40 79  1  0  0  0  0
 40 82  1  0  0  0  0
 40 92  2  0  0  0  0
 41 44  1  0  0  0  0
 42 53  1  0  0  0  0
 43 78  1  0  0  0  0
 44 46  1  0  0  0  0
 45 47  1  0  0  0  0
 45 49  1  0  0  0  0
 46 52  1  0  0  0  0
 47 54  1  0  0  0  0
 48 50  1  0  0  0  0
 48 55  1  0  0  0  0
 49 79  1  0  0  0  0
 50 77  1  0  0  0  0
 51 54  1  0  0  0  0
 51 79  1  0  0  0  0
 52 83  1  0  0  0  0
 53 78  1  0  0  0  0
 54 76  1  0  0  0  0
 55 56  1  0  0  0  0
 55 66  1  0  0  0  0
 57 67  1  0  0  0  0
 58 68  1  0  0  0  0
 59 69  1  0  0  0  0
 60 72  1  0  0  0  0
 61 73  1  0  0  0  0
 62 73  1  0  0  0  0
 63 73  1  0  0  0  0
 64 86  1  0  0  0  0
 65 70  1  0  0  0  0
 66 94  1  0  0  0  0
 67 74  1  0  0  0  0
 68 74  1  0  0  0  0
 69 74  1  0  0  0  0
 70 74  1  0  0  0  0
 71 73  1  0  0  0  0
 71 84  1  0  0  0  0
 72 86  1  0  0  0  0
 75 76  1  0  0  0  0
M  CHG  2  85   1  86   1
M  ISO  4  40 100  66 101  82 100  94 101
M  END
> <Batch ID>
0147

> <Smiles>
CCC(CC)(CC)CCc1cc([100NH:0][100C:0](=O)N2CCCC(n3nc(-c4ccc(Oc5ccc(F)cc5F)cc4)c(C(N)=O)c3N)C2)cc(C(=N)N2CCC(C)([101CH2:1][101O:1]c3ccc4c(c3)CN(C(=O)C(NC(=O)C(C)NC)C(C)(C)C)C(C(=O)NC3CCCc5ccccc53)C4)C2=O)c1

> <Shape>
0.327

> <Color>
0.074

> <Negative vol penalty>
0.000

$$$$

  -OEChem-04052303133D

 83 91  0     1  0  0  0  0  0999 V2000
  -17.9926  -33.7536   22.4742 C   0  0  0  0  0  0  0  0  0  0  0  0
  -19.2246  -33.7728   21.8283 C   0  0  0  0  0  0  0  0  0  0  0  0
  -26.6114  -12.0397   21.6455 C   0  0  0  0  0  0  0  0  0  0  0  0
  -25.9048  -13.3130   19.7177 C   0  0  0  0  0  0  0  0  0  0  0  0
  -17.7445  -32.8120   23.4720 C   0  0  0  0  0  0  0  0  0  0  0  0
  -20.2097  -32.8510   22.1807 C   0  0  0  0  0  0  0  0  0  0  0  0
  -25.6144  -29.0988   19.3476 C   0  0  0  0  0  0  0  0  0  0  0  0
  -25.3680  -11.4089   21.6846 C   0  0  0  0  0  0  0  0  0  0  0  0
  -24.6614  -12.6822   19.7567 C   0  0  0  0  0  0  0  0  0  0  0  0
  -26.9695  -28.8410   19.5506 C   0  0  0  0  0  0  0  0  0  0  0  0
  -23.7924   -8.9052   20.0468 C   0  0  0  0  0  0  0  0  0  0  0  0
  -23.7723   -7.5231   20.2339 C   0  0  0  0  0  0  0  0  0  0  0  0
  -29.6582  -22.4516   19.9038 C   0  0  0  0  0  0  0  0  0  0  0  0
  -26.4007  -27.2094   21.2339 C   0  0  0  0  0  0  0  0  0  0  0  0
  -22.4860   -7.8158   22.2580 C   0  0  0  0  0  0  0  0  0  0  0  0
  -28.6835  -22.6188   17.8003 C   0  0  0  0  0  0  0  0  0  0  0  0
  -26.8798  -12.9918   20.6621 C   0  0  0  0  0  0  0  0  0  0  0  0
  -29.3471  -23.2964   18.7994 C   0  0  0  0  0  0  0  0  0  0  0  0
  -29.3103  -13.2219   19.9222 C   0  0  0  0  0  0  0  0  0  0  0  0
  -18.7237  -31.8720   23.8301 C   0  0  0  0  0  0  0  0  0  0  0  0
  -24.6410  -28.4205   20.0952 C   0  0  0  0  0  0  0  0  0  0  0  0
  -19.9750  -31.8968   23.1852 C   0  0  0  0  0  0  0  0  0  0  0  0
  -25.0339  -27.4586   21.0367 C   0  0  0  0  0  0  0  0  0  0  0  0
  -24.3930  -11.7301   20.7402 C   0  0  0  0  0  0  0  0  0  0  0  0
  -27.3629  -27.8983   20.4959 C   0  0  0  0  0  0  0  0  0  0  0  0
  -23.1594   -9.7426   20.9654 C   0  0  0  0  0  0  0  0  0  0  0  0
  -23.1191   -6.9784   21.3394 C   0  0  0  0  0  0  0  0  0  0  0  0
  -22.5062   -9.1979   22.0709 C   0  0  0  0  0  0  0  0  0  0  0  0
  -28.1639  -13.6442   20.6216 C   0  0  0  0  0  0  0  0  0  0  0  0
  -30.2563  -14.1766   20.2051 C   0  0  0  0  0  0  0  0  0  0  0  0
  -29.2202  -21.1603   19.7067 C   0  0  0  0  0  0  0  0  0  0  0  0
  -29.6823  -24.7469   18.6976 C   0  0  0  0  0  0  0  0  0  0  0  0
  -29.5029  -12.0696   19.0910 C   0  0  0  0  0  0  0  0  0  0  0  0
  -22.3883  -29.2929   22.1610 C   0  0  0  0  0  0  0  0  0  0  0  0
  -21.5643  -26.1603   21.9880 C   0  0  0  0  0  0  0  0  0  0  0  0
  -22.5063  -22.9496   21.3166 C   0  0  0  0  0  0  0  0  0  0  0  0
  -29.9050  -19.9263   21.7935 C   0  0  0  0  0  0  0  0  0  0  0  0
  -18.4262  -30.9038   24.9476 C   0  0  0  0  0  0  0  0  0  0  0  0
  -23.1826  -28.6908   19.8454 C   0  0  0  0  0  0  0  0  0  0  0  0
  -24.0275  -26.6885   21.8508 C   0  0  0  0  0  0  0  0  0  0  0  0
  -19.3900  -29.7212   25.0016 C   0  0  0  0  0  0  0  0  0  0  0  0
  -31.5132  -17.3127   23.5991 C   0  0  0  0  0  0  0  0  0  0  0  0
  -20.8319  -30.2011   24.8693 C   0  0  0  0  0  0  0  0  0  0  0  0
  -30.9457  -16.0369   22.9727 C   0  0  0  0  0  0  0  0  0  0  0  0
  -30.4616  -18.4173   23.6877 C   0  0  0  0  0  0  0  0  0  0  0  0
  -29.2099  -17.4500   21.7992 C   0  0  0  0  0  0  0  0  0  0  0  0
  -21.0602  -30.8973   23.5223 C   0  0  1  0  0  0  0  0  0  0  0  0
  -22.2940  -28.3125   21.0263 C   0  0  1  0  0  0  0  0  0  0  0  0
  -30.2495  -16.3302   21.6292 C   0  0  2  0  0  0  0  0  0  0  0  0
  -21.6244  -20.6002   21.3009 C   0  0  0  0  0  0  0  0  0  0  0  0
  -21.7539  -26.0713   25.0320 C   0  0  0  0  0  0  0  0  0  0  0  0
  -21.8097  -23.5726   24.8860 C   0  0  0  0  0  0  0  0  0  0  0  0
  -19.8113  -24.8235   24.0709 C   0  0  0  0  0  0  0  0  0  0  0  0
  -31.7184  -27.1235   18.4889 C   0  0  0  0  0  0  0  0  0  0  0  0
  -31.5854  -27.3114   20.9688 C   0  0  0  0  0  0  0  0  0  0  0  0
  -23.0020  -22.6594   18.4133 C   0  0  0  0  0  0  0  0  0  0  0  0
  -30.4204  -25.4042   19.8613 C   0  0  0  0  0  0  0  0  0  0  0  0
  -29.5553  -27.8135   19.5784 C   0  0  0  0  0  0  0  0  0  1  0  0
  -21.9565  -24.9088   22.7356 C   0  0  1  0  0  0  0  0  0  0  0  0
  -21.8536  -21.8617   20.4830 C   0  0  2  0  0  0  0  0  0  0  0  0
  -21.3521  -24.8598   24.1673 C   0  0  0  0  0  0  0  0  0  0  0  0
  -30.7966  -26.9029   19.7020 C   0  0  0  0  0  0  0  0  0  0  0  0
  -28.3614  -14.7789   21.2980 N   0  0  0  0  0  0  0  0  0  0  0  0
  -29.6430  -15.0776   21.0251 N   0  0  0  0  0  0  0  0  0  0  0  0
  -22.6139  -26.9929   21.5745 N   0  0  0  0  0  0  0  0  0  0  0  0
  -29.8479  -18.6431   22.3773 N   0  0  0  0  0  0  0  0  0  0  0  0
  -31.5446  -14.3250   19.8300 N   0  0  0  0  0  0  0  0  0  0  0  0
  -28.4263  -11.1914   18.9065 N   0  0  0  0  0  0  0  0  0  0  0  0
  -29.3163  -20.0127   20.5323 N   0  0  0  0  0  0  0  0  0  0  0  0
  -21.1944  -29.9192   22.4641 N   0  0  0  0  0  0  0  0  0  0  0  0
  -21.5708  -23.7877   21.8855 N   0  0  0  0  0  0  0  0  0  0  0  0
  -22.7147  -21.5158   19.3169 N   0  3  0  0  0  0  0  0  0  0  0  0
  -29.3660  -25.3514   17.6772 O   0  0  0  0  0  0  0  0  0  0  0  0
  -30.6021  -11.8171   18.5419 O   0  0  0  0  0  0  0  0  0  0  0  0
  -23.4642  -29.4671   22.7212 O   0  0  0  0  0  0  0  0  0  0  0  0
  -20.3711  -26.3870   21.7724 O   0  0  0  0  0  0  0  0  0  0  0  0
  -23.7242  -23.0440   21.4528 O   0  0  0  0  0  0  0  0  0  0  0  0
  -30.4609  -20.8719   22.3581 O   0  0  0  0  0  0  0  0  0  0  0  0
  -23.1796  -11.1145   20.7778 O   0  0  0  0  0  0  0  0  0  0  0  0
  -28.6848  -27.6452   20.6966 O   0  0  0  0  0  0  0  0  0  1  0  0
  -23.0985   -5.6511   21.5181 F   0  0  0  0  0  0  0  0  0  0  0  0
  -21.8953   -9.9973   22.9561 F   0  0  0  0  0  0  0  0  0  0  0  0
  -28.4380  -20.9708   18.1953 S   0  0  0  0  0  0  0  0  0  0  0  0
  1  2  1  0  0  0  0
  1  5  2  0  0  0  0
  2  6  2  0  0  0  0
  3  8  2  0  0  0  0
  3 17  1  0  0  0  0
  4  9  1  0  0  0  0
  4 17  2  0  0  0  0
  5 20  1  0  0  0  0
  6 22  1  0  0  0  0
  7 10  2  0  0  0  0
  7 21  1  0  0  0  0
  8 24  1  0  0  0  0
  9 24  2  0  0  0  0
 10 25  1  0  0  0  0
 11 12  2  0  0  0  0
 11 26  1  0  0  0  0
 12 27  1  0  0  0  0
 13 18  1  0  0  0  0
 13 31  2  0  0  0  0
 14 23  1  0  0  0  0
 14 25  2  0  0  0  0
 15 27  2  0  0  0  0
 15 28  1  0  0  0  0
 16 18  2  0  0  0  0
 16 83  1  0  0  0  0
 17 29  1  0  0  0  0
 18 32  1  0  0  0  0
 19 29  1  0  0  0  0
 19 30  2  0  0  0  0
 19 33  1  0  0  0  0
 20 22  2  0  0  0  0
 20 38  1  0  0  0  0
 21 23  2  0  0  0  0
 21 39  1  0  0  0  0
 22 47  1  0  0  0  0
 23 40  1  0  0  0  0
 24 79  1  0  0  0  0
 25 80  1  0  0  0  0
 26 28  2  0  0  0  0
 26 79  1  0  0  0  0
 27 81  1  0  0  0  0
 28 82  1  0  0  0  0
 29 63  2  0  0  0  0
 30 64  1  0  0  0  0
 30 67  1  0  0  0  0
 31 69  1  0  0  0  0
 31 83  1  0  0  0  0
 32 57  1  0  0  0  0
 32 73  2  0  0  0  0
 33 68  1  0  0  0  0
 33 74  2  0  0  0  0
 34 48  1  0  0  0  0
 34 70  1  0  0  0  0
 34 75  2  0  0  0  0
 35 59  1  0  0  0  0
 35 65  1  0  0  0  0
 35 76  2  0  0  0  0
 36 60  1  0  0  0  0
 36 71  1  0  0  0  0
 36 77  2  0  0  0  0
 37 66  1  0  0  0  0
 37 69  1  0  0  0  0
 37 78  2  0  0  0  0
 38 41  1  0  0  0  0
 39 48  1  0  0  0  0
 40 65  1  0  0  0  0
 41 43  1  0  0  0  0
 42 44  1  0  0  0  0
 42 45  1  0  0  0  0
 43 47  1  0  0  0  0
 44 49  1  0  0  0  0
 45 66  1  0  0  0  0
 46 49  1  0  0  0  0
 46 66  1  0  0  0  0
 47 70  1  0  0  0  0
 48 65  1  0  0  0  0
 49 64  1  0  0  0  0
 50 60  1  0  0  0  0
 51 61  1  0  0  0  0
 52 61  1  0  0  0  0
 53 61  1  0  0  0  0
 54 62  1  0  0  0  0
 55 62  1  0  0  0  0
 56 72  1  0  0  0  0
 57 62  1  0  0  0  0
 58 62  1  0  0  0  0
 58 80  1  0  0  0  0
 59 61  1  0  0  0  0
 59 71  1  0  0  0  0
 60 72  1  0  0  0  0
 63 64  1  0  0  0  0
M  CHG  1  72   1
M  ISO  4  37 100  58 101  69 100  80 101
M  END
> <Batch ID>
0147

> <Smiles>
CNC(C)C(=O)NC(C(=O)N1Cc2cc([101O:1][101CH2:1]C(C)(C)CC(=O)c3csc([100NH:0][100C:0](=O)N4CCCC(n5nc(-c6ccc(Oc7ccc(F)cc7F)cc6)c(C(N)=O)c5N)C4)c3)ccc2CC1C(=O)NC1CCCc2ccccc21)C(C)(C)C

> <Shape>
0.306

> <Color>
0.087

> <Negative vol penalty>
0.000

$$$$

  -OEChem-04052303133D

 85 94  0     1  0  0  0  0  0999 V2000
  -23.2726   -8.4738   25.0309 C   0  0  0  0  0  0  0  0  0  0  0  0
  -24.3298   -9.3544   25.2362 C   0  0  0  0  0  0  0  0  0  0  0  0
  -28.1591  -25.2285   17.3873 C   0  0  0  0  0  0  0  0  0  0  0  0
  -24.2734  -31.8451   23.1282 C   0  0  0  0  0  0  0  0  0  0  0  0
  -24.1650  -30.7201   25.2636 C   0  0  0  0  0  0  0  0  0  0  0  0
  -22.7291   -8.3241   23.7557 C   0  0  0  0  0  0  0  0  0  0  0  0
  -24.8450  -10.0851   24.1661 C   0  0  0  0  0  0  0  0  0  0  0  0
  -27.8212  -16.4226   22.6516 C   0  0  0  0  0  0  0  0  0  0  0  0
  -28.9287  -24.0685   17.4756 C   0  0  0  0  0  0  0  0  0  0  0  0
  -27.0805  -25.4174   18.2515 C   0  0  0  0  0  0  0  0  0  0  0  0
  -24.9662  -32.9013   23.7198 C   0  0  0  0  0  0  0  0  0  0  0  0
  -24.8579  -31.7763   25.8552 C   0  0  0  0  0  0  0  0  0  0  0  0
  -28.9428  -16.9634   22.0245 C   0  0  0  0  0  0  0  0  0  0  0  0
  -24.2404  -35.6057   25.6130 C   0  0  0  0  0  0  0  0  0  0  0  0
  -23.8432  -36.9028   25.2885 C   0  0  0  0  0  0  0  0  0  0  0  0
  -27.8725  -16.6823   19.8810 C   0  0  0  0  0  0  0  0  0  0  0  0
  -27.5411  -23.2862   19.2922 C   0  0  0  0  0  0  0  0  0  0  0  0
  -26.0492  -37.3599   24.4156 C   0  0  0  0  0  0  0  0  0  0  0  0
  -23.8728  -30.7545   23.9001 C   0  0  0  0  0  0  0  0  0  0  0  0
  -21.9169  -29.7259   22.6256 C   0  0  0  0  0  0  0  0  0  0  0  0
  -23.2315   -9.0605   22.6713 C   0  0  0  0  0  0  0  0  0  0  0  0
  -26.7194  -15.9967   21.8959 C   0  0  0  0  0  0  0  0  0  0  0  0
  -24.3086   -9.9441   22.8750 C   0  0  0  0  0  0  0  0  0  0  0  0
  -26.7371  -16.1387   20.5011 C   0  0  0  0  0  0  0  0  0  0  0  0
  -28.6197  -23.0974   18.4280 C   0  0  0  0  0  0  0  0  0  0  0  0
  -26.7716  -24.4462   19.2039 C   0  0  0  0  0  0  0  0  0  0  0  0
  -25.2584  -32.8669   25.0833 C   0  0  0  0  0  0  0  0  0  0  0  0
  -28.9698  -17.0907   20.6387 C   0  0  0  0  0  0  0  0  0  0  0  0
  -25.5421  -35.1857   25.3388 C   0  0  0  0  0  0  0  0  0  0  0  0
  -24.7475  -37.7799   24.6898 C   0  0  0  0  0  0  0  0  0  0  0  0
  -26.4464  -36.0628   24.7401 C   0  0  0  0  0  0  0  0  0  0  0  0
  -23.1566  -29.6633   23.2897 C   0  0  0  0  0  0  0  0  0  0  0  0
  -21.6726  -28.4330   22.2320 C   0  0  0  0  0  0  0  0  0  0  0  0
  -21.0626  -30.8522   22.3860 C   0  0  0  0  0  0  0  0  0  0  0  0
  -25.2563  -13.2126   21.4356 C   0  0  0  0  0  0  0  0  0  0  0  0
  -23.1451  -15.0385   19.7830 C   0  0  0  0  0  0  0  0  0  0  0  0
  -23.3013  -17.7945   17.4597 C   0  0  0  0  0  0  0  0  0  0  0  0
  -25.2329  -23.7739   21.0819 C   0  0  0  0  0  0  0  0  0  0  0  0
  -22.6426   -8.8299   21.3021 C   0  0  0  0  0  0  0  0  0  0  0  0
  -25.5063  -15.4401   22.5896 C   0  0  0  0  0  0  0  0  0  0  0  0
  -25.5717  -15.7154   19.6460 C   0  0  0  0  0  0  0  0  0  0  0  0
  -22.9996   -9.9193   20.2941 C   0  0  0  0  0  0  0  0  0  0  0  0
  -22.5991  -23.9017   23.4743 C   0  0  0  0  0  0  0  0  0  0  0  0
  -24.4895  -10.2399   20.3599 C   0  0  0  0  0  0  0  0  0  0  0  0
  -22.3262  -25.3991   23.6335 C   0  0  0  0  0  0  0  0  0  0  0  0
  -30.7184  -20.2085   17.3476 C   0  0  0  0  0  0  0  0  0  0  0  0
  -30.8219  -20.4182   19.8405 C   0  0  0  0  0  0  0  0  0  0  0  0
  -24.0868  -23.6137   23.2810 C   0  0  0  0  0  0  0  0  0  0  0  0
  -29.4576  -21.0734   17.3282 C   0  0  0  0  0  0  0  0  0  0  0  0
  -29.5606  -21.2831   19.8202 C   0  0  0  0  0  0  0  0  0  0  0  0
  -24.4573  -25.8678   22.3585 C   0  0  0  0  0  0  0  0  0  0  0  0
  -24.8786  -10.7728   21.7442 C   0  0  1  0  0  0  0  0  0  0  0  0
  -24.6482  -14.5644   21.6818 C   0  0  1  0  0  0  0  0  0  0  0  0
  -22.9650  -26.2129   22.4910 C   0  0  2  0  0  0  0  0  0  0  0  0
  -30.9069  -19.4278   18.6630 C   0  0  0  0  0  0  0  0  0  0  0  0
  -32.2948  -18.7616   18.6612 C   0  0  0  0  0  0  0  0  0  0  0  0
  -21.6385  -19.6078   16.9653 C   0  0  0  0  0  0  0  0  0  0  0  0
  -22.2134  -13.1765   17.5526 C   0  0  0  0  0  0  0  0  0  0  0  0
  -21.8833  -15.1913   16.1035 C   0  0  0  0  0  0  0  0  0  0  0  0
  -20.5590  -14.9360   18.2020 C   0  0  0  0  0  0  0  0  0  0  0  0
  -25.2842  -19.9221   18.0073 C   0  0  0  0  0  0  0  0  0  0  0  0
  -29.8460  -18.3198   18.8010 C   0  0  0  0  0  0  0  0  0  1  0  0
  -23.0200  -15.4960   18.3498 C   0  0  1  0  0  0  0  0  0  0  0  0
  -22.8995  -19.2335   17.7285 C   0  0  2  0  0  0  0  0  0  0  0  0
  -21.9443  -14.6946   17.5637 C   0  0  0  0  0  0  0  0  0  0  0  0
  -23.6644  -28.4283   23.3184 N   0  0  0  0  0  0  0  0  0  0  0  0
  -22.7391  -27.7028   22.6675 N   0  0  0  0  0  0  0  0  0  0  0  0
  -29.3934  -21.9324   18.5169 N   0  0  0  0  0  0  0  0  0  0  0  0
  -24.4113  -15.1712   20.3704 N   0  0  0  0  0  0  0  0  0  0  0  0
  -24.6225  -24.4168   22.1796 N   0  0  0  0  0  0  0  0  0  0  0  0
  -20.6516  -27.8607   21.5593 N   0  0  0  0  0  0  0  0  0  0  0  0
  -20.0832  -31.1627   23.3392 N   0  0  0  0  0  0  0  0  0  0  0  0
  -25.6751  -24.6380   20.0807 N   0  0  0  0  0  0  0  0  0  0  0  0
  -24.4830  -12.1580   21.8820 N   0  0  0  0  0  0  0  0  0  0  0  0
  -22.7761  -16.9335   18.4000 N   0  0  0  0  0  0  0  0  0  0  0  0
  -23.9907  -20.1614   17.3170 N   0  3  0  0  0  0  0  0  0  0  0  0
  -21.1540  -31.5523   21.3491 O   0  0  0  0  0  0  0  0  0  0  0  0
  -26.3458  -13.1323   20.8804 O   0  0  0  0  0  0  0  0  0  0  0  0
  -22.1541  -14.5869   20.3624 O   0  0  0  0  0  0  0  0  0  0  0  0
  -24.0071  -17.4665   16.5085 O   0  0  0  0  0  0  0  0  0  0  0  0
  -25.3300  -22.5456   21.0211 O   0  0  0  0  0  0  0  0  0  0  0  0
  -25.9347  -33.8973   25.6608 O   0  0  0  0  0  0  0  0  0  0  0  0
  -30.0635  -17.6177   20.0241 O   0  0  0  0  0  0  0  0  0  1  0  0
  -24.3655  -39.0250   24.3769 F   0  0  0  0  0  0  0  0  0  0  0  0
  -27.6978  -35.6647   24.4732 F   0  0  0  0  0  0  0  0  0  0  0  0
  1  2  1  0  0  0  0
  1  6  2  0  0  0  0
  2  7  2  0  0  0  0
  3  9  2  0  0  0  0
  3 10  1  0  0  0  0
  4 11  2  0  0  0  0
  4 19  1  0  0  0  0
  5 12  1  0  0  0  0
  5 19  2  0  0  0  0
  6 21  1  0  0  0  0
  7 23  1  0  0  0  0
  8 13  2  0  0  0  0
  8 22  1  0  0  0  0
  9 25  1  0  0  0  0
 10 26  2  0  0  0  0
 11 27  1  0  0  0  0
 12 27  2  0  0  0  0
 13 28  1  0  0  0  0
 14 15  2  0  0  0  0
 14 29  1  0  0  0  0
 15 30  1  0  0  0  0
 16 24  1  0  0  0  0
 16 28  2  0  0  0  0
 17 25  2  0  0  0  0
 17 26  1  0  0  0  0
 18 30  2  0  0  0  0
 18 31  1  0  0  0  0
 19 32  1  0  0  0  0
 20 32  1  0  0  0  0
 20 33  2  0  0  0  0
 20 34  1  0  0  0  0
 21 23  2  0  0  0  0
 21 39  1  0  0  0  0
 22 24  2  0  0  0  0
 22 40  1  0  0  0  0
 23 52  1  0  0  0  0
 24 41  1  0  0  0  0
 25 68  1  0  0  0  0
 26 73  1  0  0  0  0
 27 82  1  0  0  0  0
 28 83  1  0  0  0  0
 29 31  2  0  0  0  0
 29 82  1  0  0  0  0
 30 84  1  0  0  0  0
 31 85  1  0  0  0  0
 32 66  2  0  0  0  0
 33 67  1  0  0  0  0
 33 71  1  0  0  0  0
 34 72  1  0  0  0  0
 34 77  2  0  0  0  0
 35 53  1  0  0  0  0
 35 74  1  0  0  0  0
 35 78  2  0  0  0  0
 36 63  1  0  0  0  0
 36 69  1  0  0  0  0
 36 79  2  0  0  0  0
 37 64  1  0  0  0  0
 37 75  1  0  0  0  0
 37 80  2  0  0  0  0
 38 70  1  0  0  0  0
 38 73  1  0  0  0  0
 38 81  2  0  0  0  0
 39 42  1  0  0  0  0
 40 53  1  0  0  0  0
 41 69  1  0  0  0  0
 42 44  1  0  0  0  0
 43 45  1  0  0  0  0
 43 48  1  0  0  0  0
 44 52  1  0  0  0  0
 45 54  1  0  0  0  0
 46 49  1  0  0  0  0
 46 55  1  0  0  0  0
 47 50  1  0  0  0  0
 47 55  1  0  0  0  0
 48 70  1  0  0  0  0
 49 68  1  0  0  0  0
 50 68  1  0  0  0  0
 51 54  1  0  0  0  0
 51 70  1  0  0  0  0
 52 74  1  0  0  0  0
 53 69  1  0  0  0  0
 54 67  1  0  0  0  0
 55 56  1  0  0  0  0
 55 62  1  0  0  0  0
 57 64  1  0  0  0  0
 58 65  1  0  0  0  0
 59 65  1  0  0  0  0
 60 65  1  0  0  0  0
 61 76  1  0  0  0  0
 62 83  1  0  0  0  0
 63 65  1  0  0  0  0
 63 75  1  0  0  0  0
 64 76  1  0  0  0  0
 66 67  1  0  0  0  0
M  CHG  1  76   1
M  ISO  4  38 100  62 101  73 100  83 101
M  END
> <Batch ID>
0147

> <Smiles>
CNC(C)C(=O)NC(C(=O)N1Cc2cc([101O:1][101CH2:1]C3(C)CCN(c4cccc([100NH:0][100C:0](=O)N5CCCC(n6nc(-c7ccc(Oc8ccc(F)cc8F)cc7)c(C(N)=O)c6N)C5)c4)CC3)ccc2CC1C(=O)NC1CCCc2ccccc21)C(C)(C)C

> <Shape>
0.223

> <Color>
0.061

> <Negative vol penalty>
0.000

$$$$

  -OEChem-04052303133D

 83 92  0     1  0  0  0  0  0999 V2000
  -24.4002  -38.8738   21.7271 C   0  0  0  0  0  0  0  0  0  0  0  0
  -24.3955  -38.0067   20.6404 C   0  0  0  0  0  0  0  0  0  0  0  0
  -23.5312   -9.4613   22.5868 C   0  0  0  0  0  0  0  0  0  0  0  0
  -24.5143   -8.8266   20.4731 C   0  0  0  0  0  0  0  0  0  0  0  0
  -24.8675  -38.4332   22.9635 C   0  0  0  0  0  0  0  0  0  0  0  0
  -24.8469  -36.6952   20.7925 C   0  0  0  0  0  0  0  0  0  0  0  0
  -26.6921  -29.2582   18.6692 C   0  0  0  0  0  0  0  0  0  0  0  0
  -23.5637   -8.1300   23.0017 C   0  0  0  0  0  0  0  0  0  0  0  0
  -24.5469   -7.4953   20.8880 C   0  0  0  0  0  0  0  0  0  0  0  0
  -27.4401  -28.1453   19.0509 C   0  0  0  0  0  0  0  0  0  0  0  0
  -21.7570   -5.3187   22.4949 C   0  0  0  0  0  0  0  0  0  0  0  0
  -20.6184   -4.8065   23.1169 C   0  0  0  0  0  0  0  0  0  0  0  0
  -26.3318  -28.1428   21.1935 C   0  0  0  0  0  0  0  0  0  0  0  0
  -26.1602  -20.2921   21.1887 C   0  0  0  0  0  0  0  0  0  0  0  0
  -21.9146   -4.3335   25.1002 C   0  0  0  0  0  0  0  0  0  0  0  0
  -24.2018  -21.0538   22.1820 C   0  0  0  0  0  0  0  0  0  0  0  0
  -24.0065   -9.8096   21.3224 C   0  0  0  0  0  0  0  0  0  0  0  0
  -22.8369  -12.0056   20.7589 C   0  0  0  0  0  0  0  0  0  0  0  0
  -25.3363  -37.1192   23.1269 C   0  0  0  0  0  0  0  0  0  0  0  0
  -25.7646  -29.8294   19.5523 C   0  0  0  0  0  0  0  0  0  0  0  0
  -25.3001  -36.2245   22.0381 C   0  0  0  0  0  0  0  0  0  0  0  0
  -25.5714  -29.2614   20.8197 C   0  0  0  0  0  0  0  0  0  0  0  0
  -25.4005  -21.4210   21.6112 C   0  0  0  0  0  0  0  0  0  0  0  0
  -24.0716   -7.1470   22.1523 C   0  0  0  0  0  0  0  0  0  0  0  0
  -27.2621  -27.5892   20.3143 C   0  0  0  0  0  0  0  0  0  0  0  0
  -22.9744   -5.3382   23.1755 C   0  0  0  0  0  0  0  0  0  0  0  0
  -20.6972   -4.3139   24.4195 C   0  0  0  0  0  0  0  0  0  0  0  0
  -23.0532   -4.8457   24.4781 C   0  0  0  0  0  0  0  0  0  0  0  0
  -23.9726  -11.1846   20.8931 C   0  0  0  0  0  0  0  0  0  0  0  0
  -23.3335  -13.2104   20.3252 C   0  0  0  0  0  0  0  0  0  0  0  0
  -25.5131  -19.1049   21.4528 C   0  0  0  0  0  0  0  0  0  0  0  0
  -21.4565  -11.7059   21.0046 C   0  0  0  0  0  0  0  0  0  0  0  0
  -25.4519  -32.6668   20.9505 C   0  0  0  0  0  0  0  0  0  0  0  0
  -22.6296  -31.4246   21.9575 C   0  0  0  0  0  0  0  0  0  0  0  0
  -21.4487  -28.2608   23.2276 C   0  0  0  0  0  0  0  0  0  0  0  0
  -27.0785  -17.3211   20.6078 C   0  0  0  0  0  0  0  0  0  0  0  0
  -25.8237  -36.6925   24.4891 C   0  0  0  0  0  0  0  0  0  0  0  0
  -24.9464  -31.0135   19.1155 C   0  0  0  0  0  0  0  0  0  0  0  0
  -24.5738  -29.8246   21.7974 C   0  0  0  0  0  0  0  0  0  0  0  0
  -26.6886  -35.4370   24.4447 C   0  0  0  0  0  0  0  0  0  0  0  0
  -27.9477  -14.4662   18.6658 C   0  0  0  0  0  0  0  0  0  0  0  0
  -26.1087  -23.2832   19.9920 C   0  0  0  0  0  0  0  0  0  0  0  0
  -25.9947  -34.3565   23.6289 C   0  0  0  0  0  0  0  0  0  0  0  0
  -26.8976  -13.4255   19.0611 C   0  0  0  0  0  0  0  0  0  0  0  0
  -27.5723  -23.7149   19.9273 C   0  0  0  0  0  0  0  0  0  0  0  0
  -27.1707  -23.1435   22.2064 C   0  0  0  0  0  0  0  0  0  0  0  0
  -28.3632  -15.3322   19.8538 C   0  0  0  0  0  0  0  0  0  0  0  0
  -26.2044  -14.9295   20.9702 C   0  0  0  0  0  0  0  0  0  0  0  0
  -25.8579  -22.8538   21.4517 C   0  0  2  0  0  0  0  0  0  0  0  0
  -25.8148  -34.8027   22.1724 C   0  0  1  0  0  0  0  0  0  0  0  0
  -24.3993  -31.8259   20.2852 C   0  0  1  0  0  0  0  0  0  0  0  0
  -25.7068  -14.0760   19.7922 C   0  0  2  0  0  0  0  0  0  0  0  0
  -27.9111  -24.1821   21.3493 C   0  0  1  0  0  0  0  0  0  0  0  0
  -29.4200  -24.1498   21.6038 C   0  0  0  0  0  0  0  0  0  0  0  0
  -19.1701  -27.2136   23.1351 C   0  0  0  0  0  0  0  0  0  0  0  0
  -22.2504  -32.6988   24.7039 C   0  0  0  0  0  0  0  0  0  0  0  0
  -21.0080  -30.6427   25.4091 C   0  0  0  0  0  0  0  0  0  0  0  0
  -20.1269  -32.0543   23.5506 C   0  0  0  0  0  0  0  0  0  0  0  0
  -22.5011  -25.8066   21.9517 C   0  0  0  0  0  0  0  0  0  0  0  0
  -27.3850  -25.6020   21.6151 C   0  0  0  0  0  0  0  0  0  1  0  0
  -22.1794  -30.6306   23.1599 C   0  0  1  0  0  0  0  0  0  0  0  0
  -20.5538  -27.2690   22.5066 C   0  0  2  0  0  0  0  0  0  0  0  0
  -21.4178  -31.5048   24.1959 C   0  0  0  0  0  0  0  0  0  0  0  0
  -25.1053  -11.8146   20.5704 N   0  0  0  0  0  0  0  0  0  0  0  0
  -24.6838  -13.0443   20.2292 N   0  0  0  0  0  0  0  0  0  0  0  0
  -23.8024  -30.9866   21.3261 N   0  0  0  0  0  0  0  0  0  0  0  0
  -27.1839  -15.9187   20.4941 N   0  0  0  0  0  0  0  0  0  0  0  0
  -22.7424  -14.3852   20.0202 N   0  0  0  0  0  0  0  0  0  0  0  0
  -21.1206  -10.4190   21.4467 N   0  0  0  0  0  0  0  0  0  0  0  0
  -25.8988  -17.7642   21.2048 N   0  0  0  0  0  0  0  0  0  0  0  0
  -24.9733  -33.8471   21.4864 N   0  0  0  0  0  0  0  0  0  0  0  0
  -21.4053  -29.5080   22.6413 N   0  0  0  0  0  0  0  0  0  0  0  0
  -21.1480  -25.9033   22.5572 N   0  3  0  0  0  0  0  0  0  0  0  0
  -20.5461  -12.5491   20.8213 O   0  0  0  0  0  0  0  0  0  0  0  0
  -26.6121  -32.2732   20.9769 O   0  0  0  0  0  0  0  0  0  0  0  0
  -21.9614  -32.3933   21.5876 O   0  0  0  0  0  0  0  0  0  0  0  0
  -22.1165  -27.9603   24.2147 O   0  0  0  0  0  0  0  0  0  0  0  0
  -27.9569  -18.0747   20.1805 O   0  0  0  0  0  0  0  0  0  0  0  0
  -24.1037   -5.8478   22.5569 O   0  0  0  0  0  0  0  0  0  0  0  0
  -27.9913  -26.5033   20.6897 O   0  0  0  0  0  0  0  0  0  1  0  0
  -19.6034   -3.8235   25.0173 F   0  0  0  0  0  0  0  0  0  0  0  0
  -24.2198   -4.8629   25.1375 F   0  0  0  0  0  0  0  0  0  0  0  0
  -23.9961  -19.3540   22.2070 S   0  0  0  0  0  0  0  0  0  0  0  0
  1  2  1  0  0  0  0
  1  5  2  0  0  0  0
  2  6  2  0  0  0  0
  3  8  2  0  0  0  0
  3 17  1  0  0  0  0
  4  9  1  0  0  0  0
  4 17  2  0  0  0  0
  5 19  1  0  0  0  0
  6 21  1  0  0  0  0
  7 10  2  0  0  0  0
  7 20  1  0  0  0  0
  8 24  1  0  0  0  0
  9 24  2  0  0  0  0
 10 25  1  0  0  0  0
 11 12  2  0  0  0  0
 11 26  1  0  0  0  0
 12 27  1  0  0  0  0
 13 22  1  0  0  0  0
 13 25  2  0  0  0  0
 14 23  1  0  0  0  0
 14 31  2  0  0  0  0
 15 27  2  0  0  0  0
 15 28  1  0  0  0  0
 16 23  2  0  0  0  0
 16 83  1  0  0  0  0
 17 29  1  0  0  0  0
 18 29  1  0  0  0  0
 18 30  2  0  0  0  0
 18 32  1  0  0  0  0
 19 21  2  0  0  0  0
 19 37  1  0  0  0  0
 20 22  2  0  0  0  0
 20 38  1  0  0  0  0
 21 50  1  0  0  0  0
 22 39  1  0  0  0  0
 23 49  1  0  0  0  0
 24 79  1  0  0  0  0
 25 80  1  0  0  0  0
 26 28  2  0  0  0  0
 26 79  1  0  0  0  0
 27 81  1  0  0  0  0
 28 82  1  0  0  0  0
 29 64  2  0  0  0  0
 30 65  1  0  0  0  0
 30 68  1  0  0  0  0
 31 70  1  0  0  0  0
 31 83  1  0  0  0  0
 32 69  1  0  0  0  0
 32 74  2  0  0  0  0
 33 51  1  0  0  0  0
 33 71  1  0  0  0  0
 33 75  2  0  0  0  0
 34 61  1  0  0  0  0
 34 66  1  0  0  0  0
 34 76  2  0  0  0  0
 35 62  1  0  0  0  0
 35 72  1  0  0  0  0
 35 77  2  0  0  0  0
 36 67  1  0  0  0  0
 36 70  1  0  0  0  0
 36 78  2  0  0  0  0
 37 40  1  0  0  0  0
 38 51  1  0  0  0  0
 39 66  1  0  0  0  0
 40 43  1  0  0  0  0
 41 44  1  0  0  0  0
 41 47  1  0  0  0  0
 42 45  1  0  0  0  0
 42 49  1  0  0  0  0
 43 50  1  0  0  0  0
 44 52  1  0  0  0  0
 45 53  1  0  0  0  0
 46 49  1  0  0  0  0
 46 53  1  0  0  0  0
 47 67  1  0  0  0  0
 48 52  1  0  0  0  0
 48 67  1  0  0  0  0
 50 71  1  0  0  0  0
 51 66  1  0  0  0  0
 52 65  1  0  0  0  0
 53 54  1  0  0  0  0
 53 60  1  0  0  0  0
 55 62  1  0  0  0  0
 56 63  1  0  0  0  0
 57 63  1  0  0  0  0
 58 63  1  0  0  0  0
 59 73  1  0  0  0  0
 60 80  1  0  0  0  0
 61 63  1  0  0  0  0
 61 72  1  0  0  0  0
 62 73  1  0  0  0  0
 64 65  1  0  0  0  0
M  CHG  1  73   1
M  ISO  4  36 100  60 101  70 100  80 101
M  END
> <Batch ID>
0147

> <Smiles>
CNC(C)C(=O)NC(C(=O)N1Cc2cc([101O:1][101CH2:1]C3(C)CCC(c4csc([100NH:0][100C:0](=O)N5CCCC(n6nc(-c7ccc(Oc8ccc(F)cc8F)cc7)c(C(N)=O)c6N)C5)c4)C3)ccc2CC1C(=O)NC1CCCc2ccccc21)C(C)(C)C

> <Shape>
0.267

> <Color>
0.101

> <Negative vol penalty>
0.000

$$$$

  -OEChem-04052303133D

 84 93  0     1  0  0  0  0  0999 V2000
  -28.1495  -32.5473   27.0502 C   0  0  0  0  0  0  0  0  0  0  0  0
  -28.2179  -31.4241   26.2321 C   0  0  0  0  0  0  0  0  0  0  0  0
  -23.5152   -9.7614   22.0498 C   0  0  0  0  0  0  0  0  0  0  0  0
  -23.3042  -12.1651   22.1705 C   0  0  0  0  0  0  0  0  0  0  0  0
  -26.9121  -33.1152   27.3505 C   0  0  0  0  0  0  0  0  0  0  0  0
  -27.0487  -30.8676   25.7147 C   0  0  0  0  0  0  0  0  0  0  0  0
  -26.8141  -19.6852   18.8143 C   0  0  0  0  0  0  0  0  0  0  0  0
  -29.1175  -19.9201   19.5043 C   0  0  0  0  0  0  0  0  0  0  0  0
  -27.4600  -29.7011   20.8040 C   0  0  0  0  0  0  0  0  0  0  0  0
  -26.9769  -18.3018   18.7415 C   0  0  0  0  0  0  0  0  0  0  0  0
  -29.2803  -18.5367   19.4316 C   0  0  0  0  0  0  0  0  0  0  0  0
  -22.6361   -9.6302   23.1247 C   0  0  0  0  0  0  0  0  0  0  0  0
  -22.4251  -12.0339   23.2455 C   0  0  0  0  0  0  0  0  0  0  0  0
  -28.1497  -28.5329   20.4827 C   0  0  0  0  0  0  0  0  0  0  0  0
  -19.2973   -9.7614   23.6426 C   0  0  0  0  0  0  0  0  0  0  0  0
  -18.2900   -8.8018   23.5428 C   0  0  0  0  0  0  0  0  0  0  0  0
  -26.0506  -27.3781   20.2012 C   0  0  0  0  0  0  0  0  0  0  0  0
  -19.1559   -7.6890   25.5048 C   0  0  0  0  0  0  0  0  0  0  0  0
  -23.8493  -11.0288   21.5726 C   0  0  0  0  0  0  0  0  0  0  0  0
  -24.5935  -10.6522   19.1619 C   0  0  0  0  0  0  0  0  0  0  0  0
  -27.8844  -20.4944   19.1956 C   0  0  0  0  0  0  0  0  0  0  0  0
  -25.7279  -32.5711   26.8287 C   0  0  0  0  0  0  0  0  0  0  0  0
  -26.0581  -29.7138   20.8371 C   0  0  0  0  0  0  0  0  0  0  0  0
  -25.7942  -31.4279   26.0095 C   0  0  0  0  0  0  0  0  0  0  0  0
  -25.3454  -28.5485   20.5207 C   0  0  0  0  0  0  0  0  0  0  0  0
  -28.2100  -17.7275   19.0502 C   0  0  0  0  0  0  0  0  0  0  0  0
  -22.0910  -10.7665   23.7226 C   0  0  0  0  0  0  0  0  0  0  0  0
  -27.4451  -27.3704   20.1840 C   0  0  0  0  0  0  0  0  0  0  0  0
  -20.2340   -9.6849   24.6733 C   0  0  0  0  0  0  0  0  0  0  0  0
  -18.2193   -7.7656   24.4739 C   0  0  0  0  0  0  0  0  0  0  0  0
  -20.1633   -8.6487   25.6044 C   0  0  0  0  0  0  0  0  0  0  0  0
  -24.7577  -11.1650   20.4626 C   0  0  0  0  0  0  0  0  0  0  0  0
  -25.7229  -11.0519   18.4901 C   0  0  0  0  0  0  0  0  0  0  0  0
  -23.5164   -9.8834   18.6102 C   0  0  0  0  0  0  0  0  0  0  0  0
  -23.8721  -30.2524   23.0809 C   0  0  0  0  0  0  0  0  0  0  0  0
  -21.8155  -30.0198   20.5831 C   0  0  0  0  0  0  0  0  0  0  0  0
  -21.4356  -27.9234   17.6713 C   0  0  0  0  0  0  0  0  0  0  0  0
  -29.5322  -15.5925   19.2497 C   0  0  0  0  0  0  0  0  0  0  0  0
  -24.4100  -33.1915   27.2197 C   0  0  0  0  0  0  0  0  0  0  0  0
  -25.3286  -30.9891   21.1595 C   0  0  0  0  0  0  0  0  0  0  0  0
  -23.8396  -28.5148   20.5223 C   0  0  0  0  0  0  0  0  0  0  0  0
  -23.2473  -32.7648   26.3273 C   0  0  0  0  0  0  0  0  0  0  0  0
  -30.3329  -12.1233   19.2212 C   0  0  0  0  0  0  0  0  0  0  0  0
  -28.6395  -22.7950   18.3423 C   0  0  0  0  0  0  0  0  0  0  0  0
  -23.2635  -31.2543   26.1153 C   0  0  0  0  0  0  0  0  0  0  0  0
  -28.9783  -11.4371   19.4119 C   0  0  0  0  0  0  0  0  0  0  0  0
  -29.4580  -23.7092   19.2519 C   0  0  0  0  0  0  0  0  0  0  0  0
  -27.9566  -22.5460   20.6924 C   0  0  0  0  0  0  0  0  0  0  0  0
  -30.4342  -13.4135   20.0329 C   0  0  0  0  0  0  0  0  0  0  0  0
  -27.9855  -13.6831   20.0094 C   0  0  0  0  0  0  0  0  0  0  0  0
  -27.7077  -21.9944   19.2744 C   0  0  2  0  0  0  0  0  0  0  0  0
  -24.5501  -30.8101   25.4090 C   0  0  1  0  0  0  0  0  0  0  0  0
  -23.9086  -30.7536   21.6649 C   0  0  1  0  0  0  0  0  0  0  0  0
  -27.8119  -12.4128   19.1608 C   0  0  2  0  0  0  0  0  0  0  0  0
  -28.5725  -23.9385   20.4840 C   0  0  1  0  0  0  0  0  0  0  0  0
  -29.4011  -24.3748   21.6947 C   0  0  0  0  0  0  0  0  0  0  0  0
  -20.3648  -28.3936   15.4510 C   0  0  0  0  0  0  0  0  0  0  0  0
  -19.3337  -28.7677   21.8411 C   0  0  0  0  0  0  0  0  0  0  0  0
  -18.8434  -27.6915   19.6343 C   0  0  0  0  0  0  0  0  0  0  0  0
  -18.8830  -30.1784   19.8258 C   0  0  0  0  0  0  0  0  0  0  0  0
  -23.8943  -27.1853   16.1987 C   0  0  0  0  0  0  0  0  0  0  0  0
  -27.4877  -24.9927   20.2088 C   0  0  0  0  0  0  0  0  0  1  0  0
  -21.0579  -28.8929   19.9234 C   0  0  1  0  0  0  0  0  0  0  0  0
  -21.6714  -28.3239   16.2262 C   0  0  2  0  0  0  0  0  0  0  0  0
  -19.5544  -28.8782   20.3192 C   0  0  0  0  0  0  0  0  0  0  0  0
  -25.9014  -11.8389   20.6106 N   0  0  0  0  0  0  0  0  0  0  0  0
  -26.4661  -11.7523   19.3942 N   0  0  0  0  0  0  0  0  0  0  0  0
  -23.1719  -29.7854   20.8500 N   0  0  0  0  0  0  0  0  0  0  0  0
  -29.2983  -14.2904   19.7402 N   0  0  0  0  0  0  0  0  0  0  0  0
  -26.1428  -10.8691   17.2202 N   0  0  0  0  0  0  0  0  0  0  0  0
  -22.4457  -10.5645   18.0151 N   0  0  0  0  0  0  0  0  0  0  0  0
  -28.3757  -16.3222   18.9767 N   0  0  0  0  0  0  0  0  0  0  0  0
  -24.4744  -31.0981   23.9928 N   0  0  0  0  0  0  0  0  0  0  0  0
  -21.2973  -29.0241   18.4903 N   0  0  0  0  0  0  0  0  0  0  0  0
  -22.5644  -27.3378   15.5545 N   0  3  0  0  0  0  0  0  0  0  0  0
  -23.4960   -8.6301   18.6584 O   0  0  0  0  0  0  0  0  0  0  0  0
  -23.3358  -29.1786   23.3281 O   0  0  0  0  0  0  0  0  0  0  0  0
  -21.2274  -31.0719   20.8452 O   0  0  0  0  0  0  0  0  0  0  0  0
  -21.3760  -26.7514   18.0365 O   0  0  0  0  0  0  0  0  0  0  0  0
  -30.6741  -16.0185   19.0582 O   0  0  0  0  0  0  0  0  0  0  0  0
  -21.2330  -10.6388   24.7714 O   0  0  0  0  0  0  0  0  0  0  0  0
  -28.1159  -26.2286   19.8707 O   0  0  0  0  0  0  0  0  0  1  0  0
  -17.2510   -6.8450   24.3790 F   0  0  0  0  0  0  0  0  0  0  0  0
  -21.0596   -8.5705   26.5976 F   0  0  0  0  0  0  0  0  0  0  0  0
  1  2  1  0  0  0  0
  1  5  2  0  0  0  0
  2  6  2  0  0  0  0
  3 12  2  0  0  0  0
  3 19  1  0  0  0  0
  4 13  1  0  0  0  0
  4 19  2  0  0  0  0
  5 22  1  0  0  0  0
  6 24  1  0  0  0  0
  7 10  2  0  0  0  0
  7 21  1  0  0  0  0
  8 11  1  0  0  0  0
  8 21  2  0  0  0  0
  9 14  2  0  0  0  0
  9 23  1  0  0  0  0
 10 26  1  0  0  0  0
 11 26  2  0  0  0  0
 12 27  1  0  0  0  0
 13 27  2  0  0  0  0
 14 28  1  0  0  0  0
 15 16  2  0  0  0  0
 15 29  1  0  0  0  0
 16 30  1  0  0  0  0
 17 25  1  0  0  0  0
 17 28  2  0  0  0  0
 18 30  2  0  0  0  0
 18 31  1  0  0  0  0
 19 32  1  0  0  0  0
 20 32  1  0  0  0  0
 20 33  2  0  0  0  0
 20 34  1  0  0  0  0
 21 51  1  0  0  0  0
 22 24  2  0  0  0  0
 22 39  1  0  0  0  0
 23 25  2  0  0  0  0
 23 40  1  0  0  0  0
 24 52  1  0  0  0  0
 25 41  1  0  0  0  0
 26 72  1  0  0  0  0
 27 81  1  0  0  0  0
 28 82  1  0  0  0  0
 29 31  2  0  0  0  0
 29 81  1  0  0  0  0
 30 83  1  0  0  0  0
 31 84  1  0  0  0  0
 32 66  2  0  0  0  0
 33 67  1  0  0  0  0
 33 70  1  0  0  0  0
 34 71  1  0  0  0  0
 34 76  2  0  0  0  0
 35 53  1  0  0  0  0
 35 73  1  0  0  0  0
 35 77  2  0  0  0  0
 36 63  1  0  0  0  0
 36 68  1  0  0  0  0
 36 78  2  0  0  0  0
 37 64  1  0  0  0  0
 37 74  1  0  0  0  0
 37 79  2  0  0  0  0
 38 69  1  0  0  0  0
 38 72  1  0  0  0  0
 38 80  2  0  0  0  0
 39 42  1  0  0  0  0
 40 53  1  0  0  0  0
 41 68  1  0  0  0  0
 42 45  1  0  0  0  0
 43 46  1  0  0  0  0
 43 49  1  0  0  0  0
 44 47  1  0  0  0  0
 44 51  1  0  0  0  0
 45 52  1  0  0  0  0
 46 54  1  0  0  0  0
 47 55  1  0  0  0  0
 48 51  1  0  0  0  0
 48 55  1  0  0  0  0
 49 69  1  0  0  0  0
 50 54  1  0  0  0  0
 50 69  1  0  0  0  0
 52 73  1  0  0  0  0
 53 68  1  0  0  0  0
 54 67  1  0  0  0  0
 55 56  1  0  0  0  0
 55 62  1  0  0  0  0
 57 64  1  0  0  0  0
 58 65  1  0  0  0  0
 59 65  1  0  0  0  0
 60 65  1  0  0  0  0
 61 75  1  0  0  0  0
 62 82  1  0  0  0  0
 63 65  1  0  0  0  0
 63 74  1  0  0  0  0
 64 75  1  0  0  0  0
 66 67  1  0  0  0  0
M  CHG  1  75   1
M  ISO  4  38 100  62 101  72 100  82 101
M  END
> <Batch ID>
0147

> <Smiles>
CNC(C)C(=O)NC(C(=O)N1Cc2cc([101O:1][101CH2:1]C3(C)CCC(c4ccc([100NH:0][100C:0](=O)N5CCCC(n6nc(-c7ccc(Oc8ccc(F)cc8F)cc7)c(C(N)=O)c6N)C5)cc4)C3)ccc2CC1C(=O)NC1CCCc2ccccc21)C(C)(C)C

> <Shape>
0.274

> <Color>
0.099

> <Negative vol penalty>
0.000

$$$$

  -OEChem-04052303133D

 86 95  0     1  0  0  0  0  0999 V2000
  -32.4300  -14.3085   20.4195 C   0  0  0  0  0  0  0  0  0  0  0  0
  -31.6663  -15.3842   20.8612 C   0  0  0  0  0  0  0  0  0  0  0  0
  -26.6743  -29.1240   21.0734 C   0  0  0  0  0  0  0  0  0  0  0  0
  -24.8498  -27.8667   20.1105 C   0  0  0  0  0  0  0  0  0  0  0  0
  -31.8236  -13.2638   19.7232 C   0  0  0  0  0  0  0  0  0  0  0  0
  -30.2958  -15.4163   20.6059 C   0  0  0  0  0  0  0  0  0  0  0  0
  -25.9297  -17.7266   24.2260 C   0  0  0  0  0  0  0  0  0  0  0  0
  -27.5412  -28.0616   20.8181 C   0  0  0  0  0  0  0  0  0  0  0  0
  -25.7167  -26.8042   19.8551 C   0  0  0  0  0  0  0  0  0  0  0  0
  -25.2596  -18.9492   24.2244 C   0  0  0  0  0  0  0  0  0  0  0  0
  -27.1360  -24.2741   21.5916 C   0  0  0  0  0  0  0  0  0  0  0  0
  -26.6980  -22.9891   21.9113 C   0  0  0  0  0  0  0  0  0  0  0  0
  -19.0317  -25.5738   22.7526 C   0  0  0  0  0  0  0  0  0  0  0  0
  -19.7400  -24.4211   22.3055 C   0  0  0  0  0  0  0  0  0  0  0  0
  -23.4482  -17.9480   22.9852 C   0  0  0  0  0  0  0  0  0  0  0  0
  -26.9337  -22.3331   19.5980 C   0  0  0  0  0  0  0  0  0  0  0  0
  -25.3285  -29.0266   20.7197 C   0  0  0  0  0  0  0  0  0  0  0  0
  -24.1372  -31.2042   20.1313 C   0  0  0  0  0  0  0  0  0  0  0  0
  -30.4433  -13.2785   19.4677 C   0  0  0  0  0  0  0  0  0  0  0  0
  -25.3681  -16.6064   23.5967 C   0  0  0  0  0  0  0  0  0  0  0  0
  -29.6706  -14.3715   19.9043 C   0  0  0  0  0  0  0  0  0  0  0  0
  -24.1120  -16.7117   22.9824 C   0  0  0  0  0  0  0  0  0  0  0  0
  -27.0625  -26.9017   20.2089 C   0  0  0  0  0  0  0  0  0  0  0  0
  -24.0201  -19.0608   23.6015 C   0  0  0  0  0  0  0  0  0  0  0  0
  -27.4728  -24.5888   20.2750 C   0  0  0  0  0  0  0  0  0  0  0  0
  -26.5969  -22.0185   20.9145 C   0  0  0  0  0  0  0  0  0  0  0  0
  -27.3717  -23.6183   19.2783 C   0  0  0  0  0  0  0  0  0  0  0  0
  -24.4323  -30.1235   20.9838 C   0  0  0  0  0  0  0  0  0  0  0  0
  -19.5567  -26.7371   22.2342 C   0  0  0  0  0  0  0  0  0  0  0  0
  -23.2386  -31.9644   20.8392 C   0  0  0  0  0  0  0  0  0  0  0  0
  -20.7793  -24.7474   21.4622 C   0  0  0  0  0  0  0  0  0  0  0  0
  -24.6311  -31.4949   18.8170 C   0  0  0  0  0  0  0  0  0  0  0  0
  -26.2196  -14.7322   21.1747 C   0  0  0  0  0  0  0  0  0  0  0  0
  -22.4666  -22.0219   22.2065 C   0  0  0  0  0  0  0  0  0  0  0  0
  -23.6172  -13.0257   22.0897 C   0  0  0  0  0  0  0  0  0  0  0  0
  -20.5913  -12.9790   23.6673 C   0  0  0  0  0  0  0  0  0  0  0  0
  -19.3474  -30.8154   25.0934 C   0  0  0  0  0  0  0  0  0  0  0  0
  -29.8407  -12.1493   18.6699 C   0  0  0  0  0  0  0  0  0  0  0  0
  -26.0914  -15.2880   23.6304 C   0  0  0  0  0  0  0  0  0  0  0  0
  -23.4567  -15.5339   22.3103 C   0  0  0  0  0  0  0  0  0  0  0  0
  -28.3189  -12.0793   18.7670 C   0  0  0  0  0  0  0  0  0  0  0  0
  -17.2255  -29.8421   22.2189 C   0  0  0  0  0  0  0  0  0  0  0  0
  -21.9641  -33.0813   25.3085 C   0  0  0  0  0  0  0  0  0  0  0  0
  -27.7074  -13.4635   18.5749 C   0  0  0  0  0  0  0  0  0  0  0  0
  -17.6624  -28.4013   21.9577 C   0  0  0  0  0  0  0  0  0  0  0  0
  -22.8770  -32.6953   24.1449 C   0  0  0  0  0  0  0  0  0  0  0  0
  -17.4062  -30.2339   23.6824 C   0  0  0  0  0  0  0  0  0  0  0  0
  -21.4099  -31.8422   26.0025 C   0  0  0  0  0  0  0  0  0  0  0  0
  -19.2195  -28.5712   23.9383 C   0  0  0  0  0  0  0  0  0  0  0  0
  -21.5758  -30.5229   23.9170 C   0  0  0  0  0  0  0  0  0  0  0  0
  -28.1769  -14.4306   19.6684 C   0  0  1  0  0  0  0  0  0  0  0  0
  -19.0964  -28.1645   22.4622 C   0  0  1  0  0  0  0  0  0  0  0  0
  -25.6611  -14.3417   22.5138 C   0  0  1  0  0  0  0  0  0  0  0  0
  -22.1592  -31.7412   23.1743 C   0  0  2  0  0  0  0  0  0  0  0  0
  -18.6811  -11.4481   24.2196 C   0  0  0  0  0  0  0  0  0  0  0  0
  -22.6336  -13.2173   19.2077 C   0  0  0  0  0  0  0  0  0  0  0  0
  -20.3619  -12.5377   20.0113 C   0  0  0  0  0  0  0  0  0  0  0  0
  -22.2944  -10.9833   20.2795 C   0  0  0  0  0  0  0  0  0  0  0  0
  -20.9968  -13.3334   26.5775 C   0  0  0  0  0  0  0  0  0  0  0  0
  -21.6018  -22.4311   21.0332 C   0  0  0  0  0  0  0  0  0  0  0  0
  -22.5151  -20.5344   22.4970 C   0  0  0  0  0  0  0  0  0  1  0  0
  -22.1492  -13.0434   21.7378 C   0  0  1  0  0  0  0  0  0  0  0  0
  -20.0052  -12.0266   24.6939 C   0  0  2  0  0  0  0  0  0  0  0  0
  -21.8727  -12.4683   20.3200 C   0  0  0  0  0  0  0  0  0  0  0  0
  -23.7747  -30.1879   22.1445 N   0  0  0  0  0  0  0  0  0  0  0  0
  -23.0575  -31.3182   22.0265 N   0  0  0  0  0  0  0  0  0  0  0  0
  -24.2063  -14.2680   22.3646 N   0  0  0  0  0  0  0  0  0  0  0  0
  -18.7641  -29.9537   24.1499 N   0  0  0  0  0  0  0  0  0  0  0  0
  -20.7427  -30.9559   25.0487 N   0  0  0  0  0  0  0  0  0  0  0  0
  -22.5937  -33.1160   20.5556 N   0  0  0  0  0  0  0  0  0  0  0  0
  -25.5489  -30.6086   18.2370 N   0  0  0  0  0  0  0  0  0  0  0  0
  -21.6392  -23.8816   20.8696 N   0  0  0  0  0  0  0  0  0  0  0  0
  -27.4593  -14.1864   20.9012 N   0  0  0  0  0  0  0  0  0  0  0  0
  -21.4630  -12.3365   22.8137 N   0  0  0  0  0  0  0  0  0  0  0  0
  -19.7732  -12.7348   25.9845 N   0  3  0  0  0  0  0  0  0  0  0  0
  -24.2817  -32.5191   18.1826 O   0  0  0  0  0  0  0  0  0  0  0  0
  -25.5730  -15.4727   20.4430 O   0  0  0  0  0  0  0  0  0  0  0  0
  -23.0927  -22.8337   22.8867 O   0  0  0  0  0  0  0  0  0  0  0  0
  -24.2172  -11.9486   22.1265 O   0  0  0  0  0  0  0  0  0  0  0  0
  -20.3018  -14.1727   23.6244 O   0  0  0  0  0  0  0  0  0  0  0  0
  -18.6610  -31.4248   25.9232 O   0  0  0  0  0  0  0  0  0  0  0  0
  -27.9082  -25.8649   19.9593 O   0  0  0  0  0  0  0  0  0  0  0  0
  -23.3574  -20.2655   23.5978 O   0  0  0  0  0  0  0  0  0  1  0  0
  -26.1777  -20.7841   21.2220 F   0  0  0  0  0  0  0  0  0  0  0  0
  -27.6950  -23.9143   18.0119 F   0  0  0  0  0  0  0  0  0  0  0  0
  -20.8981  -26.4374   21.2128 S   0  0  0  0  0  0  0  0  0  0  0  0
  1  2  1  0  0  0  0
  1  5  2  0  0  0  0
  2  6  2  0  0  0  0
  3  8  2  0  0  0  0
  3 17  1  0  0  0  0
  4  9  1  0  0  0  0
  4 17  2  0  0  0  0
  5 19  1  0  0  0  0
  6 21  1  0  0  0  0
  7 10  2  0  0  0  0
  7 20  1  0  0  0  0
  8 23  1  0  0  0  0
  9 23  2  0  0  0  0
 10 24  1  0  0  0  0
 11 12  2  0  0  0  0
 11 25  1  0  0  0  0
 12 26  1  0  0  0  0
 13 14  1  0  0  0  0
 13 29  2  0  0  0  0
 14 31  2  0  0  0  0
 15 22  1  0  0  0  0
 15 24  2  0  0  0  0
 16 26  2  0  0  0  0
 16 27  1  0  0  0  0
 17 28  1  0  0  0  0
 18 28  1  0  0  0  0
 18 30  2  0  0  0  0
 18 32  1  0  0  0  0
 19 21  2  0  0  0  0
 19 38  1  0  0  0  0
 20 22  2  0  0  0  0
 20 39  1  0  0  0  0
 21 51  1  0  0  0  0
 22 40  1  0  0  0  0
 23 82  1  0  0  0  0
 24 83  1  0  0  0  0
 25 27  2  0  0  0  0
 25 82  1  0  0  0  0
 26 84  1  0  0  0  0
 27 85  1  0  0  0  0
 28 65  2  0  0  0  0
 29 52  1  0  0  0  0
 29 86  1  0  0  0  0
 30 66  1  0  0  0  0
 30 70  1  0  0  0  0
 31 72  1  0  0  0  0
 31 86  1  0  0  0  0
 32 71  1  0  0  0  0
 32 76  2  0  0  0  0
 33 53  1  0  0  0  0
 33 73  1  0  0  0  0
 33 77  2  0  0  0  0
 34 60  1  0  0  0  0
 34 61  1  0  0  0  0
 34 78  2  0  0  0  0
 35 62  1  0  0  0  0
 35 67  1  0  0  0  0
 35 79  2  0  0  0  0
 36 63  1  0  0  0  0
 36 74  1  0  0  0  0
 36 80  2  0  0  0  0
 37 68  1  0  0  0  0
 37 69  1  0  0  0  0
 37 81  2  0  0  0  0
 38 41  1  0  0  0  0
 39 53  1  0  0  0  0
 40 67  1  0  0  0  0
 41 44  1  0  0  0  0
 42 45  1  0  0  0  0
 42 47  1  0  0  0  0
 43 46  1  0  0  0  0
 43 48  1  0  0  0  0
 44 51  1  0  0  0  0
 45 52  1  0  0  0  0
 46 54  1  0  0  0  0
 47 68  1  0  0  0  0
 48 69  1  0  0  0  0
 49 52  1  0  0  0  0
 49 68  1  0  0  0  0
 50 54  1  0  0  0  0
 50 69  1  0  0  0  0
 51 73  1  0  0  0  0
 53 67  1  0  0  0  0
 54 66  1  0  0  0  0
 55 63  1  0  0  0  0
 56 64  1  0  0  0  0
 57 64  1  0  0  0  0
 58 64  1  0  0  0  0
 59 75  1  0  0  0  0
 60 72  1  0  0  0  0
 61 83  1  0  0  0  0
 62 64  1  0  0  0  0
 62 74  1  0  0  0  0
 63 75  1  0  0  0  0
 65 66  1  0  0  0  0
M  CHG  1  75   1
M  ISO  4  37 100  61 101  68 100  83 101
M  END
> <Batch ID>
0147

> <Smiles>
CNC(C)C(=O)NC(C(=O)N1Cc2cc([101O:1][101CH2:1]C(=O)CNc3ccc(C4CCC[100N:0]([100C:0](=O)N5CCCC(n6nc(-c7ccc(Oc8ccc(F)cc8F)cc7)c(C(N)=O)c6N)C5)C4)s3)ccc2CC1C(=O)NC1CCCc2ccccc21)C(C)(C)C

> <Shape>
0.231

> <Color>
0.076

> <Negative vol penalty>
0.000

$$$$

  -OEChem-04052303133D

 86 95  0     1  0  0  0  0  0999 V2000
  -20.8210  -25.7784   18.3774 C   0  0  0  0  0  0  0  0  0  0  0  0
  -21.8644  -25.3163   19.1731 C   0  0  0  0  0  0  0  0  0  0  0  0
  -23.1783   -9.6658   20.2438 C   0  0  0  0  0  0  0  0  0  0  0  0
  -23.8066  -10.0652   22.5422 C   0  0  0  0  0  0  0  0  0  0  0  0
  -20.5415  -27.1431   18.3195 C   0  0  0  0  0  0  0  0  0  0  0  0
  -22.6298  -26.2189   19.9106 C   0  0  0  0  0  0  0  0  0  0  0  0
  -23.4493  -24.6489   24.6549 C   0  0  0  0  0  0  0  0  0  0  0  0
  -22.4581   -8.5378   20.6366 C   0  0  0  0  0  0  0  0  0  0  0  0
  -23.0863   -8.9371   22.9351 C   0  0  0  0  0  0  0  0  0  0  0  0
  -24.4293  -23.6753   24.8431 C   0  0  0  0  0  0  0  0  0  0  0  0
  -19.8558   -8.1160   23.4923 C   0  0  0  0  0  0  0  0  0  0  0  0
  -19.0355   -8.2312   24.6144 C   0  0  0  0  0  0  0  0  0  0  0  0
  -31.3903  -19.2039   21.7109 C   0  0  0  0  0  0  0  0  0  0  0  0
  -31.5322  -17.8884   21.2084 C   0  0  0  0  0  0  0  0  0  0  0  0
  -25.9859  -25.3841   25.5330 C   0  0  0  0  0  0  0  0  0  0  0  0
  -20.2934   -6.4855   25.7133 C   0  0  0  0  0  0  0  0  0  0  0  0
  -23.8527  -10.4295   21.1966 C   0  0  0  0  0  0  0  0  0  0  0  0
  -24.1213  -12.9157   20.6921 C   0  0  0  0  0  0  0  0  0  0  0  0
  -21.2977  -28.0620   19.0642 C   0  0  0  0  0  0  0  0  0  0  0  0
  -23.7339  -26.0010   24.8944 C   0  0  0  0  0  0  0  0  0  0  0  0
  -22.3611  -27.5974   19.8616 C   0  0  0  0  0  0  0  0  0  0  0  0
  -25.0070  -26.3727   25.3496 C   0  0  0  0  0  0  0  0  0  0  0  0
  -22.4120   -8.1734   21.9823 C   0  0  0  0  0  0  0  0  0  0  0  0
  -25.6987  -24.0432   25.2794 C   0  0  0  0  0  0  0  0  0  0  0  0
  -20.8950   -7.1855   23.4805 C   0  0  0  0  0  0  0  0  0  0  0  0
  -19.2542   -7.4160   25.7249 C   0  0  0  0  0  0  0  0  0  0  0  0
  -21.1138   -6.3703   24.5910 C   0  0  0  0  0  0  0  0  0  0  0  0
  -24.5973  -11.5945   20.7913 C   0  0  0  0  0  0  0  0  0  0  0  0
  -25.2082  -13.6415   20.2698 C   0  0  0  0  0  0  0  0  0  0  0  0
  -30.1190  -19.2793   22.2306 C   0  0  0  0  0  0  0  0  0  0  0  0
  -30.3375  -17.2536   21.4571 C   0  0  0  0  0  0  0  0  0  0  0  0
  -22.8136  -13.4399   20.9580 C   0  0  0  0  0  0  0  0  0  0  0  0
  -27.0899  -20.2626   22.3197 C   0  0  0  0  0  0  0  0  0  0  0  0
  -23.7752  -28.6340   23.1141 C   0  0  0  0  0  0  0  0  0  0  0  0
  -24.3174  -30.0841   25.9646 C   0  0  0  0  0  0  0  0  0  0  0  0
  -25.4640  -29.8365   29.1694 C   0  0  0  0  0  0  0  0  0  0  0  0
  -30.6202  -14.9192   20.5532 C   0  0  0  0  0  0  0  0  0  0  0  0
  -20.9883  -29.5322   18.9327 C   0  0  0  0  0  0  0  0  0  0  0  0
  -22.6579  -27.0360   24.7122 C   0  0  0  0  0  0  0  0  0  0  0  0
  -25.3573  -27.8084   25.6403 C   0  0  0  0  0  0  0  0  0  0  0  0
  -21.6077  -30.3861   20.0361 C   0  0  0  0  0  0  0  0  0  0  0  0
  -29.7179  -12.1193   18.5473 C   0  0  0  0  0  0  0  0  0  0  0  0
  -23.0691  -30.0044   20.2496 C   0  0  0  0  0  0  0  0  0  0  0  0
  -28.2661  -11.8418   18.9442 C   0  0  0  0  0  0  0  0  0  0  0  0
  -28.8903  -22.4511   23.7008 C   0  0  0  0  0  0  0  0  0  0  0  0
  -30.5559  -12.5712   19.7420 C   0  0  0  0  0  0  0  0  0  0  0  0
  -30.0178  -21.6335   23.0706 C   0  0  0  0  0  0  0  0  0  0  0  0
  -28.5521  -13.4278   20.8909 C   0  0  0  0  0  0  0  0  0  0  0  0
  -23.1981  -28.5429   20.6955 C   0  0  1  0  0  0  0  0  0  0  0  0
  -28.0941  -20.1967   23.4341 C   0  0  2  0  0  0  0  0  0  0  0  0
  -23.2110  -28.4408   24.4932 C   0  0  1  0  0  0  0  0  0  0  0  0
  -27.6534  -13.0321   19.7080 C   0  0  2  0  0  0  0  0  0  0  0  0
  -28.0096  -21.4046   24.4027 C   0  0  1  0  0  0  0  0  0  0  0  0
  -25.7843  -19.5483   22.5421 C   0  0  0  0  0  0  0  0  0  0  0  0
  -28.6135  -21.0221   25.7703 C   0  0  0  0  0  0  0  0  0  0  0  0
  -25.8146  -31.1996   31.2470 C   0  0  0  0  0  0  0  0  0  0  0  0
  -26.7687  -31.3840   24.6952 C   0  0  0  0  0  0  0  0  0  0  0  0
  -27.5810  -31.9379   26.9977 C   0  0  0  0  0  0  0  0  0  0  0  0
  -25.4319  -32.8972   26.1709 C   0  0  0  0  0  0  0  0  0  0  0  0
  -23.6263  -28.1288   30.7396 C   0  0  0  0  0  0  0  0  0  0  0  0
  -26.5903  -21.9345   24.6354 C   0  0  0  0  0  0  0  0  0  1  0  0
  -25.5461  -30.4425   26.7652 C   0  0  1  0  0  0  0  0  0  0  0  0
  -24.8652  -30.2833   30.4909 C   0  0  2  0  0  0  0  0  0  0  0  0
  -26.3262  -31.6385   26.1500 C   0  0  0  0  0  0  0  0  0  0  0  0
  -25.8862  -11.4845   20.4586 N   0  0  0  0  0  0  0  0  0  0  0  0
  -26.2293  -12.7458   20.1462 N   0  0  0  0  0  0  0  0  0  0  0  0
  -29.4346  -20.3098   22.8471 N   0  0  3  0  0  0  0  0  0  0  0  0
  -24.2731  -28.7842   25.4410 N   0  0  0  0  0  0  0  0  0  0  0  0
  -29.9161  -13.7044   20.4138 N   0  0  0  0  0  0  0  0  0  0  0  0
  -25.3805  -14.9520   19.9957 N   0  0  0  0  0  0  0  0  0  0  0  0
  -21.8132  -12.5557   21.3843 N   0  0  0  0  0  0  0  0  0  0  0  0
  -29.8989  -15.9352   21.1793 N   0  0  0  0  0  0  0  0  0  0  0  0
  -22.8657  -28.4112   22.0979 N   0  0  0  0  0  0  0  0  0  0  0  0
  -25.0911  -30.6661   28.1332 N   0  0  0  0  0  0  0  0  0  0  0  0
  -24.5674  -29.1027   31.3502 N   0  3  0  0  0  0  0  0  0  0  0  0
  -22.5359  -14.6537   20.8058 O   0  0  0  0  0  0  0  0  0  0  0  0
  -27.3223  -20.8725   21.2771 O   0  0  0  0  0  0  0  0  0  0  0  0
  -24.9484  -28.9624   22.9818 O   0  0  0  0  0  0  0  0  0  0  0  0
  -23.4265  -30.9241   25.8156 O   0  0  0  0  0  0  0  0  0  0  0  0
  -26.1930  -28.8522   29.0674 O   0  0  0  0  0  0  0  0  0  0  0  0
  -31.7681  -15.0570   20.1227 O   0  0  0  0  0  0  0  0  0  0  0  0
  -29.4707  -18.0945   22.0800 O   0  0  0  0  0  0  0  0  0  0  0  0
  -21.7091   -7.0729   22.3660 O   0  0  0  0  0  0  0  0  0  0  0  0
  -26.6573  -23.0949   25.4633 O   0  0  0  0  0  0  0  0  0  1  0  0
  -18.4673   -7.5278   26.8031 F   0  0  0  0  0  0  0  0  0  0  0  0
  -22.1112   -5.4754   24.5861 F   0  0  0  0  0  0  0  0  0  0  0  0
  1  2  1  0  0  0  0
  1  5  2  0  0  0  0
  2  6  2  0  0  0  0
  3  8  2  0  0  0  0
  3 17  1  0  0  0  0
  4  9  1  0  0  0  0
  4 17  2  0  0  0  0
  5 19  1  0  0  0  0
  6 21  1  0  0  0  0
  7 10  2  0  0  0  0
  7 20  1  0  0  0  0
  8 23  1  0  0  0  0
  9 23  2  0  0  0  0
 10 24  1  0  0  0  0
 11 12  2  0  0  0  0
 11 25  1  0  0  0  0
 12 26  1  0  0  0  0
 13 14  1  0  0  0  0
 13 30  2  0  0  0  0
 14 31  2  0  0  0  0
 15 22  1  0  0  0  0
 15 24  2  0  0  0  0
 16 26  2  0  0  0  0
 16 27  1  0  0  0  0
 17 28  1  0  0  0  0
 18 28  1  0  0  0  0
 18 29  2  0  0  0  0
 18 32  1  0  0  0  0
 19 21  2  0  0  0  0
 19 38  1  0  0  0  0
 20 22  2  0  0  0  0
 20 39  1  0  0  0  0
 21 49  1  0  0  0  0
 22 40  1  0  0  0  0
 23 83  1  0  0  0  0
 24 84  1  0  0  0  0
 25 27  2  0  0  0  0
 25 83  1  0  0  0  0
 26 85  1  0  0  0  0
 27 86  1  0  0  0  0
 28 65  2  0  0  0  0
 29 66  1  0  0  0  0
 29 70  1  0  0  0  0
 30 67  1  0  0  0  0
 30 82  1  0  0  0  0
 31 72  1  0  0  0  0
 31 82  1  0  0  0  0
 32 71  1  0  0  0  0
 32 76  2  0  0  0  0
 33 50  1  0  0  0  0
 33 54  1  0  0  0  0
 33 77  2  0  0  0  0
 34 51  1  0  0  0  0
 34 73  1  0  0  0  0
 34 78  2  0  0  0  0
 35 62  1  0  0  0  0
 35 68  1  0  0  0  0
 35 79  2  0  0  0  0
 36 63  1  0  0  0  0
 36 74  1  0  0  0  0
 36 80  2  0  0  0  0
 37 69  1  0  0  0  0
 37 72  1  0  0  0  0
 37 81  2  0  0  0  0
 38 41  1  0  0  0  0
 39 51  1  0  0  0  0
 40 68  1  0  0  0  0
 41 43  1  0  0  0  0
 42 44  1  0  0  0  0
 42 46  1  0  0  0  0
 43 49  1  0  0  0  0
 44 52  1  0  0  0  0
 45 47  1  0  0  0  0
 45 53  1  0  0  0  0
 46 69  1  0  0  0  0
 47 67  1  0  0  0  0
 48 52  1  0  0  0  0
 48 69  1  0  0  0  0
 49 73  1  0  0  0  0
 50 53  1  0  0  0  0
 50 67  1  0  0  0  0
 51 68  1  0  0  0  0
 52 66  1  0  0  0  0
 53 55  1  0  0  0  0
 53 61  1  0  0  0  0
 56 63  1  0  0  0  0
 57 64  1  0  0  0  0
 58 64  1  0  0  0  0
 59 64  1  0  0  0  0
 60 75  1  0  0  0  0
 61 84  1  0  0  0  0
 62 64  1  0  0  0  0
 62 74  1  0  0  0  0
 63 75  1  0  0  0  0
 65 66  1  0  0  0  0
M  CHG  1  75   1
M  ISO  4  37 100  61 101  72 100  84 101
M  END
> <Batch ID>
0147

> <Smiles>
CNC(C)C(=O)NC(C(=O)N1Cc2cc([101O:1][101CH2:1]C3(C)CCN(c4ccc([100NH:0][100C:0](=O)N5CCCC(n6nc(-c7ccc(Oc8ccc(F)cc8F)cc7)c(C(N)=O)c6N)C5)o4)C3C(C)=O)ccc2CC1C(=O)NC1CCCc2ccccc21)C(C)(C)C

> <Shape>
0.248

> <Color>
0.182

> <Negative vol penalty>
0.000

$$$$

  -OEChem-04052303133D

 88 97  0     1  0  0  0  0  0999 V2000
  -27.4422  -34.8916   19.5791 C   0  0  0  0  0  0  0  0  0  0  0  0
  -28.5397  -34.3679   20.2549 C   0  0  0  0  0  0  0  0  0  0  0  0
  -23.0774   -9.8625   19.9368 C   0  0  0  0  0  0  0  0  0  0  0  0
  -23.8379   -9.8655   22.2300 C   0  0  0  0  0  0  0  0  0  0  0  0
  -26.4549  -34.0381   19.0884 C   0  0  0  0  0  0  0  0  0  0  0  0
  -28.6500  -32.9904   20.4413 C   0  0  0  0  0  0  0  0  0  0  0  0
  -33.5595  -27.7936   20.8952 C   0  0  0  0  0  0  0  0  0  0  0  0
  -22.3351   -8.7078   20.1844 C   0  0  0  0  0  0  0  0  0  0  0  0
  -23.0956   -8.7108   22.4776 C   0  0  0  0  0  0  0  0  0  0  0  0
  -33.9425  -26.7435   21.7285 C   0  0  0  0  0  0  0  0  0  0  0  0
  -19.8687   -7.9073   23.0793 C   0  0  0  0  0  0  0  0  0  0  0  0
  -19.1121   -7.8638   24.2503 C   0  0  0  0  0  0  0  0  0  0  0  0
  -30.4623  -18.3379   24.0561 C   0  0  0  0  0  0  0  0  0  0  0  0
  -32.2158  -25.3596   20.7680 C   0  0  0  0  0  0  0  0  0  0  0  0
  -32.0564  -16.6084   22.5559 C   0  0  0  0  0  0  0  0  0  0  0  0
  -20.3563   -5.9264   24.9821 C   0  0  0  0  0  0  0  0  0  0  0  0
  -23.8288  -10.4413   20.9596 C   0  0  0  0  0  0  0  0  0  0  0  0
  -31.8483  -18.3553   24.2119 C   0  0  0  0  0  0  0  0  0  0  0  0
  -24.1672  -12.9672   20.8450 C   0  0  0  0  0  0  0  0  0  0  0  0
  -26.5580  -32.6487   19.2604 C   0  0  0  0  0  0  0  0  0  0  0  0
  -32.4929  -27.6378   19.9982 C   0  0  0  0  0  0  0  0  0  0  0  0
  -27.6625  -32.1176   19.9536 C   0  0  0  0  0  0  0  0  0  0  0  0
  -31.8229  -26.4084   19.9226 C   0  0  0  0  0  0  0  0  0  0  0  0
  -30.6703  -16.5910   22.4002 C   0  0  0  0  0  0  0  0  0  0  0  0
  -22.3442   -8.1320   21.4548 C   0  0  0  0  0  0  0  0  0  0  0  0
  -33.2687  -25.5272   21.6670 C   0  0  0  0  0  0  0  0  0  0  0  0
  -20.8691   -6.9603   22.8596 C   0  0  0  0  0  0  0  0  0  0  0  0
  -19.3559   -6.8734   25.2017 C   0  0  0  0  0  0  0  0  0  0  0  0
  -29.8733  -17.4557   23.1503 C   0  0  0  0  0  0  0  0  0  0  0  0
  -32.6454  -17.4906   23.4618 C   0  0  0  0  0  0  0  0  0  0  0  0
  -21.1129   -5.9699   23.8111 C   0  0  0  0  0  0  0  0  0  0  0  0
  -24.5962  -11.6338   20.7042 C   0  0  0  0  0  0  0  0  0  0  0  0
  -25.2582  -13.7189   20.4831 C   0  0  0  0  0  0  0  0  0  0  0  0
  -32.4680  -19.2884   25.1697 C   0  0  0  0  0  0  0  0  0  0  0  0
  -22.8961  -13.4804   21.2654 C   0  0  0  0  0  0  0  0  0  0  0  0
  -29.6586  -29.0261   19.6205 C   0  0  0  0  0  0  0  0  0  0  0  0
  -29.5524  -27.1930   16.9464 C   0  0  0  0  0  0  0  0  0  0  0  0
  -30.6331  -24.4062   15.2994 C   0  0  0  0  0  0  0  0  0  0  0  0
  -30.7231  -14.7715   20.6586 C   0  0  0  0  0  0  0  0  0  0  0  0
  -25.4421  -31.7697   18.7536 C   0  0  0  0  0  0  0  0  0  0  0  0
  -32.1094  -28.7716   19.0872 C   0  0  0  0  0  0  0  0  0  0  0  0
  -30.6845  -26.1834   18.9625 C   0  0  0  0  0  0  0  0  0  0  0  0
  -25.8216  -30.2938   18.6654 C   0  0  0  0  0  0  0  0  0  0  0  0
  -29.6113  -12.3614   18.2853 C   0  0  0  0  0  0  0  0  0  0  0  0
  -26.5272  -29.8468   19.9418 C   0  0  0  0  0  0  0  0  0  0  0  0
  -28.1721  -12.0670   18.7147 C   0  0  0  0  0  0  0  0  0  0  0  0
  -33.4006  -22.7596   24.7964 C   0  0  0  0  0  0  0  0  0  0  0  0
  -30.5264  -12.5888   19.4872 C   0  0  0  0  0  0  0  0  0  0  0  0
  -33.4477  -21.4924   25.6438 C   0  0  0  0  0  0  0  0  0  0  0  0
  -28.6188  -13.3077   20.8706 C   0  0  0  0  0  0  0  0  0  0  0  0
  -32.6371  -20.9727   23.3817 C   0  0  0  0  0  0  0  0  0  0  0  0
  -27.8301  -30.6271   20.1540 C   0  0  1  0  0  0  0  0  0  0  0  0
  -30.6763  -28.6678   18.5748 C   0  0  1  0  0  0  0  0  0  0  0  0
  -27.6459  -13.1357   19.6927 C   0  0  2  0  0  0  0  0  0  0  0  0
  -33.4833  -22.2584   23.3422 C   0  0  2  0  0  0  0  0  0  0  0  0
  -34.9354  -21.9399   22.9512 C   0  0  0  0  0  0  0  0  0  0  0  0
  -30.3404  -23.1538   13.1446 C   0  0  0  0  0  0  0  0  0  0  0  0
  -26.8636  -26.1367   17.9284 C   0  0  0  0  0  0  0  0  0  0  0  0
  -27.0816  -24.2576   16.2884 C   0  0  0  0  0  0  0  0  0  0  0  0
  -26.9644  -26.6130   15.4754 C   0  0  0  0  0  0  0  0  0  0  0  0
  -33.4872  -24.7325   14.5874 C   0  0  0  0  0  0  0  0  0  0  0  0
  -32.9062  -23.2824   22.3639 C   0  0  0  0  0  0  0  0  0  1  0  0
  -29.0657  -25.8011   16.6230 C   0  0  1  0  0  0  0  0  0  0  0  0
  -31.1482  -24.2082   13.8852 C   0  0  2  0  0  0  0  0  0  0  0  0
  -27.5140  -25.7067   16.5984 C   0  0  0  0  0  0  0  0  0  0  0  0
  -25.8611  -11.5406   20.2854 N   0  0  0  0  0  0  0  0  0  0  0  0
  -26.2362  -12.8250   20.1598 N   0  0  0  0  0  0  0  0  0  0  0  0
  -32.8238  -20.4937   24.7637 N   0  0  0  0  0  0  0  0  0  0  0  0
  -30.3428  -27.3244   18.0970 N   0  0  0  0  0  0  0  0  0  0  0  0
  -29.9663  -13.6170   20.3670 N   0  0  0  0  0  0  0  0  0  0  0  0
  -25.4668  -15.0509   20.4129 N   0  0  0  0  0  0  0  0  0  0  0  0
  -21.8855  -12.5691   21.6009 N   0  0  0  0  0  0  0  0  0  0  0  0
  -30.0747  -15.6939   21.4792 N   0  0  0  0  0  0  0  0  0  0  0  0
  -28.8727  -30.1140   19.2913 N   0  0  0  0  0  0  0  0  0  0  0  0
  -29.7072  -25.4257   15.3677 N   0  0  0  0  0  0  0  0  0  0  0  0
  -32.6574  -18.9028   26.4282 N   0  3  0  0  0  0  0  0  0  0  0  0
  -32.5744  -23.7766   13.9091 N   0  3  0  0  0  0  0  0  0  0  0  0
  -22.6582  -14.7105   21.3255 O   0  0  0  0  0  0  0  0  0  0  0  0
  -29.5903  -28.3637   20.6492 O   0  0  0  0  0  0  0  0  0  0  0  0
  -29.2487  -28.1281   16.2014 O   0  0  0  0  0  0  0  0  0  0  0  0
  -31.0114  -23.7223   16.2479 O   0  0  0  0  0  0  0  0  0  0  0  0
  -31.8518  -14.9428   20.1911 O   0  0  0  0  0  0  0  0  0  0  0  0
  -21.6198   -7.0053   21.6969 O   0  0  0  0  0  0  0  0  0  0  0  0
  -33.6401  -24.5008   22.4797 O   0  0  0  0  0  0  0  0  0  1  0  0
  -18.6303   -6.8326   26.3269 F   0  0  0  0  0  0  0  0  0  0  0  0
  -28.5399  -17.4473   23.0090 F   0  0  0  0  0  0  0  0  0  0  0  0
  -33.9781  -17.4998   23.6045 F   0  0  0  0  0  0  0  0  0  0  0  0
  -22.0734   -5.0582   23.6062 F   0  0  0  0  0  0  0  0  0  0  0  0
  1  2  1  0  0  0  0
  1  5  2  0  0  0  0
  2  6  2  0  0  0  0
  3  8  2  0  0  0  0
  3 17  1  0  0  0  0
  4  9  1  0  0  0  0
  4 17  2  0  0  0  0
  5 20  1  0  0  0  0
  6 22  1  0  0  0  0
  7 10  2  0  0  0  0
  7 21  1  0  0  0  0
  8 25  1  0  0  0  0
  9 25  2  0  0  0  0
 10 26  1  0  0  0  0
 11 12  2  0  0  0  0
 11 27  1  0  0  0  0
 12 28  1  0  0  0  0
 13 18  1  0  0  0  0
 13 29  2  0  0  0  0
 14 23  1  0  0  0  0
 14 26  2  0  0  0  0
 15 24  2  0  0  0  0
 15 30  1  0  0  0  0
 16 28  2  0  0  0  0
 16 31  1  0  0  0  0
 17 32  1  0  0  0  0
 18 30  2  0  0  0  0
 18 34  1  0  0  0  0
 19 32  1  0  0  0  0
 19 33  2  0  0  0  0
 19 35  1  0  0  0  0
 20 22  2  0  0  0  0
 20 40  1  0  0  0  0
 21 23  2  0  0  0  0
 21 41  1  0  0  0  0
 22 52  1  0  0  0  0
 23 42  1  0  0  0  0
 24 29  1  0  0  0  0
 24 73  1  0  0  0  0
 25 83  1  0  0  0  0
 26 84  1  0  0  0  0
 27 31  2  0  0  0  0
 27 83  1  0  0  0  0
 28 85  1  0  0  0  0
 29 86  1  0  0  0  0
 30 87  1  0  0  0  0
 31 88  1  0  0  0  0
 32 66  2  0  0  0  0
 33 67  1  0  0  0  0
 33 71  1  0  0  0  0
 34 68  1  0  0  0  0
 34 76  2  0  0  0  0
 35 72  1  0  0  0  0
 35 78  2  0  0  0  0
 36 53  1  0  0  0  0
 36 74  1  0  0  0  0
 36 79  2  0  0  0  0
 37 63  1  0  0  0  0
 37 69  1  0  0  0  0
 37 80  2  0  0  0  0
 38 64  1  0  0  0  0
 38 75  1  0  0  0  0
 38 81  2  0  0  0  0
 39 70  1  0  0  0  0
 39 73  1  0  0  0  0
 39 82  2  0  0  0  0
 40 43  1  0  0  0  0
 41 53  1  0  0  0  0
 42 69  1  0  0  0  0
 43 45  1  0  0  0  0
 44 46  1  0  0  0  0
 44 48  1  0  0  0  0
 45 52  1  0  0  0  0
 46 54  1  0  0  0  0
 47 49  1  0  0  0  0
 47 55  1  0  0  0  0
 48 70  1  0  0  0  0
 49 68  1  0  0  0  0
 50 54  1  0  0  0  0
 50 70  1  0  0  0  0
 51 55  1  0  0  0  0
 51 68  1  0  0  0  0
 52 74  1  0  0  0  0
 53 69  1  0  0  0  0
 54 67  1  0  0  0  0
 55 56  1  0  0  0  0
 55 62  1  0  0  0  0
 57 64  1  0  0  0  0
 58 65  1  0  0  0  0
 59 65  1  0  0  0  0
 60 65  1  0  0  0  0
 61 77  1  0  0  0  0
 62 84  1  0  0  0  0
 63 65  1  0  0  0  0
 63 75  1  0  0  0  0
 64 77  1  0  0  0  0
 66 67  1  0  0  0  0
M  CHG  2  76   1  77   1
M  ISO  4  39 100  62 101  73 100  84 101
M  END
> <Batch ID>
0147

> <Smiles>
CNC(C)C(=O)NC(C(=O)N1Cc2cc([101O:1][101CH2:1]C3(C)CCN(C(=N)c4cc(F)c([100NH:0][100C:0](=O)N5CCCC(n6nc(-c7ccc(Oc8ccc(F)cc8F)cc7)c(C(N)=O)c6N)C5)cc4F)C3)ccc2CC1C(=O)NC1CCCc2ccccc21)C(C)(C)C

> <Shape>
0.217

> <Color>
0.188

> <Negative vol penalty>
0.000

$$$$

  -OEChem-04052303133D

 84 93  0     1  0  0  0  0  0999 V2000
  -21.6807  -33.0108   15.9701 C   0  0  0  0  0  0  0  0  0  0  0  0
  -22.6756  -32.0558   15.7866 C   0  0  0  0  0  0  0  0  0  0  0  0
  -23.8255   -9.9430   22.1548 C   0  0  0  0  0  0  0  0  0  0  0  0
  -22.3970  -10.3640   20.2523 C   0  0  0  0  0  0  0  0  0  0  0  0
  -21.5251  -33.6237   17.2127 C   0  0  0  0  0  0  0  0  0  0  0  0
  -23.5161  -31.7140   16.8454 C   0  0  0  0  0  0  0  0  0  0  0  0
  -25.8922  -26.1943   18.0256 C   0  0  0  0  0  0  0  0  0  0  0  0
  -23.3612   -8.6290   22.2127 C   0  0  0  0  0  0  0  0  0  0  0  0
  -21.9328   -9.0500   20.3101 C   0  0  0  0  0  0  0  0  0  0  0  0
  -27.1405  -25.6338   17.7584 C   0  0  0  0  0  0  0  0  0  0  0  0
  -20.6218   -7.0031   23.3425 C   0  0  0  0  0  0  0  0  0  0  0  0
  -20.2801   -6.4918   24.5944 C   0  0  0  0  0  0  0  0  0  0  0  0
  -27.8739  -26.2234   19.9796 C   0  0  0  0  0  0  0  0  0  0  0  0
  -28.6354  -20.6509   22.9726 C   0  0  0  0  0  0  0  0  0  0  0  0
  -21.9413   -4.7561   24.3390 C   0  0  0  0  0  0  0  0  0  0  0  0
  -23.3433  -10.8106   21.1747 C   0  0  0  0  0  0  0  0  0  0  0  0
  -24.9292  -12.6481   20.3895 C   0  0  0  0  0  0  0  0  0  0  0  0
  -22.3579  -33.2822   18.2899 C   0  0  0  0  0  0  0  0  0  0  0  0
  -25.6285  -26.7842   19.2701 C   0  0  0  0  0  0  0  0  0  0  0  0
  -23.3723  -32.3239   18.1032 C   0  0  0  0  0  0  0  0  0  0  0  0
  -26.6206  -26.7884   20.2609 C   0  0  0  0  0  0  0  0  0  0  0  0
  -27.5922  -19.7480   23.2607 C   0  0  0  0  0  0  0  0  0  0  0  0
  -22.4149   -8.1824   21.2903 C   0  0  0  0  0  0  0  0  0  0  0  0
  -28.1325  -25.6509   18.7345 C   0  0  0  0  0  0  0  0  0  0  0  0
  -21.6232   -6.3909   22.5887 C   0  0  0  0  0  0  0  0  0  0  0  0
  -20.9399   -5.3683   25.0927 C   0  0  0  0  0  0  0  0  0  0  0  0
  -22.2830   -5.2674   23.0870 C   0  0  0  0  0  0  0  0  0  0  0  0
  -23.8221  -12.1683   21.1148 C   0  0  0  0  0  0  0  0  0  0  0  0
  -27.1925  -19.0510   22.1580 C   0  0  0  0  0  0  0  0  0  0  0  0
  -24.9612  -13.9938   20.6622 C   0  0  0  0  0  0  0  0  0  0  0  0
  -28.9797  -20.5847   21.6316 C   0  0  0  0  0  0  0  0  0  0  0  0
  -25.8465  -11.9405   19.5448 C   0  0  0  0  0  0  0  0  0  0  0  0
  -24.8619  -29.7099   20.2482 C   0  0  0  0  0  0  0  0  0  0  0  0
  -24.5432  -28.2431   23.1239 C   0  0  0  0  0  0  0  0  0  0  0  0
  -30.8380  -22.2627   21.3604 C   0  0  0  0  0  0  0  0  0  0  0  0
  -25.3791  -25.6277   25.1506 C   0  0  0  0  0  0  0  0  0  0  0  0
  -24.7027  -18.0256   24.5864 C   0  0  0  0  0  0  0  0  0  0  0  0
  -22.1821  -34.0061   19.6013 C   0  0  0  0  0  0  0  0  0  0  0  0
  -24.2681  -27.3607   19.5519 C   0  0  0  0  0  0  0  0  0  0  0  0
  -26.3814  -27.3914   21.6202 C   0  0  0  0  0  0  0  0  0  0  0  0
  -26.8086  -19.3642   24.4486 C   0  0  0  0  0  0  0  0  0  0  0  0
  -26.1102  -18.0874   22.4243 C   0  0  0  0  0  0  0  0  0  0  0  0
  -22.8716  -33.3158   20.7753 C   0  0  0  0  0  0  0  0  0  0  0  0
  -21.5838  -16.9858   22.9505 C   0  0  0  0  0  0  0  0  0  0  0  0
  -24.2920  -32.9092   20.3961 C   0  0  0  0  0  0  0  0  0  0  0  0
  -21.9754  -15.6536   22.3072 C   0  0  0  0  0  0  0  0  0  0  0  0
  -22.3818  -17.2650   24.2225 C   0  0  0  0  0  0  0  0  0  0  0  0
  -24.2247  -15.8364   23.4282 C   0  0  0  0  0  0  0  0  0  0  0  0
  -24.2878  -31.9083   19.2343 C   0  0  1  0  0  0  0  0  0  0  0  0
  -24.2776  -28.3931   20.6751 C   0  0  1  0  0  0  0  0  0  0  0  0
  -23.5000  -15.5582   22.1047 C   0  0  1  0  0  0  0  0  0  0  0  0
  -24.9917  -24.7221   27.4587 C   0  0  0  0  0  0  0  0  0  0  0  0
  -26.4468  -30.3381   24.2628 C   0  0  0  0  0  0  0  0  0  0  0  0
  -26.7645  -28.8624   26.2602 C   0  0  0  0  0  0  0  0  0  0  0  0
  -24.5051  -29.7814   25.7374 C   0  0  0  0  0  0  0  0  0  0  0  0
  -24.1639  -23.1432   24.0974 C   0  0  0  0  0  0  0  0  0  0  0  0
  -31.7234  -22.7699   20.2306 C   0  0  0  0  0  0  0  0  0  0  0  0
  -30.9237  -23.3958   19.0933 C   0  0  0  0  0  0  0  0  0  0  0  0
  -30.0663  -24.5548   19.5802 C   0  0  0  0  0  0  0  0  0  1  0  0
  -25.4654  -27.9501   24.2826 C   0  0  1  0  0  0  0  0  0  0  0  0
  -24.5304  -24.7078   26.0096 C   0  0  2  0  0  0  0  0  0  0  0  0
  -25.8009  -29.2233   25.1096 C   0  0  0  0  0  0  0  0  0  0  0  0
  -23.1962  -13.1309   21.7971 N   0  0  0  0  0  0  0  0  0  0  0  0
  -23.9124  -14.2291   21.5018 N   0  0  0  0  0  0  0  0  0  0  0  0
  -25.0371  -27.9481   21.8453 N   0  0  0  0  0  0  0  0  0  0  0  0
  -25.8580  -18.3661   23.8742 N   0  0  0  0  0  0  0  0  0  0  0  0
  -23.8165  -17.1337   23.9746 N   0  0  0  0  0  0  0  0  0  0  0  0
  -25.7839  -14.9871   20.2634 N   0  0  0  0  0  0  0  0  0  0  0  0
  -25.6691  -10.5609   19.3737 N   0  0  0  0  0  0  0  0  0  0  0  0
  -29.9239  -21.2686   20.9166 N   0  0  0  0  0  0  0  0  0  0  0  0
  -23.9398  -30.5858   19.7078 N   0  0  0  0  0  0  0  0  0  0  0  0
  -24.8279  -26.8879   25.0531 N   0  0  0  0  0  0  0  0  0  0  0  0
  -24.6103  -23.3079   25.5048 N   0  3  0  0  0  0  0  0  0  0  0  0
  -26.8052  -12.5119   18.9722 O   0  0  0  0  0  0  0  0  0  0  0  0
  -26.0603  -29.9165   20.3994 O   0  0  0  0  0  0  0  0  0  0  0  0
  -23.4229  -28.7096   23.3455 O   0  0  0  0  0  0  0  0  0  0  0  0
  -30.9352  -22.6901   22.5060 O   0  0  0  0  0  0  0  0  0  0  0  0
  -26.4281  -25.2658   24.6223 O   0  0  0  0  0  0  0  0  0  0  0  0
  -24.4491  -18.5341   25.6856 O   0  0  0  0  0  0  0  0  0  0  0  0
  -21.9618   -6.9002   21.3463 O   0  0  0  0  0  0  0  0  0  0  0  0
  -29.3610  -25.1011   18.4742 O   0  0  0  0  0  0  0  0  0  1  0  0
  -20.6127   -4.8783   26.2956 F   0  0  0  0  0  0  0  0  0  0  0  0
  -23.2466   -4.6757   22.3679 F   0  0  0  0  0  0  0  0  0  0  0  0
  -28.0263  -19.4318   20.7605 S   0  0  0  0  0  0  0  0  0  0  0  0
  1  2  1  0  0  0  0
  1  5  2  0  0  0  0
  2  6  2  0  0  0  0
  3  8  2  0  0  0  0
  3 16  1  0  0  0  0
  4  9  1  0  0  0  0
  4 16  2  0  0  0  0
  5 18  1  0  0  0  0
  6 20  1  0  0  0  0
  7 10  2  0  0  0  0
  7 19  1  0  0  0  0
  8 23  1  0  0  0  0
  9 23  2  0  0  0  0
 10 24  1  0  0  0  0
 11 12  2  0  0  0  0
 11 25  1  0  0  0  0
 12 26  1  0  0  0  0
 13 21  1  0  0  0  0
 13 24  2  0  0  0  0
 14 22  1  0  0  0  0
 14 31  2  0  0  0  0
 15 26  2  0  0  0  0
 15 27  1  0  0  0  0
 16 28  1  0  0  0  0
 17 28  1  0  0  0  0
 17 30  2  0  0  0  0
 17 32  1  0  0  0  0
 18 20  2  0  0  0  0
 18 38  1  0  0  0  0
 19 21  2  0  0  0  0
 19 39  1  0  0  0  0
 20 49  1  0  0  0  0
 21 40  1  0  0  0  0
 22 29  2  0  0  0  0
 22 41  1  0  0  0  0
 23 80  1  0  0  0  0
 24 81  1  0  0  0  0
 25 27  2  0  0  0  0
 25 80  1  0  0  0  0
 26 82  1  0  0  0  0
 27 83  1  0  0  0  0
 28 63  2  0  0  0  0
 29 42  1  0  0  0  0
 29 84  1  0  0  0  0
 30 64  1  0  0  0  0
 30 68  1  0  0  0  0
 31 70  1  0  0  0  0
 31 84  1  0  0  0  0
 32 69  1  0  0  0  0
 32 74  2  0  0  0  0
 33 50  1  0  0  0  0
 33 71  1  0  0  0  0
 33 75  2  0  0  0  0
 34 60  1  0  0  0  0
 34 65  1  0  0  0  0
 34 76  2  0  0  0  0
 35 57  1  0  0  0  0
 35 70  1  0  0  0  0
 35 77  2  0  0  0  0
 36 61  1  0  0  0  0
 36 72  1  0  0  0  0
 36 78  2  0  0  0  0
 37 66  1  0  0  0  0
 37 67  1  0  0  0  0
 37 79  2  0  0  0  0
 38 43  1  0  0  0  0
 39 50  1  0  0  0  0
 40 65  1  0  0  0  0
 41 66  1  0  0  0  0
 42 66  1  0  0  0  0
 43 45  1  0  0  0  0
 44 46  1  0  0  0  0
 44 47  1  0  0  0  0
 45 49  1  0  0  0  0
 46 51  1  0  0  0  0
 47 67  1  0  0  0  0
 48 51  1  0  0  0  0
 48 67  1  0  0  0  0
 49 71  1  0  0  0  0
 50 65  1  0  0  0  0
 51 64  1  0  0  0  0
 52 61  1  0  0  0  0
 53 62  1  0  0  0  0
 54 62  1  0  0  0  0
 55 62  1  0  0  0  0
 56 73  1  0  0  0  0
 57 58  1  0  0  0  0
 58 59  1  0  0  0  0
 59 81  1  0  0  0  0
 60 62  1  0  0  0  0
 60 72  1  0  0  0  0
 61 73  1  0  0  0  0
 63 64  1  0  0  0  0
M  CHG  1  73   1
M  ISO  4  37 100  59 101  66 100  81 101
M  END
> <Batch ID>
0147

> <Smiles>
CNC(C)C(=O)NC(C(=O)N1Cc2cc([101O:1][101CH2:1]CCC(=O)Nc3cc4c(s3)C[100N:0]([100C:0](=O)N3CCCC(n5nc(-c6ccc(Oc7ccc(F)cc7F)cc6)c(C(N)=O)c5N)C3)C4)ccc2CC1C(=O)NC1CCCc2ccccc21)C(C)(C)C

> <Shape>
0.225

> <Color>
0.108

> <Negative vol penalty>
0.000

$$$$

  -OEChem-04052303133D

 80 89  0     1  0  0  0  0  0999 V2000
  -26.7105  -36.9791   24.8382 C   0  0  0  0  0  0  0  0  0  0  0  0
  -27.4027  -35.9483   24.2106 C   0  0  0  0  0  0  0  0  0  0  0  0
  -26.0791  -12.7560   21.7111 C   0  0  0  0  0  0  0  0  0  0  0  0
  -25.8005  -13.4896   19.4261 C   0  0  0  0  0  0  0  0  0  0  0  0
  -25.5180  -36.7094   25.5084 C   0  0  0  0  0  0  0  0  0  0  0  0
  -26.9034  -34.6471   24.2539 C   0  0  0  0  0  0  0  0  0  0  0  0
  -27.3129  -30.3988   19.8619 C   0  0  0  0  0  0  0  0  0  0  0  0
  -24.9215  -11.9852   21.6049 C   0  0  0  0  0  0  0  0  0  0  0  0
  -24.6428  -12.7188   19.3198 C   0  0  0  0  0  0  0  0  0  0  0  0
  -28.1804  -29.3235   19.6750 C   0  0  0  0  0  0  0  0  0  0  0  0
  -24.0260   -9.0045   20.2834 C   0  0  0  0  0  0  0  0  0  0  0  0
  -24.0659   -7.7026   20.7823 C   0  0  0  0  0  0  0  0  0  0  0  0
  -28.3335  -22.6560   16.4092 C   0  0  0  0  0  0  0  0  0  0  0  0
  -28.1567  -21.3772   16.9893 C   0  0  0  0  0  0  0  0  0  0  0  0
  -26.5656  -27.8509   20.6963 C   0  0  0  0  0  0  0  0  0  0  0  0
  -22.2792   -8.2364   22.3185 C   0  0  0  0  0  0  0  0  0  0  0  0
  -26.5187  -13.5082   20.6217 C   0  0  0  0  0  0  0  0  0  0  0  0
  -29.0323  -13.9043   20.4415 C   0  0  0  0  0  0  0  0  0  0  0  0
  -24.9988  -35.4059   25.5518 C   0  0  0  0  0  0  0  0  0  0  0  0
  -26.0676  -30.2098   20.4783 C   0  0  0  0  0  0  0  0  0  0  0  0
  -25.7036  -34.3595   24.9265 C   0  0  0  0  0  0  0  0  0  0  0  0
  -25.6830  -28.9250   20.8875 C   0  0  0  0  0  0  0  0  0  0  0  0
  -24.2033  -11.9666   20.4092 C   0  0  0  0  0  0  0  0  0  0  0  0
  -27.8080  -28.0498   20.0948 C   0  0  0  0  0  0  0  0  0  0  0  0
  -23.1127   -9.9225   20.8021 C   0  0  0  0  0  0  0  0  0  0  0  0
  -23.1926   -7.3185   21.7998 C   0  0  0  0  0  0  0  0  0  0  0  0
  -22.2393   -9.5384   21.8196 C   0  0  0  0  0  0  0  0  0  0  0  0
  -27.7142  -14.3050   20.7311 C   0  0  0  0  0  0  0  0  0  0  0  0
  -28.6536  -23.5038   17.4439 C   0  0  0  0  0  0  0  0  0  0  0  0
  -29.7947  -15.0161   20.7046 C   0  0  0  0  0  0  0  0  0  0  0  0
  -28.3817  -21.5346   18.3371 C   0  0  0  0  0  0  0  0  0  0  0  0
  -29.5235  -12.6403   19.9762 C   0  0  0  0  0  0  0  0  0  0  0  0
  -24.6891  -31.2948   23.1290 C   0  0  0  0  0  0  0  0  0  0  0  0
  -22.1004  -29.7299   21.9577 C   0  0  0  0  0  0  0  0  0  0  0  0
  -20.8725  -27.2581   19.9504 C   0  0  0  0  0  0  0  0  0  0  0  0
  -28.5950  -20.8695   20.7575 C   0  0  0  0  0  0  0  0  0  0  0  0
  -23.7307  -35.1550   26.3287 C   0  0  0  0  0  0  0  0  0  0  0  0
  -25.1322  -31.3753   20.6484 C   0  0  0  0  0  0  0  0  0  0  0  0
  -24.3487  -28.6655   21.5361 C   0  0  0  0  0  0  0  0  0  0  0  0
  -23.0759  -33.8136   26.0090 C   0  0  0  0  0  0  0  0  0  0  0  0
  -29.8779  -18.9343   23.4568 C   0  0  0  0  0  0  0  0  0  0  0  0
  -24.1166  -32.6984   26.0072 C   0  0  0  0  0  0  0  0  0  0  0  0
  -29.5940  -17.4908   23.0350 C   0  0  0  0  0  0  0  0  0  0  0  0
  -30.3380  -25.4472   16.9283 C   0  0  0  0  0  0  0  0  0  0  0  0
  -28.7564  -19.8804   23.0314 C   0  0  0  0  0  0  0  0  0  0  0  0
  -28.1178  -18.3787   21.1858 C   0  0  0  0  0  0  0  0  0  0  0  0
  -25.1813  -32.9392   24.9303 C   0  0  1  0  0  0  0  0  0  0  0  0
  -28.9375  -25.0092   17.2987 C   0  0  2  0  0  0  0  0  0  0  0  0
  -24.1020  -31.1584   21.7526 C   0  0  1  0  0  0  0  0  0  0  0  0
  -29.8334  -25.6755   18.3220 C   0  0  2  0  0  0  0  0  0  0  0  0
  -29.2501  -17.3992   21.5354 C   0  0  2  0  0  0  0  0  0  0  0  0
  -18.7168  -26.1956   19.2283 C   0  0  0  0  0  0  0  0  0  0  0  0
  -21.9189  -28.2826   24.6377 C   0  0  0  0  0  0  0  0  0  0  0  0
  -20.4059  -26.6089   23.5524 C   0  0  0  0  0  0  0  0  0  0  0  0
  -19.7195  -29.0032   23.6902 C   0  0  0  0  0  0  0  0  0  0  0  0
  -21.3331  -27.9764   17.1165 C   0  0  0  0  0  0  0  0  0  0  0  0
  -29.5318  -27.0572   18.7912 C   0  0  0  0  0  0  0  0  0  1  0  0
  -21.5508  -28.3294   22.0826 C   0  0  1  0  0  0  0  0  0  0  0  0
  -19.7593  -27.2585   18.9183 C   0  0  2  0  0  0  0  0  0  0  0  0
  -20.9248  -28.0609   23.4803 C   0  0  0  0  0  0  0  0  0  0  0  0
  -27.6399  -15.5723   21.1464 N   0  0  0  0  0  0  0  0  0  0  0  0
  -28.9210  -15.9775   21.1199 N   0  0  0  0  0  0  0  0  0  0  0  0
  -23.4716  -29.8385   21.6862 N   0  0  0  0  0  0  0  0  0  0  0  0
  -28.4885  -19.7415   21.5983 N   0  0  0  0  0  0  0  0  0  0  0  0
  -31.1206  -15.2552   20.6189 N   0  0  0  0  0  0  0  0  0  0  0  0
  -28.6038  -11.6057   19.7570 N   0  0  0  0  0  0  0  0  0  0  0  0
  -28.3493  -20.6094   19.4097 N   0  0  0  0  0  0  0  0  0  0  0  0
  -24.6684  -32.5847   23.6242 N   0  0  0  0  0  0  0  0  0  0  0  0
  -20.6247  -28.1535   20.9693 N   0  0  0  0  0  0  0  0  0  0  0  0
  -20.3120  -26.9927   17.5601 N   0  3  0  0  0  0  0  0  0  0  0  0
  -30.7439  -12.4293   19.7770 O   0  0  0  0  0  0  0  0  0  0  0  0
  -25.1270  -30.3029   23.7001 O   0  0  0  0  0  0  0  0  0  0  0  0
  -21.3396  -30.6920   22.0889 O   0  0  0  0  0  0  0  0  0  0  0  0
  -21.8611  -26.5331   19.8635 O   0  0  0  0  0  0  0  0  0  0  0  0
  -28.9095  -21.9787   21.1965 O   0  0  0  0  0  0  0  0  0  0  0  0
  -28.6852  -22.8281   18.6224 O   0  0  0  0  0  0  0  0  0  0  0  0
  -23.0737  -11.2144   20.3051 O   0  0  0  0  0  0  0  0  0  0  0  0
  -28.6532  -26.9986   19.9141 O   0  0  0  0  0  0  0  0  0  1  0  0
  -23.2300   -6.0678   22.2778 F   0  0  0  0  0  0  0  0  0  0  0  0
  -21.3589  -10.4155   22.3210 F   0  0  0  0  0  0  0  0  0  0  0  0
  1  2  1  0  0  0  0
  1  5  2  0  0  0  0
  2  6  2  0  0  0  0
  3  8  2  0  0  0  0
  3 17  1  0  0  0  0
  4  9  1  0  0  0  0
  4 17  2  0  0  0  0
  5 19  1  0  0  0  0
  6 21  1  0  0  0  0
  7 10  2  0  0  0  0
  7 20  1  0  0  0  0
  8 23  1  0  0  0  0
  9 23  2  0  0  0  0
 10 24  1  0  0  0  0
 11 12  2  0  0  0  0
 11 25  1  0  0  0  0
 12 26  1  0  0  0  0
 13 14  1  0  0  0  0
 13 29  2  0  0  0  0
 14 31  2  0  0  0  0
 15 22  1  0  0  0  0
 15 24  2  0  0  0  0
 16 26  2  0  0  0  0
 16 27  1  0  0  0  0
 17 28  1  0  0  0  0
 18 28  1  0  0  0  0
 18 30  2  0  0  0  0
 18 32  1  0  0  0  0
 19 21  2  0  0  0  0
 19 37  1  0  0  0  0
 20 22  2  0  0  0  0
 20 38  1  0  0  0  0
 21 47  1  0  0  0  0
 22 39  1  0  0  0  0
 23 77  1  0  0  0  0
 24 78  1  0  0  0  0
 25 27  2  0  0  0  0
 25 77  1  0  0  0  0
 26 79  1  0  0  0  0
 27 80  1  0  0  0  0
 28 61  2  0  0  0  0
 29 48  1  0  0  0  0
 29 76  1  0  0  0  0
 30 62  1  0  0  0  0
 30 65  1  0  0  0  0
 31 67  1  0  0  0  0
 31 76  1  0  0  0  0
 32 66  1  0  0  0  0
 32 71  2  0  0  0  0
 33 49  1  0  0  0  0
 33 68  1  0  0  0  0
 33 72  2  0  0  0  0
 34 58  1  0  0  0  0
 34 63  1  0  0  0  0
 34 73  2  0  0  0  0
 35 59  1  0  0  0  0
 35 69  1  0  0  0  0
 35 74  2  0  0  0  0
 36 64  1  0  0  0  0
 36 67  1  0  0  0  0
 36 75  2  0  0  0  0
 37 40  1  0  0  0  0
 38 49  1  0  0  0  0
 39 63  1  0  0  0  0
 40 42  1  0  0  0  0
 41 43  1  0  0  0  0
 41 45  1  0  0  0  0
 42 47  1  0  0  0  0
 43 51  1  0  0  0  0
 44 48  1  0  0  0  0
 44 50  1  0  0  0  0
 45 64  1  0  0  0  0
 46 51  1  0  0  0  0
 46 64  1  0  0  0  0
 47 68  1  0  0  0  0
 48 50  1  0  0  0  0
 49 63  1  0  0  0  0
 50 57  1  0  0  0  0
 51 62  1  0  0  0  0
 52 59  1  0  0  0  0
 53 60  1  0  0  0  0
 54 60  1  0  0  0  0
 55 60  1  0  0  0  0
 56 70  1  0  0  0  0
 57 78  1  0  0  0  0
 58 60  1  0  0  0  0
 58 69  1  0  0  0  0
 59 70  1  0  0  0  0
 61 62  1  0  0  0  0
M  CHG  1  70   1
M  ISO  4  36 100  57 101  67 100  78 101
M  END
> <Batch ID>
0147

> <Smiles>
CNC(C)C(=O)NC(C(=O)N1Cc2cc([101O:1][101CH2:1]C3CC3c3ccc([100NH:0][100C:0](=O)N4CCCC(n5nc(-c6ccc(Oc7ccc(F)cc7F)cc6)c(C(N)=O)c5N)C4)o3)ccc2CC1C(=O)NC1CCCc2ccccc21)C(C)(C)C

> <Shape>
0.358

> <Color>
0.099

> <Negative vol penalty>
0.000

$$$$

  -OEChem-04052303133D

 85 94  0     1  0  0  0  0  0999 V2000
  -28.3593  -38.0589   22.3014 C   0  0  0  0  0  0  0  0  0  0  0  0
  -28.8354  -36.8012   21.9451 C   0  0  0  0  0  0  0  0  0  0  0  0
  -24.2927   -8.8180   21.4270 C   0  0  0  0  0  0  0  0  0  0  0  0
  -24.7652  -10.2344   23.3263 C   0  0  0  0  0  0  0  0  0  0  0  0
  -27.2785  -38.1721   23.1749 C   0  0  0  0  0  0  0  0  0  0  0  0
  -28.2316  -35.6560   22.4630 C   0  0  0  0  0  0  0  0  0  0  0  0
  -27.4892  -30.2809   19.6233 C   0  0  0  0  0  0  0  0  0  0  0  0
  -29.9406  -20.1014   19.7081 C   0  0  0  0  0  0  0  0  0  0  0  0
  -27.5511  -20.2501   20.0320 C   0  0  0  0  0  0  0  0  0  0  0  0
  -29.8173  -18.7418   19.4220 C   0  0  0  0  0  0  0  0  0  0  0  0
  -27.4277  -18.8905   19.7459 C   0  0  0  0  0  0  0  0  0  0  0  0
  -24.0112   -7.7573   22.2880 C   0  0  0  0  0  0  0  0  0  0  0  0
  -24.4837   -9.1738   24.1874 C   0  0  0  0  0  0  0  0  0  0  0  0
  -28.2081  -29.0874   19.6717 C   0  0  0  0  0  0  0  0  0  0  0  0
  -21.4443   -6.7523   24.2460 C   0  0  0  0  0  0  0  0  0  0  0  0
  -20.3034   -5.9926   23.9873 C   0  0  0  0  0  0  0  0  0  0  0  0
  -26.6605  -28.2287   21.3109 C   0  0  0  0  0  0  0  0  0  0  0  0
  -21.6741   -4.0187   23.7387 C   0  0  0  0  0  0  0  0  0  0  0  0
  -24.6698  -10.0565   21.9461 C   0  0  0  0  0  0  0  0  0  0  0  0
  -24.0564  -12.1127   20.5664 C   0  0  0  0  0  0  0  0  0  0  0  0
  -26.6549  -37.0275   23.6961 C   0  0  0  0  0  0  0  0  0  0  0  0
  -26.3549  -30.4618   20.4277 C   0  0  0  0  0  0  0  0  0  0  0  0
  -27.1422  -35.7540   23.3453 C   0  0  0  0  0  0  0  0  0  0  0  0
  -25.9275  -29.4246   21.2689 C   0  0  0  0  0  0  0  0  0  0  0  0
  -28.8075  -20.8556   20.0132 C   0  0  0  0  0  0  0  0  0  0  0  0
  -28.5608  -18.1363   19.4409 C   0  0  0  0  0  0  0  0  0  0  0  0
  -24.1067   -7.9352   23.6682 C   0  0  0  0  0  0  0  0  0  0  0  0
  -27.7955  -28.0621   20.5177 C   0  0  0  0  0  0  0  0  0  0  0  0
  -22.7001   -6.1451   24.2509 C   0  0  0  0  0  0  0  0  0  0  0  0
  -20.4183   -4.6259   23.7337 C   0  0  0  0  0  0  0  0  0  0  0  0
  -22.8150   -4.7783   23.9973 C   0  0  0  0  0  0  0  0  0  0  0  0
  -24.9613  -11.1524   21.0572 C   0  0  0  0  0  0  0  0  0  0  0  0
  -24.8209  -12.9287   19.7688 C   0  0  0  0  0  0  0  0  0  0  0  0
  -22.6506  -12.2545   20.8098 C   0  0  0  0  0  0  0  0  0  0  0  0
  -25.5551  -32.4692   22.7589 C   0  0  0  0  0  0  0  0  0  0  0  0
  -22.6703  -31.0093   22.4969 C   0  0  0  0  0  0  0  0  0  0  0  0
  -20.8934  -28.2522   21.5546 C   0  0  0  0  0  0  0  0  0  0  0  0
  -29.4582  -15.8635   18.8282 C   0  0  0  0  0  0  0  0  0  0  0  0
  -25.5198  -37.2008   24.6740 C   0  0  0  0  0  0  0  0  0  0  0  0
  -25.5750  -31.7452   20.3441 C   0  0  0  0  0  0  0  0  0  0  0  0
  -24.7047  -29.5610   22.1377 C   0  0  0  0  0  0  0  0  0  0  0  0
  -24.6979  -35.9318   24.8842 C   0  0  0  0  0  0  0  0  0  0  0  0
  -29.5625  -12.3834   18.0832 C   0  0  0  0  0  0  0  0  0  0  0  0
  -25.6145  -34.7311   25.0961 C   0  0  0  0  0  0  0  0  0  0  0  0
  -28.3003  -11.8319   18.7502 C   0  0  0  0  0  0  0  0  0  0  0  0
  -29.8828  -24.3483   20.6385 C   0  0  0  0  0  0  0  0  0  0  0  0
  -30.2033  -13.4944   18.9132 C   0  0  0  0  0  0  0  0  0  0  0  0
  -30.2191  -22.8972   20.2975 C   0  0  0  0  0  0  0  0  0  0  0  0
  -28.0375  -14.0386   19.9537 C   0  0  0  0  0  0  0  0  0  0  0  0
  -26.4980  -34.4878   23.8666 C   0  0  1  0  0  0  0  0  0  0  0  0
  -24.7322  -32.0143   21.5869 C   0  0  1  0  0  0  0  0  0  0  0  0
  -27.3205  -12.9617   19.1232 C   0  0  2  0  0  0  0  0  0  0  0  0
  -27.8069  -23.1308   20.5241 C   0  0  2  0  0  0  0  0  0  0  0  0
  -28.4259  -24.5191   20.1786 C   0  0  2  0  0  0  0  0  0  0  0  0
  -27.3205  -22.9955   21.9707 C   0  0  0  0  0  0  0  0  0  0  0  0
  -28.3690  -24.7566   18.6542 C   0  0  0  0  0  0  0  0  0  0  0  0
  -18.5567  -27.3390   21.4984 C   0  0  0  0  0  0  0  0  0  0  0  0
  -22.8135  -30.4650   25.4957 C   0  0  0  0  0  0  0  0  0  0  0  0
  -20.9884  -28.7758   25.2057 C   0  0  0  0  0  0  0  0  0  0  0  0
  -20.5618  -31.1746   24.6706 C   0  0  0  0  0  0  0  0  0  0  0  0
  -20.9298  -28.0229   18.6041 C   0  0  0  0  0  0  0  0  0  0  0  0
  -27.7631  -25.7113   20.8759 C   0  0  0  0  0  0  0  0  0  1  0  0
  -22.0218  -29.8017   23.1294 C   0  0  1  0  0  0  0  0  0  0  0  0
  -19.6257  -28.1032   20.7329 C   0  0  2  0  0  0  0  0  0  0  0  0
  -21.6206  -30.0521   24.6105 C   0  0  0  0  0  0  0  0  0  0  0  0
  -26.2054  -11.3396   20.6087 N   0  0  0  0  0  0  0  0  0  0  0  0
  -26.0877  -12.4269   19.8277 N   0  0  0  0  0  0  0  0  0  0  0  0
  -28.9299  -22.2029   20.2987 N   0  0  3  0  0  0  0  0  0  0  0  0
  -23.9793  -30.8372   22.0250 N   0  0  0  0  0  0  0  0  0  0  0  0
  -29.2169  -14.5312   19.2249 N   0  0  0  0  0  0  0  0  0  0  0  0
  -24.5262  -14.0192   19.0297 N   0  0  0  0  0  0  0  0  0  0  0  0
  -22.0222  -11.3296   21.6549 N   0  0  0  0  0  0  0  0  0  0  0  0
  -28.4355  -16.7552   19.1502 N   0  0  0  0  0  0  0  0  0  0  0  0
  -25.7394  -33.8373   22.8198 N   0  0  0  0  0  0  0  0  0  0  0  0
  -20.9073  -29.4355   22.2621 N   0  0  0  0  0  0  0  0  0  0  0  0
  -19.9119  -27.3703   19.4672 N   0  3  0  0  0  0  0  0  0  0  0  0
  -21.9685  -13.1643   20.2802 O   0  0  0  0  0  0  0  0  0  0  0  0
  -25.9894  -31.6404   23.5503 O   0  0  0  0  0  0  0  0  0  0  0  0
  -22.0361  -32.0643   22.4176 O   0  0  0  0  0  0  0  0  0  0  0  0
  -21.7808  -27.4020   21.5703 O   0  0  0  0  0  0  0  0  0  0  0  0
  -30.4834  -16.1845   18.2215 O   0  0  0  0  0  0  0  0  0  0  0  0
  -23.8318   -6.9005   24.5087 O   0  0  0  0  0  0  0  0  0  0  0  0
  -28.4957  -26.8963   20.5674 O   0  0  0  0  0  0  0  0  0  1  0  0
  -19.3225   -3.8962   23.4869 F   0  0  0  0  0  0  0  0  0  0  0  0
  -24.0187   -4.1892   24.0019 F   0  0  0  0  0  0  0  0  0  0  0  0
  1  2  1  0  0  0  0
  1  5  2  0  0  0  0
  2  6  2  0  0  0  0
  3 12  2  0  0  0  0
  3 19  1  0  0  0  0
  4 13  1  0  0  0  0
  4 19  2  0  0  0  0
  5 21  1  0  0  0  0
  6 23  1  0  0  0  0
  7 14  2  0  0  0  0
  7 22  1  0  0  0  0
  8 10  2  0  0  0  0
  8 25  1  0  0  0  0
  9 11  1  0  0  0  0
  9 25  2  0  0  0  0
 10 26  1  0  0  0  0
 11 26  2  0  0  0  0
 12 27  1  0  0  0  0
 13 27  2  0  0  0  0
 14 28  1  0  0  0  0
 15 16  2  0  0  0  0
 15 29  1  0  0  0  0
 16 30  1  0  0  0  0
 17 24  1  0  0  0  0
 17 28  2  0  0  0  0
 18 30  2  0  0  0  0
 18 31  1  0  0  0  0
 19 32  1  0  0  0  0
 20 32  1  0  0  0  0
 20 33  2  0  0  0  0
 20 34  1  0  0  0  0
 21 23  2  0  0  0  0
 21 39  1  0  0  0  0
 22 24  2  0  0  0  0
 22 40  1  0  0  0  0
 23 50  1  0  0  0  0
 24 41  1  0  0  0  0
 25 68  1  0  0  0  0
 26 73  1  0  0  0  0
 27 82  1  0  0  0  0
 28 83  1  0  0  0  0
 29 31  2  0  0  0  0
 29 82  1  0  0  0  0
 30 84  1  0  0  0  0
 31 85  1  0  0  0  0
 32 66  2  0  0  0  0
 33 67  1  0  0  0  0
 33 71  1  0  0  0  0
 34 72  1  0  0  0  0
 34 77  2  0  0  0  0
 35 51  1  0  0  0  0
 35 74  1  0  0  0  0
 35 78  2  0  0  0  0
 36 63  1  0  0  0  0
 36 69  1  0  0  0  0
 36 79  2  0  0  0  0
 37 64  1  0  0  0  0
 37 75  1  0  0  0  0
 37 80  2  0  0  0  0
 38 70  1  0  0  0  0
 38 73  1  0  0  0  0
 38 81  2  0  0  0  0
 39 42  1  0  0  0  0
 40 51  1  0  0  0  0
 41 69  1  0  0  0  0
 42 44  1  0  0  0  0
 43 45  1  0  0  0  0
 43 47  1  0  0  0  0
 44 50  1  0  0  0  0
 45 52  1  0  0  0  0
 46 48  1  0  0  0  0
 46 54  1  0  0  0  0
 47 70  1  0  0  0  0
 48 68  1  0  0  0  0
 49 52  1  0  0  0  0
 49 70  1  0  0  0  0
 50 74  1  0  0  0  0
 51 69  1  0  0  0  0
 52 67  1  0  0  0  0
 53 54  1  0  0  0  0
 53 55  1  0  0  0  0
 53 68  1  0  0  0  0
 54 56  1  0  0  0  0
 54 62  1  0  0  0  0
 57 64  1  0  0  0  0
 58 65  1  0  0  0  0
 59 65  1  0  0  0  0
 60 65  1  0  0  0  0
 61 76  1  0  0  0  0
 62 83  1  0  0  0  0
 63 65  1  0  0  0  0
 63 75  1  0  0  0  0
 64 76  1  0  0  0  0
 66 67  1  0  0  0  0
M  CHG  1  76   1
M  ISO  4  38 100  62 101  73 100  83 101
M  END
> <Batch ID>
0147

> <Smiles>
CNC(C)C(=O)NC(C(=O)N1Cc2cc([101O:1][101CH2:1]C3(C)CCN(c4ccc([100NH:0][100C:0](=O)N5CCCC(n6nc(-c7ccc(Oc8ccc(F)cc8F)cc7)c(C(N)=O)c6N)C5)cc4)C3C)ccc2CC1C(=O)NC1CCCc2ccccc21)C(C)(C)C

> <Shape>
0.368

> <Color>
0.107

> <Negative vol penalty>
0.000

$$$$

  -OEChem-04052303133D

 85 93  0     1  0  0  0  0  0999 V2000
  -26.4827  -37.4258   22.3106 C   0  0  0  0  0  0  0  0  0  0  0  0
  -27.1288  -36.2806   21.8561 C   0  0  0  0  0  0  0  0  0  0  0  0
  -25.8261  -10.8529   23.2387 C   0  0  0  0  0  0  0  0  0  0  0  0
  -23.4863  -11.4491   23.1553 C   0  0  0  0  0  0  0  0  0  0  0  0
  -25.4641  -37.3211   23.2568 C   0  0  0  0  0  0  0  0  0  0  0  0
  -26.7572  -35.0300   22.3485 C   0  0  0  0  0  0  0  0  0  0  0  0
  -26.6895  -29.7346   19.2729 C   0  0  0  0  0  0  0  0  0  0  0  0
  -25.5776  -10.0312   24.3381 C   0  0  0  0  0  0  0  0  0  0  0  0
  -23.2378  -10.6274   24.2547 C   0  0  0  0  0  0  0  0  0  0  0  0
  -27.5934  -28.6750   19.2095 C   0  0  0  0  0  0  0  0  0  0  0  0
  -21.9234   -8.4066   26.8157 C   0  0  0  0  0  0  0  0  0  0  0  0
  -20.8096   -7.5687   26.7614 C   0  0  0  0  0  0  0  0  0  0  0  0
  -29.8176  -21.8570   18.2238 C   0  0  0  0  0  0  0  0  0  0  0  0
  -26.3279  -27.5025   20.8956 C   0  0  0  0  0  0  0  0  0  0  0  0
  -21.7191   -6.4865   24.8021 C   0  0  0  0  0  0  0  0  0  0  0  0
  -24.7805  -11.5618   22.6473 C   0  0  0  0  0  0  0  0  0  0  0  0
  -29.6381  -20.8421   17.2400 C   0  0  0  0  0  0  0  0  0  0  0  0
  -24.9926  -12.0490   20.1522 C   0  0  0  0  0  0  0  0  0  0  0  0
  -25.0732  -36.0678   23.7538 C   0  0  0  0  0  0  0  0  0  0  0  0
  -25.6022  -29.6907   20.1574 C   0  0  0  0  0  0  0  0  0  0  0  0
  -25.7332  -34.9086   23.3032 C   0  0  0  0  0  0  0  0  0  0  0  0
  -25.4102  -28.5616   20.9664 C   0  0  0  0  0  0  0  0  0  0  0  0
  -24.2835   -9.9185   24.8461 C   0  0  0  0  0  0  0  0  0  0  0  0
  -27.4144  -27.5600   20.0230 C   0  0  0  0  0  0  0  0  0  0  0  0
  -22.9351   -8.2845   25.8631 C   0  0  0  0  0  0  0  0  0  0  0  0
  -20.7075   -6.6086   25.7547 C   0  0  0  0  0  0  0  0  0  0  0  0
  -22.8329   -7.3245   24.8563 C   0  0  0  0  0  0  0  0  0  0  0  0
  -25.0367  -12.4112   21.5119 C   0  0  0  0  0  0  0  0  0  0  0  0
  -29.8693  -21.3105   15.9653 C   0  0  0  0  0  0  0  0  0  0  0  0
  -25.3099  -13.2034   19.4790 C   0  0  0  0  0  0  0  0  0  0  0  0
  -30.1794  -23.0625   17.6635 C   0  0  0  0  0  0  0  0  0  0  0  0
  -29.2659  -19.5052   17.5242 C   0  0  0  0  0  0  0  0  0  0  0  0
  -28.9988  -18.9724   18.7605 C   0  0  0  0  0  0  0  0  0  0  0  0
  -24.6918  -10.7824   19.5515 C   0  0  0  0  0  0  0  0  0  0  0  0
  -28.6111  -17.5536   18.8930 C   0  0  0  0  0  0  0  0  0  0  0  0
  -24.6597  -31.4355   22.6416 C   0  0  0  0  0  0  0  0  0  0  0  0
  -22.0374  -29.5323   22.4865 C   0  0  0  0  0  0  0  0  0  0  0  0
  -20.6660  -26.5633   21.5114 C   0  0  0  0  0  0  0  0  0  0  0  0
  -23.9990  -36.0088   24.8108 C   0  0  0  0  0  0  0  0  0  0  0  0
  -24.6211  -30.8302   20.1945 C   0  0  0  0  0  0  0  0  0  0  0  0
  -24.2477  -28.4566   21.9183 C   0  0  0  0  0  0  0  0  0  0  0  0
  -23.4104  -34.6136   25.0038 C   0  0  0  0  0  0  0  0  0  0  0  0
  -25.7053  -17.9663   21.0880 C   0  0  0  0  0  0  0  0  0  0  0  0
  -24.5219  -33.5726   25.0902 C   0  0  0  0  0  0  0  0  0  0  0  0
  -25.3015  -16.5123   21.3171 C   0  0  0  0  0  0  0  0  0  0  0  0
  -27.2191  -18.1251   20.9551 C   0  0  0  0  0  0  0  0  0  0  0  0
  -27.4167  -15.7941   20.1381 C   0  0  0  0  0  0  0  0  0  0  0  0
  -25.3417  -33.5320   23.7949 C   0  0  1  0  0  0  0  0  0  0  0  0
  -23.8383  -30.9023   21.5020 C   0  0  1  0  0  0  0  0  0  0  0  0
  -25.8944  -15.6046   20.2278 C   0  0  1  0  0  0  0  0  0  0  0  0
  -31.0073  -19.6924   14.4248 C   0  0  0  0  0  0  0  0  0  0  0  0
  -18.5097  -25.2803   21.5560 C   0  0  0  0  0  0  0  0  0  0  0  0
  -22.4838  -28.8894   25.4357 C   0  0  0  0  0  0  0  0  0  0  0  0
  -20.9396  -26.9365   25.1719 C   0  0  0  0  0  0  0  0  0  0  0  0
  -20.0932  -29.2529   24.7975 C   0  0  0  0  0  0  0  0  0  0  0  0
  -30.4839  -25.8615   21.7811 C   0  0  0  0  0  0  0  0  0  0  0  0
  -32.0657  -26.2358   19.8820 C   0  0  0  0  0  0  0  0  0  0  0  0
  -20.5249  -26.4714   18.5566 C   0  0  0  0  0  0  0  0  0  0  0  0
  -29.7932  -20.5902   14.6725 C   0  0  0  0  0  0  0  0  0  0  0  0
  -30.3389  -24.3775   19.7780 C   0  0  0  0  0  0  0  0  0  0  0  0
  -29.6438  -26.8385   19.6171 C   0  0  0  0  0  0  0  0  0  1  0  0
  -21.6403  -28.2079   23.0926 C   0  0  1  0  0  0  0  0  0  0  0  0
  -19.3828  -26.2429   20.7662 C   0  0  2  0  0  0  0  0  0  0  0  0
  -21.3123  -28.3242   24.6080 C   0  0  0  0  0  0  0  0  0  0  0  0
  -30.6266  -25.8251   20.2453 C   0  0  0  0  0  0  0  0  0  0  0  0
  -25.3568  -13.6951   21.6934 N   0  0  0  0  0  0  0  0  0  0  0  0
  -25.5170  -14.1499   20.4390 N   0  0  0  0  0  0  0  0  0  0  0  0
  -27.7705  -17.2053   19.9488 N   0  0  0  0  0  0  0  0  0  0  0  0
  -23.3193  -29.5992   21.9226 N   0  0  0  0  0  0  0  0  0  0  0  0
  -25.4293  -13.4910   18.1654 N   0  0  0  0  0  0  0  0  0  0  0  0
  -24.3871   -9.7011   20.3894 N   0  0  0  0  0  0  0  0  0  0  0  0
  -30.4282  -24.2441   18.3418 N   0  0  0  0  0  0  0  0  0  0  0  0
  -24.6243  -32.8113   22.7651 N   0  0  0  0  0  0  0  0  0  0  0  0
  -20.5396  -27.7009   22.2802 N   0  0  0  0  0  0  0  0  0  0  0  0
  -19.6912  -25.6229   19.4465 N   0  3  0  0  0  0  0  0  0  0  0  0
  -24.7091  -10.6105   18.3090 O   0  0  0  0  0  0  0  0  0  0  0  0
  -29.0597  -16.7616   18.0623 O   0  0  0  0  0  0  0  0  0  0  0  0
  -25.2784  -30.6562   23.3568 O   0  0  0  0  0  0  0  0  0  0  0  0
  -21.2369  -30.4706   22.5062 O   0  0  0  0  0  0  0  0  0  0  0  0
  -21.6779  -25.8713   21.4234 O   0  0  0  0  0  0  0  0  0  0  0  0
  -24.0406   -9.1166   25.9188 O   0  0  0  0  0  0  0  0  0  0  0  0
  -28.2956  -26.5247   19.9637 O   0  0  0  0  0  0  0  0  0  1  0  0
  -19.6386   -5.8030   25.7036 F   0  0  0  0  0  0  0  0  0  0  0  0
  -23.8022   -7.2017   23.9391 F   0  0  0  0  0  0  0  0  0  0  0  0
  -30.3010  -22.9676   15.9581 S   0  0  0  0  0  0  0  0  0  0  0  0
  1  2  1  0  0  0  0
  1  5  2  0  0  0  0
  2  6  2  0  0  0  0
  3  8  2  0  0  0  0
  3 16  1  0  0  0  0
  4  9  1  0  0  0  0
  4 16  2  0  0  0  0
  5 19  1  0  0  0  0
  6 21  1  0  0  0  0
  7 10  2  0  0  0  0
  7 20  1  0  0  0  0
  8 23  1  0  0  0  0
  9 23  2  0  0  0  0
 10 24  1  0  0  0  0
 11 12  2  0  0  0  0
 11 25  1  0  0  0  0
 12 26  1  0  0  0  0
 13 17  1  0  0  0  0
 13 31  2  0  0  0  0
 14 22  1  0  0  0  0
 14 24  2  0  0  0  0
 15 26  2  0  0  0  0
 15 27  1  0  0  0  0
 16 28  1  0  0  0  0
 17 29  2  0  0  0  0
 17 32  1  0  0  0  0
 18 28  1  0  0  0  0
 18 30  2  0  0  0  0
 18 34  1  0  0  0  0
 19 21  2  0  0  0  0
 19 39  1  0  0  0  0
 20 22  2  0  0  0  0
 20 40  1  0  0  0  0
 21 48  1  0  0  0  0
 22 41  1  0  0  0  0
 23 81  1  0  0  0  0
 24 82  1  0  0  0  0
 25 27  2  0  0  0  0
 25 81  1  0  0  0  0
 26 83  1  0  0  0  0
 27 84  1  0  0  0  0
 28 66  2  0  0  0  0
 29 59  1  0  0  0  0
 29 85  1  0  0  0  0
 30 67  1  0  0  0  0
 30 70  1  0  0  0  0
 31 72  1  0  0  0  0
 31 85  1  0  0  0  0
 32 33  2  0  0  0  0
 33 35  1  0  0  0  0
 34 71  1  0  0  0  0
 34 76  2  0  0  0  0
 35 68  1  0  0  0  0
 35 77  2  0  0  0  0
 36 49  1  0  0  0  0
 36 73  1  0  0  0  0
 36 78  2  0  0  0  0
 37 62  1  0  0  0  0
 37 69  1  0  0  0  0
 37 79  2  0  0  0  0
 38 63  1  0  0  0  0
 38 74  1  0  0  0  0
 38 80  2  0  0  0  0
 39 42  1  0  0  0  0
 40 49  1  0  0  0  0
 41 69  1  0  0  0  0
 42 44  1  0  0  0  0
 43 45  1  0  0  0  0
 43 46  1  0  0  0  0
 44 48  1  0  0  0  0
 45 50  1  0  0  0  0
 46 68  1  0  0  0  0
 47 50  1  0  0  0  0
 47 68  1  0  0  0  0
 48 73  1  0  0  0  0
 49 69  1  0  0  0  0
 50 67  1  0  0  0  0
 51 59  1  0  0  0  0
 52 63  1  0  0  0  0
 53 64  1  0  0  0  0
 54 64  1  0  0  0  0
 55 64  1  0  0  0  0
 56 65  1  0  0  0  0
 57 65  1  0  0  0  0
 58 75  1  0  0  0  0
 60 65  1  0  0  0  0
 60 72  1  0  0  0  0
 61 65  1  0  0  0  0
 61 82  1  0  0  0  0
 62 64  1  0  0  0  0
 62 74  1  0  0  0  0
 63 75  1  0  0  0  0
 66 67  1  0  0  0  0
M  CHG  1  75   1
M  ISO  4  33 100  35 100  61 101  82 101
M  END
> <Batch ID>
0147

> <Smiles>
CCc1sc(NCC(C)(C)[101CH2:1][101O:1]c2ccc3c(c2)CN(C(=O)C(NC(=O)C(C)NC)C(C)(C)C)C(C(=O)NC2CCCc4ccccc42)C3)cc1C=[100CH:0][100C:0](=O)N1CCCC(n2nc(-c3ccc(Oc4ccc(F)cc4F)cc3)c(C(N)=O)c2N)C1

> <Shape>
0.297

> <Color>
0.063

> <Negative vol penalty>
0.000

$$$$

  -OEChem-04052303133D

 82 91  0     1  0  0  0  0  0999 V2000
  -28.5590  -25.0748   16.4365 C   0  0  0  0  0  0  0  0  0  0  0  0
  -27.3714  -25.1595   17.1561 C   0  0  0  0  0  0  0  0  0  0  0  0
  -26.1957  -13.5657   19.8941 C   0  0  0  0  0  0  0  0  0  0  0  0
  -23.9196  -13.6762   20.6969 C   0  0  0  0  0  0  0  0  0  0  0  0
  -29.7232  -25.6493   16.9449 C   0  0  0  0  0  0  0  0  0  0  0  0
  -27.3475  -25.8179   18.3850 C   0  0  0  0  0  0  0  0  0  0  0  0
  -23.3491  -28.8880   18.8671 C   0  0  0  0  0  0  0  0  0  0  0  0
  -26.3264  -12.2890   20.4403 C   0  0  0  0  0  0  0  0  0  0  0  0
  -24.0503  -12.3994   21.2431 C   0  0  0  0  0  0  0  0  0  0  0  0
  -22.1239  -28.2951   19.1691 C   0  0  0  0  0  0  0  0  0  0  0  0
  -23.9814   -9.2037   20.1461 C   0  0  0  0  0  0  0  0  0  0  0  0
  -22.9376   -8.3019   19.9390 C   0  0  0  0  0  0  0  0  0  0  0  0
  -22.4060  -28.9064   21.4855 C   0  0  0  0  0  0  0  0  0  0  0  0
  -21.1689  -23.1352   22.8549 C   0  0  0  0  0  0  0  0  0  0  0  0
  -22.6206   -8.1204   22.3272 C   0  0  0  0  0  0  0  0  0  0  0  0
  -24.9923  -14.2594   20.0224 C   0  0  0  0  0  0  0  0  0  0  0  0
  -24.4157  -15.9083   18.1633 C   0  0  0  0  0  0  0  0  0  0  0  0
  -29.7115  -26.3234   18.1762 C   0  0  0  0  0  0  0  0  0  0  0  0
  -24.1183  -29.4859   19.8757 C   0  0  0  0  0  0  0  0  0  0  0  0
  -28.5130  -26.4008   18.9110 C   0  0  0  0  0  0  0  0  0  0  0  0
  -23.6394  -29.5084   21.1933 C   0  0  0  0  0  0  0  0  0  0  0  0
  -21.7623  -21.9097   22.6076 C   0  0  0  0  0  0  0  0  0  0  0  0
  -25.2537  -11.7058   21.1148 C   0  0  0  0  0  0  0  0  0  0  0  0
  -21.6535  -28.3018   20.4790 C   0  0  0  0  0  0  0  0  0  0  0  0
  -24.3449   -9.5638   21.4438 C   0  0  0  0  0  0  0  0  0  0  0  0
  -22.2572   -7.7603   21.0295 C   0  0  0  0  0  0  0  0  0  0  0  0
  -23.6644   -9.0222   22.5343 C   0  0  0  0  0  0  0  0  0  0  0  0
  -24.8568  -15.5786   19.4589 C   0  0  0  0  0  0  0  0  0  0  0  0
  -20.9036  -20.8859   22.5043 C   0  0  0  0  0  0  0  0  0  0  0  0
  -24.4668  -17.2802   18.1220 C   0  0  0  0  0  0  0  0  0  0  0  0
  -19.7894  -22.9362   22.9433 C   0  0  0  0  0  0  0  0  0  0  0  0
  -23.9970  -15.0512   17.0929 C   0  0  0  0  0  0  0  0  0  0  0  0
  -27.0047  -28.9661   21.1013 C   0  0  0  0  0  0  0  0  0  0  0  0
  -19.3574  -25.9821   22.0519 C   0  0  0  0  0  0  0  0  0  0  0  0
  -26.3712  -31.6916   22.7422 C   0  0  0  0  0  0  0  0  0  0  0  0
  -24.0368  -33.8386   24.0022 C   0  0  0  0  0  0  0  0  0  0  0  0
  -24.1411  -21.5482   22.2034 C   0  0  0  0  0  0  0  0  0  0  0  0
  -31.0055  -26.8876   18.7072 C   0  0  0  0  0  0  0  0  0  0  0  0
  -25.4253  -30.1446   19.5289 C   0  0  0  0  0  0  0  0  0  0  0  0
  -24.4175  -30.1552   22.3090 C   0  0  0  0  0  0  0  0  0  0  0  0
  -22.0158  -19.9281   22.2460 C   0  0  0  0  0  0  0  0  0  0  0  0
  -30.8124  -27.8920   19.8404 C   0  0  0  0  0  0  0  0  0  0  0  0
  -26.8291  -20.9945   20.0304 C   0  0  0  0  0  0  0  0  0  0  0  0
  -29.8207  -27.3543   20.8671 C   0  0  0  0  0  0  0  0  0  0  0  0
  -26.5761  -19.5858   19.4852 C   0  0  0  0  0  0  0  0  0  0  0  0
  -26.4700  -21.1038   21.5127 C   0  0  0  0  0  0  0  0  0  0  0  0
  -24.8912  -19.2450   21.3324 C   0  0  0  0  0  0  0  0  0  0  0  0
  -28.4415  -27.1281   20.2361 C   0  0  1  0  0  0  0  0  0  0  0  0
  -26.3655  -30.2723   20.7235 C   0  0  1  0  0  0  0  0  0  0  0  0
  -25.1551  -19.0932   19.8259 C   0  0  2  0  0  0  0  0  0  0  0  0
  -23.8221  -35.9578   25.3289 C   0  0  0  0  0  0  0  0  0  0  0  0
  -27.0127  -30.1535   25.2982 C   0  0  0  0  0  0  0  0  0  0  0  0
  -25.8872  -31.9758   26.5944 C   0  0  0  0  0  0  0  0  0  0  0  0
  -27.9126  -32.4859   25.2305 C   0  0  0  0  0  0  0  0  0  0  0  0
  -22.6831  -35.2350   21.7714 C   0  0  0  0  0  0  0  0  0  0  0  0
  -19.1323  -25.3022   23.3857 C   0  0  0  0  0  0  0  0  0  0  0  0
  -20.2989  -27.1706   22.0731 C   0  0  0  0  0  0  0  0  0  1  0  0
  -25.7190  -32.0163   24.0644 C   0  0  1  0  0  0  0  0  0  0  0  0
  -23.9204  -35.3508   23.9380 C   0  0  2  0  0  0  0  0  0  0  0  0
  -26.6189  -31.6439   25.2764 C   0  0  0  0  0  0  0  0  0  0  0  0
  -25.1656  -16.6543   20.1878 N   0  0  0  0  0  0  0  0  0  0  0  0
  -24.9182  -17.6735   19.3475 N   0  0  0  0  0  0  0  0  0  0  0  0
  -22.8488  -21.1258   22.3708 N   0  0  0  0  0  0  0  0  0  0  0  0
  -25.6926  -30.7804   21.9207 N   0  0  0  0  0  0  0  0  0  0  0  0
  -25.0951  -20.6410   21.7316 N   0  0  0  0  0  0  0  0  0  0  0  0
  -24.1693  -18.1765   17.1574 N   0  0  0  0  0  0  0  0  0  0  0  0
  -24.0051  -13.6657   17.3043 N   0  0  0  0  0  0  0  0  0  0  0  0
  -18.8485  -23.8851   23.1801 N   0  0  0  0  0  0  0  0  0  0  0  0
  -27.7417  -28.3860   20.0865 N   0  0  0  0  0  0  0  0  0  0  0  0
  -25.3529  -33.4272   24.0033 N   0  0  0  0  0  0  0  0  0  0  0  0
  -22.7077  -35.7447   23.1666 N   0  3  0  0  0  0  0  0  0  0  0  0
  -23.6423  -15.4998   15.9765 O   0  0  0  0  0  0  0  0  0  0  0  0
  -26.8426  -28.5183   22.2304 O   0  0  0  0  0  0  0  0  0  0  0  0
  -18.8174  -25.6042   21.0130 O   0  0  0  0  0  0  0  0  0  0  0  0
  -27.4398  -32.2320   22.4461 O   0  0  0  0  0  0  0  0  0  0  0  0
  -23.0582  -33.0966   24.0505 O   0  0  0  0  0  0  0  0  0  0  0  0
  -24.4426  -22.7284   22.4364 O   0  0  0  0  0  0  0  0  0  0  0  0
  -25.3809  -10.4598   21.6477 O   0  0  0  0  0  0  0  0  0  0  0  0
  -20.4459  -27.7172   20.7797 O   0  0  0  0  0  0  0  0  0  1  0  0
  -21.2539   -6.8955   20.8305 F   0  0  0  0  0  0  0  0  0  0  0  0
  -24.0083   -9.3653   23.7833 F   0  0  0  0  0  0  0  0  0  0  0  0
  -19.3281  -21.2551   22.7023 S   0  0  0  0  0  0  0  0  0  0  0  0
  1  2  1  0  0  0  0
  1  5  2  0  0  0  0
  2  6  2  0  0  0  0
  3  8  2  0  0  0  0
  3 16  1  0  0  0  0
  4  9  1  0  0  0  0
  4 16  2  0  0  0  0
  5 18  1  0  0  0  0
  6 20  1  0  0  0  0
  7 10  2  0  0  0  0
  7 19  1  0  0  0  0
  8 23  1  0  0  0  0
  9 23  2  0  0  0  0
 10 24  1  0  0  0  0
 11 12  2  0  0  0  0
 11 25  1  0  0  0  0
 12 26  1  0  0  0  0
 13 21  1  0  0  0  0
 13 24  2  0  0  0  0
 14 22  1  0  0  0  0
 14 31  2  0  0  0  0
 15 26  2  0  0  0  0
 15 27  1  0  0  0  0
 16 28  1  0  0  0  0
 17 28  1  0  0  0  0
 17 30  2  0  0  0  0
 17 32  1  0  0  0  0
 18 20  2  0  0  0  0
 18 38  1  0  0  0  0
 19 21  2  0  0  0  0
 19 39  1  0  0  0  0
 20 48  1  0  0  0  0
 21 40  1  0  0  0  0
 22 29  2  0  0  0  0
 22 63  1  0  0  0  0
 23 78  1  0  0  0  0
 24 79  1  0  0  0  0
 25 27  2  0  0  0  0
 25 78  1  0  0  0  0
 26 80  1  0  0  0  0
 27 81  1  0  0  0  0
 28 61  2  0  0  0  0
 29 41  1  0  0  0  0
 29 82  1  0  0  0  0
 30 62  1  0  0  0  0
 30 66  1  0  0  0  0
 31 68  1  0  0  0  0
 31 82  1  0  0  0  0
 32 67  1  0  0  0  0
 32 72  2  0  0  0  0
 33 49  1  0  0  0  0
 33 69  1  0  0  0  0
 33 73  2  0  0  0  0
 34 56  1  0  0  0  0
 34 57  1  0  0  0  0
 34 74  2  0  0  0  0
 35 58  1  0  0  0  0
 35 64  1  0  0  0  0
 35 75  2  0  0  0  0
 36 59  1  0  0  0  0
 36 70  1  0  0  0  0
 36 76  2  0  0  0  0
 37 63  1  0  0  0  0
 37 65  1  0  0  0  0
 37 77  2  0  0  0  0
 38 42  1  0  0  0  0
 39 49  1  0  0  0  0
 40 64  1  0  0  0  0
 41 63  1  0  0  0  0
 42 44  1  0  0  0  0
 43 45  1  0  0  0  0
 43 46  1  0  0  0  0
 44 48  1  0  0  0  0
 45 50  1  0  0  0  0
 46 65  1  0  0  0  0
 47 50  1  0  0  0  0
 47 65  1  0  0  0  0
 48 69  1  0  0  0  0
 49 64  1  0  0  0  0
 50 62  1  0  0  0  0
 51 59  1  0  0  0  0
 52 60  1  0  0  0  0
 53 60  1  0  0  0  0
 54 60  1  0  0  0  0
 55 71  1  0  0  0  0
 56 68  1  0  0  0  0
 57 79  1  0  0  0  0
 58 60  1  0  0  0  0
 58 70  1  0  0  0  0
 59 71  1  0  0  0  0
 61 62  1  0  0  0  0
M  CHG  1  71   1
M  ISO  4  37 100  57 101  63 100  79 101
M  END
> <Batch ID>
0147

> <Smiles>
CNC(C)C(=O)NC(C(=O)N1Cc2cc([101O:1][101CH2:1]C(=O)CNc3cc4c(s3)C[100N:0]4[100C:0](=O)N3CCCC(n4nc(-c5ccc(Oc6ccc(F)cc6F)cc5)c(C(N)=O)c4N)C3)ccc2CC1C(=O)NC1CCCc2ccccc21)C(C)(C)C

> <Shape>
0.280

> <Color>
0.085

> <Negative vol penalty>
0.000

$$$$

  -OEChem-04052303133D

 87 96  0     1  0  0  0  0  0999 V2000
  -27.5813  -35.8038   24.3736 C   0  0  0  0  0  0  0  0  0  0  0  0
  -27.8072  -34.4313   24.3487 C   0  0  0  0  0  0  0  0  0  0  0  0
  -25.8965  -20.6904   18.4995 C   0  0  0  0  0  0  0  0  0  0  0  0
  -24.6353   -9.2271   21.6984 C   0  0  0  0  0  0  0  0  0  0  0  0
  -23.6700  -11.0141   23.0069 C   0  0  0  0  0  0  0  0  0  0  0  0
  -26.8001  -21.6697   18.9117 C   0  0  0  0  0  0  0  0  0  0  0  0
  -26.2794  -36.2964   24.2947 C   0  0  0  0  0  0  0  0  0  0  0  0
  -26.7311  -33.5505   24.2459 C   0  0  0  0  0  0  0  0  0  0  0  0
  -27.5655  -29.8466   20.8947 C   0  0  0  0  0  0  0  0  0  0  0  0
  -26.2156  -19.3405   18.6468 C   0  0  0  0  0  0  0  0  0  0  0  0
  -24.1194   -8.2917   22.5953 C   0  0  0  0  0  0  0  0  0  0  0  0
  -23.1541  -10.0786   23.9038 C   0  0  0  0  0  0  0  0  0  0  0  0
  -28.3809  -28.7915   21.3018 C   0  0  0  0  0  0  0  0  0  0  0  0
  -21.1383   -6.8257   23.2255 C   0  0  0  0  0  0  0  0  0  0  0  0
  -20.5131   -5.6967   22.6965 C   0  0  0  0  0  0  0  0  0  0  0  0
  -28.3422  -19.9493   19.6184 C   0  0  0  0  0  0  0  0  0  0  0  0
  -26.4216  -27.4531   21.7365 C   0  0  0  0  0  0  0  0  0  0  0  0
  -22.1226   -4.2823   23.8127 C   0  0  0  0  0  0  0  0  0  0  0  0
  -24.4107  -10.5883   21.9042 C   0  0  0  0  0  0  0  0  0  0  0  0
  -28.0230  -21.2992   19.4711 C   0  0  0  0  0  0  0  0  0  0  0  0
  -24.3174  -12.0622   19.8242 C   0  0  0  0  0  0  0  0  0  0  0  0
  -25.1875  -35.4215   24.1811 C   0  0  0  0  0  0  0  0  0  0  0  0
  -26.1694  -29.7164   20.9159 C   0  0  0  0  0  0  0  0  0  0  0  0
  -25.4132  -34.0318   24.1667 C   0  0  0  0  0  0  0  0  0  0  0  0
  -25.5908  -28.5071   21.3268 C   0  0  0  0  0  0  0  0  0  0  0  0
  -27.4385  -18.9700   19.2062 C   0  0  0  0  0  0  0  0  0  0  0  0
  -23.3788   -8.7174   23.6980 C   0  0  0  0  0  0  0  0  0  0  0  0
  -27.8089  -27.5955   21.7255 C   0  0  0  0  0  0  0  0  0  0  0  0
  -22.2558   -6.6831   24.0481 C   0  0  0  0  0  0  0  0  0  0  0  0
  -21.0052   -4.4250   22.9900 C   0  0  0  0  0  0  0  0  0  0  0  0
  -22.7479   -5.4113   24.3417 C   0  0  0  0  0  0  0  0  0  0  0  0
  -24.9438  -11.5551   20.9784 C   0  0  0  0  0  0  0  0  0  0  0  0
  -25.2302  -12.9426   19.2968 C   0  0  0  0  0  0  0  0  0  0  0  0
  -28.9783  -22.3332   19.9074 C   0  0  0  0  0  0  0  0  0  0  0  0
  -23.0258  -11.7641   19.2776 C   0  0  0  0  0  0  0  0  0  0  0  0
  -23.8025  -31.1862   22.4459 C   0  0  0  0  0  0  0  0  0  0  0  0
  -21.9420  -29.3381   20.5366 C   0  0  0  0  0  0  0  0  0  0  0  0
  -21.6338  -26.5085   18.6538 C   0  0  0  0  0  0  0  0  0  0  0  0
  -28.9315  -17.0597   19.8906 C   0  0  0  0  0  0  0  0  0  0  0  0
  -23.7948  -35.9994   24.1463 C   0  0  0  0  0  0  0  0  0  0  0  0
  -25.3044  -30.8547   20.4484 C   0  0  0  0  0  0  0  0  0  0  0  0
  -24.0979  -28.3095   21.3489 C   0  0  0  0  0  0  0  0  0  0  0  0
  -22.7372  -35.0109   23.6619 C   0  0  0  0  0  0  0  0  0  0  0  0
  -30.0900  -13.7423   20.4648 C   0  0  0  0  0  0  0  0  0  0  0  0
  -22.9084  -33.6633   24.3556 C   0  0  0  0  0  0  0  0  0  0  0  0
  -28.8029  -12.9193   20.5547 C   0  0  0  0  0  0  0  0  0  0  0  0
  -28.3396  -23.0217   23.4104 C   0  0  0  0  0  0  0  0  0  0  0  0
  -29.9242  -15.1249   21.0931 C   0  0  0  0  0  0  0  0  0  0  0  0
  -27.9328  -22.3067   22.1264 C   0  0  0  0  0  0  0  0  0  0  0  0
  -27.4955  -15.0783   20.6826 C   0  0  0  0  0  0  0  0  0  0  0  0
  -24.2737  -33.0452   24.0311 C   0  0  1  0  0  0  0  0  0  0  0  0
  -23.8830  -30.7901   20.9988 C   0  0  1  0  0  0  0  0  0  0  0  0
  -27.5941  -13.7017   20.0050 C   0  0  2  0  0  0  0  0  0  0  0  0
  -29.7932  -23.8679   21.6730 C   0  0  1  0  0  0  0  0  0  0  0  0
  -29.0159  -24.3251   22.9383 C   0  0  2  0  0  0  0  0  0  0  0  0
  -31.1792  -23.2806   21.9198 C   0  0  0  0  0  0  0  0  0  0  0  0
  -29.8935  -24.9206   24.0429 C   0  0  0  0  0  0  0  0  0  0  0  0
  -19.9819  -25.2501   17.2449 C   0  0  0  0  0  0  0  0  0  0  0  0
  -20.5296  -28.3697   23.0620 C   0  0  0  0  0  0  0  0  0  0  0  0
  -19.5893  -26.4733   21.7250 C   0  0  0  0  0  0  0  0  0  0  0  0
  -19.0118  -28.8253   21.1272 C   0  0  0  0  0  0  0  0  0  0  0  0
  -23.3345  -26.7441   16.2432 C   0  0  0  0  0  0  0  0  0  0  0  0
  -27.9495  -25.3677   22.5457 C   0  0  0  0  0  0  0  0  0  1  0  0
  -21.3374  -27.9590   20.6443 C   0  0  1  0  0  0  0  0  0  0  0  0
  -21.0961  -26.2850   17.2518 C   0  0  2  0  0  0  0  0  0  0  0  0
  -20.1451  -27.9109   21.6412 C   0  0  0  0  0  0  0  0  0  0  0  0
  -26.1606  -12.0703   21.1733 N   0  0  0  0  0  0  0  0  0  0  0  0
  -26.3061  -12.9103   20.1343 N   0  0  0  0  0  0  0  0  0  0  0  0
  -28.9204  -22.7895   21.1470 N   0  0  0  0  0  0  0  0  0  0  0  0
  -23.2943  -29.4539   20.8884 N   0  0  0  0  0  0  0  0  0  0  0  0
  -28.7624  -15.8087   20.5208 N   0  0  0  0  0  0  0  0  0  0  0  0
  -25.2095  -13.7333   18.2029 N   0  0  0  0  0  0  0  0  0  0  0  0
  -22.2155  -10.8361   19.9459 N   0  0  0  0  0  0  0  0  0  0  0  0
  -27.7619  -17.5985   19.3554 N   0  0  0  0  0  0  0  0  0  0  0  0
  -24.2629  -32.4628   22.7063 N   0  0  0  0  0  0  0  0  0  0  0  0
  -20.9960  -27.5556   19.2845 N   0  0  0  0  0  0  0  0  0  0  0  0
  -29.8846  -22.7898   19.0481 N   0  3  0  0  0  0  0  0  0  0  0  0
  -22.1834  -25.8111   16.3495 N   0  3  0  0  0  0  0  0  0  0  0  0
  -22.6095  -12.2924   18.2188 O   0  0  0  0  0  0  0  0  0  0  0  0
  -23.3543  -30.3929   23.2654 O   0  0  0  0  0  0  0  0  0  0  0  0
  -21.2423  -30.2765   20.1476 O   0  0  0  0  0  0  0  0  0  0  0  0
  -22.5275  -25.8203   19.1419 O   0  0  0  0  0  0  0  0  0  0  0  0
  -30.0375  -17.5996   19.8062 O   0  0  0  0  0  0  0  0  0  0  0  0
  -22.8750   -7.8049   24.5732 O   0  0  0  0  0  0  0  0  0  0  0  0
  -28.6025  -26.5643   22.1239 O   0  0  0  0  0  0  0  0  0  1  0  0
  -20.4037   -3.3408   22.4832 F   0  0  0  0  0  0  0  0  0  0  0  0
  -23.8204   -5.2679   25.1323 F   0  0  0  0  0  0  0  0  0  0  0  0
  1  2  1  0  0  0  0
  1  7  2  0  0  0  0
  2  8  2  0  0  0  0
  3  6  2  0  0  0  0
  3 10  1  0  0  0  0
  4 11  2  0  0  0  0
  4 19  1  0  0  0  0
  5 12  1  0  0  0  0
  5 19  2  0  0  0  0
  6 20  1  0  0  0  0
  7 22  1  0  0  0  0
  8 24  1  0  0  0  0
  9 13  2  0  0  0  0
  9 23  1  0  0  0  0
 10 26  2  0  0  0  0
 11 27  1  0  0  0  0
 12 27  2  0  0  0  0
 13 28  1  0  0  0  0
 14 15  2  0  0  0  0
 14 29  1  0  0  0  0
 15 30  1  0  0  0  0
 16 20  2  0  0  0  0
 16 26  1  0  0  0  0
 17 25  1  0  0  0  0
 17 28  2  0  0  0  0
 18 30  2  0  0  0  0
 18 31  1  0  0  0  0
 19 32  1  0  0  0  0
 20 34  1  0  0  0  0
 21 32  1  0  0  0  0
 21 33  2  0  0  0  0
 21 35  1  0  0  0  0
 22 24  2  0  0  0  0
 22 40  1  0  0  0  0
 23 25  2  0  0  0  0
 23 41  1  0  0  0  0
 24 51  1  0  0  0  0
 25 42  1  0  0  0  0
 26 74  1  0  0  0  0
 27 84  1  0  0  0  0
 28 85  1  0  0  0  0
 29 31  2  0  0  0  0
 29 84  1  0  0  0  0
 30 86  1  0  0  0  0
 31 87  1  0  0  0  0
 32 67  2  0  0  0  0
 33 68  1  0  0  0  0
 33 72  1  0  0  0  0
 34 69  1  0  0  0  0
 34 77  2  0  0  0  0
 35 73  1  0  0  0  0
 35 79  2  0  0  0  0
 36 52  1  0  0  0  0
 36 75  1  0  0  0  0
 36 80  2  0  0  0  0
 37 64  1  0  0  0  0
 37 70  1  0  0  0  0
 37 81  2  0  0  0  0
 38 65  1  0  0  0  0
 38 76  1  0  0  0  0
 38 82  2  0  0  0  0
 39 71  1  0  0  0  0
 39 74  1  0  0  0  0
 39 83  2  0  0  0  0
 40 43  1  0  0  0  0
 41 52  1  0  0  0  0
 42 70  1  0  0  0  0
 43 45  1  0  0  0  0
 44 46  1  0  0  0  0
 44 48  1  0  0  0  0
 45 51  1  0  0  0  0
 46 53  1  0  0  0  0
 47 49  1  0  0  0  0
 47 55  1  0  0  0  0
 48 71  1  0  0  0  0
 49 69  1  0  0  0  0
 50 53  1  0  0  0  0
 50 71  1  0  0  0  0
 51 75  1  0  0  0  0
 52 70  1  0  0  0  0
 53 68  1  0  0  0  0
 54 55  1  0  0  0  0
 54 56  1  0  0  0  0
 54 69  1  0  0  0  0
 55 57  1  0  0  0  0
 55 63  1  0  0  0  0
 58 65  1  0  0  0  0
 59 66  1  0  0  0  0
 60 66  1  0  0  0  0
 61 66  1  0  0  0  0
 62 78  1  0  0  0  0
 63 85  1  0  0  0  0
 64 66  1  0  0  0  0
 64 76  1  0  0  0  0
 65 78  1  0  0  0  0
 67 68  1  0  0  0  0
M  CHG  2  77   1  78   1
M  ISO  4  39 100  63 101  74 100  85 101
M  END
> <Batch ID>
0147

> <Smiles>
CNC(C)C(=O)NC(C(=O)N1Cc2cc([101O:1][101CH2:1]C3(C)CCN(C(=N)c4cccc([100NH:0][100C:0](=O)N5CCCC(n6nc(-c7ccc(Oc8ccc(F)cc8F)cc7)c(C(N)=O)c6N)C5)c4)C3C)ccc2CC1C(=O)NC1CCCc2ccccc21)C(C)(C)C

> <Shape>
0.326

> <Color>
0.078

> <Negative vol penalty>
0.000

$$$$

  -OEChem-04052303133D

 83 92  0     1  0  0  0  0  0999 V2000
  -29.0359  -28.8751   27.2685 C   0  0  0  0  0  0  0  0  0  0  0  0
  -28.6719  -28.1907   26.1133 C   0  0  0  0  0  0  0  0  0  0  0  0
  -24.6427   -8.7626   21.6820 C   0  0  0  0  0  0  0  0  0  0  0  0
  -22.8423  -10.1257   20.8231 C   0  0  0  0  0  0  0  0  0  0  0  0
  -28.1116  -29.6984   27.9102 C   0  0  0  0  0  0  0  0  0  0  0  0
  -27.3828  -28.3284   25.5996 C   0  0  0  0  0  0  0  0  0  0  0  0
  -27.3526  -28.9931   20.5795 C   0  0  0  0  0  0  0  0  0  0  0  0
  -23.7376   -8.0781   22.4930 C   0  0  0  0  0  0  0  0  0  0  0  0
  -21.9371   -9.4411   21.6340 C   0  0  0  0  0  0  0  0  0  0  0  0
  -27.5401  -27.8620   19.7863 C   0  0  0  0  0  0  0  0  0  0  0  0
  -21.4430   -5.6196   22.1410 C   0  0  0  0  0  0  0  0  0  0  0  0
  -21.5377   -4.2288   22.1875 C   0  0  0  0  0  0  0  0  0  0  0  0
  -24.0936  -19.7191   18.3902 C   0  0  0  0  0  0  0  0  0  0  0  0
  -24.1437  -18.3311   18.6625 C   0  0  0  0  0  0  0  0  0  0  0  0
  -25.1602  -27.7372   19.4124 C   0  0  0  0  0  0  0  0  0  0  0  0
  -21.9389   -4.3358   24.5676 C   0  0  0  0  0  0  0  0  0  0  0  0
  -24.1951   -9.7865   20.8471 C   0  0  0  0  0  0  0  0  0  0  0  0
  -25.5093  -10.1672   18.6940 C   0  0  0  0  0  0  0  0  0  0  0  0
  -26.8136  -29.8538   27.3988 C   0  0  0  0  0  0  0  0  0  0  0  0
  -26.0643  -29.4992   20.8043 C   0  0  0  0  0  0  0  0  0  0  0  0
  -26.4399  -29.1535   26.2358 C   0  0  0  0  0  0  0  0  0  0  0  0
  -24.9593  -28.8764   20.2068 C   0  0  0  0  0  0  0  0  0  0  0  0
  -22.3848   -8.4172   22.4690 C   0  0  0  0  0  0  0  0  0  0  0  0
  -26.4435  -27.2321   19.2050 C   0  0  0  0  0  0  0  0  0  0  0  0
  -21.5963   -6.3686   23.3077 C   0  0  0  0  0  0  0  0  0  0  0  0
  -21.7856   -3.5868   23.4008 C   0  0  0  0  0  0  0  0  0  0  0  0
  -21.8442   -5.7266   24.5210 C   0  0  0  0  0  0  0  0  0  0  0  0
  -25.1297  -10.4944   20.0096 C   0  0  0  0  0  0  0  0  0  0  0  0
  -26.4123  -11.1414   18.3448 C   0  0  0  0  0  0  0  0  0  0  0  0
  -25.3098  -20.2292   18.7809 C   0  0  0  0  0  0  0  0  0  0  0  0
  -25.3871  -18.0919   19.2000 C   0  0  0  0  0  0  0  0  0  0  0  0
  -25.0836   -9.0798   17.8621 C   0  0  0  0  0  0  0  0  0  0  0  0
  -24.2374  -29.9236   23.3707 C   0  0  0  0  0  0  0  0  0  0  0  0
  -22.2718  -31.3906   21.2479 C   0  0  0  0  0  0  0  0  0  0  0  0
  -21.2603  -31.7546   18.0089 C   0  0  0  0  0  0  0  0  0  0  0  0
  -27.2781  -16.7570   20.1942 C   0  0  0  0  0  0  0  0  0  0  0  0
  -25.8345  -30.7177   28.1536 C   0  0  0  0  0  0  0  0  0  0  0  0
  -25.8815  -30.7360   21.6407 C   0  0  0  0  0  0  0  0  0  0  0  0
  -23.5576  -29.3921   20.4006 C   0  0  0  0  0  0  0  0  0  0  0  0
  -24.6048  -31.1025   27.3351 C   0  0  0  0  0  0  0  0  0  0  0  0
  -29.6519  -14.1041   20.2584 C   0  0  0  0  0  0  0  0  0  0  0  0
  -24.0378  -29.8818   26.6173 C   0  0  0  0  0  0  0  0  0  0  0  0
  -28.7968  -12.8480   20.0760 C   0  0  0  0  0  0  0  0  0  0  0  0
  -27.1555  -23.3885   19.2474 C   0  0  0  0  0  0  0  0  0  0  0  0
  -28.9419  -15.1547   21.1103 C   0  0  0  0  0  0  0  0  0  0  0  0
  -27.1601  -21.8605   19.2198 C   0  0  0  0  0  0  0  0  0  0  0  0
  -26.7375  -14.2580   20.4736 C   0  0  0  0  0  0  0  0  0  0  0  0
  -25.0815  -22.6788   18.2790 C   0  0  0  0  0  0  0  0  0  0  0  0
  -25.0587  -29.2965   25.6341 C   0  0  1  0  0  0  0  0  0  0  0  0
  -24.4766  -30.8620   22.2218 C   0  0  1  0  0  0  0  0  0  0  0  0
  -27.3840  -13.1969   19.5683 C   0  0  2  0  0  0  0  0  0  0  0  0
  -26.1517  -23.7826   18.1540 C   0  0  2  0  0  0  0  0  0  0  0  0
  -26.8100  -23.7518   16.7642 C   0  0  0  0  0  0  0  0  0  0  0  0
  -19.6076  -33.0001   16.5894 C   0  0  0  0  0  0  0  0  0  0  0  0
  -20.0467  -29.5445   22.2229 C   0  0  0  0  0  0  0  0  0  0  0  0
  -18.7398  -30.1532   20.1760 C   0  0  0  0  0  0  0  0  0  0  0  0
  -19.3430  -31.9132   21.8377 C   0  0  0  0  0  0  0  0  0  0  0  0
  -23.4093  -33.0641   16.4514 C   0  0  0  0  0  0  0  0  0  0  0  0
  -25.5639  -25.1721   18.4058 C   0  0  0  0  0  0  0  0  0  1  0  0
  -21.1431  -30.9437   20.3505 C   0  0  1  0  0  0  0  0  0  0  0  0
  -21.0161  -32.9911   17.1627 C   0  0  2  0  0  0  0  0  0  0  0  0
  -19.8443  -30.6275   21.1445 C   0  0  0  0  0  0  0  0  0  0  0  0
  -25.7417  -11.5907   20.4652 N   0  0  0  0  0  0  0  0  0  0  0  0
  -26.5150  -11.9608   19.4303 N   0  0  0  0  0  0  0  0  0  0  0  0
  -25.8226  -21.5092   18.7519 N   0  0  3  0  0  0  0  0  0  0  0  0
  -23.4299  -30.6005   21.2318 N   0  0  0  0  0  0  0  0  0  0  0  0
  -27.6117  -15.4377   20.5668 N   0  0  0  0  0  0  0  0  0  0  0  0
  -27.1207  -11.3684   17.2183 N   0  0  0  0  0  0  0  0  0  0  0  0
  -24.1501   -8.1701   18.3772 N   0  0  0  0  0  0  0  0  0  0  0  0
  -25.9979  -16.8989   19.6598 N   0  0  0  0  0  0  0  0  0  0  0  0
  -25.1121  -30.0931   24.4270 N   0  0  0  0  0  0  0  0  0  0  0  0
  -20.9876  -31.9851   19.3407 N   0  0  0  0  0  0  0  0  0  0  0  0
  -21.9845  -33.0439   16.0312 N   0  3  0  0  0  0  0  0  0  0  0  0
  -25.5305   -8.9104   16.7023 O   0  0  0  0  0  0  0  0  0  0  0  0
  -23.3259  -29.1073   23.3043 O   0  0  0  0  0  0  0  0  0  0  0  0
  -22.1337  -32.4075   21.9324 O   0  0  0  0  0  0  0  0  0  0  0  0
  -21.6501  -30.6896   17.5351 O   0  0  0  0  0  0  0  0  0  0  0  0
  -28.0795  -17.6873   20.3133 O   0  0  0  0  0  0  0  0  0  0  0  0
  -26.1041  -19.2438   19.2755 O   0  0  0  0  0  0  0  0  0  0  0  0
  -21.5012   -7.7493   23.2600 O   0  0  0  0  0  0  0  0  0  0  0  0
  -26.6236  -26.1275   18.4309 O   0  0  0  0  0  0  0  0  0  1  0  0
  -21.8750   -2.2511   23.4457 F   0  0  0  0  0  0  0  0  0  0  0  0
  -21.9912   -6.4407   25.6454 F   0  0  0  0  0  0  0  0  0  0  0  0
  1  2  1  0  0  0  0
  1  5  2  0  0  0  0
  2  6  2  0  0  0  0
  3  8  2  0  0  0  0
  3 17  1  0  0  0  0
  4  9  1  0  0  0  0
  4 17  2  0  0  0  0
  5 19  1  0  0  0  0
  6 21  1  0  0  0  0
  7 10  2  0  0  0  0
  7 20  1  0  0  0  0
  8 23  1  0  0  0  0
  9 23  2  0  0  0  0
 10 24  1  0  0  0  0
 11 12  2  0  0  0  0
 11 25  1  0  0  0  0
 12 26  1  0  0  0  0
 13 14  1  0  0  0  0
 13 30  2  0  0  0  0
 14 31  2  0  0  0  0
 15 22  1  0  0  0  0
 15 24  2  0  0  0  0
 16 26  2  0  0  0  0
 16 27  1  0  0  0  0
 17 28  1  0  0  0  0
 18 28  1  0  0  0  0
 18 29  2  0  0  0  0
 18 32  1  0  0  0  0
 19 21  2  0  0  0  0
 19 37  1  0  0  0  0
 20 22  2  0  0  0  0
 20 38  1  0  0  0  0
 21 49  1  0  0  0  0
 22 39  1  0  0  0  0
 23 80  1  0  0  0  0
 24 81  1  0  0  0  0
 25 27  2  0  0  0  0
 25 80  1  0  0  0  0
 26 82  1  0  0  0  0
 27 83  1  0  0  0  0
 28 63  2  0  0  0  0
 29 64  1  0  0  0  0
 29 68  1  0  0  0  0
 30 65  1  0  0  0  0
 30 79  1  0  0  0  0
 31 70  1  0  0  0  0
 31 79  1  0  0  0  0
 32 69  1  0  0  0  0
 32 74  2  0  0  0  0
 33 50  1  0  0  0  0
 33 71  1  0  0  0  0
 33 75  2  0  0  0  0
 34 60  1  0  0  0  0
 34 66  1  0  0  0  0
 34 76  2  0  0  0  0
 35 61  1  0  0  0  0
 35 72  1  0  0  0  0
 35 77  2  0  0  0  0
 36 67  1  0  0  0  0
 36 70  1  0  0  0  0
 36 78  2  0  0  0  0
 37 40  1  0  0  0  0
 38 50  1  0  0  0  0
 39 66  1  0  0  0  0
 40 42  1  0  0  0  0
 41 43  1  0  0  0  0
 41 45  1  0  0  0  0
 42 49  1  0  0  0  0
 43 51  1  0  0  0  0
 44 46  1  0  0  0  0
 44 52  1  0  0  0  0
 45 67  1  0  0  0  0
 46 65  1  0  0  0  0
 47 51  1  0  0  0  0
 47 67  1  0  0  0  0
 48 52  1  0  0  0  0
 48 65  1  0  0  0  0
 49 71  1  0  0  0  0
 50 66  1  0  0  0  0
 51 64  1  0  0  0  0
 52 53  1  0  0  0  0
 52 59  1  0  0  0  0
 54 61  1  0  0  0  0
 55 62  1  0  0  0  0
 56 62  1  0  0  0  0
 57 62  1  0  0  0  0
 58 73  1  0  0  0  0
 59 81  1  0  0  0  0
 60 62  1  0  0  0  0
 60 72  1  0  0  0  0
 61 73  1  0  0  0  0
 63 64  1  0  0  0  0
M  CHG  1  73   1
M  ISO  4  36 100  59 101  70 100  81 101
M  END
> <Batch ID>
0147

> <Smiles>
CNC(C)C(=O)NC(C(=O)N1Cc2cc([101O:1][101CH2:1]C3(C)CCN(c4ccc([100NH:0][100C:0](=O)N5CCCC(n6nc(-c7ccc(Oc8ccc(F)cc8F)cc7)c(C(N)=O)c6N)C5)o4)C3)ccc2CC1C(=O)NC1CCCc2ccccc21)C(C)(C)C

> <Shape>
0.238

> <Color>
0.110

> <Negative vol penalty>
0.000

$$$$

  -OEChem-04052303133D

 85 94  0     1  0  0  0  0  0999 V2000
  -28.6701  -37.1387   22.6645 C   0  0  0  0  0  0  0  0  0  0  0  0
  -28.5989  -35.8218   22.2214 C   0  0  0  0  0  0  0  0  0  0  0  0
  -24.5729   -8.3638   20.5715 C   0  0  0  0  0  0  0  0  0  0  0  0
  -22.9363  -10.1346   20.4212 C   0  0  0  0  0  0  0  0  0  0  0  0
  -28.0968  -37.4944   23.8846 C   0  0  0  0  0  0  0  0  0  0  0  0
  -27.9553  -34.8597   22.9989 C   0  0  0  0  0  0  0  0  0  0  0  0
  -24.9080  -31.8761   20.2681 C   0  0  0  0  0  0  0  0  0  0  0  0
  -23.5827   -7.4861   21.0126 C   0  0  0  0  0  0  0  0  0  0  0  0
  -21.9460   -9.2569   20.8622 C   0  0  0  0  0  0  0  0  0  0  0  0
  -25.5095  -30.8621   19.5240 C   0  0  0  0  0  0  0  0  0  0  0  0
  -21.9439   -6.8253   23.8940 C   0  0  0  0  0  0  0  0  0  0  0  0
  -22.2442   -6.0041   24.9807 C   0  0  0  0  0  0  0  0  0  0  0  0
  -24.9246  -29.2669   21.2364 C   0  0  0  0  0  0  0  0  0  0  0  0
  -28.1634  -19.3596   19.2567 C   0  0  0  0  0  0  0  0  0  0  0  0
  -21.8562   -4.0512   23.6121 C   0  0  0  0  0  0  0  0  0  0  0  0
  -24.2497   -9.6882   20.2758 C   0  0  0  0  0  0  0  0  0  0  0  0
  -25.6599  -10.8410   18.4898 C   0  0  0  0  0  0  0  0  0  0  0  0
  -27.4374  -36.5381   24.6728 C   0  0  0  0  0  0  0  0  0  0  0  0
  -24.3188  -31.5946   21.5091 C   0  0  0  0  0  0  0  0  0  0  0  0
  -27.3738  -35.2027   24.2313 C   0  0  0  0  0  0  0  0  0  0  0  0
  -24.3140  -30.2786   21.9931 C   0  0  0  0  0  0  0  0  0  0  0  0
  -28.6061  -18.0627   18.9281 C   0  0  0  0  0  0  0  0  0  0  0  0
  -22.2693   -7.9325   21.1579 C   0  0  0  0  0  0  0  0  0  0  0  0
  -25.5204  -29.5577   20.0094 C   0  0  0  0  0  0  0  0  0  0  0  0
  -21.5997   -6.2595   22.6663 C   0  0  0  0  0  0  0  0  0  0  0  0
  -22.2003   -4.6171   24.8398 C   0  0  0  0  0  0  0  0  0  0  0  0
  -21.5559   -4.8725   22.5254 C   0  0  0  0  0  0  0  0  0  0  0  0
  -25.2723  -10.5955   19.8207 C   0  0  0  0  0  0  0  0  0  0  0  0
  -29.1693  -18.0005   17.6860 C   0  0  0  0  0  0  0  0  0  0  0  0
  -26.6610  -11.7760   18.5906 C   0  0  0  0  0  0  0  0  0  0  0  0
  -28.4083  -20.2329   18.2077 C   0  0  0  0  0  0  0  0  0  0  0  0
  -25.1597  -10.2747   17.2713 C   0  0  0  0  0  0  0  0  0  0  0  0
  -24.8411  -32.5260   24.5030 C   0  0  0  0  0  0  0  0  0  0  0  0
  -22.1380  -30.8315   25.0895 C   0  0  0  0  0  0  0  0  0  0  0  0
  -27.5372  -22.4562   19.0084 C   0  0  0  0  0  0  0  0  0  0  0  0
  -20.0159  -28.3378   24.1278 C   0  0  0  0  0  0  0  0  0  0  0  0
  -28.3810  -16.6226   20.8848 C   0  0  0  0  0  0  0  0  0  0  0  0
  -26.8742  -36.9603   26.0067 C   0  0  0  0  0  0  0  0  0  0  0  0
  -23.6506  -32.6949   22.2871 C   0  0  0  0  0  0  0  0  0  0  0  0
  -23.6773  -29.9204   23.3102 C   0  0  0  0  0  0  0  0  0  0  0  0
  -29.6945  -16.6659   17.3161 C   0  0  0  0  0  0  0  0  0  0  0  0
  -25.8841  -35.9581   26.5946 C   0  0  0  0  0  0  0  0  0  0  0  0
  -29.1926  -13.4885   22.6234 C   0  0  0  0  0  0  0  0  0  0  0  0
  -26.4381  -34.5403   26.4966 C   0  0  0  0  0  0  0  0  0  0  0  0
  -28.2403  -12.4885   21.9638 C   0  0  0  0  0  0  0  0  0  0  0  0
  -29.2663  -15.8316   18.5618 C   0  0  0  0  0  0  0  0  0  0  0  0
  -28.6144  -14.9019   22.6453 C   0  0  0  0  0  0  0  0  0  0  0  0
  -27.2051  -14.3996   20.6883 C   0  0  0  0  0  0  0  0  0  0  0  0
  -26.6626  -34.1355   25.0347 C   0  0  1  0  0  0  0  0  0  0  0  0
  -23.5331  -32.3870   23.7767 C   0  0  1  0  0  0  0  0  0  0  0  0
  -27.7832  -12.9827   20.5776 C   0  0  2  0  0  0  0  0  0  0  0  0
  -17.9135  -27.1606   24.8290 C   0  0  0  0  0  0  0  0  0  0  0  0
  -23.7036  -29.3105   27.2214 C   0  0  0  0  0  0  0  0  0  0  0  0
  -21.9015  -27.5726   27.2056 C   0  0  0  0  0  0  0  0  0  0  0  0
  -21.3668  -29.9151   27.8759 C   0  0  0  0  0  0  0  0  0  0  0  0
  -18.5987  -29.1527   21.6607 C   0  0  0  0  0  0  0  0  0  0  0  0
  -27.4339  -23.8752   18.4627 C   0  0  0  0  0  0  0  0  0  0  0  0
  -26.7845  -24.8642   19.4299 C   0  0  0  0  0  0  0  0  0  0  0  0
  -26.7663  -26.2905   18.8786 C   0  0  0  0  0  0  0  0  0  0  0  0
  -26.0834  -27.2533   19.8402 C   0  0  0  0  0  0  0  0  0  1  0  0
  -21.8316  -29.3968   25.4454 C   0  0  1  0  0  0  0  0  0  0  0  0
  -18.5035  -28.2939   24.0043 C   0  0  2  0  0  0  0  0  0  0  0  0
  -22.2147  -29.0555   26.9131 C   0  0  0  0  0  0  0  0  0  0  0  0
  -25.9703  -11.3162   20.7023 N   0  0  0  0  0  0  0  0  0  0  0  0
  -26.8067  -12.0237   19.9239 N   0  0  0  0  0  0  0  0  0  0  0  0
  -28.6488  -16.8055   19.5286 N   0  0  0  0  0  0  0  0  0  0  0  0
  -23.0421  -31.0322   24.0369 N   0  0  0  0  0  0  0  0  0  0  0  0
  -28.1766  -15.3035   21.3097 N   0  0  0  0  0  0  0  0  0  0  0  0
  -27.4221  -12.4021   17.6680 N   0  0  0  0  0  0  0  0  0  0  0  0
  -24.1292   -9.3278   17.3482 N   0  0  0  0  0  0  0  0  0  0  0  0
  -28.1460  -21.5691   18.0793 N   0  0  0  0  0  0  0  0  0  0  0  0
  -25.4059  -33.7836   24.4090 N   0  0  0  0  0  0  0  0  0  0  0  0
  -20.4217  -29.1907   25.1324 N   0  0  0  0  0  0  0  0  0  0  0  0
  -18.1055  -28.0965   22.5817 N   0  3  0  0  0  0  0  0  0  0  0  0
  -25.6243  -10.5865   16.1486 O   0  0  0  0  0  0  0  0  0  0  0  0
  -25.3029  -31.5640   25.1054 O   0  0  0  0  0  0  0  0  0  0  0  0
  -21.5896  -31.7407   25.7175 O   0  0  0  0  0  0  0  0  0  0  0  0
  -27.1483  -22.1606   20.1335 O   0  0  0  0  0  0  0  0  0  0  0  0
  -20.7624  -27.6784   23.4079 O   0  0  0  0  0  0  0  0  0  0  0  0
  -28.3920  -17.5560   21.6967 O   0  0  0  0  0  0  0  0  0  0  0  0
  -21.3027   -7.0762   21.5881 O   0  0  0  0  0  0  0  0  0  0  0  0
  -26.1117  -28.5589   19.2802 O   0  0  0  0  0  0  0  0  0  1  0  0
  -22.4902   -3.8285   25.8830 F   0  0  0  0  0  0  0  0  0  0  0  0
  -21.2271   -4.3232   21.3481 F   0  0  0  0  0  0  0  0  0  0  0  0
  -29.1791  -19.4585   16.8653 S   0  0  0  0  0  0  0  0  0  0  0  0
  1  2  1  0  0  0  0
  1  5  2  0  0  0  0
  2  6  2  0  0  0  0
  3  8  2  0  0  0  0
  3 16  1  0  0  0  0
  4  9  1  0  0  0  0
  4 16  2  0  0  0  0
  5 18  1  0  0  0  0
  6 20  1  0  0  0  0
  7 10  2  0  0  0  0
  7 19  1  0  0  0  0
  8 23  1  0  0  0  0
  9 23  2  0  0  0  0
 10 24  1  0  0  0  0
 11 12  2  0  0  0  0
 11 25  1  0  0  0  0
 12 26  1  0  0  0  0
 13 21  1  0  0  0  0
 13 24  2  0  0  0  0
 14 22  1  0  0  0  0
 14 31  2  0  0  0  0
 15 26  2  0  0  0  0
 15 27  1  0  0  0  0
 16 28  1  0  0  0  0
 17 28  1  0  0  0  0
 17 30  2  0  0  0  0
 17 32  1  0  0  0  0
 18 20  2  0  0  0  0
 18 38  1  0  0  0  0
 19 21  2  0  0  0  0
 19 39  1  0  0  0  0
 20 49  1  0  0  0  0
 21 40  1  0  0  0  0
 22 29  2  0  0  0  0
 22 66  1  0  0  0  0
 23 81  1  0  0  0  0
 24 82  1  0  0  0  0
 25 27  2  0  0  0  0
 25 81  1  0  0  0  0
 26 83  1  0  0  0  0
 27 84  1  0  0  0  0
 28 64  2  0  0  0  0
 29 41  1  0  0  0  0
 29 85  1  0  0  0  0
 30 65  1  0  0  0  0
 30 69  1  0  0  0  0
 31 71  1  0  0  0  0
 31 85  1  0  0  0  0
 32 70  1  0  0  0  0
 32 75  2  0  0  0  0
 33 50  1  0  0  0  0
 33 72  1  0  0  0  0
 33 76  2  0  0  0  0
 34 61  1  0  0  0  0
 34 67  1  0  0  0  0
 34 77  2  0  0  0  0
 35 57  1  0  0  0  0
 35 71  1  0  0  0  0
 35 78  2  0  0  0  0
 36 62  1  0  0  0  0
 36 73  1  0  0  0  0
 36 79  2  0  0  0  0
 37 66  1  0  0  0  0
 37 68  1  0  0  0  0
 37 80  2  0  0  0  0
 38 42  1  0  0  0  0
 39 50  1  0  0  0  0
 40 67  1  0  0  0  0
 41 46  1  0  0  0  0
 42 44  1  0  0  0  0
 43 45  1  0  0  0  0
 43 47  1  0  0  0  0
 44 49  1  0  0  0  0
 45 51  1  0  0  0  0
 46 66  1  0  0  0  0
 47 68  1  0  0  0  0
 48 51  1  0  0  0  0
 48 68  1  0  0  0  0
 49 72  1  0  0  0  0
 50 67  1  0  0  0  0
 51 65  1  0  0  0  0
 52 62  1  0  0  0  0
 53 63  1  0  0  0  0
 54 63  1  0  0  0  0
 55 63  1  0  0  0  0
 56 74  1  0  0  0  0
 57 58  1  0  0  0  0
 58 59  1  0  0  0  0
 59 60  1  0  0  0  0
 60 82  1  0  0  0  0
 61 63  1  0  0  0  0
 61 73  1  0  0  0  0
 62 74  1  0  0  0  0
 64 65  1  0  0  0  0
M  CHG  1  74   1
M  ISO  4  37 100  60 101  66 100  82 101
M  END
> <Batch ID>
0147

> <Smiles>
CNC(C)C(=O)NC(C(=O)N1Cc2cc([101O:1][101CH2:1]CCCC(=O)Nc3cc4c(s3)CC[100N:0]4[100C:0](=O)N3CCCC(n4nc(-c5ccc(Oc6ccc(F)cc6F)cc5)c(C(N)=O)c4N)C3)ccc2CC1C(=O)NC1CCCc2ccccc21)C(C)(C)C

> <Shape>
0.300

> <Color>
0.097

> <Negative vol penalty>
0.000

$$$$

  -OEChem-04052303133D

 86 95  0     1  0  0  0  0  0999 V2000
  -27.4207  -34.8901   19.5377 C   0  0  0  0  0  0  0  0  0  0  0  0
  -28.5180  -34.3686   20.2154 C   0  0  0  0  0  0  0  0  0  0  0  0
  -23.0775   -9.8579   19.9402 C   0  0  0  0  0  0  0  0  0  0  0  0
  -23.8363   -9.8661   22.2339 C   0  0  0  0  0  0  0  0  0  0  0  0
  -32.6359  -17.5015   23.4591 C   0  0  0  0  0  0  0  0  0  0  0  0
  -30.4497  -18.3453   24.0470 C   0  0  0  0  0  0  0  0  0  0  0  0
  -26.4345  -34.0350   19.0477 C   0  0  0  0  0  0  0  0  0  0  0  0
  -28.6292  -32.9915   20.4045 C   0  0  0  0  0  0  0  0  0  0  0  0
  -33.5423  -27.7993   20.8727 C   0  0  0  0  0  0  0  0  0  0  0  0
  -32.0508  -16.6162   22.5539 C   0  0  0  0  0  0  0  0  0  0  0  0
  -29.8646  -17.4600   23.1417 C   0  0  0  0  0  0  0  0  0  0  0  0
  -22.3357   -8.7034   20.1896 C   0  0  0  0  0  0  0  0  0  0  0  0
  -23.0945   -8.7115   22.4834 C   0  0  0  0  0  0  0  0  0  0  0  0
  -33.9253  -26.7511   21.7083 C   0  0  0  0  0  0  0  0  0  0  0  0
  -19.8675   -7.9076   23.0843 C   0  0  0  0  0  0  0  0  0  0  0  0
  -19.1101   -7.8661   24.2549 C   0  0  0  0  0  0  0  0  0  0  0  0
  -32.2006  -25.3640   20.7489 C   0  0  0  0  0  0  0  0  0  0  0  0
  -20.3548   -5.9309   24.9916 C   0  0  0  0  0  0  0  0  0  0  0  0
  -23.8279  -10.4393   20.9623 C   0  0  0  0  0  0  0  0  0  0  0  0
  -31.8353  -18.3660   24.2057 C   0  0  0  0  0  0  0  0  0  0  0  0
  -24.1651  -12.9651   20.8427 C   0  0  0  0  0  0  0  0  0  0  0  0
  -26.5385  -32.6460   19.2224 C   0  0  0  0  0  0  0  0  0  0  0  0
  -32.4767  -27.6410   19.9750 C   0  0  0  0  0  0  0  0  0  0  0  0
  -27.6428  -32.1171   19.9176 C   0  0  0  0  0  0  0  0  0  0  0  0
  -31.8076  -26.4109   19.9011 C   0  0  0  0  0  0  0  0  0  0  0  0
  -30.6651  -16.5955   22.3952 C   0  0  0  0  0  0  0  0  0  0  0  0
  -22.3441   -8.1301   21.4612 C   0  0  0  0  0  0  0  0  0  0  0  0
  -33.2526  -25.5341   21.6486 C   0  0  0  0  0  0  0  0  0  0  0  0
  -20.8686   -6.9606   22.8674 C   0  0  0  0  0  0  0  0  0  0  0  0
  -19.3538   -6.8777   25.2085 C   0  0  0  0  0  0  0  0  0  0  0  0
  -21.1122   -5.9723   23.8211 C   0  0  0  0  0  0  0  0  0  0  0  0
  -24.5949  -11.6316   20.7050 C   0  0  0  0  0  0  0  0  0  0  0  0
  -25.2560  -13.7166   20.4800 C   0  0  0  0  0  0  0  0  0  0  0  0
  -32.4534  -19.3015   25.1624 C   0  0  0  0  0  0  0  0  0  0  0  0
  -22.8934  -13.4785   21.2611 C   0  0  0  0  0  0  0  0  0  0  0  0
  -29.6416  -29.0264   19.5922 C   0  0  0  0  0  0  0  0  0  0  0  0
  -29.5392  -27.1882   16.9214 C   0  0  0  0  0  0  0  0  0  0  0  0
  -30.6235  -24.3991   15.2807 C   0  0  0  0  0  0  0  0  0  0  0  0
  -30.7201  -14.7724   20.6574 C   0  0  0  0  0  0  0  0  0  0  0  0
  -25.4238  -31.7652   18.7163 C   0  0  0  0  0  0  0  0  0  0  0  0
  -32.0931  -28.7728   19.0616 C   0  0  0  0  0  0  0  0  0  0  0  0
  -30.6702  -26.1833   18.9405 C   0  0  0  0  0  0  0  0  0  0  0  0
  -25.8044  -30.2893   18.6313 C   0  0  0  0  0  0  0  0  0  0  0  0
  -29.6113  -12.3568   18.2883 C   0  0  0  0  0  0  0  0  0  0  0  0
  -26.5093  -29.8453   19.9091 C   0  0  0  0  0  0  0  0  0  0  0  0
  -28.1720  -12.0625   18.7172 C   0  0  0  0  0  0  0  0  0  0  0  0
  -33.3837  -22.7726   24.7833 C   0  0  0  0  0  0  0  0  0  0  0  0
  -30.5254  -12.5872   19.4904 C   0  0  0  0  0  0  0  0  0  0  0  0
  -33.4311  -21.5071   25.6331 C   0  0  0  0  0  0  0  0  0  0  0  0
  -28.6165  -13.3079   20.8709 C   0  0  0  0  0  0  0  0  0  0  0  0
  -32.6228  -20.9825   23.3713 C   0  0  0  0  0  0  0  0  0  0  0  0
  -27.8114  -30.6270   20.1210 C   0  0  1  0  0  0  0  0  0  0  0  0
  -30.6605  -28.6669   18.5480 C   0  0  1  0  0  0  0  0  0  0  0  0
  -27.6445  -13.1330   19.6926 C   0  0  2  0  0  0  0  0  0  0  0  0
  -33.4682  -22.2687   23.3301 C   0  0  2  0  0  0  0  0  0  0  0  0
  -34.9208  -21.9506   22.9410 C   0  0  0  0  0  0  0  0  0  0  0  0
  -30.3337  -23.1424   13.1280 C   0  0  0  0  0  0  0  0  0  0  0  0
  -26.8503  -26.1317   17.9031 C   0  0  0  0  0  0  0  0  0  0  0  0
  -27.0712  -24.2496   16.2668 C   0  0  0  0  0  0  0  0  0  0  0  0
  -26.9529  -26.6034   15.4492 C   0  0  0  0  0  0  0  0  0  0  0  0
  -33.4780  -24.7262   14.5707 C   0  0  0  0  0  0  0  0  0  0  0  0
  -32.8911  -23.2905   22.3494 C   0  0  0  0  0  0  0  0  0  1  0  0
  -29.0539  -25.7952   16.6003 C   0  0  1  0  0  0  0  0  0  0  0  0
  -31.1400  -24.1988   13.8674 C   0  0  2  0  0  0  0  0  0  0  0  0
  -27.5022  -25.6996   16.5744 C   0  0  0  0  0  0  0  0  0  0  0  0
  -25.8601  -11.5382   20.2873 N   0  0  0  0  0  0  0  0  0  0  0  0
  -26.2347  -12.8225   20.1593 N   0  0  0  0  0  0  0  0  0  0  0  0
  -32.8086  -20.5062   24.7544 N   0  0  0  0  0  0  0  0  0  0  0  0
  -30.3284  -27.3223   18.0725 N   0  0  0  0  0  0  0  0  0  0  0  0
  -29.9641  -13.6169   20.3676 N   0  0  0  0  0  0  0  0  0  0  0  0
  -25.4639  -15.0485   20.4073 N   0  0  0  0  0  0  0  0  0  0  0  0
  -21.8830  -12.5673   21.5978 N   0  0  0  0  0  0  0  0  0  0  0  0
  -30.0706  -15.6962   21.4756 N   0  0  0  0  0  0  0  0  0  0  0  0
  -28.8552  -30.1131   19.2602 N   0  0  0  0  0  0  0  0  0  0  0  0
  -29.6968  -25.4180   15.3462 N   0  0  0  0  0  0  0  0  0  0  0  0
  -32.6421  -18.9183   26.4217 N   0  3  0  0  0  0  0  0  0  0  0  0
  -32.5666  -23.7683   13.8933 N   0  3  0  0  0  0  0  0  0  0  0  0
  -22.6548  -14.7086   21.3185 O   0  0  0  0  0  0  0  0  0  0  0  0
  -29.5729  -28.3659   20.6220 O   0  0  0  0  0  0  0  0  0  0  0  0
  -29.2355  -28.1216   16.1744 O   0  0  0  0  0  0  0  0  0  0  0  0
  -31.0014  -23.7172   16.2309 O   0  0  0  0  0  0  0  0  0  0  0  0
  -31.8491  -14.9433   20.1903 O   0  0  0  0  0  0  0  0  0  0  0  0
  -21.6202   -7.0037   21.7051 O   0  0  0  0  0  0  0  0  0  0  0  0
  -33.6240  -24.5096   22.4635 O   0  0  0  0  0  0  0  0  0  1  0  0
  -18.6274   -6.8390   26.3333 F   0  0  0  0  0  0  0  0  0  0  0  0
  -22.0733   -5.0607   23.6188 F   0  0  0  0  0  0  0  0  0  0  0  0
  1  2  1  0  0  0  0
  1  7  2  0  0  0  0
  2  8  2  0  0  0  0
  3 12  2  0  0  0  0
  3 19  1  0  0  0  0
  4 13  1  0  0  0  0
  4 19  2  0  0  0  0
  5 10  2  0  0  0  0
  5 20  1  0  0  0  0
  6 11  1  0  0  0  0
  6 20  2  0  0  0  0
  7 22  1  0  0  0  0
  8 24  1  0  0  0  0
  9 14  2  0  0  0  0
  9 23  1  0  0  0  0
 10 26  1  0  0  0  0
 11 26  2  0  0  0  0
 12 27  1  0  0  0  0
 13 27  2  0  0  0  0
 14 28  1  0  0  0  0
 15 16  2  0  0  0  0
 15 29  1  0  0  0  0
 16 30  1  0  0  0  0
 17 25  1  0  0  0  0
 17 28  2  0  0  0  0
 18 30  2  0  0  0  0
 18 31  1  0  0  0  0
 19 32  1  0  0  0  0
 20 34  1  0  0  0  0
 21 32  1  0  0  0  0
 21 33  2  0  0  0  0
 21 35  1  0  0  0  0
 22 24  2  0  0  0  0
 22 40  1  0  0  0  0
 23 25  2  0  0  0  0
 23 41  1  0  0  0  0
 24 52  1  0  0  0  0
 25 42  1  0  0  0  0
 26 73  1  0  0  0  0
 27 83  1  0  0  0  0
 28 84  1  0  0  0  0
 29 31  2  0  0  0  0
 29 83  1  0  0  0  0
 30 85  1  0  0  0  0
 31 86  1  0  0  0  0
 32 66  2  0  0  0  0
 33 67  1  0  0  0  0
 33 71  1  0  0  0  0
 34 68  1  0  0  0  0
 34 76  2  0  0  0  0
 35 72  1  0  0  0  0
 35 78  2  0  0  0  0
 36 53  1  0  0  0  0
 36 74  1  0  0  0  0
 36 79  2  0  0  0  0
 37 63  1  0  0  0  0
 37 69  1  0  0  0  0
 37 80  2  0  0  0  0
 38 64  1  0  0  0  0
 38 75  1  0  0  0  0
 38 81  2  0  0  0  0
 39 70  1  0  0  0  0
 39 73  1  0  0  0  0
 39 82  2  0  0  0  0
 40 43  1  0  0  0  0
 41 53  1  0  0  0  0
 42 69  1  0  0  0  0
 43 45  1  0  0  0  0
 44 46  1  0  0  0  0
 44 48  1  0  0  0  0
 45 52  1  0  0  0  0
 46 54  1  0  0  0  0
 47 49  1  0  0  0  0
 47 55  1  0  0  0  0
 48 70  1  0  0  0  0
 49 68  1  0  0  0  0
 50 54  1  0  0  0  0
 50 70  1  0  0  0  0
 51 55  1  0  0  0  0
 51 68  1  0  0  0  0
 52 74  1  0  0  0  0
 53 69  1  0  0  0  0
 54 67  1  0  0  0  0
 55 56  1  0  0  0  0
 55 62  1  0  0  0  0
 57 64  1  0  0  0  0
 58 65  1  0  0  0  0
 59 65  1  0  0  0  0
 60 65  1  0  0  0  0
 61 77  1  0  0  0  0
 62 84  1  0  0  0  0
 63 65  1  0  0  0  0
 63 75  1  0  0  0  0
 64 77  1  0  0  0  0
 66 67  1  0  0  0  0
M  CHG  2  76   1  77   1
M  ISO  4  39 100  62 101  73 100  84 101
M  END
> <Batch ID>
0147

> <Smiles>
CNC(C)C(=O)NC(C(=O)N1Cc2cc([101O:1][101CH2:1]C3(C)CCN(C(=N)c4ccc([100NH:0][100C:0](=O)N5CCCC(n6nc(-c7ccc(Oc8ccc(F)cc8F)cc7)c(C(N)=O)c6N)C5)cc4)C3)ccc2CC1C(=O)NC1CCCc2ccccc21)C(C)(C)C

> <Shape>
0.216

> <Color>
0.188

> <Negative vol penalty>
0.000

$$$$

  -OEChem-04052303133D

 90 99  0     1  0  0  0  0  0999 V2000
  -31.2151  -35.8182   14.9139 C   0  0  0  0  0  0  0  0  0  0  0  0
  -31.2978  -34.4735   15.2610 C   0  0  0  0  0  0  0  0  0  0  0  0
  -23.2256   -9.7937   19.9590 C   0  0  0  0  0  0  0  0  0  0  0  0
  -23.8815   -9.9396   22.2796 C   0  0  0  0  0  0  0  0  0  0  0  0
  -31.0784  -36.7863   15.9079 C   0  0  0  0  0  0  0  0  0  0  0  0
  -31.2450  -34.0962   16.6023 C   0  0  0  0  0  0  0  0  0  0  0  0
  -28.7114  -29.0166   18.9011 C   0  0  0  0  0  0  0  0  0  0  0  0
  -30.9152  -19.4789   20.5591 C   0  0  0  0  0  0  0  0  0  0  0  0
  -30.8233  -18.0879   20.6063 C   0  0  0  0  0  0  0  0  0  0  0  0
  -22.5355   -8.6118   20.2283 C   0  0  0  0  0  0  0  0  0  0  0  0
  -23.1914   -8.7577   22.5490 C   0  0  0  0  0  0  0  0  0  0  0  0
  -29.2528  -27.7928   19.2924 C   0  0  0  0  0  0  0  0  0  0  0  0
  -19.9882   -7.8046   23.0504 C   0  0  0  0  0  0  0  0  0  0  0  0
  -19.1834   -7.7710   24.1891 C   0  0  0  0  0  0  0  0  0  0  0  0
  -29.1074  -18.2587   22.2986 C   0  0  0  0  0  0  0  0  0  0  0  0
  -29.3356  -28.5665   21.5758 C   0  0  0  0  0  0  0  0  0  0  0  0
  -20.4950   -5.9393   25.0620 C   0  0  0  0  0  0  0  0  0  0  0  0
  -23.8986  -10.4576   20.9846 C   0  0  0  0  0  0  0  0  0  0  0  0
  -29.1994  -19.6497   22.2514 C   0  0  0  0  0  0  0  0  0  0  0  0
  -24.1069  -12.9908   20.7674 C   0  0  0  0  0  0  0  0  0  0  0  0
  -31.0142  -36.4200   17.2615 C   0  0  0  0  0  0  0  0  0  0  0  0
  -28.4879  -30.0301   19.8441 C   0  0  0  0  0  0  0  0  0  0  0  0
  -31.1087  -35.0605   17.6154 C   0  0  0  0  0  0  0  0  0  0  0  0
  -28.7890  -29.8013   21.1943 C   0  0  0  0  0  0  0  0  0  0  0  0
  -30.1032  -20.2599   21.3817 C   0  0  0  0  0  0  0  0  0  0  0  0
  -29.9194  -17.4778   21.4760 C   0  0  0  0  0  0  0  0  0  0  0  0
  -22.5184   -8.0938   21.5233 C   0  0  0  0  0  0  0  0  0  0  0  0
  -29.5676  -27.5686   20.6295 C   0  0  0  0  0  0  0  0  0  0  0  0
  -21.0464   -6.9055   22.9174 C   0  0  0  0  0  0  0  0  0  0  0  0
  -19.4368   -6.8384   25.1949 C   0  0  0  0  0  0  0  0  0  0  0  0
  -21.2998   -5.9729   23.9232 C   0  0  0  0  0  0  0  0  0  0  0  0
  -24.6121  -11.6782   20.7069 C   0  0  0  0  0  0  0  0  0  0  0  0
  -25.1714  -13.7849   20.4174 C   0  0  0  0  0  0  0  0  0  0  0  0
  -28.3377  -20.4376   23.1240 C   0  0  0  0  0  0  0  0  0  0  0  0
  -22.7928  -13.4510   21.1095 C   0  0  0  0  0  0  0  0  0  0  0  0
  -29.5832  -32.9844   20.2641 C   0  0  0  0  0  0  0  0  0  0  0  0
  -27.3745  -33.0479   22.6389 C   0  0  0  0  0  0  0  0  0  0  0  0
  -25.4613  -31.3050   24.8635 C   0  0  0  0  0  0  0  0  0  0  0  0
  -30.5592  -15.1443   20.7747 C   0  0  0  0  0  0  0  0  0  0  0  0
  -30.9136  -37.5058   18.3034 C   0  0  0  0  0  0  0  0  0  0  0  0
  -27.8785  -31.3350   19.4101 C   0  0  0  0  0  0  0  0  0  0  0  0
  -28.5493  -30.8495   22.2490 C   0  0  0  0  0  0  0  0  0  0  0  0
  -30.4888  -36.9941   19.6774 C   0  0  0  0  0  0  0  0  0  0  0  0
  -29.6845  -12.5743   18.4710 C   0  0  0  0  0  0  0  0  0  0  0  0
  -31.2853  -35.7485   20.0529 C   0  0  0  0  0  0  0  0  0  0  0  0
  -28.2453  -12.2201   18.8523 C   0  0  0  0  0  0  0  0  0  0  0  0
  -31.1756  -23.7814   21.7283 C   0  0  0  0  0  0  0  0  0  0  0  0
  -30.5315  -12.9046   19.6986 C   0  0  0  0  0  0  0  0  0  0  0  0
  -31.1641  -22.3336   22.2015 C   0  0  0  0  0  0  0  0  0  0  0  0
  -28.5285  -13.5773   20.9653 C   0  0  0  0  0  0  0  0  0  0  0  0
  -31.0302  -34.6099   19.0580 C   0  0  1  0  0  0  0  0  0  0  0  0
  -28.1717  -32.4811   20.3734 C   0  0  1  0  0  0  0  0  0  0  0  0
  -27.6197  -13.3001   19.7565 C   0  0  2  0  0  0  0  0  0  0  0  0
  -29.7601  -23.9906   21.1692 C   0  0  1  0  0  0  0  0  0  0  0  0
  -29.4944  -22.6065   20.4344 C   0  0  0  0  0  0  0  0  0  0  0  0
  -28.7879  -24.2518   22.3464 C   0  0  0  0  0  0  0  0  0  0  0  0
  -30.1318  -22.5758   19.0280 C   0  0  0  0  0  0  0  0  0  0  0  0
  -27.9850  -22.3314   20.3285 C   0  0  0  0  0  0  0  0  0  0  0  0
  -26.0343  -21.1530   23.9547 C   0  0  0  0  0  0  0  0  0  0  0  0
  -23.7828  -31.6340   26.6998 C   0  0  0  0  0  0  0  0  0  0  0  0
  -29.6120  -33.9076   24.5268 C   0  0  0  0  0  0  0  0  0  0  0  0
  -28.1276  -33.3020   26.4498 C   0  0  0  0  0  0  0  0  0  0  0  0
  -27.4426  -35.1043   24.8671 C   0  0  0  0  0  0  0  0  0  0  0  0
  -23.3858  -29.7893   23.3959 C   0  0  0  0  0  0  0  0  0  0  0  0
  -26.8180  -20.2918   22.9766 C   0  0  0  0  0  0  0  0  0  0  0  0
  -29.7242  -25.2252   20.2558 C   0  0  0  0  0  0  0  0  0  1  0  0
  -27.3721  -32.6942   24.1065 C   0  0  1  0  0  0  0  0  0  0  0  0
  -23.9865  -31.3958   25.2117 C   0  0  2  0  0  0  0  0  0  0  0  0
  -28.1450  -33.7328   24.9676 C   0  0  0  0  0  0  0  0  0  0  0  0
  -25.8976  -11.6366   20.3467 N   0  0  0  0  0  0  0  0  0  0  0  0
  -26.2091  -12.9329   20.1776 N   0  0  0  0  0  0  0  0  0  0  0  0
  -30.2103  -21.6408   21.3201 N   0  0  3  0  0  0  0  0  0  0  0  0
  -27.9575  -32.1111   21.7739 N   0  0  0  0  0  0  0  0  0  0  0  0
  -29.8787  -13.9380   20.5053 N   0  0  0  0  0  0  0  0  0  0  0  0
  -25.3118  -15.1219   20.2944 N   0  0  0  0  0  0  0  0  0  0  0  0
  -21.8181  -12.5010   21.4439 N   0  0  0  0  0  0  0  0  0  0  0  0
  -29.8265  -16.0647   21.5235 N   0  0  0  0  0  0  0  0  0  0  0  0
  -29.7534  -33.9828   19.3240 N   0  0  0  0  0  0  0  0  0  0  0  0
  -25.9728  -32.5280   24.4842 N   0  0  0  0  0  0  0  0  0  0  0  0
  -23.2873  -30.1340   24.8376 N   0  3  0  0  0  0  0  0  0  0  0  0
  -28.7812  -21.2203   23.9788 O   0  0  0  0  0  0  0  0  0  0  0  0
  -22.4873  -14.6676   21.1023 O   0  0  0  0  0  0  0  0  0  0  0  0
  -30.4533  -32.5037   20.9808 O   0  0  0  0  0  0  0  0  0  0  0  0
  -26.8709  -34.1128   22.2727 O   0  0  0  0  0  0  0  0  0  0  0  0
  -26.0969  -30.2549   24.9257 O   0  0  0  0  0  0  0  0  0  0  0  0
  -31.6970  -15.3569   20.3478 O   0  0  0  0  0  0  0  0  0  0  0  0
  -21.8450   -6.9407   21.7866 O   0  0  0  0  0  0  0  0  0  0  0  0
  -30.0967  -26.3753   21.0140 O   0  0  0  0  0  0  0  0  0  1  0  0
  -18.6649   -6.8072   26.2891 F   0  0  0  0  0  0  0  0  0  0  0  0
  -22.3157   -5.1075   23.8016 F   0  0  0  0  0  0  0  0  0  0  0  0
  1  2  1  0  0  0  0
  1  5  2  0  0  0  0
  2  6  2  0  0  0  0
  3 10  2  0  0  0  0
  3 18  1  0  0  0  0
  4 11  1  0  0  0  0
  4 18  2  0  0  0  0
  5 21  1  0  0  0  0
  6 23  1  0  0  0  0
  7 12  2  0  0  0  0
  7 22  1  0  0  0  0
  8  9  2  0  0  0  0
  8 25  1  0  0  0  0
  9 26  1  0  0  0  0
 10 27  1  0  0  0  0
 11 27  2  0  0  0  0
 12 28  1  0  0  0  0
 13 14  2  0  0  0  0
 13 29  1  0  0  0  0
 14 30  1  0  0  0  0
 15 19  1  0  0  0  0
 15 26  2  0  0  0  0
 16 24  1  0  0  0  0
 16 28  2  0  0  0  0
 17 30  2  0  0  0  0
 17 31  1  0  0  0  0
 18 32  1  0  0  0  0
 19 25  2  0  0  0  0
 19 34  1  0  0  0  0
 20 32  1  0  0  0  0
 20 33  2  0  0  0  0
 20 35  1  0  0  0  0
 21 23  2  0  0  0  0
 21 40  1  0  0  0  0
 22 24  2  0  0  0  0
 22 41  1  0  0  0  0
 23 51  1  0  0  0  0
 24 42  1  0  0  0  0
 25 72  1  0  0  0  0
 26 77  1  0  0  0  0
 27 87  1  0  0  0  0
 28 88  1  0  0  0  0
 29 31  2  0  0  0  0
 29 87  1  0  0  0  0
 30 89  1  0  0  0  0
 31 90  1  0  0  0  0
 32 70  2  0  0  0  0
 33 71  1  0  0  0  0
 33 75  1  0  0  0  0
 34 65  1  0  0  0  0
 34 81  2  0  0  0  0
 35 76  1  0  0  0  0
 35 82  2  0  0  0  0
 36 52  1  0  0  0  0
 36 78  1  0  0  0  0
 36 83  2  0  0  0  0
 37 67  1  0  0  0  0
 37 73  1  0  0  0  0
 37 84  2  0  0  0  0
 38 68  1  0  0  0  0
 38 79  1  0  0  0  0
 38 85  2  0  0  0  0
 39 74  1  0  0  0  0
 39 77  1  0  0  0  0
 39 86  2  0  0  0  0
 40 43  1  0  0  0  0
 41 52  1  0  0  0  0
 42 73  1  0  0  0  0
 43 45  1  0  0  0  0
 44 46  1  0  0  0  0
 44 48  1  0  0  0  0
 45 51  1  0  0  0  0
 46 53  1  0  0  0  0
 47 49  1  0  0  0  0
 47 54  1  0  0  0  0
 48 74  1  0  0  0  0
 49 72  1  0  0  0  0
 50 53  1  0  0  0  0
 50 74  1  0  0  0  0
 51 78  1  0  0  0  0
 52 73  1  0  0  0  0
 53 71  1  0  0  0  0
 54 55  1  0  0  0  0
 54 56  1  0  0  0  0
 54 66  1  0  0  0  0
 55 57  1  0  0  0  0
 55 58  1  0  0  0  0
 55 72  1  0  0  0  0
 59 65  1  0  0  0  0
 60 68  1  0  0  0  0
 61 69  1  0  0  0  0
 62 69  1  0  0  0  0
 63 69  1  0  0  0  0
 64 80  1  0  0  0  0
 66 88  1  0  0  0  0
 67 69  1  0  0  0  0
 67 79  1  0  0  0  0
 68 80  1  0  0  0  0
 70 71  1  0  0  0  0
M  CHG  1  80   1
M  ISO  4  39 100  66 101  77 100  88 101
M  END
> <Batch ID>
0147

> <Smiles>
CCC(=O)c1cc([100NH:0][100C:0](=O)N2CCCC(n3nc(-c4ccc(Oc5ccc(F)cc5F)cc4)c(C(N)=O)c3N)C2)ccc1N1CCC(C)([101CH2:1][101O:1]c2ccc3c(c2)CN(C(=O)C(NC(=O)C(C)NC)C(C)(C)C)C(C(=O)NC2CCCc4ccccc42)C3)C1(C)C

> <Shape>
0.310

> <Color>
0.189

> <Negative vol penalty>
0.000

$$$$

  -OEChem-04052303133D

 86 95  0     1  0  0  0  0  0999 V2000
  -18.3504  -26.8692   23.6504 C   0  0  0  0  0  0  0  0  0  0  0  0
  -19.6816  -26.4805   23.5391 C   0  0  0  0  0  0  0  0  0  0  0  0
  -24.5077   -9.4769   21.3891 C   0  0  0  0  0  0  0  0  0  0  0  0
  -24.9064  -10.5299   23.5267 C   0  0  0  0  0  0  0  0  0  0  0  0
  -17.7941  -27.7263   22.7019 C   0  0  0  0  0  0  0  0  0  0  0  0
  -20.4569  -26.9479   22.4786 C   0  0  0  0  0  0  0  0  0  0  0  0
  -26.4314  -28.2887   22.5969 C   0  0  0  0  0  0  0  0  0  0  0  0
  -24.3096   -8.2533   22.0288 C   0  0  0  0  0  0  0  0  0  0  0  0
  -24.7082   -9.3063   24.1664 C   0  0  0  0  0  0  0  0  0  0  0  0
  -27.5614  -27.5727   22.2042 C   0  0  0  0  0  0  0  0  0  0  0  0
  -23.3431   -4.9261   23.1290 C   0  0  0  0  0  0  0  0  0  0  0  0
  -22.2556   -4.1517   22.7251 C   0  0  0  0  0  0  0  0  0  0  0  0
  -27.5342  -28.7088   20.0763 C   0  0  0  0  0  0  0  0  0  0  0  0
  -28.7768  -20.3723   20.2467 C   0  0  0  0  0  0  0  0  0  0  0  0
  -20.7526   -5.9381   23.3473 C   0  0  0  0  0  0  0  0  0  0  0  0
  -24.8062  -10.6152   22.1380 C   0  0  0  0  0  0  0  0  0  0  0  0
  -24.0375  -12.8513   21.1808 C   0  0  0  0  0  0  0  0  0  0  0  0
  -18.5657  -28.2122   21.6345 C   0  0  0  0  0  0  0  0  0  0  0  0
  -25.8369  -29.2138   21.7267 C   0  0  0  0  0  0  0  0  0  0  0  0
  -19.9101  -27.8113   21.5141 C   0  0  0  0  0  0  0  0  0  0  0  0
  -26.3983  -29.4371   20.4614 C   0  0  0  0  0  0  0  0  0  0  0  0
  -28.2310  -21.6726   20.4504 C   0  0  0  0  0  0  0  0  0  0  0  0
  -24.4098   -8.1680   23.4174 C   0  0  0  0  0  0  0  0  0  0  0  0
  -28.1113  -27.7806   20.9426 C   0  0  0  0  0  0  0  0  0  0  0  0
  -23.1355   -6.2064   23.6421 C   0  0  0  0  0  0  0  0  0  0  0  0
  -20.9603   -4.6577   22.8342 C   0  0  0  0  0  0  0  0  0  0  0  0
  -21.8402   -6.7125   23.7512 C   0  0  0  0  0  0  0  0  0  0  0  0
  -25.0115  -11.8793   21.4778 C   0  0  0  0  0  0  0  0  0  0  0  0
  -26.9912  -21.6255   21.0489 C   0  0  0  0  0  0  0  0  0  0  0  0
  -24.7348  -13.8566   20.5565 C   0  0  0  0  0  0  0  0  0  0  0  0
  -27.9333  -19.3808   20.6977 C   0  0  0  0  0  0  0  0  0  0  0  0
  -22.6284  -12.8461   21.4456 C   0  0  0  0  0  0  0  0  0  0  0  0
  -22.9908  -29.4768   20.3359 C   0  0  0  0  0  0  0  0  0  0  0  0
  -24.1637  -32.3409   19.3647 C   0  0  0  0  0  0  0  0  0  0  0  0
  -26.8926  -34.2734   18.6827 C   0  0  0  0  0  0  0  0  0  0  0  0
  -29.1501  -17.2307   20.2049 C   0  0  0  0  0  0  0  0  0  0  0  0
  -17.9074  -29.0991   20.6075 C   0  0  0  0  0  0  0  0  0  0  0  0
  -24.6342  -29.9976   22.1756 C   0  0  0  0  0  0  0  0  0  0  0  0
  -25.8100  -30.4337   19.4975 C   0  0  0  0  0  0  0  0  0  0  0  0
  -18.9008  -29.8477   19.7227 C   0  0  0  0  0  0  0  0  0  0  0  0
  -29.4813  -13.9751   18.8019 C   0  0  0  0  0  0  0  0  0  0  0  0
  -19.9886  -28.9023   19.2230 C   0  0  0  0  0  0  0  0  0  0  0  0
  -28.2678  -13.2196   19.3485 C   0  0  0  0  0  0  0  0  0  0  0  0
  -29.2929  -24.8031   18.7936 C   0  0  0  0  0  0  0  0  0  0  0  0
  -30.0553  -14.9468   19.8314 C   0  0  0  0  0  0  0  0  0  0  0  0
  -28.2391  -23.7523   19.1190 C   0  0  0  0  0  0  0  0  0  0  0  0
  -27.8707  -15.1294   20.9554 C   0  0  0  0  0  0  0  0  0  0  0  0
  -20.7903  -28.3168   20.3918 C   0  0  1  0  0  0  0  0  0  0  0  0
  -23.8072  -30.5404   21.0141 C   0  0  1  0  0  0  0  0  0  0  0  0
  -27.2182  -14.1859   19.9318 C   0  0  2  0  0  0  0  0  0  0  0  0
  -30.1280  -24.8889   20.0801 C   0  0  1  0  0  0  0  0  0  0  0  0
  -30.2094  -23.3625   20.5158 C   0  0  0  0  0  0  0  0  0  0  0  0
  -26.0962  -22.7427   21.4290 C   0  0  0  0  0  0  0  0  0  0  0  0
  -31.4834  -25.5525   19.7932 C   0  0  0  0  0  0  0  0  0  0  0  0
  -30.4488  -23.2442   22.0303 C   0  0  0  0  0  0  0  0  0  0  0  0
  -31.3195  -22.6094   19.7503 C   0  0  0  0  0  0  0  0  0  0  0  0
  -27.5343  -36.5594   17.8702 C   0  0  0  0  0  0  0  0  0  0  0  0
  -23.4498  -31.5250   16.5126 C   0  0  0  0  0  0  0  0  0  0  0  0
  -24.9382  -33.3619   15.6888 C   0  0  0  0  0  0  0  0  0  0  0  0
  -22.9375  -33.9073   17.0753 C   0  0  0  0  0  0  0  0  0  0  0  0
  -28.3060  -34.9005   21.2062 C   0  0  0  0  0  0  0  0  0  0  0  0
  -29.3810  -25.7764   21.1063 C   0  0  0  0  0  0  0  0  0  1  0  0
  -24.9449  -32.8258   18.1675 C   0  0  1  0  0  0  0  0  0  0  0  0
  -27.2482  -35.6928   19.0868 C   0  0  2  0  0  0  0  0  0  0  0  0
  -24.0778  -32.8847   16.8783 C   0  0  0  0  0  0  0  0  0  0  0  0
  -26.2344  -12.2349   21.0751 N   0  0  0  0  0  0  0  0  0  0  0  0
  -26.0334  -13.4415   20.5186 N   0  0  0  0  0  0  0  0  0  0  0  0
  -28.8769  -22.8440   20.0858 N   0  0  3  0  0  0  0  0  0  0  0  0
  -24.6305  -31.1708   19.9802 N   0  0  0  0  0  0  0  0  0  0  0  0
  -29.0048  -15.8334   20.3366 N   0  0  0  0  0  0  0  0  0  0  0  0
  -24.3576  -15.0461   20.0416 N   0  0  0  0  0  0  0  0  0  0  0  0
  -22.0748  -11.7346   22.0956 N   0  0  0  0  0  0  0  0  0  0  0  0
  -28.0733  -17.9708   20.6922 N   0  0  0  0  0  0  0  0  0  0  0  0
  -21.7393  -29.2888   20.8908 N   0  0  0  0  0  0  0  0  0  0  0  0
  -25.5302  -34.1054   18.5529 N   0  0  0  0  0  0  0  0  0  0  0  0
  -28.4556  -35.6957   19.9603 N   0  3  0  0  0  0  0  0  0  0  0  0
  -21.8796  -13.7917   21.1010 O   0  0  0  0  0  0  0  0  0  0  0  0
  -23.4609  -28.8724   19.3791 O   0  0  0  0  0  0  0  0  0  0  0  0
  -23.1798  -32.9809   19.7444 O   0  0  0  0  0  0  0  0  0  0  0  0
  -27.7391  -33.4019   18.4968 O   0  0  0  0  0  0  0  0  0  0  0  0
  -30.1435  -17.7325   19.6727 O   0  0  0  0  0  0  0  0  0  0  0  0
  -24.2163   -6.9743   24.0420 O   0  0  0  0  0  0  0  0  0  0  0  0
  -29.2138  -27.0825   20.5565 O   0  0  0  0  0  0  0  0  0  1  0  0
  -19.9161   -3.9146   22.4448 F   0  0  0  0  0  0  0  0  0  0  0  0
  -21.6345   -7.9422   24.2423 F   0  0  0  0  0  0  0  0  0  0  0  0
  -26.4900  -20.0184   21.3629 S   0  0  0  0  0  0  0  0  0  0  0  0
  1  2  1  0  0  0  0
  1  5  2  0  0  0  0
  2  6  2  0  0  0  0
  3  8  2  0  0  0  0
  3 16  1  0  0  0  0
  4  9  1  0  0  0  0
  4 16  2  0  0  0  0
  5 18  1  0  0  0  0
  6 20  1  0  0  0  0
  7 10  2  0  0  0  0
  7 19  1  0  0  0  0
  8 23  1  0  0  0  0
  9 23  2  0  0  0  0
 10 24  1  0  0  0  0
 11 12  2  0  0  0  0
 11 25  1  0  0  0  0
 12 26  1  0  0  0  0
 13 21  1  0  0  0  0
 13 24  2  0  0  0  0
 14 22  1  0  0  0  0
 14 31  2  0  0  0  0
 15 26  2  0  0  0  0
 15 27  1  0  0  0  0
 16 28  1  0  0  0  0
 17 28  1  0  0  0  0
 17 30  2  0  0  0  0
 17 32  1  0  0  0  0
 18 20  2  0  0  0  0
 18 37  1  0  0  0  0
 19 21  2  0  0  0  0
 19 38  1  0  0  0  0
 20 48  1  0  0  0  0
 21 39  1  0  0  0  0
 22 29  2  0  0  0  0
 22 68  1  0  0  0  0
 23 82  1  0  0  0  0
 24 83  1  0  0  0  0
 25 27  2  0  0  0  0
 25 82  1  0  0  0  0
 26 84  1  0  0  0  0
 27 85  1  0  0  0  0
 28 66  2  0  0  0  0
 29 53  1  0  0  0  0
 29 86  1  0  0  0  0
 30 67  1  0  0  0  0
 30 71  1  0  0  0  0
 31 73  1  0  0  0  0
 31 86  1  0  0  0  0
 32 72  1  0  0  0  0
 32 77  2  0  0  0  0
 33 49  1  0  0  0  0
 33 74  1  0  0  0  0
 33 78  2  0  0  0  0
 34 63  1  0  0  0  0
 34 69  1  0  0  0  0
 34 79  2  0  0  0  0
 35 64  1  0  0  0  0
 35 75  1  0  0  0  0
 35 80  2  0  0  0  0
 36 70  1  0  0  0  0
 36 73  1  0  0  0  0
 36 81  2  0  0  0  0
 37 40  1  0  0  0  0
 38 49  1  0  0  0  0
 39 69  1  0  0  0  0
 40 42  1  0  0  0  0
 41 43  1  0  0  0  0
 41 45  1  0  0  0  0
 42 48  1  0  0  0  0
 43 50  1  0  0  0  0
 44 46  1  0  0  0  0
 44 51  1  0  0  0  0
 45 70  1  0  0  0  0
 46 68  1  0  0  0  0
 47 50  1  0  0  0  0
 47 70  1  0  0  0  0
 48 74  1  0  0  0  0
 49 69  1  0  0  0  0
 50 67  1  0  0  0  0
 51 52  1  0  0  0  0
 51 54  1  0  0  0  0
 51 62  1  0  0  0  0
 52 55  1  0  0  0  0
 52 56  1  0  0  0  0
 52 68  1  0  0  0  0
 57 64  1  0  0  0  0
 58 65  1  0  0  0  0
 59 65  1  0  0  0  0
 60 65  1  0  0  0  0
 61 76  1  0  0  0  0
 62 83  1  0  0  0  0
 63 65  1  0  0  0  0
 63 75  1  0  0  0  0
 64 76  1  0  0  0  0
 66 67  1  0  0  0  0
M  CHG  1  76   1
M  ISO  4  36 100  62 101  73 100  83 101
M  END
> <Batch ID>
0147

> <Smiles>
CNC(C)C(=O)NC(C(=O)N1Cc2cc([101O:1][101CH2:1]C3(C)CCN(c4cc([100NH:0][100C:0](=O)N5CCCC(n6nc(-c7ccc(Oc8ccc(F)cc8F)cc7)c(C(N)=O)c6N)C5)sc4C)C3(C)C)ccc2CC1C(=O)NC1CCCc2ccccc21)C(C)(C)C

> <Shape>
0.315

> <Color>
0.130

> <Negative vol penalty>
0.000

$$$$

  -OEChem-04052303133D

 83 92  0     1  0  0  0  0  0999 V2000
  -26.7866  -38.2429   20.4418 C   0  0  0  0  0  0  0  0  0  0  0  0
  -27.4098  -37.0316   20.1590 C   0  0  0  0  0  0  0  0  0  0  0  0
  -24.3954   -9.0623   21.5595 C   0  0  0  0  0  0  0  0  0  0  0  0
  -22.5262  -10.1291   20.4617 C   0  0  0  0  0  0  0  0  0  0  0  0
  -25.8476  -38.3192   21.4696 C   0  0  0  0  0  0  0  0  0  0  0  0
  -27.0951  -35.8962   20.9047 C   0  0  0  0  0  0  0  0  0  0  0  0
  -26.8545  -30.1182   18.8891 C   0  0  0  0  0  0  0  0  0  0  0  0
  -23.6508   -7.8899   21.6880 C   0  0  0  0  0  0  0  0  0  0  0  0
  -21.7816   -8.9565   20.5902 C   0  0  0  0  0  0  0  0  0  0  0  0
  -27.7647  -29.0639   18.9526 C   0  0  0  0  0  0  0  0  0  0  0  0
  -21.2111   -6.6971   23.7003 C   0  0  0  0  0  0  0  0  0  0  0  0
  -21.2426   -6.0419   24.9313 C   0  0  0  0  0  0  0  0  0  0  0  0
  -26.6525  -28.2304   20.9242 C   0  0  0  0  0  0  0  0  0  0  0  0
  -26.3590  -21.7698   19.7677 C   0  0  0  0  0  0  0  0  0  0  0  0
  -22.1486   -4.0745   23.8611 C   0  0  0  0  0  0  0  0  0  0  0  0
  -23.8330  -10.1820   20.9464 C   0  0  0  0  0  0  0  0  0  0  0  0
  -25.4381  -11.7566   19.7415 C   0  0  0  0  0  0  0  0  0  0  0  0
  -25.5141  -37.1819   22.2219 C   0  0  0  0  0  0  0  0  0  0  0  0
  -25.8415  -30.2428   19.8506 C   0  0  0  0  0  0  0  0  0  0  0  0
  -26.1517  -35.9576   21.9444 C   0  0  0  0  0  0  0  0  0  0  0  0
  -25.7292  -29.2857   20.8693 C   0  0  0  0  0  0  0  0  0  0  0  0
  -25.9525  -20.4370   19.9814 C   0  0  0  0  0  0  0  0  0  0  0  0
  -22.3440   -7.8369   21.2034 C   0  0  0  0  0  0  0  0  0  0  0  0
  -27.6655  -28.1215   19.9719 C   0  0  0  0  0  0  0  0  0  0  0  0
  -21.6483   -6.0409   22.5497 C   0  0  0  0  0  0  0  0  0  0  0  0
  -21.7113   -4.7307   25.0118 C   0  0  0  0  0  0  0  0  0  0  0  0
  -22.1171   -4.7296   22.6301 C   0  0  0  0  0  0  0  0  0  0  0  0
  -24.6014  -11.3936   20.8138 C   0  0  0  0  0  0  0  0  0  0  0  0
  -26.9995  -19.5599   19.9247 C   0  0  0  0  0  0  0  0  0  0  0  0
  -25.9331  -12.9884   20.0938 C   0  0  0  0  0  0  0  0  0  0  0  0
  -27.7273  -21.8333   19.5560 C   0  0  0  0  0  0  0  0  0  0  0  0
  -25.7408  -11.0440   18.5347 C   0  0  0  0  0  0  0  0  0  0  0  0
  -25.0749  -18.1255   22.1343 C   0  0  0  0  0  0  0  0  0  0  0  0
  -25.0755  -32.4239   22.0323 C   0  0  0  0  0  0  0  0  0  0  0  0
  -22.4748  -30.5300   22.4470 C   0  0  0  0  0  0  0  0  0  0  0  0
  -28.2071  -24.2808   19.2045 C   0  0  0  0  0  0  0  0  0  0  0  0
  -21.0702  -27.4333   22.1576 C   0  0  0  0  0  0  0  0  0  0  0  0
  -24.5278  -37.3240   23.3540 C   0  0  0  0  0  0  0  0  0  0  0  0
  -24.8512  -31.3707   19.7527 C   0  0  0  0  0  0  0  0  0  0  0  0
  -24.6708  -19.7380   20.2523 C   0  0  0  0  0  0  0  0  0  0  0  0
  -24.6473  -29.3630   21.9143 C   0  0  0  0  0  0  0  0  0  0  0  0
  -26.6210  -18.1430   20.1439 C   0  0  0  0  0  0  0  0  0  0  0  0
  -23.9750  -35.9907   23.8512 C   0  0  0  0  0  0  0  0  0  0  0  0
  -25.7382  -15.4943   24.4746 C   0  0  0  0  0  0  0  0  0  0  0  0
  -25.1037  -34.9824   24.0412 C   0  0  0  0  0  0  0  0  0  0  0  0
  -25.5407  -14.2227   23.6505 C   0  0  0  0  0  0  0  0  0  0  0  0
  -24.7676  -16.5916   24.0493 C   0  0  0  0  0  0  0  0  0  0  0  0
  -24.6242  -15.6490   21.7662 C   0  0  0  0  0  0  0  0  0  0  0  0
  -25.8188  -34.6983   22.7147 C   0  0  1  0  0  0  0  0  0  0  0  0
  -25.1441  -18.2954   20.6375 C   0  0  1  0  0  0  0  0  0  0  0  0
  -24.1736  -31.6880   21.0822 C   0  0  1  0  0  0  0  0  0  0  0  0
  -25.6058  -14.5252   22.1429 C   0  0  2  0  0  0  0  0  0  0  0  0
  -18.9415  -26.1852   22.6144 C   0  0  0  0  0  0  0  0  0  0  0  0
  -23.1620  -30.4506   25.4188 C   0  0  0  0  0  0  0  0  0  0  0  0
  -21.6280  -28.4855   25.6497 C   0  0  0  0  0  0  0  0  0  0  0  0
  -20.7238  -30.6922   24.9180 C   0  0  0  0  0  0  0  0  0  0  0  0
  -20.6966  -26.7894   19.2932 C   0  0  0  0  0  0  0  0  0  0  0  0
  -29.4297  -25.1467   18.9228 C   0  0  0  0  0  0  0  0  0  0  0  0
  -29.0991  -26.6267   18.8030 C   0  0  0  0  0  0  0  0  0  1  0  0
  -22.1447  -29.3434   23.3199 C   0  0  1  0  0  0  0  0  0  0  0  0
  -19.7364  -26.9812   21.5910 C   0  0  2  0  0  0  0  0  0  0  0  0
  -21.9363  -29.7423   24.8082 C   0  0  0  0  0  0  0  0  0  0  0  0
  -24.5646  -12.3198   21.7755 N   0  0  0  0  0  0  0  0  0  0  0  0
  -25.3844  -13.2770   21.3087 N   0  0  0  0  0  0  0  0  0  0  0  0
  -24.8438  -16.8337   22.6075 N   0  0  0  0  0  0  0  0  0  0  0  0
  -23.7071  -30.4878   21.7794 N   0  0  0  0  0  0  0  0  0  0  0  0
  -26.7798  -13.8420   19.4800 N   0  0  0  0  0  0  0  0  0  0  0  0
  -25.1462   -9.7913   18.3314 N   0  0  0  0  0  0  0  0  0  0  0  0
  -28.5715  -22.9407   19.3033 N   0  0  0  0  0  0  0  0  0  0  0  0
  -25.0317  -33.7986   21.8989 N   0  0  0  0  0  0  0  0  0  0  0  0
  -20.9900  -28.6951   22.7078 N   0  0  0  0  0  0  0  0  0  0  0  0
  -19.9474  -26.1242   20.3901 N   0  3  0  0  0  0  0  0  0  0  0  0
  -26.5285  -11.4973   17.6700 O   0  0  0  0  0  0  0  0  0  0  0  0
  -25.2249  -19.1121   22.8597 O   0  0  0  0  0  0  0  0  0  0  0  0
  -25.7593  -31.7914   22.8285 O   0  0  0  0  0  0  0  0  0  0  0  0
  -21.6660  -31.4568   22.3551 O   0  0  0  0  0  0  0  0  0  0  0  0
  -27.0823  -24.7565   19.3175 O   0  0  0  0  0  0  0  0  0  0  0  0
  -22.0810  -26.7353   22.1195 O   0  0  0  0  0  0  0  0  0  0  0  0
  -21.6172   -6.6929   21.3284 O   0  0  0  0  0  0  0  0  0  0  0  0
  -28.5530  -27.0919   20.0366 O   0  0  0  0  0  0  0  0  0  1  0  0
  -21.7429   -4.1022   26.1942 F   0  0  0  0  0  0  0  0  0  0  0  0
  -22.5396   -4.0945   21.5283 F   0  0  0  0  0  0  0  0  0  0  0  0
  -28.4799  -20.2762   19.6200 S   0  0  0  0  0  0  0  0  0  0  0  0
  1  2  1  0  0  0  0
  1  5  2  0  0  0  0
  2  6  2  0  0  0  0
  3  8  2  0  0  0  0
  3 16  1  0  0  0  0
  4  9  1  0  0  0  0
  4 16  2  0  0  0  0
  5 18  1  0  0  0  0
  6 20  1  0  0  0  0
  7 10  2  0  0  0  0
  7 19  1  0  0  0  0
  8 23  1  0  0  0  0
  9 23  2  0  0  0  0
 10 24  1  0  0  0  0
 11 12  2  0  0  0  0
 11 25  1  0  0  0  0
 12 26  1  0  0  0  0
 13 21  1  0  0  0  0
 13 24  2  0  0  0  0
 14 22  1  0  0  0  0
 14 31  2  0  0  0  0
 15 26  2  0  0  0  0
 15 27  1  0  0  0  0
 16 28  1  0  0  0  0
 17 28  1  0  0  0  0
 17 30  2  0  0  0  0
 17 32  1  0  0  0  0
 18 20  2  0  0  0  0
 18 38  1  0  0  0  0
 19 21  2  0  0  0  0
 19 39  1  0  0  0  0
 20 49  1  0  0  0  0
 21 41  1  0  0  0  0
 22 29  2  0  0  0  0
 22 40  1  0  0  0  0
 23 79  1  0  0  0  0
 24 80  1  0  0  0  0
 25 27  2  0  0  0  0
 25 79  1  0  0  0  0
 26 81  1  0  0  0  0
 27 82  1  0  0  0  0
 28 63  2  0  0  0  0
 29 42  1  0  0  0  0
 29 83  1  0  0  0  0
 30 64  1  0  0  0  0
 30 67  1  0  0  0  0
 31 69  1  0  0  0  0
 31 83  1  0  0  0  0
 32 68  1  0  0  0  0
 32 73  2  0  0  0  0
 33 50  1  0  0  0  0
 33 65  1  0  0  0  0
 33 74  2  0  0  0  0
 34 51  1  0  0  0  0
 34 70  1  0  0  0  0
 34 75  2  0  0  0  0
 35 60  1  0  0  0  0
 35 66  1  0  0  0  0
 35 76  2  0  0  0  0
 36 58  1  0  0  0  0
 36 69  1  0  0  0  0
 36 77  2  0  0  0  0
 37 61  1  0  0  0  0
 37 71  1  0  0  0  0
 37 78  2  0  0  0  0
 38 43  1  0  0  0  0
 39 51  1  0  0  0  0
 40 50  1  0  0  0  0
 41 66  1  0  0  0  0
 42 50  1  0  0  0  0
 43 45  1  0  0  0  0
 44 46  1  0  0  0  0
 44 47  1  0  0  0  0
 45 49  1  0  0  0  0
 46 52  1  0  0  0  0
 47 65  1  0  0  0  0
 48 52  1  0  0  0  0
 48 65  1  0  0  0  0
 49 70  1  0  0  0  0
 51 66  1  0  0  0  0
 52 64  1  0  0  0  0
 53 61  1  0  0  0  0
 54 62  1  0  0  0  0
 55 62  1  0  0  0  0
 56 62  1  0  0  0  0
 57 72  1  0  0  0  0
 58 59  1  0  0  0  0
 59 80  1  0  0  0  0
 60 62  1  0  0  0  0
 60 71  1  0  0  0  0
 61 72  1  0  0  0  0
 63 64  1  0  0  0  0
M  CHG  1  72   1
M  ISO  4  33 100  50 100  59 101  80 101
M  END
> <Batch ID>
0147

> <Smiles>
CNC(C)C(=O)NC(C(=O)N1Cc2cc([101O:1][101CH2:1]CC(=O)Nc3cc4c(s3)C[100CH:0]([100C:0](=O)N3CCCC(n5nc(-c6ccc(Oc7ccc(F)cc7F)cc6)c(C(N)=O)c5N)C3)C4)ccc2CC1C(=O)NC1CCCc2ccccc21)C(C)(C)C

> <Shape>
0.314

> <Color>
0.126

> <Negative vol penalty>
0.000

$$$$

  -OEChem-04052303133D

 84 93  0     1  0  0  0  0  0999 V2000
  -39.3605  -26.3599   12.2666 C   0  0  0  0  0  0  0  0  0  0  0  0
  -39.0816  -25.9552   13.5681 C   0  0  0  0  0  0  0  0  0  0  0  0
  -23.2427  -10.1968   22.1563 C   0  0  0  0  0  0  0  0  0  0  0  0
  -23.5378   -9.5436   19.8491 C   0  0  0  0  0  0  0  0  0  0  0  0
  -38.5141  -27.2605   11.6214 C   0  0  0  0  0  0  0  0  0  0  0  0
  -37.9566  -26.4518   14.2255 C   0  0  0  0  0  0  0  0  0  0  0  0
  -35.3792  -22.8390   16.6647 C   0  0  0  0  0  0  0  0  0  0  0  0
  -22.4780   -9.0525   22.3825 C   0  0  0  0  0  0  0  0  0  0  0  0
  -22.7732   -8.3991   20.0753 C   0  0  0  0  0  0  0  0  0  0  0  0
  -35.8924  -22.4050   17.8861 C   0  0  0  0  0  0  0  0  0  0  0  0
  -23.0223   -5.7581   22.9158 C   0  0  0  0  0  0  0  0  0  0  0  0
  -23.2843   -5.0214   24.0708 C   0  0  0  0  0  0  0  0  0  0  0  0
  -34.3038  -23.8034   19.0437 C   0  0  0  0  0  0  0  0  0  0  0  0
  -31.8481  -17.4078   21.7943 C   0  0  0  0  0  0  0  0  0  0  0  0
  -21.0138   -5.3802   24.8146 C   0  0  0  0  0  0  0  0  0  0  0  0
  -30.8033  -18.9587   23.1746 C   0  0  0  0  0  0  0  0  0  0  0  0
  -23.7726  -10.4425   20.8895 C   0  0  0  0  0  0  0  0  0  0  0  0
  -24.1552  -12.9634   20.8108 C   0  0  0  0  0  0  0  0  0  0  0  0
  -37.3729  -27.7610   12.2677 C   0  0  0  0  0  0  0  0  0  0  0  0
  -34.3298  -23.7683   16.6234 C   0  0  0  0  0  0  0  0  0  0  0  0
  -37.0948  -27.3610   13.5887 C   0  0  0  0  0  0  0  0  0  0  0  0
  -33.7773  -24.2457   17.8204 C   0  0  0  0  0  0  0  0  0  0  0  0
  -31.9508  -18.6549   22.4757 C   0  0  0  0  0  0  0  0  0  0  0  0
  -22.2433   -8.1536   21.3421 C   0  0  0  0  0  0  0  0  0  0  0  0
  -35.3567  -22.8894   19.0758 C   0  0  0  0  0  0  0  0  0  0  0  0
  -21.7561   -6.3061   22.7102 C   0  0  0  0  0  0  0  0  0  0  0  0
  -22.2801   -4.8324   25.0202 C   0  0  0  0  0  0  0  0  0  0  0  0
  -20.7519   -6.1171   23.6596 C   0  0  0  0  0  0  0  0  0  0  0  0
  -24.5621  -11.6247   20.6550 C   0  0  0  0  0  0  0  0  0  0  0  0
  -25.2614  -13.7008   20.4659 C   0  0  0  0  0  0  0  0  0  0  0  0
  -30.6259  -16.8058   21.9986 C   0  0  0  0  0  0  0  0  0  0  0  0
  -22.8904  -13.4929   21.2300 C   0  0  0  0  0  0  0  0  0  0  0  0
  -33.9844  -26.7119   15.4746 C   0  0  0  0  0  0  0  0  0  0  0  0
  -30.8888  -26.2651   16.3349 C   0  0  0  0  0  0  0  0  0  0  0  0
  -29.1129  -24.8249   19.1259 C   0  0  0  0  0  0  0  0  0  0  0  0
  -30.7423  -14.6561   20.6903 C   0  0  0  0  0  0  0  0  0  0  0  0
  -36.5135  -28.7690   11.5465 C   0  0  0  0  0  0  0  0  0  0  0  0
  -33.7696  -24.2062   15.2979 C   0  0  0  0  0  0  0  0  0  0  0  0
  -32.6366  -25.2291   17.8307 C   0  0  0  0  0  0  0  0  0  0  0  0
  -35.1372  -28.9594   12.1789 C   0  0  0  0  0  0  0  0  0  0  0  0
  -29.6047  -12.2974   18.2779 C   0  0  0  0  0  0  0  0  0  0  0  0
  -35.2614  -29.1142   13.6913 C   0  0  0  0  0  0  0  0  0  0  0  0
  -28.1579  -12.0223   18.6941 C   0  0  0  0  0  0  0  0  0  0  0  0
  -34.4363  -21.2226   23.5463 C   0  0  0  0  0  0  0  0  0  0  0  0
  -35.3612  -19.9352   21.6082 C   0  0  0  0  0  0  0  0  0  0  0  0
  -30.5157  -12.4929   19.4885 C   0  0  0  0  0  0  0  0  0  0  0  0
  -33.0299  -20.7335   23.1987 C   0  0  0  0  0  0  0  0  0  0  0  0
  -33.9540  -19.4466   21.2612 C   0  0  0  0  0  0  0  0  0  0  0  0
  -28.6118  -13.2263   20.8693 C   0  0  0  0  0  0  0  0  0  0  0  0
  -35.8706  -27.8584   14.3263 C   0  0  1  0  0  0  0  0  0  0  0  0
  -33.0428  -25.5456   15.3695 C   0  0  1  0  0  0  0  0  0  0  0  0
  -27.6438  -13.0869   19.6830 C   0  0  2  0  0  0  0  0  0  0  0  0
  -35.3785  -21.2972   22.3289 C   0  0  0  0  0  0  0  0  0  0  0  0
  -36.8089  -21.5949   22.8140 C   0  0  0  0  0  0  0  0  0  0  0  0
  -26.8285  -23.7936   19.2493 C   0  0  0  0  0  0  0  0  0  0  0  0
  -29.9899  -29.0586   17.1703 C   0  0  0  0  0  0  0  0  0  0  0  0
  -28.4068  -27.9894   18.7886 C   0  0  0  0  0  0  0  0  0  0  0  0
  -28.1540  -27.5763   16.3416 C   0  0  0  0  0  0  0  0  0  0  0  0
  -30.1821  -22.3115   20.2654 C   0  0  0  0  0  0  0  0  0  0  0  0
  -34.9534  -22.4282   21.3738 C   0  0  0  0  0  0  0  0  0  1  0  0
  -30.0805  -26.5120   17.5858 C   0  0  1  0  0  0  0  0  0  0  0  0
  -28.3213  -23.5296   19.1286 C   0  0  2  0  0  0  0  0  0  0  0  0
  -29.1857  -27.7785   17.4727 C   0  0  0  0  0  0  0  0  0  0  0  0
  -25.8279  -11.5152   20.2430 N   0  0  0  0  0  0  0  0  0  0  0  0
  -26.2259  -12.7944   20.1369 N   0  0  0  0  0  0  0  0  0  0  0  0
  -33.0846  -19.4777   22.4406 N   0  0  0  0  0  0  0  0  0  0  0  0
  -32.1275  -25.6318   16.5092 N   0  0  0  0  0  0  0  0  0  0  0  0
  -29.9676  -13.5188   20.3784 N   0  0  0  0  0  0  0  0  0  0  0  0
  -25.4933  -15.0298   20.4149 N   0  0  0  0  0  0  0  0  0  0  0  0
  -21.8621  -12.5949   21.5469 N   0  0  0  0  0  0  0  0  0  0  0  0
  -30.1045  -15.5786   21.5191 N   0  0  0  0  0  0  0  0  0  0  0  0
  -34.8780  -26.8098   14.4252 N   0  0  0  0  0  0  0  0  0  0  0  0
  -29.3428  -25.2803   17.8449 N   0  0  0  0  0  0  0  0  0  0  0  0
  -28.7402  -22.6690   20.2709 N   0  3  0  0  0  0  0  0  0  0  0  0
  -22.6733  -14.7261   21.3050 O   0  0  0  0  0  0  0  0  0  0  0  0
  -33.9049  -27.4679   16.4357 O   0  0  0  0  0  0  0  0  0  0  0  0
  -30.4346  -26.6145   15.2426 O   0  0  0  0  0  0  0  0  0  0  0  0
  -29.4865  -25.3794   20.1572 O   0  0  0  0  0  0  0  0  0  0  0  0
  -31.8768  -14.8140   20.2322 O   0  0  0  0  0  0  0  0  0  0  0  0
  -21.4974   -7.0366   21.5626 O   0  0  0  0  0  0  0  0  0  0  0  0
  -35.8563  -22.4679   20.2694 O   0  0  0  0  0  0  0  0  0  1  0  0
  -22.5313   -4.1235   26.1286 F   0  0  0  0  0  0  0  0  0  0  0  0
  -19.5331   -6.6400   23.4671 F   0  0  0  0  0  0  0  0  0  0  0  0
  -29.6087  -17.7432   23.0081 S   0  0  0  0  0  0  0  0  0  0  0  0
  1  2  1  0  0  0  0
  1  5  2  0  0  0  0
  2  6  2  0  0  0  0
  3  8  2  0  0  0  0
  3 17  1  0  0  0  0
  4  9  1  0  0  0  0
  4 17  2  0  0  0  0
  5 19  1  0  0  0  0
  6 21  1  0  0  0  0
  7 10  2  0  0  0  0
  7 20  1  0  0  0  0
  8 24  1  0  0  0  0
  9 24  2  0  0  0  0
 10 25  1  0  0  0  0
 11 12  2  0  0  0  0
 11 26  1  0  0  0  0
 12 27  1  0  0  0  0
 13 22  1  0  0  0  0
 13 25  2  0  0  0  0
 14 23  1  0  0  0  0
 14 31  2  0  0  0  0
 15 27  2  0  0  0  0
 15 28  1  0  0  0  0
 16 23  2  0  0  0  0
 16 84  1  0  0  0  0
 17 29  1  0  0  0  0
 18 29  1  0  0  0  0
 18 30  2  0  0  0  0
 18 32  1  0  0  0  0
 19 21  2  0  0  0  0
 19 37  1  0  0  0  0
 20 22  2  0  0  0  0
 20 38  1  0  0  0  0
 21 50  1  0  0  0  0
 22 39  1  0  0  0  0
 23 66  1  0  0  0  0
 24 80  1  0  0  0  0
 25 81  1  0  0  0  0
 26 28  2  0  0  0  0
 26 80  1  0  0  0  0
 27 82  1  0  0  0  0
 28 83  1  0  0  0  0
 29 64  2  0  0  0  0
 30 65  1  0  0  0  0
 30 69  1  0  0  0  0
 31 71  1  0  0  0  0
 31 84  1  0  0  0  0
 32 70  1  0  0  0  0
 32 75  2  0  0  0  0
 33 51  1  0  0  0  0
 33 72  1  0  0  0  0
 33 76  2  0  0  0  0
 34 61  1  0  0  0  0
 34 67  1  0  0  0  0
 34 77  2  0  0  0  0
 35 62  1  0  0  0  0
 35 73  1  0  0  0  0
 35 78  2  0  0  0  0
 36 68  1  0  0  0  0
 36 71  1  0  0  0  0
 36 79  2  0  0  0  0
 37 40  1  0  0  0  0
 38 51  1  0  0  0  0
 39 67  1  0  0  0  0
 40 42  1  0  0  0  0
 41 43  1  0  0  0  0
 41 46  1  0  0  0  0
 42 50  1  0  0  0  0
 43 52  1  0  0  0  0
 44 47  1  0  0  0  0
 44 53  1  0  0  0  0
 45 48  1  0  0  0  0
 45 53  1  0  0  0  0
 46 68  1  0  0  0  0
 47 66  1  0  0  0  0
 48 66  1  0  0  0  0
 49 52  1  0  0  0  0
 49 68  1  0  0  0  0
 50 72  1  0  0  0  0
 51 67  1  0  0  0  0
 52 65  1  0  0  0  0
 53 54  1  0  0  0  0
 53 60  1  0  0  0  0
 55 62  1  0  0  0  0
 56 63  1  0  0  0  0
 57 63  1  0  0  0  0
 58 63  1  0  0  0  0
 59 74  1  0  0  0  0
 60 81  1  0  0  0  0
 61 63  1  0  0  0  0
 61 73  1  0  0  0  0
 62 74  1  0  0  0  0
 64 65  1  0  0  0  0
M  CHG  1  74   1
M  ISO  4  36 100  60 101  71 100  81 101
M  END
> <Batch ID>
0147

> <Smiles>
CNC(C)C(=O)NC(C(=O)N1Cc2cc([101O:1][101CH2:1]C3(C)CCN(c4csc([100NH:0][100C:0](=O)N5CCCC(n6nc(-c7ccc(Oc8ccc(F)cc8F)cc7)c(C(N)=O)c6N)C5)c4)CC3)ccc2CC1C(=O)NC1CCCc2ccccc21)C(C)(C)C

> <Shape>
0.217

> <Color>
0.217

> <Negative vol penalty>
0.000

$$$$

  -OEChem-04052303133D

 87 96  0     1  0  0  0  0  0999 V2000
  -31.2449  -24.4482   14.7088 C   0  0  0  0  0  0  0  0  0  0  0  0
  -29.9282  -24.2967   15.1315 C   0  0  0  0  0  0  0  0  0  0  0  0
  -27.6330  -11.3564   20.4882 C   0  0  0  0  0  0  0  0  0  0  0  0
  -28.1254  -11.6828   22.8309 C   0  0  0  0  0  0  0  0  0  0  0  0
  -25.6196  -20.2171   17.4427 C   0  0  0  0  0  0  0  0  0  0  0  0
  -25.8201  -21.9538   19.1103 C   0  0  0  0  0  0  0  0  0  0  0  0
  -32.2062  -24.9421   15.5896 C   0  0  0  0  0  0  0  0  0  0  0  0
  -29.5722  -24.6380   16.4358 C   0  0  0  0  0  0  0  0  0  0  0  0
  -25.2655  -27.2941   16.6423 C   0  0  0  0  0  0  0  0  0  0  0  0
  -26.6267  -19.4907   18.0781 C   0  0  0  0  0  0  0  0  0  0  0  0
  -26.8272  -21.2273   19.7458 C   0  0  0  0  0  0  0  0  0  0  0  0
  -26.6863  -10.3880   20.8221 C   0  0  0  0  0  0  0  0  0  0  0  0
  -27.1786  -10.7143   23.1648 C   0  0  0  0  0  0  0  0  0  0  0  0
  -24.0728  -26.5844   16.5101 C   0  0  0  0  0  0  0  0  0  0  0  0
  -23.5050  -10.3039   21.9645 C   0  0  0  0  0  0  0  0  0  0  0  0
  -22.2701  -10.3545   21.3180 C   0  0  0  0  0  0  0  0  0  0  0  0
  -23.7850  -26.6341   18.9047 C   0  0  0  0  0  0  0  0  0  0  0  0
  -22.6448   -8.1394   20.4291 C   0  0  0  0  0  0  0  0  0  0  0  0
  -28.3526  -12.0038   21.4926 C   0  0  0  0  0  0  0  0  0  0  0  0
  -25.2164  -21.4487   17.9588 C   0  0  0  0  0  0  0  0  0  0  0  0
  -30.4796  -12.8311   20.3530 C   0  0  0  0  0  0  0  0  0  0  0  0
  -31.8598  -25.2988   16.9024 C   0  0  0  0  0  0  0  0  0  0  0  0
  -25.7333  -27.6703   17.9096 C   0  0  0  0  0  0  0  0  0  0  0  0
  -30.5300  -25.1359   17.3355 C   0  0  0  0  0  0  0  0  0  0  0  0
  -24.9827  -27.3507   19.0500 C   0  0  0  0  0  0  0  0  0  0  0  0
  -27.2304  -19.9958   19.2297 C   0  0  0  0  0  0  0  0  0  0  0  0
  -26.4591  -10.0669   22.1604 C   0  0  0  0  0  0  0  0  0  0  0  0
  -23.3338  -26.2518   17.6417 C   0  0  0  0  0  0  0  0  0  0  0  0
  -24.3098   -9.1711   21.8434 C   0  0  0  0  0  0  0  0  0  0  0  0
  -21.8400   -9.2723   20.5503 C   0  0  0  0  0  0  0  0  0  0  0  0
  -23.8797   -8.0889   21.0757 C   0  0  0  0  0  0  0  0  0  0  0  0
  -29.3310  -13.0039   21.1484 C   0  0  0  0  0  0  0  0  0  0  0  0
  -31.0707  -14.0707   20.3294 C   0  0  0  0  0  0  0  0  0  0  0  0
  -24.1524  -22.2164   17.2874 C   0  0  0  0  0  0  0  0  0  0  0  0
  -30.9686  -11.6552   19.6943 C   0  0  0  0  0  0  0  0  0  0  0  0
  -28.3269  -27.0186   19.6277 C   0  0  0  0  0  0  0  0  0  0  0  0
  -27.0746  -29.2334   21.6399 C   0  0  0  0  0  0  0  0  0  0  0  0
  -23.8089  -30.0843   22.9161 C   0  0  0  0  0  0  0  0  0  0  0  0
  -28.9553  -19.6155   21.0259 C   0  0  0  0  0  0  0  0  0  0  0  0
  -32.9433  -25.7838   17.8328 C   0  0  0  0  0  0  0  0  0  0  0  0
  -27.0082  -28.4588   18.0331 C   0  0  0  0  0  0  0  0  0  0  0  0
  -25.4309  -27.7489   20.4317 C   0  0  0  0  0  0  0  0  0  0  0  0
  -32.4074  -26.4749   19.0840 C   0  0  0  0  0  0  0  0  0  0  0  0
  -31.5169  -18.0569   22.9459 C   0  0  0  0  0  0  0  0  0  0  0  0
  -21.7474  -21.7852   19.7752 C   0  0  0  0  0  0  0  0  0  0  0  0
  -31.2799  -25.6562   19.7046 C   0  0  0  0  0  0  0  0  0  0  0  0
  -31.3554  -16.5690   22.6257 C   0  0  0  0  0  0  0  0  0  0  0  0
  -20.5669  -22.5619   19.1870 C   0  0  0  0  0  0  0  0  0  0  0  0
  -22.5275  -21.0561   18.6912 C   0  0  0  0  0  0  0  0  0  0  0  0
  -30.1680  -18.7699   23.0232 C   0  0  0  0  0  0  0  0  0  0  0  0
  -29.1402  -17.1004   21.5314 C   0  0  0  0  0  0  0  0  0  0  0  0
  -21.7891  -22.7603   16.9828 C   0  0  0  0  0  0  0  0  0  0  0  0
  -30.0999  -25.5185   18.7350 C   0  0  1  0  0  0  0  0  0  0  0  0
  -27.6511  -28.3431   19.4118 C   0  0  1  0  0  0  0  0  0  0  0  0
  -30.4751  -16.3531   21.3791 C   0  0  2  0  0  0  0  0  0  0  0  0
  -20.9761  -23.5247   18.0454 C   0  0  1  0  0  0  0  0  0  0  0  0
  -19.7052  -24.0945   17.3912 C   0  0  0  0  0  0  0  0  0  0  0  0
  -22.8966  -32.2743   23.7339 C   0  0  0  0  0  0  0  0  0  0  0  0
  -27.9172  -28.2253   24.3938 C   0  0  0  0  0  0  0  0  0  0  0  0
  -25.8360  -29.2545   25.3304 C   0  0  0  0  0  0  0  0  0  0  0  0
  -27.5618  -30.6967   24.2514 C   0  0  0  0  0  0  0  0  0  0  0  0
  -21.5396  -29.9798   21.0192 C   0  0  0  0  0  0  0  0  0  0  0  0
  -21.8037  -24.7015   18.5963 C   0  0  0  0  0  0  0  0  0  1  0  0
  -26.1233  -29.1969   22.8115 C   0  0  1  0  0  0  0  0  0  0  0  0
  -22.9857  -31.3095   22.5617 C   0  0  2  0  0  0  0  0  0  0  0  0
  -26.8581  -29.3242   24.1758 C   0  0  0  0  0  0  0  0  0  0  0  0
  -29.1984  -14.2547   21.5977 N   0  0  0  0  0  0  0  0  0  0  0  0
  -30.2714  -14.8791   21.0831 N   0  0  0  0  0  0  0  0  0  0  0  0
  -22.8888  -22.0239   17.6399 N   0  0  0  0  0  0  0  0  0  0  0  0
  -26.6873  -28.5133   20.5009 N   0  0  0  0  0  0  0  0  0  0  0  0
  -29.3909  -18.5239   21.8065 N   0  0  0  0  0  0  0  0  0  0  0  0
  -32.1909  -14.5371   19.7379 N   0  0  0  0  0  0  0  0  0  0  0  0
  -31.8479  -10.8156   20.3915 N   0  0  0  0  0  0  0  0  0  0  0  0
  -28.2534  -19.2579   19.8752 N   0  0  0  0  0  0  0  0  0  0  0  0
  -29.3212  -26.7381   18.7101 N   0  0  0  0  0  0  0  0  0  0  0  0
  -25.1335  -30.2403   22.5662 N   0  0  0  0  0  0  0  0  0  0  0  0
  -24.4766  -23.0914   16.3400 N   0  3  0  0  0  0  0  0  0  0  0  0
  -21.6028  -30.9104   22.1755 N   0  3  0  0  0  0  0  0  0  0  0  0
  -30.6484  -11.3665   18.5163 O   0  0  0  0  0  0  0  0  0  0  0  0
  -27.9735  -26.3047   20.5590 O   0  0  0  0  0  0  0  0  0  0  0  0
  -28.1195  -29.8830   21.7294 O   0  0  0  0  0  0  0  0  0  0  0  0
  -23.3261  -29.0898   23.4532 O   0  0  0  0  0  0  0  0  0  0  0  0
  -29.2113  -20.7809   21.3397 O   0  0  0  0  0  0  0  0  0  0  0  0
  -25.5352   -9.1221   22.4866 O   0  0  0  0  0  0  0  0  0  0  0  0
  -22.1696  -25.5585   17.5156 O   0  0  0  0  0  0  0  0  0  1  0  0
  -20.6534   -9.3203   19.9307 F   0  0  0  0  0  0  0  0  0  0  0  0
  -24.6480   -6.9974   20.9566 F   0  0  0  0  0  0  0  0  0  0  0  0
  1  2  1  0  0  0  0
  1  7  2  0  0  0  0
  2  8  2  0  0  0  0
  3 12  2  0  0  0  0
  3 19  1  0  0  0  0
  4 13  1  0  0  0  0
  4 19  2  0  0  0  0
  5 10  2  0  0  0  0
  5 20  1  0  0  0  0
  6 11  1  0  0  0  0
  6 20  2  0  0  0  0
  7 22  1  0  0  0  0
  8 24  1  0  0  0  0
  9 14  2  0  0  0  0
  9 23  1  0  0  0  0
 10 26  1  0  0  0  0
 11 26  2  0  0  0  0
 12 27  1  0  0  0  0
 13 27  2  0  0  0  0
 14 28  1  0  0  0  0
 15 16  2  0  0  0  0
 15 29  1  0  0  0  0
 16 30  1  0  0  0  0
 17 25  1  0  0  0  0
 17 28  2  0  0  0  0
 18 30  2  0  0  0  0
 18 31  1  0  0  0  0
 19 32  1  0  0  0  0
 20 34  1  0  0  0  0
 21 32  1  0  0  0  0
 21 33  2  0  0  0  0
 21 35  1  0  0  0  0
 22 24  2  0  0  0  0
 22 40  1  0  0  0  0
 23 25  2  0  0  0  0
 23 41  1  0  0  0  0
 24 53  1  0  0  0  0
 25 42  1  0  0  0  0
 26 74  1  0  0  0  0
 27 84  1  0  0  0  0
 28 85  1  0  0  0  0
 29 31  2  0  0  0  0
 29 84  1  0  0  0  0
 30 86  1  0  0  0  0
 31 87  1  0  0  0  0
 32 67  2  0  0  0  0
 33 68  1  0  0  0  0
 33 72  1  0  0  0  0
 34 69  1  0  0  0  0
 34 77  2  0  0  0  0
 35 73  1  0  0  0  0
 35 79  2  0  0  0  0
 36 54  1  0  0  0  0
 36 75  1  0  0  0  0
 36 80  2  0  0  0  0
 37 64  1  0  0  0  0
 37 70  1  0  0  0  0
 37 81  2  0  0  0  0
 38 65  1  0  0  0  0
 38 76  1  0  0  0  0
 38 82  2  0  0  0  0
 39 71  1  0  0  0  0
 39 74  1  0  0  0  0
 39 83  2  0  0  0  0
 40 43  1  0  0  0  0
 41 54  1  0  0  0  0
 42 70  1  0  0  0  0
 43 46  1  0  0  0  0
 44 47  1  0  0  0  0
 44 50  1  0  0  0  0
 45 48  1  0  0  0  0
 45 49  1  0  0  0  0
 46 53  1  0  0  0  0
 47 55  1  0  0  0  0
 48 56  1  0  0  0  0
 49 69  1  0  0  0  0
 50 71  1  0  0  0  0
 51 55  1  0  0  0  0
 51 71  1  0  0  0  0
 52 56  1  0  0  0  0
 52 69  1  0  0  0  0
 53 75  1  0  0  0  0
 54 70  1  0  0  0  0
 55 68  1  0  0  0  0
 56 57  1  0  0  0  0
 56 63  1  0  0  0  0
 58 65  1  0  0  0  0
 59 66  1  0  0  0  0
 60 66  1  0  0  0  0
 61 66  1  0  0  0  0
 62 78  1  0  0  0  0
 63 85  1  0  0  0  0
 64 66  1  0  0  0  0
 64 76  1  0  0  0  0
 65 78  1  0  0  0  0
 67 68  1  0  0  0  0
M  CHG  2  77   1  78   1
M  ISO  4  39 100  63 101  74 100  85 101
M  END
> <Batch ID>
0147

> <Smiles>
CNC(C)C(=O)NC(C(=O)N1Cc2cc([101O:1][101CH2:1]C3(C)CCCN(C(=N)c4ccc([100NH:0][100C:0](=O)N5CCCC(n6nc(-c7ccc(Oc8ccc(F)cc8F)cc7)c(C(N)=O)c6N)C5)cc4)C3)ccc2CC1C(=O)NC1CCCc2ccccc21)C(C)(C)C

> <Shape>
0.263

> <Color>
0.071

> <Negative vol penalty>
0.000

$$$$

  -OEChem-04052303133D

 86 95  0     1  0  0  0  0  0999 V2000
  -29.6268  -32.4721   25.8002 C   0  0  0  0  0  0  0  0  0  0  0  0
  -29.3708  -31.3140   25.0732 C   0  0  0  0  0  0  0  0  0  0  0  0
  -24.0908   -8.6304   20.6047 C   0  0  0  0  0  0  0  0  0  0  0  0
  -22.9898  -10.7170   21.1253 C   0  0  0  0  0  0  0  0  0  0  0  0
  -28.5703  -33.1942   26.3538 C   0  0  0  0  0  0  0  0  0  0  0  0
  -28.0581  -30.8767   24.9002 C   0  0  0  0  0  0  0  0  0  0  0  0
  -27.0958  -29.4562   20.1356 C   0  0  0  0  0  0  0  0  0  0  0  0
  -29.4156  -17.9841   20.1505 C   0  0  0  0  0  0  0  0  0  0  0  0
  -23.2172   -7.9565   21.4580 C   0  0  0  0  0  0  0  0  0  0  0  0
  -22.1161  -10.0431   21.9786 C   0  0  0  0  0  0  0  0  0  0  0  0
  -27.5582  -28.2020   19.7393 C   0  0  0  0  0  0  0  0  0  0  0  0
  -20.0347   -6.8175   21.3720 C   0  0  0  0  0  0  0  0  0  0  0  0
  -19.4727   -5.6255   20.9149 C   0  0  0  0  0  0  0  0  0  0  0  0
  -29.2247  -19.3315   19.8651 C   0  0  0  0  0  0  0  0  0  0  0  0
  -25.3486  -27.2908   20.0657 C   0  0  0  0  0  0  0  0  0  0  0  0
  -20.4818   -4.4409   22.7630 C   0  0  0  0  0  0  0  0  0  0  0  0
  -27.1573  -17.8741   20.8886 C   0  0  0  0  0  0  0  0  0  0  0  0
  -23.9772  -10.0106   20.4383 C   0  0  0  0  0  0  0  0  0  0  0  0
  -24.7029  -10.9572   18.1833 C   0  0  0  0  0  0  0  0  0  0  0  0
  -27.2433  -32.7708   26.1793 C   0  0  0  0  0  0  0  0  0  0  0  0
  -25.7565  -29.6350   20.5109 C   0  0  0  0  0  0  0  0  0  0  0  0
  -26.9830  -31.5930   25.4530 C   0  0  0  0  0  0  0  0  0  0  0  0
  -24.8710  -28.5488   20.4638 C   0  0  0  0  0  0  0  0  0  0  0  0
  -28.3672  -17.2345   20.6722 C   0  0  0  0  0  0  0  0  0  0  0  0
  -22.2298   -8.6628   22.1450 C   0  0  0  0  0  0  0  0  0  0  0  0
  -26.6853  -27.1185   19.7071 C   0  0  0  0  0  0  0  0  0  0  0  0
  -20.8204   -6.8212   22.5246 C   0  0  0  0  0  0  0  0  0  0  0  0
  -19.6962   -4.4373   21.6104 C   0  0  0  0  0  0  0  0  0  0  0  0
  -21.0439   -5.6329   23.2201 C   0  0  0  0  0  0  0  0  0  0  0  0
  -24.8797  -10.7074   19.5574 C   0  0  0  0  0  0  0  0  0  0  0  0
  -27.9764  -19.8773   20.1174 C   0  0  0  0  0  0  0  0  0  0  0  0
  -25.8313  -11.6463   17.8116 C   0  0  0  0  0  0  0  0  0  0  0  0
  -23.6157  -10.5984   17.3201 C   0  0  0  0  0  0  0  0  0  0  0  0
  -24.2742  -30.5245   23.1784 C   0  0  0  0  0  0  0  0  0  0  0  0
  -21.6417  -30.4262   21.2856 C   0  0  0  0  0  0  0  0  0  0  0  0
  -20.1261  -29.1806   18.4931 C   0  0  0  0  0  0  0  0  0  0  0  0
  -29.6840  -15.0913   20.8105 C   0  0  0  0  0  0  0  0  0  0  0  0
  -26.1377  -33.5583   26.8364 C   0  0  0  0  0  0  0  0  0  0  0  0
  -25.2671  -31.0001   20.9103 C   0  0  0  0  0  0  0  0  0  0  0  0
  -23.4191  -28.6926   20.8376 C   0  0  0  0  0  0  0  0  0  0  0  0
  -24.7500  -33.2326   26.2899 C   0  0  0  0  0  0  0  0  0  0  0  0
  -30.4548  -12.1540   18.9516 C   0  0  0  0  0  0  0  0  0  0  0  0
  -24.5567  -31.7229   26.1894 C   0  0  0  0  0  0  0  0  0  0  0  0
  -29.0957  -11.4755   18.7657 C   0  0  0  0  0  0  0  0  0  0  0  0
  -27.9927  -23.2310   18.5607 C   0  0  0  0  0  0  0  0  0  0  0  0
  -30.5723  -12.8229   20.3200 C   0  0  0  0  0  0  0  0  0  0  0  0
  -28.5772  -21.8357   18.7384 C   0  0  0  0  0  0  0  0  0  0  0  0
  -28.1259  -13.0740   20.4661 C   0  0  0  0  0  0  0  0  0  0  0  0
  -25.5709  -31.1000   25.2224 C   0  0  1  0  0  0  0  0  0  0  0  0
  -24.0039  -30.9556   21.7646 C   0  0  1  0  0  0  0  0  0  0  0  0
  -27.9361  -12.4418   19.0776 C   0  0  2  0  0  0  0  0  0  0  0  0
  -27.4917  -23.5953   19.9664 C   0  0  1  0  0  0  0  0  0  0  0  0
  -26.8815  -22.2135   20.4608 C   0  0  0  0  0  0  0  0  0  0  0  0
  -28.6929  -24.0712   20.8208 C   0  0  0  0  0  0  0  0  0  0  0  0
  -25.4511  -21.9958   19.9205 C   0  0  0  0  0  0  0  0  0  0  0  0
  -26.8742  -22.1441   21.9972 C   0  0  0  0  0  0  0  0  0  0  0  0
  -17.9594  -29.2536   17.2290 C   0  0  0  0  0  0  0  0  0  0  0  0
  -20.3713  -28.5860   23.3616 C   0  0  0  0  0  0  0  0  0  0  0  0
  -18.6621  -27.9472   21.6473 C   0  0  0  0  0  0  0  0  0  0  0  0
  -18.8300  -30.3141   22.4169 C   0  0  0  0  0  0  0  0  0  0  0  0
  -21.4345  -30.2986   16.0854 C   0  0  0  0  0  0  0  0  0  0  0  0
  -26.4879  -24.7556   19.8912 C   0  0  0  0  0  0  0  0  0  1  0  0
  -20.6304  -29.3685   20.9148 C   0  0  1  0  0  0  0  0  0  0  0  0
  -19.3455  -29.8602   17.3825 C   0  0  2  0  0  0  0  0  0  0  0  0
  -19.6512  -29.0505   22.0799 C   0  0  0  0  0  0  0  0  0  0  0  0
  -26.9341  -19.1809   20.6237 N   0  0  0  0  0  0  0  0  0  0  0  0
  -26.0300  -11.1979   20.0268 N   0  0  0  0  0  0  0  0  0  0  0  0
  -26.5862  -11.7626   18.9415 N   0  0  0  0  0  0  0  0  0  0  0  0
  -27.8020  -21.2222   19.8290 N   0  0  3  0  0  0  0  0  0  0  0  0
  -22.9900  -30.0459   21.2273 N   0  0  0  0  0  0  0  0  0  0  0  0
  -29.4421  -13.7270   20.5441 N   0  0  0  0  0  0  0  0  0  0  0  0
  -26.2415  -12.1580   16.6316 N   0  0  0  0  0  0  0  0  0  0  0  0
  -22.5352   -9.8914   17.8651 N   0  0  0  0  0  0  0  0  0  0  0  0
  -28.5321  -15.8599   20.9741 N   0  0  0  0  0  0  0  0  0  0  0  0
  -25.1706  -31.3326   23.8513 N   0  0  0  0  0  0  0  0  0  0  0  0
  -19.9780  -29.8366   19.6968 N   0  0  0  0  0  0  0  0  0  0  0  0
  -20.0650  -29.7228   16.0847 N   0  3  0  0  0  0  0  0  0  0  0  0
  -23.6104  -10.8815   16.0981 O   0  0  0  0  0  0  0  0  0  0  0  0
  -23.7100  -29.5331   23.6261 O   0  0  0  0  0  0  0  0  0  0  0  0
  -21.2501  -31.5507   21.6079 O   0  0  0  0  0  0  0  0  0  0  0  0
  -20.7968  -28.1668   18.3117 O   0  0  0  0  0  0  0  0  0  0  0  0
  -30.8283  -15.5497   20.8607 O   0  0  0  0  0  0  0  0  0  0  0  0
  -21.3770   -8.0055   22.9776 O   0  0  0  0  0  0  0  0  0  0  0  0
  -27.1342  -25.8931   19.3214 O   0  0  0  0  0  0  0  0  0  1  0  0
  -19.1551   -3.2930   21.1722 F   0  0  0  0  0  0  0  0  0  0  0  0
  -21.7968   -5.6304   24.3287 F   0  0  0  0  0  0  0  0  0  0  0  0
  1  2  1  0  0  0  0
  1  5  2  0  0  0  0
  2  6  2  0  0  0  0
  3  9  2  0  0  0  0
  3 18  1  0  0  0  0
  4 10  1  0  0  0  0
  4 18  2  0  0  0  0
  5 20  1  0  0  0  0
  6 22  1  0  0  0  0
  7 11  2  0  0  0  0
  7 21  1  0  0  0  0
  8 14  2  0  0  0  0
  8 24  1  0  0  0  0
  9 25  1  0  0  0  0
 10 25  2  0  0  0  0
 11 26  1  0  0  0  0
 12 13  2  0  0  0  0
 12 27  1  0  0  0  0
 13 28  1  0  0  0  0
 14 31  1  0  0  0  0
 15 23  1  0  0  0  0
 15 26  2  0  0  0  0
 16 28  2  0  0  0  0
 16 29  1  0  0  0  0
 17 24  2  0  0  0  0
 17 66  1  0  0  0  0
 18 30  1  0  0  0  0
 19 30  1  0  0  0  0
 19 32  2  0  0  0  0
 19 33  1  0  0  0  0
 20 22  2  0  0  0  0
 20 38  1  0  0  0  0
 21 23  2  0  0  0  0
 21 39  1  0  0  0  0
 22 49  1  0  0  0  0
 23 40  1  0  0  0  0
 24 74  1  0  0  0  0
 25 83  1  0  0  0  0
 26 84  1  0  0  0  0
 27 29  2  0  0  0  0
 27 83  1  0  0  0  0
 28 85  1  0  0  0  0
 29 86  1  0  0  0  0
 30 67  2  0  0  0  0
 31 66  2  0  0  0  0
 31 69  1  0  0  0  0
 32 68  1  0  0  0  0
 32 72  1  0  0  0  0
 33 73  1  0  0  0  0
 33 78  2  0  0  0  0
 34 50  1  0  0  0  0
 34 75  1  0  0  0  0
 34 79  2  0  0  0  0
 35 63  1  0  0  0  0
 35 70  1  0  0  0  0
 35 80  2  0  0  0  0
 36 64  1  0  0  0  0
 36 76  1  0  0  0  0
 36 81  2  0  0  0  0
 37 71  1  0  0  0  0
 37 74  1  0  0  0  0
 37 82  2  0  0  0  0
 38 41  1  0  0  0  0
 39 50  1  0  0  0  0
 40 70  1  0  0  0  0
 41 43  1  0  0  0  0
 42 44  1  0  0  0  0
 42 46  1  0  0  0  0
 43 49  1  0  0  0  0
 44 51  1  0  0  0  0
 45 47  1  0  0  0  0
 45 52  1  0  0  0  0
 46 71  1  0  0  0  0
 47 69  1  0  0  0  0
 48 51  1  0  0  0  0
 48 71  1  0  0  0  0
 49 75  1  0  0  0  0
 50 70  1  0  0  0  0
 51 68  1  0  0  0  0
 52 53  1  0  0  0  0
 52 54  1  0  0  0  0
 52 62  1  0  0  0  0
 53 55  1  0  0  0  0
 53 56  1  0  0  0  0
 53 69  1  0  0  0  0
 57 64  1  0  0  0  0
 58 65  1  0  0  0  0
 59 65  1  0  0  0  0
 60 65  1  0  0  0  0
 61 77  1  0  0  0  0
 62 84  1  0  0  0  0
 63 65  1  0  0  0  0
 63 76  1  0  0  0  0
 64 77  1  0  0  0  0
 67 68  1  0  0  0  0
M  CHG  1  77   1
M  ISO  4  37 100  62 101  74 100  84 101
M  END
> <Batch ID>
0147

> <Smiles>
CNC(C)C(=O)NC(C(=O)N1Cc2cc([101O:1][101CH2:1]C3(C)CCN(c4ccc([100NH:0][100C:0](=O)N5CCCC(n6nc(-c7ccc(Oc8ccc(F)cc8F)cc7)c(C(N)=O)c6N)C5)cn4)C3(C)C)ccc2CC1C(=O)NC1CCCc2ccccc21)C(C)(C)C

> <Shape>
0.329

> <Color>
0.095

> <Negative vol penalty>
0.000

$$$$

  -OEChem-04052303133D

 84 93  0     1  0  0  0  0  0999 V2000
  -33.1381  -28.9498   26.6691 C   0  0  0  0  0  0  0  0  0  0  0  0
  -32.8324  -28.5419   25.3746 C   0  0  0  0  0  0  0  0  0  0  0  0
  -23.3019   -9.8446   19.8417 C   0  0  0  0  0  0  0  0  0  0  0  0
  -23.7212   -9.9053   22.2203 C   0  0  0  0  0  0  0  0  0  0  0  0
  -34.2432  -28.4103   27.3261 C   0  0  0  0  0  0  0  0  0  0  0  0
  -33.6324  -27.5951   24.7360 C   0  0  0  0  0  0  0  0  0  0  0  0
  -30.9166  -24.0425   22.3593 C   0  0  0  0  0  0  0  0  0  0  0  0
  -22.5698   -8.6681   20.0007 C   0  0  0  0  0  0  0  0  0  0  0  0
  -22.9890   -8.7288   22.3793 C   0  0  0  0  0  0  0  0  0  0  0  0
  -30.3550  -24.3863   21.1305 C   0  0  0  0  0  0  0  0  0  0  0  0
  -19.7370   -7.8209   22.5230 C   0  0  0  0  0  0  0  0  0  0  0  0
  -18.8204   -7.7667   23.5729 C   0  0  0  0  0  0  0  0  0  0  0  0
  -32.1527  -23.2454   19.9965 C   0  0  0  0  0  0  0  0  0  0  0  0
  -29.1699  -19.6145   16.9118 C   0  0  0  0  0  0  0  0  0  0  0  0
  -20.0080   -5.8842   24.5126 C   0  0  0  0  0  0  0  0  0  0  0  0
  -23.8777  -10.4632   20.9515 C   0  0  0  0  0  0  0  0  0  0  0  0
  -24.1463  -12.9976   20.8404 C   0  0  0  0  0  0  0  0  0  0  0  0
  -35.0515  -27.4493   26.6987 C   0  0  0  0  0  0  0  0  0  0  0  0
  -32.1083  -23.3056   22.4161 C   0  0  0  0  0  0  0  0  0  0  0  0
  -34.7502  -27.0432   25.3847 C   0  0  0  0  0  0  0  0  0  0  0  0
  -32.7260  -22.8913   21.2274 C   0  0  0  0  0  0  0  0  0  0  0  0
  -29.1459  -18.2325   17.1873 C   0  0  0  0  0  0  0  0  0  0  0  0
  -22.4133   -8.1102   21.2695 C   0  0  0  0  0  0  0  0  0  0  0  0
  -30.9746  -23.9902   19.9488 C   0  0  0  0  0  0  0  0  0  0  0  0
  -20.7891   -6.9067   22.4678 C   0  0  0  0  0  0  0  0  0  0  0  0
  -18.9558   -6.7984   24.5678 C   0  0  0  0  0  0  0  0  0  0  0  0
  -20.9246   -5.9384   23.4626 C   0  0  0  0  0  0  0  0  0  0  0  0
  -24.6346  -11.6783   20.7878 C   0  0  0  0  0  0  0  0  0  0  0  0
  -28.4390  -17.9430   18.3179 C   0  0  0  0  0  0  0  0  0  0  0  0
  -25.2531  -13.7822   20.6261 C   0  0  0  0  0  0  0  0  0  0  0  0
  -28.4586  -20.3148   17.8736 C   0  0  0  0  0  0  0  0  0  0  0  0
  -22.8115  -13.4716   21.0631 C   0  0  0  0  0  0  0  0  0  0  0  0
  -35.0254  -23.8426   23.5589 C   0  0  0  0  0  0  0  0  0  0  0  0
  -35.4887  -20.7337   22.7574 C   0  0  0  0  0  0  0  0  0  0  0  0
  -34.5706  -18.0707   20.8306 C   0  0  0  0  0  0  0  0  0  0  0  0
  -29.8604  -14.7038   17.5208 C   0  0  0  0  0  0  0  0  0  0  0  0
  -36.2631  -26.9297   27.4314 C   0  0  0  0  0  0  0  0  0  0  0  0
  -32.6870  -22.9199   23.7498 C   0  0  0  0  0  0  0  0  0  0  0  0
  -33.9959  -22.0815   21.2341 C   0  0  0  0  0  0  0  0  0  0  0  0
  -29.6964  -17.0108   16.5737 C   0  0  0  0  0  0  0  0  0  0  0  0
  -28.3821  -16.5043   18.6309 C   0  0  0  0  0  0  0  0  0  0  0  0
  -36.8420  -25.6546   26.8237 C   0  0  0  0  0  0  0  0  0  0  0  0
  -30.1716  -12.6030   20.5166 C   0  0  0  0  0  0  0  0  0  0  0  0
  -36.9566  -25.7897   25.3086 C   0  0  0  0  0  0  0  0  0  0  0  0
  -28.7152  -12.2494   20.8258 C   0  0  0  0  0  0  0  0  0  0  0  0
  -30.4042  -12.8209   19.0229 C   0  0  0  0  0  0  0  0  0  0  0  0
  -28.0369  -13.4212   18.7007 C   0  0  0  0  0  0  0  0  0  0  0  0
  -35.5795  -26.0000   24.6677 C   0  0  1  0  0  0  0  0  0  0  0  0
  -34.1789  -22.6077   23.6860 C   0  0  1  0  0  0  0  0  0  0  0  0
  -27.7474  -13.2722   20.2001 C   0  0  1  0  0  0  0  0  0  0  0  0
  -35.1582  -15.6742   20.3739 C   0  0  0  0  0  0  0  0  0  0  0  0
  -37.9290  -21.6381   21.1646 C   0  0  0  0  0  0  0  0  0  0  0  0
  -37.9004  -19.4238   19.9966 C   0  0  0  0  0  0  0  0  0  0  0  0
  -38.2552  -19.5261   22.4637 C   0  0  0  0  0  0  0  0  0  0  0  0
  -29.0854  -24.9808   16.2305 C   0  0  0  0  0  0  0  0  0  0  0  0
  -26.9348  -24.2818   17.2959 C   0  0  0  0  0  0  0  0  0  0  0  0
  -31.8904  -17.1335   21.6655 C   0  0  0  0  0  0  0  0  0  0  0  0
  -28.8079  -22.6042   16.9450 C   0  0  0  0  0  0  0  0  0  0  0  0
  -29.0106  -24.4652   18.6946 C   0  0  0  0  0  0  0  0  0  1  0  0
  -35.9593  -20.0072   21.5206 C   0  0  1  0  0  0  0  0  0  0  0  0
  -34.2873  -16.6218   21.1840 C   0  0  2  0  0  0  0  0  0  0  0  0
  -37.4881  -20.1657   21.2859 C   0  0  0  0  0  0  0  0  0  0  0  0
  -28.4599  -24.0688   17.3064 C   0  0  0  0  0  0  0  0  0  0  0  0
  -25.9492  -11.6239   20.5579 N   0  0  0  0  0  0  0  0  0  0  0  0
  -26.2963  -12.9188   20.4642 N   0  0  0  0  0  0  0  0  0  0  0  0
  -34.5262  -21.7346   22.5630 N   0  0  0  0  0  0  0  0  0  0  0  0
  -29.2444  -15.9601   17.5337 N   0  0  0  0  0  0  0  0  0  0  0  0
  -29.4413  -13.7786   18.4818 N   0  0  0  0  0  0  0  0  0  0  0  0
  -25.4259  -15.1195   20.5623 N   0  0  0  0  0  0  0  0  0  0  0  0
  -21.7933  -12.5301   21.2658 N   0  0  0  0  0  0  0  0  0  0  0  0
  -28.2746  -21.6583   17.9209 N   0  0  0  0  0  0  0  0  0  0  0  0
  -34.8608  -24.7462   24.5913 N   0  0  0  0  0  0  0  0  0  0  0  0
  -35.5173  -18.6246   21.6663 N   0  0  0  0  0  0  0  0  0  0  0  0
  -32.8588  -16.2930   20.9154 N   0  3  0  0  0  0  0  0  0  0  0  0
  -22.5273  -14.6934   21.0654 O   0  0  0  0  0  0  0  0  0  0  0  0
  -35.7736  -23.9658   22.5963 O   0  0  0  0  0  0  0  0  0  0  0  0
  -35.9525  -20.4197   23.8565 O   0  0  0  0  0  0  0  0  0  0  0  0
  -34.0111  -18.6519   19.9034 O   0  0  0  0  0  0  0  0  0  0  0  0
  -30.7748  -14.4418   16.7293 O   0  0  0  0  0  0  0  0  0  0  0  0
  -21.6987   -6.9622   21.4251 O   0  0  0  0  0  0  0  0  0  0  0  0
  -30.4250  -24.3274   18.7395 O   0  0  0  0  0  0  0  0  0  1  0  0
  -18.0764   -6.7475   25.5768 F   0  0  0  0  0  0  0  0  0  0  0  0
  -21.9340   -5.0582   23.4156 F   0  0  0  0  0  0  0  0  0  0  0  0
  -27.7849  -19.2765   19.0840 S   0  0  0  0  0  0  0  0  0  0  0  0
  1  2  1  0  0  0  0
  1  5  2  0  0  0  0
  2  6  2  0  0  0  0
  3  8  2  0  0  0  0
  3 16  1  0  0  0  0
  4  9  1  0  0  0  0
  4 16  2  0  0  0  0
  5 18  1  0  0  0  0
  6 20  1  0  0  0  0
  7 10  2  0  0  0  0
  7 19  1  0  0  0  0
  8 23  1  0  0  0  0
  9 23  2  0  0  0  0
 10 24  1  0  0  0  0
 11 12  2  0  0  0  0
 11 25  1  0  0  0  0
 12 26  1  0  0  0  0
 13 21  1  0  0  0  0
 13 24  2  0  0  0  0
 14 22  1  0  0  0  0
 14 31  2  0  0  0  0
 15 26  2  0  0  0  0
 15 27  1  0  0  0  0
 16 28  1  0  0  0  0
 17 28  1  0  0  0  0
 17 30  2  0  0  0  0
 17 32  1  0  0  0  0
 18 20  2  0  0  0  0
 18 37  1  0  0  0  0
 19 21  2  0  0  0  0
 19 38  1  0  0  0  0
 20 48  1  0  0  0  0
 21 39  1  0  0  0  0
 22 29  2  0  0  0  0
 22 40  1  0  0  0  0
 23 80  1  0  0  0  0
 24 81  1  0  0  0  0
 25 27  2  0  0  0  0
 25 80  1  0  0  0  0
 26 82  1  0  0  0  0
 27 83  1  0  0  0  0
 28 64  2  0  0  0  0
 29 41  1  0  0  0  0
 29 84  1  0  0  0  0
 30 65  1  0  0  0  0
 30 69  1  0  0  0  0
 31 71  1  0  0  0  0
 31 84  1  0  0  0  0
 32 70  1  0  0  0  0
 32 75  2  0  0  0  0
 33 49  1  0  0  0  0
 33 72  1  0  0  0  0
 33 76  2  0  0  0  0
 34 60  1  0  0  0  0
 34 66  1  0  0  0  0
 34 77  2  0  0  0  0
 35 61  1  0  0  0  0
 35 73  1  0  0  0  0
 35 78  2  0  0  0  0
 36 67  1  0  0  0  0
 36 68  1  0  0  0  0
 36 79  2  0  0  0  0
 37 42  1  0  0  0  0
 38 49  1  0  0  0  0
 39 66  1  0  0  0  0
 40 67  1  0  0  0  0
 41 67  1  0  0  0  0
 42 44  1  0  0  0  0
 43 45  1  0  0  0  0
 43 46  1  0  0  0  0
 44 48  1  0  0  0  0
 45 50  1  0  0  0  0
 46 68  1  0  0  0  0
 47 50  1  0  0  0  0
 47 68  1  0  0  0  0
 48 72  1  0  0  0  0
 49 66  1  0  0  0  0
 50 65  1  0  0  0  0
 51 61  1  0  0  0  0
 52 62  1  0  0  0  0
 53 62  1  0  0  0  0
 54 62  1  0  0  0  0
 55 63  1  0  0  0  0
 56 63  1  0  0  0  0
 57 74  1  0  0  0  0
 58 63  1  0  0  0  0
 58 71  1  0  0  0  0
 59 63  1  0  0  0  0
 59 81  1  0  0  0  0
 60 62  1  0  0  0  0
 60 73  1  0  0  0  0
 61 74  1  0  0  0  0
 64 65  1  0  0  0  0
M  CHG  1  74   1
M  ISO  4  36 100  59 101  67 100  81 101
M  END
> <Batch ID>
0147

> <Smiles>
CNC(C)C(=O)NC(C(=O)N1Cc2cc([101O:1][101CH2:1]C(C)(C)CNc3cc4c(s3)C[100N:0]([100C:0](=O)N3CCCC(n5nc(-c6ccc(Oc7ccc(F)cc7F)cc6)c(C(N)=O)c5N)C3)C4)ccc2CC1C(=O)NC1CCCc2ccccc21)C(C)(C)C

> <Shape>
0.185

> <Color>
0.176

> <Negative vol penalty>
0.000

$$$$

  -OEChem-04052303133D

 85 94  0     1  0  0  0  0  0999 V2000
  -29.9113  -34.8370   25.6264 C   0  0  0  0  0  0  0  0  0  0  0  0
  -29.5023  -33.5152   25.4823 C   0  0  0  0  0  0  0  0  0  0  0  0
  -23.7808   -9.5764   20.9242 C   0  0  0  0  0  0  0  0  0  0  0  0
  -24.2522  -10.4043   23.1444 C   0  0  0  0  0  0  0  0  0  0  0  0
  -28.9726  -35.8663   25.5687 C   0  0  0  0  0  0  0  0  0  0  0  0
  -28.1539  -33.2217   25.2816 C   0  0  0  0  0  0  0  0  0  0  0  0
  -27.4356  -29.7907   21.6268 C   0  0  0  0  0  0  0  0  0  0  0  0
  -23.2429   -8.4121   21.4726 C   0  0  0  0  0  0  0  0  0  0  0  0
  -23.7143   -9.2400   23.6928 C   0  0  0  0  0  0  0  0  0  0  0  0
  -27.6704  -28.4555   21.9519 C   0  0  0  0  0  0  0  0  0  0  0  0
  -20.3478   -7.4531   22.9326 C   0  0  0  0  0  0  0  0  0  0  0  0
  -19.1388   -6.9904   22.4131 C   0  0  0  0  0  0  0  0  0  0  0  0
  -30.4063  -20.5121   20.9904 C   0  0  0  0  0  0  0  0  0  0  0  0
  -30.6342  -19.1279   20.7410 C   0  0  0  0  0  0  0  0  0  0  0  0
  -25.2988  -28.1124   22.2296 C   0  0  0  0  0  0  0  0  0  0  0  0
  -20.2045   -4.9167   21.7798 C   0  0  0  0  0  0  0  0  0  0  0  0
  -24.2855  -10.5725   21.7601 C   0  0  0  0  0  0  0  0  0  0  0  0
  -24.1582  -12.9688   20.8945 C   0  0  0  0  0  0  0  0  0  0  0  0
  -27.6134  -35.5859   25.3575 C   0  0  0  0  0  0  0  0  0  0  0  0
  -26.1293  -30.3004   21.6113 C   0  0  0  0  0  0  0  0  0  0  0  0
  -27.1959  -34.2481   25.2224 C   0  0  0  0  0  0  0  0  0  0  0  0
  -25.0499  -29.4538   21.9015 C   0  0  0  0  0  0  0  0  0  0  0  0
  -23.2096   -8.2439   22.8569 C   0  0  0  0  0  0  0  0  0  0  0  0
  -26.6022  -27.6168   22.2562 C   0  0  0  0  0  0  0  0  0  0  0  0
  -21.4852   -6.6476   22.8755 C   0  0  0  0  0  0  0  0  0  0  0  0
  -19.0671   -5.7222   21.8368 C   0  0  0  0  0  0  0  0  0  0  0  0
  -21.4135   -5.3794   22.2992 C   0  0  0  0  0  0  0  0  0  0  0  0
  -24.8418  -11.7752   21.1943 C   0  0  0  0  0  0  0  0  0  0  0  0
  -25.1249  -13.7983   20.3808 C   0  0  0  0  0  0  0  0  0  0  0  0
  -29.1495  -20.7454   21.5036 C   0  0  0  0  0  0  0  0  0  0  0  0
  -29.5427  -18.3558   21.0735 C   0  0  0  0  0  0  0  0  0  0  0  0
  -22.7733  -13.2982   21.0652 C   0  0  0  0  0  0  0  0  0  0  0  0
  -24.5846  -32.5620   23.2245 C   0  0  0  0  0  0  0  0  0  0  0  0
  -22.2059  -31.8900   21.1240 C   0  0  0  0  0  0  0  0  0  0  0  0
  -20.7743  -29.6448   18.9894 C   0  0  0  0  0  0  0  0  0  0  0  0
  -30.2385  -15.9964   20.5299 C   0  0  0  0  0  0  0  0  0  0  0  0
  -26.6291  -36.7287   25.3499 C   0  0  0  0  0  0  0  0  0  0  0  0
  -25.8907  -31.7364   21.2324 C   0  0  0  0  0  0  0  0  0  0  0  0
  -23.6270  -29.9469   21.8791 C   0  0  0  0  0  0  0  0  0  0  0  0
  -25.2707  -36.3586   24.7598 C   0  0  0  0  0  0  0  0  0  0  0  0
  -29.8824  -12.8241   18.9530 C   0  0  0  0  0  0  0  0  0  0  0  0
  -24.7835  -35.0315   25.3327 C   0  0  0  0  0  0  0  0  0  0  0  0
  -28.4831  -12.3666   19.3709 C   0  0  0  0  0  0  0  0  0  0  0  0
  -27.4224  -23.5442   23.1933 C   0  0  0  0  0  0  0  0  0  0  0  0
  -30.5913  -13.5788   20.0762 C   0  0  0  0  0  0  0  0  0  0  0  0
  -27.6247  -22.0565   22.9369 C   0  0  0  0  0  0  0  0  0  0  0  0
  -28.4340  -14.2430   21.0631 C   0  0  0  0  0  0  0  0  0  0  0  0
  -25.7456  -33.8912   24.9784 C   0  0  1  0  0  0  0  0  0  0  0  0
  -24.5613  -32.2777   21.7493 C   0  0  1  0  0  0  0  0  0  0  0  0
  -27.6556  -13.5345   19.9425 C   0  0  2  0  0  0  0  0  0  0  0  0
  -27.6885  -24.1870   21.8236 C   0  0  1  0  0  0  0  0  0  0  0  0
  -28.9192  -23.3298   21.2974 C   0  0  0  0  0  0  0  0  0  0  0  0
  -26.4223  -24.0387   20.9439 C   0  0  0  0  0  0  0  0  0  0  0  0
  -30.2567  -23.8332   21.8828 C   0  0  0  0  0  0  0  0  0  0  0  0
  -28.9798  -23.3571   19.7609 C   0  0  0  0  0  0  0  0  0  0  0  0
  -18.8167  -29.3681   17.4439 C   0  0  0  0  0  0  0  0  0  0  0  0
  -20.3702  -31.4798   23.5265 C   0  0  0  0  0  0  0  0  0  0  0  0
  -18.7596  -30.3101   22.0080 C   0  0  0  0  0  0  0  0  0  0  0  0
  -19.3265  -32.7071   21.6137 C   0  0  0  0  0  0  0  0  0  0  0  0
  -22.5342  -29.2648   16.6405 C   0  0  0  0  0  0  0  0  0  0  0  0
  -27.9680  -25.6889   21.9842 C   0  0  0  0  0  0  0  0  0  1  0  0
  -21.0446  -30.9259   21.0966 C   0  0  1  0  0  0  0  0  0  0  0  0
  -20.2732  -29.7887   17.5637 C   0  0  2  0  0  0  0  0  0  0  0  0
  -19.9021  -31.3466   22.0636 C   0  0  0  0  0  0  0  0  0  0  0  0
  -26.1422  -11.8368   20.8957 N   0  0  0  0  0  0  0  0  0  0  0  0
  -26.2835  -13.0790   20.4029 N   0  0  0  0  0  0  0  0  0  0  0  0
  -28.6172  -21.9771   21.8528 N   0  0  3  0  0  0  0  0  0  0  0  0
  -23.4456  -31.3603   21.5089 N   0  0  0  0  0  0  0  0  0  0  0  0
  -29.7498  -14.6733   20.5651 N   0  0  0  0  0  0  0  0  0  0  0  0
  -25.0884  -15.0655   19.9168 N   0  0  0  0  0  0  0  0  0  0  0  0
  -21.9180  -12.3293   21.6074 N   0  0  0  0  0  0  0  0  0  0  0  0
  -29.3377  -16.9563   20.9900 N   0  0  0  0  0  0  0  0  0  0  0  0
  -25.5507  -33.4732   23.6067 N   0  0  0  0  0  0  0  0  0  0  0  0
  -20.6362  -30.8183   19.7002 N   0  0  0  0  0  0  0  0  0  0  0  0
  -21.0838  -28.9435   16.6420 N   0  3  0  0  0  0  0  0  0  0  0  0
  -22.3049  -14.4129   20.7313 O   0  0  0  0  0  0  0  0  0  0  0  0
  -23.7844  -31.9978   23.9613 O   0  0  0  0  0  0  0  0  0  0  0  0
  -22.0213  -33.0682   20.8084 O   0  0  0  0  0  0  0  0  0  0  0  0
  -21.2381  -28.5953   19.4297 O   0  0  0  0  0  0  0  0  0  0  0  0
  -31.3626  -16.2618   20.0962 O   0  0  0  0  0  0  0  0  0  0  0  0
  -22.6846   -7.1081   23.3923 O   0  0  0  0  0  0  0  0  0  0  0  0
  -26.8286  -26.3132   22.5745 O   0  0  0  0  0  0  0  0  0  1  0  0
  -17.9056   -5.2774   21.3394 F   0  0  0  0  0  0  0  0  0  0  0  0
  -22.5026   -4.6006   22.2426 F   0  0  0  0  0  0  0  0  0  0  0  0
  -28.2502  -19.2992   21.6832 S   0  0  0  0  0  0  0  0  0  0  0  0
  1  2  1  0  0  0  0
  1  5  2  0  0  0  0
  2  6  2  0  0  0  0
  3  8  2  0  0  0  0
  3 17  1  0  0  0  0
  4  9  1  0  0  0  0
  4 17  2  0  0  0  0
  5 19  1  0  0  0  0
  6 21  1  0  0  0  0
  7 10  2  0  0  0  0
  7 20  1  0  0  0  0
  8 23  1  0  0  0  0
  9 23  2  0  0  0  0
 10 24  1  0  0  0  0
 11 12  2  0  0  0  0
 11 25  1  0  0  0  0
 12 26  1  0  0  0  0
 13 14  1  0  0  0  0
 13 30  2  0  0  0  0
 14 31  2  0  0  0  0
 15 22  1  0  0  0  0
 15 24  2  0  0  0  0
 16 26  2  0  0  0  0
 16 27  1  0  0  0  0
 17 28  1  0  0  0  0
 18 28  1  0  0  0  0
 18 29  2  0  0  0  0
 18 32  1  0  0  0  0
 19 21  2  0  0  0  0
 19 37  1  0  0  0  0
 20 22  2  0  0  0  0
 20 38  1  0  0  0  0
 21 48  1  0  0  0  0
 22 39  1  0  0  0  0
 23 81  1  0  0  0  0
 24 82  1  0  0  0  0
 25 27  2  0  0  0  0
 25 81  1  0  0  0  0
 26 83  1  0  0  0  0
 27 84  1  0  0  0  0
 28 65  2  0  0  0  0
 29 66  1  0  0  0  0
 29 70  1  0  0  0  0
 30 67  1  0  0  0  0
 30 85  1  0  0  0  0
 31 72  1  0  0  0  0
 31 85  1  0  0  0  0
 32 71  1  0  0  0  0
 32 76  2  0  0  0  0
 33 49  1  0  0  0  0
 33 73  1  0  0  0  0
 33 77  2  0  0  0  0
 34 62  1  0  0  0  0
 34 68  1  0  0  0  0
 34 78  2  0  0  0  0
 35 63  1  0  0  0  0
 35 74  1  0  0  0  0
 35 79  2  0  0  0  0
 36 69  1  0  0  0  0
 36 72  1  0  0  0  0
 36 80  2  0  0  0  0
 37 40  1  0  0  0  0
 38 49  1  0  0  0  0
 39 68  1  0  0  0  0
 40 42  1  0  0  0  0
 41 43  1  0  0  0  0
 41 45  1  0  0  0  0
 42 48  1  0  0  0  0
 43 50  1  0  0  0  0
 44 46  1  0  0  0  0
 44 51  1  0  0  0  0
 45 69  1  0  0  0  0
 46 67  1  0  0  0  0
 47 50  1  0  0  0  0
 47 69  1  0  0  0  0
 48 73  1  0  0  0  0
 49 68  1  0  0  0  0
 50 66  1  0  0  0  0
 51 52  1  0  0  0  0
 51 53  1  0  0  0  0
 51 61  1  0  0  0  0
 52 54  1  0  0  0  0
 52 55  1  0  0  0  0
 52 67  1  0  0  0  0
 56 63  1  0  0  0  0
 57 64  1  0  0  0  0
 58 64  1  0  0  0  0
 59 64  1  0  0  0  0
 60 75  1  0  0  0  0
 61 82  1  0  0  0  0
 62 64  1  0  0  0  0
 62 74  1  0  0  0  0
 63 75  1  0  0  0  0
 65 66  1  0  0  0  0
M  CHG  1  75   1
M  ISO  4  36 100  61 101  72 100  82 101
M  END
> <Batch ID>
0147

> <Smiles>
CNC(C)C(=O)NC(C(=O)N1Cc2cc([101O:1][101CH2:1]C3(C)CCN(c4ccc([100NH:0][100C:0](=O)N5CCCC(n6nc(-c7ccc(Oc8ccc(F)cc8F)cc7)c(C(N)=O)c6N)C5)s4)C3(C)C)ccc2CC1C(=O)NC1CCCc2ccccc21)C(C)(C)C

> <Shape>
0.308

> <Color>
0.156

> <Negative vol penalty>
0.000

$$$$

  -OEChem-04052303133D

 88 97  0     1  0  0  0  0  0999 V2000
  -17.5412  -25.8363   20.1263 C   0  0  0  0  0  0  0  0  0  0  0  0
  -18.7103  -26.2637   19.5050 C   0  0  0  0  0  0  0  0  0  0  0  0
  -26.0916  -12.9640   21.7089 C   0  0  0  0  0  0  0  0  0  0  0  0
  -25.2196  -14.1216   19.7758 C   0  0  0  0  0  0  0  0  0  0  0  0
  -17.2850  -26.1946   21.4491 C   0  0  0  0  0  0  0  0  0  0  0  0
  -19.6234  -27.0507   20.2060 C   0  0  0  0  0  0  0  0  0  0  0  0
  -25.7246  -26.9600   19.6836 C   0  0  0  0  0  0  0  0  0  0  0  0
  -24.9798  -12.1216   21.7059 C   0  0  0  0  0  0  0  0  0  0  0  0
  -24.1079  -13.2791   19.7728 C   0  0  0  0  0  0  0  0  0  0  0  0
  -26.6179  -27.7670   18.9805 C   0  0  0  0  0  0  0  0  0  0  0  0
  -23.9184   -9.4038   19.9973 C   0  0  0  0  0  0  0  0  0  0  0  0
  -24.1400   -8.0374   20.1687 C   0  0  0  0  0  0  0  0  0  0  0  0
  -30.9720  -24.8663   17.3732 C   0  0  0  0  0  0  0  0  0  0  0  0
  -26.9896  -29.0789   20.9704 C   0  0  0  0  0  0  0  0  0  0  0  0
  -32.1390  -23.3601   15.8879 C   0  0  0  0  0  0  0  0  0  0  0  0
  -32.4488  -25.7468   15.6759 C   0  0  0  0  0  0  0  0  0  0  0  0
  -22.7703   -8.0649   22.1587 C   0  0  0  0  0  0  0  0  0  0  0  0
  -26.2115  -13.9640   20.7438 C   0  0  0  0  0  0  0  0  0  0  0  0
  -28.5804  -14.6341   20.0754 C   0  0  0  0  0  0  0  0  0  0  0  0
  -18.2000  -26.9783   22.1697 C   0  0  0  0  0  0  0  0  0  0  0  0
  -25.4483  -27.2134   21.0349 C   0  0  0  0  0  0  0  0  0  0  0  0
  -19.3786  -27.4209   21.5393 C   0  0  0  0  0  0  0  0  0  0  0  0
  -31.2577  -23.5687   16.9487 C   0  0  0  0  0  0  0  0  0  0  0  0
  -26.0943  -28.2720   21.6892 C   0  0  0  0  0  0  0  0  0  0  0  0
  -31.5675  -25.9554   16.7367 C   0  0  0  0  0  0  0  0  0  0  0  0
  -23.9880  -12.2792   20.7379 C   0  0  0  0  0  0  0  0  0  0  0  0
  -27.2484  -28.8285   19.6231 C   0  0  0  0  0  0  0  0  0  0  0  0
  -23.1228  -10.1008   20.9066 C   0  0  0  0  0  0  0  0  0  0  0  0
  -23.5659   -7.3679   21.2494 C   0  0  0  0  0  0  0  0  0  0  0  0
  -32.7346  -24.4491   15.2514 C   0  0  0  0  0  0  0  0  0  0  0  0
  -22.5487   -9.4314   21.9873 C   0  0  0  0  0  0  0  0  0  0  0  0
  -27.3594  -14.8349   20.7467 C   0  0  0  0  0  0  0  0  0  0  0  0
  -29.3335  -15.7373   20.3953 C   0  0  0  0  0  0  0  0  0  0  0  0
  -28.9966  -13.5476   19.2376 C   0  0  0  0  0  0  0  0  0  0  0  0
  -22.8450  -27.9910   22.6846 C   0  0  0  0  0  0  0  0  0  0  0  0
  -24.8163  -27.6012   25.2310 C   0  0  0  0  0  0  0  0  0  0  0  0
  -30.4302  -27.6599   18.2014 C   0  0  0  0  0  0  0  0  0  0  0  0
  -28.0039  -27.5729   26.4497 C   0  0  0  0  0  0  0  0  0  0  0  0
  -29.7875  -21.2526   21.0826 C   0  0  0  0  0  0  0  0  0  0  0  0
  -17.8572  -27.3798   23.5825 C   0  0  0  0  0  0  0  0  0  0  0  0
  -24.5025  -26.3172   21.7863 C   0  0  0  0  0  0  0  0  0  0  0  0
  -25.8476  -28.5738   23.1440 C   0  0  0  0  0  0  0  0  0  0  0  0
  -19.0529  -27.9031   24.3741 C   0  0  0  0  0  0  0  0  0  0  0  0
  -28.6040  -19.3608   23.8218 C   0  0  0  0  0  0  0  0  0  0  0  0
  -19.8444  -28.9083   23.5434 C   0  0  0  0  0  0  0  0  0  0  0  0
  -28.2405  -18.0081   23.2158 C   0  0  0  0  0  0  0  0  0  0  0  0
  -29.0759  -22.3480   17.6551 C   0  0  0  0  0  0  0  0  0  0  0  0
  -28.2557  -20.4932   22.8651 C   0  0  0  0  0  0  0  0  0  0  0  0
  -28.7707  -21.3152   18.7317 C   0  0  0  0  0  0  0  0  0  0  0  0
  -30.9299  -22.2724   19.1366 C   0  0  0  0  0  0  0  0  0  0  0  0
  -28.5931  -19.0156   20.9021 C   0  0  0  0  0  0  0  0  0  0  0  0
  -30.6126  -22.3873   17.6390 C   0  0  2  0  0  0  0  0  0  0  0  0
  -20.4052  -28.2551   22.2743 C   0  0  1  0  0  0  0  0  0  0  0  0
  -23.9053  -26.9816   23.0229 C   0  0  1  0  0  0  0  0  0  0  0  0
  -28.9065  -17.8333   21.8422 C   0  0  2  0  0  0  0  0  0  0  0  0
  -29.2964  -27.2622   28.5781 C   0  0  0  0  0  0  0  0  0  0  0  0
  -29.7811  -31.1099   19.8200 C   0  0  0  0  0  0  0  0  0  0  0  0
  -24.0014  -30.4003   26.1316 C   0  0  0  0  0  0  0  0  0  0  0  0
  -25.9781  -30.4058   27.6680 C   0  0  0  0  0  0  0  0  0  0  0  0
  -24.1669  -28.7182   27.9749 C   0  0  0  0  0  0  0  0  0  0  0  0
  -29.4471  -25.2268   25.3671 C   0  0  0  0  0  0  0  0  0  0  0  0
  -30.4052  -29.1800   18.3292 C   0  0  0  0  0  0  0  0  0  0  0  0
  -25.7448  -28.4998   26.0116 C   0  0  1  0  0  0  0  0  0  0  0  0
  -28.7333  -26.5827   27.3396 C   0  0  2  0  0  0  0  0  0  0  0  0
  -29.4628  -29.6733   19.4272 C   0  0  2  0  0  0  0  0  0  1  0  0
  -24.9762  -29.5018   26.9186 C   0  0  0  0  0  0  0  0  0  0  0  0
  -27.3340  -15.9758   21.4407 N   0  0  0  0  0  0  0  0  0  0  0  0
  -28.5485  -16.5018   21.2073 N   0  0  0  0  0  0  0  0  0  0  0  0
  -24.9096  -27.6728   23.8339 N   0  0  0  0  0  0  0  0  0  0  0  0
  -28.8719  -20.3036   21.5506 N   0  0  0  0  0  0  0  0  0  0  0  0
  -29.8452  -21.4808   19.7083 N   0  0  0  0  0  0  0  0  0  0  0  0
  -30.5840  -16.1182   20.0584 N   0  0  0  0  0  0  0  0  0  0  0  0
  -28.0988  -12.4950   19.0132 N   0  0  0  0  0  0  0  0  0  0  0  0
  -31.2817  -27.2535   17.1609 N   0  0  0  0  0  0  0  0  0  0  0  0
  -21.5728  -27.4601   22.5887 N   0  0  0  0  0  0  0  0  0  0  0  0
  -26.6553  -27.6176   26.7335 N   0  0  0  0  0  0  0  0  0  0  0  0
  -29.8602  -25.9510   26.5967 N   0  3  0  0  0  0  0  0  0  0  0  0
  -30.1371  -13.5032   18.7171 O   0  0  0  0  0  0  0  0  0  0  0  0
  -23.1577  -29.1649   22.5239 O   0  0  0  0  0  0  0  0  0  0  0  0
  -24.0418  -26.8578   25.8386 O   0  0  0  0  0  0  0  0  0  0  0  0
  -29.7733  -26.9313   18.9375 O   0  0  0  0  0  0  0  0  0  0  0  0
  -28.5741  -28.2426   25.5913 O   0  0  0  0  0  0  0  0  0  0  0  0
  -30.4968  -21.9012   21.8637 O   0  0  0  0  0  0  0  0  0  0  0  0
  -22.9031  -11.4572   20.7346 O   0  0  0  0  0  0  0  0  0  0  0  0
  -28.1251  -29.6226   18.9351 O   0  0  0  0  0  0  0  0  0  1  0  0
  -23.7775   -6.0554   21.4130 F   0  0  0  0  0  0  0  0  0  0  0  0
  -33.5809  -24.2487   14.2327 F   0  0  0  0  0  0  0  0  0  0  0  0
  -21.7825  -10.0954   22.8635 F   0  0  0  0  0  0  0  0  0  0  0  0
  1  2  1  0  0  0  0
  1  5  2  0  0  0  0
  2  6  2  0  0  0  0
  3  8  2  0  0  0  0
  3 18  1  0  0  0  0
  4  9  1  0  0  0  0
  4 18  2  0  0  0  0
  5 20  1  0  0  0  0
  6 22  1  0  0  0  0
  7 10  2  0  0  0  0
  7 21  1  0  0  0  0
  8 26  1  0  0  0  0
  9 26  2  0  0  0  0
 10 27  1  0  0  0  0
 11 12  2  0  0  0  0
 11 28  1  0  0  0  0
 12 29  1  0  0  0  0
 13 23  1  0  0  0  0
 13 25  2  0  0  0  0
 14 24  1  0  0  0  0
 14 27  2  0  0  0  0
 15 23  2  0  0  0  0
 15 30  1  0  0  0  0
 16 25  1  0  0  0  0
 16 30  2  0  0  0  0
 17 29  2  0  0  0  0
 17 31  1  0  0  0  0
 18 32  1  0  0  0  0
 19 32  1  0  0  0  0
 19 33  2  0  0  0  0
 19 34  1  0  0  0  0
 20 22  2  0  0  0  0
 20 40  1  0  0  0  0
 21 24  2  0  0  0  0
 21 41  1  0  0  0  0
 22 53  1  0  0  0  0
 23 52  1  0  0  0  0
 24 42  1  0  0  0  0
 25 74  1  0  0  0  0
 26 84  1  0  0  0  0
 27 85  1  0  0  0  0
 28 31  2  0  0  0  0
 28 84  1  0  0  0  0
 29 86  1  0  0  0  0
 30 87  1  0  0  0  0
 31 88  1  0  0  0  0
 32 67  2  0  0  0  0
 33 68  1  0  0  0  0
 33 72  1  0  0  0  0
 34 73  1  0  0  0  0
 34 78  2  0  0  0  0
 35 54  1  0  0  0  0
 35 75  1  0  0  0  0
 35 79  2  0  0  0  0
 36 63  1  0  0  0  0
 36 69  1  0  0  0  0
 36 80  2  0  0  0  0
 37 62  1  0  0  0  0
 37 74  1  0  0  0  0
 37 81  2  0  0  0  0
 38 64  1  0  0  0  0
 38 76  1  0  0  0  0
 38 82  2  0  0  0  0
 39 70  1  0  0  0  0
 39 71  1  0  0  0  0
 39 83  2  0  0  0  0
 40 43  1  0  0  0  0
 41 54  1  0  0  0  0
 42 69  1  0  0  0  0
 43 45  1  0  0  0  0
 44 46  1  0  0  0  0
 44 48  1  0  0  0  0
 45 53  1  0  0  0  0
 46 55  1  0  0  0  0
 47 49  1  0  0  0  0
 47 52  1  0  0  0  0
 48 70  1  0  0  0  0
 49 71  1  0  0  0  0
 50 52  1  0  0  0  0
 50 71  1  0  0  0  0
 51 55  1  0  0  0  0
 51 70  1  0  0  0  0
 53 75  1  0  0  0  0
 54 69  1  0  0  0  0
 55 68  1  0  0  0  0
 56 64  1  0  0  0  0
 57 65  1  0  0  0  0
 58 66  1  0  0  0  0
 59 66  1  0  0  0  0
 60 66  1  0  0  0  0
 61 77  1  0  0  0  0
 62 65  1  0  0  0  0
 63 66  1  0  0  0  0
 63 76  1  0  0  0  0
 64 77  1  0  0  0  0
 65 85  1  0  0  0  0
 67 68  1  0  0  0  0
M  CHG  1  77   1
M  ISO  4  39 100  65 101  71 100  85 101
M  END
> <Batch ID>
0147

> <Smiles>
CNC(C)C(=O)NC(C(=O)N1Cc2cc([101O:1][101CH:1](C)CC(=O)Nc3cc(F)cc(C4CC[100N:0]([100C:0](=O)N5CCCC(n6nc(-c7ccc(Oc8ccc(F)cc8F)cc7)c(C(N)=O)c6N)C5)C4)c3)ccc2CC1C(=O)NC1CCCc2ccccc21)C(C)(C)C

> <Shape>
0.258

> <Color>
0.074

> <Negative vol penalty>
0.000

$$$$

  -OEChem-04052303133D

 83 92  0     1  0  0  0  0  0999 V2000
  -29.4809  -36.8165   24.2982 C   0  0  0  0  0  0  0  0  0  0  0  0
  -29.3627  -35.5053   23.8485 C   0  0  0  0  0  0  0  0  0  0  0  0
  -24.6230   -8.7333   21.2368 C   0  0  0  0  0  0  0  0  0  0  0  0
  -22.8449  -10.3101   20.8019 C   0  0  0  0  0  0  0  0  0  0  0  0
  -28.4263  -37.4136   24.9875 C   0  0  0  0  0  0  0  0  0  0  0  0
  -28.1900  -34.7901   24.0888 C   0  0  0  0  0  0  0  0  0  0  0  0
  -25.6022  -30.6234   20.4216 C   0  0  0  0  0  0  0  0  0  0  0  0
  -23.6826   -7.7142   21.3872 C   0  0  0  0  0  0  0  0  0  0  0  0
  -21.9044   -9.2911   20.9523 C   0  0  0  0  0  0  0  0  0  0  0  0
  -25.6343  -29.2296   20.4163 C   0  0  0  0  0  0  0  0  0  0  0  0
  -21.5377   -6.6361   23.7667 C   0  0  0  0  0  0  0  0  0  0  0  0
  -21.6903   -5.7690   24.8485 C   0  0  0  0  0  0  0  0  0  0  0  0
  -23.5531  -29.1830   21.6352 C   0  0  0  0  0  0  0  0  0  0  0  0
  -23.6982  -19.9069   21.3347 C   0  0  0  0  0  0  0  0  0  0  0  0
  -21.8797   -3.9027   23.3258 C   0  0  0  0  0  0  0  0  0  0  0  0
  -22.7557  -18.4511   19.7873 C   0  0  0  0  0  0  0  0  0  0  0  0
  -24.2042  -10.0313   20.9442 C   0  0  0  0  0  0  0  0  0  0  0  0
  -26.2210  -11.1450   19.8488 C   0  0  0  0  0  0  0  0  0  0  0  0
  -27.2364  -36.7086   25.2279 C   0  0  0  0  0  0  0  0  0  0  0  0
  -24.5492  -31.3087   21.0444 C   0  0  0  0  0  0  0  0  0  0  0  0
  -27.1189  -35.3779   24.7831 C   0  0  0  0  0  0  0  0  0  0  0  0
  -23.5087  -30.5856   21.6449 C   0  0  0  0  0  0  0  0  0  0  0  0
  -23.5706  -18.5584   20.8927 C   0  0  0  0  0  0  0  0  0  0  0  0
  -22.3233   -7.9931   21.2449 C   0  0  0  0  0  0  0  0  0  0  0  0
  -24.6111  -28.5092   21.0256 C   0  0  0  0  0  0  0  0  0  0  0  0
  -21.5561   -6.1366   22.4644 C   0  0  0  0  0  0  0  0  0  0  0  0
  -21.8613   -4.4023   24.6281 C   0  0  0  0  0  0  0  0  0  0  0  0
  -21.7271   -4.7699   22.2440 C   0  0  0  0  0  0  0  0  0  0  0  0
  -25.1752  -11.0845   20.7893 C   0  0  0  0  0  0  0  0  0  0  0  0
  -22.9759  -20.7791   20.5501 C   0  0  0  0  0  0  0  0  0  0  0  0
  -26.8518  -12.3361   20.1130 C   0  0  0  0  0  0  0  0  0  0  0  0
  -26.5891  -10.2084   18.8276 C   0  0  0  0  0  0  0  0  0  0  0  0
  -24.3247  -33.3447   23.4751 C   0  0  0  0  0  0  0  0  0  0  0  0
  -21.2264  -33.5240   22.5310 C   0  0  0  0  0  0  0  0  0  0  0  0
  -18.5991  -32.0580   20.9203 C   0  0  0  0  0  0  0  0  0  0  0  0
  -25.0369  -17.4498   22.6152 C   0  0  0  0  0  0  0  0  0  0  0  0
  -26.1418  -37.3803   26.0186 C   0  0  0  0  0  0  0  0  0  0  0  0
  -24.5156  -32.8123   21.0182 C   0  0  0  0  0  0  0  0  0  0  0  0
  -22.3453  -31.2736   22.3094 C   0  0  0  0  0  0  0  0  0  0  0  0
  -24.7904  -36.6796   25.9048 C   0  0  0  0  0  0  0  0  0  0  0  0
  -27.7355  -15.3922   23.6927 C   0  0  0  0  0  0  0  0  0  0  0  0
  -24.9522  -35.1742   26.0906 C   0  0  0  0  0  0  0  0  0  0  0  0
  -23.9429  -23.0322   19.9135 C   0  0  0  0  0  0  0  0  0  0  0  0
  -23.8042  -24.5469   20.0643 C   0  0  0  0  0  0  0  0  0  0  0  0
  -27.4837  -14.0614   22.9801 C   0  0  0  0  0  0  0  0  0  0  0  0
  -26.4314  -16.0574   24.1291 C   0  0  0  0  0  0  0  0  0  0  0  0
  -25.1822  -14.8954   22.3520 C   0  0  0  0  0  0  0  0  0  0  0  0
  -22.6754  -24.2133   22.2950 C   0  0  0  0  0  0  0  0  0  0  0  0
  -25.8534  -34.5778   25.0026 C   0  0  1  0  0  0  0  0  0  0  0  0
  -22.8481  -22.2811   20.6833 C   0  0  2  0  0  0  0  0  0  0  0  0
  -23.6586  -33.4102   22.1298 C   0  0  1  0  0  0  0  0  0  0  0  0
  -23.7684  -24.9666   21.5394 C   0  0  2  0  0  0  0  0  0  0  0  0
  -26.4629  -14.2191   21.8361 C   0  0  2  0  0  0  0  0  0  0  0  0
  -16.1845  -32.4298   20.3466 C   0  0  0  0  0  0  0  0  0  0  0  0
  -20.4431  -32.8507   25.4021 C   0  0  0  0  0  0  0  0  0  0  0  0
  -18.1443  -32.3060   24.5734 C   0  0  0  0  0  0  0  0  0  0  0  0
  -19.0414  -34.6204   24.3260 C   0  0  0  0  0  0  0  0  0  0  0  0
  -19.1556  -31.9693   18.0148 C   0  0  0  0  0  0  0  0  0  0  0  0
  -23.5594  -26.4743   21.6652 C   0  0  0  0  0  0  0  0  0  1  0  0
  -19.9613  -32.7719   22.8668 C   0  0  1  0  0  0  0  0  0  0  0  0
  -17.6248  -32.5943   19.8870 C   0  0  2  0  0  0  0  0  0  0  0  0
  -19.4203  -33.1240   24.2813 C   0  0  0  0  0  0  0  0  0  0  0  0
  -25.1405  -12.1521   21.5912 N   0  0  0  0  0  0  0  0  0  0  0  0
  -26.1723  -12.8946   21.1553 N   0  0  0  0  0  0  0  0  0  0  0  0
  -22.3610  -32.7450   22.2629 N   0  0  0  0  0  0  0  0  0  0  0  0
  -25.5152  -16.1772   22.9928 N   0  0  0  0  0  0  0  0  0  0  0  0
  -27.9161  -12.9496   19.5532 N   0  0  0  0  0  0  0  0  0  0  0  0
  -26.0130  -10.3444   17.5572 N   0  0  0  0  0  0  0  0  0  0  0  0
  -24.1986  -17.4433   21.5009 N   0  0  0  0  0  0  0  0  0  0  0  0
  -25.1218  -34.4364   23.7619 N   0  0  0  0  0  0  0  0  0  0  0  0
  -19.0237  -33.0460   21.7832 N   0  0  0  0  0  0  0  0  0  0  0  0
  -22.8759  -22.7427   22.1191 N   0  3  0  0  0  0  0  0  0  0  0  0
  -17.7911  -31.8719   18.5942 N   0  3  0  0  0  0  0  0  0  0  0  0
  -27.3923   -9.2686   19.0400 O   0  0  0  0  0  0  0  0  0  0  0  0
  -24.1286  -32.3762   24.1998 O   0  0  0  0  0  0  0  0  0  0  0  0
  -21.2070  -34.7570   22.5004 O   0  0  0  0  0  0  0  0  0  0  0  0
  -18.9457  -30.8795   20.9603 O   0  0  0  0  0  0  0  0  0  0  0  0
  -25.3698  -18.4733   23.2182 O   0  0  0  0  0  0  0  0  0  0  0  0
  -21.4053   -6.9989   21.3914 O   0  0  0  0  0  0  0  0  0  0  0  0
  -24.6403  -27.1487   21.0224 O   0  0  0  0  0  0  0  0  0  1  0  0
  -22.0093   -3.5699   25.6670 F   0  0  0  0  0  0  0  0  0  0  0  0
  -21.7468   -4.2843   20.9952 F   0  0  0  0  0  0  0  0  0  0  0  0
  -22.1483  -19.9720   19.2868 S   0  0  0  0  0  0  0  0  0  0  0  0
  1  2  1  0  0  0  0
  1  5  2  0  0  0  0
  2  6  2  0  0  0  0
  3  8  2  0  0  0  0
  3 17  1  0  0  0  0
  4  9  1  0  0  0  0
  4 17  2  0  0  0  0
  5 19  1  0  0  0  0
  6 21  1  0  0  0  0
  7 10  2  0  0  0  0
  7 20  1  0  0  0  0
  8 24  1  0  0  0  0
  9 24  2  0  0  0  0
 10 25  1  0  0  0  0
 11 12  2  0  0  0  0
 11 26  1  0  0  0  0
 12 27  1  0  0  0  0
 13 22  1  0  0  0  0
 13 25  2  0  0  0  0
 14 23  1  0  0  0  0
 14 30  2  0  0  0  0
 15 27  2  0  0  0  0
 15 28  1  0  0  0  0
 16 23  2  0  0  0  0
 16 83  1  0  0  0  0
 17 29  1  0  0  0  0
 18 29  1  0  0  0  0
 18 31  2  0  0  0  0
 18 32  1  0  0  0  0
 19 21  2  0  0  0  0
 19 37  1  0  0  0  0
 20 22  2  0  0  0  0
 20 38  1  0  0  0  0
 21 49  1  0  0  0  0
 22 39  1  0  0  0  0
 23 69  1  0  0  0  0
 24 79  1  0  0  0  0
 25 80  1  0  0  0  0
 26 28  2  0  0  0  0
 26 79  1  0  0  0  0
 27 81  1  0  0  0  0
 28 82  1  0  0  0  0
 29 63  2  0  0  0  0
 30 50  1  0  0  0  0
 30 83  1  0  0  0  0
 31 64  1  0  0  0  0
 31 67  1  0  0  0  0
 32 68  1  0  0  0  0
 32 74  2  0  0  0  0
 33 51  1  0  0  0  0
 33 70  1  0  0  0  0
 33 75  2  0  0  0  0
 34 60  1  0  0  0  0
 34 65  1  0  0  0  0
 34 76  2  0  0  0  0
 35 61  1  0  0  0  0
 35 71  1  0  0  0  0
 35 77  2  0  0  0  0
 36 66  1  0  0  0  0
 36 69  1  0  0  0  0
 36 78  2  0  0  0  0
 37 40  1  0  0  0  0
 38 51  1  0  0  0  0
 39 65  1  0  0  0  0
 40 42  1  0  0  0  0
 41 45  1  0  0  0  0
 41 46  1  0  0  0  0
 42 49  1  0  0  0  0
 43 44  1  0  0  0  0
 43 50  1  0  0  0  0
 44 52  1  0  0  0  0
 45 53  1  0  0  0  0
 46 66  1  0  0  0  0
 47 53  1  0  0  0  0
 47 66  1  0  0  0  0
 48 52  1  0  0  0  0
 48 72  1  0  0  0  0
 49 70  1  0  0  0  0
 50 72  1  0  0  0  0
 51 65  1  0  0  0  0
 52 59  1  0  0  0  0
 53 64  1  0  0  0  0
 54 61  1  0  0  0  0
 55 62  1  0  0  0  0
 56 62  1  0  0  0  0
 57 62  1  0  0  0  0
 58 73  1  0  0  0  0
 59 80  1  0  0  0  0
 60 62  1  0  0  0  0
 60 71  1  0  0  0  0
 61 73  1  0  0  0  0
 63 64  1  0  0  0  0
M  CHG  2  72   1  73   1
M  ISO  4  36 100  59 101  69 100  80 101
M  END
> <Batch ID>
0147

> <Smiles>
CNC(C)C(=O)NC(C(=O)N1Cc2cc([101O:1][101CH2:1]C3CCC(c4cc([100NH:0][100C:0](=O)N5CCCC(n6nc(-c7ccc(Oc8ccc(F)cc8F)cc7)c(C(N)=O)c6N)C5)cs4)NC3)ccc2CC1C(=O)NC1CCCc2ccccc21)C(C)(C)C

> <Shape>
0.204

> <Color>
0.104

> <Negative vol penalty>
0.000

$$$$

  -OEChem-04052303133D

 83 91  0     1  0  0  0  0  0999 V2000
  -29.2141  -36.4418   22.3285 C   0  0  0  0  0  0  0  0  0  0  0  0
  -29.4713  -35.1370   21.9199 C   0  0  0  0  0  0  0  0  0  0  0  0
  -24.7587   -8.9516   21.5942 C   0  0  0  0  0  0  0  0  0  0  0  0
  -23.0846  -10.3257   20.5235 C   0  0  0  0  0  0  0  0  0  0  0  0
  -28.1810  -36.6982   23.2289 C   0  0  0  0  0  0  0  0  0  0  0  0
  -28.6961  -34.0878   22.4123 C   0  0  0  0  0  0  0  0  0  0  0  0
  -27.0349  -29.0142   19.4115 C   0  0  0  0  0  0  0  0  0  0  0  0
  -23.7907   -8.4502   22.4643 C   0  0  0  0  0  0  0  0  0  0  0  0
  -22.1166   -9.8243   21.3936 C   0  0  0  0  0  0  0  0  0  0  0  0
  -27.5487  -27.7182   19.4041 C   0  0  0  0  0  0  0  0  0  0  0  0
  -21.6892   -6.5388   24.7326 C   0  0  0  0  0  0  0  0  0  0  0  0
  -21.6745   -5.1632   24.9631 C   0  0  0  0  0  0  0  0  0  0  0  0
  -25.0643  -18.0550   17.3570 C   0  0  0  0  0  0  0  0  0  0  0  0
  -25.1284  -19.3953   16.9069 C   0  0  0  0  0  0  0  0  0  0  0  0
  -25.9079  -27.0648   21.0473 C   0  0  0  0  0  0  0  0  0  0  0  0
  -21.2997   -4.7726   22.6085 C   0  0  0  0  0  0  0  0  0  0  0  0
  -24.4057   -9.8894   20.6238 C   0  0  0  0  0  0  0  0  0  0  0  0
  -25.7762   -9.8842   18.4722 C   0  0  0  0  0  0  0  0  0  0  0  0
  -27.3865  -35.6527   23.7252 C   0  0  0  0  0  0  0  0  0  0  0  0
  -25.9590  -29.3486   20.2464 C   0  0  0  0  0  0  0  0  0  0  0  0
  -27.6522  -34.3303   23.3213 C   0  0  0  0  0  0  0  0  0  0  0  0
  -25.3807  -28.3652   21.0616 C   0  0  0  0  0  0  0  0  0  0  0  0
  -22.4696   -8.8865   22.3640 C   0  0  0  0  0  0  0  0  0  0  0  0
  -26.9871  -26.7439   20.2242 C   0  0  0  0  0  0  0  0  0  0  0  0
  -21.5091   -7.0313   23.4400 C   0  0  0  0  0  0  0  0  0  0  0  0
  -21.4798   -4.2801   23.9011 C   0  0  0  0  0  0  0  0  0  0  0  0
  -21.3143   -6.1482   22.3780 C   0  0  0  0  0  0  0  0  0  0  0  0
  -25.4053  -10.4082   19.7251 C   0  0  0  0  0  0  0  0  0  0  0  0
  -26.7587  -10.7322   18.0225 C   0  0  0  0  0  0  0  0  0  0  0  0
  -26.2771  -17.7931   17.9508 C   0  0  0  0  0  0  0  0  0  0  0  0
  -26.3757  -19.8570   17.2579 C   0  0  0  0  0  0  0  0  0  0  0  0
  -25.2772   -8.7338   17.7770 C   0  0  0  0  0  0  0  0  0  0  0  0
  -25.5378  -31.3730   22.6605 C   0  0  0  0  0  0  0  0  0  0  0  0
  -27.9284  -23.5095   18.8777 C   0  0  0  0  0  0  0  0  0  0  0  0
  -22.4485  -30.4153   22.4134 C   0  0  0  0  0  0  0  0  0  0  0  0
  -20.2278  -28.0223   21.4189 C   0  0  0  0  0  0  0  0  0  0  0  0
  -28.0418  -16.4574   19.1542 C   0  0  0  0  0  0  0  0  0  0  0  0
  -26.3113  -35.9734   24.7331 C   0  0  0  0  0  0  0  0  0  0  0  0
  -25.3992  -30.7445   20.2229 C   0  0  0  0  0  0  0  0  0  0  0  0
  -24.2113  -28.6679   21.9612 C   0  0  0  0  0  0  0  0  0  0  0  0
  -25.2956  -34.8491   24.9188 C   0  0  0  0  0  0  0  0  0  0  0  0
  -30.1961  -13.6607   19.6170 C   0  0  0  0  0  0  0  0  0  0  0  0
  -26.0059  -33.5076   25.0701 C   0  0  0  0  0  0  0  0  0  0  0  0
  -29.2466  -12.4611   19.5771 C   0  0  0  0  0  0  0  0  0  0  0  0
  -29.5599  -14.8648   20.3091 C   0  0  0  0  0  0  0  0  0  0  0  0
  -27.3004  -14.0651   19.7397 C   0  0  0  0  0  0  0  0  0  0  0  0
  -26.8174  -33.1683   23.8140 C   0  0  1  0  0  0  0  0  0  0  0  0
  -24.6324  -31.1021   21.4924 C   0  0  1  0  0  0  0  0  0  0  0  0
  -27.8733  -12.8486   18.9945 C   0  0  2  0  0  0  0  0  0  0  0  0
  -17.7722  -27.5063   21.3837 C   0  0  0  0  0  0  0  0  0  0  0  0
  -29.3313  -20.7598   16.5528 C   0  0  0  0  0  0  0  0  0  0  0  0
  -22.5491  -29.7454   25.3885 C   0  0  0  0  0  0  0  0  0  0  0  0
  -20.4669  -28.3893   25.0825 C   0  0  0  0  0  0  0  0  0  0  0  0
  -20.4315  -30.8436   24.6375 C   0  0  0  0  0  0  0  0  0  0  0  0
  -20.1780  -27.8984   18.4623 C   0  0  0  0  0  0  0  0  0  0  0  0
  -28.5263  -22.8944   17.6191 C   0  0  0  0  0  0  0  0  0  0  0  0
  -28.0684  -25.0142   19.0016 C   0  0  0  0  0  0  0  0  0  1  0  0
  -21.6208  -29.3076   23.0194 C   0  0  1  0  0  0  0  0  0  0  0  0
  -18.9396  -28.1129   20.6208 C   0  0  2  0  0  0  0  0  0  0  0  0
  -28.3350  -21.3779   17.5287 C   0  0  1  0  0  0  0  0  0  0  0  0
  -21.2904  -29.5659   24.5166 C   0  0  0  0  0  0  0  0  0  0  0  0
  -26.0960  -11.5041   20.0505 N   0  0  0  0  0  0  0  0  0  0  0  0
  -26.9108  -11.6756   18.9957 N   0  0  0  0  0  0  0  0  0  0  0  0
  -23.7036  -30.0488   21.9074 N   0  0  0  0  0  0  0  0  0  0  0  0
  -28.2642  -15.1761   19.7015 N   0  0  0  0  0  0  0  0  0  0  0  0
  -27.4986  -10.7554   16.8937 N   0  0  0  0  0  0  0  0  0  0  0  0
  -24.2672   -7.9735   18.3821 N   0  0  0  0  0  0  0  0  0  0  0  0
  -26.7846  -16.6266   18.5750 N   0  0  0  0  0  0  0  0  0  0  0  0
  -26.9902  -21.0822   17.0764 N   0  0  0  0  0  0  0  0  0  0  0  0
  -25.9453  -32.6894   22.7630 N   0  0  0  0  0  0  0  0  0  0  0  0
  -20.4474  -29.1608   22.1652 N   0  0  0  0  0  0  0  0  0  0  0  0
  -19.0809  -27.3899   19.3254 N   0  3  0  0  0  0  0  0  0  0  0  0
  -25.7256   -8.3808   16.6599 O   0  0  0  0  0  0  0  0  0  0  0  0
  -25.8429  -30.4559   23.4139 O   0  0  0  0  0  0  0  0  0  0  0  0
  -27.3782  -22.8375   19.7485 O   0  0  0  0  0  0  0  0  0  0  0  0
  -21.9949  -31.5620   22.3836 O   0  0  0  0  0  0  0  0  0  0  0  0
  -20.9636  -27.0384   21.3865 O   0  0  0  0  0  0  0  0  0  0  0  0
  -28.9128  -17.3309   19.1720 O   0  0  0  0  0  0  0  0  0  0  0  0
  -27.0821  -18.8864   17.8947 O   0  0  0  0  0  0  0  0  0  0  0  0
  -21.5247   -8.3972   23.2127 O   0  0  0  0  0  0  0  0  0  0  0  0
  -27.4870  -25.4783   20.2194 O   0  0  0  0  0  0  0  0  0  1  0  0
  -21.4672   -2.9591   24.1224 F   0  0  0  0  0  0  0  0  0  0  0  0
  -21.1419   -6.6154   21.1339 F   0  0  0  0  0  0  0  0  0  0  0  0
  1  2  1  0  0  0  0
  1  5  2  0  0  0  0
  2  6  2  0  0  0  0
  3  8  2  0  0  0  0
  3 17  1  0  0  0  0
  4  9  1  0  0  0  0
  4 17  2  0  0  0  0
  5 19  1  0  0  0  0
  6 21  1  0  0  0  0
  7 10  2  0  0  0  0
  7 20  1  0  0  0  0
  8 23  1  0  0  0  0
  9 23  2  0  0  0  0
 10 24  1  0  0  0  0
 11 12  2  0  0  0  0
 11 25  1  0  0  0  0
 12 26  1  0  0  0  0
 13 14  1  0  0  0  0
 13 30  2  0  0  0  0
 14 31  2  0  0  0  0
 15 22  1  0  0  0  0
 15 24  2  0  0  0  0
 16 26  2  0  0  0  0
 16 27  1  0  0  0  0
 17 28  1  0  0  0  0
 18 28  1  0  0  0  0
 18 29  2  0  0  0  0
 18 32  1  0  0  0  0
 19 21  2  0  0  0  0
 19 38  1  0  0  0  0
 20 22  2  0  0  0  0
 20 39  1  0  0  0  0
 21 47  1  0  0  0  0
 22 40  1  0  0  0  0
 23 80  1  0  0  0  0
 24 81  1  0  0  0  0
 25 27  2  0  0  0  0
 25 80  1  0  0  0  0
 26 82  1  0  0  0  0
 27 83  1  0  0  0  0
 28 62  2  0  0  0  0
 29 63  1  0  0  0  0
 29 66  1  0  0  0  0
 30 68  1  0  0  0  0
 30 79  1  0  0  0  0
 31 69  1  0  0  0  0
 31 79  1  0  0  0  0
 32 67  1  0  0  0  0
 32 73  2  0  0  0  0
 33 48  1  0  0  0  0
 33 70  1  0  0  0  0
 33 74  2  0  0  0  0
 34 56  1  0  0  0  0
 34 57  1  0  0  0  0
 34 75  2  0  0  0  0
 35 58  1  0  0  0  0
 35 64  1  0  0  0  0
 35 76  2  0  0  0  0
 36 59  1  0  0  0  0
 36 71  1  0  0  0  0
 36 77  2  0  0  0  0
 37 65  1  0  0  0  0
 37 68  1  0  0  0  0
 37 78  2  0  0  0  0
 38 41  1  0  0  0  0
 39 48  1  0  0  0  0
 40 64  1  0  0  0  0
 41 43  1  0  0  0  0
 42 44  1  0  0  0  0
 42 45  1  0  0  0  0
 43 47  1  0  0  0  0
 44 49  1  0  0  0  0
 45 65  1  0  0  0  0
 46 49  1  0  0  0  0
 46 65  1  0  0  0  0
 47 70  1  0  0  0  0
 48 64  1  0  0  0  0
 49 63  1  0  0  0  0
 50 59  1  0  0  0  0
 51 60  1  0  0  0  0
 52 61  1  0  0  0  0
 53 61  1  0  0  0  0
 54 61  1  0  0  0  0
 55 72  1  0  0  0  0
 56 60  1  0  0  0  0
 57 81  1  0  0  0  0
 58 61  1  0  0  0  0
 58 71  1  0  0  0  0
 59 72  1  0  0  0  0
 60 69  1  0  0  0  0
 62 63  1  0  0  0  0
M  CHG  1  72   1
M  ISO  4  37 100  57 101  68 100  81 101
M  END
> <Batch ID>
0147

> <Smiles>
CNC(C)C(=O)NC(C(=O)N1Cc2cc([101O:1][101CH2:1]C(=O)CC(C)Nc3ccc([100NH:0][100C:0](=O)N4CCCC(n5nc(-c6ccc(Oc7ccc(F)cc7F)cc6)c(C(N)=O)c5N)C4)o3)ccc2CC1C(=O)NC1CCCc2ccccc21)C(C)(C)C

> <Shape>
0.298

> <Color>
0.092

> <Negative vol penalty>
0.000

$$$$

  -OEChem-04052303133D

 86 95  0     1  0  0  0  0  0999 V2000
  -19.8752  -32.9383   15.6620 C   0  0  0  0  0  0  0  0  0  0  0  0
  -20.8986  -31.9972   15.7109 C   0  0  0  0  0  0  0  0  0  0  0  0
  -27.0042  -12.6086   18.7008 C   0  0  0  0  0  0  0  0  0  0  0  0
  -26.1536  -14.6777   17.7886 C   0  0  0  0  0  0  0  0  0  0  0  0
  -19.9001  -34.0387   16.5178 C   0  0  0  0  0  0  0  0  0  0  0  0
  -21.9482  -32.1565   16.6150 C   0  0  0  0  0  0  0  0  0  0  0  0
  -24.9782  -27.7216   19.5571 C   0  0  0  0  0  0  0  0  0  0  0  0
  -27.9654  -12.5586   17.6913 C   0  0  0  0  0  0  0  0  0  0  0  0
  -27.1149  -14.6278   16.7791 C   0  0  0  0  0  0  0  0  0  0  0  0
  -26.1993  -27.0962   19.3093 C   0  0  0  0  0  0  0  0  0  0  0  0
  -28.1049  -11.6976   14.4258 C   0  0  0  0  0  0  0  0  0  0  0  0
  -28.3045  -10.4765   13.7819 C   0  0  0  0  0  0  0  0  0  0  0  0
  -27.2785  -28.6059   20.8506 C   0  0  0  0  0  0  0  0  0  0  0  0
  -29.1778  -19.0769   21.0239 C   0  0  0  0  0  0  0  0  0  0  0  0
  -30.6118  -10.4759   14.4984 C   0  0  0  0  0  0  0  0  0  0  0  0
  -26.0982  -13.6681   18.7494 C   0  0  0  0  0  0  0  0  0  0  0  0
  -24.1004  -12.7697   20.0569 C   0  0  0  0  0  0  0  0  0  0  0  0
  -20.9456  -34.2065   17.4395 C   0  0  0  0  0  0  0  0  0  0  0  0
  -24.8998  -28.8027   20.4468 C   0  0  0  0  0  0  0  0  0  0  0  0
  -21.9878  -33.2609   17.4830 C   0  0  0  0  0  0  0  0  0  0  0  0
  -26.0547  -29.2416   21.1099 C   0  0  0  0  0  0  0  0  0  0  0  0
  -30.0860  -20.0296   20.4782 C   0  0  0  0  0  0  0  0  0  0  0  0
  -28.0208  -13.5682   16.7305 C   0  0  0  0  0  0  0  0  0  0  0  0
  -27.3502  -27.5402   19.9538 C   0  0  0  0  0  0  0  0  0  0  0  0
  -29.1588  -12.3079   15.1060 C   0  0  0  0  0  0  0  0  0  0  0  0
  -29.5579   -9.8656   13.8182 C   0  0  0  0  0  0  0  0  0  0  0  0
  -30.4122  -11.6970   15.1423 C   0  0  0  0  0  0  0  0  0  0  0  0
  -25.1047  -13.7200   19.7917 C   0  0  0  0  0  0  0  0  0  0  0  0
  -29.4705  -21.2297   20.1981 C   0  0  0  0  0  0  0  0  0  0  0  0
  -23.4238  -13.2781   21.1387 C   0  0  0  0  0  0  0  0  0  0  0  0
  -27.9027  -19.5854   21.1404 C   0  0  0  0  0  0  0  0  0  0  0  0
  -23.8057  -11.5377   19.3855 C   0  0  0  0  0  0  0  0  0  0  0  0
  -24.0744  -31.8617   20.1925 C   0  0  0  0  0  0  0  0  0  0  0  0
  -24.4264  -31.8213   23.4169 C   0  0  0  0  0  0  0  0  0  0  0  0
  -25.8514  -30.3709   26.1578 C   0  0  0  0  0  0  0  0  0  0  0  0
  -26.5358  -17.6984   22.1203 C   0  0  0  0  0  0  0  0  0  0  0  0
  -20.9539  -35.4369   18.3117 C   0  0  0  0  0  0  0  0  0  0  0  0
  -23.5703  -29.4493   20.7236 C   0  0  0  0  0  0  0  0  0  0  0  0
  -26.0204  -30.3851   22.0896 C   0  0  0  0  0  0  0  0  0  0  0  0
  -21.9077  -35.3354   19.4991 C   0  0  0  0  0  0  0  0  0  0  0  0
  -22.7416  -17.7600   22.8035 C   0  0  0  0  0  0  0  0  0  0  0  0
  -23.2630  -34.7977   19.0508 C   0  0  0  0  0  0  0  0  0  0  0  0
  -29.4444  -22.8495   18.2537 C   0  0  0  0  0  0  0  0  0  0  0  0
  -29.9866  -23.6747   20.5988 C   0  0  0  0  0  0  0  0  0  0  0  0
  -22.5759  -16.4038   22.1295 C   0  0  0  0  0  0  0  0  0  0  0  0
  -30.0541  -24.1267   17.6698 C   0  0  0  0  0  0  0  0  0  0  0  0
  -30.5941  -24.9479   20.0037 C   0  0  0  0  0  0  0  0  0  0  0  0
  -24.0956  -18.3668   22.4456 C   0  0  0  0  0  0  0  0  0  0  0  0
  -24.9181  -16.1200   23.1580 C   0  0  0  0  0  0  0  0  0  0  0  0
  -23.1307  -33.3859   18.4671 C   0  0  1  0  0  0  0  0  0  0  0  0
  -30.0715  -22.4953   19.6137 C   0  0  0  0  0  0  0  0  0  0  0  0
  -23.6978  -30.8722   21.2587 C   0  0  1  0  0  0  0  0  0  0  0  0
  -23.6799  -15.4187   22.5628 C   0  0  2  0  0  0  0  0  0  0  0  0
  -29.9744  -25.3114   18.6453 C   0  0  0  0  0  0  0  0  0  0  0  0
  -31.8399  -19.4875   18.7705 C   0  0  0  0  0  0  0  0  0  0  0  0
  -25.9813  -30.5824   28.6550 C   0  0  0  0  0  0  0  0  0  0  0  0
  -26.3170  -34.1971   23.1149 C   0  0  0  0  0  0  0  0  0  0  0  0
  -27.1293  -33.7574   25.4419 C   0  0  0  0  0  0  0  0  0  0  0  0
  -24.7402  -34.3580   25.0494 C   0  0  0  0  0  0  0  0  0  0  0  0
  -24.6847  -27.6813   26.5625 C   0  0  0  0  0  0  0  0  0  0  0  0
  -31.5227  -19.7502   20.2440 C   0  0  0  0  0  0  0  0  0  0  0  0
  -28.5438  -25.8450   18.7886 C   0  0  0  0  0  0  0  0  0  1  0  0
  -25.5702  -32.0684   24.3707 C   0  0  1  0  0  0  0  0  0  0  0  0
  -25.2616  -29.9296   27.4852 C   0  0  2  0  0  0  0  0  0  0  0  0
  -25.9405  -33.5749   24.4744 C   0  0  0  0  0  0  0  0  0  0  0  0
  -25.0724  -14.7538   20.6368 N   0  0  0  0  0  0  0  0  0  0  0  0
  -24.0397  -14.4562   21.4436 N   0  0  0  0  0  0  0  0  0  0  0  0
  -24.6979  -30.9888   22.3219 N   0  0  0  0  0  0  0  0  0  0  0  0
  -25.2094  -17.4106   22.5286 N   0  0  0  0  0  0  0  0  0  0  0  0
  -22.3680  -12.8278   21.8493 N   0  0  0  0  0  0  0  0  0  0  0  0
  -22.9031  -11.5603   18.3135 N   0  0  0  0  0  0  0  0  0  0  0  0
  -26.7089  -18.9936   21.6248 N   0  0  0  0  0  0  0  0  0  0  0  0
  -22.9945  -32.4111   19.5281 N   0  0  0  0  0  0  0  0  0  0  0  0
  -25.1832  -31.4596   25.6387 N   0  0  0  0  0  0  0  0  0  0  0  0
  -30.7890  -26.4309   18.0630 N   0  3  0  0  0  0  0  0  0  0  0  0
  -25.3690  -28.4506   27.6335 N   0  3  0  0  0  0  0  0  0  0  0  0
  -24.3146  -10.4462   19.7366 O   0  0  0  0  0  0  0  0  0  0  0  0
  -25.2571  -32.1096   19.9889 O   0  0  0  0  0  0  0  0  0  0  0  0
  -23.3304  -32.3418   23.6393 O   0  0  0  0  0  0  0  0  0  0  0  0
  -26.8115  -29.8086   25.6357 O   0  0  0  0  0  0  0  0  0  0  0  0
  -27.4370  -16.8621   22.2098 O   0  0  0  0  0  0  0  0  0  0  0  0
  -28.9588  -13.5199   15.7454 O   0  0  0  0  0  0  0  0  0  0  0  0
  -28.5436  -26.9319   19.7132 O   0  0  0  0  0  0  0  0  0  1  0  0
  -29.7491   -8.6922   13.2011 F   0  0  0  0  0  0  0  0  0  0  0  0
  -31.4282  -12.2779   15.7951 F   0  0  0  0  0  0  0  0  0  0  0  0
  -27.8044  -21.2048   20.5927 S   0  0  0  0  0  0  0  0  0  0  0  0
  1  2  1  0  0  0  0
  1  5  2  0  0  0  0
  2  6  2  0  0  0  0
  3  8  2  0  0  0  0
  3 16  1  0  0  0  0
  4  9  1  0  0  0  0
  4 16  2  0  0  0  0
  5 18  1  0  0  0  0
  6 20  1  0  0  0  0
  7 10  2  0  0  0  0
  7 19  1  0  0  0  0
  8 23  1  0  0  0  0
  9 23  2  0  0  0  0
 10 24  1  0  0  0  0
 11 12  2  0  0  0  0
 11 25  1  0  0  0  0
 12 26  1  0  0  0  0
 13 21  1  0  0  0  0
 13 24  2  0  0  0  0
 14 22  1  0  0  0  0
 14 31  2  0  0  0  0
 15 26  2  0  0  0  0
 15 27  1  0  0  0  0
 16 28  1  0  0  0  0
 17 28  1  0  0  0  0
 17 30  2  0  0  0  0
 17 32  1  0  0  0  0
 18 20  2  0  0  0  0
 18 37  1  0  0  0  0
 19 21  2  0  0  0  0
 19 38  1  0  0  0  0
 20 50  1  0  0  0  0
 21 39  1  0  0  0  0
 22 29  2  0  0  0  0
 22 61  1  0  0  0  0
 23 82  1  0  0  0  0
 24 83  1  0  0  0  0
 25 27  2  0  0  0  0
 25 82  1  0  0  0  0
 26 84  1  0  0  0  0
 27 85  1  0  0  0  0
 28 66  2  0  0  0  0
 29 51  1  0  0  0  0
 29 86  1  0  0  0  0
 30 67  1  0  0  0  0
 30 70  1  0  0  0  0
 31 72  1  0  0  0  0
 31 86  1  0  0  0  0
 32 71  1  0  0  0  0
 32 77  2  0  0  0  0
 33 52  1  0  0  0  0
 33 73  1  0  0  0  0
 33 78  2  0  0  0  0
 34 63  1  0  0  0  0
 34 68  1  0  0  0  0
 34 79  2  0  0  0  0
 35 64  1  0  0  0  0
 35 74  1  0  0  0  0
 35 80  2  0  0  0  0
 36 69  1  0  0  0  0
 36 72  1  0  0  0  0
 36 81  2  0  0  0  0
 37 40  1  0  0  0  0
 38 52  1  0  0  0  0
 39 68  1  0  0  0  0
 40 42  1  0  0  0  0
 41 45  1  0  0  0  0
 41 48  1  0  0  0  0
 42 50  1  0  0  0  0
 43 46  1  0  0  0  0
 43 51  1  0  0  0  0
 44 47  1  0  0  0  0
 44 51  1  0  0  0  0
 45 53  1  0  0  0  0
 46 54  1  0  0  0  0
 47 54  1  0  0  0  0
 48 69  1  0  0  0  0
 49 53  1  0  0  0  0
 49 69  1  0  0  0  0
 50 73  1  0  0  0  0
 52 68  1  0  0  0  0
 53 67  1  0  0  0  0
 54 62  1  0  0  0  0
 54 75  1  0  0  0  0
 55 61  1  0  0  0  0
 56 64  1  0  0  0  0
 57 65  1  0  0  0  0
 58 65  1  0  0  0  0
 59 65  1  0  0  0  0
 60 76  1  0  0  0  0
 62 83  1  0  0  0  0
 63 65  1  0  0  0  0
 63 74  1  0  0  0  0
 64 76  1  0  0  0  0
 66 67  1  0  0  0  0
M  CHG  2  75   1  76   1
M  ISO  4  36 100  62 101  72 100  83 101
M  END
> <Batch ID>
0147

> <Smiles>
CCc1cc([100NH:0][100C:0](=O)N2CCCC(n3nc(-c4ccc(Oc5ccc(F)cc5F)cc4)c(C(N)=O)c3N)C2)sc1C1CCC(N)([101CH2:1][101O:1]c2ccc3c(c2)CN(C(=O)C(NC(=O)C(C)NC)C(C)(C)C)C(C(=O)NC2CCCc4ccccc42)C3)CC1

> <Shape>
0.257

> <Color>
0.102

> <Negative vol penalty>
0.000

$$$$

  -OEChem-04052303133D

 84 93  0     1  0  0  0  0  0999 V2000
  -27.1854  -37.6695   25.2088 C   0  0  0  0  0  0  0  0  0  0  0  0
  -27.8750  -36.7391   24.4379 C   0  0  0  0  0  0  0  0  0  0  0  0
  -22.9081   -9.6708   19.9712 C   0  0  0  0  0  0  0  0  0  0  0  0
  -24.5994   -8.6835   21.3861 C   0  0  0  0  0  0  0  0  0  0  0  0
  -26.0557  -37.2783   25.9262 C   0  0  0  0  0  0  0  0  0  0  0  0
  -27.4360  -35.4167   24.3850 C   0  0  0  0  0  0  0  0  0  0  0  0
  -25.9042  -18.7227   19.0074 C   0  0  0  0  0  0  0  0  0  0  0  0
  -27.9910  -19.2432   20.1082 C   0  0  0  0  0  0  0  0  0  0  0  0
  -27.1058  -29.8181   19.9282 C   0  0  0  0  0  0  0  0  0  0  0  0
  -26.3348  -17.4105   18.8116 C   0  0  0  0  0  0  0  0  0  0  0  0
  -28.4216  -17.9310   19.9124 C   0  0  0  0  0  0  0  0  0  0  0  0
  -21.9182   -9.2429   20.8558 C   0  0  0  0  0  0  0  0  0  0  0  0
  -23.6095   -8.2556   22.2707 C   0  0  0  0  0  0  0  0  0  0  0  0
  -27.4408  -28.4660   19.8707 C   0  0  0  0  0  0  0  0  0  0  0  0
  -21.3502   -5.7473   22.4575 C   0  0  0  0  0  0  0  0  0  0  0  0
  -21.4312   -4.4403   22.9378 C   0  0  0  0  0  0  0  0  0  0  0  0
  -25.4308  -27.9224   21.0887 C   0  0  0  0  0  0  0  0  0  0  0  0
  -21.5809   -5.2802   25.1982 C   0  0  0  0  0  0  0  0  0  0  0  0
  -24.2487   -9.3910   20.2363 C   0  0  0  0  0  0  0  0  0  0  0  0
  -25.4052   -9.4864   17.9645 C   0  0  0  0  0  0  0  0  0  0  0  0
  -26.7324  -19.6391   19.6556 C   0  0  0  0  0  0  0  0  0  0  0  0
  -25.5970  -35.9526   25.8744 C   0  0  0  0  0  0  0  0  0  0  0  0
  -25.9343  -30.2342   20.5769 C   0  0  0  0  0  0  0  0  0  0  0  0
  -26.2999  -35.0071   25.1035 C   0  0  0  0  0  0  0  0  0  0  0  0
  -25.0819  -29.2801   21.1508 C   0  0  0  0  0  0  0  0  0  0  0  0
  -27.5934  -17.0146   19.2641 C   0  0  0  0  0  0  0  0  0  0  0  0
  -22.2689   -8.5353   22.0056 C   0  0  0  0  0  0  0  0  0  0  0  0
  -26.6048  -27.5181   20.4535 C   0  0  0  0  0  0  0  0  0  0  0  0
  -21.3846   -6.8208   23.3475 C   0  0  0  0  0  0  0  0  0  0  0  0
  -21.5465   -4.2067   24.3081 C   0  0  0  0  0  0  0  0  0  0  0  0
  -21.4999   -6.5873   24.7178 C   0  0  0  0  0  0  0  0  0  0  0  0
  -25.2717   -9.8323   19.3225 C   0  0  0  0  0  0  0  0  0  0  0  0
  -26.5267  -10.1607   17.5471 C   0  0  0  0  0  0  0  0  0  0  0  0
  -24.5885   -8.6321   17.1528 C   0  0  0  0  0  0  0  0  0  0  0  0
  -25.2931  -32.0825   23.0822 C   0  0  0  0  0  0  0  0  0  0  0  0
  -22.2220  -31.6158   22.1479 C   0  0  0  0  0  0  0  0  0  0  0  0
  -19.9631  -29.6714   20.4855 C   0  0  0  0  0  0  0  0  0  0  0  0
  -29.2501  -15.1262   19.4528 C   0  0  0  0  0  0  0  0  0  0  0  0
  -24.3987  -35.5661   26.7046 C   0  0  0  0  0  0  0  0  0  0  0  0
  -25.5735  -31.6941   20.6070 C   0  0  0  0  0  0  0  0  0  0  0  0
  -23.8024  -29.6732   21.8414 C   0  0  0  0  0  0  0  0  0  0  0  0
  -23.7807  -34.2309   26.2976 C   0  0  0  0  0  0  0  0  0  0  0  0
  -30.6872  -11.8800   19.1805 C   0  0  0  0  0  0  0  0  0  0  0  0
  -27.1600  -22.0791   19.1352 C   0  0  0  0  0  0  0  0  0  0  0  0
  -26.1504  -21.4153   21.3623 C   0  0  0  0  0  0  0  0  0  0  0  0
  -24.8654  -33.1737   26.1167 C   0  0  0  0  0  0  0  0  0  0  0  0
  -26.6725  -23.5124   19.3451 C   0  0  0  0  0  0  0  0  0  0  0  0
  -25.6656  -22.8504   21.5666 C   0  0  0  0  0  0  0  0  0  0  0  0
  -29.4739  -10.9556   19.0563 C   0  0  0  0  0  0  0  0  0  0  0  0
  -30.4193  -13.0423   20.1350 C   0  0  0  0  0  0  0  0  0  0  0  0
  -27.9959  -12.8963   19.7170 C   0  0  0  0  0  0  0  0  0  0  0  0
  -26.2637  -21.0671   19.8686 C   0  0  0  0  0  0  0  0  0  0  0  0
  -25.8403  -33.5689   25.0010 C   0  0  1  0  0  0  0  0  0  0  0  0
  -24.6168  -32.0499   21.7408 C   0  0  1  0  0  0  0  0  0  0  0  0
  -26.5592  -23.8605   20.8350 C   0  0  0  0  0  0  0  0  0  0  0  0
  -28.1954  -11.7464   18.7161 C   0  0  2  0  0  0  0  0  0  0  0  0
  -17.5205  -29.5282   19.9280 C   0  0  0  0  0  0  0  0  0  0  0  0
  -21.6298  -30.6840   24.9924 C   0  0  0  0  0  0  0  0  0  0  0  0
  -19.4977  -29.6814   24.1457 C   0  0  0  0  0  0  0  0  0  0  0  0
  -19.8666  -32.1432   23.9842 C   0  0  0  0  0  0  0  0  0  0  0  0
  -20.4996  -29.8118   17.5783 C   0  0  0  0  0  0  0  0  0  0  0  0
  -26.0276  -25.2810   21.0174 C   0  0  0  0  0  0  0  0  0  1  0  0
  -21.1542  -30.5942   22.4563 C   0  0  1  0  0  0  0  0  0  0  0  0
  -18.8862  -30.0195   19.4737 C   0  0  2  0  0  0  0  0  0  0  0  0
  -20.5621  -30.7681   23.8834 C   0  0  0  0  0  0  0  0  0  0  0  0
  -26.2317  -10.6617   19.7402 N   0  0  0  0  0  0  0  0  0  0  0  0
  -26.9793  -10.8426   18.6381 N   0  0  0  0  0  0  0  0  0  0  0  0
  -23.4966  -31.1133   21.8500 N   0  0  0  0  0  0  0  0  0  0  0  0
  -29.1954  -13.7477   19.7484 N   0  0  0  0  0  0  0  0  0  0  0  0
  -27.1600  -10.2308   16.3570 N   0  0  0  0  0  0  0  0  0  0  0  0
  -24.9055   -7.2683   17.0891 N   0  0  0  0  0  0  0  0  0  0  0  0
  -28.0310  -15.6816   19.0656 N   0  0  0  0  0  0  0  0  0  0  0  0
  -25.2522  -33.3163   23.7030 N   0  0  0  0  0  0  0  0  0  0  0  0
  -20.1698  -30.6963   21.3844 N   0  0  0  0  0  0  0  0  0  0  0  0
  -19.1944  -29.3981   18.1547 N   0  3  0  0  0  0  0  0  0  0  0  0
  -23.6167   -9.0681   16.4903 O   0  0  0  0  0  0  0  0  0  0  0  0
  -25.8121  -31.0633   23.5220 O   0  0  0  0  0  0  0  0  0  0  0  0
  -21.9340  -32.8151   22.1634 O   0  0  0  0  0  0  0  0  0  0  0  0
  -20.5585  -28.5962   20.4812 O   0  0  0  0  0  0  0  0  0  0  0  0
  -30.3064  -15.7609   19.5105 O   0  0  0  0  0  0  0  0  0  0  0  0
  -21.3032   -8.1178   22.8692 O   0  0  0  0  0  0  0  0  0  0  0  0
  -26.9297  -26.1978   20.3993 O   0  0  0  0  0  0  0  0  0  1  0  0
  -21.6228   -2.9515   24.7693 F   0  0  0  0  0  0  0  0  0  0  0  0
  -21.5323   -7.6145   25.5778 F   0  0  0  0  0  0  0  0  0  0  0  0
  1  2  1  0  0  0  0
  1  5  2  0  0  0  0
  2  6  2  0  0  0  0
  3 12  2  0  0  0  0
  3 19  1  0  0  0  0
  4 13  1  0  0  0  0
  4 19  2  0  0  0  0
  5 22  1  0  0  0  0
  6 24  1  0  0  0  0
  7 10  2  0  0  0  0
  7 21  1  0  0  0  0
  8 11  1  0  0  0  0
  8 21  2  0  0  0  0
  9 14  2  0  0  0  0
  9 23  1  0  0  0  0
 10 26  1  0  0  0  0
 11 26  2  0  0  0  0
 12 27  1  0  0  0  0
 13 27  2  0  0  0  0
 14 28  1  0  0  0  0
 15 16  2  0  0  0  0
 15 29  1  0  0  0  0
 16 30  1  0  0  0  0
 17 25  1  0  0  0  0
 17 28  2  0  0  0  0
 18 30  2  0  0  0  0
 18 31  1  0  0  0  0
 19 32  1  0  0  0  0
 20 32  1  0  0  0  0
 20 33  2  0  0  0  0
 20 34  1  0  0  0  0
 21 52  1  0  0  0  0
 22 24  2  0  0  0  0
 22 39  1  0  0  0  0
 23 25  2  0  0  0  0
 23 40  1  0  0  0  0
 24 53  1  0  0  0  0
 25 41  1  0  0  0  0
 26 72  1  0  0  0  0
 27 81  1  0  0  0  0
 28 82  1  0  0  0  0
 29 31  2  0  0  0  0
 29 81  1  0  0  0  0
 30 83  1  0  0  0  0
 31 84  1  0  0  0  0
 32 66  2  0  0  0  0
 33 67  1  0  0  0  0
 33 70  1  0  0  0  0
 34 71  1  0  0  0  0
 34 76  2  0  0  0  0
 35 54  1  0  0  0  0
 35 73  1  0  0  0  0
 35 77  2  0  0  0  0
 36 63  1  0  0  0  0
 36 68  1  0  0  0  0
 36 78  2  0  0  0  0
 37 64  1  0  0  0  0
 37 74  1  0  0  0  0
 37 79  2  0  0  0  0
 38 69  1  0  0  0  0
 38 72  1  0  0  0  0
 38 80  2  0  0  0  0
 39 42  1  0  0  0  0
 40 54  1  0  0  0  0
 41 68  1  0  0  0  0
 42 46  1  0  0  0  0
 43 49  1  0  0  0  0
 43 50  1  0  0  0  0
 44 47  1  0  0  0  0
 44 52  1  0  0  0  0
 45 48  1  0  0  0  0
 45 52  1  0  0  0  0
 46 53  1  0  0  0  0
 47 55  1  0  0  0  0
 48 55  1  0  0  0  0
 49 56  1  0  0  0  0
 50 69  1  0  0  0  0
 51 56  1  0  0  0  0
 51 69  1  0  0  0  0
 53 73  1  0  0  0  0
 54 68  1  0  0  0  0
 55 62  1  0  0  0  0
 56 67  1  0  0  0  0
 57 64  1  0  0  0  0
 58 65  1  0  0  0  0
 59 65  1  0  0  0  0
 60 65  1  0  0  0  0
 61 75  1  0  0  0  0
 62 82  1  0  0  0  0
 63 65  1  0  0  0  0
 63 74  1  0  0  0  0
 64 75  1  0  0  0  0
 66 67  1  0  0  0  0
M  CHG  1  75   1
M  ISO  4  38 100  62 101  72 100  82 101
M  END
> <Batch ID>
0147

> <Smiles>
CNC(C)C(=O)NC(C(=O)N1Cc2cc([101O:1][101CH2:1]C3CCC(c4ccc([100NH:0][100C:0](=O)N5CCCC(n6nc(-c7ccc(Oc8ccc(F)cc8F)cc7)c(C(N)=O)c6N)C5)cc4)CC3)ccc2CC1C(=O)NC1CCCc2ccccc21)C(C)(C)C

> <Shape>
0.285

> <Color>
0.091

> <Negative vol penalty>
0.000

$$$$

  -OEChem-04052303133D

 84 93  0     1  0  0  0  0  0999 V2000
  -16.6073  -28.6372   23.0514 C   0  0  0  0  0  0  0  0  0  0  0  0
  -17.5374  -28.3137   22.0687 C   0  0  0  0  0  0  0  0  0  0  0  0
  -22.6271  -10.3112   20.8090 C   0  0  0  0  0  0  0  0  0  0  0  0
  -24.5212   -9.0951   21.6868 C   0  0  0  0  0  0  0  0  0  0  0  0
  -16.8599  -29.6908   23.9289 C   0  0  0  0  0  0  0  0  0  0  0  0
  -18.7203  -29.0444   21.9623 C   0  0  0  0  0  0  0  0  0  0  0  0
  -26.5415  -18.9650   13.2781 C   0  0  0  0  0  0  0  0  0  0  0  0
  -22.7813  -26.0858   21.3301 C   0  0  0  0  0  0  0  0  0  0  0  0
  -26.1082  -20.2326   13.6929 C   0  0  0  0  0  0  0  0  0  0  0  0
  -21.8553   -9.1507   20.8666 C   0  0  0  0  0  0  0  0  0  0  0  0
  -23.7494   -7.9346   21.7445 C   0  0  0  0  0  0  0  0  0  0  0  0
  -22.9971  -25.5646   20.0551 C   0  0  0  0  0  0  0  0  0  0  0  0
  -21.3917   -6.6114   23.7720 C   0  0  0  0  0  0  0  0  0  0  0  0
  -21.4725   -5.8381   24.9300 C   0  0  0  0  0  0  0  0  0  0  0  0
  -24.6414  -27.2799   19.6388 C   0  0  0  0  0  0  0  0  0  0  0  0
  -26.2320  -19.5994   16.0552 C   0  0  0  0  0  0  0  0  0  0  0  0
  -22.2569   -3.9634   23.6235 C   0  0  0  0  0  0  0  0  0  0  0  0
  -23.9601  -10.2833   21.2190 C   0  0  0  0  0  0  0  0  0  0  0  0
  -24.9130  -12.4510   22.1682 C   0  0  0  0  0  0  0  0  0  0  0  0
  -18.0508  -30.4286   23.8394 C   0  0  0  0  0  0  0  0  0  0  0  0
  -23.4872  -27.2164   21.7657 C   0  0  0  0  0  0  0  0  0  0  0  0
  -18.9884  -30.1097   22.8386 C   0  0  0  0  0  0  0  0  0  0  0  0
  -26.8095  -18.0543   14.2635 C   0  0  0  0  0  0  0  0  0  0  0  0
  -24.4346  -27.8120   20.9207 C   0  0  0  0  0  0  0  0  0  0  0  0
  -26.6605  -18.3904   15.5867 C   0  0  0  0  0  0  0  0  0  0  0  0
  -25.9543  -20.5449   15.0664 C   0  0  0  0  0  0  0  0  0  0  0  0
  -22.4165   -7.9625   21.3344 C   0  0  0  0  0  0  0  0  0  0  0  0
  -23.9251  -26.1634   19.2082 C   0  0  0  0  0  0  0  0  0  0  0  0
  -21.7435   -6.0607   22.5397 C   0  0  0  0  0  0  0  0  0  0  0  0
  -21.9051   -4.5141   24.8558 C   0  0  0  0  0  0  0  0  0  0  0  0
  -22.1761   -4.7367   22.4654 C   0  0  0  0  0  0  0  0  0  0  0  0
  -24.7580  -11.4816   21.1592 C   0  0  0  0  0  0  0  0  0  0  0  0
  -25.7640  -13.3811   21.6230 C   0  0  0  0  0  0  0  0  0  0  0  0
  -24.5776  -24.3593   17.8702 C   0  0  0  0  0  0  0  0  0  1  0  0
  -24.3392  -12.5057   23.4810 C   0  0  0  0  0  0  0  0  0  0  0  0
  -24.8235  -23.7444   16.7070 C   0  0  0  0  0  0  0  0  0  0  0  0
  -25.3007  -22.3231   16.7221 C   0  0  0  0  0  0  0  0  0  0  0  0
  -22.6792  -30.1548   22.6694 C   0  0  0  0  0  0  0  0  0  0  0  0
  -25.8360  -30.3844   23.3797 C   0  0  0  0  0  0  0  0  0  0  0  0
  -29.0180  -29.2824   22.8253 C   0  0  0  0  0  0  0  0  0  0  0  0
  -26.9579  -16.6245   17.2982 C   0  0  0  0  0  0  0  0  0  0  0  0
  -18.2582  -31.5891   24.7801 C   0  0  0  0  0  0  0  0  0  0  0  0
  -23.2623  -27.7504   23.1538 C   0  0  0  0  0  0  0  0  0  0  0  0
  -27.2462  -16.6685   14.6421 C   0  0  0  0  0  0  0  0  0  0  0  0
  -25.2331  -29.0154   21.3481 C   0  0  0  0  0  0  0  0  0  0  0  0
  -19.7045  -32.0737   24.8398 C   0  0  0  0  0  0  0  0  0  0  0  0
  -28.5769  -13.2603   17.4601 C   0  0  0  0  0  0  0  0  0  0  0  0
  -20.2792  -32.2134   23.4338 C   0  0  0  0  0  0  0  0  0  0  0  0
  -27.6640  -12.5577   18.4561 C   0  0  0  0  0  0  0  0  0  0  0  0
  -27.8419  -14.3181   16.6368 C   0  0  0  0  0  0  0  0  0  0  0  0
  -26.1914  -14.5976   18.4729 C   0  0  0  0  0  0  0  0  0  0  0  0
  -20.2943  -30.8630   22.7073 C   0  0  1  0  0  0  0  0  0  0  0  0
  -23.6647  -29.2143   23.3034 C   0  0  1  0  0  0  0  0  0  0  0  0
  -26.9565  -13.5908   19.3420 C   0  0  1  0  0  0  0  0  0  0  0  0
  -31.3932  -29.6875   23.5265 C   0  0  0  0  0  0  0  0  0  0  0  0
  -25.9120  -32.9029   21.6589 C   0  0  0  0  0  0  0  0  0  0  0  0
  -28.4082  -32.7149   21.6169 C   0  0  0  0  0  0  0  0  0  0  0  0
  -27.2208  -33.0521   23.7847 C   0  0  0  0  0  0  0  0  0  0  0  0
  -29.2997  -26.5297   23.8751 C   0  0  0  0  0  0  0  0  0  0  0  0
  -27.0732  -30.8097   22.6264 C   0  0  1  0  0  0  0  0  0  0  0  0
  -30.1273  -28.8845   23.7822 C   0  0  2  0  0  0  0  0  0  0  0  0
  -27.1373  -32.3484   22.4126 C   0  0  0  0  0  0  0  0  0  0  0  0
  -25.4545  -11.7693   20.0564 N   0  0  0  0  0  0  0  0  0  0  0  0
  -26.0553  -12.9300   20.3692 N   0  0  0  0  0  0  0  0  0  0  0  0
  -27.0366  -17.1384   16.0270 N   0  0  0  0  0  0  0  0  0  0  0  0
  -24.9727  -29.5041   22.7122 N   0  0  0  0  0  0  0  0  0  0  0  0
  -27.0496  -15.2347   17.4638 N   0  0  0  0  0  0  0  0  0  0  0  0
  -26.2839  -14.5326   22.0985 N   0  0  0  0  0  0  0  0  0  0  0  0
  -23.4865  -11.4679   23.8813 N   0  0  0  0  0  0  0  0  0  0  0  0
  -25.5140  -21.8178   15.4337 N   0  0  0  0  0  0  0  0  0  0  0  0
  -21.3971  -30.0503   23.1740 N   0  0  0  0  0  0  0  0  0  0  0  0
  -28.2075  -30.2607   23.3614 N   0  0  0  0  0  0  0  0  0  0  0  0
  -30.4495  -27.4376   23.6288 N   0  3  0  0  0  0  0  0  0  0  0  0
  -24.5627  -13.4553   24.2696 O   0  0  0  0  0  0  0  0  0  0  0  0
  -25.4660  -21.7252   17.7800 O   0  0  0  0  0  0  0  0  0  0  0  0
  -23.0547  -30.9198   21.7888 O   0  0  0  0  0  0  0  0  0  0  0  0
  -25.6463  -30.8117   24.5213 O   0  0  0  0  0  0  0  0  0  0  0  0
  -28.8861  -28.7786   21.7121 O   0  0  0  0  0  0  0  0  0  0  0  0
  -26.7609  -17.3724   18.2665 O   0  0  0  0  0  0  0  0  0  0  0  0
  -24.6537  -24.3679   15.4875 O   0  0  0  0  0  0  0  0  0  0  0  0
  -21.6636   -6.8300   21.3910 O   0  0  0  0  0  0  0  0  0  0  0  0
  -24.1387  -25.6535   17.9543 O   0  0  0  0  0  0  0  0  0  1  0  0
  -21.9840   -3.7721   25.9682 F   0  0  0  0  0  0  0  0  0  0  0  0
  -22.5166   -4.2025   21.2845 F   0  0  0  0  0  0  0  0  0  0  0  0
  1  2  1  0  0  0  0
  1  5  2  0  0  0  0
  2  6  2  0  0  0  0
  3 10  2  0  0  0  0
  3 18  1  0  0  0  0
  4 11  1  0  0  0  0
  4 18  2  0  0  0  0
  5 20  1  0  0  0  0
  6 22  1  0  0  0  0
  7  9  2  0  0  0  0
  7 23  1  0  0  0  0
  8 12  2  0  0  0  0
  8 21  1  0  0  0  0
  9 26  1  0  0  0  0
 10 27  1  0  0  0  0
 11 27  2  0  0  0  0
 12 28  1  0  0  0  0
 13 14  2  0  0  0  0
 13 29  1  0  0  0  0
 14 30  1  0  0  0  0
 15 24  1  0  0  0  0
 15 28  2  0  0  0  0
 16 25  1  0  0  0  0
 16 26  2  0  0  0  0
 17 30  2  0  0  0  0
 17 31  1  0  0  0  0
 18 32  1  0  0  0  0
 19 32  1  0  0  0  0
 19 33  2  0  0  0  0
 19 35  1  0  0  0  0
 20 22  2  0  0  0  0
 20 42  1  0  0  0  0
 21 24  2  0  0  0  0
 21 43  1  0  0  0  0
 22 52  1  0  0  0  0
 23 25  2  0  0  0  0
 23 44  1  0  0  0  0
 24 45  1  0  0  0  0
 25 65  1  0  0  0  0
 26 70  1  0  0  0  0
 27 81  1  0  0  0  0
 28 82  1  0  0  0  0
 29 31  2  0  0  0  0
 29 81  1  0  0  0  0
 30 83  1  0  0  0  0
 31 84  1  0  0  0  0
 32 63  2  0  0  0  0
 33 64  1  0  0  0  0
 33 68  1  0  0  0  0
 34 36  2  0  0  0  0
 34 82  1  0  0  0  0
 35 69  1  0  0  0  0
 35 74  2  0  0  0  0
 36 37  1  0  0  0  0
 36 80  1  0  0  0  0
 37 70  1  0  0  0  0
 37 75  2  0  0  0  0
 38 53  1  0  0  0  0
 38 71  1  0  0  0  0
 38 76  2  0  0  0  0
 39 60  1  0  0  0  0
 39 66  1  0  0  0  0
 39 77  2  0  0  0  0
 40 61  1  0  0  0  0
 40 72  1  0  0  0  0
 40 78  2  0  0  0  0
 41 65  1  0  0  0  0
 41 67  1  0  0  0  0
 41 79  2  0  0  0  0
 42 46  1  0  0  0  0
 43 53  1  0  0  0  0
 44 65  1  0  0  0  0
 45 66  1  0  0  0  0
 46 48  1  0  0  0  0
 47 49  1  0  0  0  0
 47 50  1  0  0  0  0
 48 52  1  0  0  0  0
 49 54  1  0  0  0  0
 50 67  1  0  0  0  0
 51 54  1  0  0  0  0
 51 67  1  0  0  0  0
 52 71  1  0  0  0  0
 53 66  1  0  0  0  0
 54 64  1  0  0  0  0
 55 61  1  0  0  0  0
 56 62  1  0  0  0  0
 57 62  1  0  0  0  0
 58 62  1  0  0  0  0
 59 73  1  0  0  0  0
 60 62  1  0  0  0  0
 60 72  1  0  0  0  0
 61 73  1  0  0  0  0
 63 64  1  0  0  0  0
M  CHG  1  73   1
M  ISO  4  34 101  41 100  65 100  82 101
M  END
> <Batch ID>
0147

> <Smiles>
CNC(C)C(=O)NC(C(=O)N1Cc2cc([101O:1][101CH2:1]C(=O)C(=O)Nc3ccc4c(c3)[100N:0]([100C:0](=O)N3CCCC(n5nc(-c6ccc(Oc7ccc(F)cc7F)cc6)c(C(N)=O)c5N)C3)C4)ccc2CC1C(=O)NC1CCCc2ccccc21)C(C)(C)C

> <Shape>
0.244

> <Color>
0.106

> <Negative vol penalty>
0.000

$$$$

  -OEChem-04052303133D

 85 93  0     1  0  0  0  0  0999 V2000
  -27.6064  -37.9657   25.8308 C   0  0  0  0  0  0  0  0  0  0  0  0
  -27.6027  -36.7324   26.4746 C   0  0  0  0  0  0  0  0  0  0  0  0
  -24.2702   -9.0410   21.5032 C   0  0  0  0  0  0  0  0  0  0  0  0
  -24.4100  -10.5889   23.3529 C   0  0  0  0  0  0  0  0  0  0  0  0
  -26.6691  -38.2332   24.8339 C   0  0  0  0  0  0  0  0  0  0  0  0
  -26.6609  -35.7663   26.1226 C   0  0  0  0  0  0  0  0  0  0  0  0
  -28.7104  -29.2850   23.7385 C   0  0  0  0  0  0  0  0  0  0  0  0
  -23.8683   -8.0317   22.3781 C   0  0  0  0  0  0  0  0  0  0  0  0
  -24.0081   -9.5796   24.2278 C   0  0  0  0  0  0  0  0  0  0  0  0
  -29.0222  -27.9510   23.4748 C   0  0  0  0  0  0  0  0  0  0  0  0
  -21.0333   -7.0925   23.9635 C   0  0  0  0  0  0  0  0  0  0  0  0
  -19.9599   -6.2897   23.5777 C   0  0  0  0  0  0  0  0  0  0  0  0
  -26.6766  -27.4535   23.1610 C   0  0  0  0  0  0  0  0  0  0  0  0
  -29.5838  -19.0887   18.4957 C   0  0  0  0  0  0  0  0  0  0  0  0
  -21.3802   -4.3383   23.6866 C   0  0  0  0  0  0  0  0  0  0  0  0
  -27.8088  -20.5821   18.6422 C   0  0  0  0  0  0  0  0  0  0  0  0
  -24.5412  -10.3196   21.9906 C   0  0  0  0  0  0  0  0  0  0  0  0
  -24.1298  -12.2661   20.3939 C   0  0  0  0  0  0  0  0  0  0  0  0
  -25.7215  -37.2663   24.4628 C   0  0  0  0  0  0  0  0  0  0  0  0
  -27.3801  -29.7120   23.6993 C   0  0  0  0  0  0  0  0  0  0  0  0
  -25.7091  -36.0216   25.1207 C   0  0  0  0  0  0  0  0  0  0  0  0
  -26.3593  -28.7911   23.4121 C   0  0  0  0  0  0  0  0  0  0  0  0
  -29.1272  -20.4206   18.2771 C   0  0  0  0  0  0  0  0  0  0  0  0
  -23.7372   -8.3010   23.7404 C   0  0  0  0  0  0  0  0  0  0  0  0
  -28.0078  -27.0376   23.1870 C   0  0  0  0  0  0  0  0  0  0  0  0
  -22.2803   -6.5182   24.2107 C   0  0  0  0  0  0  0  0  0  0  0  0
  -20.1333   -4.9126   23.4393 C   0  0  0  0  0  0  0  0  0  0  0  0
  -22.4537   -5.1411   24.0723 C   0  0  0  0  0  0  0  0  0  0  0  0
  -24.9569  -11.3624   21.0874 C   0  0  0  0  0  0  0  0  0  0  0  0
  -25.0015  -13.0474   19.6754 C   0  0  0  0  0  0  0  0  0  0  0  0
  -28.5968  -18.2830   19.0198 C   0  0  0  0  0  0  0  0  0  0  0  0
  -22.7013  -12.3885   20.3989 C   0  0  0  0  0  0  0  0  0  0  0  0
  -24.9663  -32.5619   24.0569 C   0  0  0  0  0  0  0  0  0  0  0  0
  -29.5376  -24.2300   21.4728 C   0  0  0  0  0  0  0  0  0  0  0  0
  -24.0208  -30.8879   21.6665 C   0  0  0  0  0  0  0  0  0  0  0  0
  -23.5573  -29.0194   18.8503 C   0  0  0  0  0  0  0  0  0  0  0  0
  -29.6884  -16.0289   19.2923 C   0  0  0  0  0  0  0  0  0  0  0  0
  -24.6981  -37.6186   23.4124 C   0  0  0  0  0  0  0  0  0  0  0  0
  -26.9923  -31.1259   24.0372 C   0  0  0  0  0  0  0  0  0  0  0  0
  -24.9394  -29.2881   23.4149 C   0  0  0  0  0  0  0  0  0  0  0  0
  -23.9723  -36.4047   22.8379 C   0  0  0  0  0  0  0  0  0  0  0  0
  -29.9602  -12.5115   18.8118 C   0  0  0  0  0  0  0  0  0  0  0  0
  -23.5196  -35.4738   23.9582 C   0  0  0  0  0  0  0  0  0  0  0  0
  -28.6147  -11.9733   19.3040 C   0  0  0  0  0  0  0  0  0  0  0  0
  -30.4430  -13.6895   19.6563 C   0  0  0  0  0  0  0  0  0  0  0  0
  -28.1303  -14.2462   20.2972 C   0  0  0  0  0  0  0  0  0  0  0  0
  -24.7192  -34.9388   24.7496 C   0  0  1  0  0  0  0  0  0  0  0  0
  -25.7948  -31.6360   23.2156 C   0  0  1  0  0  0  0  0  0  0  0  0
  -27.5718  -13.1003   19.4377 C   0  0  2  0  0  0  0  0  0  0  0  0
  -22.0381  -28.7906   16.8661 C   0  0  0  0  0  0  0  0  0  0  0  0
  -32.1661  -21.9474   19.8291 C   0  0  0  0  0  0  0  0  0  0  0  0
  -21.9063  -29.5889   23.4400 C   0  0  0  0  0  0  0  0  0  0  0  0
  -20.9137  -28.5626   21.3833 C   0  0  0  0  0  0  0  0  0  0  0  0
  -20.9933  -31.0443   21.6227 C   0  0  0  0  0  0  0  0  0  0  0  0
  -25.7674  -29.5398   16.9519 C   0  0  0  0  0  0  0  0  0  0  0  0
  -30.8412  -23.8467   20.7857 C   0  0  0  0  0  0  0  0  0  0  0  0
  -29.5883  -25.4836   22.3240 C   0  0  0  0  0  0  0  0  0  1  0  0
  -30.0891  -22.7737   18.6128 C   0  0  0  0  0  0  0  0  0  0  0  0
  -29.9903  -21.5268   17.7110 C   0  0  2  0  0  0  0  0  0  0  0  0
  -23.1324  -29.7730   21.1753 C   0  0  1  0  0  0  0  0  0  0  0  0
  -23.3142  -29.4176   17.4057 C   0  0  2  0  0  0  0  0  0  0  0  0
  -30.7584  -22.5315   19.9880 C   0  0  1  0  0  0  0  0  0  0  0  0
  -21.7637  -29.7376   21.9121 C   0  0  0  0  0  0  0  0  0  0  0  0
  -26.2544  -11.5509   20.8323 N   0  0  0  0  0  0  0  0  0  0  0  0
  -26.2491  -12.5820   19.9704 N   0  0  0  0  0  0  0  0  0  0  0  0
  -24.8637  -30.5962   22.7458 N   0  0  0  0  0  0  0  0  0  0  0  0
  -29.4049  -14.7195   19.7349 N   0  0  0  0  0  0  0  0  0  0  0  0
  -24.8148  -14.0801   18.8262 N   0  0  0  0  0  0  0  0  0  0  0  0
  -21.9578  -11.5051   21.1933 N   0  0  0  0  0  0  0  0  0  0  0  0
  -28.6148  -16.9140   19.3851 N   0  0  0  0  0  0  0  0  0  0  0  0
  -25.3779  -33.8803   24.0148 N   0  0  0  0  0  0  0  0  0  0  0  0
  -23.0287  -29.9404   19.7298 N   0  0  0  0  0  0  0  0  0  0  0  0
  -29.4937  -21.9809   16.3692 N   0  3  0  0  0  0  0  0  0  0  0  0
  -24.4520  -28.9789   16.5490 N   0  3  0  0  0  0  0  0  0  0  0  0
  -22.1010  -13.2449   19.7063 O   0  0  0  0  0  0  0  0  0  0  0  0
  -24.0217  -32.1144   24.6966 O   0  0  0  0  0  0  0  0  0  0  0  0
  -28.5134  -23.5559   21.3748 O   0  0  0  0  0  0  0  0  0  0  0  0
  -23.9668  -31.9901   21.1138 O   0  0  0  0  0  0  0  0  0  0  0  0
  -24.1530  -27.9920   19.1668 O   0  0  0  0  0  0  0  0  0  0  0  0
  -30.7934  -16.3352   18.8372 O   0  0  0  0  0  0  0  0  0  0  0  0
  -23.3448   -7.3165   24.5944 O   0  0  0  0  0  0  0  0  0  0  0  0
  -28.3197  -25.7378   22.9260 O   0  0  0  0  0  0  0  0  0  1  0  0
  -19.1020   -4.1416   23.0704 F   0  0  0  0  0  0  0  0  0  0  0  0
  -23.6489   -4.5836   24.3096 F   0  0  0  0  0  0  0  0  0  0  0  0
  -27.1269  -19.1319   19.2458 S   0  0  0  0  0  0  0  0  0  0  0  0
  1  2  1  0  0  0  0
  1  5  2  0  0  0  0
  2  6  2  0  0  0  0
  3  8  2  0  0  0  0
  3 17  1  0  0  0  0
  4  9  1  0  0  0  0
  4 17  2  0  0  0  0
  5 19  1  0  0  0  0
  6 21  1  0  0  0  0
  7 10  2  0  0  0  0
  7 20  1  0  0  0  0
  8 24  1  0  0  0  0
  9 24  2  0  0  0  0
 10 25  1  0  0  0  0
 11 12  2  0  0  0  0
 11 26  1  0  0  0  0
 12 27  1  0  0  0  0
 13 22  1  0  0  0  0
 13 25  2  0  0  0  0
 14 23  1  0  0  0  0
 14 31  2  0  0  0  0
 15 27  2  0  0  0  0
 15 28  1  0  0  0  0
 16 23  2  0  0  0  0
 16 85  1  0  0  0  0
 17 29  1  0  0  0  0
 18 29  1  0  0  0  0
 18 30  2  0  0  0  0
 18 32  1  0  0  0  0
 19 21  2  0  0  0  0
 19 38  1  0  0  0  0
 20 22  2  0  0  0  0
 20 39  1  0  0  0  0
 21 47  1  0  0  0  0
 22 40  1  0  0  0  0
 23 59  1  0  0  0  0
 24 81  1  0  0  0  0
 25 82  1  0  0  0  0
 26 28  2  0  0  0  0
 26 81  1  0  0  0  0
 27 83  1  0  0  0  0
 28 84  1  0  0  0  0
 29 64  2  0  0  0  0
 30 65  1  0  0  0  0
 30 68  1  0  0  0  0
 31 70  1  0  0  0  0
 31 85  1  0  0  0  0
 32 69  1  0  0  0  0
 32 75  2  0  0  0  0
 33 48  1  0  0  0  0
 33 71  1  0  0  0  0
 33 76  2  0  0  0  0
 34 56  1  0  0  0  0
 34 57  1  0  0  0  0
 34 77  2  0  0  0  0
 35 60  1  0  0  0  0
 35 66  1  0  0  0  0
 35 78  2  0  0  0  0
 36 61  1  0  0  0  0
 36 72  1  0  0  0  0
 36 79  2  0  0  0  0
 37 67  1  0  0  0  0
 37 70  1  0  0  0  0
 37 80  2  0  0  0  0
 38 41  1  0  0  0  0
 39 48  1  0  0  0  0
 40 66  1  0  0  0  0
 41 43  1  0  0  0  0
 42 44  1  0  0  0  0
 42 45  1  0  0  0  0
 43 47  1  0  0  0  0
 44 49  1  0  0  0  0
 45 67  1  0  0  0  0
 46 49  1  0  0  0  0
 46 67  1  0  0  0  0
 47 71  1  0  0  0  0
 48 66  1  0  0  0  0
 49 65  1  0  0  0  0
 50 61  1  0  0  0  0
 51 62  1  0  0  0  0
 52 63  1  0  0  0  0
 53 63  1  0  0  0  0
 54 63  1  0  0  0  0
 55 74  1  0  0  0  0
 56 62  1  0  0  0  0
 57 82  1  0  0  0  0
 58 59  1  0  0  0  0
 58 62  1  0  0  0  0
 59 73  1  0  0  0  0
 60 63  1  0  0  0  0
 60 72  1  0  0  0  0
 61 74  1  0  0  0  0
 64 65  1  0  0  0  0
M  CHG  2  73   1  74   1
M  ISO  4  37 100  57 101  70 100  82 101
M  END
> <Batch ID>
0147

> <Smiles>
CNC(C)C(=O)NC(C(=O)N1Cc2cc([101O:1][101CH2:1]C(=O)CC(C)CC(N)c3csc([100NH:0][100C:0](=O)N4CCCC(n5nc(-c6ccc(Oc7ccc(F)cc7F)cc6)c(C(N)=O)c5N)C4)c3)ccc2CC1C(=O)NC1CCCc2ccccc21)C(C)(C)C

> <Shape>
0.337

> <Color>
0.082

> <Negative vol penalty>
0.000

$$$$

  -OEChem-04052303133D

 84 92  0     1  0  0  0  0  0999 V2000
  -27.8138  -18.7622   14.6899 C   0  0  0  0  0  0  0  0  0  0  0  0
  -28.4601  -18.1188   15.7404 C   0  0  0  0  0  0  0  0  0  0  0  0
  -26.6531  -28.2591   19.0886 C   0  0  0  0  0  0  0  0  0  0  0  0
  -26.4793  -27.3647   21.3262 C   0  0  0  0  0  0  0  0  0  0  0  0
  -26.4370  -18.9749   14.7456 C   0  0  0  0  0  0  0  0  0  0  0  0
  -27.7301  -17.6885   16.8478 C   0  0  0  0  0  0  0  0  0  0  0  0
  -28.9873  -13.0037   18.3027 C   0  0  0  0  0  0  0  0  0  0  0  0
  -25.3592  -28.7696   19.1921 C   0  0  0  0  0  0  0  0  0  0  0  0
  -25.1854  -27.8752   21.4297 C   0  0  0  0  0  0  0  0  0  0  0  0
  -30.1663  -12.8585   19.0325 C   0  0  0  0  0  0  0  0  0  0  0  0
  -21.9697  -29.2538   22.4183 C   0  0  0  0  0  0  0  0  0  0  0  0
  -21.6241  -29.9126   23.5982 C   0  0  0  0  0  0  0  0  0  0  0  0
  -28.8831  -12.7493   21.0723 C   0  0  0  0  0  0  0  0  0  0  0  0
  -31.2201  -18.6853   21.9395 C   0  0  0  0  0  0  0  0  0  0  0  0
  -23.3817  -31.5249   23.2128 C   0  0  0  0  0  0  0  0  0  0  0  0
  -30.2842  -20.1984   23.4351 C   0  0  0  0  0  0  0  0  0  0  0  0
  -27.2132  -27.5566   20.1556 C   0  0  0  0  0  0  0  0  0  0  0  0
  -29.7496  -27.6749   20.4009 C   0  0  0  0  0  0  0  0  0  0  0  0
  -25.6882  -18.5385   15.8499 C   0  0  0  0  0  0  0  0  0  0  0  0
  -27.7460  -13.0338   18.9543 C   0  0  0  0  0  0  0  0  0  0  0  0
  -26.3422  -17.8968   16.9190 C   0  0  0  0  0  0  0  0  0  0  0  0
  -27.6896  -12.8924   20.3482 C   0  0  0  0  0  0  0  0  0  0  0  0
  -30.6396  -19.9734   22.1233 C   0  0  0  0  0  0  0  0  0  0  0  0
  -24.6253  -28.5777   20.3627 C   0  0  0  0  0  0  0  0  0  0  0  0
  -30.1145  -12.7341   20.4178 C   0  0  0  0  0  0  0  0  0  0  0  0
  -23.0214  -29.7305   21.6356 C   0  0  0  0  0  0  0  0  0  0  0  0
  -22.3301  -31.0481   23.9954 C   0  0  0  0  0  0  0  0  0  0  0  0
  -23.7273  -30.8661   22.0329 C   0  0  0  0  0  0  0  0  0  0  0  0
  -28.5496  -27.0285   20.0491 C   0  0  0  0  0  0  0  0  0  0  0  0
  -30.7309  -26.7584   20.1117 C   0  0  0  0  0  0  0  0  0  0  0  0
  -31.2865  -17.9748   23.1180 C   0  0  0  0  0  0  0  0  0  0  0  0
  -29.9587  -28.9866   20.9410 C   0  0  0  0  0  0  0  0  0  0  0  0
  -25.4114  -15.1726   19.2353 C   0  0  0  0  0  0  0  0  0  0  0  0
  -32.7982  -14.5564   22.7336 C   0  0  0  0  0  0  0  0  0  0  0  0
  -23.8882  -12.7354   20.7394 C   0  0  0  0  0  0  0  0  0  0  0  0
  -24.1195   -9.8089   22.4798 C   0  0  0  0  0  0  0  0  0  0  0  0
  -30.7665  -20.7945   19.7451 C   0  0  0  0  0  0  0  0  0  0  0  0
  -24.2095  -18.8331   15.8865 C   0  0  0  0  0  0  0  0  0  0  0  0
  -26.4815  -13.1643   18.1502 C   0  0  0  0  0  0  0  0  0  0  0  0
  -26.3809  -12.8982   21.0936 C   0  0  0  0  0  0  0  0  0  0  0  0
  -23.4506  -18.0128   16.9264 C   0  0  0  0  0  0  0  0  0  0  0  0
  -31.6838  -23.0908   17.1834 C   0  0  0  0  0  0  0  0  0  0  0  0
  -24.1905  -18.0258   18.2603 C   0  0  0  0  0  0  0  0  0  0  0  0
  -31.0986  -24.4213   17.6626 C   0  0  0  0  0  0  0  0  0  0  0  0
  -30.7723  -21.9139   17.5266 C   0  0  0  0  0  0  0  0  0  0  0  0
  -29.7955  -23.1537   19.4181 C   0  0  0  0  0  0  0  0  0  0  0  0
  -25.5810  -17.3934   18.1261 C   0  0  1  0  0  0  0  0  0  0  0  0
  -25.3076  -13.6982   18.9652 C   0  0  1  0  0  0  0  0  0  0  0  0
  -30.7089  -24.3615   19.1526 C   0  0  2  0  0  0  0  0  0  0  0  0
  -22.7040   -8.0711   23.6086 C   0  0  0  0  0  0  0  0  0  0  0  0
  -33.8291  -12.2734   22.4797 C   0  0  0  0  0  0  0  0  0  0  0  0
  -34.6857  -14.1970   21.1333 C   0  0  0  0  0  0  0  0  0  0  0  0
  -23.4320  -14.6336   23.0843 C   0  0  0  0  0  0  0  0  0  0  0  0
  -22.8943  -12.6414   24.5021 C   0  0  0  0  0  0  0  0  0  0  0  0
  -21.4756  -13.1806   22.5224 C   0  0  0  0  0  0  0  0  0  0  0  0
  -25.1025   -7.6735   20.6819 C   0  0  0  0  0  0  0  0  0  0  0  0
  -32.3424  -15.9068   22.2048 C   0  0  0  0  0  0  0  0  0  0  0  0
  -32.4386  -13.2043   20.6011 C   0  0  0  0  0  0  0  0  0  1  0  0
  -23.7985  -12.2487   22.1656 C   0  0  1  0  0  0  0  0  0  0  0  0
  -23.3991   -8.4822   22.3199 C   0  0  2  0  0  0  0  0  0  0  0  0
  -33.4233  -13.5579   21.7307 C   0  0  0  0  0  0  0  0  0  0  0  0
  -22.9250  -13.1779   23.0551 C   0  0  0  0  0  0  0  0  0  0  0  0
  -28.7480  -25.7966   19.5726 N   0  0  0  0  0  0  0  0  0  0  0  0
  -30.0841  -25.6616   19.6229 N   0  0  0  0  0  0  0  0  0  0  0  0
  -25.1727  -13.0347   20.2635 N   0  0  0  0  0  0  0  0  0  0  0  0
  -30.4488  -21.9194   18.9549 N   0  0  0  0  0  0  0  0  0  0  0  0
  -32.0752  -26.7919   20.2303 N   0  0  0  0  0  0  0  0  0  0  0  0
  -28.8405  -29.7977   21.1775 N   0  0  0  0  0  0  0  0  0  0  0  0
  -30.4416  -20.9275   21.0946 N   0  0  0  0  0  0  0  0  0  0  0  0
  -31.7949  -16.6956   23.2818 N   0  0  0  0  0  0  0  0  0  0  0  0
  -25.4789  -15.9501   18.0949 N   0  0  0  0  0  0  0  0  0  0  0  0
  -23.3263  -10.8700   22.0976 N   0  0  0  0  0  0  0  0  0  0  0  0
  -24.3643   -7.4108   21.9441 N   0  3  0  0  0  0  0  0  0  0  0  0
  -31.1043  -29.4323   21.1905 O   0  0  0  0  0  0  0  0  0  0  0  0
  -25.4274  -15.5751   20.3926 O   0  0  0  0  0  0  0  0  0  0  0  0
  -32.6866  -14.2727   23.9292 O   0  0  0  0  0  0  0  0  0  0  0  0
  -22.8574  -12.8392   20.0699 O   0  0  0  0  0  0  0  0  0  0  0  0
  -25.2693   -9.8955   22.9050 O   0  0  0  0  0  0  0  0  0  0  0  0
  -31.3131  -19.7979   19.2654 O   0  0  0  0  0  0  0  0  0  0  0  0
  -23.3628  -29.0759   20.4641 O   0  0  0  0  0  0  0  0  0  0  0  0
  -31.2638  -12.5929   21.1326 O   0  0  0  0  0  0  0  0  0  1  0  0
  -21.9971  -31.6815   25.1277 F   0  0  0  0  0  0  0  0  0  0  0  0
  -24.7378  -31.3295   21.2846 F   0  0  0  0  0  0  0  0  0  0  0  0
  -30.6504  -18.8601   24.4386 S   0  0  0  0  0  0  0  0  0  0  0  0
  1  2  1  0  0  0  0
  1  5  2  0  0  0  0
  2  6  2  0  0  0  0
  3  8  2  0  0  0  0
  3 17  1  0  0  0  0
  4  9  1  0  0  0  0
  4 17  2  0  0  0  0
  5 19  1  0  0  0  0
  6 21  1  0  0  0  0
  7 10  2  0  0  0  0
  7 20  1  0  0  0  0
  8 24  1  0  0  0  0
  9 24  2  0  0  0  0
 10 25  1  0  0  0  0
 11 12  2  0  0  0  0
 11 26  1  0  0  0  0
 12 27  1  0  0  0  0
 13 22  1  0  0  0  0
 13 25  2  0  0  0  0
 14 23  1  0  0  0  0
 14 31  2  0  0  0  0
 15 27  2  0  0  0  0
 15 28  1  0  0  0  0
 16 23  2  0  0  0  0
 16 84  1  0  0  0  0
 17 29  1  0  0  0  0
 18 29  1  0  0  0  0
 18 30  2  0  0  0  0
 18 32  1  0  0  0  0
 19 21  2  0  0  0  0
 19 38  1  0  0  0  0
 20 22  2  0  0  0  0
 20 39  1  0  0  0  0
 21 47  1  0  0  0  0
 22 40  1  0  0  0  0
 23 69  1  0  0  0  0
 24 80  1  0  0  0  0
 25 81  1  0  0  0  0
 26 28  2  0  0  0  0
 26 80  1  0  0  0  0
 27 82  1  0  0  0  0
 28 83  1  0  0  0  0
 29 63  2  0  0  0  0
 30 64  1  0  0  0  0
 30 67  1  0  0  0  0
 31 70  1  0  0  0  0
 31 84  1  0  0  0  0
 32 68  1  0  0  0  0
 32 74  2  0  0  0  0
 33 48  1  0  0  0  0
 33 71  1  0  0  0  0
 33 75  2  0  0  0  0
 34 57  1  0  0  0  0
 34 61  1  0  0  0  0
 34 76  2  0  0  0  0
 35 59  1  0  0  0  0
 35 65  1  0  0  0  0
 35 77  2  0  0  0  0
 36 60  1  0  0  0  0
 36 72  1  0  0  0  0
 36 78  2  0  0  0  0
 37 66  1  0  0  0  0
 37 69  1  0  0  0  0
 37 79  2  0  0  0  0
 38 41  1  0  0  0  0
 39 48  1  0  0  0  0
 40 65  1  0  0  0  0
 41 43  1  0  0  0  0
 42 44  1  0  0  0  0
 42 45  1  0  0  0  0
 43 47  1  0  0  0  0
 44 49  1  0  0  0  0
 45 66  1  0  0  0  0
 46 49  1  0  0  0  0
 46 66  1  0  0  0  0
 47 71  1  0  0  0  0
 48 65  1  0  0  0  0
 49 64  1  0  0  0  0
 50 60  1  0  0  0  0
 51 61  1  0  0  0  0
 52 61  1  0  0  0  0
 53 62  1  0  0  0  0
 54 62  1  0  0  0  0
 55 62  1  0  0  0  0
 56 73  1  0  0  0  0
 57 70  1  0  0  0  0
 58 61  1  0  0  0  0
 58 81  1  0  0  0  0
 59 62  1  0  0  0  0
 59 72  1  0  0  0  0
 60 73  1  0  0  0  0
 63 64  1  0  0  0  0
M  CHG  1  73   1
M  ISO  4  37 100  58 101  69 100  81 101
M  END
> <Batch ID>
0147

> <Smiles>
CNC(C)C(=O)NC(C(=O)N1Cc2cc([101O:1][101CH2:1]C(C)(C)C(=O)CNc3cc([100NH:0][100C:0](=O)N4CCCC(n5nc(-c6ccc(Oc7ccc(F)cc7F)cc6)c(C(N)=O)c5N)C4)cs3)ccc2CC1C(=O)NC1CCCc2ccccc21)C(C)(C)C

> <Shape>
0.273

> <Color>
0.060

> <Negative vol penalty>
0.000

$$$$

  -OEChem-04052303133D

 86 94  0     1  0  0  0  0  0999 V2000
  -28.4607  -25.7079   15.6938 C   0  0  0  0  0  0  0  0  0  0  0  0
  -27.2750  -26.2270   16.2011 C   0  0  0  0  0  0  0  0  0  0  0  0
  -27.6250  -14.3108   22.2529 C   0  0  0  0  0  0  0  0  0  0  0  0
  -26.2122  -15.2982   20.5600 C   0  0  0  0  0  0  0  0  0  0  0  0
  -29.6312  -25.7908   16.4451 C   0  0  0  0  0  0  0  0  0  0  0  0
  -27.2616  -26.8398   17.4545 C   0  0  0  0  0  0  0  0  0  0  0  0
  -23.0872  -29.0612   18.8120 C   0  0  0  0  0  0  0  0  0  0  0  0
  -27.1409  -13.0459   21.9193 C   0  0  0  0  0  0  0  0  0  0  0  0
  -25.7280  -14.0333   20.2263 C   0  0  0  0  0  0  0  0  0  0  0  0
  -21.9388  -28.3551   19.1676 C   0  0  0  0  0  0  0  0  0  0  0  0
  -23.4814  -11.8230   21.4503 C   0  0  0  0  0  0  0  0  0  0  0  0
  -22.1052  -11.6821   21.2720 C   0  0  0  0  0  0  0  0  0  0  0  0
  -22.3876  -28.8087   21.4940 C   0  0  0  0  0  0  0  0  0  0  0  0
  -24.5512  -24.3219   21.8889 C   0  0  0  0  0  0  0  0  0  0  0  0
  -22.4739  -10.9619   18.9955 C   0  0  0  0  0  0  0  0  0  0  0  0
  -27.1606  -15.4370   21.5733 C   0  0  0  0  0  0  0  0  0  0  0  0
  -28.7775  -17.3993   21.3672 C   0  0  0  0  0  0  0  0  0  0  0  0
  -29.6287  -26.3939   17.7136 C   0  0  0  0  0  0  0  0  0  0  0  0
  -23.9016  -29.6380   19.7970 C   0  0  0  0  0  0  0  0  0  0  0  0
  -28.4376  -26.9546   18.2178 C   0  0  0  0  0  0  0  0  0  0  0  0
  -23.5444  -29.5238   21.1481 C   0  0  0  0  0  0  0  0  0  0  0  0
  -25.8691  -23.8437   21.6350 C   0  0  0  0  0  0  0  0  0  0  0  0
  -26.1924  -12.9072   20.9060 C   0  0  0  0  0  0  0  0  0  0  0  0
  -21.5904  -28.2263   20.5089 C   0  0  0  0  0  0  0  0  0  0  0  0
  -24.3539  -11.5334   20.4011 C   0  0  0  0  0  0  0  0  0  0  0  0
  -21.6014  -11.2515   20.0446 C   0  0  0  0  0  0  0  0  0  0  0  0
  -23.8501  -11.1029   19.1738 C   0  0  0  0  0  0  0  0  0  0  0  0
  -27.6599  -16.7439   21.9179 C   0  0  0  0  0  0  0  0  0  0  0  0
  -23.8286  -24.4884   20.7280 C   0  0  0  0  0  0  0  0  0  0  0  0
  -28.8283  -18.6035   22.0259 C   0  0  0  0  0  0  0  0  0  0  0  0
  -26.1035  -23.6625   20.2895 C   0  0  0  0  0  0  0  0  0  0  0  0
  -21.6077  -24.2239   21.1643 C   0  0  0  0  0  0  0  0  0  0  0  0
  -29.6882  -16.9591   20.3511 C   0  0  0  0  0  0  0  0  0  0  0  0
  -20.1780  -24.6433   21.0327 C   0  0  0  0  0  0  0  0  0  0  0  0
  -26.9169  -29.2492   20.7249 C   0  0  0  0  0  0  0  0  0  0  0  0
  -26.2081  -23.1363   23.9951 C   0  0  0  0  0  0  0  0  0  0  0  0
  -26.2476  -31.7859   22.6327 C   0  0  0  0  0  0  0  0  0  0  0  0
  -23.8941  -33.6461   24.2598 C   0  0  0  0  0  0  0  0  0  0  0  0
  -30.9256  -26.4635   18.4807 C   0  0  0  0  0  0  0  0  0  0  0  0
  -25.1226  -30.4193   19.3954 C   0  0  0  0  0  0  0  0  0  0  0  0
  -24.3741  -30.1417   22.2427 C   0  0  0  0  0  0  0  0  0  0  0  0
  -30.7226  -26.7276   19.9691 C   0  0  0  0  0  0  0  0  0  0  0  0
  -26.3409  -20.2427   26.1044 C   0  0  0  0  0  0  0  0  0  0  0  0
  -29.7819  -27.9073   20.1640 C   0  0  0  0  0  0  0  0  0  0  0  0
  -26.7582  -19.1230   25.1519 C   0  0  0  0  0  0  0  0  0  0  0  0
  -25.4403  -21.2596   25.4103 C   0  0  0  0  0  0  0  0  0  0  0  0
  -26.4478  -20.7272   23.2141 C   0  0  0  0  0  0  0  0  0  0  0  0
  -28.3926  -27.5984   19.5918 C   0  0  1  0  0  0  0  0  0  0  0  0
  -26.1566  -30.5276   20.5118 C   0  0  1  0  0  0  0  0  0  0  0  0
  -27.3835  -19.6946   23.8671 C   0  0  2  0  0  0  0  0  0  0  0  0
  -23.6544  -35.6358   25.7700 C   0  0  0  0  0  0  0  0  0  0  0  0
  -18.1648  -25.9498   21.7177 C   0  0  0  0  0  0  0  0  0  0  0  0
  -19.6281  -24.9338   23.4674 C   0  0  0  0  0  0  0  0  0  0  0  0
  -27.2248  -30.1120   24.9892 C   0  0  0  0  0  0  0  0  0  0  0  0
  -26.0981  -31.7392   26.5224 C   0  0  0  0  0  0  0  0  0  0  0  0
  -27.9504  -32.5048   25.0373 C   0  0  0  0  0  0  0  0  0  0  0  0
  -22.2488  -35.0999   22.2752 C   0  0  0  0  0  0  0  0  0  0  0  0
  -20.4823  -26.8779   22.1245 C   0  0  0  0  0  0  0  0  0  1  0  0
  -26.8587  -23.5772   22.7081 C   0  0  2  0  0  0  0  0  0  0  0  0
  -25.6976  -31.9585   24.0279 C   0  0  1  0  0  0  0  0  0  0  0  0
  -23.6674  -35.1454   24.3305 C   0  0  2  0  0  0  0  0  0  0  0  0
  -19.6188  -25.6043   22.0845 C   0  0  0  0  0  0  0  0  0  0  0  0
  -26.7279  -31.5652   25.1239 C   0  0  0  0  0  0  0  0  0  0  0  0
  -27.0452  -17.4713   22.8544 N   0  0  0  0  0  0  0  0  0  0  0  0
  -22.5056  -24.9368   20.5784 N   0  0  0  0  0  0  0  0  0  0  0  0
  -27.7792  -18.5962   22.8974 N   0  0  0  0  0  0  0  0  0  0  0  0
  -25.5619  -30.8904   21.7998 N   0  0  0  0  0  0  0  0  0  0  0  0
  -26.0601  -21.7620   24.1828 N   0  0  0  0  0  0  0  0  0  0  0  0
  -29.6677  -19.6572   21.9390 N   0  0  0  0  0  0  0  0  0  0  0  0
  -27.2489  -23.2165   19.7136 N   0  0  0  0  0  0  0  0  0  0  0  0
  -29.4909  -15.6948   19.7794 N   0  0  0  0  0  0  0  0  0  0  0  0
  -27.5968  -28.8060   19.6065 N   0  0  0  0  0  0  0  0  0  0  0  0
  -25.2302  -33.3378   24.1147 N   0  0  0  0  0  0  0  0  0  0  0  0
  -27.7641  -24.7375   23.0114 N   0  3  0  0  0  0  0  0  0  0  0  0
  -22.3650  -35.5027   23.7004 N   0  3  0  0  0  0  0  0  0  0  0  0
  -30.6580  -17.6592   19.9733 O   0  0  0  0  0  0  0  0  0  0  0  0
  -19.5708  -24.2181   20.0592 O   0  0  0  0  0  0  0  0  0  0  0  0
  -26.8899  -28.7060   21.8230 O   0  0  0  0  0  0  0  0  0  0  0  0
  -25.8457  -23.9894   24.8095 O   0  0  0  0  0  0  0  0  0  0  0  0
  -27.2445  -32.4275   22.2920 O   0  0  0  0  0  0  0  0  0  0  0  0
  -22.9779  -32.8298   24.3302 O   0  0  0  0  0  0  0  0  0  0  0  0
  -25.7200  -11.6730   20.5800 O   0  0  0  0  0  0  0  0  0  0  0  0
  -20.4704  -27.5370   20.8589 O   0  0  0  0  0  0  0  0  0  1  0  0
  -20.2799  -11.1148   19.8740 F   0  0  0  0  0  0  0  0  0  0  0  0
  -24.6834  -10.8220   18.1625 F   0  0  0  0  0  0  0  0  0  0  0  0
  -24.7382  -24.0687   19.3392 S   0  0  0  0  0  0  0  0  0  0  0  0
  1  2  1  0  0  0  0
  1  5  2  0  0  0  0
  2  6  2  0  0  0  0
  3  8  2  0  0  0  0
  3 16  1  0  0  0  0
  4  9  1  0  0  0  0
  4 16  2  0  0  0  0
  5 18  1  0  0  0  0
  6 20  1  0  0  0  0
  7 10  2  0  0  0  0
  7 19  1  0  0  0  0
  8 23  1  0  0  0  0
  9 23  2  0  0  0  0
 10 24  1  0  0  0  0
 11 12  2  0  0  0  0
 11 25  1  0  0  0  0
 12 26  1  0  0  0  0
 13 21  1  0  0  0  0
 13 24  2  0  0  0  0
 14 22  1  0  0  0  0
 14 29  2  0  0  0  0
 15 26  2  0  0  0  0
 15 27  1  0  0  0  0
 16 28  1  0  0  0  0
 17 28  1  0  0  0  0
 17 30  2  0  0  0  0
 17 33  1  0  0  0  0
 18 20  2  0  0  0  0
 18 39  1  0  0  0  0
 19 21  2  0  0  0  0
 19 40  1  0  0  0  0
 20 48  1  0  0  0  0
 21 41  1  0  0  0  0
 22 31  2  0  0  0  0
 22 59  1  0  0  0  0
 23 82  1  0  0  0  0
 24 83  1  0  0  0  0
 25 27  2  0  0  0  0
 25 82  1  0  0  0  0
 26 84  1  0  0  0  0
 27 85  1  0  0  0  0
 28 64  2  0  0  0  0
 29 65  1  0  0  0  0
 29 86  1  0  0  0  0
 30 66  1  0  0  0  0
 30 69  1  0  0  0  0
 31 70  1  0  0  0  0
 31 86  1  0  0  0  0
 32 34  1  0  0  0  0
 32 65  2  0  0  0  0
 33 71  1  0  0  0  0
 33 76  2  0  0  0  0
 34 62  1  0  0  0  0
 34 77  2  0  0  0  0
 35 49  1  0  0  0  0
 35 72  1  0  0  0  0
 35 78  2  0  0  0  0
 36 59  1  0  0  0  0
 36 68  1  0  0  0  0
 36 79  2  0  0  0  0
 37 60  1  0  0  0  0
 37 67  1  0  0  0  0
 37 80  2  0  0  0  0
 38 61  1  0  0  0  0
 38 73  1  0  0  0  0
 38 81  2  0  0  0  0
 39 42  1  0  0  0  0
 40 49  1  0  0  0  0
 41 67  1  0  0  0  0
 42 44  1  0  0  0  0
 43 45  1  0  0  0  0
 43 46  1  0  0  0  0
 44 48  1  0  0  0  0
 45 50  1  0  0  0  0
 46 68  1  0  0  0  0
 47 50  1  0  0  0  0
 47 68  1  0  0  0  0
 48 72  1  0  0  0  0
 49 67  1  0  0  0  0
 50 66  1  0  0  0  0
 51 61  1  0  0  0  0
 52 62  1  0  0  0  0
 53 62  1  0  0  0  0
 54 63  1  0  0  0  0
 55 63  1  0  0  0  0
 56 63  1  0  0  0  0
 57 75  1  0  0  0  0
 58 62  1  0  0  0  0
 58 83  1  0  0  0  0
 59 74  1  0  0  0  0
 60 63  1  0  0  0  0
 60 73  1  0  0  0  0
 61 75  1  0  0  0  0
 64 66  1  0  0  0  0
M  CHG  2  74   1  75   1
M  ISO  4  36 100  58 101  59 100  83 101
M  END
> <Batch ID>
0147

> <Smiles>
CNC(C)C(=O)NC(C(=O)N1Cc2cc([101O:1][101CH2:1]C(C)(C)C(=O)CNc3cc([100C:0](=N)[100C:0](=O)N4CCCC(n5nc(-c6ccc(Oc7ccc(F)cc7F)cc6)c(C(N)=O)c5N)C4)c(N)s3)ccc2CC1C(=O)NC1CCCc2ccccc21)C(C)(C)C

> <Shape>
0.265

> <Color>
0.086

> <Negative vol penalty>
0.000

$$$$

  -OEChem-04052303132D

  0  0  0     0  0  0  0  0  0999 V2000
M  END
$$$$

  -OEChem-04052303133D

 89 98  0     1  0  0  0  0  0999 V2000
  -18.8593  -25.3740   22.4477 C   0  0  0  0  0  0  0  0  0  0  0  0
  -20.1122  -25.4598   21.8491 C   0  0  0  0  0  0  0  0  0  0  0  0
  -24.2451   -9.3097   21.9743 C   0  0  0  0  0  0  0  0  0  0  0  0
  -22.8296  -10.0013   20.1426 C   0  0  0  0  0  0  0  0  0  0  0  0
  -18.1487  -26.5363   22.7443 C   0  0  0  0  0  0  0  0  0  0  0  0
  -20.6547  -26.7081   21.5457 C   0  0  0  0  0  0  0  0  0  0  0  0
  -25.5315  -27.0781   22.8590 C   0  0  0  0  0  0  0  0  0  0  0  0
  -23.5082   -8.1320   22.0990 C   0  0  0  0  0  0  0  0  0  0  0  0
  -22.0928   -8.8235   20.2672 C   0  0  0  0  0  0  0  0  0  0  0  0
  -26.4651  -26.4756   22.0169 C   0  0  0  0  0  0  0  0  0  0  0  0
  -23.3079   -5.1415   20.5338 C   0  0  0  0  0  0  0  0  0  0  0  0
  -24.0138   -3.9484   20.6877 C   0  0  0  0  0  0  0  0  0  0  0  0
  -26.9507  -28.6224   21.0295 C   0  0  0  0  0  0  0  0  0  0  0  0
  -26.0175  -20.5422   18.9863 C   0  0  0  0  0  0  0  0  0  0  0  0
  -22.9316   -3.5826   22.8166 C   0  0  0  0  0  0  0  0  0  0  0  0
  -23.9057  -10.2445   20.9961 C   0  0  0  0  0  0  0  0  0  0  0  0
  -25.8048  -11.6717   20.0664 C   0  0  0  0  0  0  0  0  0  0  0  0
  -18.6869  -27.7997   22.4532 C   0  0  0  0  0  0  0  0  0  0  0  0
  -25.2922  -28.4578   22.7850 C   0  0  0  0  0  0  0  0  0  0  0  0
  -19.9500  -27.8883   21.8374 C   0  0  0  0  0  0  0  0  0  0  0  0
  -26.0154  -29.2403   21.8735 C   0  0  0  0  0  0  0  0  0  0  0  0
  -26.6418  -21.1822   17.8769 C   0  0  0  0  0  0  0  0  0  0  0  0
  -22.4321   -7.8889   21.2455 C   0  0  0  0  0  0  0  0  0  0  0  0
  -27.1728  -27.2473   21.0999 C   0  0  0  0  0  0  0  0  0  0  0  0
  -22.4138   -5.5552   21.5214 C   0  0  0  0  0  0  0  0  0  0  0  0
  -23.8257   -3.1689   21.8290 C   0  0  0  0  0  0  0  0  0  0  0  0
  -22.2256   -4.7758   22.6627 C   0  0  0  0  0  0  0  0  0  0  0  0
  -24.6662  -11.4615   20.8671 C   0  0  0  0  0  0  0  0  0  0  0  0
  -26.9709  -20.2883   16.8818 C   0  0  0  0  0  0  0  0  0  0  0  0
  -26.1480  -12.9819   20.2947 C   0  0  0  0  0  0  0  0  0  0  0  0
  -25.8929  -19.1833   18.7967 C   0  0  0  0  0  0  0  0  0  0  0  0
  -26.4908  -10.7638   19.1941 C   0  0  0  0  0  0  0  0  0  0  0  0
  -22.7696  -30.2629   22.0908 C   0  0  0  0  0  0  0  0  0  0  0  0
  -24.7484  -32.6804   22.9639 C   0  0  0  0  0  0  0  0  0  0  0  0
  -27.9449  -33.8063   23.3656 C   0  0  0  0  0  0  0  0  0  0  0  0
  -24.7730  -18.3444   20.8915 C   0  0  0  0  0  0  0  0  0  0  0  0
  -17.8609  -29.0264   22.7492 C   0  0  0  0  0  0  0  0  0  0  0  0
  -24.3010  -29.0966   23.7188 C   0  0  0  0  0  0  0  0  0  0  0  0
  -25.8102  -30.7287   21.7685 C   0  0  0  0  0  0  0  0  0  0  0  0
  -18.6683  -30.3218   22.7375 C   0  0  0  0  0  0  0  0  0  0  0  0
  -24.4828  -16.2660   23.7679 C   0  0  0  0  0  0  0  0  0  0  0  0
  -19.5710  -30.3771   21.5091 C   0  0  0  0  0  0  0  0  0  0  0  0
  -24.5983  -14.8481   23.2038 C   0  0  0  0  0  0  0  0  0  0  0  0
  -29.9079  -23.4410   19.8004 C   0  0  0  0  0  0  0  0  0  0  0  0
  -23.7177  -17.1916   22.8235 C   0  0  0  0  0  0  0  0  0  0  0  0
  -24.3383  -15.8093   20.8809 C   0  0  0  0  0  0  0  0  0  0  0  0
  -28.8881  -22.4295   19.3250 C   0  0  0  0  0  0  0  0  0  0  0  0
  -20.5827  -29.2248   21.5156 C   0  0  1  0  0  0  0  0  0  0  0  0
  -23.7666  -30.4290   23.2025 C   0  0  1  0  0  0  0  0  0  0  0  0
  -25.1572  -14.8568   21.7674 C   0  0  2  0  0  0  0  0  0  0  0  0
  -29.3140  -24.7876   19.3870 C   0  0  1  0  0  0  0  0  0  0  0  0
  -28.7692  -24.5031   17.9580 C   0  0  0  0  0  0  0  0  0  0  0  0
  -29.8700  -24.5873   16.8762 C   0  0  0  0  0  0  0  0  0  0  0  0
  -27.6187  -25.4229   17.5299 C   0  0  0  0  0  0  0  0  0  0  0  0
  -29.1033  -20.1471   15.5707 C   0  0  0  0  0  0  0  0  0  0  0  0
  -29.2455  -35.8376   24.0582 C   0  0  0  0  0  0  0  0  0  0  0  0
  -24.1310  -33.9886   20.2774 C   0  0  0  0  0  0  0  0  0  0  0  0
  -26.1263  -35.4627   20.6156 C   0  0  0  0  0  0  0  0  0  0  0  0
  -24.2135  -35.5698   22.2132 C   0  0  0  0  0  0  0  0  0  0  0  0
  -29.2160  -32.3674   25.6178 C   0  0  0  0  0  0  0  0  0  0  0  0
  -30.9521  -25.8836   20.6535 C   0  0  0  0  0  0  0  0  0  0  0  0
  -26.9047  -22.6579   17.8120 C   0  0  0  0  0  0  0  0  0  0  0  0
  -27.6259  -20.5470   15.5795 C   0  0  0  0  0  0  0  0  0  0  0  0
  -28.2651  -25.2522   20.4055 C   0  0  0  0  0  0  0  0  0  1  0  0
  -25.7449  -33.5584   22.2462 C   0  0  1  0  0  0  0  0  0  0  0  0
  -28.6211  -34.5289   24.5167 C   0  0  2  0  0  0  0  0  0  0  0  0
  -25.0566  -34.6166   21.3385 C   0  0  0  0  0  0  0  0  0  0  0  0
  -24.3099  -12.5509   21.5530 N   0  0  0  0  0  0  0  0  0  0  0  0
  -25.2301  -13.4581   21.1840 N   0  0  0  0  0  0  0  0  0  0  0  0
  -24.8257  -31.3058   22.6987 N   0  0  0  0  0  0  0  0  0  0  0  0
  -24.3062  -17.1514   21.4830 N   0  0  0  0  0  0  0  0  0  0  0  0
  -27.1425  -13.7614   19.8196 N   0  0  0  0  0  0  0  0  0  0  0  0
  -26.0047   -9.4546   19.0763 N   0  0  0  0  0  0  0  0  0  0  0  0
  -25.3419  -18.1779   19.6293 N   0  0  0  0  0  0  0  0  0  0  0  0
  -21.6647  -29.5073   22.4342 N   0  0  0  0  0  0  0  0  0  0  0  0
  -26.6064  -34.1257   23.2779 N   0  0  0  0  0  0  0  0  0  0  0  0
  -28.3475  -23.0078   18.0263 N   0  3  2  0  0  0  0  0  0  0  0  0
  -29.6934  -33.6771   25.1045 N   0  3  0  0  0  0  0  0  0  0  0  0
  -27.5144  -11.0988   18.5511 O   0  0  0  0  0  0  0  0  0  0  0  0
  -22.9859  -30.7829   21.0025 O   0  0  0  0  0  0  0  0  0  0  0  0
  -23.9360  -33.1944   23.7369 O   0  0  0  0  0  0  0  0  0  0  0  0
  -28.5449  -33.0384   22.6167 O   0  0  0  0  0  0  0  0  0  0  0  0
  -24.6999  -19.4294   21.4741 O   0  0  0  0  0  0  0  0  0  0  0  0
  -21.7131   -6.7396   21.3667 O   0  0  0  0  0  0  0  0  0  0  0  0
  -28.0843  -26.6618   20.2764 O   0  0  0  0  0  0  0  0  0  1  0  0
  -30.3578  -25.7566   19.3736 O   0  0  0  0  0  0  0  0  0  0  0  0
  -24.5026   -2.0224   21.9760 F   0  0  0  0  0  0  0  0  0  0  0  0
  -21.3672   -5.1674   23.6142 F   0  0  0  0  0  0  0  0  0  0  0  0
  -26.5274  -18.6846   17.2864 S   0  0  0  0  0  0  0  0  0  0  0  0
  1  2  1  0  0  0  0
  1  5  2  0  0  0  0
  2  6  2  0  0  0  0
  3  8  2  0  0  0  0
  3 16  1  0  0  0  0
  4  9  1  0  0  0  0
  4 16  2  0  0  0  0
  5 18  1  0  0  0  0
  6 20  1  0  0  0  0
  7 10  2  0  0  0  0
  7 19  1  0  0  0  0
  8 23  1  0  0  0  0
  9 23  2  0  0  0  0
 10 24  1  0  0  0  0
 11 12  2  0  0  0  0
 11 25  1  0  0  0  0
 12 26  1  0  0  0  0
 13 21  1  0  0  0  0
 13 24  2  0  0  0  0
 14 22  1  0  0  0  0
 14 31  2  0  0  0  0
 15 26  2  0  0  0  0
 15 27  1  0  0  0  0
 16 28  1  0  0  0  0
 17 28  1  0  0  0  0
 17 30  2  0  0  0  0
 17 32  1  0  0  0  0
 18 20  2  0  0  0  0
 18 37  1  0  0  0  0
 19 21  2  0  0  0  0
 19 38  1  0  0  0  0
 20 48  1  0  0  0  0
 21 39  1  0  0  0  0
 22 29  2  0  0  0  0
 22 62  1  0  0  0  0
 23 84  1  0  0  0  0
 24 85  1  0  0  0  0
 25 27  2  0  0  0  0
 25 84  1  0  0  0  0
 26 87  1  0  0  0  0
 27 88  1  0  0  0  0
 28 68  2  0  0  0  0
 29 63  1  0  0  0  0
 29 89  1  0  0  0  0
 30 69  1  0  0  0  0
 30 72  1  0  0  0  0
 31 74  1  0  0  0  0
 31 89  1  0  0  0  0
 32 73  1  0  0  0  0
 32 79  2  0  0  0  0
 33 49  1  0  0  0  0
 33 75  1  0  0  0  0
 33 80  2  0  0  0  0
 34 65  1  0  0  0  0
 34 70  1  0  0  0  0
 34 81  2  0  0  0  0
 35 66  1  0  0  0  0
 35 76  1  0  0  0  0
 35 82  2  0  0  0  0
 36 71  1  0  0  0  0
 36 74  1  0  0  0  0
 36 83  2  0  0  0  0
 37 40  1  0  0  0  0
 38 49  1  0  0  0  0
 39 70  1  0  0  0  0
 40 42  1  0  0  0  0
 41 43  1  0  0  0  0
 41 45  1  0  0  0  0
 42 48  1  0  0  0  0
 43 50  1  0  0  0  0
 44 47  1  0  0  0  0
 44 51  1  0  0  0  0
 45 71  1  0  0  0  0
 46 50  1  0  0  0  0
 46 71  1  0  0  0  0
 47 77  1  0  0  0  0
 48 75  1  0  0  0  0
 49 70  1  0  0  0  0
 50 69  1  0  0  0  0
 51 52  1  0  0  0  0
 51 64  1  0  0  0  0
 51 86  1  0  0  0  0
 52 53  1  0  0  0  0
 52 54  1  0  0  0  0
 52 77  1  0  0  0  0
 55 63  1  0  0  0  0
 56 66  1  0  0  0  0
 57 67  1  0  0  0  0
 58 67  1  0  0  0  0
 59 67  1  0  0  0  0
 60 78  1  0  0  0  0
 61 86  1  0  0  0  0
 62 77  1  0  0  0  0
 64 85  1  0  0  0  0
 65 67  1  0  0  0  0
 65 76  1  0  0  0  0
 66 78  1  0  0  0  0
 68 69  1  0  0  0  0
M  CHG  2  77   1  78   1
M  ISO  4  36 100  64 101  74 100  85 101
M  END
> <Batch ID>
0147

> <Smiles>
CCc1sc([100NH:0][100C:0](=O)N2CCCC(n3nc(-c4ccc(Oc5ccc(F)cc5F)cc4)c(C(N)=O)c3N)C2)cc1CN1CCC(OC)([101CH2:1][101O:1]c2ccc3c(c2)CN(C(=O)C(NC(=O)C(C)NC)C(C)(C)C)C(C(=O)NC2CCCc4ccccc42)C3)C1(C)C

> <Shape>
0.301

> <Color>
0.116

> <Negative vol penalty>
0.000

$$$$

  -OEChem-04052303133D

 83 92  0     1  0  0  0  0  0999 V2000
  -29.3629  -35.4283   23.5607 C   0  0  0  0  0  0  0  0  0  0  0  0
  -29.2174  -34.0450   23.5338 C   0  0  0  0  0  0  0  0  0  0  0  0
  -22.1430  -10.6341   21.3596 C   0  0  0  0  0  0  0  0  0  0  0  0
  -24.0174   -9.5252   20.3138 C   0  0  0  0  0  0  0  0  0  0  0  0
  -28.2426  -36.2429   23.7202 C   0  0  0  0  0  0  0  0  0  0  0  0
  -27.9516  -33.4755   23.6675 C   0  0  0  0  0  0  0  0  0  0  0  0
  -27.1332  -29.7548   20.3310 C   0  0  0  0  0  0  0  0  0  0  0  0
  -21.6263   -9.3973   21.7453 C   0  0  0  0  0  0  0  0  0  0  0  0
  -23.5008   -8.2882   20.6995 C   0  0  0  0  0  0  0  0  0  0  0  0
  -27.7116  -28.5160   20.6042 C   0  0  0  0  0  0  0  0  0  0  0  0
  -22.1966   -7.1041   24.1639 C   0  0  0  0  0  0  0  0  0  0  0  0
  -21.7270   -6.9769   25.4711 C   0  0  0  0  0  0  0  0  0  0  0  0
  -25.5964  -27.7217   21.4495 C   0  0  0  0  0  0  0  0  0  0  0  0
  -25.1817  -21.7116   18.8064 C   0  0  0  0  0  0  0  0  0  0  0  0
  -19.5313   -6.4236   24.6284 C   0  0  0  0  0  0  0  0  0  0  0  0
  -23.3385  -10.6981   20.6438 C   0  0  0  0  0  0  0  0  0  0  0  0
  -24.7605  -12.7904   20.9719 C   0  0  0  0  0  0  0  0  0  0  0  0
  -26.9614  -35.6834   23.8462 C   0  0  0  0  0  0  0  0  0  0  0  0
  -25.7826  -29.9903   20.6256 C   0  0  0  0  0  0  0  0  0  0  0  0
  -26.8134  -34.2833   23.8301 C   0  0  0  0  0  0  0  0  0  0  0  0
  -25.0027  -28.9636   21.1768 C   0  0  0  0  0  0  0  0  0  0  0  0
  -24.5643  -20.4950   18.4527 C   0  0  0  0  0  0  0  0  0  0  0  0
  -22.3052   -8.2243   21.4153 C   0  0  0  0  0  0  0  0  0  0  0  0
  -26.9439  -27.5001   21.1662 C   0  0  0  0  0  0  0  0  0  0  0  0
  -21.3336   -6.8912   23.0889 C   0  0  0  0  0  0  0  0  0  0  0  0
  -20.3944   -6.6366   25.7034 C   0  0  0  0  0  0  0  0  0  0  0  0
  -20.0009   -6.5509   23.3212 C   0  0  0  0  0  0  0  0  0  0  0  0
  -23.8724  -11.9755   20.2447 C   0  0  0  0  0  0  0  0  0  0  0  0
  -25.3500  -19.4156   18.7342 C   0  0  0  0  0  0  0  0  0  0  0  0
  -24.9599  -13.8850   20.1665 C   0  0  0  0  0  0  0  0  0  0  0  0
  -26.4341  -21.4806   19.3536 C   0  0  0  0  0  0  0  0  0  0  0  0
  -25.3525  -12.5770   22.2602 C   0  0  0  0  0  0  0  0  0  0  0  0
  -24.2197  -31.9898   22.5395 C   0  0  0  0  0  0  0  0  0  0  0  0
  -21.6107  -30.7281   21.0823 C   0  0  0  0  0  0  0  0  0  0  0  0
  -27.3299  -23.7702   19.9007 C   0  0  0  0  0  0  0  0  0  0  0  0
  -20.2222  -28.1161   19.3804 C   0  0  0  0  0  0  0  0  0  0  0  0
  -22.6209  -17.8548   16.9276 C   0  0  0  0  0  0  0  0  0  0  0  0
  -25.7859  -36.6029   24.0639 C   0  0  0  0  0  0  0  0  0  0  0  0
  -25.1670  -31.3235   20.3002 C   0  0  0  0  0  0  0  0  0  0  0  0
  -23.5432  -29.1590   21.4930 C   0  0  0  0  0  0  0  0  0  0  0  0
  -23.2864  -20.0820   17.8455 C   0  0  0  0  0  0  0  0  0  0  0  0
  -24.7310  -18.1240   18.3885 C   0  0  0  0  0  0  0  0  0  0  0  0
  -24.4356  -35.9329   23.8230 C   0  0  0  0  0  0  0  0  0  0  0  0
  -23.6839  -14.7176   15.3423 C   0  0  0  0  0  0  0  0  0  0  0  0
  -24.3846  -34.5723   24.5108 C   0  0  0  0  0  0  0  0  0  0  0  0
  -23.8546  -13.7820   16.5412 C   0  0  0  0  0  0  0  0  0  0  0  0
  -22.6139  -15.7788   15.5906 C   0  0  0  0  0  0  0  0  0  0  0  0
  -22.9517  -15.6077   18.0247 C   0  0  0  0  0  0  0  0  0  0  0  0
  -25.4540  -33.6287   23.9471 C   0  0  1  0  0  0  0  0  0  0  0  0
  -23.9123  -31.6175   21.1166 C   0  0  1  0  0  0  0  0  0  0  0  0
  -24.0735  -14.5768   17.8430 C   0  0  1  0  0  0  0  0  0  0  0  0
  -18.0601  -27.3592   18.3559 C   0  0  0  0  0  0  0  0  0  0  0  0
  -20.5151  -30.1047   23.8609 C   0  0  0  0  0  0  0  0  0  0  0  0
  -18.8756  -28.5458   22.7886 C   0  0  0  0  0  0  0  0  0  0  0  0
  -18.8202  -30.9794   22.2434 C   0  0  0  0  0  0  0  0  0  0  0  0
  -21.4238  -27.9549   16.6805 C   0  0  0  0  0  0  0  0  0  0  0  0
  -28.6010  -24.3529   20.5079 C   0  0  0  0  0  0  0  0  0  0  0  0
  -28.5800  -25.8715   20.5948 C   0  0  0  0  0  0  0  0  0  1  0  0
  -20.7034  -29.5508   21.3462 C   0  0  1  0  0  0  0  0  0  0  0  0
  -19.3831  -28.0698   18.1162 C   0  0  2  0  0  0  0  0  0  0  0  0
  -19.7565  -29.7918   22.5557 C   0  0  0  0  0  0  0  0  0  0  0  0
  -23.5309  -12.5071   19.0679 N   0  0  0  0  0  0  0  0  0  0  0  0
  -24.2080  -13.6678   19.0495 N   0  0  0  0  0  0  0  0  0  0  0  0
  -22.9887  -30.4821   21.1623 N   0  0  0  0  0  0  0  0  0  0  0  0
  -23.4516  -18.5998   17.7719 N   0  0  0  0  0  0  0  0  0  0  0  0
  -22.8597  -16.4793   16.8500 N   0  0  0  0  0  0  0  0  0  0  0  0
  -25.7031  -15.0025   20.3120 N   0  0  0  0  0  0  0  0  0  0  0  0
  -25.0404  -11.3987   22.9520 N   0  0  0  0  0  0  0  0  0  0  0  0
  -27.3751  -22.3509   19.8309 N   0  0  0  0  0  0  0  0  0  0  0  0
  -25.0356  -33.0976   22.6675 N   0  0  0  0  0  0  0  0  0  0  0  0
  -20.0117  -29.2790   20.0908 N   0  0  0  0  0  0  0  0  0  0  0  0
  -20.1142  -27.3500   17.0353 N   0  3  0  0  0  0  0  0  0  0  0  0
  -26.1222  -13.4142   22.7896 O   0  0  0  0  0  0  0  0  0  0  0  0
  -23.7502  -31.3223   23.4536 O   0  0  0  0  0  0  0  0  0  0  0  0
  -21.1152  -31.8240   20.8079 O   0  0  0  0  0  0  0  0  0  0  0  0
  -26.4004  -24.4783   19.5280 O   0  0  0  0  0  0  0  0  0  0  0  0
  -20.9852  -27.2096   19.7070 O   0  0  0  0  0  0  0  0  0  0  0  0
  -21.7488  -18.3976   16.2376 O   0  0  0  0  0  0  0  0  0  0  0  0
  -21.8015   -7.0172   21.7916 O   0  0  0  0  0  0  0  0  0  0  0  0
  -27.5101  -26.2817   21.4364 O   0  0  0  0  0  0  0  0  0  1  0  0
  -19.9439   -6.5129   26.9588 F   0  0  0  0  0  0  0  0  0  0  0  0
  -19.1674   -6.3439   22.2925 F   0  0  0  0  0  0  0  0  0  0  0  0
  -26.8260  -19.7957   19.4198 S   0  0  0  0  0  0  0  0  0  0  0  0
  1  2  1  0  0  0  0
  1  5  2  0  0  0  0
  2  6  2  0  0  0  0
  3  8  2  0  0  0  0
  3 16  1  0  0  0  0
  4  9  1  0  0  0  0
  4 16  2  0  0  0  0
  5 18  1  0  0  0  0
  6 20  1  0  0  0  0
  7 10  2  0  0  0  0
  7 19  1  0  0  0  0
  8 23  1  0  0  0  0
  9 23  2  0  0  0  0
 10 24  1  0  0  0  0
 11 12  2  0  0  0  0
 11 25  1  0  0  0  0
 12 26  1  0  0  0  0
 13 21  1  0  0  0  0
 13 24  2  0  0  0  0
 14 22  1  0  0  0  0
 14 31  2  0  0  0  0
 15 26  2  0  0  0  0
 15 27  1  0  0  0  0
 16 28  1  0  0  0  0
 17 28  1  0  0  0  0
 17 30  2  0  0  0  0
 17 32  1  0  0  0  0
 18 20  2  0  0  0  0
 18 38  1  0  0  0  0
 19 21  2  0  0  0  0
 19 39  1  0  0  0  0
 20 49  1  0  0  0  0
 21 40  1  0  0  0  0
 22 29  2  0  0  0  0
 22 41  1  0  0  0  0
 23 79  1  0  0  0  0
 24 80  1  0  0  0  0
 25 27  2  0  0  0  0
 25 79  1  0  0  0  0
 26 81  1  0  0  0  0
 27 82  1  0  0  0  0
 28 62  2  0  0  0  0
 29 42  1  0  0  0  0
 29 83  1  0  0  0  0
 30 63  1  0  0  0  0
 30 67  1  0  0  0  0
 31 69  1  0  0  0  0
 31 83  1  0  0  0  0
 32 68  1  0  0  0  0
 32 73  2  0  0  0  0
 33 50  1  0  0  0  0
 33 70  1  0  0  0  0
 33 74  2  0  0  0  0
 34 59  1  0  0  0  0
 34 64  1  0  0  0  0
 34 75  2  0  0  0  0
 35 57  1  0  0  0  0
 35 69  1  0  0  0  0
 35 76  2  0  0  0  0
 36 60  1  0  0  0  0
 36 71  1  0  0  0  0
 36 77  2  0  0  0  0
 37 65  1  0  0  0  0
 37 66  1  0  0  0  0
 37 78  2  0  0  0  0
 38 43  1  0  0  0  0
 39 50  1  0  0  0  0
 40 64  1  0  0  0  0
 41 65  1  0  0  0  0
 42 65  1  0  0  0  0
 43 45  1  0  0  0  0
 44 46  1  0  0  0  0
 44 47  1  0  0  0  0
 45 49  1  0  0  0  0
 46 51  1  0  0  0  0
 47 66  1  0  0  0  0
 48 51  1  0  0  0  0
 48 66  1  0  0  0  0
 49 70  1  0  0  0  0
 50 64  1  0  0  0  0
 51 63  1  0  0  0  0
 52 60  1  0  0  0  0
 53 61  1  0  0  0  0
 54 61  1  0  0  0  0
 55 61  1  0  0  0  0
 56 72  1  0  0  0  0
 57 58  1  0  0  0  0
 58 80  1  0  0  0  0
 59 61  1  0  0  0  0
 59 71  1  0  0  0  0
 60 72  1  0  0  0  0
 62 63  1  0  0  0  0
M  CHG  1  72   1
M  ISO  4  37 100  58 101  65 100  80 101
M  END
> <Batch ID>
0147

> <Smiles>
CNC(C)C(=O)NC(C(=O)N1Cc2cc([101O:1][101CH2:1]CC(=O)Nc3cc4c(s3)C[100N:0]([100C:0](=O)N3CCCC(n5nc(-c6ccc(Oc7ccc(F)cc7F)cc6)c(C(N)=O)c5N)C3)C4)ccc2CC1C(=O)NC1CCCc2ccccc21)C(C)(C)C

> <Shape>
0.232

> <Color>
0.108

> <Negative vol penalty>
0.000

$$$$

  -OEChem-04052303133D

 87 95  0     1  0  0  0  0  0999 V2000
  -27.6345  -30.9196   17.8317 C   0  0  0  0  0  0  0  0  0  0  0  0
  -27.6092  -30.1712   19.0041 C   0  0  0  0  0  0  0  0  0  0  0  0
  -23.1477   -9.7958   19.9465 C   0  0  0  0  0  0  0  0  0  0  0  0
  -23.7686   -9.9465   22.2765 C   0  0  0  0  0  0  0  0  0  0  0  0
  -26.9265  -32.1183   17.7558 C   0  0  0  0  0  0  0  0  0  0  0  0
  -26.8766  -30.6216   20.1018 C   0  0  0  0  0  0  0  0  0  0  0  0
  -24.1503  -26.9403   22.2607 C   0  0  0  0  0  0  0  0  0  0  0  0
  -22.4313   -8.6291   20.2129 C   0  0  0  0  0  0  0  0  0  0  0  0
  -23.0521   -8.7798   22.5429 C   0  0  0  0  0  0  0  0  0  0  0  0
  -24.8290  -26.0477   23.0892 C   0  0  0  0  0  0  0  0  0  0  0  0
  -23.4924   -5.4476   22.1774 C   0  0  0  0  0  0  0  0  0  0  0  0
  -24.0996   -4.4837   22.9823 C   0  0  0  0  0  0  0  0  0  0  0  0
  -31.7204  -16.9980   22.7155 C   0  0  0  0  0  0  0  0  0  0  0  0
  -31.3488  -18.8186   24.2595 C   0  0  0  0  0  0  0  0  0  0  0  0
  -24.0447  -27.2563   25.0239 C   0  0  0  0  0  0  0  0  0  0  0  0
  -29.4761  -17.7895   23.1321 C   0  0  0  0  0  0  0  0  0  0  0  0
  -22.2943   -4.6774   24.5762 C   0  0  0  0  0  0  0  0  0  0  0  0
  -23.8165  -10.4545   20.9783 C   0  0  0  0  0  0  0  0  0  0  0  0
  -32.2208  -17.9479   23.6059 C   0  0  0  0  0  0  0  0  0  0  0  0
  -24.0758  -12.9817   20.7467 C   0  0  0  0  0  0  0  0  0  0  0  0
  -26.1770  -32.5788   18.8497 C   0  0  0  0  0  0  0  0  0  0  0  0
  -23.4215  -28.0059   22.8082 C   0  0  0  0  0  0  0  0  0  0  0  0
  -26.1589  -31.8282   20.0409 C   0  0  0  0  0  0  0  0  0  0  0  0
  -23.3556  -28.1596   24.2004 C   0  0  0  0  0  0  0  0  0  0  0  0
  -30.3481  -16.9188   22.4785 C   0  0  0  0  0  0  0  0  0  0  0  0
  -29.9764  -18.7394   24.0226 C   0  0  0  0  0  0  0  0  0  0  0  0
  -22.3834   -8.1211   21.5111 C   0  0  0  0  0  0  0  0  0  0  0  0
  -24.7787  -26.2073   24.4709 C   0  0  0  0  0  0  0  0  0  0  0  0
  -22.2862   -6.0265   22.5719 C   0  0  0  0  0  0  0  0  0  0  0  0
  -23.5006   -4.0986   24.1816 C   0  0  0  0  0  0  0  0  0  0  0  0
  -21.6872   -5.6413   23.7713 C   0  0  0  0  0  0  0  0  0  0  0  0
  -24.5572  -11.6595   20.7037 C   0  0  0  0  0  0  0  0  0  0  0  0
  -25.1607  -13.7533   20.4086 C   0  0  0  0  0  0  0  0  0  0  0  0
  -33.6516  -18.0302   23.8536 C   0  0  0  0  0  0  0  0  0  0  0  0
  -22.7653  -13.4690   21.0640 C   0  0  0  0  0  0  0  0  0  0  0  0
  -23.6006  -31.1742   22.6255 C   0  0  0  0  0  0  0  0  0  0  0  0
  -26.8379  -23.3990   25.6814 C   0  0  0  0  0  0  0  0  0  0  0  0
  -20.8409  -31.0387   24.3249 C   0  0  0  0  0  0  0  0  0  0  0  0
  -18.8328  -29.2834   26.4541 C   0  0  0  0  0  0  0  0  0  0  0  0
  -30.5666  -15.0142   20.8442 C   0  0  0  0  0  0  0  0  0  0  0  0
  -25.4661  -33.9041   18.7364 C   0  0  0  0  0  0  0  0  0  0  0  0
  -22.6729  -28.9444   21.9019 C   0  0  0  0  0  0  0  0  0  0  0  0
  -22.5704  -29.2752   24.8388 C   0  0  0  0  0  0  0  0  0  0  0  0
  -24.4110  -34.1238   19.8174 C   0  0  0  0  0  0  0  0  0  0  0  0
  -29.6811  -12.4441   18.5446 C   0  0  0  0  0  0  0  0  0  0  0  0
  -24.9666  -33.7534   21.1888 C   0  0  0  0  0  0  0  0  0  0  0  0
  -28.2295  -12.1197   18.9049 C   0  0  0  0  0  0  0  0  0  0  0  0
  -30.5142  -12.7675   19.7836 C   0  0  0  0  0  0  0  0  0  0  0  0
  -28.5039  -13.4868   21.0126 C   0  0  0  0  0  0  0  0  0  0  0  0
  -25.3557  -32.2712   21.2445 C   0  0  1  0  0  0  0  0  0  0  0  0
  -22.3840  -30.2958   22.5483 C   0  0  1  0  0  0  0  0  0  0  0  0
  -27.6098  -13.2179   19.7912 C   0  0  2  0  0  0  0  0  0  0  0  0
  -16.6589  -29.4480   27.6969 C   0  0  0  0  0  0  0  0  0  0  0  0
  -27.3800  -20.4517   26.9228 C   0  0  0  0  0  0  0  0  0  0  0  0
  -22.1451  -32.9075   26.3539 C   0  0  0  0  0  0  0  0  0  0  0  0
  -20.3495  -32.2800   27.9818 C   0  0  0  0  0  0  0  0  0  0  0  0
  -19.7512  -33.4246   25.8476 C   0  0  0  0  0  0  0  0  0  0  0  0
  -17.7116  -26.9397   25.0367 C   0  0  0  0  0  0  0  0  0  0  0  0
  -27.6308  -22.2243   25.1247 C   0  0  0  0  0  0  0  0  0  0  0  0
  -26.1674  -24.2849   24.6495 C   0  0  0  0  0  0  0  0  0  1  0  0
  -29.5400  -20.6159   25.6081 C   0  0  0  0  0  0  0  0  0  0  0  0
  -20.4898  -31.0073   25.7928 C   0  0  1  0  0  0  0  0  0  0  0  0
  -17.3444  -28.9867   26.4202 C   0  0  2  0  0  0  0  0  0  0  0  0
  -28.3516  -21.3927   26.2003 C   0  0  2  0  0  0  0  0  0  0  0  0
  -20.7004  -32.3849   26.4822 C   0  0  0  0  0  0  0  0  0  0  0  0
  -25.8474  -11.5912   20.3648 N   0  0  0  0  0  0  0  0  0  0  0  0
  -34.5233  -17.2532   23.2824 N   0  0  0  0  0  0  0  0  0  0  0  0
  -26.1859  -12.8802   20.1917 N   0  0  0  0  0  0  0  0  0  0  0  0
  -21.8607  -30.1705   23.9102 N   0  0  0  0  0  0  0  0  0  0  0  0
  -29.8680  -13.8188   20.5722 N   0  0  0  0  0  0  0  0  0  0  0  0
  -25.3281  -15.0865   20.2785 N   0  0  0  0  0  0  0  0  0  0  0  0
  -21.7676  -12.5399   21.3892 N   0  0  0  0  0  0  0  0  0  0  0  0
  -29.8394  -15.9536   21.5745 N   0  0  0  0  0  0  0  0  0  0  0  0
  -29.1100  -19.6040   24.6718 N   0  0  0  0  0  0  0  0  0  0  0  0
  -24.1777  -31.4449   21.3994 N   0  0  0  0  0  0  0  0  0  0  0  0
  -19.1242  -30.5005   25.8751 N   0  0  0  0  0  0  0  0  0  0  0  0
  -17.1115  -27.5230   26.2642 N   0  3  0  0  0  0  0  0  0  0  0  0
  -22.4829  -14.6910   21.0433 O   0  0  0  0  0  0  0  0  0  0  0  0
  -23.9862  -31.5779   23.7164 O   0  0  0  0  0  0  0  0  0  0  0  0
  -26.7635  -23.6393   26.8853 O   0  0  0  0  0  0  0  0  0  0  0  0
  -20.2279  -31.8003   23.5727 O   0  0  0  0  0  0  0  0  0  0  0  0
  -19.6543  -28.5144   26.9483 O   0  0  0  0  0  0  0  0  0  0  0  0
  -31.7149  -15.2023   20.4345 O   0  0  0  0  0  0  0  0  0  0  0  0
  -21.6842   -6.9827   21.7714 O   0  0  0  0  0  0  0  0  0  0  0  0
  -25.4407  -25.3378   25.2817 O   0  0  0  0  0  0  0  0  0  1  0  0
  -24.0830   -3.1718   24.9537 F   0  0  0  0  0  0  0  0  0  0  0  0
  -20.5278   -6.1930   24.1550 F   0  0  0  0  0  0  0  0  0  0  0  0
  1  2  1  0  0  0  0
  1  5  2  0  0  0  0
  2  6  2  0  0  0  0
  3  8  2  0  0  0  0
  3 18  1  0  0  0  0
  4  9  1  0  0  0  0
  4 18  2  0  0  0  0
  5 21  1  0  0  0  0
  6 23  1  0  0  0  0
  7 10  2  0  0  0  0
  7 22  1  0  0  0  0
  8 27  1  0  0  0  0
  9 27  2  0  0  0  0
 10 28  1  0  0  0  0
 11 12  2  0  0  0  0
 11 29  1  0  0  0  0
 12 30  1  0  0  0  0
 13 19  1  0  0  0  0
 13 25  2  0  0  0  0
 14 19  2  0  0  0  0
 14 26  1  0  0  0  0
 15 24  1  0  0  0  0
 15 28  2  0  0  0  0
 16 25  1  0  0  0  0
 16 26  2  0  0  0  0
 17 30  2  0  0  0  0
 17 31  1  0  0  0  0
 18 32  1  0  0  0  0
 19 34  1  0  0  0  0
 20 32  1  0  0  0  0
 20 33  2  0  0  0  0
 20 35  1  0  0  0  0
 21 23  2  0  0  0  0
 21 41  1  0  0  0  0
 22 24  2  0  0  0  0
 22 42  1  0  0  0  0
 23 50  1  0  0  0  0
 24 43  1  0  0  0  0
 25 73  1  0  0  0  0
 26 74  1  0  0  0  0
 27 84  1  0  0  0  0
 28 85  1  0  0  0  0
 29 31  2  0  0  0  0
 29 84  1  0  0  0  0
 30 86  1  0  0  0  0
 31 87  1  0  0  0  0
 32 66  2  0  0  0  0
 33 68  1  0  0  0  0
 33 71  1  0  0  0  0
 34 67  2  0  0  0  0
 35 72  1  0  0  0  0
 35 78  2  0  0  0  0
 36 51  1  0  0  0  0
 36 75  1  0  0  0  0
 36 79  2  0  0  0  0
 37 59  1  0  0  0  0
 37 60  1  0  0  0  0
 37 80  2  0  0  0  0
 38 62  1  0  0  0  0
 38 69  1  0  0  0  0
 38 81  2  0  0  0  0
 39 63  1  0  0  0  0
 39 76  1  0  0  0  0
 39 82  2  0  0  0  0
 40 70  1  0  0  0  0
 40 73  1  0  0  0  0
 40 83  2  0  0  0  0
 41 44  1  0  0  0  0
 42 51  1  0  0  0  0
 43 69  1  0  0  0  0
 44 46  1  0  0  0  0
 45 47  1  0  0  0  0
 45 48  1  0  0  0  0
 46 50  1  0  0  0  0
 47 52  1  0  0  0  0
 48 70  1  0  0  0  0
 49 52  1  0  0  0  0
 49 70  1  0  0  0  0
 50 75  1  0  0  0  0
 51 69  1  0  0  0  0
 52 68  1  0  0  0  0
 53 63  1  0  0  0  0
 54 64  1  0  0  0  0
 55 65  1  0  0  0  0
 56 65  1  0  0  0  0
 57 65  1  0  0  0  0
 58 77  1  0  0  0  0
 59 64  1  0  0  0  0
 60 85  1  0  0  0  0
 61 64  1  0  0  0  0
 61 74  1  0  0  0  0
 62 65  1  0  0  0  0
 62 76  1  0  0  0  0
 63 77  1  0  0  0  0
 66 68  1  0  0  0  0
M  CHG  1  77   1
M  ISO  4  40 100  60 101  73 100  85 101
M  END
> <Batch ID>
0147

> <Smiles>
CNC(C)C(=O)NC(C(=O)N1Cc2cc([101O:1][101CH2:1]C(=O)CC(C)CNc3cc(C=N)cc([100NH:0][100C:0](=O)N4CCCC(n5nc(-c6ccc(Oc7ccc(F)cc7F)cc6)c(C(N)=O)c5N)C4)c3)ccc2CC1C(=O)NC1CCCc2ccccc21)C(C)(C)C

> <Shape>
0.229

> <Color>
0.192

> <Negative vol penalty>
0.000

$$$$

  -OEChem-04052303133D

 86 95  0     1  0  0  0  0  0999 V2000
  -25.4526  -37.4478   18.9953 C   0  0  0  0  0  0  0  0  0  0  0  0
  -26.1834  -36.2758   18.8291 C   0  0  0  0  0  0  0  0  0  0  0  0
  -22.4121  -10.4609   20.8235 C   0  0  0  0  0  0  0  0  0  0  0  0
  -24.3538   -9.4465   21.8421 C   0  0  0  0  0  0  0  0  0  0  0  0
  -24.6288  -37.6023   20.1095 C   0  0  0  0  0  0  0  0  0  0  0  0
  -26.0916  -35.2578   19.7777 C   0  0  0  0  0  0  0  0  0  0  0  0
  -26.3347  -29.2269   18.7410 C   0  0  0  0  0  0  0  0  0  0  0  0
  -21.7851   -9.2158   20.7785 C   0  0  0  0  0  0  0  0  0  0  0  0
  -23.7268   -8.2013   21.7972 C   0  0  0  0  0  0  0  0  0  0  0  0
  -27.3673  -28.2968   18.8527 C   0  0  0  0  0  0  0  0  0  0  0  0
  -21.3756   -6.5331   23.5606 C   0  0  0  0  0  0  0  0  0  0  0  0
  -21.4457   -5.7324   24.7005 C   0  0  0  0  0  0  0  0  0  0  0  0
  -26.5857  -27.7026   21.0562 C   0  0  0  0  0  0  0  0  0  0  0  0
  -29.0801  -20.1890   22.2566 C   0  0  0  0  0  0  0  0  0  0  0  0
  -22.5661   -4.0139   23.4243 C   0  0  0  0  0  0  0  0  0  0  0  0
  -23.6965  -10.5763   21.3553 C   0  0  0  0  0  0  0  0  0  0  0  0
  -24.2900  -12.8049   22.4455 C   0  0  0  0  0  0  0  0  0  0  0  0
  -24.5195  -36.5818   21.0673 C   0  0  0  0  0  0  0  0  0  0  0  0
  -25.4248  -29.4099   19.7922 C   0  0  0  0  0  0  0  0  0  0  0  0
  -25.2667  -35.3993   20.9064 C   0  0  0  0  0  0  0  0  0  0  0  0
  -25.5409  -28.6339   20.9543 C   0  0  0  0  0  0  0  0  0  0  0  0
  -29.3721  -18.8159   22.5004 C   0  0  0  0  0  0  0  0  0  0  0  0
  -22.4425   -8.0859   21.2653 C   0  0  0  0  0  0  0  0  0  0  0  0
  -27.4947  -27.5366   20.0115 C   0  0  0  0  0  0  0  0  0  0  0  0
  -21.9006   -6.0743   22.3525 C   0  0  0  0  0  0  0  0  0  0  0  0
  -22.0410   -4.4728   24.6324 C   0  0  0  0  0  0  0  0  0  0  0  0
  -22.4959   -4.8147   22.2844 C   0  0  0  0  0  0  0  0  0  0  0  0
  -24.3449  -11.8622   21.4015 C   0  0  0  0  0  0  0  0  0  0  0  0
  -30.2643  -18.3059   21.5832 C   0  0  0  0  0  0  0  0  0  0  0  0
  -25.0669  -13.8491   22.0066 C   0  0  0  0  0  0  0  0  0  0  0  0
  -29.7606  -20.6763   21.1623 C   0  0  0  0  0  0  0  0  0  0  0  0
  -23.5986  -12.7423   23.7000 C   0  0  0  0  0  0  0  0  0  0  0  0
  -24.6425  -31.8414   21.6841 C   0  0  0  0  0  0  0  0  0  0  0  0
  -29.0592  -24.2914   20.4407 C   0  0  0  0  0  0  0  0  0  0  0  0
  -22.3512  -29.7916   22.7188 C   0  0  0  0  0  0  0  0  0  0  0  0
  -21.3089  -26.5644   23.1002 C   0  0  0  0  0  0  0  0  0  0  0  0
  -29.7138  -15.7784   19.5922 C   0  0  0  0  0  0  0  0  0  0  0  0
  -23.6525  -36.8137   22.2794 C   0  0  0  0  0  0  0  0  0  0  0  0
  -24.3005  -30.3982   19.6455 C   0  0  0  0  0  0  0  0  0  0  0  0
  -24.5780  -28.7777   22.1034 C   0  0  0  0  0  0  0  0  0  0  0  0
  -23.3228  -35.5354   23.0460 C   0  0  0  0  0  0  0  0  0  0  0  0
  -28.4357  -17.7029   25.7922 C   0  0  0  0  0  0  0  0  0  0  0  0
  -27.0487  -14.7890   17.4486 C   0  0  0  0  0  0  0  0  0  0  0  0
  -29.6549  -17.5308   24.8664 C   0  0  0  0  0  0  0  0  0  0  0  0
  -27.9071  -18.7325   24.7751 C   0  0  0  0  0  0  0  0  0  0  0  0
  -24.5792  -34.6940   23.2465 C   0  0  0  0  0  0  0  0  0  0  0  0
  -26.1069  -14.0123   18.3704 C   0  0  0  0  0  0  0  0  0  0  0  0
  -28.5137  -14.5497   17.8071 C   0  0  0  0  0  0  0  0  0  0  0  0
  -27.9141  -14.0299   20.1403 C   0  0  0  0  0  0  0  0  0  0  0  0
  -28.7384  -17.9838   23.6898 C   0  0  0  0  0  0  0  0  0  0  0  0
  -25.1746  -34.2623   21.9009 C   0  0  1  0  0  0  0  0  0  0  0  0
  -23.7383  -30.8668   20.9840 C   0  0  1  0  0  0  0  0  0  0  0  0
  -26.4242  -14.2832   19.8533 C   0  0  2  0  0  0  0  0  0  0  0  0
  -19.4096  -25.2028   24.0147 C   0  0  0  0  0  0  0  0  0  0  0  0
  -23.3625  -30.2896   25.5541 C   0  0  0  0  0  0  0  0  0  0  0  0
  -22.1122  -28.2470   26.2841 C   0  0  0  0  0  0  0  0  0  0  0  0
  -20.8730  -30.1935   25.3364 C   0  0  0  0  0  0  0  0  0  0  0  0
  -20.7063  -25.4077   20.4436 C   0  0  0  0  0  0  0  0  0  0  0  0
  -30.8180  -16.9365   21.4892 C   0  0  0  0  0  0  0  0  0  0  0  0
  -28.8868  -23.0124   21.2321 C   0  0  0  0  0  0  0  0  0  0  0  0
  -28.2532  -25.4786   20.9309 C   0  0  0  0  0  0  0  0  0  1  0  0
  -22.2642  -28.7437   23.8020 C   0  0  1  0  0  0  0  0  0  0  0  0
  -19.9860  -25.8894   22.7862 C   0  0  2  0  0  0  0  0  0  0  0  0
  -22.1724  -29.3669   25.2235 C   0  0  0  0  0  0  0  0  0  0  0  0
  -25.0971  -12.2713   20.3764 N   0  0  0  0  0  0  0  0  0  0  0  0
  -25.5219  -13.4827   20.7741 N   0  0  0  0  0  0  0  0  0  0  0  0
  -23.4993  -29.7617   21.9146 N   0  0  0  0  0  0  0  0  0  0  0  0
  -28.7481  -14.8261   19.2264 N   0  0  0  0  0  0  0  0  0  0  0  0
  -25.3982  -15.0357   22.5584 N   0  0  0  0  0  0  0  0  0  0  0  0
  -22.8460  -11.5965   23.9917 N   0  0  0  0  0  0  0  0  0  0  0  0
  -29.6980  -21.9683   20.6602 N   0  0  0  0  0  0  0  0  0  0  0  0
  -24.4182  -33.1616   21.3433 N   0  0  0  0  0  0  0  0  0  0  0  0
  -21.1369  -27.8867   23.4513 N   0  0  0  0  0  0  0  0  0  0  0  0
  -29.8685  -15.9843   20.9576 N   0  0  0  0  0  0  0  0  0  0  0  0
  -20.1672  -24.8664   21.7177 N   0  3  0  0  0  0  0  0  0  0  0  0
  -23.6334  -13.6818   24.5305 O   0  0  0  0  0  0  0  0  0  0  0  0
  -25.4806  -31.4265   22.4761 O   0  0  0  0  0  0  0  0  0  0  0  0
  -29.8011  -24.3738   19.4626 O   0  0  0  0  0  0  0  0  0  0  0  0
  -21.4308  -30.6022   22.5864 O   0  0  0  0  0  0  0  0  0  0  0  0
  -22.3867  -25.9765   23.0437 O   0  0  0  0  0  0  0  0  0  0  0  0
  -30.3844  -16.4028   18.7632 O   0  0  0  0  0  0  0  0  0  0  0  0
  -21.8309   -6.8708   21.2218 O   0  0  0  0  0  0  0  0  0  0  0  0
  -28.5020  -26.6285   20.1234 O   0  0  0  0  0  0  0  0  0  1  0  0
  -22.1097   -3.7045   25.7275 F   0  0  0  0  0  0  0  0  0  0  0  0
  -23.0031   -4.3689   21.1269 F   0  0  0  0  0  0  0  0  0  0  0  0
  -30.7463  -19.4804   20.4340 S   0  0  0  0  0  0  0  0  0  0  0  0
  1  2  1  0  0  0  0
  1  5  2  0  0  0  0
  2  6  2  0  0  0  0
  3  8  2  0  0  0  0
  3 16  1  0  0  0  0
  4  9  1  0  0  0  0
  4 16  2  0  0  0  0
  5 18  1  0  0  0  0
  6 20  1  0  0  0  0
  7 10  2  0  0  0  0
  7 19  1  0  0  0  0
  8 23  1  0  0  0  0
  9 23  2  0  0  0  0
 10 24  1  0  0  0  0
 11 12  2  0  0  0  0
 11 25  1  0  0  0  0
 12 26  1  0  0  0  0
 13 21  1  0  0  0  0
 13 24  2  0  0  0  0
 14 22  1  0  0  0  0
 14 31  2  0  0  0  0
 15 26  2  0  0  0  0
 15 27  1  0  0  0  0
 16 28  1  0  0  0  0
 17 28  1  0  0  0  0
 17 30  2  0  0  0  0
 17 32  1  0  0  0  0
 18 20  2  0  0  0  0
 18 38  1  0  0  0  0
 19 21  2  0  0  0  0
 19 39  1  0  0  0  0
 20 51  1  0  0  0  0
 21 40  1  0  0  0  0
 22 29  2  0  0  0  0
 22 50  1  0  0  0  0
 23 82  1  0  0  0  0
 24 83  1  0  0  0  0
 25 27  2  0  0  0  0
 25 82  1  0  0  0  0
 26 84  1  0  0  0  0
 27 85  1  0  0  0  0
 28 65  2  0  0  0  0
 29 59  1  0  0  0  0
 29 86  1  0  0  0  0
 30 66  1  0  0  0  0
 30 69  1  0  0  0  0
 31 71  1  0  0  0  0
 31 86  1  0  0  0  0
 32 70  1  0  0  0  0
 32 76  2  0  0  0  0
 33 52  1  0  0  0  0
 33 72  1  0  0  0  0
 33 77  2  0  0  0  0
 34 60  1  0  0  0  0
 34 61  1  0  0  0  0
 34 78  2  0  0  0  0
 35 62  1  0  0  0  0
 35 67  1  0  0  0  0
 35 79  2  0  0  0  0
 36 63  1  0  0  0  0
 36 73  1  0  0  0  0
 36 80  2  0  0  0  0
 37 68  1  0  0  0  0
 37 74  1  0  0  0  0
 37 81  2  0  0  0  0
 38 41  1  0  0  0  0
 39 52  1  0  0  0  0
 40 67  1  0  0  0  0
 41 46  1  0  0  0  0
 42 44  1  0  0  0  0
 42 45  1  0  0  0  0
 43 47  1  0  0  0  0
 43 48  1  0  0  0  0
 44 50  1  0  0  0  0
 45 50  1  0  0  0  0
 46 51  1  0  0  0  0
 47 53  1  0  0  0  0
 48 68  1  0  0  0  0
 49 53  1  0  0  0  0
 49 68  1  0  0  0  0
 51 72  1  0  0  0  0
 52 67  1  0  0  0  0
 53 66  1  0  0  0  0
 54 63  1  0  0  0  0
 55 64  1  0  0  0  0
 56 64  1  0  0  0  0
 57 64  1  0  0  0  0
 58 75  1  0  0  0  0
 59 74  1  0  0  0  0
 60 71  1  0  0  0  0
 61 83  1  0  0  0  0
 62 64  1  0  0  0  0
 62 73  1  0  0  0  0
 63 75  1  0  0  0  0
 65 66  1  0  0  0  0
M  CHG  1  75   1
M  ISO  4  37 100  61 101  74 100  83 101
M  END
> <Batch ID>
0147

> <Smiles>
CNC(C)C(=O)NC(C(=O)N1Cc2cc([101O:1][101CH2:1]C(=O)CNc3cc(C4CCC4)c(C[100NH:0][100C:0](=O)N4CCCC(n5nc(-c6ccc(Oc7ccc(F)cc7F)cc6)c(C(N)=O)c5N)C4)s3)ccc2CC1C(=O)NC1CCCc2ccccc21)C(C)(C)C

> <Shape>
0.312

> <Color>
0.126

> <Negative vol penalty>
0.000

$$$$

  -OEChem-04052303133D

 87 96  0     1  0  0  0  0  0999 V2000
  -28.6469  -36.1309   20.4916 C   0  0  0  0  0  0  0  0  0  0  0  0
  -28.7932  -34.7638   20.7037 C   0  0  0  0  0  0  0  0  0  0  0  0
  -22.8551  -10.3304   20.3260 C   0  0  0  0  0  0  0  0  0  0  0  0
  -24.5483   -9.0137   21.4380 C   0  0  0  0  0  0  0  0  0  0  0  0
  -27.5380  -36.8005   21.0073 C   0  0  0  0  0  0  0  0  0  0  0  0
  -27.8311  -34.0656   21.4328 C   0  0  0  0  0  0  0  0  0  0  0  0
  -26.5541  -29.6741   19.2584 C   0  0  0  0  0  0  0  0  0  0  0  0
  -29.3959  -19.4398   19.1716 C   0  0  0  0  0  0  0  0  0  0  0  0
  -29.5217  -18.0557   19.3410 C   0  0  0  0  0  0  0  0  0  0  0  0
  -21.9112   -9.9066   21.2613 C   0  0  0  0  0  0  0  0  0  0  0  0
  -23.6043   -8.5899   22.3734 C   0  0  0  0  0  0  0  0  0  0  0  0
  -27.4367  -28.6061   19.4141 C   0  0  0  0  0  0  0  0  0  0  0  0
  -21.0993   -6.3249   22.5341 C   0  0  0  0  0  0  0  0  0  0  0  0
  -21.0746   -4.9692   22.8613 C   0  0  0  0  0  0  0  0  0  0  0  0
  -26.0420  -27.7173   21.1702 C   0  0  0  0  0  0  0  0  0  0  0  0
  -27.1400  -17.8105   19.1656 C   0  0  0  0  0  0  0  0  0  0  0  0
  -21.5343   -5.5177   25.1689 C   0  0  0  0  0  0  0  0  0  0  0  0
  -24.1737   -9.8840   20.4143 C   0  0  0  0  0  0  0  0  0  0  0  0
  -25.1122  -10.1251   18.0545 C   0  0  0  0  0  0  0  0  0  0  0  0
  -26.5570  -36.1084   21.7349 C   0  0  0  0  0  0  0  0  0  0  0  0
  -25.4126  -29.7776   20.0662 C   0  0  0  0  0  0  0  0  0  0  0  0
  -26.7088  -34.7269   21.9600 C   0  0  0  0  0  0  0  0  0  0  0  0
  -25.1451  -28.7862   21.0210 C   0  0  0  0  0  0  0  0  0  0  0  0
  -28.1402  -20.0385   18.9815 C   0  0  0  0  0  0  0  0  0  0  0  0
  -28.3957  -17.2415   19.3385 C   0  0  0  0  0  0  0  0  0  0  0  0
  -27.0136  -19.1927   18.9792 C   0  0  0  0  0  0  0  0  0  0  0  0
  -22.2857   -9.0363   22.2850 C   0  0  0  0  0  0  0  0  0  0  0  0
  -27.1823  -27.6290   20.3721 C   0  0  0  0  0  0  0  0  0  0  0  0
  -21.3415   -7.2771   23.5243 C   0  0  0  0  0  0  0  0  0  0  0  0
  -21.2921   -4.5656   24.1787 C   0  0  0  0  0  0  0  0  0  0  0  0
  -21.5590   -6.8735   24.8417 C   0  0  0  0  0  0  0  0  0  0  0  0
  -25.1491  -10.3210   19.4481 C   0  0  0  0  0  0  0  0  0  0  0  0
  -26.2590  -10.7237   17.5931 C   0  0  0  0  0  0  0  0  0  0  0  0
  -28.6659  -23.7944   18.5917 C   0  0  0  0  0  0  0  0  0  0  0  0
  -24.1291   -9.4613   17.2491 C   0  0  0  0  0  0  0  0  0  0  0  0
  -29.0992  -24.7009   19.4789 C   0  0  0  0  0  0  0  0  0  0  0  0
  -29.0253  -22.3625   18.7132 C   0  0  0  0  0  0  0  0  0  0  0  0
  -24.3540  -31.8891   22.1934 C   0  0  0  0  0  0  0  0  0  0  0  0
  -21.7054  -30.0166   22.1537 C   0  0  0  0  0  0  0  0  0  0  0  0
  -20.9794  -26.4831   22.0880 C   0  0  0  0  0  0  0  0  0  0  0  0
  -29.7047  -15.1217   19.7120 C   0  0  0  0  0  0  0  0  0  0  0  0
  -25.4000  -36.8840   22.3131 C   0  0  0  0  0  0  0  0  0  0  0  0
  -24.4564  -30.9216   19.8675 C   0  0  0  0  0  0  0  0  0  0  0  0
  -23.9229  -28.8404   21.8995 C   0  0  0  0  0  0  0  0  0  0  0  0
  -24.2354  -36.0015   22.7549 C   0  0  0  0  0  0  0  0  0  0  0  0
  -30.7262  -11.7986   18.9435 C   0  0  0  0  0  0  0  0  0  0  0  0
  -24.7435  -34.8130   23.5649 C   0  0  0  0  0  0  0  0  0  0  0  0
  -29.4082  -11.0260   18.8529 C   0  0  0  0  0  0  0  0  0  0  0  0
  -30.6859  -12.8622   20.0393 C   0  0  0  0  0  0  0  0  0  0  0  0
  -26.5560  -21.9077   18.8871 C   0  0  0  0  0  0  0  0  0  0  0  0
  -28.2330  -13.0183   19.8710 C   0  0  0  0  0  0  0  0  0  0  0  0
  -25.6571  -20.9083   18.1903 C   0  0  0  0  0  0  0  0  0  0  0  0
  -25.6741  -33.9302   22.7246 C   0  0  1  0  0  0  0  0  0  0  0  0
  -23.5945  -31.2000   21.0952 C   0  0  1  0  0  0  0  0  0  0  0  0
  -28.2028  -11.9796   18.7380 C   0  0  2  0  0  0  0  0  0  0  0  0
  -18.9849  -25.2435   21.2032 C   0  0  0  0  0  0  0  0  0  0  0  0
  -20.6817  -30.2006   25.0222 C   0  0  0  0  0  0  0  0  0  0  0  0
  -19.7672  -27.8836   24.7705 C   0  0  0  0  0  0  0  0  0  0  0  0
  -18.9188  -29.7224   23.3140 C   0  0  0  0  0  0  0  0  0  0  0  0
  -22.6633  -24.7824   20.3471 C   0  0  0  0  0  0  0  0  0  0  0  0
  -28.7590  -26.1581   19.3691 C   0  0  0  0  0  0  0  0  0  1  0  0
  -21.2418  -28.8040   22.9241 C   0  0  1  0  0  0  0  0  0  0  0  0
  -20.4102  -25.6938   20.9229 C   0  0  2  0  0  0  0  0  0  0  0  0
  -20.1800  -29.1578   24.0033 C   0  0  0  0  0  0  0  0  0  0  0  0
  -26.2336  -10.9916   19.8459 N   0  0  0  0  0  0  0  0  0  0  0  0
  -26.8888  -11.2222   18.6954 N   0  0  0  0  0  0  0  0  0  0  0  0
  -27.9591  -21.4632   18.8532 N   0  0  0  0  0  0  0  0  0  0  0  0
  -23.0215  -29.9819   21.6715 N   0  0  0  0  0  0  0  0  0  0  0  0
  -29.5201  -13.7311   19.8636 N   0  0  0  0  0  0  0  0  0  0  0  0
  -26.7802  -10.8671   16.3560 N   0  0  0  0  0  0  0  0  0  0  0  0
  -23.0122   -8.9017   17.8843 N   0  0  0  0  0  0  0  0  0  0  0  0
  -28.5264  -15.8422   19.5194 N   0  0  0  0  0  0  0  0  0  0  0  0
  -24.9049  -33.1007   21.8219 N   0  0  0  0  0  0  0  0  0  0  0  0
  -20.7848  -27.8390   21.9300 N   0  0  0  0  0  0  0  0  0  0  0  0
  -21.2418  -24.4853   20.6605 N   0  3  0  0  0  0  0  0  0  0  0  0
  -24.2462   -9.3530   16.0049 O   0  0  0  0  0  0  0  0  0  0  0  0
  -30.2234  -22.0866   18.6747 O   0  0  0  0  0  0  0  0  0  0  0  0
  -24.4330  -31.3613   23.2965 O   0  0  0  0  0  0  0  0  0  0  0  0
  -20.9262  -30.9569   21.9798 O   0  0  0  0  0  0  0  0  0  0  0  0
  -21.5372  -25.9499   23.0446 O   0  0  0  0  0  0  0  0  0  0  0  0
  -30.8278  -15.6323   19.7231 O   0  0  0  0  0  0  0  0  0  0  0  0
  -25.7242  -19.6374   18.8247 O   0  0  0  0  0  0  0  0  0  0  0  0
  -29.9140  -24.3501   20.5384 O   0  0  0  0  0  0  0  0  0  0  0  0
  -21.3649   -8.6227   23.1981 O   0  0  0  0  0  0  0  0  0  0  0  0
  -28.0424  -26.5859   20.5266 O   0  0  0  0  0  0  0  0  0  1  0  0
  -21.2668   -3.2638   24.4930 F   0  0  0  0  0  0  0  0  0  0  0  0
  -21.7910   -7.7836   25.7975 F   0  0  0  0  0  0  0  0  0  0  0  0
  1  2  1  0  0  0  0
  1  5  2  0  0  0  0
  2  6  2  0  0  0  0
  3 10  2  0  0  0  0
  3 18  1  0  0  0  0
  4 11  1  0  0  0  0
  4 18  2  0  0  0  0
  5 20  1  0  0  0  0
  6 22  1  0  0  0  0
  7 12  2  0  0  0  0
  7 21  1  0  0  0  0
  8  9  2  0  0  0  0
  8 24  1  0  0  0  0
  9 25  1  0  0  0  0
 10 27  1  0  0  0  0
 11 27  2  0  0  0  0
 12 28  1  0  0  0  0
 13 14  2  0  0  0  0
 13 29  1  0  0  0  0
 14 30  1  0  0  0  0
 15 23  1  0  0  0  0
 15 28  2  0  0  0  0
 16 25  2  0  0  0  0
 16 26  1  0  0  0  0
 17 30  2  0  0  0  0
 17 31  1  0  0  0  0
 18 32  1  0  0  0  0
 19 32  1  0  0  0  0
 19 33  2  0  0  0  0
 19 35  1  0  0  0  0
 20 22  2  0  0  0  0
 20 42  1  0  0  0  0
 21 23  2  0  0  0  0
 21 43  1  0  0  0  0
 22 53  1  0  0  0  0
 23 44  1  0  0  0  0
 24 26  2  0  0  0  0
 24 67  1  0  0  0  0
 25 72  1  0  0  0  0
 26 82  1  0  0  0  0
 27 84  1  0  0  0  0
 28 85  1  0  0  0  0
 29 31  2  0  0  0  0
 29 84  1  0  0  0  0
 30 86  1  0  0  0  0
 31 87  1  0  0  0  0
 32 65  2  0  0  0  0
 33 66  1  0  0  0  0
 33 70  1  0  0  0  0
 34 36  2  0  0  0  0
 34 37  1  0  0  0  0
 35 71  1  0  0  0  0
 35 76  2  0  0  0  0
 36 61  1  0  0  0  0
 36 83  1  0  0  0  0
 37 67  1  0  0  0  0
 37 77  2  0  0  0  0
 38 54  1  0  0  0  0
 38 73  1  0  0  0  0
 38 78  2  0  0  0  0
 39 62  1  0  0  0  0
 39 68  1  0  0  0  0
 39 79  2  0  0  0  0
 40 63  1  0  0  0  0
 40 74  1  0  0  0  0
 40 80  2  0  0  0  0
 41 69  1  0  0  0  0
 41 72  1  0  0  0  0
 41 81  2  0  0  0  0
 42 45  1  0  0  0  0
 43 54  1  0  0  0  0
 44 68  1  0  0  0  0
 45 47  1  0  0  0  0
 46 48  1  0  0  0  0
 46 49  1  0  0  0  0
 47 53  1  0  0  0  0
 48 55  1  0  0  0  0
 49 69  1  0  0  0  0
 50 52  1  0  0  0  0
 50 67  1  0  0  0  0
 51 55  1  0  0  0  0
 51 69  1  0  0  0  0
 52 82  1  0  0  0  0
 53 73  1  0  0  0  0
 54 68  1  0  0  0  0
 55 66  1  0  0  0  0
 56 63  1  0  0  0  0
 57 64  1  0  0  0  0
 58 64  1  0  0  0  0
 59 64  1  0  0  0  0
 60 75  1  0  0  0  0
 61 85  1  0  0  0  0
 62 64  1  0  0  0  0
 62 74  1  0  0  0  0
 63 75  1  0  0  0  0
 65 66  1  0  0  0  0
M  CHG  1  75   1
M  ISO  4  41 100  61 101  72 100  85 101
M  END
> <Batch ID>
0147

> <Smiles>
CNC(C)C(=O)NC(C(=O)N1Cc2cc([101O:1][101CH2:1]C(=O)CC(=O)N3CCOc4cc([100NH:0][100C:0](=O)N5CCCC(n6nc(-c7ccc(Oc8ccc(F)cc8F)cc7)c(C(N)=O)c6N)C5)ccc43)ccc2CC1C(=O)NC1CCCc2ccccc21)C(C)(C)C

> <Shape>
0.341

> <Color>
0.098

> <Negative vol penalty>
0.000

$$$$

  -OEChem-04052303133D

 85 94  0     1  0  0  0  0  0999 V2000
  -32.2039  -36.7507   17.1345 C   0  0  0  0  0  0  0  0  0  0  0  0
  -32.3133  -35.3993   17.4461 C   0  0  0  0  0  0  0  0  0  0  0  0
  -23.5487   -9.5842   19.8419 C   0  0  0  0  0  0  0  0  0  0  0  0
  -24.3636   -9.6447   22.1155 C   0  0  0  0  0  0  0  0  0  0  0  0
  -31.4985  -37.6052   17.9808 C   0  0  0  0  0  0  0  0  0  0  0  0
  -31.7184  -34.9018   18.6050 C   0  0  0  0  0  0  0  0  0  0  0  0
  -29.1781  -29.3807   19.3604 C   0  0  0  0  0  0  0  0  0  0  0  0
  -28.4305  -18.6041   22.4729 C   0  0  0  0  0  0  0  0  0  0  0  0
  -23.0458   -8.3010   20.0562 C   0  0  0  0  0  0  0  0  0  0  0  0
  -23.8606   -8.3615   22.3299 C   0  0  0  0  0  0  0  0  0  0  0  0
  -29.6549  -28.1980   19.9240 C   0  0  0  0  0  0  0  0  0  0  0  0
  -20.8633   -6.9372   22.9685 C   0  0  0  0  0  0  0  0  0  0  0  0
  -20.1641   -6.7064   24.1532 C   0  0  0  0  0  0  0  0  0  0  0  0
  -28.3518  -19.9917   22.5147 C   0  0  0  0  0  0  0  0  0  0  0  0
  -28.5920  -28.7719   22.0121 C   0  0  0  0  0  0  0  0  0  0  0  0
  -21.7735   -5.0144   24.7732 C   0  0  0  0  0  0  0  0  0  0  0  0
  -29.9868  -18.7982   20.6849 C   0  0  0  0  0  0  0  0  0  0  0  0
  -24.2076  -10.2561   20.8715 C   0  0  0  0  0  0  0  0  0  0  0  0
  -24.0590  -12.8027   20.8579 C   0  0  0  0  0  0  0  0  0  0  0  0
  -30.8864  -37.1161   19.1456 C   0  0  0  0  0  0  0  0  0  0  0  0
  -28.4126  -30.2746   20.1229 C   0  0  0  0  0  0  0  0  0  0  0  0
  -31.0053  -35.7508   19.4684 C   0  0  0  0  0  0  0  0  0  0  0  0
  -28.1046  -29.9640   21.4551 C   0  0  0  0  0  0  0  0  0  0  0  0
  -29.2612  -17.9881   21.5435 C   0  0  0  0  0  0  0  0  0  0  0  0
  -23.2017   -7.6896   21.3002 C   0  0  0  0  0  0  0  0  0  0  0  0
  -29.3643  -27.8948   21.2510 C   0  0  0  0  0  0  0  0  0  0  0  0
  -22.0175   -6.2066   22.6861 C   0  0  0  0  0  0  0  0  0  0  0  0
  -20.6192   -5.7450   25.0556 C   0  0  0  0  0  0  0  0  0  0  0  0
  -22.4726   -5.2452   23.5885 C   0  0  0  0  0  0  0  0  0  0  0  0
  -24.7278  -11.5815   20.6505 C   0  0  0  0  0  0  0  0  0  0  0  0
  -29.1182  -20.7120   21.6128 C   0  0  0  0  0  0  0  0  0  0  0  0
  -24.9770  -13.7613   20.5042 C   0  0  0  0  0  0  0  0  0  0  0  0
  -22.7271  -13.0487   21.3282 C   0  0  0  0  0  0  0  0  0  0  0  0
  -28.7674  -33.2871   21.0730 C   0  0  0  0  0  0  0  0  0  0  0  0
  -25.7439  -32.8853   22.1770 C   0  0  0  0  0  0  0  0  0  0  0  0
  -23.3069  -30.7438   23.2360 C   0  0  0  0  0  0  0  0  0  0  0  0
  -30.1472  -15.8257   20.6025 C   0  0  0  0  0  0  0  0  0  0  0  0
  -30.1745  -38.0870   20.0540 C   0  0  0  0  0  0  0  0  0  0  0  0
  -27.8833  -31.5334   19.4922 C   0  0  0  0  0  0  0  0  0  0  0  0
  -27.2696  -30.8804   22.3103 C   0  0  0  0  0  0  0  0  0  0  0  0
  -29.2561  -37.4105   21.0685 C   0  0  0  0  0  0  0  0  0  0  0  0
  -29.4399  -13.3399   18.1535 C   0  0  0  0  0  0  0  0  0  0  0  0
  -29.9681  -36.2372   21.7341 C   0  0  0  0  0  0  0  0  0  0  0  0
  -28.0960  -12.7613   18.6018 C   0  0  0  0  0  0  0  0  0  0  0  0
  -28.3972  -24.2751   22.3415 C   0  0  0  0  0  0  0  0  0  0  0  0
  -30.3314  -13.6914   19.3433 C   0  0  0  0  0  0  0  0  0  0  0  0
  -28.1687  -22.7906   22.6225 C   0  0  0  0  0  0  0  0  0  0  0  0
  -28.3648  -13.9817   20.7985 C   0  0  0  0  0  0  0  0  0  0  0  0
  -30.3528  -35.1688   20.7035 C   0  0  1  0  0  0  0  0  0  0  0  0
  -27.5454  -32.6163   20.5123 C   0  0  1  0  0  0  0  0  0  0  0  0
  -27.4070  -13.6727   19.6363 C   0  0  2  0  0  0  0  0  0  0  0  0
  -29.8436  -23.0282   20.8724 C   0  0  2  0  0  0  0  0  0  0  0  0
  -29.8041  -24.3330   21.7244 C   0  0  2  0  0  0  0  0  0  0  0  0
  -29.2378  -23.1666   19.4718 C   0  0  0  0  0  0  0  0  0  0  0  0
  -30.8784  -24.2721   22.8315 C   0  0  0  0  0  0  0  0  0  0  0  0
  -20.9548  -30.7134   24.1104 C   0  0  0  0  0  0  0  0  0  0  0  0
  -26.7466  -33.8283   24.9001 C   0  0  0  0  0  0  0  0  0  0  0  0
  -24.6605  -32.8881   25.9162 C   0  0  0  0  0  0  0  0  0  0  0  0
  -24.5092  -34.7315   24.2424 C   0  0  0  0  0  0  0  0  0  0  0  0
  -22.3521  -29.1336   20.9437 C   0  0  0  0  0  0  0  0  0  0  0  0
  -30.0054  -25.6273   20.9298 C   0  0  0  0  0  0  0  0  0  1  0  0
  -25.1334  -32.4059   23.4718 C   0  0  1  0  0  0  0  0  0  0  0  0
  -21.8368  -30.6325   22.8741 C   0  0  2  0  0  0  0  0  0  0  0  0
  -25.2798  -33.4469   24.6173 C   0  0  0  0  0  0  0  0  0  0  0  0
  -29.9365  -20.1491   20.6956 N   0  0  0  0  0  0  0  0  0  0  0  0
  -25.9743  -11.7462   20.1998 N   0  0  0  0  0  0  0  0  0  0  0  0
  -26.0961  -13.0823   20.1211 N   0  0  0  0  0  0  0  0  0  0  0  0
  -29.0282  -22.0908   21.6657 N   0  0  3  0  0  0  0  0  0  0  0  0
  -26.7806  -32.1021   21.6501 N   0  0  0  0  0  0  0  0  0  0  0  0
  -29.6138  -14.5603   20.2787 N   0  0  0  0  0  0  0  0  0  0  0  0
  -24.9279  -15.1102   20.4866 N   0  0  0  0  0  0  0  0  0  0  0  0
  -21.9175  -11.9499   21.6468 N   0  0  0  0  0  0  0  0  0  0  0  0
  -29.3612  -16.5763   21.4763 N   0  0  0  0  0  0  0  0  0  0  0  0
  -29.1968  -34.3773   20.3406 N   0  0  0  0  0  0  0  0  0  0  0  0
  -23.7534  -32.0463   23.1639 N   0  0  0  0  0  0  0  0  0  0  0  0
  -21.5685  -29.3362   22.1895 N   0  3  0  0  0  0  0  0  0  0  0  0
  -22.2630  -14.2081   21.4463 O   0  0  0  0  0  0  0  0  0  0  0  0
  -29.2818  -32.8489   22.0953 O   0  0  0  0  0  0  0  0  0  0  0  0
  -25.3119  -33.9129   21.6488 O   0  0  0  0  0  0  0  0  0  0  0  0
  -23.9897  -29.7728   23.5547 O   0  0  0  0  0  0  0  0  0  0  0  0
  -31.2086  -16.2260   20.1176 O   0  0  0  0  0  0  0  0  0  0  0  0
  -22.7109   -6.4375   21.5099 O   0  0  0  0  0  0  0  0  0  0  0  0
  -29.8290  -26.7414   21.8038 O   0  0  0  0  0  0  0  0  0  1  0  0
  -19.9486   -5.5245   26.1939 F   0  0  0  0  0  0  0  0  0  0  0  0
  -23.5814   -4.5410   23.3232 F   0  0  0  0  0  0  0  0  0  0  0  0
  1  2  1  0  0  0  0
  1  5  2  0  0  0  0
  2  6  2  0  0  0  0
  3  9  2  0  0  0  0
  3 18  1  0  0  0  0
  4 10  1  0  0  0  0
  4 18  2  0  0  0  0
  5 20  1  0  0  0  0
  6 22  1  0  0  0  0
  7 11  2  0  0  0  0
  7 21  1  0  0  0  0
  8 14  2  0  0  0  0
  8 24  1  0  0  0  0
  9 25  1  0  0  0  0
 10 25  2  0  0  0  0
 11 26  1  0  0  0  0
 12 13  2  0  0  0  0
 12 27  1  0  0  0  0
 13 28  1  0  0  0  0
 14 31  1  0  0  0  0
 15 23  1  0  0  0  0
 15 26  2  0  0  0  0
 16 28  2  0  0  0  0
 16 29  1  0  0  0  0
 17 24  2  0  0  0  0
 17 65  1  0  0  0  0
 18 30  1  0  0  0  0
 19 30  1  0  0  0  0
 19 32  2  0  0  0  0
 19 33  1  0  0  0  0
 20 22  2  0  0  0  0
 20 38  1  0  0  0  0
 21 23  2  0  0  0  0
 21 39  1  0  0  0  0
 22 49  1  0  0  0  0
 23 40  1  0  0  0  0
 24 73  1  0  0  0  0
 25 82  1  0  0  0  0
 26 83  1  0  0  0  0
 27 29  2  0  0  0  0
 27 82  1  0  0  0  0
 28 84  1  0  0  0  0
 29 85  1  0  0  0  0
 30 66  2  0  0  0  0
 31 65  2  0  0  0  0
 31 68  1  0  0  0  0
 32 67  1  0  0  0  0
 32 71  1  0  0  0  0
 33 72  1  0  0  0  0
 33 77  2  0  0  0  0
 34 50  1  0  0  0  0
 34 74  1  0  0  0  0
 34 78  2  0  0  0  0
 35 62  1  0  0  0  0
 35 69  1  0  0  0  0
 35 79  2  0  0  0  0
 36 63  1  0  0  0  0
 36 75  1  0  0  0  0
 36 80  2  0  0  0  0
 37 70  1  0  0  0  0
 37 73  1  0  0  0  0
 37 81  2  0  0  0  0
 38 41  1  0  0  0  0
 39 50  1  0  0  0  0
 40 69  1  0  0  0  0
 41 43  1  0  0  0  0
 42 44  1  0  0  0  0
 42 46  1  0  0  0  0
 43 49  1  0  0  0  0
 44 51  1  0  0  0  0
 45 47  1  0  0  0  0
 45 53  1  0  0  0  0
 46 70  1  0  0  0  0
 47 68  1  0  0  0  0
 48 51  1  0  0  0  0
 48 70  1  0  0  0  0
 49 74  1  0  0  0  0
 50 69  1  0  0  0  0
 51 67  1  0  0  0  0
 52 53  1  0  0  0  0
 52 54  1  0  0  0  0
 52 68  1  0  0  0  0
 53 55  1  0  0  0  0
 53 61  1  0  0  0  0
 56 63  1  0  0  0  0
 57 64  1  0  0  0  0
 58 64  1  0  0  0  0
 59 64  1  0  0  0  0
 60 76  1  0  0  0  0
 61 83  1  0  0  0  0
 62 64  1  0  0  0  0
 62 75  1  0  0  0  0
 63 76  1  0  0  0  0
 66 67  1  0  0  0  0
M  CHG  1  76   1
M  ISO  4  37 100  61 101  73 100  83 101
M  END
> <Batch ID>
0147

> <Smiles>
CNC(C)C(=O)NC(C(=O)N1Cc2cc([101O:1][101CH2:1]C3(C)CCN(c4ccc([100NH:0][100C:0](=O)N5CCCC(n6nc(-c7ccc(Oc8ccc(F)cc8F)cc7)c(C(N)=O)c6N)C5)cn4)C3C)ccc2CC1C(=O)NC1CCCc2ccccc21)C(C)(C)C

> <Shape>
0.319

> <Color>
0.164

> <Negative vol penalty>
0.000

$$$$

  -OEChem-04052303133D

 85 94  0     1  0  0  0  0  0999 V2000
  -24.2819  -36.8839   16.8685 C   0  0  0  0  0  0  0  0  0  0  0  0
  -24.8475  -35.6279   16.6734 C   0  0  0  0  0  0  0  0  0  0  0  0
  -24.7766   -8.7022   21.1430 C   0  0  0  0  0  0  0  0  0  0  0  0
  -23.1246  -10.2131   20.2344 C   0  0  0  0  0  0  0  0  0  0  0  0
  -24.2515  -37.4428   18.1454 C   0  0  0  0  0  0  0  0  0  0  0  0
  -25.3841  -34.9305   17.7551 C   0  0  0  0  0  0  0  0  0  0  0  0
  -25.3339  -28.8675   18.6168 C   0  0  0  0  0  0  0  0  0  0  0  0
  -23.7638   -7.8176   21.5135 C   0  0  0  0  0  0  0  0  0  0  0  0
  -22.1118   -9.3285   20.6049 C   0  0  0  0  0  0  0  0  0  0  0  0
  -26.2917  -27.8799   18.3906 C   0  0  0  0  0  0  0  0  0  0  0  0
  -21.8110   -5.4986   20.0163 C   0  0  0  0  0  0  0  0  0  0  0  0
  -21.9997   -4.1445   19.7398 C   0  0  0  0  0  0  0  0  0  0  0  0
  -26.9724  -28.0196   20.7007 C   0  0  0  0  0  0  0  0  0  0  0  0
  -27.9748  -20.3687   16.5677 C   0  0  0  0  0  0  0  0  0  0  0  0
  -27.9799  -17.9799   16.9285 C   0  0  0  0  0  0  0  0  0  0  0  0
  -28.1371  -19.4862   18.8109 C   0  0  0  0  0  0  0  0  0  0  0  0
  -21.8280   -3.6394   22.0962 C   0  0  0  0  0  0  0  0  0  0  0  0
  -24.4570   -9.9000   20.5035 C   0  0  0  0  0  0  0  0  0  0  0  0
  -26.2014  -10.8439   18.8992 C   0  0  0  0  0  0  0  0  0  0  0  0
  -24.7793  -36.7477   19.2450 C   0  0  0  0  0  0  0  0  0  0  0  0
  -25.1953  -29.4472   19.8861 C   0  0  0  0  0  0  0  0  0  0  0  0
  -25.3619  -35.4812   19.0478 C   0  0  0  0  0  0  0  0  0  0  0  0
  -26.0104  -29.0125   20.9410 C   0  0  0  0  0  0  0  0  0  0  0  0
  -27.9242  -19.0704   16.0605 C   0  0  0  0  0  0  0  0  0  0  0  0
  -28.0814  -20.5767   17.9429 C   0  0  0  0  0  0  0  0  0  0  0  0
  -28.0864  -18.1878   18.3037 C   0  0  0  0  0  0  0  0  0  0  0  0
  -22.4314   -8.1307   21.2445 C   0  0  0  0  0  0  0  0  0  0  0  0
  -27.1131  -27.4579   19.4319 C   0  0  0  0  0  0  0  0  0  0  0  0
  -21.6309   -5.9231   21.3328 C   0  0  0  0  0  0  0  0  0  0  0  0
  -22.0082   -3.2149   20.7797 C   0  0  0  0  0  0  0  0  0  0  0  0
  -21.6394   -4.9935   22.3727 C   0  0  0  0  0  0  0  0  0  0  0  0
  -25.5027  -10.8144   20.1210 C   0  0  0  0  0  0  0  0  0  0  0  0
  -27.0826  -11.8890   19.0327 C   0  0  0  0  0  0  0  0  0  0  0  0
  -26.0659  -10.0019   17.7466 C   0  0  0  0  0  0  0  0  0  0  0  0
  -25.5164  -32.3845   21.0577 C   0  0  0  0  0  0  0  0  0  0  0  0
  -24.3781  -31.0086   23.7657 C   0  0  0  0  0  0  0  0  0  0  0  0
  -23.9434  -28.1715   25.6120 C   0  0  0  0  0  0  0  0  0  0  0  0
  -28.2484  -17.1105   20.5751 C   0  0  0  0  0  0  0  0  0  0  0  0
  -24.7661  -37.4128   20.5985 C   0  0  0  0  0  0  0  0  0  0  0  0
  -24.1392  -30.4923   20.1202 C   0  0  0  0  0  0  0  0  0  0  0  0
  -25.8878  -29.5886   22.3271 C   0  0  0  0  0  0  0  0  0  0  0  0
  -25.0190  -36.4477   21.7539 C   0  0  0  0  0  0  0  0  0  0  0  0
  -28.3783  -14.6058   23.1023 C   0  0  0  0  0  0  0  0  0  0  0  0
  -26.2049  -35.5405   21.4419 C   0  0  0  0  0  0  0  0  0  0  0  0
  -27.6993  -13.3985   22.4514 C   0  0  0  0  0  0  0  0  0  0  0  0
  -27.9795  -23.6793   19.9351 C   0  0  0  0  0  0  0  0  0  0  0  0
  -27.7163  -15.9194   22.6901 C   0  0  0  0  0  0  0  0  0  0  0  0
  -28.2426  -22.1754   19.8652 C   0  0  0  0  0  0  0  0  0  0  0  0
  -26.9089  -14.9148   20.5905 C   0  0  0  0  0  0  0  0  0  0  0  0
  -28.0485  -23.0664   17.6194 C   0  0  0  0  0  0  0  0  0  0  0  0
  -25.9318  -34.6830   20.2003 C   0  0  1  0  0  0  0  0  0  0  0  0
  -24.4329  -31.3788   21.3266 C   0  0  1  0  0  0  0  0  0  0  0  0
  -27.5817  -13.5734   20.9246 C   0  0  2  0  0  0  0  0  0  0  0  0
  -28.4531  -24.2088   18.5736 C   0  0  2  0  0  0  0  0  0  0  0  0
  -27.8103  -18.8482   14.5902 C   0  0  0  0  0  0  0  0  0  0  0  0
  -29.9771  -24.4171   18.5628 C   0  0  0  0  0  0  0  0  0  0  0  0
  -23.0130  -27.3682   27.7998 C   0  0  0  0  0  0  0  0  0  0  0  0
  -26.8171  -32.1337   25.2133 C   0  0  0  0  0  0  0  0  0  0  0  0
  -26.3464  -30.5479   27.0926 C   0  0  0  0  0  0  0  0  0  0  0  0
  -24.6753  -32.3004   26.4936 C   0  0  0  0  0  0  0  0  0  0  0  0
  -21.9788  -26.4156   24.2644 C   0  0  0  0  0  0  0  0  0  0  0  0
  -27.7594  -25.5227   18.2100 C   0  0  0  0  0  0  0  0  0  1  0  0
  -24.9985  -30.3191   24.9568 C   0  0  1  0  0  0  0  0  0  0  0  0
  -22.7267  -27.6109   26.3260 C   0  0  2  0  0  0  0  0  0  0  0  0
  -25.7132  -31.3156   25.9126 C   0  0  0  0  0  0  0  0  0  0  0  0
  -25.9055  -11.7651   20.9683 N   0  0  0  0  0  0  0  0  0  0  0  0
  -26.8668  -12.4018   20.2779 N   0  0  0  0  0  0  0  0  0  0  0  0
  -28.1316  -21.8607   18.4440 N   0  0  3  0  0  0  0  0  0  0  0  0
  -24.8446  -30.6123   22.5044 N   0  0  0  0  0  0  0  0  0  0  0  0
  -27.6434  -16.0174   21.2307 N   0  0  0  0  0  0  0  0  0  0  0  0
  -28.0133  -12.4101   18.2052 N   0  0  0  0  0  0  0  0  0  0  0  0
  -25.1117   -8.9758   17.7772 N   0  0  0  0  0  0  0  0  0  0  0  0
  -28.1426  -17.0797   19.1850 N   0  0  0  0  0  0  0  0  0  0  0  0
  -25.0586  -33.5775   20.5316 N   0  0  0  0  0  0  0  0  0  0  0  0
  -23.9299  -29.5500   25.5855 N   0  0  0  0  0  0  0  0  0  0  0  0
  -22.3133  -26.3191   25.7086 N   0  3  0  0  0  0  0  0  0  0  0  0
  -26.7815  -10.1446   16.7263 O   0  0  0  0  0  0  0  0  0  0  0  0
  -26.6812  -32.0998   21.3103 O   0  0  0  0  0  0  0  0  0  0  0  0
  -23.5063  -31.8622   23.9475 O   0  0  0  0  0  0  0  0  0  0  0  0
  -24.8201  -27.4580   25.1294 O   0  0  0  0  0  0  0  0  0  0  0  0
  -28.8421  -17.9937   21.1992 O   0  0  0  0  0  0  0  0  0  0  0  0
  -21.4428   -7.2676   21.6057 O   0  0  0  0  0  0  0  0  0  0  0  0
  -28.0493  -26.4947   19.2137 O   0  0  0  0  0  0  0  0  0  1  0  0
  -22.1879   -1.9144   20.5138 F   0  0  0  0  0  0  0  0  0  0  0  0
  -21.4657   -5.3951   23.6393 F   0  0  0  0  0  0  0  0  0  0  0  0
  1  2  1  0  0  0  0
  1  5  2  0  0  0  0
  2  6  2  0  0  0  0
  3  8  2  0  0  0  0
  3 18  1  0  0  0  0
  4  9  1  0  0  0  0
  4 18  2  0  0  0  0
  5 20  1  0  0  0  0
  6 22  1  0  0  0  0
  7 10  2  0  0  0  0
  7 21  1  0  0  0  0
  8 27  1  0  0  0  0
  9 27  2  0  0  0  0
 10 28  1  0  0  0  0
 11 12  2  0  0  0  0
 11 29  1  0  0  0  0
 12 30  1  0  0  0  0
 13 23  1  0  0  0  0
 13 28  2  0  0  0  0
 14 24  2  0  0  0  0
 14 25  1  0  0  0  0
 15 24  1  0  0  0  0
 15 26  2  0  0  0  0
 16 25  2  0  0  0  0
 16 26  1  0  0  0  0
 17 30  2  0  0  0  0
 17 31  1  0  0  0  0
 18 32  1  0  0  0  0
 19 32  1  0  0  0  0
 19 33  2  0  0  0  0
 19 34  1  0  0  0  0
 20 22  2  0  0  0  0
 20 39  1  0  0  0  0
 21 23  2  0  0  0  0
 21 40  1  0  0  0  0
 22 51  1  0  0  0  0
 23 41  1  0  0  0  0
 24 55  1  0  0  0  0
 25 68  1  0  0  0  0
 26 73  1  0  0  0  0
 27 82  1  0  0  0  0
 28 83  1  0  0  0  0
 29 31  2  0  0  0  0
 29 82  1  0  0  0  0
 30 84  1  0  0  0  0
 31 85  1  0  0  0  0
 32 66  2  0  0  0  0
 33 67  1  0  0  0  0
 33 71  1  0  0  0  0
 34 72  1  0  0  0  0
 34 77  2  0  0  0  0
 35 52  1  0  0  0  0
 35 74  1  0  0  0  0
 35 78  2  0  0  0  0
 36 63  1  0  0  0  0
 36 69  1  0  0  0  0
 36 79  2  0  0  0  0
 37 64  1  0  0  0  0
 37 75  1  0  0  0  0
 37 80  2  0  0  0  0
 38 70  1  0  0  0  0
 38 73  1  0  0  0  0
 38 81  2  0  0  0  0
 39 42  1  0  0  0  0
 40 52  1  0  0  0  0
 41 69  1  0  0  0  0
 42 44  1  0  0  0  0
 43 45  1  0  0  0  0
 43 47  1  0  0  0  0
 44 51  1  0  0  0  0
 45 53  1  0  0  0  0
 46 48  1  0  0  0  0
 46 54  1  0  0  0  0
 47 70  1  0  0  0  0
 48 68  1  0  0  0  0
 49 53  1  0  0  0  0
 49 70  1  0  0  0  0
 50 54  1  0  0  0  0
 50 68  1  0  0  0  0
 51 74  1  0  0  0  0
 52 69  1  0  0  0  0
 53 67  1  0  0  0  0
 54 56  1  0  0  0  0
 54 62  1  0  0  0  0
 57 64  1  0  0  0  0
 58 65  1  0  0  0  0
 59 65  1  0  0  0  0
 60 65  1  0  0  0  0
 61 76  1  0  0  0  0
 62 83  1  0  0  0  0
 63 65  1  0  0  0  0
 63 75  1  0  0  0  0
 64 76  1  0  0  0  0
 66 67  1  0  0  0  0
M  CHG  1  76   1
M  ISO  4  38 100  62 101  73 100  83 101
M  END
> <Batch ID>
0147

> <Smiles>
CNC(C)C(=O)NC(C(=O)N1Cc2cc([101O:1][101CH2:1]C3(C)CCN(c4cc(C)cc([100NH:0][100C:0](=O)N5CCCC(n6nc(-c7ccc(Oc8ccc(F)cc8F)cc7)c(C(N)=O)c6N)C5)c4)C3)ccc2CC1C(=O)NC1CCCc2ccccc21)C(C)(C)C

> <Shape>
0.263

> <Color>
0.118

> <Negative vol penalty>
0.000

$$$$

  -OEChem-04052303133D

 85 94  0     1  0  0  0  0  0999 V2000
  -17.4833  -26.2514   22.6642 C   0  0  0  0  0  0  0  0  0  0  0  0
  -18.7406  -25.8927   22.1889 C   0  0  0  0  0  0  0  0  0  0  0  0
  -26.5495  -10.7950   21.3256 C   0  0  0  0  0  0  0  0  0  0  0  0
  -25.6635  -11.8517   19.3418 C   0  0  0  0  0  0  0  0  0  0  0  0
  -17.1155  -27.5954   22.7139 C   0  0  0  0  0  0  0  0  0  0  0  0
  -19.6305  -26.8777   21.7620 C   0  0  0  0  0  0  0  0  0  0  0  0
  -25.7285  -26.8241   22.3253 C   0  0  0  0  0  0  0  0  0  0  0  0
  -27.8747  -20.1473   16.0900 C   0  0  0  0  0  0  0  0  0  0  0  0
  -28.0507  -21.4277   16.6145 C   0  0  0  0  0  0  0  0  0  0  0  0
  -25.2734  -10.3348   21.6504 C   0  0  0  0  0  0  0  0  0  0  0  0
  -24.3874  -11.3915   19.6666 C   0  0  0  0  0  0  0  0  0  0  0  0
  -26.7496  -26.4892   21.4371 C   0  0  0  0  0  0  0  0  0  0  0  0
  -22.3109   -8.5771   22.8119 C   0  0  0  0  0  0  0  0  0  0  0  0
  -22.1856   -7.2511   23.2263 C   0  0  0  0  0  0  0  0  0  0  0  0
  -27.0051  -28.8180   20.8622 C   0  0  0  0  0  0  0  0  0  0  0  0
  -29.3871  -20.5101   18.4060 C   0  0  0  0  0  0  0  0  0  0  0  0
  -23.0840   -6.5052   21.1112 C   0  0  0  0  0  0  0  0  0  0  0  0
  -26.7445  -11.5535   20.1714 C   0  0  0  0  0  0  0  0  0  0  0  0
  -29.0301  -11.3718   19.0529 C   0  0  0  0  0  0  0  0  0  0  0  0
  -18.0050  -28.5980   22.2965 C   0  0  0  0  0  0  0  0  0  0  0  0
  -25.3300  -28.1595   22.4808 C   0  0  0  0  0  0  0  0  0  0  0  0
  -19.2738  -28.2362   21.8050 C   0  0  0  0  0  0  0  0  0  0  0  0
  -25.9804  -29.1675   21.7549 C   0  0  0  0  0  0  0  0  0  0  0  0
  -28.4549  -19.0482   16.7235 C   0  0  0  0  0  0  0  0  0  0  0  0
  -28.8069  -21.6091   17.7725 C   0  0  0  0  0  0  0  0  0  0  0  0
  -29.2111  -19.2297   17.8815 C   0  0  0  0  0  0  0  0  0  0  0  0
  -24.1924  -10.6331   20.8209 C   0  0  0  0  0  0  0  0  0  0  0  0
  -27.3861  -27.4859   20.7032 C   0  0  0  0  0  0  0  0  0  0  0  0
  -22.8226   -8.8671   21.5471 C   0  0  0  0  0  0  0  0  0  0  0  0
  -22.5722   -6.2152   22.3760 C   0  0  0  0  0  0  0  0  0  0  0  0
  -23.2092   -7.8312   20.6968 C   0  0  0  0  0  0  0  0  0  0  0  0
  -28.0624  -12.0296   19.8356 C   0  0  0  0  0  0  0  0  0  0  0  0
  -30.0995  -12.2334   19.0333 C   0  0  0  0  0  0  0  0  0  0  0  0
  -28.7357  -25.1486   18.6883 C   0  0  0  0  0  0  0  0  0  0  0  0
  -28.9678  -10.0960   18.4016 C   0  0  0  0  0  0  0  0  0  0  0  0
  -28.0881  -26.3127   18.8054 C   0  0  0  0  0  0  0  0  0  1  0  0
  -22.6318  -29.7667   21.9907 C   0  0  0  0  0  0  0  0  0  0  0  0
  -24.2862  -32.1953   23.3643 C   0  0  0  0  0  0  0  0  0  0  0  0
  -27.3150  -33.5809   24.1084 C   0  0  0  0  0  0  0  0  0  0  0  0
  -30.5857  -18.1519   19.6967 C   0  0  0  0  0  0  0  0  0  0  0  0
  -17.5451  -30.0341   22.3247 C   0  0  0  0  0  0  0  0  0  0  0  0
  -24.2450  -28.5073   23.4628 C   0  0  0  0  0  0  0  0  0  0  0  0
  -25.6038  -30.6185   21.9004 C   0  0  0  0  0  0  0  0  0  0  0  0
  -29.8151  -24.6684   19.6060 C   0  0  0  0  0  0  0  0  0  0  0  0
  -28.4081  -24.0789   17.6903 C   0  0  0  0  0  0  0  0  0  0  0  0
  -18.6857  -31.0414   22.2047 C   0  0  0  0  0  0  0  0  0  0  0  0
  -32.2036  -15.6505   21.6468 C   0  0  0  0  0  0  0  0  0  0  0  0
  -19.6344  -30.6421   21.0789 C   0  0  0  0  0  0  0  0  0  0  0  0
  -31.4171  -14.3771   21.3277 C   0  0  0  0  0  0  0  0  0  0  0  0
  -29.6491  -23.1520   19.5614 C   0  0  0  0  0  0  0  0  0  0  0  0
  -31.2955  -16.8775   21.7084 C   0  0  0  0  0  0  0  0  0  0  0  0
  -29.6596  -15.8077   20.2089 C   0  0  0  0  0  0  0  0  0  0  0  0
  -20.2762  -29.2773   21.3562 C   0  0  1  0  0  0  0  0  0  0  0  0
  -23.5712  -29.8423   23.1609 C   0  0  1  0  0  0  0  0  0  0  0  0
  -30.5410  -14.5554   20.0722 C   0  0  2  0  0  0  0  0  0  0  0  0
  -28.2495  -17.6883   16.1393 C   0  0  0  0  0  0  0  0  0  0  0  0
  -27.0264  -26.7683   17.8569 C   0  0  0  0  0  0  0  0  0  0  0  0
  -28.3469  -35.5884   25.2049 C   0  0  0  0  0  0  0  0  0  0  0  0
  -23.5928  -33.8841   20.9195 C   0  0  0  0  0  0  0  0  0  0  0  0
  -25.3898  -35.4874   21.6040 C   0  0  0  0  0  0  0  0  0  0  0  0
  -23.4345  -35.0943   23.1024 C   0  0  0  0  0  0  0  0  0  0  0  0
  -28.6848  -31.9145   26.1347 C   0  0  0  0  0  0  0  0  0  0  0  0
  -25.1914  -33.2926   22.8588 C   0  0  1  0  0  0  0  0  0  0  0  0
  -27.8692  -34.1577   25.3986 C   0  0  2  0  0  0  0  0  0  0  0  0
  -24.4081  -34.4122   22.1168 C   0  0  0  0  0  0  0  0  0  0  0  0
  -28.4801  -13.2174   20.2812 N   0  0  0  0  0  0  0  0  0  0  0  0
  -29.7222  -13.3128   19.7769 N   0  0  0  0  0  0  0  0  0  0  0  0
  -28.9809  -22.8771   18.2916 N   0  0  3  0  0  0  0  0  0  0  0  0
  -24.5327  -30.9073   22.8684 N   0  0  0  0  0  0  0  0  0  0  0  0
  -30.4992  -16.9842   20.4840 N   0  0  0  0  0  0  0  0  0  0  0  0
  -31.3164  -12.1656   18.4528 N   0  0  0  0  0  0  0  0  0  0  0  0
  -27.7940   -9.3399   18.5240 N   0  0  0  0  0  0  0  0  0  0  0  0
  -29.8083  -18.1259   18.5393 N   0  0  0  0  0  0  0  0  0  0  0  0
  -21.3407  -29.4076   22.3279 N   0  0  0  0  0  0  0  0  0  0  0  0
  -25.9511  -33.7596   24.0134 N   0  0  0  0  0  0  0  0  0  0  0  0
  -29.0181  -33.3397   25.8802 N   0  3  0  0  0  0  0  0  0  0  0  0
  -29.9308   -9.6327   17.7447 O   0  0  0  0  0  0  0  0  0  0  0  0
  -23.0471  -30.0173   20.8653 O   0  0  0  0  0  0  0  0  0  0  0  0
  -23.3979  -32.4697   24.1750 O   0  0  0  0  0  0  0  0  0  0  0  0
  -28.0219  -33.0304   23.2671 O   0  0  0  0  0  0  0  0  0  0  0  0
  -31.3180  -19.0937   20.0111 O   0  0  0  0  0  0  0  0  0  0  0  0
  -22.9471  -10.1840   21.1374 O   0  0  0  0  0  0  0  0  0  0  0  0
  -28.3827  -27.1616   19.8351 O   0  0  0  0  0  0  0  0  0  1  0  0
  -22.4533   -4.9420   22.7747 F   0  0  0  0  0  0  0  0  0  0  0  0
  -23.7026   -8.1036   19.4810 F   0  0  0  0  0  0  0  0  0  0  0  0
  1  2  1  0  0  0  0
  1  5  2  0  0  0  0
  2  6  2  0  0  0  0
  3 10  2  0  0  0  0
  3 18  1  0  0  0  0
  4 11  1  0  0  0  0
  4 18  2  0  0  0  0
  5 20  1  0  0  0  0
  6 22  1  0  0  0  0
  7 12  2  0  0  0  0
  7 21  1  0  0  0  0
  8  9  2  0  0  0  0
  8 24  1  0  0  0  0
  9 25  1  0  0  0  0
 10 27  1  0  0  0  0
 11 27  2  0  0  0  0
 12 28  1  0  0  0  0
 13 14  2  0  0  0  0
 13 29  1  0  0  0  0
 14 30  1  0  0  0  0
 15 23  1  0  0  0  0
 15 28  2  0  0  0  0
 16 25  2  0  0  0  0
 16 26  1  0  0  0  0
 17 30  2  0  0  0  0
 17 31  1  0  0  0  0
 18 32  1  0  0  0  0
 19 32  1  0  0  0  0
 19 33  2  0  0  0  0
 19 35  1  0  0  0  0
 20 22  2  0  0  0  0
 20 41  1  0  0  0  0
 21 23  2  0  0  0  0
 21 42  1  0  0  0  0
 22 53  1  0  0  0  0
 23 43  1  0  0  0  0
 24 26  2  0  0  0  0
 24 56  1  0  0  0  0
 25 68  1  0  0  0  0
 26 73  1  0  0  0  0
 27 82  1  0  0  0  0
 28 83  1  0  0  0  0
 29 31  2  0  0  0  0
 29 82  1  0  0  0  0
 30 84  1  0  0  0  0
 31 85  1  0  0  0  0
 32 66  2  0  0  0  0
 33 67  1  0  0  0  0
 33 71  1  0  0  0  0
 34 36  2  0  0  0  0
 34 44  1  0  0  0  0
 34 45  1  0  0  0  0
 35 72  1  0  0  0  0
 35 77  2  0  0  0  0
 36 57  1  0  0  0  0
 36 83  1  0  0  0  0
 37 54  1  0  0  0  0
 37 74  1  0  0  0  0
 37 78  2  0  0  0  0
 38 63  1  0  0  0  0
 38 69  1  0  0  0  0
 38 79  2  0  0  0  0
 39 64  1  0  0  0  0
 39 75  1  0  0  0  0
 39 80  2  0  0  0  0
 40 70  1  0  0  0  0
 40 73  1  0  0  0  0
 40 81  2  0  0  0  0
 41 46  1  0  0  0  0
 42 54  1  0  0  0  0
 43 69  1  0  0  0  0
 44 50  1  0  0  0  0
 45 68  1  0  0  0  0
 46 48  1  0  0  0  0
 47 49  1  0  0  0  0
 47 51  1  0  0  0  0
 48 53  1  0  0  0  0
 49 55  1  0  0  0  0
 50 68  1  0  0  0  0
 51 70  1  0  0  0  0
 52 55  1  0  0  0  0
 52 70  1  0  0  0  0
 53 74  1  0  0  0  0
 54 69  1  0  0  0  0
 55 67  1  0  0  0  0
 58 64  1  0  0  0  0
 59 65  1  0  0  0  0
 60 65  1  0  0  0  0
 61 65  1  0  0  0  0
 62 76  1  0  0  0  0
 63 65  1  0  0  0  0
 63 75  1  0  0  0  0
 64 76  1  0  0  0  0
 66 67  1  0  0  0  0
M  CHG  1  76   1
M  ISO  4  36 101  40 100  73 100  83 101
M  END
> <Batch ID>
0147

> <Smiles>
CNC(C)C(=O)NC(C(=O)N1Cc2cc([101O:1][101C:1](C)=C3CCN(c4ccc(C)c([100NH:0][100C:0](=O)N5CCCC(n6nc(-c7ccc(Oc8ccc(F)cc8F)cc7)c(C(N)=O)c6N)C5)c4)C3)ccc2CC1C(=O)NC1CCCc2ccccc21)C(C)(C)C

> <Shape>
0.352

> <Color>
0.098

> <Negative vol penalty>
0.000

$$$$

  -OEChem-04052303133D

 86 94  0     1  0  0  0  0  0999 V2000
  -27.0531  -22.9245   27.1351 C   0  0  0  0  0  0  0  0  0  0  0  0
  -26.2643  -23.8670   26.4833 C   0  0  0  0  0  0  0  0  0  0  0  0
  -26.5180  -28.0543   18.8616 C   0  0  0  0  0  0  0  0  0  0  0  0
  -29.2755  -17.5866   18.5669 C   0  0  0  0  0  0  0  0  0  0  0  0
  -27.0074  -18.0486   19.2594 C   0  0  0  0  0  0  0  0  0  0  0  0
  -27.1385  -21.6247   26.6378 C   0  0  0  0  0  0  0  0  0  0  0  0
  -25.5612  -23.5105   25.3330 C   0  0  0  0  0  0  0  0  0  0  0  0
  -20.7955  -25.2228   25.3601 C   0  0  0  0  0  0  0  0  0  0  0  0
  -27.3536  -27.6654   19.9085 C   0  0  0  0  0  0  0  0  0  0  0  0
  -25.2694  -28.6123   19.1362 C   0  0  0  0  0  0  0  0  0  0  0  0
  -28.9558  -16.2368   18.4203 C   0  0  0  0  0  0  0  0  0  0  0  0
  -26.6877  -16.6988   19.1128 C   0  0  0  0  0  0  0  0  0  0  0  0
  -20.6008  -26.5688   25.0533 C   0  0  0  0  0  0  0  0  0  0  0  0
  -28.8291  -12.6087   18.2099 C   0  0  0  0  0  0  0  0  0  0  0  0
  -29.7244  -11.6694   18.7214 C   0  0  0  0  0  0  0  0  0  0  0  0
  -19.9776  -25.9597   22.8039 C   0  0  0  0  0  0  0  0  0  0  0  0
  -25.6920  -28.3923   21.5048 C   0  0  0  0  0  0  0  0  0  0  0  0
  -29.4391  -12.6015   20.9321 C   0  0  0  0  0  0  0  0  0  0  0  0
  -28.3013  -18.4925   18.9865 C   0  0  0  0  0  0  0  0  0  0  0  0
  -28.5372  -20.8943   18.1599 C   0  0  0  0  0  0  0  0  0  0  0  0
  -26.4286  -21.2496   25.4864 C   0  0  0  0  0  0  0  0  0  0  0  0
  -20.5929  -24.2343   24.3864 C   0  0  0  0  0  0  0  0  0  0  0  0
  -25.6383  -22.2049   24.8191 C   0  0  0  0  0  0  0  0  0  0  0  0
  -20.1680  -24.6017   23.1016 C   0  0  0  0  0  0  0  0  0  0  0  0
  -26.9406  -27.8343   21.2301 C   0  0  0  0  0  0  0  0  0  0  0  0
  -24.8564  -28.7812   20.4578 C   0  0  0  0  0  0  0  0  0  0  0  0
  -27.6620  -15.7929   18.6932 C   0  0  0  0  0  0  0  0  0  0  0  0
  -20.1946  -26.9377   23.7742 C   0  0  0  0  0  0  0  0  0  0  0  0
  -28.2388  -13.5445   19.0594 C   0  0  0  0  0  0  0  0  0  0  0  0
  -30.0294  -11.6657   20.0825 C   0  0  0  0  0  0  0  0  0  0  0  0
  -28.5438  -13.5408   20.4205 C   0  0  0  0  0  0  0  0  0  0  0  0
  -28.6311  -19.8869   19.1386 C   0  0  0  0  0  0  0  0  0  0  0  0
  -28.9632  -22.0336   18.7978 C   0  0  0  0  0  0  0  0  0  0  0  0
  -28.1037  -20.8080   16.7959 C   0  0  0  0  0  0  0  0  0  0  0  0
  -22.4354  -22.0574   22.9827 C   0  0  0  0  0  0  0  0  0  0  0  0
  -21.7198  -30.1630   21.9976 C   0  0  0  0  0  0  0  0  0  0  0  0
  -19.6294  -21.0965   21.6691 C   0  0  0  0  0  0  0  0  0  0  0  0
  -16.4393  -21.8876   20.7504 C   0  0  0  0  0  0  0  0  0  0  0  0
  -28.9770  -25.4053   23.2450 C   0  0  0  0  0  0  0  0  0  0  0  0
  -26.5896  -19.8456   24.9595 C   0  0  0  0  0  0  0  0  0  0  0  0
  -20.7814  -22.7848   24.7409 C   0  0  0  0  0  0  0  0  0  0  0  0
  -19.9172  -23.5774   22.0262 C   0  0  0  0  0  0  0  0  0  0  0  0
  -25.5172  -19.4476   23.9486 C   0  0  0  0  0  0  0  0  0  0  0  0
  -31.2274  -22.6465   23.2794 C   0  0  0  0  0  0  0  0  0  0  0  0
  -25.3192  -20.5537   22.9170 C   0  0  0  0  0  0  0  0  0  0  0  0
  -30.7410  -21.7633   22.1290 C   0  0  0  0  0  0  0  0  0  0  0  0
  -30.0640  -23.3145   24.0089 C   0  0  0  0  0  0  0  0  0  0  0  0
  -28.6548  -23.1871   21.9911 C   0  0  0  0  0  0  0  0  0  0  0  0
  -24.8411  -21.8498   23.5827 C   0  0  1  0  0  0  0  0  0  0  0  0
  -21.0428  -21.9013   23.5249 C   0  0  1  0  0  0  0  0  0  0  0  0
  -29.7953  -22.5360   21.1900 C   0  0  2  0  0  0  0  0  0  0  0  0
  -14.4006  -20.9052   19.6659 C   0  0  0  0  0  0  0  0  0  0  0  0
  -19.6262  -31.1071   23.0295 C   0  0  0  0  0  0  0  0  0  0  0  0
  -21.8453  -31.4882   24.1144 C   0  0  0  0  0  0  0  0  0  0  0  0
  -20.9700  -21.3350   18.9386 C   0  0  0  0  0  0  0  0  0  0  0  0
  -18.6952  -21.2806   17.8945 C   0  0  0  0  0  0  0  0  0  0  0  0
  -19.5084  -19.3241   19.2110 C   0  0  0  0  0  0  0  0  0  0  0  0
  -14.7987  -22.3197   23.1754 C   0  0  0  0  0  0  0  0  0  0  0  0
  -27.8340  -27.4178   22.3491 C   0  0  0  0  0  0  0  0  0  0  0  0
  -23.1082  -29.5476   22.0647 C   0  0  0  0  0  0  0  0  0  0  0  0
  -20.8034  -29.2015   24.1749 C   0  0  0  0  0  0  0  0  0  1  0  0
  -18.8582  -21.4474   20.4197 C   0  0  1  0  0  0  0  0  0  0  0  0
  -15.1189  -21.1742   20.9790 C   0  0  2  0  0  0  0  0  0  0  0  0
  -20.9990  -30.4741   23.3306 C   0  0  0  0  0  0  0  0  0  0  0  0
  -19.5145  -20.8664   19.1354 C   0  0  0  0  0  0  0  0  0  0  0  0
  -29.0815  -20.3457   20.3094 N   0  0  0  0  0  0  0  0  0  0  0  0
  -29.2745  -21.6540   20.0703 N   0  0  0  0  0  0  0  0  0  0  0  0
  -20.1213  -22.1736   22.4200 N   0  0  0  0  0  0  0  0  0  0  0  0
  -29.2064  -24.0316   23.0622 N   0  0  0  0  0  0  0  0  0  0  0  0
  -29.0982  -23.3130   18.3889 N   0  0  0  0  0  0  0  0  0  0  0  0
  -27.6993  -19.5607   16.3010 N   0  0  0  0  0  0  0  0  0  0  0  0
  -23.6158  -29.3361   20.7306 N   0  0  0  0  0  0  0  0  0  0  0  0
  -23.4307  -21.7666   23.8960 N   0  0  0  0  0  0  0  0  0  0  0  0
  -17.4885  -20.9990   20.6460 N   0  0  0  0  0  0  0  0  0  0  0  0
  -28.1577  -26.0094   22.2992 N   0  0  0  0  0  0  0  0  0  0  0  0
  -14.2271  -21.9992   21.8421 N   0  3  0  0  0  0  0  0  0  0  0  0
  -28.0912  -21.8043   16.0338 O   0  0  0  0  0  0  0  0  0  0  0  0
  -22.5950  -22.4139   21.8211 O   0  0  0  0  0  0  0  0  0  0  0  0
  -21.1917  -30.4204   20.9126 O   0  0  0  0  0  0  0  0  0  0  0  0
  -19.7833  -19.9106   21.9717 O   0  0  0  0  0  0  0  0  0  0  0  0
  -16.5302  -23.1105   20.6686 O   0  0  0  0  0  0  0  0  0  0  0  0
  -29.4703  -26.0470   24.1787 O   0  0  0  0  0  0  0  0  0  0  0  0
  -27.3496  -14.4759   18.5501 O   0  0  0  0  0  0  0  0  0  0  0  0
  -20.0045  -28.2508   23.4719 O   0  0  0  0  0  0  0  0  0  1  0  0
  -30.8879  -10.7626   20.5739 F   0  0  0  0  0  0  0  0  0  0  0  0
  -27.9790  -14.4366   21.2417 F   0  0  0  0  0  0  0  0  0  0  0  0
  1  2  1  0  0  0  0
  1  6  2  0  0  0  0
  2  7  2  0  0  0  0
  3  9  1  0  0  0  0
  3 10  2  0  0  0  0
  4 11  2  0  0  0  0
  4 19  1  0  0  0  0
  5 12  1  0  0  0  0
  5 19  2  0  0  0  0
  6 21  1  0  0  0  0
  7 23  1  0  0  0  0
  8 13  2  0  0  0  0
  8 22  1  0  0  0  0
  9 25  2  0  0  0  0
 10 26  1  0  0  0  0
 11 27  1  0  0  0  0
 12 27  2  0  0  0  0
 13 28  1  0  0  0  0
 14 15  2  0  0  0  0
 14 29  1  0  0  0  0
 15 30  1  0  0  0  0
 16 24  1  0  0  0  0
 16 28  2  0  0  0  0
 17 25  1  0  0  0  0
 17 26  2  0  0  0  0
 18 30  2  0  0  0  0
 18 31  1  0  0  0  0
 19 32  1  0  0  0  0
 20 32  1  0  0  0  0
 20 33  2  0  0  0  0
 20 34  1  0  0  0  0
 21 23  2  0  0  0  0
 21 40  1  0  0  0  0
 22 24  2  0  0  0  0
 22 41  1  0  0  0  0
 23 49  1  0  0  0  0
 24 42  1  0  0  0  0
 25 59  1  0  0  0  0
 26 72  1  0  0  0  0
 27 83  1  0  0  0  0
 28 84  1  0  0  0  0
 29 31  2  0  0  0  0
 29 83  1  0  0  0  0
 30 85  1  0  0  0  0
 31 86  1  0  0  0  0
 32 66  2  0  0  0  0
 33 67  1  0  0  0  0
 33 70  1  0  0  0  0
 34 71  1  0  0  0  0
 34 77  2  0  0  0  0
 35 50  1  0  0  0  0
 35 73  1  0  0  0  0
 35 78  2  0  0  0  0
 36 60  1  0  0  0  0
 36 64  1  0  0  0  0
 36 79  2  0  0  0  0
 37 62  1  0  0  0  0
 37 68  1  0  0  0  0
 37 80  2  0  0  0  0
 38 63  1  0  0  0  0
 38 74  1  0  0  0  0
 38 81  2  0  0  0  0
 39 69  1  0  0  0  0
 39 75  1  0  0  0  0
 39 82  2  0  0  0  0
 40 43  1  0  0  0  0
 41 50  1  0  0  0  0
 42 68  1  0  0  0  0
 43 45  1  0  0  0  0
 44 46  1  0  0  0  0
 44 47  1  0  0  0  0
 45 49  1  0  0  0  0
 46 51  1  0  0  0  0
 47 69  1  0  0  0  0
 48 51  1  0  0  0  0
 48 69  1  0  0  0  0
 49 73  1  0  0  0  0
 50 68  1  0  0  0  0
 51 67  1  0  0  0  0
 52 63  1  0  0  0  0
 53 64  1  0  0  0  0
 54 64  1  0  0  0  0
 55 65  1  0  0  0  0
 56 65  1  0  0  0  0
 57 65  1  0  0  0  0
 58 76  1  0  0  0  0
 59 75  1  0  0  0  0
 60 72  1  0  0  0  0
 61 64  1  0  0  0  0
 61 84  1  0  0  0  0
 62 65  1  0  0  0  0
 62 74  1  0  0  0  0
 63 76  1  0  0  0  0
 66 67  1  0  0  0  0
M  CHG  1  76   1
M  ISO  4  39 100  61 101  75 100  84 101
M  END
> <Batch ID>
0147

> <Smiles>
CNC(C)C(=O)NC(C(=O)N1Cc2cc([101O:1][101CH2:1]C(C)(C)C(=O)CNc3cccc(C[100NH:0][100C:0](=O)N4CCCC(n5nc(-c6ccc(Oc7ccc(F)cc7F)cc6)c(C(N)=O)c5N)C4)c3)ccc2CC1C(=O)NC1CCCc2ccccc21)C(C)(C)C

> <Shape>
0.178

> <Color>
0.065

> <Negative vol penalty>
0.000

$$$$

  -OEChem-04052303133D

 85 94  0     1  0  0  0  0  0999 V2000
  -28.3879  -35.5267   26.9027 C   0  0  0  0  0  0  0  0  0  0  0  0
  -28.1558  -34.1558   26.8566 C   0  0  0  0  0  0  0  0  0  0  0  0
  -22.7781  -10.0623   20.2226 C   0  0  0  0  0  0  0  0  0  0  0  0
  -24.5331   -8.9651   21.4689 C   0  0  0  0  0  0  0  0  0  0  0  0
  -27.4593  -36.4087   26.3516 C   0  0  0  0  0  0  0  0  0  0  0  0
  -26.9944  -33.6661   26.2602 C   0  0  0  0  0  0  0  0  0  0  0  0
  -27.3234  -29.0920   20.7050 C   0  0  0  0  0  0  0  0  0  0  0  0
  -21.8320   -9.5700   21.1215 C   0  0  0  0  0  0  0  0  0  0  0  0
  -23.5870   -8.4728   22.3679 C   0  0  0  0  0  0  0  0  0  0  0  0
  -27.3024  -28.0515   19.7760 C   0  0  0  0  0  0  0  0  0  0  0  0
  -21.3244   -5.9629   22.4776 C   0  0  0  0  0  0  0  0  0  0  0  0
  -21.4216   -4.6226   22.8515 C   0  0  0  0  0  0  0  0  0  0  0  0
  -27.7674  -19.7842   18.9777 C   0  0  0  0  0  0  0  0  0  0  0  0
  -28.4644  -18.5741   19.2604 C   0  0  0  0  0  0  0  0  0  0  0  0
  -24.8877  -28.1563   19.6970 C   0  0  0  0  0  0  0  0  0  0  0  0
  -21.6917   -5.2860   25.1589 C   0  0  0  0  0  0  0  0  0  0  0  0
  -24.1287   -9.7598   20.3963 C   0  0  0  0  0  0  0  0  0  0  0  0
  -25.1684  -10.0268   18.0821 C   0  0  0  0  0  0  0  0  0  0  0  0
  -26.2905  -35.9291   25.7396 C   0  0  0  0  0  0  0  0  0  0  0  0
  -26.1259  -29.6796   21.1224 C   0  0  0  0  0  0  0  0  0  0  0  0
  -26.0486  -34.5425   25.7016 C   0  0  0  0  0  0  0  0  0  0  0  0
  -24.9032  -29.2072   20.6179 C   0  0  0  0  0  0  0  0  0  0  0  0
  -22.2364   -8.7752   22.1941 C   0  0  0  0  0  0  0  0  0  0  0  0
  -26.0876  -27.5847   19.2734 C   0  0  0  0  0  0  0  0  0  0  0  0
  -21.4109   -6.9647   23.4443 C   0  0  0  0  0  0  0  0  0  0  0  0
  -21.6052   -4.2841   24.1921 C   0  0  0  0  0  0  0  0  0  0  0  0
  -21.5946   -6.6262   24.7850 C   0  0  0  0  0  0  0  0  0  0  0  0
  -25.1065  -10.2676   19.4677 C   0  0  0  0  0  0  0  0  0  0  0  0
  -26.4186  -19.5736   18.7931 C   0  0  0  0  0  0  0  0  0  0  0  0
  -26.2713  -10.7285   17.6606 C   0  0  0  0  0  0  0  0  0  0  0  0
  -27.6216  -17.4845   19.2813 C   0  0  0  0  0  0  0  0  0  0  0  0
  -24.3060   -9.2393   17.2503 C   0  0  0  0  0  0  0  0  0  0  0  0
  -25.3230  -24.3120   17.9358 C   0  0  0  0  0  0  0  0  0  0  0  0
  -24.4579  -32.2794   23.2519 C   0  0  0  0  0  0  0  0  0  0  0  0
  -22.9698  -32.2357   20.5698 C   0  0  0  0  0  0  0  0  0  0  0  0
  -21.1804  -32.9988   17.7674 C   0  0  0  0  0  0  0  0  0  0  0  0
  -29.1196  -15.5264   19.7991 C   0  0  0  0  0  0  0  0  0  0  0  0
  -25.2933  -36.9234   25.1996 C   0  0  0  0  0  0  0  0  0  0  0  0
  -26.0971  -30.7615   22.1677 C   0  0  0  0  0  0  0  0  0  0  0  0
  -23.6380  -29.8462   21.1217 C   0  0  0  0  0  0  0  0  0  0  0  0
  -24.2676  -36.3047   24.2533 C   0  0  0  0  0  0  0  0  0  0  0  0
  -30.5205  -12.3074   19.2051 C   0  0  0  0  0  0  0  0  0  0  0  0
  -23.7063  -35.0150   24.8436 C   0  0  0  0  0  0  0  0  0  0  0  0
  -25.5805  -21.2770   17.1217 C   0  0  0  0  0  0  0  0  0  0  0  0
  -25.1864  -21.6325   19.5951 C   0  0  0  0  0  0  0  0  0  0  0  0
  -24.4725  -22.2785   16.7913 C   0  0  0  0  0  0  0  0  0  0  0  0
  -24.0762  -22.6376   19.2835 C   0  0  0  0  0  0  0  0  0  0  0  0
  -29.2966  -11.3982   19.0729 C   0  0  0  0  0  0  0  0  0  0  0  0
  -30.3091  -13.3935   20.2584 C   0  0  0  0  0  0  0  0  0  0  0  0
  -27.8666  -13.2857   19.9556 C   0  0  0  0  0  0  0  0  0  0  0  0
  -24.8125  -33.9715   25.0413 C   0  0  1  0  0  0  0  0  0  0  0  0
  -25.3380  -20.5912   18.4752 C   0  0  0  0  0  0  0  0  0  0  0  0
  -24.2044  -23.2830   17.9073 C   0  0  0  0  0  0  0  0  0  0  0  0
  -24.9850  -31.7991   21.9317 C   0  0  1  0  0  0  0  0  0  0  0  0
  -28.0075  -12.2158   18.8605 C   0  0  2  0  0  0  0  0  0  0  0  0
  -18.9859  -33.9715   17.0357 C   0  0  0  0  0  0  0  0  0  0  0  0
  -21.5695  -29.6322   21.3213 C   0  0  0  0  0  0  0  0  0  0  0  0
  -19.7151  -30.2621   19.7616 C   0  0  0  0  0  0  0  0  0  0  0  0
  -20.2235  -31.6987   21.7366 C   0  0  0  0  0  0  0  0  0  0  0  0
  -22.5111  -35.2148   16.3259 C   0  0  0  0  0  0  0  0  0  0  0  0
  -24.9367  -25.7107   18.3674 C   0  0  0  0  0  0  0  0  0  1  0  0
  -21.8154  -31.6832   19.7725 C   0  0  1  0  0  0  0  0  0  0  0  0
  -20.4445  -34.2607   17.3545 C   0  0  2  0  0  0  0  0  0  0  0  0
  -20.8577  -30.8172   20.6386 C   0  0  0  0  0  0  0  0  0  0  0  0
  -26.0918  -11.0602   19.8979 N   0  0  0  0  0  0  0  0  0  0  0  0
  -26.7833  -11.3235   18.7760 N   0  0  0  0  0  0  0  0  0  0  0  0
  -23.8078  -31.3057   21.1970 N   0  0  0  0  0  0  0  0  0  0  0  0
  -29.0715  -14.1293   19.9905 N   0  0  0  0  0  0  0  0  0  0  0  0
  -26.8435  -10.8884   16.4484 N   0  0  0  0  0  0  0  0  0  0  0  0
  -23.2189   -8.5848   17.8455 N   0  0  0  0  0  0  0  0  0  0  0  0
  -27.8859  -16.1128   19.5189 N   0  0  0  0  0  0  0  0  0  0  0  0
  -25.1532  -33.3510   23.7791 N   0  0  0  0  0  0  0  0  0  0  0  0
  -21.1740  -32.8284   19.1357 N   0  0  0  0  0  0  0  0  0  0  0  0
  -21.0799  -34.8591   16.1465 N   0  3  0  0  0  0  0  0  0  0  0  0
  -24.5033   -9.1064   16.0187 O   0  0  0  0  0  0  0  0  0  0  0  0
  -26.4745  -24.0130   17.6229 O   0  0  0  0  0  0  0  0  0  0  0  0
  -23.4906  -31.7208   23.7556 O   0  0  0  0  0  0  0  0  0  0  0  0
  -23.1234  -33.4582   20.6409 O   0  0  0  0  0  0  0  0  0  0  0  0
  -21.7051  -32.2382   16.9570 O   0  0  0  0  0  0  0  0  0  0  0  0
  -30.1815  -16.1523   19.8510 O   0  0  0  0  0  0  0  0  0  0  0  0
  -21.3134   -8.2949   23.0716 O   0  0  0  0  0  0  0  0  0  0  0  0
  -26.0747  -26.5716   18.3633 O   0  0  0  0  0  0  0  0  0  1  0  0
  -21.6970   -2.9970   24.5512 F   0  0  0  0  0  0  0  0  0  0  0  0
  -21.6772   -7.5842   25.7184 F   0  0  0  0  0  0  0  0  0  0  0  0
  -25.9975  -17.9222   18.9608 S   0  0  0  0  0  0  0  0  0  0  0  0
  1  2  1  0  0  0  0
  1  5  2  0  0  0  0
  2  6  2  0  0  0  0
  3  8  2  0  0  0  0
  3 17  1  0  0  0  0
  4  9  1  0  0  0  0
  4 17  2  0  0  0  0
  5 19  1  0  0  0  0
  6 21  1  0  0  0  0
  7 10  2  0  0  0  0
  7 20  1  0  0  0  0
  8 23  1  0  0  0  0
  9 23  2  0  0  0  0
 10 24  1  0  0  0  0
 11 12  2  0  0  0  0
 11 25  1  0  0  0  0
 12 26  1  0  0  0  0
 13 14  1  0  0  0  0
 13 29  2  0  0  0  0
 14 31  2  0  0  0  0
 15 22  1  0  0  0  0
 15 24  2  0  0  0  0
 16 26  2  0  0  0  0
 16 27  1  0  0  0  0
 17 28  1  0  0  0  0
 18 28  1  0  0  0  0
 18 30  2  0  0  0  0
 18 32  1  0  0  0  0
 19 21  2  0  0  0  0
 19 38  1  0  0  0  0
 20 22  2  0  0  0  0
 20 39  1  0  0  0  0
 21 51  1  0  0  0  0
 22 40  1  0  0  0  0
 23 81  1  0  0  0  0
 24 82  1  0  0  0  0
 25 27  2  0  0  0  0
 25 81  1  0  0  0  0
 26 83  1  0  0  0  0
 27 84  1  0  0  0  0
 28 65  2  0  0  0  0
 29 52  1  0  0  0  0
 29 85  1  0  0  0  0
 30 66  1  0  0  0  0
 30 69  1  0  0  0  0
 31 71  1  0  0  0  0
 31 85  1  0  0  0  0
 32 70  1  0  0  0  0
 32 75  2  0  0  0  0
 33 53  1  0  0  0  0
 33 61  1  0  0  0  0
 33 76  2  0  0  0  0
 34 54  1  0  0  0  0
 34 72  1  0  0  0  0
 34 77  2  0  0  0  0
 35 62  1  0  0  0  0
 35 67  1  0  0  0  0
 35 78  2  0  0  0  0
 36 63  1  0  0  0  0
 36 73  1  0  0  0  0
 36 79  2  0  0  0  0
 37 68  1  0  0  0  0
 37 71  1  0  0  0  0
 37 80  2  0  0  0  0
 38 41  1  0  0  0  0
 39 54  1  0  0  0  0
 40 67  1  0  0  0  0
 41 43  1  0  0  0  0
 42 48  1  0  0  0  0
 42 49  1  0  0  0  0
 43 51  1  0  0  0  0
 44 46  1  0  0  0  0
 44 52  1  0  0  0  0
 45 47  1  0  0  0  0
 45 52  1  0  0  0  0
 46 53  1  0  0  0  0
 47 53  1  0  0  0  0
 48 55  1  0  0  0  0
 49 68  1  0  0  0  0
 50 55  1  0  0  0  0
 50 68  1  0  0  0  0
 51 72  1  0  0  0  0
 54 67  1  0  0  0  0
 55 66  1  0  0  0  0
 56 63  1  0  0  0  0
 57 64  1  0  0  0  0
 58 64  1  0  0  0  0
 59 64  1  0  0  0  0
 60 74  1  0  0  0  0
 61 82  1  0  0  0  0
 62 64  1  0  0  0  0
 62 73  1  0  0  0  0
 63 74  1  0  0  0  0
 65 66  1  0  0  0  0
M  CHG  1  74   1
M  ISO  4  37 100  61 101  71 100  82 101
M  END
> <Batch ID>
0147

> <Smiles>
CNC(C)C(=O)NC(C(=O)N1Cc2cc([101O:1][101CH2:1]C(=O)C3CCC(c4ccc([100NH:0][100C:0](=O)N5CCCC(n6nc(-c7ccc(Oc8ccc(F)cc8F)cc7)c(C(N)=O)c6N)C5)s4)CC3)ccc2CC1C(=O)NC1CCCc2ccccc21)C(C)(C)C

> <Shape>
0.271

> <Color>
0.126

> <Negative vol penalty>
0.000

$$$$

  -OEChem-04052303133D

 86 94  0     1  0  0  0  0  0999 V2000
  -27.8318  -24.4550   16.6246 C   0  0  0  0  0  0  0  0  0  0  0  0
  -26.6637  -24.6709   17.3487 C   0  0  0  0  0  0  0  0  0  0  0  0
  -25.0244  -13.4057   19.4339 C   0  0  0  0  0  0  0  0  0  0  0  0
  -25.2012  -13.6703   21.8289 C   0  0  0  0  0  0  0  0  0  0  0  0
  -29.0480  -24.9388   17.1051 C   0  0  0  0  0  0  0  0  0  0  0  0
  -26.7113  -25.3698   18.5544 C   0  0  0  0  0  0  0  0  0  0  0  0
  -23.0106  -28.8031   18.9570 C   0  0  0  0  0  0  0  0  0  0  0  0
  -25.3509  -12.0554   19.5590 C   0  0  0  0  0  0  0  0  0  0  0  0
  -25.5276  -12.3200   21.9540 C   0  0  0  0  0  0  0  0  0  0  0  0
  -21.7399  -28.3339   19.2874 C   0  0  0  0  0  0  0  0  0  0  0  0
  -26.0545   -8.8603   22.9395 C   0  0  0  0  0  0  0  0  0  0  0  0
  -25.4249   -8.1308   23.9480 C   0  0  0  0  0  0  0  0  0  0  0  0
  -22.0984  -28.9950   21.5794 C   0  0  0  0  0  0  0  0  0  0  0  0
  -22.1163  -23.7759   22.7240 C   0  0  0  0  0  0  0  0  0  0  0  0
  -23.2749   -8.6239   22.9625 C   0  0  0  0  0  0  0  0  0  0  0  0
  -24.9496  -14.2132   20.5689 C   0  0  0  0  0  0  0  0  0  0  0  0
  -23.3264  -16.1787   20.4724 C   0  0  0  0  0  0  0  0  0  0  0  0
  -29.1090  -25.6523   18.3125 C   0  0  0  0  0  0  0  0  0  0  0  0
  -23.8403  -29.3628   19.9392 C   0  0  0  0  0  0  0  0  0  0  0  0
  -27.9296  -25.8624   19.0522 C   0  0  0  0  0  0  0  0  0  0  0  0
  -23.3781  -29.4729   21.2584 C   0  0  0  0  0  0  0  0  0  0  0  0
  -23.3354  -23.3741   23.3424 C   0  0  0  0  0  0  0  0  0  0  0  0
  -25.6025  -11.5125   20.8190 C   0  0  0  0  0  0  0  0  0  0  0  0
  -21.2848  -28.4272   20.5993 C   0  0  0  0  0  0  0  0  0  0  0  0
  -25.2943   -9.4716   21.9425 C   0  0  0  0  0  0  0  0  0  0  0  0
  -24.0351   -8.0126   23.9595 C   0  0  0  0  0  0  0  0  0  0  0  0
  -23.9045   -9.3534   21.9539 C   0  0  0  0  0  0  0  0  0  0  0  0
  -24.6130  -15.6083   20.4402 C   0  0  0  0  0  0  0  0  0  0  0  0
  -23.1290  -22.8439   24.5970 C   0  0  0  0  0  0  0  0  0  0  0  0
  -23.5435  -17.5250   20.3084 C   0  0  0  0  0  0  0  0  0  0  0  0
  -21.0244  -23.5374   23.5294 C   0  0  0  0  0  0  0  0  0  0  0  0
  -22.0491  -15.5481   20.6359 C   0  0  0  0  0  0  0  0  0  0  0  0
  -24.0821  -22.3320   25.5293 C   0  0  0  0  0  0  0  0  0  0  0  0
  -26.6799  -28.6258   21.1628 C   0  0  0  0  0  0  0  0  0  0  0  0
  -19.4918  -25.9038   22.0263 C   0  0  0  0  0  0  0  0  0  0  0  0
  -26.3105  -31.4512   22.7131 C   0  0  0  0  0  0  0  0  0  0  0  0
  -24.1913  -33.8416   23.9138 C   0  0  0  0  0  0  0  0  0  0  0  0
  -26.3810  -22.1785   21.5081 C   0  0  0  0  0  0  0  0  0  0  0  0
  -30.4536  -26.1149   18.8152 C   0  0  0  0  0  0  0  0  0  0  0  0
  -25.1979  -29.8886   19.5613 C   0  0  0  0  0  0  0  0  0  0  0  0
  -24.2221  -30.0839   22.3460 C   0  0  0  0  0  0  0  0  0  0  0  0
  -30.3629  -27.1702   19.9144 C   0  0  0  0  0  0  0  0  0  0  0  0
  -27.7244  -20.0490   18.9908 C   0  0  0  0  0  0  0  0  0  0  0  0
  -29.3368  -26.7593   20.9656 C   0  0  0  0  0  0  0  0  0  0  0  0
  -26.9332  -18.7496   19.1504 C   0  0  0  0  0  0  0  0  0  0  0  0
  -27.9990  -20.7117   20.3389 C   0  0  0  0  0  0  0  0  0  0  0  0
  -26.0118  -19.6431   21.3302 C   0  0  0  0  0  0  0  0  0  0  0  0
  -27.9368  -26.6375   20.3520 C   0  0  1  0  0  0  0  0  0  0  0  0
  -26.1573  -29.9711   20.7445 C   0  0  1  0  0  0  0  0  0  0  0  0
  -25.6622  -18.9670   19.9934 C   0  0  2  0  0  0  0  0  0  0  0  0
  -23.7756  -22.4451   27.0070 C   0  0  0  0  0  0  0  0  0  0  0  0
  -18.6239  -26.4521   19.7200 C   0  0  0  0  0  0  0  0  0  0  0  0
  -24.1813  -36.0151   25.1681 C   0  0  0  0  0  0  0  0  0  0  0  0
  -26.8356  -29.9485   25.3161 C   0  0  0  0  0  0  0  0  0  0  0  0
  -25.8915  -31.9078   26.5563 C   0  0  0  0  0  0  0  0  0  0  0  0
  -27.9413  -32.1864   25.1622 C   0  0  0  0  0  0  0  0  0  0  0  0
  -22.9473  -35.2787   21.6452 C   0  0  0  0  0  0  0  0  0  0  0  0
  -24.6636  -23.5174   22.6985 C   0  0  0  0  0  0  0  0  0  0  0  0
  -19.2684  -24.4050   21.9837 C   0  0  0  0  0  0  0  0  0  0  0  0
  -19.7824  -26.5860   20.6933 C   0  0  1  0  0  0  0  0  0  1  0  0
  -25.7031  -31.8780   24.0276 C   0  0  1  0  0  0  0  0  0  0  0  0
  -24.2110  -35.3551   23.7983 C   0  0  2  0  0  0  0  0  0  0  0  0
  -26.5775  -31.4668   25.2457 C   0  0  0  0  0  0  0  0  0  0  0  0
  -25.5761  -16.5177   20.2692 N   0  0  0  0  0  0  0  0  0  0  0  0
  -24.8944  -17.6733   20.1923 N   0  0  0  0  0  0  0  0  0  0  0  0
  -25.5445  -30.5779   21.9279 N   0  0  0  0  0  0  0  0  0  0  0  0
  -26.7528  -20.8908   21.0878 N   0  0  0  0  0  0  0  0  0  0  0  0
  -22.7089  -18.5846   20.2537 N   0  0  0  0  0  0  0  0  0  0  0  0
  -22.0065  -14.1560   20.7921 N   0  0  0  0  0  0  0  0  0  0  0  0
  -19.6994  -23.8126   23.2247 N   0  0  0  0  0  0  0  0  0  0  0  0
  -27.3517  -27.9477   20.1637 N   0  0  0  0  0  0  0  0  0  0  0  0
  -25.4649  -33.3133   23.9203 N   0  0  0  0  0  0  0  0  0  0  0  0
  -25.1825  -22.2607   22.2064 N   0  0  0  0  0  0  0  0  0  0  0  0
  -23.0313  -35.8308   23.0218 N   0  3  0  0  0  0  0  0  0  0  0  0
  -20.9763  -16.1980   20.6268 O   0  0  0  0  0  0  0  0  0  0  0  0
  -25.1702  -21.7922   25.2428 O   0  0  0  0  0  0  0  0  0  0  0  0
  -26.4890  -28.2329   22.3078 O   0  0  0  0  0  0  0  0  0  0  0  0
  -19.4498  -26.5432   23.0782 O   0  0  0  0  0  0  0  0  0  0  0  0
  -27.4205  -31.8826   22.3914 O   0  0  0  0  0  0  0  0  0  0  0  0
  -23.1503  -33.1932   23.9941 O   0  0  0  0  0  0  0  0  0  0  0  0
  -27.0636  -23.1814   21.2735 O   0  0  0  0  0  0  0  0  0  0  0  0
  -25.9209  -10.1948   20.9415 O   0  0  0  0  0  0  0  0  0  0  0  0
  -20.0452  -27.9694   20.9246 O   0  0  0  0  0  0  0  0  0  1  0  0
  -23.4308   -7.3108   24.9272 F   0  0  0  0  0  0  0  0  0  0  0  0
  -23.1689   -9.9375   20.9981 F   0  0  0  0  0  0  0  0  0  0  0  0
  -21.4709  -22.8320   25.0246 S   0  0  0  0  0  0  0  0  0  0  0  0
  1  2  1  0  0  0  0
  1  5  2  0  0  0  0
  2  6  2  0  0  0  0
  3  8  2  0  0  0  0
  3 16  1  0  0  0  0
  4  9  1  0  0  0  0
  4 16  2  0  0  0  0
  5 18  1  0  0  0  0
  6 20  1  0  0  0  0
  7 10  2  0  0  0  0
  7 19  1  0  0  0  0
  8 23  1  0  0  0  0
  9 23  2  0  0  0  0
 10 24  1  0  0  0  0
 11 12  2  0  0  0  0
 11 25  1  0  0  0  0
 12 26  1  0  0  0  0
 13 21  1  0  0  0  0
 13 24  2  0  0  0  0
 14 22  1  0  0  0  0
 14 31  2  0  0  0  0
 15 26  2  0  0  0  0
 15 27  1  0  0  0  0
 16 28  1  0  0  0  0
 17 28  1  0  0  0  0
 17 30  2  0  0  0  0
 17 32  1  0  0  0  0
 18 20  2  0  0  0  0
 18 39  1  0  0  0  0
 19 21  2  0  0  0  0
 19 40  1  0  0  0  0
 20 48  1  0  0  0  0
 21 41  1  0  0  0  0
 22 29  2  0  0  0  0
 22 58  1  0  0  0  0
 23 82  1  0  0  0  0
 24 83  1  0  0  0  0
 25 27  2  0  0  0  0
 25 82  1  0  0  0  0
 26 84  1  0  0  0  0
 27 85  1  0  0  0  0
 28 64  2  0  0  0  0
 29 33  1  0  0  0  0
 29 86  1  0  0  0  0
 30 65  1  0  0  0  0
 30 68  1  0  0  0  0
 31 70  1  0  0  0  0
 31 86  1  0  0  0  0
 32 69  1  0  0  0  0
 32 75  2  0  0  0  0
 33 51  1  0  0  0  0
 33 76  2  0  0  0  0
 34 49  1  0  0  0  0
 34 71  1  0  0  0  0
 34 77  2  0  0  0  0
 35 59  1  0  0  0  0
 35 60  1  0  0  0  0
 35 78  2  0  0  0  0
 36 61  1  0  0  0  0
 36 66  1  0  0  0  0
 36 79  2  0  0  0  0
 37 62  1  0  0  0  0
 37 72  1  0  0  0  0
 37 80  2  0  0  0  0
 38 67  1  0  0  0  0
 38 73  1  0  0  0  0
 38 81  2  0  0  0  0
 39 42  1  0  0  0  0
 40 49  1  0  0  0  0
 41 66  1  0  0  0  0
 42 44  1  0  0  0  0
 43 45  1  0  0  0  0
 43 46  1  0  0  0  0
 44 48  1  0  0  0  0
 45 50  1  0  0  0  0
 46 67  1  0  0  0  0
 47 50  1  0  0  0  0
 47 67  1  0  0  0  0
 48 71  1  0  0  0  0
 49 66  1  0  0  0  0
 50 65  1  0  0  0  0
 52 60  1  0  0  0  0
 53 62  1  0  0  0  0
 54 63  1  0  0  0  0
 55 63  1  0  0  0  0
 56 63  1  0  0  0  0
 57 74  1  0  0  0  0
 58 73  1  0  0  0  0
 59 70  1  0  0  0  0
 60 83  1  0  0  0  0
 61 63  1  0  0  0  0
 61 72  1  0  0  0  0
 62 74  1  0  0  0  0
 64 65  1  0  0  0  0
M  CHG  1  74   1
M  ISO  4  38 100  60 101  73 100  83 101
M  END
> <Batch ID>
0147

> <Smiles>
CNC(C)C(=O)NC(C(=O)N1Cc2cc([101O:1][101CH:1](C)C(=O)CNc3cc(C[100NH:0][100C:0](=O)N4CCCC(n5nc(-c6ccc(Oc7ccc(F)cc7F)cc6)c(C(N)=O)c5N)C4)c(C(C)=O)s3)ccc2CC1C(=O)NC1CCCc2ccccc21)C(C)(C)C

> <Shape>
0.287

> <Color>
0.077

> <Negative vol penalty>
0.000

$$$$

  -OEChem-04052303133D

 84 93  0     1  0  0  0  0  0999 V2000
  -28.8897  -33.2570   24.2391 C   0  0  0  0  0  0  0  0  0  0  0  0
  -28.8379  -31.9216   23.8525 C   0  0  0  0  0  0  0  0  0  0  0  0
  -22.9697  -10.1024   19.8994 C   0  0  0  0  0  0  0  0  0  0  0  0
  -24.0207   -9.6254   22.0219 C   0  0  0  0  0  0  0  0  0  0  0  0
  -27.7207  -33.9196   24.6110 C   0  0  0  0  0  0  0  0  0  0  0  0
  -27.6171  -31.2477   23.8387 C   0  0  0  0  0  0  0  0  0  0  0  0
  -26.9760  -28.4746   19.6502 C   0  0  0  0  0  0  0  0  0  0  0  0
  -22.2396   -8.9178   19.9947 C   0  0  0  0  0  0  0  0  0  0  0  0
  -23.2905   -8.4407   22.1172 C   0  0  0  0  0  0  0  0  0  0  0  0
  -27.6433  -27.2521   19.5876 C   0  0  0  0  0  0  0  0  0  0  0  0
  -20.1512   -7.5124   22.9557 C   0  0  0  0  0  0  0  0  0  0  0  0
  -19.5519   -7.2190   24.1806 C   0  0  0  0  0  0  0  0  0  0  0  0
  -31.5233  -18.5664   20.6893 C   0  0  0  0  0  0  0  0  0  0  0  0
  -30.8937  -19.7677   20.2528 C   0  0  0  0  0  0  0  0  0  0  0  0
  -25.6072  -26.1159   20.2061 C   0  0  0  0  0  0  0  0  0  0  0  0
  -20.8357   -5.1771   24.3198 C   0  0  0  0  0  0  0  0  0  0  0  0
  -23.8604  -10.4562   20.9130 C   0  0  0  0  0  0  0  0  0  0  0  0
  -24.2388  -12.9511   21.2873 C   0  0  0  0  0  0  0  0  0  0  0  0
  -26.4837  -33.2563   24.5925 C   0  0  0  0  0  0  0  0  0  0  0  0
  -25.6197  -28.5280   20.0024 C   0  0  0  0  0  0  0  0  0  0  0  0
  -26.4308  -31.9018   24.2121 C   0  0  0  0  0  0  0  0  0  0  0  0
  -24.9243  -27.3401   20.2699 C   0  0  0  0  0  0  0  0  0  0  0  0
  -22.3999   -8.0870   21.1036 C   0  0  0  0  0  0  0  0  0  0  0  0
  -26.9597  -26.0728   19.8684 C   0  0  0  0  0  0  0  0  0  0  0  0
  -21.0927   -6.6380   22.4128 C   0  0  0  0  0  0  0  0  0  0  0  0
  -19.8942   -6.0514   24.8627 C   0  0  0  0  0  0  0  0  0  0  0  0
  -21.4350   -5.4704   23.0948 C   0  0  0  0  0  0  0  0  0  0  0  0
  -24.6154  -11.6795   20.8149 C   0  0  0  0  0  0  0  0  0  0  0  0
  -30.7482  -17.8754   21.5945 C   0  0  0  0  0  0  0  0  0  0  0  0
  -25.2907  -13.7677   20.9509 C   0  0  0  0  0  0  0  0  0  0  0  0
  -29.6611  -19.9491   20.8409 C   0  0  0  0  0  0  0  0  0  0  0  0
  -23.0450  -13.3577   21.9693 C   0  0  0  0  0  0  0  0  0  0  0  0
  -23.9695  -29.8434   22.3794 C   0  0  0  0  0  0  0  0  0  0  0  0
  -21.4191  -28.8209   20.6555 C   0  0  0  0  0  0  0  0  0  0  0  0
  -20.1720  -26.6492   18.3371 C   0  0  0  0  0  0  0  0  0  0  0  0
  -30.7735  -14.7580   20.6287 C   0  0  0  0  0  0  0  0  0  0  0  0
  -25.2539  -34.0009   25.0484 C   0  0  0  0  0  0  0  0  0  0  0  0
  -24.9076  -29.8523   20.0394 C   0  0  0  0  0  0  0  0  0  0  0  0
  -23.4626  -27.3415   20.6331 C   0  0  0  0  0  0  0  0  0  0  0  0
  -23.9470  -33.3217   24.6472 C   0  0  0  0  0  0  0  0  0  0  0  0
  -29.2840  -12.9297   17.9613 C   0  0  0  0  0  0  0  0  0  0  0  0
  -24.0044  -31.8290   24.9560 C   0  0  0  0  0  0  0  0  0  0  0  0
  -27.9088  -12.5413   18.5072 C   0  0  0  0  0  0  0  0  0  0  0  0
  -30.3538  -12.8954   19.0505 C   0  0  0  0  0  0  0  0  0  0  0  0
  -28.6645  -13.3021   20.7982 C   0  0  0  0  0  0  0  0  0  0  0  0
  -27.8838  -21.5442   21.5461 C   0  0  0  0  0  0  0  0  0  0  0  0
  -25.1220  -31.1437   24.1604 C   0  0  1  0  0  0  0  0  0  0  0  0
  -23.6551  -29.8332   20.9102 C   0  0  1  0  0  0  0  0  0  0  0  0
  -27.5422  -13.3762   19.7488 C   0  0  2  0  0  0  0  0  0  0  0  0
  -29.0040  -22.1633   19.8577 C   0  0  2  0  0  0  0  0  0  0  0  0
  -28.3091  -22.9374   21.0242 C   0  0  2  0  0  0  0  0  0  0  0  0
  -28.3278  -22.0878   18.4966 C   0  0  0  0  0  0  0  0  0  0  0  0
  -29.3074  -23.6542   21.9403 C   0  0  0  0  0  0  0  0  0  0  0  0
  -18.0430  -26.0321   17.1606 C   0  0  0  0  0  0  0  0  0  0  0  0
  -20.4332  -27.4192   23.1801 C   0  0  0  0  0  0  0  0  0  0  0  0
  -18.8789  -26.0797   21.7455 C   0  0  0  0  0  0  0  0  0  0  0  0
  -18.6457  -28.5609   21.8551 C   0  0  0  0  0  0  0  0  0  0  0  0
  -21.3187  -27.2825   15.6832 C   0  0  0  0  0  0  0  0  0  0  0  0
  -31.0462  -16.5960   22.2739 C   0  0  0  0  0  0  0  0  0  0  0  0
  -27.1478  -23.8444   20.6777 C   0  0  0  0  0  0  0  0  0  1  0  0
  -20.6001  -27.5536   20.6071 C   0  0  1  0  0  0  0  0  0  0  0  0
  -19.3088  -26.8734   17.1086 C   0  0  2  0  0  0  0  0  0  0  0  0
  -19.6675  -27.4031   21.8420 C   0  0  0  0  0  0  0  0  0  0  0  0
  -25.8128  -11.6831   20.2232 N   0  0  0  0  0  0  0  0  0  0  0  0
  -26.1979  -12.9669   20.3216 N   0  0  0  0  0  0  0  0  0  0  0  0
  -28.8251  -20.9767   20.6383 N   0  0  1  0  0  0  0  0  0  0  0  0
  -22.8121  -28.6619   20.6621 N   0  0  0  0  0  0  0  0  0  0  0  0
  -29.9455  -13.7080   20.1989 N   0  0  0  0  0  0  0  0  0  0  0  0
  -25.5189  -15.0854   21.1349 N   0  0  0  0  0  0  0  0  0  0  0  0
  -22.0658  -12.3911   22.2361 N   0  0  0  0  0  0  0  0  0  0  0  0
  -24.7111  -30.9353   22.7885 N   0  0  0  0  0  0  0  0  0  0  0  0
  -19.8996  -27.5690   19.3275 N   0  0  0  0  0  0  0  0  0  0  0  0
  -30.3091  -15.4823   21.7199 N   0  0  0  0  0  0  0  0  0  0  0  0
  -20.0618  -26.5139   15.8738 N   0  3  0  0  0  0  0  0  0  0  0  0
  -22.8451  -14.5463   22.3169 O   0  0  0  0  0  0  0  0  0  0  0  0
  -23.5678  -28.9292   23.0897 O   0  0  0  0  0  0  0  0  0  0  0  0
  -20.8440  -29.9120   20.6792 O   0  0  0  0  0  0  0  0  0  0  0  0
  -21.0021  -25.7460   18.4120 O   0  0  0  0  0  0  0  0  0  0  0  0
  -31.8445  -15.0333   20.0774 O   0  0  0  0  0  0  0  0  0  0  0  0
  -21.6874   -6.9310   21.1970 O   0  0  0  0  0  0  0  0  0  0  0  0
  -27.6088  -24.8782   19.8087 O   0  0  0  0  0  0  0  0  0  1  0  0
  -19.3197   -5.7706   26.0397 F   0  0  0  0  0  0  0  0  0  0  0  0
  -22.3398   -4.6272   22.5788 F   0  0  0  0  0  0  0  0  0  0  0  0
  -29.2679  -18.6744   21.9146 S   0  0  0  0  0  0  0  0  0  0  0  0
  1  2  1  0  0  0  0
  1  5  2  0  0  0  0
  2  6  2  0  0  0  0
  3  8  2  0  0  0  0
  3 17  1  0  0  0  0
  4  9  1  0  0  0  0
  4 17  2  0  0  0  0
  5 19  1  0  0  0  0
  6 21  1  0  0  0  0
  7 10  2  0  0  0  0
  7 20  1  0  0  0  0
  8 23  1  0  0  0  0
  9 23  2  0  0  0  0
 10 24  1  0  0  0  0
 11 12  2  0  0  0  0
 11 25  1  0  0  0  0
 12 26  1  0  0  0  0
 13 14  1  0  0  0  0
 13 29  2  0  0  0  0
 14 31  2  0  0  0  0
 15 22  1  0  0  0  0
 15 24  2  0  0  0  0
 16 26  2  0  0  0  0
 16 27  1  0  0  0  0
 17 28  1  0  0  0  0
 18 28  1  0  0  0  0
 18 30  2  0  0  0  0
 18 32  1  0  0  0  0
 19 21  2  0  0  0  0
 19 37  1  0  0  0  0
 20 22  2  0  0  0  0
 20 38  1  0  0  0  0
 21 47  1  0  0  0  0
 22 39  1  0  0  0  0
 23 80  1  0  0  0  0
 24 81  1  0  0  0  0
 25 27  2  0  0  0  0
 25 80  1  0  0  0  0
 26 82  1  0  0  0  0
 27 83  1  0  0  0  0
 28 64  2  0  0  0  0
 29 59  1  0  0  0  0
 29 84  1  0  0  0  0
 30 65  1  0  0  0  0
 30 69  1  0  0  0  0
 31 66  1  0  0  0  0
 31 84  1  0  0  0  0
 32 70  1  0  0  0  0
 32 75  2  0  0  0  0
 33 48  1  0  0  0  0
 33 71  1  0  0  0  0
 33 76  2  0  0  0  0
 34 61  1  0  0  0  0
 34 67  1  0  0  0  0
 34 77  2  0  0  0  0
 35 62  1  0  0  0  0
 35 72  1  0  0  0  0
 35 78  2  0  0  0  0
 36 68  1  0  0  0  0
 36 73  1  0  0  0  0
 36 79  2  0  0  0  0
 37 40  1  0  0  0  0
 38 48  1  0  0  0  0
 39 67  1  0  0  0  0
 40 42  1  0  0  0  0
 41 43  1  0  0  0  0
 41 44  1  0  0  0  0
 42 47  1  0  0  0  0
 43 49  1  0  0  0  0
 44 68  1  0  0  0  0
 45 49  1  0  0  0  0
 45 68  1  0  0  0  0
 46 51  1  0  0  0  0
 46 66  1  0  0  0  0
 47 71  1  0  0  0  0
 48 67  1  0  0  0  0
 49 65  1  0  0  0  0
 50 51  1  0  0  0  0
 50 52  1  0  0  0  0
 50 66  1  0  0  0  0
 51 53  1  0  0  0  0
 51 60  1  0  0  0  0
 54 62  1  0  0  0  0
 55 63  1  0  0  0  0
 56 63  1  0  0  0  0
 57 63  1  0  0  0  0
 58 74  1  0  0  0  0
 59 73  1  0  0  0  0
 60 81  1  0  0  0  0
 61 63  1  0  0  0  0
 61 72  1  0  0  0  0
 62 74  1  0  0  0  0
 64 65  1  0  0  0  0
M  CHG  1  74   1
M  ISO  4  36 100  60 101  73 100  81 101
M  END
> <Batch ID>
0147

> <Smiles>
CNC(C)C(=O)NC(C(=O)N1Cc2cc([101O:1][101CH2:1]C3(C)CN(c4ccc(C[100NH:0][100C:0](=O)N5CCCC(n6nc(-c7ccc(Oc8ccc(F)cc8F)cc7)c(C(N)=O)c6N)C5)s4)C3C)ccc2CC1C(=O)NC1CCCc2ccccc21)C(C)(C)C

> <Shape>
0.405

> <Color>
0.194

> <Negative vol penalty>
0.000

$$$$

  -OEChem-04052303133D

 86 95  0     1  0  0  0  0  0999 V2000
  -19.8411  -24.9919   11.3073 C   0  0  0  0  0  0  0  0  0  0  0  0
  -20.9228  -24.6603   12.1169 C   0  0  0  0  0  0  0  0  0  0  0  0
  -23.0706   -9.8710   19.9444 C   0  0  0  0  0  0  0  0  0  0  0  0
  -23.8321   -9.8792   22.2372 C   0  0  0  0  0  0  0  0  0  0  0  0
  -18.8392  -25.8306   11.7937 C   0  0  0  0  0  0  0  0  0  0  0  0
  -21.0038  -25.1682   13.4130 C   0  0  0  0  0  0  0  0  0  0  0  0
  -23.3150  -22.3492   18.3341 C   0  0  0  0  0  0  0  0  0  0  0  0
  -22.3257   -8.7189   20.1959 C   0  0  0  0  0  0  0  0  0  0  0  0
  -23.0871   -8.7272   22.4888 C   0  0  0  0  0  0  0  0  0  0  0  0
  -24.5561  -22.4292   18.9643 C   0  0  0  0  0  0  0  0  0  0  0  0
  -19.3775   -7.9270   21.6500 C   0  0  0  0  0  0  0  0  0  0  0  0
  -18.0702   -7.8818   21.1657 C   0  0  0  0  0  0  0  0  0  0  0  0
  -31.4984  -19.3699   22.7455 C   0  0  0  0  0  0  0  0  0  0  0  0
  -29.7587  -17.7095   22.7128 C   0  0  0  0  0  0  0  0  0  0  0  0
  -23.6516  -24.0264   20.5295 C   0  0  0  0  0  0  0  0  0  0  0  0
  -18.6268   -5.9368   19.8449 C   0  0  0  0  0  0  0  0  0  0  0  0
  -32.2395  -18.5317   21.9282 C   0  0  0  0  0  0  0  0  0  0  0  0
  -23.8239  -10.4511   20.9650 C   0  0  0  0  0  0  0  0  0  0  0  0
  -30.2354  -18.9436   23.1408 C   0  0  0  0  0  0  0  0  0  0  0  0
  -24.1685  -12.9758   20.8424 C   0  0  0  0  0  0  0  0  0  0  0  0
  -18.9031  -26.3413   13.0998 C   0  0  0  0  0  0  0  0  0  0  0  0
  -22.2340  -23.1168   18.7909 C   0  0  0  0  0  0  0  0  0  0  0  0
  -20.0025  -26.0157   13.9168 C   0  0  0  0  0  0  0  0  0  0  0  0
  -22.3972  -23.9525   19.9049 C   0  0  0  0  0  0  0  0  0  0  0  0
  -22.3338   -8.1470   21.4681 C   0  0  0  0  0  0  0  0  0  0  0  0
  -24.7253  -23.2700   20.0604 C   0  0  0  0  0  0  0  0  0  0  0  0
  -20.3095   -6.9772   21.2317 C   0  0  0  0  0  0  0  0  0  0  0  0
  -17.6949   -6.8867   20.2631 C   0  0  0  0  0  0  0  0  0  0  0  0
  -19.9342   -5.9821   20.3291 C   0  0  0  0  0  0  0  0  0  0  0  0
  -24.5942  -11.6409   20.7056 C   0  0  0  0  0  0  0  0  0  0  0  0
  -30.5775  -16.9457   21.8967 C   0  0  0  0  0  0  0  0  0  0  0  0
  -25.2613  -13.7237   20.4776 C   0  0  0  0  0  0  0  0  0  0  0  0
  -29.4056  -19.7968   24.0102 C   0  0  0  0  0  0  0  0  0  0  0  0
  -22.8989  -13.4934   21.2617 C   0  0  0  0  0  0  0  0  0  0  0  0
  -20.4202  -25.4064   17.5372 C   0  0  0  0  0  0  0  0  0  0  0  0
  -18.7602  -25.0669   20.3033 C   0  0  0  0  0  0  0  0  0  0  0  0
  -18.7478  -24.0918   23.5737 C   0  0  0  0  0  0  0  0  0  0  0  0
  -30.7288  -14.7633   20.6476 C   0  0  0  0  0  0  0  0  0  0  0  0
  -17.8201  -27.2823   13.5651 C   0  0  0  0  0  0  0  0  0  0  0  0
  -20.8946  -22.9991   18.1166 C   0  0  0  0  0  0  0  0  0  0  0  0
  -21.2629  -24.7820   20.4469 C   0  0  0  0  0  0  0  0  0  0  0  0
  -17.7914  -27.4770   15.0788 C   0  0  0  0  0  0  0  0  0  0  0  0
  -29.6100  -12.3485   18.2823 C   0  0  0  0  0  0  0  0  0  0  0  0
  -19.1987  -27.7264   15.6118 C   0  0  0  0  0  0  0  0  0  0  0  0
  -28.1703  -12.0590   18.7132 C   0  0  0  0  0  0  0  0  0  0  0  0
  -26.7914  -22.1508   23.1839 C   0  0  0  0  0  0  0  0  0  0  0  0
  -30.5262  -12.5774   19.4831 C   0  0  0  0  0  0  0  0  0  0  0  0
  -27.7147  -21.5651   24.2472 C   0  0  0  0  0  0  0  0  0  0  0  0
  -28.6210  -13.3053   20.8650 C   0  0  0  0  0  0  0  0  0  0  0  0
  -28.4377  -20.8533   22.0077 C   0  0  0  0  0  0  0  0  0  0  0  0
  -20.1134  -26.5268   15.3369 C   0  0  1  0  0  0  0  0  0  0  0  0
  -20.0004  -24.2132   18.3481 C   0  0  1  0  0  0  0  0  0  0  0  0
  -27.6472  -13.1321   19.6880 C   0  0  2  0  0  0  0  0  0  0  0  0
  -27.6390  -22.1650   21.8978 C   0  0  2  0  0  0  0  0  0  0  0  0
  -28.5856  -23.3759   21.8752 C   0  0  0  0  0  0  0  0  0  0  0  0
  -17.2554  -23.9707   25.5876 C   0  0  0  0  0  0  0  0  0  0  0  0
  -19.0795  -28.0729   20.7177 C   0  0  0  0  0  0  0  0  0  0  0  0
  -18.4395  -27.7399   23.1152 C   0  0  0  0  0  0  0  0  0  0  0  0
  -16.8208  -27.1731   21.3037 C   0  0  0  0  0  0  0  0  0  0  0  0
  -18.9898  -21.1458   23.7200 C   0  0  0  0  0  0  0  0  0  0  0  0
  -26.7583  -22.1847   20.6477 C   0  0  0  0  0  0  0  0  0  1  0  0
  -18.8330  -25.6886   21.6770 C   0  0  1  0  0  0  0  0  0  0  0  0
  -17.7782  -23.2326   24.3650 C   0  0  2  0  0  0  0  0  0  0  0  0
  -18.3153  -27.1546   21.6922 C   0  0  0  0  0  0  0  0  0  0  0  0
  -31.8100  -17.3263   21.4920 N   0  0  0  0  0  0  0  0  0  0  0  0
  -25.8586  -11.5433   20.2865 N   0  0  0  0  0  0  0  0  0  0  0  0
  -26.2369  -12.8263   20.1567 N   0  0  0  0  0  0  0  0  0  0  0  0
  -28.5810  -20.6719   23.4641 N   0  0  0  0  0  0  0  0  0  0  0  0
  -19.9744  -24.6370   19.7495 N   0  0  0  0  0  0  0  0  0  0  0  0
  -29.9690  -13.6097   20.3599 N   0  0  0  0  0  0  0  0  0  0  0  0
  -25.4731  -15.0549   20.4032 N   0  0  0  0  0  0  0  0  0  0  0  0
  -21.8862  -12.5857   21.6005 N   0  0  0  0  0  0  0  0  0  0  0  0
  -30.0830  -15.6898   21.4656 N   0  0  0  0  0  0  0  0  0  0  0  0
  -19.8481  -25.4622   16.2806 N   0  0  0  0  0  0  0  0  0  0  0  0
  -18.1098  -24.7902   22.5705 N   0  0  0  0  0  0  0  0  0  0  0  0
  -29.4989  -19.6707   25.3306 N   0  3  0  0  0  0  0  0  0  0  0  0
  -18.4481  -21.9822   24.8218 N   0  3  0  0  0  0  0  0  0  0  0  0
  -22.6641  -14.7244   21.3180 O   0  0  0  0  0  0  0  0  0  0  0  0
  -21.2041  -26.2172   18.0166 O   0  0  0  0  0  0  0  0  0  0  0  0
  -17.6653  -24.9598   19.7452 O   0  0  0  0  0  0  0  0  0  0  0  0
  -19.9502  -24.1416   23.8232 O   0  0  0  0  0  0  0  0  0  0  0  0
  -31.8577  -14.9303   20.1790 O   0  0  0  0  0  0  0  0  0  0  0  0
  -21.6068   -7.0229   21.7140 O   0  0  0  0  0  0  0  0  0  0  0  0
  -25.9357  -23.3504   20.6770 O   0  0  0  0  0  0  0  0  0  1  0  0
  -16.4391   -6.8425   19.7993 F   0  0  0  0  0  0  0  0  0  0  0  0
  -20.8248   -5.0662   19.9246 F   0  0  0  0  0  0  0  0  0  0  0  0
  1  2  1  0  0  0  0
  1  5  2  0  0  0  0
  2  6  2  0  0  0  0
  3  8  2  0  0  0  0
  3 18  1  0  0  0  0
  4  9  1  0  0  0  0
  4 18  2  0  0  0  0
  5 21  1  0  0  0  0
  6 23  1  0  0  0  0
  7 10  2  0  0  0  0
  7 22  1  0  0  0  0
  8 25  1  0  0  0  0
  9 25  2  0  0  0  0
 10 26  1  0  0  0  0
 11 12  2  0  0  0  0
 11 27  1  0  0  0  0
 12 28  1  0  0  0  0
 13 17  2  0  0  0  0
 13 19  1  0  0  0  0
 14 19  2  0  0  0  0
 14 31  1  0  0  0  0
 15 24  1  0  0  0  0
 15 26  2  0  0  0  0
 16 28  2  0  0  0  0
 16 29  1  0  0  0  0
 17 65  1  0  0  0  0
 18 30  1  0  0  0  0
 19 33  1  0  0  0  0
 20 30  1  0  0  0  0
 20 32  2  0  0  0  0
 20 34  1  0  0  0  0
 21 23  2  0  0  0  0
 21 39  1  0  0  0  0
 22 24  2  0  0  0  0
 22 40  1  0  0  0  0
 23 51  1  0  0  0  0
 24 41  1  0  0  0  0
 25 83  1  0  0  0  0
 26 84  1  0  0  0  0
 27 29  2  0  0  0  0
 27 83  1  0  0  0  0
 28 85  1  0  0  0  0
 29 86  1  0  0  0  0
 30 66  2  0  0  0  0
 31 65  2  0  0  0  0
 31 73  1  0  0  0  0
 32 67  1  0  0  0  0
 32 71  1  0  0  0  0
 33 68  1  0  0  0  0
 33 76  2  0  0  0  0
 34 72  1  0  0  0  0
 34 78  2  0  0  0  0
 35 52  1  0  0  0  0
 35 74  1  0  0  0  0
 35 79  2  0  0  0  0
 36 62  1  0  0  0  0
 36 69  1  0  0  0  0
 36 80  2  0  0  0  0
 37 63  1  0  0  0  0
 37 75  1  0  0  0  0
 37 81  2  0  0  0  0
 38 70  1  0  0  0  0
 38 73  1  0  0  0  0
 38 82  2  0  0  0  0
 39 42  1  0  0  0  0
 40 52  1  0  0  0  0
 41 69  1  0  0  0  0
 42 44  1  0  0  0  0
 43 45  1  0  0  0  0
 43 47  1  0  0  0  0
 44 51  1  0  0  0  0
 45 53  1  0  0  0  0
 46 48  1  0  0  0  0
 46 54  1  0  0  0  0
 47 70  1  0  0  0  0
 48 68  1  0  0  0  0
 49 53  1  0  0  0  0
 49 70  1  0  0  0  0
 50 54  1  0  0  0  0
 50 68  1  0  0  0  0
 51 74  1  0  0  0  0
 52 69  1  0  0  0  0
 53 67  1  0  0  0  0
 54 55  1  0  0  0  0
 54 61  1  0  0  0  0
 56 63  1  0  0  0  0
 57 64  1  0  0  0  0
 58 64  1  0  0  0  0
 59 64  1  0  0  0  0
 60 77  1  0  0  0  0
 61 84  1  0  0  0  0
 62 64  1  0  0  0  0
 62 75  1  0  0  0  0
 63 77  1  0  0  0  0
 66 67  1  0  0  0  0
M  CHG  2  76   1  77   1
M  ISO  4  38 100  61 101  73 100  84 101
M  END
> <Batch ID>
0147

> <Smiles>
CNC(C)C(=O)NC(C(=O)N1Cc2cc([101O:1][101CH2:1]C3(C)CCN(C(=N)c4ccnc([100NH:0][100C:0](=O)N5CCCC(n6nc(-c7ccc(Oc8ccc(F)cc8F)cc7)c(C(N)=O)c6N)C5)c4)C3)ccc2CC1C(=O)NC1CCCc2ccccc21)C(C)(C)C

> <Shape>
0.195

> <Color>
0.184

> <Negative vol penalty>
0.000

$$$$

  -OEChem-04052303133D

 87 96  0     1  0  0  0  0  0999 V2000
  -17.3126  -31.2166   23.8837 C   0  0  0  0  0  0  0  0  0  0  0  0
  -18.5704  -30.8654   24.3634 C   0  0  0  0  0  0  0  0  0  0  0  0
  -27.3491  -12.4365   20.1331 C   0  0  0  0  0  0  0  0  0  0  0  0
  -25.5352  -13.1320   21.5696 C   0  0  0  0  0  0  0  0  0  0  0  0
  -16.6141  -30.3396   23.0549 C   0  0  0  0  0  0  0  0  0  0  0  0
  -19.1300  -29.6365   24.0153 C   0  0  0  0  0  0  0  0  0  0  0  0
  -25.4618  -29.2797   20.5988 C   0  0  0  0  0  0  0  0  0  0  0  0
  -26.5298  -11.4562   19.5732 C   0  0  0  0  0  0  0  0  0  0  0  0
  -24.7159  -12.1518   21.0096 C   0  0  0  0  0  0  0  0  0  0  0  0
  -26.7671  -29.1208   20.1329 C   0  0  0  0  0  0  0  0  0  0  0  0
  -24.2658   -8.8140   21.3053 C   0  0  0  0  0  0  0  0  0  0  0  0
  -23.4947   -8.0406   22.1730 C   0  0  0  0  0  0  0  0  0  0  0  0
  -26.4601  -26.7232   20.0589 C   0  0  0  0  0  0  0  0  0  0  0  0
  -29.6508  -22.2619   18.3076 C   0  0  0  0  0  0  0  0  0  0  0  0
  -30.9357  -22.1988   16.2627 C   0  0  0  0  0  0  0  0  0  0  0  0
  -30.2041  -20.1399   17.2936 C   0  0  0  0  0  0  0  0  0  0  0  0
  -21.4849   -8.8211   21.0827 C   0  0  0  0  0  0  0  0  0  0  0  0
  -26.8518  -13.2743   21.1314 C   0  0  0  0  0  0  0  0  0  0  0  0
  -28.9117  -14.0901   22.3959 C   0  0  0  0  0  0  0  0  0  0  0  0
  -17.1695  -29.1035   22.6887 C   0  0  0  0  0  0  0  0  0  0  0  0
  -24.6446  -28.1607   20.7821 C   0  0  0  0  0  0  0  0  0  0  0  0
  -18.4377  -28.7417   23.1819 C   0  0  0  0  0  0  0  0  0  0  0  0
  -25.1477  -26.8771   20.5135 C   0  0  0  0  0  0  0  0  0  0  0  0
  -30.3230  -22.9271   17.2823 C   0  0  0  0  0  0  0  0  0  0  0  0
  -29.5913  -20.8683   18.3133 C   0  0  0  0  0  0  0  0  0  0  0  0
  -25.2132  -11.3139   20.0114 C   0  0  0  0  0  0  0  0  0  0  0  0
  -27.2651  -27.8457   19.8639 C   0  0  0  0  0  0  0  0  0  0  0  0
  -23.6465   -9.5910   20.3263 C   0  0  0  0  0  0  0  0  0  0  0  0
  -22.1043   -8.0441   22.0617 C   0  0  0  0  0  0  0  0  0  0  0  0
  -30.8763  -20.8051   16.2683 C   0  0  0  0  0  0  0  0  0  0  0  0
  -22.2561   -9.5945   20.2150 C   0  0  0  0  0  0  0  0  0  0  0  0
  -27.6978  -14.2867   21.7106 C   0  0  0  0  0  0  0  0  0  0  0  0
  -29.3187  -15.3552   22.7431 C   0  0  0  0  0  0  0  0  0  0  0  0
  -29.6091  -12.8729   22.6920 C   0  0  0  0  0  0  0  0  0  0  0  0
  -21.2841  -26.8362   21.7962 C   0  0  0  0  0  0  0  0  0  0  0  0
  -22.1824  -25.2114   19.3542 C   0  0  0  0  0  0  0  0  0  0  0  0
  -22.3521  -23.3500   16.5005 C   0  0  0  0  0  0  0  0  0  0  0  0
  -28.2468  -20.7641   20.4411 C   0  0  0  0  0  0  0  0  0  0  0  0
  -16.3565  -28.1685   21.8287 C   0  0  0  0  0  0  0  0  0  0  0  0
  -23.2526  -28.2798   21.3407 C   0  0  0  0  0  0  0  0  0  0  0  0
  -24.2441  -25.6997   20.7582 C   0  0  0  0  0  0  0  0  0  0  0  0
  -17.1796  -27.0453   21.2033 C   0  0  0  0  0  0  0  0  0  0  0  0
  -27.5812  -19.6975   23.7723 C   0  0  0  0  0  0  0  0  0  0  0  0
  -29.9197  -26.4632   16.1416 C   0  0  0  0  0  0  0  0  0  0  0  0
  -18.0911  -26.4069   22.2466 C   0  0  0  0  0  0  0  0  0  0  0  0
  -27.6520  -18.1713   23.6852 C   0  0  0  0  0  0  0  0  0  0  0  0
  -30.5432  -27.1980   17.3217 C   0  0  0  0  0  0  0  0  0  0  0  0
  -30.4621  -25.0419   16.0003 C   0  0  0  0  0  0  0  0  0  0  0  0
  -26.9600  -20.3089   22.5176 C   0  0  0  0  0  0  0  0  0  0  0  0
  -27.6517  -18.3691   21.1657 C   0  0  0  0  0  0  0  0  0  0  0  0
  -30.9900  -24.9849   18.4397 C   0  0  0  0  0  0  0  0  0  0  0  0
  -19.0887  -27.4281   22.8066 C   0  0  1  0  0  0  0  0  0  0  0  0
  -22.2743  -27.2502   20.7476 C   0  0  1  0  0  0  0  0  0  0  0  0
  -28.3296  -17.7121   22.3792 C   0  0  2  0  0  0  0  0  0  0  0  0
  -30.4266  -26.4019   18.6274 C   0  0  2  0  0  0  0  0  0  0  0  0
  -21.5119  -21.2119   15.4905 C   0  0  0  0  0  0  0  0  0  0  0  0
  -24.1609  -23.6337   21.0572 C   0  0  0  0  0  0  0  0  0  0  0  0
  -23.9809  -21.7612   19.4050 C   0  0  0  0  0  0  0  0  0  0  0  0
  -21.9668  -22.4940   20.6814 C   0  0  0  0  0  0  0  0  0  0  0  0
  -20.9824  -24.7888   14.3067 C   0  0  0  0  0  0  0  0  0  0  0  0
  -31.1766  -26.4109   20.8545 C   0  0  0  0  0  0  0  0  0  0  0  0
  -28.9860  -26.3672   19.1497 C   0  0  0  0  0  0  0  0  0  1  0  0
  -22.8758  -23.9736   18.8438 C   0  0  1  0  0  0  0  0  0  0  0  0
  -21.2707  -22.7046   15.6527 C   0  0  2  0  0  0  0  0  0  0  0  0
  -23.2540  -22.9917   19.9884 C   0  0  0  0  0  0  0  0  0  0  0  0
  -27.3559  -15.5751   21.6266 N   0  0  0  0  0  0  0  0  0  0  0  0
  -28.3610  -16.1996   22.2637 N   0  0  0  0  0  0  0  0  0  0  0  0
  -30.3831  -24.3248   17.2766 N   0  0  2  0  0  0  0  0  0  0  0  0
  -22.8875  -25.9981   20.2731 N   0  0  0  0  0  0  0  0  0  0  0  0
  -27.6557  -19.8322   21.3203 N   0  0  0  0  0  0  0  0  0  0  0  0
  -30.3987  -15.8164   23.4088 N   0  0  0  0  0  0  0  0  0  0  0  0
  -29.0509  -11.6614   22.2618 N   0  0  0  0  0  0  0  0  0  0  0  0
  -28.9083  -20.1925   19.3547 N   0  0  0  0  0  0  0  0  0  0  0  0
  -20.1679  -27.6477   21.8676 N   0  0  0  0  0  0  0  0  0  0  0  0
  -21.9954  -23.4006   17.8315 N   0  0  0  0  0  0  0  0  0  0  0  0
  -21.2354  -23.3250   14.2982 N   0  3  0  0  0  0  0  0  0  0  0  0
  -30.6868  -12.8587   23.3338 O   0  0  0  0  0  0  0  0  0  0  0  0
  -21.5140  -25.8521   22.4893 O   0  0  0  0  0  0  0  0  0  0  0  0
  -21.0441  -25.4730   18.9551 O   0  0  0  0  0  0  0  0  0  0  0  0
  -23.4091  -23.7641   16.0297 O   0  0  0  0  0  0  0  0  0  0  0  0
  -28.1950  -21.9785   20.6521 O   0  0  0  0  0  0  0  0  0  0  0  0
  -24.4134  -10.3577   19.4651 O   0  0  0  0  0  0  0  0  0  0  0  0
  -28.5388  -27.6981   19.4050 O   0  0  0  0  0  0  0  0  0  1  0  0
  -31.2232  -27.0790   19.6052 O   0  0  0  0  0  0  0  0  0  0  0  0
  -21.3640   -7.3002   22.8940 F   0  0  0  0  0  0  0  0  0  0  0  0
  -31.4635  -20.1054   15.2887 F   0  0  0  0  0  0  0  0  0  0  0  0
  -21.6554  -10.3380   19.2757 F   0  0  0  0  0  0  0  0  0  0  0  0
  1  2  1  0  0  0  0
  1  5  2  0  0  0  0
  2  6  2  0  0  0  0
  3  8  2  0  0  0  0
  3 18  1  0  0  0  0
  4  9  1  0  0  0  0
  4 18  2  0  0  0  0
  5 20  1  0  0  0  0
  6 22  1  0  0  0  0
  7 10  2  0  0  0  0
  7 21  1  0  0  0  0
  8 26  1  0  0  0  0
  9 26  2  0  0  0  0
 10 27  1  0  0  0  0
 11 12  2  0  0  0  0
 11 28  1  0  0  0  0
 12 29  1  0  0  0  0
 13 23  1  0  0  0  0
 13 27  2  0  0  0  0
 14 24  2  0  0  0  0
 14 25  1  0  0  0  0
 15 24  1  0  0  0  0
 15 30  2  0  0  0  0
 16 25  2  0  0  0  0
 16 30  1  0  0  0  0
 17 29  2  0  0  0  0
 17 31  1  0  0  0  0
 18 32  1  0  0  0  0
 19 32  1  0  0  0  0
 19 33  2  0  0  0  0
 19 34  1  0  0  0  0
 20 22  2  0  0  0  0
 20 39  1  0  0  0  0
 21 23  2  0  0  0  0
 21 40  1  0  0  0  0
 22 52  1  0  0  0  0
 23 41  1  0  0  0  0
 24 68  1  0  0  0  0
 25 73  1  0  0  0  0
 26 82  1  0  0  0  0
 27 83  1  0  0  0  0
 28 31  2  0  0  0  0
 28 82  1  0  0  0  0
 29 85  1  0  0  0  0
 30 86  1  0  0  0  0
 31 87  1  0  0  0  0
 32 66  2  0  0  0  0
 33 67  1  0  0  0  0
 33 71  1  0  0  0  0
 34 72  1  0  0  0  0
 34 77  2  0  0  0  0
 35 53  1  0  0  0  0
 35 74  1  0  0  0  0
 35 78  2  0  0  0  0
 36 63  1  0  0  0  0
 36 69  1  0  0  0  0
 36 79  2  0  0  0  0
 37 64  1  0  0  0  0
 37 75  1  0  0  0  0
 37 80  2  0  0  0  0
 38 70  1  0  0  0  0
 38 73  1  0  0  0  0
 38 81  2  0  0  0  0
 39 42  1  0  0  0  0
 40 53  1  0  0  0  0
 41 69  1  0  0  0  0
 42 45  1  0  0  0  0
 43 46  1  0  0  0  0
 43 49  1  0  0  0  0
 44 47  1  0  0  0  0
 44 48  1  0  0  0  0
 45 52  1  0  0  0  0
 46 54  1  0  0  0  0
 47 55  1  0  0  0  0
 48 68  1  0  0  0  0
 49 70  1  0  0  0  0
 50 54  1  0  0  0  0
 50 70  1  0  0  0  0
 51 55  1  0  0  0  0
 51 68  1  0  0  0  0
 52 74  1  0  0  0  0
 53 69  1  0  0  0  0
 54 67  1  0  0  0  0
 55 62  1  0  0  0  0
 55 84  1  0  0  0  0
 56 64  1  0  0  0  0
 57 65  1  0  0  0  0
 58 65  1  0  0  0  0
 59 65  1  0  0  0  0
 60 76  1  0  0  0  0
 61 84  1  0  0  0  0
 62 83  1  0  0  0  0
 63 65  1  0  0  0  0
 63 75  1  0  0  0  0
 64 76  1  0  0  0  0
 66 67  1  0  0  0  0
M  CHG  1  76   1
M  ISO  4  38 100  62 101  73 100  83 101
M  END
> <Batch ID>
0147

> <Smiles>
CNC(C)C(=O)NC(C(=O)N1Cc2cc([101O:1][101CH2:1]C3(OC)CCCN(c4cc(F)cc([100NH:0][100C:0](=O)N5CCCC(n6nc(-c7ccc(Oc8ccc(F)cc8F)cc7)c(C(N)=O)c6N)C5)c4)C3)ccc2CC1C(=O)NC1CCCc2ccccc21)C(C)(C)C

> <Shape>
0.280

> <Color>
0.062

> <Negative vol penalty>
0.000

$$$$

  -OEChem-04052303133D

 87 96  0     1  0  0  0  0  0999 V2000
  -30.3905  -25.8385   17.1654 C   0  0  0  0  0  0  0  0  0  0  0  0
  -29.1584  -26.4713   17.0453 C   0  0  0  0  0  0  0  0  0  0  0  0
  -25.5168  -12.8071   21.8530 C   0  0  0  0  0  0  0  0  0  0  0  0
  -25.6031  -13.3498   19.5003 C   0  0  0  0  0  0  0  0  0  0  0  0
  -30.9653  -25.6737   18.4238 C   0  0  0  0  0  0  0  0  0  0  0  0
  -28.5062  -26.9499   18.1822 C   0  0  0  0  0  0  0  0  0  0  0  0
  -23.0217  -29.5287   18.8121 C   0  0  0  0  0  0  0  0  0  0  0  0
  -24.5644  -11.8223   21.5909 C   0  0  0  0  0  0  0  0  0  0  0  0
  -24.6508  -12.3649   19.2382 C   0  0  0  0  0  0  0  0  0  0  0  0
  -21.7166  -29.1188   19.0815 C   0  0  0  0  0  0  0  0  0  0  0  0
  -24.5159   -8.6583   20.3993 C   0  0  0  0  0  0  0  0  0  0  0  0
  -24.6806   -7.4173   21.0144 C   0  0  0  0  0  0  0  0  0  0  0  0
  -22.0361  -29.6541   21.4119 C   0  0  0  0  0  0  0  0  0  0  0  0
  -23.1084  -23.9880   21.3111 C   0  0  0  0  0  0  0  0  0  0  0  0
  -22.5428   -7.6764   22.1096 C   0  0  0  0  0  0  0  0  0  0  0  0
  -26.0361  -13.5709   20.8077 C   0  0  0  0  0  0  0  0  0  0  0  0
  -28.4188  -14.4360   21.0937 C   0  0  0  0  0  0  0  0  0  0  0  0
  -30.3134  -26.1397   19.5774 C   0  0  0  0  0  0  0  0  0  0  0  0
  -23.8487  -29.9949   19.8441 C   0  0  0  0  0  0  0  0  0  0  0  0
  -29.0813  -26.8144   19.4587 C   0  0  0  0  0  0  0  0  0  0  0  0
  -23.3504  -30.0717   21.1525 C   0  0  0  0  0  0  0  0  0  0  0  0
  -24.4346  -23.6300   20.9212 C   0  0  0  0  0  0  0  0  0  0  0  0
  -24.1314  -11.6011   20.2835 C   0  0  0  0  0  0  0  0  0  0  0  0
  -21.2246  -29.1787   20.3821 C   0  0  0  0  0  0  0  0  0  0  0  0
  -23.3647   -9.4085   20.6394 C   0  0  0  0  0  0  0  0  0  0  0  0
  -23.6940   -6.9263   21.8695 C   0  0  0  0  0  0  0  0  0  0  0  0
  -22.3781   -8.9175   21.4945 C   0  0  0  0  0  0  0  0  0  0  0  0
  -27.0195  -14.5888   21.0778 C   0  0  0  0  0  0  0  0  0  0  0  0
  -24.7586  -24.1803   19.6953 C   0  0  0  0  0  0  0  0  0  0  0  0
  -28.8973  -15.6867   21.3989 C   0  0  0  0  0  0  0  0  0  0  0  0
  -22.4850  -24.7812   20.3715 C   0  0  0  0  0  0  0  0  0  0  0  0
  -29.2150  -13.2679   20.8540 C   0  0  0  0  0  0  0  0  0  0  0  0
  -26.6009  -29.0417   21.1171 C   0  0  0  0  0  0  0  0  0  0  0  0
  -26.3395  -31.8107   22.7863 C   0  0  0  0  0  0  0  0  0  0  0  0
  -20.2033  -25.2388   21.3258 C   0  0  0  0  0  0  0  0  0  0  0  0
  -24.3192  -34.2622   24.0333 C   0  0  0  0  0  0  0  0  0  0  0  0
  -26.8715  -21.0512   20.5755 C   0  0  0  0  0  0  0  0  0  0  0  0
  -30.9844  -25.9416   20.9137 C   0  0  0  0  0  0  0  0  0  0  0  0
  -25.2453  -30.4585   19.5325 C   0  0  0  0  0  0  0  0  0  0  0  0
  -24.1911  -30.5836   22.2925 C   0  0  0  0  0  0  0  0  0  0  0  0
  -25.3935  -22.7860   21.7090 C   0  0  0  0  0  0  0  0  0  0  0  0
  -26.0689  -23.9835   19.0021 C   0  0  0  0  0  0  0  0  0  0  0  0
  -30.0220  -26.0811   22.0887 C   0  0  0  0  0  0  0  0  0  0  0  0
  -27.7178  -19.6930   23.7200 C   0  0  0  0  0  0  0  0  0  0  0  0
  -29.2099  -27.3597   21.9465 C   0  0  0  0  0  0  0  0  0  0  0  0
  -27.7655  -18.1993   23.4014 C   0  0  0  0  0  0  0  0  0  0  0  0
  -27.1003  -23.4536   20.0070 C   0  0  0  0  0  0  0  0  0  0  0  0
  -26.5616  -20.3961   23.0065 C   0  0  0  0  0  0  0  0  0  0  0  0
  -26.5843  -18.6790   21.2249 C   0  0  0  0  0  0  0  0  0  0  0  0
  -28.3392  -27.3160   20.6843 C   0  0  1  0  0  0  0  0  0  0  0  0
  -26.1685  -30.4322   20.7467 C   0  0  1  0  0  0  0  0  0  0  0  0
  -27.7728  -17.9602   21.8814 C   0  0  2  0  0  0  0  0  0  0  0  0
  -24.3897  -36.3738   25.3874 C   0  0  0  0  0  0  0  0  0  0  0  0
  -26.6940  -30.1643   25.3307 C   0  0  0  0  0  0  0  0  0  0  0  0
  -25.8208  -32.1166   26.6323 C   0  0  0  0  0  0  0  0  0  0  0  0
  -27.9276  -32.3397   25.3154 C   0  0  0  0  0  0  0  0  0  0  0  0
  -17.2840  -27.8185   21.3663 C   0  0  0  0  0  0  0  0  0  0  0  0
  -18.3165  -26.6701   23.3275 C   0  0  0  0  0  0  0  0  0  0  0  0
  -23.2326  -35.8692   21.7981 C   0  0  0  0  0  0  0  0  0  0  0  0
  -18.9374  -25.9977   20.9480 C   0  0  0  0  0  0  0  0  0  0  0  0
  -19.6962  -28.2387   21.9430 C   0  0  0  0  0  0  0  0  0  1  0  0
  -25.7141  -32.2119   24.1004 C   0  0  1  0  0  0  0  0  0  0  0  0
  -24.4273  -35.7758   23.9897 C   0  0  2  0  0  0  0  0  0  0  0  0
  -26.5237  -31.6966   25.3238 C   0  0  0  0  0  0  0  0  0  0  0  0
  -18.5815  -27.1709   21.8967 C   0  0  0  0  0  0  0  0  0  0  0  0
  -26.6340  -15.8380   21.3513 N   0  0  0  0  0  0  0  0  0  0  0  0
  -27.7983  -16.4816   21.5420 N   0  0  0  0  0  0  0  0  0  0  0  0
  -25.5521  -31.0192   21.9382 N   0  0  0  0  0  0  0  0  0  0  0  0
  -26.5274  -22.3856   20.8444 N   0  0  0  0  0  0  0  0  0  0  0  0
  -26.5796  -20.1032   21.5669 N   0  0  0  0  0  0  0  0  0  0  0  0
  -30.1468  -16.1731   21.5562 N   0  0  0  0  0  0  0  0  0  0  0  0
  -28.5623  -12.0647   20.5533 N   0  0  0  0  0  0  0  0  0  0  0  0
  -21.2338  -25.3322   20.3556 N   0  0  0  0  0  0  0  0  0  0  0  0
  -27.7482  -28.6190   20.4732 N   0  0  0  0  0  0  0  0  0  0  0  0
  -25.5603  -33.6619   24.0535 N   0  0  0  0  0  0  0  0  0  0  0  0
  -23.3022  -36.3530   23.2011 N   0  3  0  0  0  0  0  0  0  0  0  0
  -30.4674  -13.2869   20.9211 O   0  0  0  0  0  0  0  0  0  0  0  0
  -25.9432  -28.4003   21.9281 O   0  0  0  0  0  0  0  0  0  0  0  0
  -27.4819  -32.1917   22.5189 O   0  0  0  0  0  0  0  0  0  0  0  0
  -20.2622  -24.6170   22.3831 O   0  0  0  0  0  0  0  0  0  0  0  0
  -23.2415  -33.6717   24.0516 O   0  0  0  0  0  0  0  0  0  0  0  0
  -27.4026  -20.7251   19.5063 O   0  0  0  0  0  0  0  0  0  0  0  0
  -23.2023  -10.6400   20.0274 O   0  0  0  0  0  0  0  0  0  0  0  0
  -19.9423  -28.7758   20.6498 O   0  0  0  0  0  0  0  0  0  1  0  0
  -23.8516   -5.7338   22.4589 F   0  0  0  0  0  0  0  0  0  0  0  0
  -21.2694   -9.6330   21.7282 F   0  0  0  0  0  0  0  0  0  0  0  0
  -23.4936  -25.0958   19.0234 S   0  0  0  0  0  0  0  0  0  0  0  0
  1  2  1  0  0  0  0
  1  5  2  0  0  0  0
  2  6  2  0  0  0  0
  3  8  2  0  0  0  0
  3 16  1  0  0  0  0
  4  9  1  0  0  0  0
  4 16  2  0  0  0  0
  5 18  1  0  0  0  0
  6 20  1  0  0  0  0
  7 10  2  0  0  0  0
  7 19  1  0  0  0  0
  8 23  1  0  0  0  0
  9 23  2  0  0  0  0
 10 24  1  0  0  0  0
 11 12  2  0  0  0  0
 11 25  1  0  0  0  0
 12 26  1  0  0  0  0
 13 21  1  0  0  0  0
 13 24  2  0  0  0  0
 14 22  1  0  0  0  0
 14 31  2  0  0  0  0
 15 26  2  0  0  0  0
 15 27  1  0  0  0  0
 16 28  1  0  0  0  0
 17 28  1  0  0  0  0
 17 30  2  0  0  0  0
 17 32  1  0  0  0  0
 18 20  2  0  0  0  0
 18 38  1  0  0  0  0
 19 21  2  0  0  0  0
 19 39  1  0  0  0  0
 20 50  1  0  0  0  0
 21 40  1  0  0  0  0
 22 29  2  0  0  0  0
 22 41  1  0  0  0  0
 23 83  1  0  0  0  0
 24 84  1  0  0  0  0
 25 27  2  0  0  0  0
 25 83  1  0  0  0  0
 26 85  1  0  0  0  0
 27 86  1  0  0  0  0
 28 66  2  0  0  0  0
 29 42  1  0  0  0  0
 29 87  1  0  0  0  0
 30 67  1  0  0  0  0
 30 71  1  0  0  0  0
 31 73  1  0  0  0  0
 31 87  1  0  0  0  0
 32 72  1  0  0  0  0
 32 77  2  0  0  0  0
 33 51  1  0  0  0  0
 33 74  1  0  0  0  0
 33 78  2  0  0  0  0
 34 62  1  0  0  0  0
 34 68  1  0  0  0  0
 34 79  2  0  0  0  0
 35 60  1  0  0  0  0
 35 73  1  0  0  0  0
 35 80  2  0  0  0  0
 36 63  1  0  0  0  0
 36 75  1  0  0  0  0
 36 81  2  0  0  0  0
 37 69  1  0  0  0  0
 37 70  1  0  0  0  0
 37 82  2  0  0  0  0
 38 43  1  0  0  0  0
 39 51  1  0  0  0  0
 40 68  1  0  0  0  0
 41 69  1  0  0  0  0
 42 47  1  0  0  0  0
 43 45  1  0  0  0  0
 44 46  1  0  0  0  0
 44 48  1  0  0  0  0
 45 50  1  0  0  0  0
 46 52  1  0  0  0  0
 47 69  1  0  0  0  0
 48 70  1  0  0  0  0
 49 52  1  0  0  0  0
 49 70  1  0  0  0  0
 50 74  1  0  0  0  0
 51 68  1  0  0  0  0
 52 67  1  0  0  0  0
 53 63  1  0  0  0  0
 54 64  1  0  0  0  0
 55 64  1  0  0  0  0
 56 64  1  0  0  0  0
 57 65  1  0  0  0  0
 58 65  1  0  0  0  0
 59 76  1  0  0  0  0
 60 65  1  0  0  0  0
 61 65  1  0  0  0  0
 61 84  1  0  0  0  0
 62 64  1  0  0  0  0
 62 75  1  0  0  0  0
 63 76  1  0  0  0  0
 66 67  1  0  0  0  0
M  CHG  1  76   1
M  ISO  4  37 100  61 101  69 100  84 101
M  END
> <Batch ID>
0147

> <Smiles>
CNC(C)C(=O)NC(C(=O)N1Cc2cc([101O:1][101CH2:1]C(C)(C)CC(=O)Nc3cc4c(s3)CC[100N:0]([100C:0](=O)N3CCCC(n5nc(-c6ccc(Oc7ccc(F)cc7F)cc6)c(C(N)=O)c5N)C3)C4)ccc2CC1C(=O)NC1CCCc2ccccc21)C(C)(C)C

> <Shape>
0.348

> <Color>
0.079

> <Negative vol penalty>
0.000

$$$$

  -OEChem-04052303133D

 82 91  0     1  0  0  0  0  0999 V2000
  -27.2250  -33.7519   26.1305 C   0  0  0  0  0  0  0  0  0  0  0  0
  -27.5688  -32.6652   25.3327 C   0  0  0  0  0  0  0  0  0  0  0  0
  -23.6254  -13.9224   21.2061 C   0  0  0  0  0  0  0  0  0  0  0  0
  -26.0388  -13.9909   21.2939 C   0  0  0  0  0  0  0  0  0  0  0  0
  -25.9383  -33.8478   26.6589 C   0  0  0  0  0  0  0  0  0  0  0  0
  -26.6264  -31.6732   25.0639 C   0  0  0  0  0  0  0  0  0  0  0  0
  -26.5784  -30.3097   20.1870 C   0  0  0  0  0  0  0  0  0  0  0  0
  -23.6802  -12.6181   20.7148 C   0  0  0  0  0  0  0  0  0  0  0  0
  -26.0937  -12.6865   20.8026 C   0  0  0  0  0  0  0  0  0  0  0  0
  -27.5912  -29.4545   19.7550 C   0  0  0  0  0  0  0  0  0  0  0  0
  -24.1719   -9.5095   21.9507 C   0  0  0  0  0  0  0  0  0  0  0  0
  -23.3055   -8.5696   22.5088 C   0  0  0  0  0  0  0  0  0  0  0  0
  -26.0719  -27.5871   19.9095 C   0  0  0  0  0  0  0  0  0  0  0  0
  -22.3091   -8.1996   20.3392 C   0  0  0  0  0  0  0  0  0  0  0  0
  -31.4434  -22.0883   19.6466 C   0  0  0  0  0  0  0  0  0  0  0  0
  -24.8047  -14.6088   21.4956 C   0  0  0  0  0  0  0  0  0  0  0  0
  -24.6885  -16.3555   23.3512 C   0  0  0  0  0  0  0  0  0  0  0  0
  -24.9768  -32.8615   26.3884 C   0  0  0  0  0  0  0  0  0  0  0  0
  -25.3057  -29.8076   20.4945 C   0  0  0  0  0  0  0  0  0  0  0  0
  -25.3261  -31.7554   25.5903 C   0  0  0  0  0  0  0  0  0  0  0  0
  -25.0440  -28.4384   20.3427 C   0  0  0  0  0  0  0  0  0  0  0  0
  -24.9143  -12.0001   20.5131 C   0  0  0  0  0  0  0  0  0  0  0  0
  -27.3389  -28.0926   19.6189 C   0  0  0  0  0  0  0  0  0  0  0  0
  -24.1069   -9.7945   20.5867 C   0  0  0  0  0  0  0  0  0  0  0  0
  -22.3742   -7.9146   21.7031 C   0  0  0  0  0  0  0  0  0  0  0  0
  -23.1755   -9.1395   19.7810 C   0  0  0  0  0  0  0  0  0  0  0  0
  -24.7487  -15.9564   22.0025 C   0  0  0  0  0  0  0  0  0  0  0  0
  -30.7150  -23.1515   19.1555 C   0  0  0  0  0  0  0  0  0  0  0  0
  -24.6522  -17.7276   23.3020 C   0  0  0  0  0  0  0  0  0  0  0  0
  -29.0598  -21.7616   19.5272 C   0  0  0  0  0  0  0  0  0  0  0  0
  -24.6674  -15.5572   24.5420 C   0  0  0  0  0  0  0  0  0  0  0  0
  -23.5100  -29.6991   23.1151 C   0  0  0  0  0  0  0  0  0  0  0  0
  -21.2904  -28.5040   21.0737 C   0  0  0  0  0  0  0  0  0  0  0  0
  -20.6214  -26.8924   18.1408 C   0  0  0  0  0  0  0  0  0  0  0  0
  -26.5528  -21.7198   19.2826 C   0  0  0  0  0  0  0  0  0  0  0  0
  -23.6130  -32.9844   27.0207 C   0  0  0  0  0  0  0  0  0  0  0  0
  -24.2164  -30.7472   20.9337 C   0  0  0  0  0  0  0  0  0  0  0  0
  -23.6889  -27.8523   20.6405 C   0  0  0  0  0  0  0  0  0  0  0  0
  -22.5614  -32.0817   26.3809 C   0  0  0  0  0  0  0  0  0  0  0  0
  -23.2275  -21.3378   20.4964 C   0  0  0  0  0  0  0  0  0  0  0  0
  -23.1111  -30.6711   26.1937 C   0  0  0  0  0  0  0  0  0  0  0  0
  -30.9527  -24.7474   17.2274 C   0  0  0  0  0  0  0  0  0  0  0  0
  -30.0852  -26.0021   17.2365 C   0  0  0  0  0  0  0  0  0  0  0  0
  -23.2364  -19.9533   21.1485 C   0  0  0  0  0  0  0  0  0  0  0  0
  -30.6986  -25.6312   19.5067 C   0  0  0  0  0  0  0  0  0  0  0  0
  -24.0920  -21.3773   19.2375 C   0  0  0  0  0  0  0  0  0  0  0  0
  -25.4792  -19.5184   20.0678 C   0  0  0  0  0  0  0  0  0  0  0  0
  -24.3242  -30.6717   25.2556 C   0  0  1  0  0  0  0  0  0  0  0  0
  -31.2720  -24.4465   18.7069 C   0  0  1  0  0  0  0  0  0  0  0  0
  -23.1043  -30.0507   21.7117 C   0  0  1  0  0  0  0  0  0  0  0  0
  -30.5538  -26.7517   18.4788 C   0  0  2  0  0  0  0  0  0  0  0  0
  -24.6742  -19.4466   21.3756 C   0  0  2  0  0  0  0  0  0  0  0  0
  -18.7138  -26.0231   16.7614 C   0  0  0  0  0  0  0  0  0  0  0  0
  -20.9931  -26.1396   22.9792 C   0  0  0  0  0  0  0  0  0  0  0  0
  -19.8377  -24.8929   21.1410 C   0  0  0  0  0  0  0  0  0  0  0  0
  -18.8411  -26.9969   22.0369 C   0  0  0  0  0  0  0  0  0  0  0  0
  -21.3039  -28.6640   15.8703 C   0  0  0  0  0  0  0  0  0  0  0  0
  -29.5960  -27.8404   18.9134 C   0  0  0  0  0  0  0  0  0  1  0  0
  -20.9129  -27.1235   20.5935 C   0  0  1  0  0  0  0  0  0  0  0  0
  -19.6409  -27.1999   17.0234 C   0  0  2  0  0  0  0  0  0  0  0  0
  -20.1724  -26.2987   21.6838 C   0  0  0  0  0  0  0  0  0  0  0  0
  -24.7506  -16.9913   21.1581 N   0  0  0  0  0  0  0  0  0  0  0  0
  -29.3481  -22.9658   19.0859 N   0  0  0  0  0  0  0  0  0  0  0  0
  -24.6910  -18.0543   21.9783 N   0  0  0  0  0  0  0  0  0  0  0  0
  -22.6585  -28.8108   21.0728 N   0  0  0  0  0  0  0  0  0  0  0  0
  -25.4408  -20.8873   19.5299 N   0  0  0  0  0  0  0  0  0  0  0  0
  -24.5912  -18.6745   24.2622 N   0  0  0  0  0  0  0  0  0  0  0  0
  -24.7109  -14.1624   24.4122 N   0  0  0  0  0  0  0  0  0  0  0  0
  -27.7814  -21.1590   19.6299 N   0  0  0  0  0  0  0  0  0  0  0  0
  -23.8972  -30.7846   23.8775 N   0  0  0  0  0  0  0  0  0  0  0  0
  -20.1483  -27.3132   19.3656 N   0  0  0  0  0  0  0  0  0  0  0  0
  -20.3727  -27.5114   15.7631 N   0  3  0  0  0  0  0  0  0  0  0  0
  -24.5950  -16.0653   25.6866 O   0  0  0  0  0  0  0  0  0  0  0  0
  -23.4731  -28.5298   23.4797 O   0  0  0  0  0  0  0  0  0  0  0  0
  -20.4034  -29.2840   21.4295 O   0  0  0  0  0  0  0  0  0  0  0  0
  -21.6977  -26.3315   17.9469 O   0  0  0  0  0  0  0  0  0  0  0  0
  -26.4224  -22.8576   18.8237 O   0  0  0  0  0  0  0  0  0  0  0  0
  -24.9682  -10.7273   20.0340 O   0  0  0  0  0  0  0  0  0  0  0  0
  -28.3259  -27.2555   19.1981 O   0  0  0  0  0  0  0  0  0  1  0  0
  -21.5433   -7.0109   22.2390 F   0  0  0  0  0  0  0  0  0  0  0  0
  -23.1091   -9.4083   18.4698 F   0  0  0  0  0  0  0  0  0  0  0  0
  -30.3838  -20.7991   20.0423 S   0  0  0  0  0  0  0  0  0  0  0  0
  1  2  1  0  0  0  0
  1  5  2  0  0  0  0
  2  6  2  0  0  0  0
  3  8  2  0  0  0  0
  3 16  1  0  0  0  0
  4  9  1  0  0  0  0
  4 16  2  0  0  0  0
  5 18  1  0  0  0  0
  6 20  1  0  0  0  0
  7 10  2  0  0  0  0
  7 19  1  0  0  0  0
  8 22  1  0  0  0  0
  9 22  2  0  0  0  0
 10 23  1  0  0  0  0
 11 12  2  0  0  0  0
 11 24  1  0  0  0  0
 12 25  1  0  0  0  0
 13 21  1  0  0  0  0
 13 23  2  0  0  0  0
 14 25  2  0  0  0  0
 14 26  1  0  0  0  0
 15 28  2  0  0  0  0
 15 82  1  0  0  0  0
 16 27  1  0  0  0  0
 17 27  1  0  0  0  0
 17 29  2  0  0  0  0
 17 31  1  0  0  0  0
 18 20  2  0  0  0  0
 18 36  1  0  0  0  0
 19 21  2  0  0  0  0
 19 37  1  0  0  0  0
 20 48  1  0  0  0  0
 21 38  1  0  0  0  0
 22 78  1  0  0  0  0
 23 79  1  0  0  0  0
 24 26  2  0  0  0  0
 24 78  1  0  0  0  0
 25 80  1  0  0  0  0
 26 81  1  0  0  0  0
 27 62  2  0  0  0  0
 28 49  1  0  0  0  0
 28 63  1  0  0  0  0
 29 64  1  0  0  0  0
 29 67  1  0  0  0  0
 30 63  2  0  0  0  0
 30 69  1  0  0  0  0
 30 82  1  0  0  0  0
 31 68  1  0  0  0  0
 31 73  2  0  0  0  0
 32 50  1  0  0  0  0
 32 70  1  0  0  0  0
 32 74  2  0  0  0  0
 33 59  1  0  0  0  0
 33 65  1  0  0  0  0
 33 75  2  0  0  0  0
 34 60  1  0  0  0  0
 34 71  1  0  0  0  0
 34 76  2  0  0  0  0
 35 66  1  0  0  0  0
 35 69  1  0  0  0  0
 35 77  2  0  0  0  0
 36 39  1  0  0  0  0
 37 50  1  0  0  0  0
 38 65  1  0  0  0  0
 39 41  1  0  0  0  0
 40 44  1  0  0  0  0
 40 46  1  0  0  0  0
 41 48  1  0  0  0  0
 42 43  1  0  0  0  0
 42 49  1  0  0  0  0
 43 51  1  0  0  0  0
 44 52  1  0  0  0  0
 45 49  1  0  0  0  0
 45 51  1  0  0  0  0
 46 66  1  0  0  0  0
 47 52  1  0  0  0  0
 47 66  1  0  0  0  0
 48 70  1  0  0  0  0
 50 65  1  0  0  0  0
 51 58  1  0  0  0  0
 52 64  1  0  0  0  0
 53 60  1  0  0  0  0
 54 61  1  0  0  0  0
 55 61  1  0  0  0  0
 56 61  1  0  0  0  0
 57 72  1  0  0  0  0
 58 79  1  0  0  0  0
 59 61  1  0  0  0  0
 59 71  1  0  0  0  0
 60 72  1  0  0  0  0
 62 64  1  0  0  0  0
M  CHG  1  72   1
M  ISO  4  35 100  58 101  69 100  79 101
M  END
> <Batch ID>
0147

> <Smiles>
CNC(C)C(=O)NC(C(=O)N1Cc2cc([101O:1][101CH2:1]C3CCC(c4csc([100NH:0][100C:0](=O)N5CCCC(n6nc(-c7ccc(Oc8ccc(F)cc8F)cc7)c(C(N)=O)c6N)C5)n4)C3)ccc2CC1C(=O)NC1CCCc2ccccc21)C(C)(C)C

> <Shape>
0.277

> <Color>
0.087

> <Negative vol penalty>
0.000

$$$$

  -OEChem-04052303133D

 89 98  0     1  0  0  0  0  0999 V2000
  -27.3870  -25.2287   15.7023 C   0  0  0  0  0  0  0  0  0  0  0  0
  -26.2187  -25.4559   16.4226 C   0  0  0  0  0  0  0  0  0  0  0  0
  -26.6669  -13.3198   21.0260 C   0  0  0  0  0  0  0  0  0  0  0  0
  -24.5582  -14.0206   20.0778 C   0  0  0  0  0  0  0  0  0  0  0  0
  -28.6249  -25.5174   16.2750 C   0  0  0  0  0  0  0  0  0  0  0  0
  -26.2877  -25.9709   17.7166 C   0  0  0  0  0  0  0  0  0  0  0  0
  -22.9172  -29.6639   18.5202 C   0  0  0  0  0  0  0  0  0  0  0  0
  -23.6991  -23.7091   19.5102 C   0  0  0  0  0  0  0  0  0  0  0  0
  -22.7549  -24.6715   19.8676 C   0  0  0  0  0  0  0  0  0  0  0  0
  -26.0223  -12.2740   21.6866 C   0  0  0  0  0  0  0  0  0  0  0  0
  -23.9136  -12.9748   20.7384 C   0  0  0  0  0  0  0  0  0  0  0  0
  -21.5965  -29.2815   18.7507 C   0  0  0  0  0  0  0  0  0  0  0  0
  -24.8319   -9.2028   20.9227 C   0  0  0  0  0  0  0  0  0  0  0  0
  -25.4305   -7.9436   20.8821 C   0  0  0  0  0  0  0  0  0  0  0  0
  -22.1179  -23.3372   21.7783 C   0  0  0  0  0  0  0  0  0  0  0  0
  -21.9311  -29.5763   21.1214 C   0  0  0  0  0  0  0  0  0  0  0  0
  -25.5883   -7.9409   23.2929 C   0  0  0  0  0  0  0  0  0  0  0  0
  -25.9348  -14.1931   20.2216 C   0  0  0  0  0  0  0  0  0  0  0  0
  -27.1689  -15.2445   18.2520 C   0  0  0  0  0  0  0  0  0  0  0  0
  -28.7088  -26.0453   17.5731 C   0  0  0  0  0  0  0  0  0  0  0  0
  -23.7595  -29.9955   19.5913 C   0  0  0  0  0  0  0  0  0  0  0  0
  -27.5281  -26.2656   18.3078 C   0  0  0  0  0  0  0  0  0  0  0  0
  -23.0621  -22.3746   21.4208 C   0  0  0  0  0  0  0  0  0  0  0  0
  -23.2614  -29.9651   20.9017 C   0  0  0  0  0  0  0  0  0  0  0  0
  -23.8526  -22.5606   20.2868 C   0  0  0  0  0  0  0  0  0  0  0  0
  -21.9643  -24.4856   21.0016 C   0  0  0  0  0  0  0  0  0  0  0  0
  -24.6457  -12.1014   21.5428 C   0  0  0  0  0  0  0  0  0  0  0  0
  -21.1041  -29.2348   20.0516 C   0  0  0  0  0  0  0  0  0  0  0  0
  -24.6115   -9.8311   22.1484 C   0  0  0  0  0  0  0  0  0  0  0  0
  -25.8087   -7.3126   22.0672 C   0  0  0  0  0  0  0  0  0  0  0  0
  -24.9897   -9.2001   23.3335 C   0  0  0  0  0  0  0  0  0  0  0  0
  -26.6000  -15.2739   19.5394 C   0  0  0  0  0  0  0  0  0  0  0  0
  -27.6706  -16.5100   18.0694 C   0  0  0  0  0  0  0  0  0  0  0  0
  -19.8401  -25.2978   20.8590 C   0  0  0  0  0  0  0  0  0  0  0  0
  -27.2375  -14.1695   17.3059 C   0  0  0  0  0  0  0  0  0  0  0  0
  -18.7872  -26.3052   21.1964 C   0  0  0  0  0  0  0  0  0  0  0  0
  -26.4692  -28.8165   20.7623 C   0  0  0  0  0  0  0  0  0  0  0  0
  -26.2113  -21.7979   20.5230 C   0  0  0  0  0  0  0  0  0  0  0  0
  -26.3126  -31.4196   22.6915 C   0  0  0  0  0  0  0  0  0  0  0  0
  -24.3869  -33.8166   24.1723 C   0  0  0  0  0  0  0  0  0  0  0  0
  -30.0717  -26.2972   18.1677 C   0  0  0  0  0  0  0  0  0  0  0  0
  -25.1739  -30.4318   19.3239 C   0  0  0  0  0  0  0  0  0  0  0  0
  -24.1189  -30.3311   22.0846 C   0  0  0  0  0  0  0  0  0  0  0  0
  -30.0410  -27.1920   19.4040 C   0  0  0  0  0  0  0  0  0  0  0  0
  -29.4344  -20.2324   20.4882 C   0  0  0  0  0  0  0  0  0  0  0  0
  -22.8120  -21.2165   23.7165 C   0  0  0  0  0  0  0  0  0  0  0  0
  -24.2593  -21.1318   23.3445 C   0  0  0  0  0  0  0  0  0  0  0  0
  -28.9424  -26.7417   20.3617 C   0  0  0  0  0  0  0  0  0  0  0  0
  -29.1219  -18.7749   20.1520 C   0  0  0  0  0  0  0  0  0  0  0  0
  -28.3408  -20.8531   21.3518 C   0  0  0  0  0  0  0  0  0  0  0  0
  -26.6563  -19.2951   20.4262 C   0  0  0  0  0  0  0  0  0  0  0  0
  -23.2093  -21.1528   22.2658 C   0  0  0  0  0  0  0  0  0  0  0  0
  -27.5607  -26.8465   19.7048 C   0  0  1  0  0  0  0  0  0  0  0  0
  -26.0924  -30.2522   20.5286 C   0  0  1  0  0  0  0  0  0  0  0  0
  -27.7211  -18.6393   19.5293 C   0  0  2  0  0  0  0  0  0  0  0  0
  -24.5369  -35.7832   25.7239 C   0  0  0  0  0  0  0  0  0  0  0  0
  -17.5415  -26.0887   19.0444 C   0  0  0  0  0  0  0  0  0  0  0  0
  -17.0358  -27.9964   20.5741 C   0  0  0  0  0  0  0  0  0  0  0  0
  -26.5962  -29.5226   25.0645 C   0  0  0  0  0  0  0  0  0  0  0  0
  -25.7971  -31.3728   26.5498 C   0  0  0  0  0  0  0  0  0  0  0  0
  -27.9141  -31.6392   25.2576 C   0  0  0  0  0  0  0  0  0  0  0  0
  -23.3695  -35.6734   22.1043 C   0  0  0  0  0  0  0  0  0  0  0  0
  -19.2318  -27.9447   19.3545 C   0  0  0  0  0  0  0  0  0  1  0  0
  -24.8701  -21.5446   19.8818 C   0  0  2  0  0  0  0  0  0  0  0  0
  -25.7002  -31.7162   24.0391 C   0  0  1  0  0  0  0  0  0  0  0  0
  -24.5544  -35.3219   24.2749 C   0  0  2  0  0  0  0  0  0  0  0  0
  -18.1547  -27.0869   20.0424 C   0  0  0  0  0  0  0  0  0  0  0  0
  -26.4861  -31.0539   25.2058 C   0  0  0  0  0  0  0  0  0  0  0  0
  -26.7281  -16.4638   20.1327 N   0  0  0  0  0  0  0  0  0  0  0  0
  -21.0146  -25.4560   21.3622 N   0  0  0  0  0  0  0  0  0  0  0  0
  -27.3833  -17.1937   19.2140 N   0  0  0  0  0  0  0  0  0  0  0  0
  -25.4967  -30.7451   21.7721 N   0  0  0  0  0  0  0  0  0  0  0  0
  -27.0231  -20.6837   20.7368 N   0  0  0  0  0  0  0  0  0  0  0  0
  -28.3252  -17.0934   17.0429 N   0  0  0  0  0  0  0  0  0  0  0  0
  -26.6716  -12.9355   17.6544 N   0  0  0  0  0  0  0  0  0  0  0  0
  -27.1100  -28.2217   19.6923 N   0  0  0  0  0  0  0  0  0  0  0  0
  -25.6035  -33.1689   24.1327 N   0  0  0  0  0  0  0  0  0  0  0  0
  -25.0598  -21.4363   18.3992 N   0  3  0  0  0  0  0  0  0  0  0  0
  -23.4546  -36.0163   23.5473 N   0  3  0  0  0  0  0  0  0  0  0  0
  -27.7990  -14.2944   16.1911 O   0  0  0  0  0  0  0  0  0  0  0  0
  -18.4760  -26.3968   22.3761 O   0  0  0  0  0  0  0  0  0  0  0  0
  -26.1997  -28.2880   21.8345 O   0  0  0  0  0  0  0  0  0  0  0  0
  -26.5275  -22.9525   20.8214 O   0  0  0  0  0  0  0  0  0  0  0  0
  -27.4696  -31.7795   22.4606 O   0  0  0  0  0  0  0  0  0  0  0  0
  -23.2868  -33.2698   24.1351 O   0  0  0  0  0  0  0  0  0  0  0  0
  -24.0164  -11.0809   22.1871 O   0  0  0  0  0  0  0  0  0  0  0  0
  -19.8155  -28.8612   20.2794 O   0  0  0  0  0  0  0  0  0  1  0  0
  -26.3821   -6.1027   22.0281 F   0  0  0  0  0  0  0  0  0  0  0  0
  -24.7795   -9.7983   24.5142 F   0  0  0  0  0  0  0  0  0  0  0  0
  1  2  1  0  0  0  0
  1  5  2  0  0  0  0
  2  6  2  0  0  0  0
  3 10  2  0  0  0  0
  3 18  1  0  0  0  0
  4 11  1  0  0  0  0
  4 18  2  0  0  0  0
  5 20  1  0  0  0  0
  6 22  1  0  0  0  0
  7 12  2  0  0  0  0
  7 21  1  0  0  0  0
  8  9  2  0  0  0  0
  8 25  1  0  0  0  0
  9 26  1  0  0  0  0
 10 27  1  0  0  0  0
 11 27  2  0  0  0  0
 12 28  1  0  0  0  0
 13 14  2  0  0  0  0
 13 29  1  0  0  0  0
 14 30  1  0  0  0  0
 15 23  1  0  0  0  0
 15 26  2  0  0  0  0
 16 24  1  0  0  0  0
 16 28  2  0  0  0  0
 17 30  2  0  0  0  0
 17 31  1  0  0  0  0
 18 32  1  0  0  0  0
 19 32  1  0  0  0  0
 19 33  2  0  0  0  0
 19 35  1  0  0  0  0
 20 22  2  0  0  0  0
 20 41  1  0  0  0  0
 21 24  2  0  0  0  0
 21 42  1  0  0  0  0
 22 53  1  0  0  0  0
 23 25  2  0  0  0  0
 23 52  1  0  0  0  0
 24 43  1  0  0  0  0
 25 64  1  0  0  0  0
 26 70  1  0  0  0  0
 27 86  1  0  0  0  0
 28 87  1  0  0  0  0
 29 31  2  0  0  0  0
 29 86  1  0  0  0  0
 30 88  1  0  0  0  0
 31 89  1  0  0  0  0
 32 69  2  0  0  0  0
 33 71  1  0  0  0  0
 33 74  1  0  0  0  0
 34 36  1  0  0  0  0
 34 70  2  0  0  0  0
 35 75  1  0  0  0  0
 35 80  2  0  0  0  0
 36 67  1  0  0  0  0
 36 81  2  0  0  0  0
 37 54  1  0  0  0  0
 37 76  1  0  0  0  0
 37 82  2  0  0  0  0
 38 64  1  0  0  0  0
 38 73  1  0  0  0  0
 38 83  2  0  0  0  0
 39 65  1  0  0  0  0
 39 72  1  0  0  0  0
 39 84  2  0  0  0  0
 40 66  1  0  0  0  0
 40 77  1  0  0  0  0
 40 85  2  0  0  0  0
 41 44  1  0  0  0  0
 42 54  1  0  0  0  0
 43 72  1  0  0  0  0
 44 48  1  0  0  0  0
 45 49  1  0  0  0  0
 45 50  1  0  0  0  0
 46 47  1  0  0  0  0
 46 52  1  0  0  0  0
 47 52  1  0  0  0  0
 48 53  1  0  0  0  0
 49 55  1  0  0  0  0
 50 73  1  0  0  0  0
 51 55  1  0  0  0  0
 51 73  1  0  0  0  0
 53 76  1  0  0  0  0
 54 72  1  0  0  0  0
 55 71  1  0  0  0  0
 56 66  1  0  0  0  0
 57 67  1  0  0  0  0
 58 67  1  0  0  0  0
 59 68  1  0  0  0  0
 60 68  1  0  0  0  0
 61 68  1  0  0  0  0
 62 79  1  0  0  0  0
 63 67  1  0  0  0  0
 63 87  1  0  0  0  0
 64 78  1  0  0  0  0
 65 68  1  0  0  0  0
 65 77  1  0  0  0  0
 66 79  1  0  0  0  0
 69 71  1  0  0  0  0
M  CHG  2  78   1  79   1
M  ISO  4  38 100  63 101  64 100  87 101
M  END
> <Batch ID>
0147

> <Smiles>
CNC(C)C(=O)NC(C(=O)N1Cc2cc([101O:1][101CH2:1]C(C)(C)C(=O)CNc3ccc([100C:0](=N)[100C:0](=O)N4CCCC(n5nc(-c6ccc(Oc7ccc(F)cc7F)cc6)c(C(N)=O)c5N)C4)c(C4CC4)c3)ccc2CC1C(=O)NC1CCCc2ccccc21)C(C)(C)C

> <Shape>
0.284

> <Color>
0.059

> <Negative vol penalty>
0.000

$$$$

  -OEChem-04052303133D

 87 95  0     1  0  0  0  0  0999 V2000
  -24.8653  -16.9453   21.6749 C   0  0  0  0  0  0  0  0  0  0  0  0
  -25.6161  -17.8198   22.4523 C   0  0  0  0  0  0  0  0  0  0  0  0
  -26.5608  -12.5806   21.6347 C   0  0  0  0  0  0  0  0  0  0  0  0
  -26.0693  -13.6594   19.5295 C   0  0  0  0  0  0  0  0  0  0  0  0
  -24.2073  -17.4165   20.5408 C   0  0  0  0  0  0  0  0  0  0  0  0
  -25.6994  -19.1681   22.1026 C   0  0  0  0  0  0  0  0  0  0  0  0
  -28.9183  -25.3972   23.6015 C   0  0  0  0  0  0  0  0  0  0  0  0
  -25.2898  -12.0062   21.6372 C   0  0  0  0  0  0  0  0  0  0  0  0
  -24.7982  -13.0849   19.5319 C   0  0  0  0  0  0  0  0  0  0  0  0
  -29.7075  -26.4228   23.0827 C   0  0  0  0  0  0  0  0  0  0  0  0
  -23.7315   -9.3993   20.1510 C   0  0  0  0  0  0  0  0  0  0  0  0
  -23.6314   -8.0482   20.4826 C   0  0  0  0  0  0  0  0  0  0  0  0
  -27.7720  -27.3440   21.9760 C   0  0  0  0  0  0  0  0  0  0  0  0
  -30.2953  -22.5587   19.2962 C   0  0  0  0  0  0  0  0  0  0  0  0
  -29.2130  -21.1252   17.6805 C   0  0  0  0  0  0  0  0  0  0  0  0
  -29.7879  -23.3956   17.0873 C   0  0  0  0  0  0  0  0  0  0  0  0
  -22.2050   -8.6119   22.3493 C   0  0  0  0  0  0  0  0  0  0  0  0
  -26.9506  -13.4073   20.5809 C   0  0  0  0  0  0  0  0  0  0  0  0
  -29.4400  -13.4606   20.0260 C   0  0  0  0  0  0  0  0  0  0  0  0
  -24.2933  -18.7687   20.1708 C   0  0  0  0  0  0  0  0  0  0  0  0
  -27.5500  -25.3310   23.3021 C   0  0  0  0  0  0  0  0  0  0  0  0
  -25.0230  -19.6676   20.9751 C   0  0  0  0  0  0  0  0  0  0  0  0
  -26.9672  -26.3180   22.4944 C   0  0  0  0  0  0  0  0  0  0  0  0
  -29.7428  -21.3241   18.9554 C   0  0  0  0  0  0  0  0  0  0  0  0
  -30.3178  -23.5945   18.3621 C   0  0  0  0  0  0  0  0  0  0  0  0
  -24.4085  -12.2583   20.5858 C   0  0  0  0  0  0  0  0  0  0  0  0
  -29.1350  -27.3948   22.2675 C   0  0  0  0  0  0  0  0  0  0  0  0
  -23.0684  -10.3568   20.9187 C   0  0  0  0  0  0  0  0  0  0  0  0
  -22.8681   -7.6545   21.5817 C   0  0  0  0  0  0  0  0  0  0  0  0
  -29.2355  -22.1610   16.7464 C   0  0  0  0  0  0  0  0  0  0  0  0
  -22.3052   -9.9631   22.0178 C   0  0  0  0  0  0  0  0  0  0  0  0
  -28.2633  -14.0014   20.5780 C   0  0  0  0  0  0  0  0  0  0  0  0
  -30.4048  -14.4037   20.2830 C   0  0  0  0  0  0  0  0  0  0  0  0
  -29.6427  -12.2170   19.3419 C   0  0  0  0  0  0  0  0  0  0  0  0
  -25.6772  -23.2347   21.8182 C   0  0  0  0  0  0  0  0  0  0  0  0
  -31.4300  -26.6207   20.2182 C   0  0  0  0  0  0  0  0  0  0  0  0
  -23.3175  -25.2220   22.8206 C   0  0  0  0  0  0  0  0  0  0  0  0
  -22.3942  -28.3536   23.8140 C   0  0  0  0  0  0  0  0  0  0  0  0
  -30.2019  -20.3030   21.2121 C   0  0  0  0  0  0  0  0  0  0  0  0
  -23.5547  -19.2266   18.9378 C   0  0  0  0  0  0  0  0  0  0  0  0
  -26.7071  -24.2334   23.8913 C   0  0  0  0  0  0  0  0  0  0  0  0
  -25.4988  -26.3036   22.1595 C   0  0  0  0  0  0  0  0  0  0  0  0
  -24.0606  -20.5626   18.4036 C   0  0  0  0  0  0  0  0  0  0  0  0
  -31.5373  -17.8451   23.4149 C   0  0  0  0  0  0  0  0  0  0  0  0
  -24.1409  -21.5776   19.5340 C   0  0  0  0  0  0  0  0  0  0  0  0
  -30.9612  -16.5306   22.8835 C   0  0  0  0  0  0  0  0  0  0  0  0
  -30.5354  -18.9922   23.2967 C   0  0  0  0  0  0  0  0  0  0  0  0
  -29.3921  -17.8710   21.4247 C   0  0  0  0  0  0  0  0  0  0  0  0
  -25.1530  -21.1321   20.5971 C   0  0  1  0  0  0  0  0  0  0  0  0
  -25.4274  -23.9737   23.1024 C   0  0  1  0  0  0  0  0  0  0  0  0
  -30.3878  -16.7001   21.4630 C   0  0  2  0  0  0  0  0  0  0  0  0
  -32.8477  -24.5566   20.0656 C   0  0  0  0  0  0  0  0  0  0  0  0
  -20.3896  -29.6815   24.5321 C   0  0  0  0  0  0  0  0  0  0  0  0
  -22.3727  -25.3584   19.9225 C   0  0  0  0  0  0  0  0  0  0  0  0
  -21.0229  -27.3774   20.5306 C   0  0  0  0  0  0  0  0  0  0  0  0
  -20.5364  -25.1823   21.6112 C   0  0  0  0  0  0  0  0  0  0  0  0
  -31.9101  -29.6076   21.4084 C   0  0  0  0  0  0  0  0  0  0  0  0
  -31.4312  -28.5400   23.6186 C   0  0  0  0  0  0  0  0  0  0  0  0
  -23.5817  -28.9326   26.4623 C   0  0  0  0  0  0  0  0  0  0  0  0
  -31.9511  -27.1085   21.5680 C   0  0  0  0  0  0  0  0  0  0  0  0
  -31.4346  -25.1123   19.9975 C   0  0  2  0  0  0  0  0  0  0  0  0
  -22.6332  -26.4415   22.2517 C   0  0  1  0  0  0  0  0  0  0  0  0
  -21.5652  -28.8333   24.9917 C   0  0  2  0  0  0  0  0  0  0  0  0
  -21.6694  -26.0894   21.0835 C   0  0  0  0  0  0  0  0  0  0  0  0
  -31.2883  -28.3906   22.1019 C   0  0  0  0  0  0  0  0  0  1  0  0
  -28.4603  -15.1954   21.1433 N   0  0  0  0  0  0  0  0  0  0  0  0
  -29.7721  -15.4127   20.9478 N   0  0  0  0  0  0  0  0  0  0  0  0
  -24.7179  -25.2065   22.7545 N   0  0  0  0  0  0  0  0  0  0  0  0
  -30.0383  -19.0953   21.9230 N   0  0  0  0  0  0  0  0  0  0  0  0
  -31.7242  -14.4601   20.0030 N   0  0  0  0  0  0  0  0  0  0  0  0
  -28.5436  -11.3658   19.1632 N   0  0  0  0  0  0  0  0  0  0  0  0
  -29.7192  -20.2720   19.9042 N   0  0  0  0  0  0  0  0  0  0  0  0
  -30.8659  -24.8198   18.7000 N   0  0  0  0  0  0  0  0  0  0  0  0
  -25.0483  -22.0065   21.7444 N   0  0  0  0  0  0  0  0  0  0  0  0
  -21.9890  -27.1102   23.3769 N   0  0  0  0  0  0  0  0  0  0  0  0
  -22.4017  -29.6507   25.9154 N   0  3  0  0  0  0  0  0  0  0  0  0
  -30.7686  -11.8634   18.9166 O   0  0  0  0  0  0  0  0  0  0  0  0
  -26.3867  -23.7419   20.9574 O   0  0  0  0  0  0  0  0  0  0  0  0
  -31.0695  -27.4059   19.3410 O   0  0  0  0  0  0  0  0  0  0  0  0
  -22.6349  -24.3197   23.3121 O   0  0  0  0  0  0  0  0  0  0  0  0
  -23.3072  -29.0174   23.3278 O   0  0  0  0  0  0  0  0  0  0  0  0
  -30.7557  -21.2831   21.7167 O   0  0  0  0  0  0  0  0  0  0  0  0
  -23.1682  -11.6978   20.5878 O   0  0  0  0  0  0  0  0  0  0  0  0
  -29.9031  -28.3965   21.7592 O   0  0  0  0  0  0  0  0  0  1  0  0
  -22.7708   -6.3568   21.8990 F   0  0  0  0  0  0  0  0  0  0  0  0
  -28.7262  -21.9704   15.5222 F   0  0  0  0  0  0  0  0  0  0  0  0
  -21.6649  -10.8783   22.7583 F   0  0  0  0  0  0  0  0  0  0  0  0
  1  2  1  0  0  0  0
  1  5  2  0  0  0  0
  2  6  2  0  0  0  0
  3  8  2  0  0  0  0
  3 18  1  0  0  0  0
  4  9  1  0  0  0  0
  4 18  2  0  0  0  0
  5 20  1  0  0  0  0
  6 22  1  0  0  0  0
  7 10  2  0  0  0  0
  7 21  1  0  0  0  0
  8 26  1  0  0  0  0
  9 26  2  0  0  0  0
 10 27  1  0  0  0  0
 11 12  2  0  0  0  0
 11 28  1  0  0  0  0
 12 29  1  0  0  0  0
 13 23  1  0  0  0  0
 13 27  2  0  0  0  0
 14 24  1  0  0  0  0
 14 25  2  0  0  0  0
 15 24  2  0  0  0  0
 15 30  1  0  0  0  0
 16 25  1  0  0  0  0
 16 30  2  0  0  0  0
 17 29  2  0  0  0  0
 17 31  1  0  0  0  0
 18 32  1  0  0  0  0
 19 32  1  0  0  0  0
 19 33  2  0  0  0  0
 19 34  1  0  0  0  0
 20 22  2  0  0  0  0
 20 40  1  0  0  0  0
 21 23  2  0  0  0  0
 21 41  1  0  0  0  0
 22 49  1  0  0  0  0
 23 42  1  0  0  0  0
 24 72  1  0  0  0  0
 25 73  1  0  0  0  0
 26 83  1  0  0  0  0
 27 84  1  0  0  0  0
 28 31  2  0  0  0  0
 28 83  1  0  0  0  0
 29 85  1  0  0  0  0
 30 86  1  0  0  0  0
 31 87  1  0  0  0  0
 32 66  2  0  0  0  0
 33 67  1  0  0  0  0
 33 70  1  0  0  0  0
 34 71  1  0  0  0  0
 34 77  2  0  0  0  0
 35 50  1  0  0  0  0
 35 74  1  0  0  0  0
 35 78  2  0  0  0  0
 36 60  1  0  0  0  0
 36 61  1  0  0  0  0
 36 79  2  0  0  0  0
 37 62  1  0  0  0  0
 37 68  1  0  0  0  0
 37 80  2  0  0  0  0
 38 63  1  0  0  0  0
 38 75  1  0  0  0  0
 38 81  2  0  0  0  0
 39 69  1  0  0  0  0
 39 72  1  0  0  0  0
 39 82  2  0  0  0  0
 40 43  1  0  0  0  0
 41 50  1  0  0  0  0
 42 68  1  0  0  0  0
 43 45  1  0  0  0  0
 44 46  1  0  0  0  0
 44 47  1  0  0  0  0
 45 49  1  0  0  0  0
 46 51  1  0  0  0  0
 47 69  1  0  0  0  0
 48 51  1  0  0  0  0
 48 69  1  0  0  0  0
 49 74  1  0  0  0  0
 50 68  1  0  0  0  0
 51 67  1  0  0  0  0
 52 61  1  0  0  0  0
 53 63  1  0  0  0  0
 54 64  1  0  0  0  0
 55 64  1  0  0  0  0
 56 64  1  0  0  0  0
 57 65  1  0  0  0  0
 58 65  1  0  0  0  0
 59 76  1  0  0  0  0
 60 65  1  0  0  0  0
 61 73  1  0  0  0  0
 62 64  1  0  0  0  0
 62 75  1  0  0  0  0
 63 76  1  0  0  0  0
 65 84  1  0  0  0  0
 66 67  1  0  0  0  0
M  CHG  1  76   1
M  ISO  4  39 100  65 101  72 100  84 101
M  END
> <Batch ID>
0147

> <Smiles>
CNC(C)C(=O)NC(C(=O)N1Cc2cc([101O:1][101C:1](C)(C)CC(=O)C(C)Nc3cc(F)cc([100NH:0][100C:0](=O)N4CCCC(n5nc(-c6ccc(Oc7ccc(F)cc7F)cc6)c(C(N)=O)c5N)C4)c3)ccc2CC1C(=O)NC1CCCc2ccccc21)C(C)(C)C

> <Shape>
0.230

> <Color>
0.068

> <Negative vol penalty>
0.000

$$$$

  -OEChem-04052303133D

 86 95  0     1  0  0  0  0  0999 V2000
  -16.6709  -27.4109   22.1975 C   0  0  0  0  0  0  0  0  0  0  0  0
  -17.8002  -26.8044   21.6569 C   0  0  0  0  0  0  0  0  0  0  0  0
  -28.1734  -18.9365   15.2118 C   0  0  0  0  0  0  0  0  0  0  0  0
  -21.7629  -14.0466   22.3619 C   0  0  0  0  0  0  0  0  0  0  0  0
  -21.6781  -14.6395   20.0214 C   0  0  0  0  0  0  0  0  0  0  0  0
  -28.9965  -20.0506   15.3758 C   0  0  0  0  0  0  0  0  0  0  0  0
  -16.6428  -28.7929   22.3792 C   0  0  0  0  0  0  0  0  0  0  0  0
  -18.9017  -27.5798   21.2967 C   0  0  0  0  0  0  0  0  0  0  0  0
  -24.8046  -25.9947   21.6833 C   0  0  0  0  0  0  0  0  0  0  0  0
  -28.0452  -18.0062   16.2432 C   0  0  0  0  0  0  0  0  0  0  0  0
  -20.4318  -14.4366   22.5090 C   0  0  0  0  0  0  0  0  0  0  0  0
  -20.3469  -15.0294   20.1684 C   0  0  0  0  0  0  0  0  0  0  0  0
  -25.7087  -25.5077   20.7404 C   0  0  0  0  0  0  0  0  0  0  0  0
  -17.3736  -13.1616   21.8345 C   0  0  0  0  0  0  0  0  0  0  0  0
  -16.5261  -12.3168   22.5511 C   0  0  0  0  0  0  0  0  0  0  0  0
  -29.5634  -19.3041   17.6025 C   0  0  0  0  0  0  0  0  0  0  0  0
  -26.5225  -27.7485   20.3723 C   0  0  0  0  0  0  0  0  0  0  0  0
  -16.0983  -14.0900   24.1354 C   0  0  0  0  0  0  0  0  0  0  0  0
  -22.3861  -14.1481   21.1181 C   0  0  0  0  0  0  0  0  0  0  0  0
  -29.6915  -20.2344   16.5711 C   0  0  0  0  0  0  0  0  0  0  0  0
  -24.2401  -12.4670   20.6242 C   0  0  0  0  0  0  0  0  0  0  0  0
  -17.7482  -29.5846   22.0300 C   0  0  0  0  0  0  0  0  0  0  0  0
  -24.7450  -27.3660   21.9704 C   0  0  0  0  0  0  0  0  0  0  0  0
  -18.8878  -28.9739   21.4726 C   0  0  0  0  0  0  0  0  0  0  0  0
  -25.6185  -28.2501   21.3212 C   0  0  0  0  0  0  0  0  0  0  0  0
  -28.7403  -18.1900   17.4386 C   0  0  0  0  0  0  0  0  0  0  0  0
  -19.7238  -14.9279   21.4123 C   0  0  0  0  0  0  0  0  0  0  0  0
  -26.5659  -26.3850   20.0826 C   0  0  0  0  0  0  0  0  0  0  0  0
  -17.5836  -14.4706   22.2683 C   0  0  0  0  0  0  0  0  0  0  0  0
  -15.8884  -12.7810   23.7016 C   0  0  0  0  0  0  0  0  0  0  0  0
  -16.9459  -14.9347   23.4188 C   0  0  0  0  0  0  0  0  0  0  0  0
  -23.7613  -13.7460   20.9657 C   0  0  0  0  0  0  0  0  0  0  0  0
  -25.6066  -12.6049   20.6087 C   0  0  0  0  0  0  0  0  0  0  0  0
  -30.5610  -21.4116   16.7455 C   0  0  0  0  0  0  0  0  0  0  0  0
  -23.5146  -11.2621   20.3457 C   0  0  0  0  0  0  0  0  0  0  0  0
  -22.5188  -29.6190   21.7031 C   0  0  0  0  0  0  0  0  0  0  0  0
  -24.7228  -31.4320   23.2451 C   0  0  0  0  0  0  0  0  0  0  0  0
  -28.0018  -31.9640   24.0275 C   0  0  0  0  0  0  0  0  0  0  0  0
  -29.2287  -17.2763   19.7349 C   0  0  0  0  0  0  0  0  0  0  0  0
  -17.6531  -31.0800   22.2010 C   0  0  0  0  0  0  0  0  0  0  0  0
  -23.7825  -27.8720   23.0096 C   0  0  0  0  0  0  0  0  0  0  0  0
  -25.6083  -29.7286   21.6082 C   0  0  0  0  0  0  0  0  0  0  0  0
  -19.0047  -31.7871   22.1414 C   0  0  0  0  0  0  0  0  0  0  0  0
  -29.1354  -15.1602   22.5967 C   0  0  0  0  0  0  0  0  0  0  0  0
  -19.8217  -31.2781   20.9581 C   0  0  0  0  0  0  0  0  0  0  0  0
  -27.7930  -14.4365   22.4689 C   0  0  0  0  0  0  0  0  0  0  0  0
  -29.8990  -24.6104   18.2906 C   0  0  0  0  0  0  0  0  0  0  0  0
  -29.0460  -16.6093   22.1217 C   0  0  0  0  0  0  0  0  0  0  0  0
  -30.8418  -23.7471   17.4589 C   0  0  0  0  0  0  0  0  0  0  0  0
  -27.1509  -16.0638   20.6451 C   0  0  0  0  0  0  0  0  0  0  0  0
  -28.6437  -22.6628   17.6516 C   0  0  0  0  0  0  0  0  0  0  0  0
  -20.1120  -29.7784   21.0925 C   0  0  1  0  0  0  0  0  0  0  0  0
  -23.4538  -29.3530   22.8489 C   0  0  1  0  0  0  0  0  0  0  0  0
  -27.2071  -14.5820   21.0508 C   0  0  2  0  0  0  0  0  0  0  0  0
  -28.4870  -24.1818   17.8483 C   0  0  2  0  0  0  0  0  0  0  0  0
  -28.0936  -24.8619   16.5271 C   0  0  0  0  0  0  0  0  0  0  0  0
  -29.4979  -33.5478   25.2727 C   0  0  0  0  0  0  0  0  0  0  0  0
  -24.4512  -33.4624   20.9839 C   0  0  0  0  0  0  0  0  0  0  0  0
  -26.5886  -34.5094   21.7608 C   0  0  0  0  0  0  0  0  0  0  0  0
  -24.6037  -34.4624   23.2711 C   0  0  0  0  0  0  0  0  0  0  0  0
  -28.9327  -29.8307   25.8554 C   0  0  0  0  0  0  0  0  0  0  0  0
  -27.4432  -24.5063   18.9178 C   0  0  0  0  0  0  0  0  0  1  0  0
  -25.8661  -32.3196   22.8163 C   0  0  1  0  0  0  0  0  0  0  0  0
  -28.6862  -32.2641   25.3489 C   0  0  2  0  0  0  0  0  0  0  0  0
  -25.3765  -33.6609   22.2010 C   0  0  0  0  0  0  0  0  0  0  0  0
  -24.7437  -14.6312   21.1538 N   0  0  0  0  0  0  0  0  0  0  0  0
  -25.8536  -13.9072   20.9297 N   0  0  0  0  0  0  0  0  0  0  0  0
  -30.0550  -22.5232   17.2477 N   0  0  0  0  0  0  0  0  0  0  0  0
  -24.6449  -30.1756   22.6277 N   0  0  0  0  0  0  0  0  0  0  0  0
  -28.4863  -16.6688   20.7696 N   0  0  0  0  0  0  0  0  0  0  0  0
  -26.6090  -11.7379   20.3520 N   0  0  0  0  0  0  0  0  0  0  0  0
  -22.1148  -11.2961   20.4059 N   0  0  0  0  0  0  0  0  0  0  0  0
  -28.6095  -17.2445   18.4858 N   0  0  0  0  0  0  0  0  0  0  0  0
  -21.1808  -29.5536   22.0421 N   0  0  0  0  0  0  0  0  0  0  0  0
  -26.7224  -32.4766   23.9870 N   0  0  0  0  0  0  0  0  0  0  0  0
  -31.8418  -21.3354   16.3960 N   0  3  0  0  0  0  0  0  0  0  0  0
  -29.6028  -31.1499   25.7222 N   0  3  0  0  0  0  0  0  0  0  0  0
  -24.0912  -10.1832   20.0684 O   0  0  0  0  0  0  0  0  0  0  0  0
  -22.9773  -29.8668   20.5941 O   0  0  0  0  0  0  0  0  0  0  0  0
  -23.9323  -31.8356   24.1017 O   0  0  0  0  0  0  0  0  0  0  0  0
  -28.5489  -31.3407   23.1205 O   0  0  0  0  0  0  0  0  0  0  0  0
  -30.3443  -17.7630   19.9361 O   0  0  0  0  0  0  0  0  0  0  0  0
  -18.4248  -15.3083   21.5553 O   0  0  0  0  0  0  0  0  0  0  0  0
  -27.4489  -25.9124   19.1613 O   0  0  0  0  0  0  0  0  0  1  0  0
  -15.0733  -11.9701   24.3888 F   0  0  0  0  0  0  0  0  0  0  0  0
  -17.1428  -16.1916   23.8398 F   0  0  0  0  0  0  0  0  0  0  0  0
  1  2  1  0  0  0  0
  1  7  2  0  0  0  0
  2  8  2  0  0  0  0
  3  6  2  0  0  0  0
  3 10  1  0  0  0  0
  4 11  2  0  0  0  0
  4 19  1  0  0  0  0
  5 12  1  0  0  0  0
  5 19  2  0  0  0  0
  6 20  1  0  0  0  0
  7 22  1  0  0  0  0
  8 24  1  0  0  0  0
  9 13  2  0  0  0  0
  9 23  1  0  0  0  0
 10 26  2  0  0  0  0
 11 27  1  0  0  0  0
 12 27  2  0  0  0  0
 13 28  1  0  0  0  0
 14 15  2  0  0  0  0
 14 29  1  0  0  0  0
 15 30  1  0  0  0  0
 16 20  2  0  0  0  0
 16 26  1  0  0  0  0
 17 25  1  0  0  0  0
 17 28  2  0  0  0  0
 18 30  2  0  0  0  0
 18 31  1  0  0  0  0
 19 32  1  0  0  0  0
 20 34  1  0  0  0  0
 21 32  1  0  0  0  0
 21 33  2  0  0  0  0
 21 35  1  0  0  0  0
 22 24  2  0  0  0  0
 22 40  1  0  0  0  0
 23 25  2  0  0  0  0
 23 41  1  0  0  0  0
 24 52  1  0  0  0  0
 25 42  1  0  0  0  0
 26 73  1  0  0  0  0
 27 83  1  0  0  0  0
 28 84  1  0  0  0  0
 29 31  2  0  0  0  0
 29 83  1  0  0  0  0
 30 85  1  0  0  0  0
 31 86  1  0  0  0  0
 32 66  2  0  0  0  0
 33 67  1  0  0  0  0
 33 71  1  0  0  0  0
 34 68  1  0  0  0  0
 34 76  2  0  0  0  0
 35 72  1  0  0  0  0
 35 78  2  0  0  0  0
 36 53  1  0  0  0  0
 36 74  1  0  0  0  0
 36 79  2  0  0  0  0
 37 63  1  0  0  0  0
 37 69  1  0  0  0  0
 37 80  2  0  0  0  0
 38 64  1  0  0  0  0
 38 75  1  0  0  0  0
 38 81  2  0  0  0  0
 39 70  1  0  0  0  0
 39 73  1  0  0  0  0
 39 82  2  0  0  0  0
 40 43  1  0  0  0  0
 41 53  1  0  0  0  0
 42 69  1  0  0  0  0
 43 45  1  0  0  0  0
 44 46  1  0  0  0  0
 44 48  1  0  0  0  0
 45 52  1  0  0  0  0
 46 54  1  0  0  0  0
 47 49  1  0  0  0  0
 47 55  1  0  0  0  0
 48 70  1  0  0  0  0
 49 68  1  0  0  0  0
 50 54  1  0  0  0  0
 50 70  1  0  0  0  0
 51 55  1  0  0  0  0
 51 68  1  0  0  0  0
 52 74  1  0  0  0  0
 53 69  1  0  0  0  0
 54 67  1  0  0  0  0
 55 56  1  0  0  0  0
 55 62  1  0  0  0  0
 57 64  1  0  0  0  0
 58 65  1  0  0  0  0
 59 65  1  0  0  0  0
 60 65  1  0  0  0  0
 61 77  1  0  0  0  0
 62 84  1  0  0  0  0
 63 65  1  0  0  0  0
 63 75  1  0  0  0  0
 64 77  1  0  0  0  0
 66 67  1  0  0  0  0
M  CHG  2  76   1  77   1
M  ISO  4  39 100  62 101  73 100  84 101
M  END
> <Batch ID>
0147

> <Smiles>
CNC(C)C(=O)NC(C(=O)N1Cc2cc([101O:1][101CH2:1]C3(C)CCN(C(=N)c4cccc([100NH:0][100C:0](=O)N5CCCC(n6nc(-c7ccc(Oc8ccc(F)cc8F)cc7)c(C(N)=O)c6N)C5)c4)C3)ccc2CC1C(=O)NC1CCCc2ccccc21)C(C)(C)C

> <Shape>
0.257

> <Color>
0.077

> <Negative vol penalty>
0.000

$$$$

  -OEChem-04052303133D

 85 94  0     1  0  0  0  0  0999 V2000
  -17.1570  -30.1433   23.2823 C   0  0  0  0  0  0  0  0  0  0  0  0
  -18.4870  -30.0002   22.9002 C   0  0  0  0  0  0  0  0  0  0  0  0
  -32.5455  -18.3794   22.0509 C   0  0  0  0  0  0  0  0  0  0  0  0
  -23.0431   -9.9455   21.1910 C   0  0  0  0  0  0  0  0  0  0  0  0
  -23.7188  -10.7880   23.3521 C   0  0  0  0  0  0  0  0  0  0  0  0
  -31.7281  -19.4535   22.4030 C   0  0  0  0  0  0  0  0  0  0  0  0
  -16.5305  -29.1346   24.0130 C   0  0  0  0  0  0  0  0  0  0  0  0
  -19.1917  -28.8488   23.2495 C   0  0  0  0  0  0  0  0  0  0  0  0
  -24.3591  -24.5166   20.8315 C   0  0  0  0  0  0  0  0  0  0  0  0
  -31.9836  -17.2242   21.5073 C   0  0  0  0  0  0  0  0  0  0  0  0
  -22.2812   -8.9573   21.8144 C   0  0  0  0  0  0  0  0  0  0  0  0
  -22.9569   -9.7998   23.9756 C   0  0  0  0  0  0  0  0  0  0  0  0
  -25.5674  -23.9510   21.2362 C   0  0  0  0  0  0  0  0  0  0  0  0
  -19.7026   -9.2566   24.7067 C   0  0  0  0  0  0  0  0  0  0  0  0
  -18.9031   -9.6397   25.7836 C   0  0  0  0  0  0  0  0  0  0  0  0
  -29.7869  -18.2172   21.6679 C   0  0  0  0  0  0  0  0  0  0  0  0
  -24.3589  -22.2395   22.4318 C   0  0  0  0  0  0  0  0  0  0  0  0
  -20.1011   -8.1083   27.2178 C   0  0  0  0  0  0  0  0  0  0  0  0
  -23.7619  -10.8608   21.9599 C   0  0  0  0  0  0  0  0  0  0  0  0
  -30.3489  -19.3724   22.2115 C   0  0  0  0  0  0  0  0  0  0  0  0
  -24.1284  -13.1724   20.9451 C   0  0  0  0  0  0  0  0  0  0  0  0
  -17.2250  -27.9659   24.3632 C   0  0  0  0  0  0  0  0  0  0  0  0
  -23.1395  -23.9533   21.2336 C   0  0  0  0  0  0  0  0  0  0  0  0
  -18.5743  -27.8241   23.9867 C   0  0  0  0  0  0  0  0  0  0  0  0
  -23.1365  -22.7983   22.0287 C   0  0  0  0  0  0  0  0  0  0  0  0
  -30.6043  -17.1431   21.3158 C   0  0  0  0  0  0  0  0  0  0  0  0
  -22.2381   -8.8845   23.2067 C   0  0  0  0  0  0  0  0  0  0  0  0
  -25.5675  -22.8140   22.0389 C   0  0  0  0  0  0  0  0  0  0  0  0
  -20.7013   -8.2992   24.8853 C   0  0  0  0  0  0  0  0  0  0  0  0
  -19.1024   -9.0656   27.0391 C   0  0  0  0  0  0  0  0  0  0  0  0
  -20.9005   -7.7252   26.1409 C   0  0  0  0  0  0  0  0  0  0  0  0
  -24.5495  -11.8815   21.3164 C   0  0  0  0  0  0  0  0  0  0  0  0
  -25.2391  -13.7453   20.3754 C   0  0  0  0  0  0  0  0  0  0  0  0
  -29.4845  -20.5069   22.5827 C   0  0  0  0  0  0  0  0  0  0  0  0
  -22.8477  -13.7979   21.1012 C   0  0  0  0  0  0  0  0  0  0  0  0
  -20.6658  -24.9566   22.9593 C   0  0  0  0  0  0  0  0  0  0  0  0
  -19.3703  -22.1318   22.0294 C   0  0  0  0  0  0  0  0  0  0  0  0
  -19.8665  -18.9350   20.9427 C   0  0  0  0  0  0  0  0  0  0  0  0
  -30.7036  -14.8141   20.3608 C   0  0  0  0  0  0  0  0  0  0  0  0
  -16.5195  -26.9238   25.1944 C   0  0  0  0  0  0  0  0  0  0  0  0
  -21.8448  -24.5598   20.7664 C   0  0  0  0  0  0  0  0  0  0  0  0
  -21.8544  -22.1432   22.4707 C   0  0  0  0  0  0  0  0  0  0  0  0
  -17.2256  -25.5704   25.2020 C   0  0  0  0  0  0  0  0  0  0  0  0
  -29.6568  -11.6994   18.9896 C   0  0  0  0  0  0  0  0  0  0  0  0
  -28.2896  -19.9327   25.9524 C   0  0  0  0  0  0  0  0  0  0  0  0
  -18.7210  -25.7498   25.4433 C   0  0  0  0  0  0  0  0  0  0  0  0
  -28.2001  -11.5753   19.4422 C   0  0  0  0  0  0  0  0  0  0  0  0
  -28.1592  -21.4457   25.8117 C   0  0  0  0  0  0  0  0  0  0  0  0
  -29.2458  -19.5460   24.8312 C   0  0  0  0  0  0  0  0  0  0  0  0
  -30.5293  -12.3536   20.0594 C   0  0  0  0  0  0  0  0  0  0  0  0
  -28.5791  -13.5189   21.0125 C   0  0  0  0  0  0  0  0  0  0  0  0
  -19.3647  -26.5789   24.3254 C   0  0  1  0  0  0  0  0  0  0  0  0
  -20.6609  -24.2024   21.6597 C   0  0  1  0  0  0  0  0  0  0  0  0
  -27.6486  -12.9248   19.9426 C   0  0  2  0  0  0  0  0  0  0  0  0
  -28.1459  -21.6813   24.2984 C   0  0  2  0  0  0  0  0  0  0  0  0
  -18.6162  -16.8549   20.3046 C   0  0  0  0  0  0  0  0  0  0  0  0
  -18.8502  -21.5429   24.9777 C   0  0  0  0  0  0  0  0  0  0  0  0
  -18.5022  -19.1406   24.3647 C   0  0  0  0  0  0  0  0  0  0  0  0
  -16.9878  -20.8939   23.4399 C   0  0  0  0  0  0  0  0  0  0  0  0
  -20.9459  -18.9918   18.1876 C   0  0  0  0  0  0  0  0  0  0  0  0
  -26.7541  -21.5829   23.6918 C   0  0  0  0  0  0  0  0  0  1  0  0
  -19.3601  -20.7269   22.5819 C   0  0  1  0  0  0  0  0  0  0  0  0
  -19.2396  -18.1490   19.8053 C   0  0  2  0  0  0  0  0  0  0  0  0
  -18.4494  -20.5893   23.8345 C   0  0  0  0  0  0  0  0  0  0  0  0
  -25.8280  -11.6477   21.0084 N   0  0  0  0  0  0  0  0  0  0  0  0
  -26.2197  -12.7994   20.4374 N   0  0  0  0  0  0  0  0  0  0  0  0
  -28.9826  -20.5685   23.8039 N   0  0  0  0  0  0  0  0  0  0  0  0
  -20.6144  -22.7773   21.9932 N   0  0  0  0  0  0  0  0  0  0  0  0
  -29.9470  -13.6293   20.4820 N   0  0  0  0  0  0  0  0  0  0  0  0
  -25.4628  -14.9608   19.8323 N   0  0  0  0  0  0  0  0  0  0  0  0
  -21.8168  -13.0672   21.7075 N   0  0  0  0  0  0  0  0  0  0  0  0
  -30.0343  -15.9693   20.7636 N   0  0  0  0  0  0  0  0  0  0  0  0
  -19.5619  -25.7670   23.1436 N   0  0  0  0  0  0  0  0  0  0  0  0
  -18.9872  -19.8550   21.4732 N   0  0  0  0  0  0  0  0  0  0  0  0
  -29.2245  -21.4517   21.6838 N   0  3  0  0  0  0  0  0  0  0  0  0
  -20.2679  -17.8107   18.7810 N   0  3  0  0  0  0  0  0  0  0  0  0
  -22.6195  -14.9641   20.6996 O   0  0  0  0  0  0  0  0  0  0  0  0
  -21.6012  -24.8127   23.7378 O   0  0  0  0  0  0  0  0  0  0  0  0
  -18.3146  -22.6352   21.6375 O   0  0  0  0  0  0  0  0  0  0  0  0
  -21.0196  -18.7486   21.3250 O   0  0  0  0  0  0  0  0  0  0  0  0
  -31.8503  -14.8081   19.9059 O   0  0  0  0  0  0  0  0  0  0  0  0
  -21.4947   -7.9205   23.8154 O   0  0  0  0  0  0  0  0  0  0  0  0
  -26.7455  -22.2603   22.4359 O   0  0  0  0  0  0  0  0  0  1  0  0
  -18.3356   -9.4348   28.0735 F   0  0  0  0  0  0  0  0  0  0  0  0
  -21.8591   -6.8058   26.3189 F   0  0  0  0  0  0  0  0  0  0  0  0
  1  2  1  0  0  0  0
  1  7  2  0  0  0  0
  2  8  2  0  0  0  0
  3  6  2  0  0  0  0
  3 10  1  0  0  0  0
  4 11  2  0  0  0  0
  4 19  1  0  0  0  0
  5 12  1  0  0  0  0
  5 19  2  0  0  0  0
  6 20  1  0  0  0  0
  7 22  1  0  0  0  0
  8 24  1  0  0  0  0
  9 13  2  0  0  0  0
  9 23  1  0  0  0  0
 10 26  2  0  0  0  0
 11 27  1  0  0  0  0
 12 27  2  0  0  0  0
 13 28  1  0  0  0  0
 14 15  2  0  0  0  0
 14 29  1  0  0  0  0
 15 30  1  0  0  0  0
 16 20  2  0  0  0  0
 16 26  1  0  0  0  0
 17 25  1  0  0  0  0
 17 28  2  0  0  0  0
 18 30  2  0  0  0  0
 18 31  1  0  0  0  0
 19 32  1  0  0  0  0
 20 34  1  0  0  0  0
 21 32  1  0  0  0  0
 21 33  2  0  0  0  0
 21 35  1  0  0  0  0
 22 24  2  0  0  0  0
 22 40  1  0  0  0  0
 23 25  2  0  0  0  0
 23 41  1  0  0  0  0
 24 52  1  0  0  0  0
 25 42  1  0  0  0  0
 26 72  1  0  0  0  0
 27 82  1  0  0  0  0
 28 83  1  0  0  0  0
 29 31  2  0  0  0  0
 29 82  1  0  0  0  0
 30 84  1  0  0  0  0
 31 85  1  0  0  0  0
 32 65  2  0  0  0  0
 33 66  1  0  0  0  0
 33 70  1  0  0  0  0
 34 67  1  0  0  0  0
 34 75  2  0  0  0  0
 35 71  1  0  0  0  0
 35 77  2  0  0  0  0
 36 53  1  0  0  0  0
 36 73  1  0  0  0  0
 36 78  2  0  0  0  0
 37 62  1  0  0  0  0
 37 68  1  0  0  0  0
 37 79  2  0  0  0  0
 38 63  1  0  0  0  0
 38 74  1  0  0  0  0
 38 80  2  0  0  0  0
 39 69  1  0  0  0  0
 39 72  1  0  0  0  0
 39 81  2  0  0  0  0
 40 43  1  0  0  0  0
 41 53  1  0  0  0  0
 42 68  1  0  0  0  0
 43 46  1  0  0  0  0
 44 47  1  0  0  0  0
 44 50  1  0  0  0  0
 45 48  1  0  0  0  0
 45 49  1  0  0  0  0
 46 52  1  0  0  0  0
 47 54  1  0  0  0  0
 48 55  1  0  0  0  0
 49 67  1  0  0  0  0
 50 69  1  0  0  0  0
 51 54  1  0  0  0  0
 51 69  1  0  0  0  0
 52 73  1  0  0  0  0
 53 68  1  0  0  0  0
 54 66  1  0  0  0  0
 55 61  1  0  0  0  0
 55 67  1  0  0  0  0
 56 63  1  0  0  0  0
 57 64  1  0  0  0  0
 58 64  1  0  0  0  0
 59 64  1  0  0  0  0
 60 76  1  0  0  0  0
 61 83  1  0  0  0  0
 62 64  1  0  0  0  0
 62 74  1  0  0  0  0
 63 76  1  0  0  0  0
 65 66  1  0  0  0  0
M  CHG  2  75   1  76   1
M  ISO  4  39 100  61 101  72 100  83 101
M  END
> <Batch ID>
0147

> <Smiles>
CNC(C)C(=O)NC(C(=O)N1Cc2cc([101O:1][101CH2:1]C3CCCN3C(=N)c3cccc([100NH:0][100C:0](=O)N4CCCC(n5nc(-c6ccc(Oc7ccc(F)cc7F)cc6)c(C(N)=O)c5N)C4)c3)ccc2CC1C(=O)NC1CCCc2ccccc21)C(C)(C)C

> <Shape>
0.181

> <Color>
0.151

> <Negative vol penalty>
0.000

$$$$

  -OEChem-04052303133D

 86 95  0     1  0  0  0  0  0999 V2000
  -17.8192  -35.2602   20.5133 C   0  0  0  0  0  0  0  0  0  0  0  0
  -17.8841  -33.8769   20.3796 C   0  0  0  0  0  0  0  0  0  0  0  0
  -22.7977  -10.0850   20.2075 C   0  0  0  0  0  0  0  0  0  0  0  0
  -24.5527   -9.1673   21.5912 C   0  0  0  0  0  0  0  0  0  0  0  0
  -18.9410  -35.9718   20.9366 C   0  0  0  0  0  0  0  0  0  0  0  0
  -19.0712  -33.2046   20.6681 C   0  0  0  0  0  0  0  0  0  0  0  0
  -19.6377  -27.6293   23.1380 C   0  0  0  0  0  0  0  0  0  0  0  0
  -21.8410   -9.4527   21.0016 C   0  0  0  0  0  0  0  0  0  0  0  0
  -23.5961   -8.5351   22.3854 C   0  0  0  0  0  0  0  0  0  0  0  0
  -19.8702  -26.3741   22.5772 C   0  0  0  0  0  0  0  0  0  0  0  0
  -21.6597   -5.7682   22.2257 C   0  0  0  0  0  0  0  0  0  0  0  0
  -21.8867   -4.4379   22.5784 C   0  0  0  0  0  0  0  0  0  0  0  0
  -27.4557  -19.2478   19.9728 C   0  0  0  0  0  0  0  0  0  0  0  0
  -22.2274  -26.6152   23.0297 C   0  0  0  0  0  0  0  0  0  0  0  0
  -21.8601   -5.0527   24.9147 C   0  0  0  0  0  0  0  0  0  0  0  0
  -24.1536   -9.9422   20.5023 C   0  0  0  0  0  0  0  0  0  0  0  0
  -26.6442  -20.3739   19.6513 C   0  0  0  0  0  0  0  0  0  0  0  0
  -25.3603  -10.4088   18.3037 C   0  0  0  0  0  0  0  0  0  0  0  0
  -20.1396  -35.3068   21.2397 C   0  0  0  0  0  0  0  0  0  0  0  0
  -20.7016  -28.3927   23.6398 C   0  0  0  0  0  0  0  0  0  0  0  0
  -20.2104  -33.9082   21.0946 C   0  0  0  0  0  0  0  0  0  0  0  0
  -22.0055  -27.8786   23.5987 C   0  0  0  0  0  0  0  0  0  0  0  0
  -22.2402   -8.6778   22.0906 C   0  0  0  0  0  0  0  0  0  0  0  0
  -21.1655  -25.8681   22.5204 C   0  0  0  0  0  0  0  0  0  0  0  0
  -21.5330   -6.7408   23.2175 C   0  0  0  0  0  0  0  0  0  0  0  0
  -21.9869   -4.0801   23.9228 C   0  0  0  0  0  0  0  0  0  0  0  0
  -21.6332   -6.3831   24.5620 C   0  0  0  0  0  0  0  0  0  0  0  0
  -25.1423  -10.5946   19.6820 C   0  0  0  0  0  0  0  0  0  0  0  0
  -25.3542  -20.0086   19.3349 C   0  0  0  0  0  0  0  0  0  0  0  0
  -26.4023  -11.2520   18.0040 C   0  0  0  0  0  0  0  0  0  0  0  0
  -26.7549  -18.0646   19.8901 C   0  0  0  0  0  0  0  0  0  0  0  0
  -27.0955  -21.7419   19.6536 C   0  0  0  0  0  0  0  0  0  0  0  0
  -24.6815   -9.5507   17.3770 C   0  0  0  0  0  0  0  0  0  0  0  0
  -24.2093  -20.8545   18.9482 C   0  0  0  0  0  0  0  0  0  0  0  0
  -21.9640  -31.2217   22.9278 C   0  0  0  0  0  0  0  0  0  0  0  0
  -23.7594  -30.6487   25.5680 C   0  0  0  0  0  0  0  0  0  0  0  0
  -25.0948  -28.3649   27.7239 C   0  0  0  0  0  0  0  0  0  0  0  0
  -28.4291  -16.2857   20.5059 C   0  0  0  0  0  0  0  0  0  0  0  0
  -21.3397  -36.1238   21.6483 C   0  0  0  0  0  0  0  0  0  0  0  0
  -20.4308  -29.7333   24.2658 C   0  0  0  0  0  0  0  0  0  0  0  0
  -23.1795  -28.6498   24.1420 C   0  0  0  0  0  0  0  0  0  0  0  0
  -22.4485  -35.2966   22.2938 C   0  0  0  0  0  0  0  0  0  0  0  0
  -30.2647  -13.2807   19.9790 C   0  0  0  0  0  0  0  0  0  0  0  0
  -22.7168  -34.0353   21.4790 C   0  0  0  0  0  0  0  0  0  0  0  0
  -29.1795  -12.2351   19.7116 C   0  0  0  0  0  0  0  0  0  0  0  0
  -29.8252  -14.2980   21.0304 C   0  0  0  0  0  0  0  0  0  0  0  0
  -22.7117  -22.7577   19.7786 C   0  0  0  0  0  0  0  0  0  0  0  0
  -24.1631  -22.1339   21.2178 C   0  0  0  0  0  0  0  0  0  0  0  0
  -27.4527  -13.9061   20.4945 C   0  0  0  0  0  0  0  0  0  0  0  0
  -21.4728  -33.1404   21.4218 C   0  0  1  0  0  0  0  0  0  0  0  0
  -21.6545  -30.6442   24.2800 C   0  0  1  0  0  0  0  0  0  0  0  0
  -22.7807  -22.8088   21.3169 C   0  0  0  0  0  0  0  0  0  0  0  0
  -27.8243  -12.8977   19.3952 C   0  0  2  0  0  0  0  0  0  0  0  0
  -28.1945  -22.1224   20.6129 C   0  0  0  0  0  0  0  0  0  0  0  0
  -26.5485  -28.1956   29.7623 C   0  0  0  0  0  0  0  0  0  0  0  0
  -26.2271  -31.1590   23.8475 C   0  0  0  0  0  0  0  0  0  0  0  0
  -27.6085  -30.0692   25.6286 C   0  0  0  0  0  0  0  0  0  0  0  0
  -26.3316  -32.1499   26.1413 C   0  0  0  0  0  0  0  0  0  0  0  0
  -22.9244  -27.1287   29.3114 C   0  0  0  0  0  0  0  0  0  0  0  0
  -22.7469  -24.1868   21.9474 C   0  0  0  0  0  0  0  0  0  1  0  0
  -25.0827  -29.9731   25.8350 C   0  0  1  0  0  0  0  0  0  0  0  0
  -25.1246  -28.3089   29.2406 C   0  0  2  0  0  0  0  0  0  0  0  0
  -26.2908  -30.8239   25.3510 C   0  0  0  0  0  0  0  0  0  0  0  0
  -25.9787  -11.4858   20.2207 N   0  0  0  0  0  0  0  0  0  0  0  0
  -26.7325  -11.8674   19.1756 N   0  0  0  0  0  0  0  0  0  0  0  0
  -23.8017  -21.8003   19.8520 N   0  0  0  0  0  0  0  0  0  0  0  0
  -22.8643  -29.9584   24.7385 N   0  0  0  0  0  0  0  0  0  0  0  0
  -28.5362  -14.8875   20.6618 N   0  0  0  0  0  0  0  0  0  0  0  0
  -27.0592  -11.5195   16.8554 N   0  0  0  0  0  0  0  0  0  0  0  0
  -23.6334   -8.7505   17.8519 N   0  0  0  0  0  0  0  0  0  0  0  0
  -27.1634  -16.7278   20.1223 N   0  0  0  0  0  0  0  0  0  0  0  0
  -21.3160  -32.4131   22.6631 N   0  0  0  0  0  0  0  0  0  0  0  0
  -25.1028  -29.6636   27.2605 N   0  0  0  0  0  0  0  0  0  0  0  0
  -24.3495  -27.1343   29.7309 N   0  3  0  0  0  0  0  0  0  0  0  0
  -26.6522  -22.6479   18.9310 O   0  0  0  0  0  0  0  0  0  0  0  0
  -25.0059   -9.4831   16.1672 O   0  0  0  0  0  0  0  0  0  0  0  0
  -23.6776  -20.6563   17.8585 O   0  0  0  0  0  0  0  0  0  0  0  0
  -22.7349  -30.6309   22.1806 O   0  0  0  0  0  0  0  0  0  0  0  0
  -23.5256  -31.7452   26.0824 O   0  0  0  0  0  0  0  0  0  0  0  0
  -25.0708  -27.3574   27.0205 O   0  0  0  0  0  0  0  0  0  0  0  0
  -29.3964  -17.0332   20.6719 O   0  0  0  0  0  0  0  0  0  0  0  0
  -21.3069   -8.0610   22.8658 O   0  0  0  0  0  0  0  0  0  0  0  0
  -21.3952  -24.6436   21.9730 O   0  0  0  0  0  0  0  0  0  1  0  0
  -22.2033   -2.8024   24.2614 F   0  0  0  0  0  0  0  0  0  0  0  0
  -21.5112   -7.3128   25.5194 F   0  0  0  0  0  0  0  0  0  0  0  0
  -25.1256  -18.3140   19.4261 S   0  0  0  0  0  0  0  0  0  0  0  0
  1  2  1  0  0  0  0
  1  5  2  0  0  0  0
  2  6  2  0  0  0  0
  3  8  2  0  0  0  0
  3 16  1  0  0  0  0
  4  9  1  0  0  0  0
  4 16  2  0  0  0  0
  5 19  1  0  0  0  0
  6 21  1  0  0  0  0
  7 10  2  0  0  0  0
  7 20  1  0  0  0  0
  8 23  1  0  0  0  0
  9 23  2  0  0  0  0
 10 24  1  0  0  0  0
 11 12  2  0  0  0  0
 11 25  1  0  0  0  0
 12 26  1  0  0  0  0
 13 17  1  0  0  0  0
 13 31  2  0  0  0  0
 14 22  1  0  0  0  0
 14 24  2  0  0  0  0
 15 26  2  0  0  0  0
 15 27  1  0  0  0  0
 16 28  1  0  0  0  0
 17 29  2  0  0  0  0
 17 32  1  0  0  0  0
 18 28  1  0  0  0  0
 18 30  2  0  0  0  0
 18 33  1  0  0  0  0
 19 21  2  0  0  0  0
 19 39  1  0  0  0  0
 20 22  2  0  0  0  0
 20 40  1  0  0  0  0
 21 50  1  0  0  0  0
 22 41  1  0  0  0  0
 23 82  1  0  0  0  0
 24 83  1  0  0  0  0
 25 27  2  0  0  0  0
 25 82  1  0  0  0  0
 26 84  1  0  0  0  0
 27 85  1  0  0  0  0
 28 64  2  0  0  0  0
 29 34  1  0  0  0  0
 29 86  1  0  0  0  0
 30 65  1  0  0  0  0
 30 69  1  0  0  0  0
 31 71  1  0  0  0  0
 31 86  1  0  0  0  0
 32 54  1  0  0  0  0
 32 75  2  0  0  0  0
 33 70  1  0  0  0  0
 33 76  2  0  0  0  0
 34 66  1  0  0  0  0
 34 77  2  0  0  0  0
 35 51  1  0  0  0  0
 35 72  1  0  0  0  0
 35 78  2  0  0  0  0
 36 61  1  0  0  0  0
 36 67  1  0  0  0  0
 36 79  2  0  0  0  0
 37 62  1  0  0  0  0
 37 73  1  0  0  0  0
 37 80  2  0  0  0  0
 38 68  1  0  0  0  0
 38 71  1  0  0  0  0
 38 81  2  0  0  0  0
 39 42  1  0  0  0  0
 40 51  1  0  0  0  0
 41 67  1  0  0  0  0
 42 44  1  0  0  0  0
 43 45  1  0  0  0  0
 43 46  1  0  0  0  0
 44 50  1  0  0  0  0
 45 53  1  0  0  0  0
 46 68  1  0  0  0  0
 47 52  1  0  0  0  0
 47 66  1  0  0  0  0
 48 52  1  0  0  0  0
 48 66  1  0  0  0  0
 49 53  1  0  0  0  0
 49 68  1  0  0  0  0
 50 72  1  0  0  0  0
 51 67  1  0  0  0  0
 52 60  1  0  0  0  0
 53 65  1  0  0  0  0
 55 62  1  0  0  0  0
 56 63  1  0  0  0  0
 57 63  1  0  0  0  0
 58 63  1  0  0  0  0
 59 74  1  0  0  0  0
 60 83  1  0  0  0  0
 61 63  1  0  0  0  0
 61 73  1  0  0  0  0
 62 74  1  0  0  0  0
 64 65  1  0  0  0  0
M  CHG  1  74   1
M  ISO  4  38 100  60 101  71 100  83 101
M  END
> <Batch ID>
0147

> <Smiles>
CNC(C)C(=O)NC(C(=O)N1Cc2cc([101O:1][101CH2:1]C3CN(C(=O)c4sc([100NH:0][100C:0](=O)N5CCCC(n6nc(-c7ccc(Oc8ccc(F)cc8F)cc7)c(C(N)=O)c6N)C5)cc4C(C)=O)C3)ccc2CC1C(=O)NC1CCCc2ccccc21)C(C)(C)C

> <Shape>
0.238

> <Color>
0.080

> <Negative vol penalty>
0.000

$$$$
