
  -OEChem-04052303163D

 86 95  0     1  0  0  0  0  0999 V2000
  -28.1025  -37.6380   22.9083 C   0  0  0  0  0  0  0  0  0  0  0  0
  -28.5756  -36.4414   22.3794 C   0  0  0  0  0  0  0  0  0  0  0  0
  -22.4119  -10.5677   20.9192 C   0  0  0  0  0  0  0  0  0  0  0  0
  -22.1790  -12.0557   19.0301 C   0  0  0  0  0  0  0  0  0  0  0  0
  -27.0904  -37.6233   23.8671 C   0  0  0  0  0  0  0  0  0  0  0  0
  -28.0375  -35.2292   22.8100 C   0  0  0  0  0  0  0  0  0  0  0  0
  -27.1892  -30.1784   19.4519 C   0  0  0  0  0  0  0  0  0  0  0  0
  -21.1696  -10.0040   20.6284 C   0  0  0  0  0  0  0  0  0  0  0  0
  -20.9367  -11.4920   18.7392 C   0  0  0  0  0  0  0  0  0  0  0  0
  -27.9342  -29.0082   19.3132 C   0  0  0  0  0  0  0  0  0  0  0  0
  -19.9044   -7.7569   18.4414 C   0  0  0  0  0  0  0  0  0  0  0  0
  -19.7999   -6.3664   18.4740 C   0  0  0  0  0  0  0  0  0  0  0  0
  -31.0444  -19.8779   18.4543 C   0  0  0  0  0  0  0  0  0  0  0  0
  -29.5641  -19.5978   20.3430 C   0  0  0  0  0  0  0  0  0  0  0  0
  -26.5362  -27.9303   20.9572 C   0  0  0  0  0  0  0  0  0  0  0  0
  -30.1106  -17.7044   18.9453 C   0  0  0  0  0  0  0  0  0  0  0  0
  -18.1176   -6.5333   20.2001 C   0  0  0  0  0  0  0  0  0  0  0  0
  -22.9166  -11.5936   20.1201 C   0  0  0  0  0  0  0  0  0  0  0  0
  -30.3688  -20.4157   19.5497 C   0  0  0  0  0  0  0  0  0  0  0  0
  -25.4556  -11.7618   19.9386 C   0  0  0  0  0  0  0  0  0  0  0  0
  -26.5330  -36.4107   24.3026 C   0  0  0  0  0  0  0  0  0  0  0  0
  -26.1170  -30.2369   20.3539 C   0  0  0  0  0  0  0  0  0  0  0  0
  -27.0179  -35.1981   23.7765 C   0  0  0  0  0  0  0  0  0  0  0  0
  -25.7775  -29.1017   21.1037 C   0  0  0  0  0  0  0  0  0  0  0  0
  -30.9153  -18.5223   18.1521 C   0  0  0  0  0  0  0  0  0  0  0  0
  -29.4350  -18.2422   20.0408 C   0  0  0  0  0  0  0  0  0  0  0  0
  -20.4320  -10.4661   19.5384 C   0  0  0  0  0  0  0  0  0  0  0  0
  -27.6096  -27.8848   20.0680 C   0  0  0  0  0  0  0  0  0  0  0  0
  -19.1155   -8.5357   19.2882 C   0  0  0  0  0  0  0  0  0  0  0  0
  -18.9065   -5.7546   19.3533 C   0  0  0  0  0  0  0  0  0  0  0  0
  -18.2221   -7.9238   20.1675 C   0  0  0  0  0  0  0  0  0  0  0  0
  -24.1995  -12.1767   20.4204 C   0  0  0  0  0  0  0  0  0  0  0  0
  -26.3485  -12.6328   20.5134 C   0  0  0  0  0  0  0  0  0  0  0  0
  -28.5711  -24.6745   18.7830 C   0  0  0  0  0  0  0  0  0  0  0  0
  -27.9343  -25.8298   18.9993 C   0  0  0  0  0  0  0  0  0  1  0  0
  -30.5050  -21.8480   19.8692 C   0  0  0  0  0  0  0  0  0  0  0  0
  -25.7856  -10.6855   19.0507 C   0  0  0  0  0  0  0  0  0  0  0  0
  -25.4586  -31.9524   22.9475 C   0  0  0  0  0  0  0  0  0  0  0  0
  -22.5930  -30.4466   22.7403 C   0  0  0  0  0  0  0  0  0  0  0  0
  -20.8060  -27.7587   21.6316 C   0  0  0  0  0  0  0  0  0  0  0  0
  -27.8787  -17.7850   21.9683 C   0  0  0  0  0  0  0  0  0  0  0  0
  -25.4736  -36.4426   25.3756 C   0  0  0  0  0  0  0  0  0  0  0  0
  -25.3065  -31.4984   20.4723 C   0  0  0  0  0  0  0  0  0  0  0  0
  -24.6231  -29.1064   22.0710 C   0  0  0  0  0  0  0  0  0  0  0  0
  -28.1698  -23.6433   17.7694 C   0  0  0  0  0  0  0  0  0  0  0  0
  -29.7198  -24.1626   19.5973 C   0  0  0  0  0  0  0  0  0  0  0  0
  -24.6968  -35.1348   25.5037 C   0  0  0  0  0  0  0  0  0  0  0  0
  -25.7146  -16.0458   24.1974 C   0  0  0  0  0  0  0  0  0  0  0  0
  -25.6517  -33.9453   25.5114 C   0  0  0  0  0  0  0  0  0  0  0  0
  -25.2308  -14.8500   23.3738 C   0  0  0  0  0  0  0  0  0  0  0  0
  -28.5679  -22.3295   18.4308 C   0  0  0  0  0  0  0  0  0  0  0  0
  -25.8640  -17.3015   23.3403 C   0  0  0  0  0  0  0  0  0  0  0  0
  -26.2078  -15.9421   21.3147 C   0  0  0  0  0  0  0  0  0  0  0  0
  -26.4424  -33.8641   24.2000 C   0  0  1  0  0  0  0  0  0  0  0  0
  -24.5571  -31.6049   21.7968 C   0  0  1  0  0  0  0  0  0  0  0  0
  -26.1043  -14.6376   22.1219 C   0  0  2  0  0  0  0  0  0  0  0  0
  -18.4914  -26.7895   21.6484 C   0  0  0  0  0  0  0  0  0  0  0  0
  -22.9791  -29.5812   25.6406 C   0  0  0  0  0  0  0  0  0  0  0  0
  -21.1724  -27.8816   25.3010 C   0  0  0  0  0  0  0  0  0  0  0  0
  -20.6561  -30.3111   25.0701 C   0  0  0  0  0  0  0  0  0  0  0  0
  -20.6188  -27.8554   18.6796 C   0  0  0  0  0  0  0  0  0  0  0  0
  -22.0206  -29.1585   23.2808 C   0  0  1  0  0  0  0  0  0  0  0  0
  -19.4819  -27.6638   20.8953 C   0  0  2  0  0  0  0  0  0  0  0  0
  -21.7300  -29.2333   24.8064 C   0  0  0  0  0  0  0  0  0  0  0  0
  -24.2830  -13.2292   21.2385 N   0  0  0  0  0  0  0  0  0  0  0  0
  -25.6022  -13.4830   21.2752 N   0  0  0  0  0  0  0  0  0  0  0  0
  -29.6619  -22.7146   19.3370 N   0  0  0  0  0  0  0  0  0  0  0  0
  -23.8649  -30.3655   22.1559 N   0  0  0  0  0  0  0  0  0  0  0  0
  -26.7075  -17.0259   22.1752 N   0  0  0  0  0  0  0  0  0  0  0  0
  -31.5980  -17.9786   17.0441 N   0  0  0  0  0  0  0  0  0  0  0  0
  -27.6915  -12.7466   20.4366 N   0  0  0  0  0  0  0  0  0  0  0  0
  -24.7463   -9.8884   18.5519 N   0  0  0  0  0  0  0  0  0  0  0  0
  -28.6174  -17.4111   20.8462 N   0  0  0  0  0  0  0  0  0  0  0  0
  -25.6187  -33.3104   23.1467 N   0  0  0  0  0  0  0  0  0  0  0  0
  -20.8501  -28.8573   22.4637 N   0  0  0  0  0  0  0  0  0  0  0  0
  -31.4733  -22.2452   20.6895 N   0  3  0  0  0  0  0  0  0  0  0  0
  -19.6844  -27.0827   19.5380 N   0  3  0  0  0  0  0  0  0  0  0  0
  -26.9686  -10.4278   18.7228 O   0  0  0  0  0  0  0  0  0  0  0  0
  -25.9699  -31.0549   23.6069 O   0  0  0  0  0  0  0  0  0  0  0  0
  -21.9328  -31.4850   22.8267 O   0  0  0  0  0  0  0  0  0  0  0  0
  -21.7094  -26.9382   21.4862 O   0  0  0  0  0  0  0  0  0  0  0  0
  -28.2168  -18.6814   22.7456 O   0  0  0  0  0  0  0  0  0  0  0  0
  -19.2199   -9.9161   19.2542 O   0  0  0  0  0  0  0  0  0  0  0  0
  -28.3356  -26.7415   19.9349 O   0  0  0  0  0  0  0  0  0  1  0  0
  -18.8051   -4.4193   19.3833 F   0  0  0  0  0  0  0  0  0  0  0  0
  -17.4608   -8.6667   20.9826 F   0  0  0  0  0  0  0  0  0  0  0  0
  1  2  1  0  0  0  0
  1  5  2  0  0  0  0
  2  6  2  0  0  0  0
  3  8  2  0  0  0  0
  3 18  1  0  0  0  0
  4  9  1  0  0  0  0
  4 18  2  0  0  0  0
  5 21  1  0  0  0  0
  6 23  1  0  0  0  0
  7 10  2  0  0  0  0
  7 22  1  0  0  0  0
  8 27  1  0  0  0  0
  9 27  2  0  0  0  0
 10 28  1  0  0  0  0
 11 12  2  0  0  0  0
 11 29  1  0  0  0  0
 12 30  1  0  0  0  0
 13 19  1  0  0  0  0
 13 25  2  0  0  0  0
 14 19  2  0  0  0  0
 14 26  1  0  0  0  0
 15 24  1  0  0  0  0
 15 28  2  0  0  0  0
 16 25  1  0  0  0  0
 16 26  2  0  0  0  0
 17 30  2  0  0  0  0
 17 31  1  0  0  0  0
 18 32  1  0  0  0  0
 19 36  1  0  0  0  0
 20 32  1  0  0  0  0
 20 33  2  0  0  0  0
 20 37  1  0  0  0  0
 21 23  2  0  0  0  0
 21 42  1  0  0  0  0
 22 24  2  0  0  0  0
 22 43  1  0  0  0  0
 23 54  1  0  0  0  0
 24 44  1  0  0  0  0
 25 70  1  0  0  0  0
 26 73  1  0  0  0  0
 27 83  1  0  0  0  0
 28 84  1  0  0  0  0
 29 31  2  0  0  0  0
 29 83  1  0  0  0  0
 30 85  1  0  0  0  0
 31 86  1  0  0  0  0
 32 65  2  0  0  0  0
 33 66  1  0  0  0  0
 33 71  1  0  0  0  0
 34 35  2  0  0  0  0
 34 45  1  0  0  0  0
 34 46  1  0  0  0  0
 35 84  1  0  0  0  0
 36 67  1  0  0  0  0
 36 76  2  0  0  0  0
 37 72  1  0  0  0  0
 37 78  2  0  0  0  0
 38 55  1  0  0  0  0
 38 74  1  0  0  0  0
 38 79  2  0  0  0  0
 39 62  1  0  0  0  0
 39 68  1  0  0  0  0
 39 80  2  0  0  0  0
 40 63  1  0  0  0  0
 40 75  1  0  0  0  0
 40 81  2  0  0  0  0
 41 69  1  0  0  0  0
 41 73  1  0  0  0  0
 41 82  2  0  0  0  0
 42 47  1  0  0  0  0
 43 55  1  0  0  0  0
 44 68  1  0  0  0  0
 45 51  1  0  0  0  0
 46 67  1  0  0  0  0
 47 49  1  0  0  0  0
 48 50  1  0  0  0  0
 48 52  1  0  0  0  0
 49 54  1  0  0  0  0
 50 56  1  0  0  0  0
 51 67  1  0  0  0  0
 52 69  1  0  0  0  0
 53 56  1  0  0  0  0
 53 69  1  0  0  0  0
 54 74  1  0  0  0  0
 55 68  1  0  0  0  0
 56 66  1  0  0  0  0
 57 63  1  0  0  0  0
 58 64  1  0  0  0  0
 59 64  1  0  0  0  0
 60 64  1  0  0  0  0
 61 77  1  0  0  0  0
 62 64  1  0  0  0  0
 62 75  1  0  0  0  0
 63 77  1  0  0  0  0
 65 66  1  0  0  0  0
M  CHG  2  76   1  77   1
M  ISO  4  35 101  41 100  73 100  84 101
M  END
> <Batch ID>
0148

> <Smiles>
CNC(C)C(=O)NC(C(=O)N1Cc2cc([101O:1][101CH:1]=C3CCN(C(=N)c4cc(N)cc([100NH:0][100C:0](=O)N5CCCC(n6nc(-c7ccc(Oc8ccc(F)cc8F)cc7)c(C(N)=O)c6N)C5)c4)C3)ccc2CC1C(=O)NC1CCCc2ccccc21)C(C)(C)C

> <Shape>
0.286

> <Color>
0.070

> <Negative vol penalty>
0.000

$$$$

  -OEChem-04052303163D

 82 91  0     1  0  0  0  0  0999 V2000
  -29.3543  -34.1707   26.4339 C   0  0  0  0  0  0  0  0  0  0  0  0
  -29.0037  -32.8647   26.1070 C   0  0  0  0  0  0  0  0  0  0  0  0
  -23.9622   -9.6331   19.9873 C   0  0  0  0  0  0  0  0  0  0  0  0
  -24.4883   -9.9543   22.3234 C   0  0  0  0  0  0  0  0  0  0  0  0
  -28.4158  -35.1945   26.3120 C   0  0  0  0  0  0  0  0  0  0  0  0
  -27.7138  -32.5816   25.6591 C   0  0  0  0  0  0  0  0  0  0  0  0
  -27.6850  -29.4930   21.6461 C   0  0  0  0  0  0  0  0  0  0  0  0
  -23.5484   -8.3292   20.2598 C   0  0  0  0  0  0  0  0  0  0  0  0
  -24.0744   -8.6504   22.5959 C   0  0  0  0  0  0  0  0  0  0  0  0
  -27.8918  -28.1352   21.8861 C   0  0  0  0  0  0  0  0  0  0  0  0
  -21.1544   -7.0027   23.0191 C   0  0  0  0  0  0  0  0  0  0  0  0
  -20.3395   -6.8025   24.1333 C   0  0  0  0  0  0  0  0  0  0  0  0
  -29.7009  -20.7937   22.4368 C   0  0  0  0  0  0  0  0  0  0  0  0
  -30.0228  -19.5333   21.8554 C   0  0  0  0  0  0  0  0  0  0  0  0
  -25.5150  -27.7523   21.7330 C   0  0  0  0  0  0  0  0  0  0  0  0
  -22.0006   -5.3275   25.0831 C   0  0  0  0  0  0  0  0  0  0  0  0
  -24.4322  -10.4456   21.0191 C   0  0  0  0  0  0  0  0  0  0  0  0
  -24.0696  -12.9570   20.7563 C   0  0  0  0  0  0  0  0  0  0  0  0
  -27.1167  -34.9254   25.8532 C   0  0  0  0  0  0  0  0  0  0  0  0
  -26.3884  -29.9931   21.4582 C   0  0  0  0  0  0  0  0  0  0  0  0
  -26.7567  -33.6026   25.5323 C   0  0  0  0  0  0  0  0  0  0  0  0
  -25.2946  -29.1163   21.4882 C   0  0  0  0  0  0  0  0  0  0  0  0
  -23.6045   -7.8379   21.5640 C   0  0  0  0  0  0  0  0  0  0  0  0
  -26.8065  -27.2651   21.9325 C   0  0  0  0  0  0  0  0  0  0  0  0
  -22.3924   -6.3653   22.9368 C   0  0  0  0  0  0  0  0  0  0  0  0
  -20.7626   -5.9649   25.1653 C   0  0  0  0  0  0  0  0  0  0  0  0
  -22.8155   -5.5277   23.9688 C   0  0  0  0  0  0  0  0  0  0  0  0
  -24.8603  -11.7925   20.7382 C   0  0  0  0  0  0  0  0  0  0  0  0
  -28.4599  -20.7860   23.0345 C   0  0  0  0  0  0  0  0  0  0  0  0
  -24.9383  -13.9672   20.4226 C   0  0  0  0  0  0  0  0  0  0  0  0
  -29.0155  -18.6101   22.0312 C   0  0  0  0  0  0  0  0  0  0  0  0
  -22.6745  -13.1119   21.0487 C   0  0  0  0  0  0  0  0  0  0  0  0
  -24.5492  -32.0880   22.9855 C   0  0  0  0  0  0  0  0  0  0  0  0
  -22.5659  -31.5940   20.4666 C   0  0  0  0  0  0  0  0  0  0  0  0
  -21.5564  -29.5429   17.9327 C   0  0  0  0  0  0  0  0  0  0  0  0
  -29.8638  -16.5168   20.9156 C   0  0  0  0  0  0  0  0  0  0  0  0
  -26.1226  -36.0574   25.7829 C   0  0  0  0  0  0  0  0  0  0  0  0
  -26.1845  -31.4560   21.1738 C   0  0  0  0  0  0  0  0  0  0  0  0
  -23.8846  -29.5998   21.2727 C   0  0  0  0  0  0  0  0  0  0  0  0
  -24.8890  -35.7335   24.9442 C   0  0  0  0  0  0  0  0  0  0  0  0
  -29.6722  -13.7855   18.6394 C   0  0  0  0  0  0  0  0  0  0  0  0
  -24.3427  -34.3565   25.3079 C   0  0  0  0  0  0  0  0  0  0  0  0
  -28.5833  -22.3998   24.9472 C   0  0  0  0  0  0  0  0  0  0  0  0
  -28.9574  -23.8413   24.6171 C   0  0  0  0  0  0  0  0  0  0  0  0
  -28.3381  -13.1193   18.9840 C   0  0  0  0  0  0  0  0  0  0  0  0
  -27.5765  -23.1106   22.8208 C   0  0  0  0  0  0  0  0  0  0  0  0
  -30.3801  -14.3152   19.8852 C   0  0  0  0  0  0  0  0  0  0  0  0
  -28.2347  -14.5329   21.0764 C   0  0  0  0  0  0  0  0  0  0  0  0
  -25.3749  -33.2597   25.0193 C   0  0  1  0  0  0  0  0  0  0  0  0
  -27.7696  -21.8896   23.7394 C   0  0  1  0  0  0  0  0  0  0  0  0
  -24.7765  -31.9390   21.5077 C   0  0  1  0  0  0  0  0  0  0  0  0
  -27.8101  -24.3145   23.7313 C   0  0  2  0  0  0  0  0  0  0  0  0
  -27.4540  -14.0413   19.8465 C   0  0  2  0  0  0  0  0  0  0  0  0
  -19.8879  -29.3949   16.0641 C   0  0  0  0  0  0  0  0  0  0  0  0
  -20.3675  -30.9544   22.4835 C   0  0  0  0  0  0  0  0  0  0  0  0
  -19.0561  -29.9169   20.6201 C   0  0  0  0  0  0  0  0  0  0  0  0
  -19.6281  -32.3437   20.5399 C   0  0  0  0  0  0  0  0  0  0  0  0
  -23.6885  -29.3902   15.8858 C   0  0  0  0  0  0  0  0  0  0  0  0
  -28.1295  -25.5839   22.9713 C   0  0  0  0  0  0  0  0  0  1  0  0
  -21.4464  -30.6285   20.1606 C   0  0  1  0  0  0  0  0  0  0  0  0
  -21.2951  -29.8126   16.4618 C   0  0  2  0  0  0  0  0  0  0  0  0
  -20.1508  -30.9518   20.9571 C   0  0  0  0  0  0  0  0  0  0  0  0
  -26.1335  -12.0386   20.4181 N   0  0  0  0  0  0  0  0  0  0  0  0
  -26.1494  -13.3694   20.2320 N   0  0  0  0  0  0  0  0  0  0  0  0
  -23.7362  -31.0398   21.0043 N   0  0  0  0  0  0  0  0  0  0  0  0
  -29.4833  -15.1842   20.6504 N   0  0  0  0  0  0  0  0  0  0  0  0
  -24.7769  -15.2994   20.2765 N   0  0  0  0  0  0  0  0  0  0  0  0
  -21.9290  -11.9702   21.3728 N   0  0  0  0  0  0  0  0  0  0  0  0
  -28.9168  -17.2569   21.6228 N   0  0  0  0  0  0  0  0  0  0  0  0
  -25.4186  -32.9670   23.6026 N   0  0  0  0  0  0  0  0  0  0  0  0
  -21.2771  -30.6458   18.7117 N   0  0  0  0  0  0  0  0  0  0  0  0
  -22.2652  -29.0603   15.6169 N   0  3  0  0  0  0  0  0  0  0  0  0
  -22.1023  -14.2274   21.0073 O   0  0  0  0  0  0  0  0  0  0  0  0
  -23.6506  -31.4536   23.5256 O   0  0  0  0  0  0  0  0  0  0  0  0
  -22.4105  -32.7947   20.2304 O   0  0  0  0  0  0  0  0  0  0  0  0
  -21.9638  -28.4608   18.3493 O   0  0  0  0  0  0  0  0  0  0  0  0
  -30.9380  -16.9761   20.5192 O   0  0  0  0  0  0  0  0  0  0  0  0
  -23.2006   -6.5656   21.8303 O   0  0  0  0  0  0  0  0  0  0  0  0
  -27.0055  -25.9396   22.1672 O   0  0  0  0  0  0  0  0  0  1  0  0
  -19.9807   -5.7740   26.2360 F   0  0  0  0  0  0  0  0  0  0  0  0
  -24.0043   -4.9134   23.8960 F   0  0  0  0  0  0  0  0  0  0  0  0
  -27.6884  -19.2637   22.8937 S   0  0  0  0  0  0  0  0  0  0  0  0
  1  2  1  0  0  0  0
  1  5  2  0  0  0  0
  2  6  2  0  0  0  0
  3  8  2  0  0  0  0
  3 17  1  0  0  0  0
  4  9  1  0  0  0  0
  4 17  2  0  0  0  0
  5 19  1  0  0  0  0
  6 21  1  0  0  0  0
  7 10  2  0  0  0  0
  7 20  1  0  0  0  0
  8 23  1  0  0  0  0
  9 23  2  0  0  0  0
 10 24  1  0  0  0  0
 11 12  2  0  0  0  0
 11 25  1  0  0  0  0
 12 26  1  0  0  0  0
 13 14  1  0  0  0  0
 13 29  2  0  0  0  0
 14 31  2  0  0  0  0
 15 22  1  0  0  0  0
 15 24  2  0  0  0  0
 16 26  2  0  0  0  0
 16 27  1  0  0  0  0
 17 28  1  0  0  0  0
 18 28  1  0  0  0  0
 18 30  2  0  0  0  0
 18 32  1  0  0  0  0
 19 21  2  0  0  0  0
 19 37  1  0  0  0  0
 20 22  2  0  0  0  0
 20 38  1  0  0  0  0
 21 49  1  0  0  0  0
 22 39  1  0  0  0  0
 23 78  1  0  0  0  0
 24 79  1  0  0  0  0
 25 27  2  0  0  0  0
 25 78  1  0  0  0  0
 26 80  1  0  0  0  0
 27 81  1  0  0  0  0
 28 63  2  0  0  0  0
 29 50  1  0  0  0  0
 29 82  1  0  0  0  0
 30 64  1  0  0  0  0
 30 67  1  0  0  0  0
 31 69  1  0  0  0  0
 31 82  1  0  0  0  0
 32 68  1  0  0  0  0
 32 73  2  0  0  0  0
 33 51  1  0  0  0  0
 33 70  1  0  0  0  0
 33 74  2  0  0  0  0
 34 60  1  0  0  0  0
 34 65  1  0  0  0  0
 34 75  2  0  0  0  0
 35 61  1  0  0  0  0
 35 71  1  0  0  0  0
 35 76  2  0  0  0  0
 36 66  1  0  0  0  0
 36 69  1  0  0  0  0
 36 77  2  0  0  0  0
 37 40  1  0  0  0  0
 38 51  1  0  0  0  0
 39 65  1  0  0  0  0
 40 42  1  0  0  0  0
 41 45  1  0  0  0  0
 41 47  1  0  0  0  0
 42 49  1  0  0  0  0
 43 44  1  0  0  0  0
 43 50  1  0  0  0  0
 44 52  1  0  0  0  0
 45 53  1  0  0  0  0
 46 50  1  0  0  0  0
 46 52  1  0  0  0  0
 47 66  1  0  0  0  0
 48 53  1  0  0  0  0
 48 66  1  0  0  0  0
 49 70  1  0  0  0  0
 51 65  1  0  0  0  0
 52 59  1  0  0  0  0
 53 64  1  0  0  0  0
 54 61  1  0  0  0  0
 55 62  1  0  0  0  0
 56 62  1  0  0  0  0
 57 62  1  0  0  0  0
 58 72  1  0  0  0  0
 59 79  1  0  0  0  0
 60 62  1  0  0  0  0
 60 71  1  0  0  0  0
 61 72  1  0  0  0  0
 63 64  1  0  0  0  0
M  CHG  1  72   1
M  ISO  4  36 100  59 101  69 100  79 101
M  END
> <Batch ID>
0148

> <Smiles>
CNC(C)C(=O)NC(C(=O)N1Cc2cc([101O:1][101CH2:1]C3CCC(c4ccc([100NH:0][100C:0](=O)N5CCCC(n6nc(-c7ccc(Oc8ccc(F)cc8F)cc7)c(C(N)=O)c6N)C5)s4)C3)ccc2CC1C(=O)NC1CCCc2ccccc21)C(C)(C)C

> <Shape>
0.285

> <Color>
0.147

> <Negative vol penalty>
0.000

$$$$

  -OEChem-04052303163D

 85 94  0     1  0  0  0  0  0999 V2000
  -24.6134  -35.2595   14.4555 C   0  0  0  0  0  0  0  0  0  0  0  0
  -24.8176  -33.9094   14.7217 C   0  0  0  0  0  0  0  0  0  0  0  0
  -23.2705   -9.6839   20.2553 C   0  0  0  0  0  0  0  0  0  0  0  0
  -23.8707  -10.1025   22.5579 C   0  0  0  0  0  0  0  0  0  0  0  0
  -25.2953  -36.2254   15.1944 C   0  0  0  0  0  0  0  0  0  0  0  0
  -25.7047  -33.5244   15.7263 C   0  0  0  0  0  0  0  0  0  0  0  0
  -25.1839  -28.6833   19.4409 C   0  0  0  0  0  0  0  0  0  0  0  0
  -22.5817   -8.5349   20.6437 C   0  0  0  0  0  0  0  0  0  0  0  0
  -23.1818   -8.9534   22.9463 C   0  0  0  0  0  0  0  0  0  0  0  0
  -25.7497  -27.4095   19.4067 C   0  0  0  0  0  0  0  0  0  0  0  0
  -19.9737   -8.0359   23.4817 C   0  0  0  0  0  0  0  0  0  0  0  0
  -19.1426   -8.1267   24.5982 C   0  0  0  0  0  0  0  0  0  0  0  0
  -31.3434  -19.4908   21.7202 C   0  0  0  0  0  0  0  0  0  0  0  0
  -31.3754  -18.1407   21.2661 C   0  0  0  0  0  0  0  0  0  0  0  0
  -27.4863  -28.1470   20.9099 C   0  0  0  0  0  0  0  0  0  0  0  0
  -20.4447   -6.4199   25.7064 C   0  0  0  0  0  0  0  0  0  0  0  0
  -23.9150  -10.4677   21.2124 C   0  0  0  0  0  0  0  0  0  0  0  0
  -24.1125  -12.9606   20.7086 C   0  0  0  0  0  0  0  0  0  0  0  0
  -26.1840  -35.8522   16.2150 C   0  0  0  0  0  0  0  0  0  0  0  0
  -25.7722  -29.7032   20.2026 C   0  0  0  0  0  0  0  0  0  0  0  0
  -26.4002  -34.4862   16.4786 C   0  0  0  0  0  0  0  0  0  0  0  0
  -26.9245  -29.4322   20.9542 C   0  0  0  0  0  0  0  0  0  0  0  0
  -22.5373   -8.1696   21.9892 C   0  0  0  0  0  0  0  0  0  0  0  0
  -26.9027  -27.1420   20.1389 C   0  0  0  0  0  0  0  0  0  0  0  0
  -21.0403   -7.1370   23.4775 C   0  0  0  0  0  0  0  0  0  0  0  0
  -19.3781   -7.3188   25.7105 C   0  0  0  0  0  0  0  0  0  0  0  0
  -21.2758   -6.3290   24.5899 C   0  0  0  0  0  0  0  0  0  0  0  0
  -24.6272  -11.6544   20.8117 C   0  0  0  0  0  0  0  0  0  0  0  0
  -30.1353  -19.8139   22.2979 C   0  0  0  0  0  0  0  0  0  0  0  0
  -25.1800  -13.7186   20.2934 C   0  0  0  0  0  0  0  0  0  0  0  0
  -30.1905  -17.4832   21.5143 C   0  0  0  0  0  0  0  0  0  0  0  0
  -22.7878  -13.4455   20.9653 C   0  0  0  0  0  0  0  0  0  0  0  0
  -29.8109  -21.1382   22.8575 C   0  0  0  0  0  0  0  0  0  0  0  0
  -27.0575  -32.5355   19.5471 C   0  0  0  0  0  0  0  0  0  0  0  0
  -27.2011  -32.7825   22.7783 C   0  0  0  0  0  0  0  0  0  0  0  0
  -27.3106  -31.2048   25.8025 C   0  0  0  0  0  0  0  0  0  0  0  0
  -30.5492  -15.1581   20.6133 C   0  0  0  0  0  0  0  0  0  0  0  0
  -26.9340  -36.9313   16.9550 C   0  0  0  0  0  0  0  0  0  0  0  0
  -25.1345  -31.0646   20.2502 C   0  0  0  0  0  0  0  0  0  0  0  0
  -27.5834  -30.4869   21.8039 C   0  0  0  0  0  0  0  0  0  0  0  0
  -27.5738  -36.4473   18.2537 C   0  0  0  0  0  0  0  0  0  0  0  0
  -29.7451  -12.3319   18.6026 C   0  0  0  0  0  0  0  0  0  0  0  0
  -28.3054  -35.1279   18.0291 C   0  0  0  0  0  0  0  0  0  0  0  0
  -28.2995  -12.0111   18.9896 C   0  0  0  0  0  0  0  0  0  0  0  0
  -28.6250  -23.2372   20.1657 C   0  0  0  0  0  0  0  0  0  0  0  0
  -30.5609  -12.8091   19.8028 C   0  0  0  0  0  0  0  0  0  0  0  0
  -28.9602  -21.8334   20.6586 C   0  0  0  0  0  0  0  0  0  0  0  0
  -28.5245  -13.6054   20.9376 C   0  0  0  0  0  0  0  0  0  0  0  0
  -28.9064  -23.4071   22.5467 C   0  0  0  0  0  0  0  0  0  0  0  0
  -27.3357  -34.0294   17.5769 C   0  0  1  0  0  0  0  0  0  0  0  0
  -26.1090  -32.1672   20.6527 C   0  0  1  0  0  0  0  0  0  0  0  0
  -27.6462  -13.1827   19.7487 C   0  0  2  0  0  0  0  0  0  0  0  0
  -28.0387  -23.9524   21.3976 C   0  0  2  0  0  0  0  0  0  0  0  0
  -26.5637  -23.5726   21.6048 C   0  0  0  0  0  0  0  0  0  0  0  0
  -27.4630  -31.6716   28.2635 C   0  0  0  0  0  0  0  0  0  0  0  0
  -30.1724  -33.4056   22.4735 C   0  0  0  0  0  0  0  0  0  0  0  0
  -30.4527  -32.9227   24.9141 C   0  0  0  0  0  0  0  0  0  0  0  0
  -28.9836  -34.7989   24.1764 C   0  0  0  0  0  0  0  0  0  0  0  0
  -24.7022  -29.9088   26.3278 C   0  0  0  0  0  0  0  0  0  0  0  0
  -28.1599  -25.4717   21.2727 C   0  0  0  0  0  0  0  0  0  1  0  0
  -28.2150  -32.4147   23.8346 C   0  0  1  0  0  0  0  0  0  0  0  0
  -26.5316  -31.4314   27.0856 C   0  0  2  0  0  0  0  0  0  0  0  0
  -29.4448  -33.3659   23.8322 C   0  0  0  0  0  0  0  0  0  0  0  0
  -25.9211  -11.5830   20.4879 N   0  0  0  0  0  0  0  0  0  0  0  0
  -26.2283  -12.8539   20.1772 N   0  0  0  0  0  0  0  0  0  0  0  0
  -29.2676  -22.0562   22.0790 N   0  0  0  0  0  0  0  0  0  0  0  0
  -26.9256  -31.8040   21.8126 N   0  0  0  0  0  0  0  0  0  0  0  0
  -29.8828  -13.9227   20.4697 N   0  0  0  0  0  0  0  0  0  0  0  0
  -25.3148  -15.0337   20.0200 N   0  0  0  0  0  0  0  0  0  0  0  0
  -21.8115  -12.5318   21.3852 N   0  0  0  0  0  0  0  0  0  0  0  0
  -29.7935  -16.1521   21.2340 N   0  0  0  0  0  0  0  0  0  0  0  0
  -26.5837  -33.5234   18.7050 N   0  0  0  0  0  0  0  0  0  0  0  0
  -27.4906  -32.3778   25.1004 N   0  0  0  0  0  0  0  0  0  0  0  0
  -30.0686  -21.3873   24.1381 N   0  3  0  0  0  0  0  0  0  0  0  0
  -25.6824  -30.2457   27.3922 N   0  3  0  0  0  0  0  0  0  0  0  0
  -22.4750  -14.6504   20.8107 O   0  0  0  0  0  0  0  0  0  0  0  0
  -28.1398  -31.9667   19.4650 O   0  0  0  0  0  0  0  0  0  0  0  0
  -26.6677  -33.8942   22.8130 O   0  0  0  0  0  0  0  0  0  0  0  0
  -27.7217  -30.0986   25.4594 O   0  0  0  0  0  0  0  0  0  0  0  0
  -31.6954  -15.3301   20.1906 O   0  0  0  0  0  0  0  0  0  0  0  0
  -21.8651   -7.0486   22.3686 O   0  0  0  0  0  0  0  0  0  0  0  0
  -27.4574  -25.8998   20.1067 O   0  0  0  0  0  0  0  0  0  1  0  0
  -18.5807   -7.4072   26.7832 F   0  0  0  0  0  0  0  0  0  0  0  0
  -22.2997   -5.4644   24.5922 F   0  0  0  0  0  0  0  0  0  0  0  0
  -29.0462  -18.4926   22.2914 S   0  0  0  0  0  0  0  0  0  0  0  0
  1  2  1  0  0  0  0
  1  5  2  0  0  0  0
  2  6  2  0  0  0  0
  3  8  2  0  0  0  0
  3 17  1  0  0  0  0
  4  9  1  0  0  0  0
  4 17  2  0  0  0  0
  5 19  1  0  0  0  0
  6 21  1  0  0  0  0
  7 10  2  0  0  0  0
  7 20  1  0  0  0  0
  8 23  1  0  0  0  0
  9 23  2  0  0  0  0
 10 24  1  0  0  0  0
 11 12  2  0  0  0  0
 11 25  1  0  0  0  0
 12 26  1  0  0  0  0
 13 14  1  0  0  0  0
 13 29  2  0  0  0  0
 14 31  2  0  0  0  0
 15 22  1  0  0  0  0
 15 24  2  0  0  0  0
 16 26  2  0  0  0  0
 16 27  1  0  0  0  0
 17 28  1  0  0  0  0
 18 28  1  0  0  0  0
 18 30  2  0  0  0  0
 18 32  1  0  0  0  0
 19 21  2  0  0  0  0
 19 38  1  0  0  0  0
 20 22  2  0  0  0  0
 20 39  1  0  0  0  0
 21 50  1  0  0  0  0
 22 40  1  0  0  0  0
 23 81  1  0  0  0  0
 24 82  1  0  0  0  0
 25 27  2  0  0  0  0
 25 81  1  0  0  0  0
 26 83  1  0  0  0  0
 27 84  1  0  0  0  0
 28 64  2  0  0  0  0
 29 33  1  0  0  0  0
 29 85  1  0  0  0  0
 30 65  1  0  0  0  0
 30 69  1  0  0  0  0
 31 71  1  0  0  0  0
 31 85  1  0  0  0  0
 32 70  1  0  0  0  0
 32 76  2  0  0  0  0
 33 66  1  0  0  0  0
 33 74  2  0  0  0  0
 34 51  1  0  0  0  0
 34 72  1  0  0  0  0
 34 77  2  0  0  0  0
 35 61  1  0  0  0  0
 35 67  1  0  0  0  0
 35 78  2  0  0  0  0
 36 62  1  0  0  0  0
 36 73  1  0  0  0  0
 36 79  2  0  0  0  0
 37 68  1  0  0  0  0
 37 71  1  0  0  0  0
 37 80  2  0  0  0  0
 38 41  1  0  0  0  0
 39 51  1  0  0  0  0
 40 67  1  0  0  0  0
 41 43  1  0  0  0  0
 42 44  1  0  0  0  0
 42 46  1  0  0  0  0
 43 50  1  0  0  0  0
 44 52  1  0  0  0  0
 45 47  1  0  0  0  0
 45 53  1  0  0  0  0
 46 68  1  0  0  0  0
 47 66  1  0  0  0  0
 48 52  1  0  0  0  0
 48 68  1  0  0  0  0
 49 53  1  0  0  0  0
 49 66  1  0  0  0  0
 50 72  1  0  0  0  0
 51 67  1  0  0  0  0
 52 65  1  0  0  0  0
 53 54  1  0  0  0  0
 53 60  1  0  0  0  0
 55 62  1  0  0  0  0
 56 63  1  0  0  0  0
 57 63  1  0  0  0  0
 58 63  1  0  0  0  0
 59 75  1  0  0  0  0
 60 82  1  0  0  0  0
 61 63  1  0  0  0  0
 61 73  1  0  0  0  0
 62 75  1  0  0  0  0
 64 65  1  0  0  0  0
M  CHG  2  74   1  75   1
M  ISO  4  37 100  60 101  71 100  82 101
M  END
> <Batch ID>
0148

> <Smiles>
CNC(C)C(=O)NC(C(=O)N1Cc2cc([101O:1][101CH2:1]C3(C)CCN(C(=N)c4ccc([100NH:0][100C:0](=O)N5CCCC(n6nc(-c7ccc(Oc8ccc(F)cc8F)cc7)c(C(N)=O)c6N)C5)s4)C3)ccc2CC1C(=O)NC1CCCc2ccccc21)C(C)(C)C

> <Shape>
0.308

> <Color>
0.198

> <Negative vol penalty>
0.000

$$$$

  -OEChem-04052303163D

 87 96  0     1  0  0  0  0  0999 V2000
  -16.6697  -27.4097   22.1937 C   0  0  0  0  0  0  0  0  0  0  0  0
  -17.7995  -26.8035   21.6537 C   0  0  0  0  0  0  0  0  0  0  0  0
  -21.7642  -14.0421   22.3549 C   0  0  0  0  0  0  0  0  0  0  0  0
  -21.6811  -14.6360   20.0145 C   0  0  0  0  0  0  0  0  0  0  0  0
  -16.6412  -28.7917   22.3756 C   0  0  0  0  0  0  0  0  0  0  0  0
  -18.9011  -27.5792   21.2943 C   0  0  0  0  0  0  0  0  0  0  0  0
  -24.8040  -25.9949   21.6846 C   0  0  0  0  0  0  0  0  0  0  0  0
  -20.4328  -14.4314   22.5009 C   0  0  0  0  0  0  0  0  0  0  0  0
  -20.3496  -15.0252   20.1605 C   0  0  0  0  0  0  0  0  0  0  0  0
  -25.7088  -25.5083   20.7422 C   0  0  0  0  0  0  0  0  0  0  0  0
  -17.3758  -13.1552   21.8231 C   0  0  0  0  0  0  0  0  0  0  0  0
  -16.5280  -12.3098   22.5387 C   0  0  0  0  0  0  0  0  0  0  0  0
  -29.0014  -20.0534   15.3785 C   0  0  0  0  0  0  0  0  0  0  0  0
  -29.5665  -19.3052   17.6050 C   0  0  0  0  0  0  0  0  0  0  0  0
  -26.5225  -27.7493   20.3751 C   0  0  0  0  0  0  0  0  0  0  0  0
  -28.0500  -18.0079   16.2433 C   0  0  0  0  0  0  0  0  0  0  0  0
  -16.0980  -14.0820   24.1233 C   0  0  0  0  0  0  0  0  0  0  0  0
  -22.3884  -14.1445   21.1116 C   0  0  0  0  0  0  0  0  0  0  0  0
  -29.6952  -20.2365   16.5745 C   0  0  0  0  0  0  0  0  0  0  0  0
  -24.2437  -12.4645   20.6186 C   0  0  0  0  0  0  0  0  0  0  0  0
  -17.7467  -29.5836   22.0273 C   0  0  0  0  0  0  0  0  0  0  0  0
  -24.7440  -27.3662   21.9719 C   0  0  0  0  0  0  0  0  0  0  0  0
  -18.8869  -28.9733   21.4706 C   0  0  0  0  0  0  0  0  0  0  0  0
  -25.6178  -28.2505   21.3234 C   0  0  0  0  0  0  0  0  0  0  0  0
  -28.1787  -18.9392   15.2128 C   0  0  0  0  0  0  0  0  0  0  0  0
  -28.7439  -18.1909   17.4394 C   0  0  0  0  0  0  0  0  0  0  0  0
  -19.7255  -14.9229   21.4037 C   0  0  0  0  0  0  0  0  0  0  0  0
  -26.5663  -26.3858   20.0851 C   0  0  0  0  0  0  0  0  0  0  0  0
  -17.5848  -14.4641   22.2577 C   0  0  0  0  0  0  0  0  0  0  0  0
  -15.8891  -12.7731   23.6887 C   0  0  0  0  0  0  0  0  0  0  0  0
  -16.9459  -14.9275   23.4078 C   0  0  0  0  0  0  0  0  0  0  0  0
  -23.7639  -13.7431   20.9603 C   0  0  0  0  0  0  0  0  0  0  0  0
  -25.6101  -12.6029   20.6044 C   0  0  0  0  0  0  0  0  0  0  0  0
  -30.5644  -21.4137   16.7497 C   0  0  0  0  0  0  0  0  0  0  0  0
  -23.5190  -11.2593   20.3390 C   0  0  0  0  0  0  0  0  0  0  0  0
  -22.5176  -29.6189   21.7036 C   0  0  0  0  0  0  0  0  0  0  0  0
  -24.7203  -31.4319   23.2473 C   0  0  0  0  0  0  0  0  0  0  0  0
  -27.9986  -31.9644   24.0320 C   0  0  0  0  0  0  0  0  0  0  0  0
  -29.2307  -17.2765   19.7357 C   0  0  0  0  0  0  0  0  0  0  0  0
  -17.6513  -31.0790   22.1985 C   0  0  0  0  0  0  0  0  0  0  0  0
  -23.7807  -27.8718   23.0105 C   0  0  0  0  0  0  0  0  0  0  0  0
  -25.6072  -29.7290   21.6106 C   0  0  0  0  0  0  0  0  0  0  0  0
  -19.0028  -31.7863   22.1399 C   0  0  0  0  0  0  0  0  0  0  0  0
  -29.1360  -15.1591   22.5966 C   0  0  0  0  0  0  0  0  0  0  0  0
  -19.8206  -31.2776   20.9570 C   0  0  0  0  0  0  0  0  0  0  0  0
  -27.7940  -14.4348   22.4673 C   0  0  0  0  0  0  0  0  0  0  0  0
  -29.9008  -24.6122   18.2950 C   0  0  0  0  0  0  0  0  0  0  0  0
  -29.0463  -16.6084   22.1221 C   0  0  0  0  0  0  0  0  0  0  0  0
  -30.8443  -23.7491   17.4637 C   0  0  0  0  0  0  0  0  0  0  0  0
  -27.1528  -16.0626   20.6436 C   0  0  0  0  0  0  0  0  0  0  0  0
  -28.6463  -22.6644   17.6548 C   0  0  0  0  0  0  0  0  0  0  0  0
  -20.1112  -29.7779   21.0914 C   0  0  1  0  0  0  0  0  0  0  0  0
  -23.4519  -29.3528   22.8499 C   0  0  1  0  0  0  0  0  0  0  0  0
  -27.2093  -14.5806   21.0487 C   0  0  2  0  0  0  0  0  0  0  0  0
  -28.4893  -24.1834   17.8516 C   0  0  2  0  0  0  0  0  0  0  0  0
  -28.0966  -24.8636   16.5303 C   0  0  0  0  0  0  0  0  0  0  0  0
  -29.4937  -33.5482   25.2784 C   0  0  0  0  0  0  0  0  0  0  0  0
  -24.4498  -33.4628   20.9863 C   0  0  0  0  0  0  0  0  0  0  0  0
  -26.5865  -34.5099   21.7648 C   0  0  0  0  0  0  0  0  0  0  0  0
  -24.6007  -34.4623   23.2737 C   0  0  0  0  0  0  0  0  0  0  0  0
  -28.9287  -29.8309   25.8601 C   0  0  0  0  0  0  0  0  0  0  0  0
  -27.4447  -24.5075   18.9206 C   0  0  0  0  0  0  0  0  0  1  0  0
  -25.8637  -32.3198   22.8194 C   0  0  1  0  0  0  0  0  0  0  0  0
  -28.6821  -32.2643   25.3538 C   0  0  2  0  0  0  0  0  0  0  0  0
  -25.3743  -33.6612   22.2040 C   0  0  0  0  0  0  0  0  0  0  0  0
  -24.7458  -14.6286   21.1496 N   0  0  0  0  0  0  0  0  0  0  0  0
  -25.8562  -13.9053   20.9262 N   0  0  0  0  0  0  0  0  0  0  0  0
  -30.0579  -22.5252   17.2518 N   0  0  0  0  0  0  0  0  0  0  0  0
  -24.6430  -30.1756   22.6297 N   0  0  0  0  0  0  0  0  0  0  0  0
  -28.4878  -16.6682   20.7695 N   0  0  0  0  0  0  0  0  0  0  0  0
  -27.4767  -18.7544   14.0036 N   0  0  0  0  0  0  0  0  0  0  0  0
  -26.6132  -11.7365   20.3482 N   0  0  0  0  0  0  0  0  0  0  0  0
  -22.1191  -11.2926   20.3979 N   0  0  0  0  0  0  0  0  0  0  0  0
  -28.6127  -17.2449   18.4861 N   0  0  0  0  0  0  0  0  0  0  0  0
  -21.1793  -29.5532   22.0416 N   0  0  0  0  0  0  0  0  0  0  0  0
  -26.7192  -32.4767   23.9908 N   0  0  0  0  0  0  0  0  0  0  0  0
  -31.8454  -21.3378   16.4011 N   0  3  0  0  0  0  0  0  0  0  0  0
  -29.5987  -31.1502   25.7276 N   0  3  0  0  0  0  0  0  0  0  0  0
  -24.0963  -10.1808   20.0617 O   0  0  0  0  0  0  0  0  0  0  0  0
  -22.9768  -29.8669   20.5949 O   0  0  0  0  0  0  0  0  0  0  0  0
  -23.9291  -31.8353   24.1035 O   0  0  0  0  0  0  0  0  0  0  0  0
  -28.5464  -31.3414   23.1252 O   0  0  0  0  0  0  0  0  0  0  0  0
  -30.3459  -17.7636   19.9381 O   0  0  0  0  0  0  0  0  0  0  0  0
  -18.4261  -15.3025   21.5458 O   0  0  0  0  0  0  0  0  0  0  0  0
  -27.4500  -25.9135   19.1643 O   0  0  0  0  0  0  0  0  0  1  0  0
  -15.0738  -11.9616   24.3749 F   0  0  0  0  0  0  0  0  0  0  0  0
  -17.1418  -16.1843   23.8296 F   0  0  0  0  0  0  0  0  0  0  0  0
  1  2  1  0  0  0  0
  1  5  2  0  0  0  0
  2  6  2  0  0  0  0
  3  8  2  0  0  0  0
  3 18  1  0  0  0  0
  4  9  1  0  0  0  0
  4 18  2  0  0  0  0
  5 21  1  0  0  0  0
  6 23  1  0  0  0  0
  7 10  2  0  0  0  0
  7 22  1  0  0  0  0
  8 27  1  0  0  0  0
  9 27  2  0  0  0  0
 10 28  1  0  0  0  0
 11 12  2  0  0  0  0
 11 29  1  0  0  0  0
 12 30  1  0  0  0  0
 13 19  1  0  0  0  0
 13 25  2  0  0  0  0
 14 19  2  0  0  0  0
 14 26  1  0  0  0  0
 15 24  1  0  0  0  0
 15 28  2  0  0  0  0
 16 25  1  0  0  0  0
 16 26  2  0  0  0  0
 17 30  2  0  0  0  0
 17 31  1  0  0  0  0
 18 32  1  0  0  0  0
 19 34  1  0  0  0  0
 20 32  1  0  0  0  0
 20 33  2  0  0  0  0
 20 35  1  0  0  0  0
 21 23  2  0  0  0  0
 21 40  1  0  0  0  0
 22 24  2  0  0  0  0
 22 41  1  0  0  0  0
 23 52  1  0  0  0  0
 24 42  1  0  0  0  0
 25 71  1  0  0  0  0
 26 74  1  0  0  0  0
 27 84  1  0  0  0  0
 28 85  1  0  0  0  0
 29 31  2  0  0  0  0
 29 84  1  0  0  0  0
 30 86  1  0  0  0  0
 31 87  1  0  0  0  0
 32 66  2  0  0  0  0
 33 67  1  0  0  0  0
 33 72  1  0  0  0  0
 34 68  1  0  0  0  0
 34 77  2  0  0  0  0
 35 73  1  0  0  0  0
 35 79  2  0  0  0  0
 36 53  1  0  0  0  0
 36 75  1  0  0  0  0
 36 80  2  0  0  0  0
 37 63  1  0  0  0  0
 37 69  1  0  0  0  0
 37 81  2  0  0  0  0
 38 64  1  0  0  0  0
 38 76  1  0  0  0  0
 38 82  2  0  0  0  0
 39 70  1  0  0  0  0
 39 74  1  0  0  0  0
 39 83  2  0  0  0  0
 40 43  1  0  0  0  0
 41 53  1  0  0  0  0
 42 69  1  0  0  0  0
 43 45  1  0  0  0  0
 44 46  1  0  0  0  0
 44 48  1  0  0  0  0
 45 52  1  0  0  0  0
 46 54  1  0  0  0  0
 47 49  1  0  0  0  0
 47 55  1  0  0  0  0
 48 70  1  0  0  0  0
 49 68  1  0  0  0  0
 50 54  1  0  0  0  0
 50 70  1  0  0  0  0
 51 55  1  0  0  0  0
 51 68  1  0  0  0  0
 52 75  1  0  0  0  0
 53 69  1  0  0  0  0
 54 67  1  0  0  0  0
 55 56  1  0  0  0  0
 55 62  1  0  0  0  0
 57 64  1  0  0  0  0
 58 65  1  0  0  0  0
 59 65  1  0  0  0  0
 60 65  1  0  0  0  0
 61 78  1  0  0  0  0
 62 85  1  0  0  0  0
 63 65  1  0  0  0  0
 63 76  1  0  0  0  0
 64 78  1  0  0  0  0
 66 67  1  0  0  0  0
M  CHG  2  77   1  78   1
M  ISO  4  39 100  62 101  74 100  85 101
M  END
> <Batch ID>
0148

> <Smiles>
CNC(C)C(=O)NC(C(=O)N1Cc2cc([101O:1][101CH2:1]C3(C)CCN(C(=N)c4cc(N)cc([100NH:0][100C:0](=O)N5CCCC(n6nc(-c7ccc(Oc8ccc(F)cc8F)cc7)c(C(N)=O)c6N)C5)c4)C3)ccc2CC1C(=O)NC1CCCc2ccccc21)C(C)(C)C

> <Shape>
0.256

> <Color>
0.074

> <Negative vol penalty>
0.000

$$$$

  -OEChem-04052303163D

 84 93  0     1  0  0  0  0  0999 V2000
  -24.6300  -37.4293   15.7811 C   0  0  0  0  0  0  0  0  0  0  0  0
  -25.6457  -36.9337   16.5924 C   0  0  0  0  0  0  0  0  0  0  0  0
  -22.6098  -10.0726   20.5073 C   0  0  0  0  0  0  0  0  0  0  0  0
  -24.5387   -8.9515   21.4344 C   0  0  0  0  0  0  0  0  0  0  0  0
  -23.2963  -37.2229   16.1313 C   0  0  0  0  0  0  0  0  0  0  0  0
  -25.3282  -36.2323   17.7550 C   0  0  0  0  0  0  0  0  0  0  0  0
  -27.5917  -29.4646   18.7378 C   0  0  0  0  0  0  0  0  0  0  0  0
  -21.7896   -9.4260   21.4318 C   0  0  0  0  0  0  0  0  0  0  0  0
  -23.7185   -8.3050   22.3590 C   0  0  0  0  0  0  0  0  0  0  0  0
  -28.1635  -28.2425   19.0924 C   0  0  0  0  0  0  0  0  0  0  0  0
  -21.6060   -5.6656   22.3976 C   0  0  0  0  0  0  0  0  0  0  0  0
  -21.8078   -4.3003   22.5996 C   0  0  0  0  0  0  0  0  0  0  0  0
  -26.9239  -28.2527   21.1687 C   0  0  0  0  0  0  0  0  0  0  0  0
  -27.7374  -18.9694   19.9913 C   0  0  0  0  0  0  0  0  0  0  0  0
  -22.2885   -4.7161   24.9305 C   0  0  0  0  0  0  0  0  0  0  0  0
  -25.6066  -19.8869   19.8497 C   0  0  0  0  0  0  0  0  0  0  0  0
  -23.9843   -9.8353   20.5085 C   0  0  0  0  0  0  0  0  0  0  0  0
  -24.7582  -10.4227   18.1497 C   0  0  0  0  0  0  0  0  0  0  0  0
  -22.9623  -36.5103   17.2937 C   0  0  0  0  0  0  0  0  0  0  0  0
  -26.6710  -30.0786   19.5914 C   0  0  0  0  0  0  0  0  0  0  0  0
  -23.9888  -36.0173   18.1217 C   0  0  0  0  0  0  0  0  0  0  0  0
  -26.3384  -29.4708   20.8132 C   0  0  0  0  0  0  0  0  0  0  0  0
  -26.9551  -20.1583   19.9230 C   0  0  0  0  0  0  0  0  0  0  0  0
  -22.3440   -8.5422   22.3577 C   0  0  0  0  0  0  0  0  0  0  0  0
  -27.8306  -27.6382   20.3049 C   0  0  0  0  0  0  0  0  0  0  0  0
  -21.7454   -6.5562   23.4621 C   0  0  0  0  0  0  0  0  0  0  0  0
  -22.1490   -3.8255   23.8660 C   0  0  0  0  0  0  0  0  0  0  0  0
  -22.0867   -6.0814   24.7285 C   0  0  0  0  0  0  0  0  0  0  0  0
  -24.8320  -10.5025   19.5533 C   0  0  0  0  0  0  0  0  0  0  0  0
  -25.7745  -11.2330   17.7059 C   0  0  0  0  0  0  0  0  0  0  0  0
  -26.9568  -17.8344   19.9678 C   0  0  0  0  0  0  0  0  0  0  0  0
  -23.8520   -9.6824   17.3213 C   0  0  0  0  0  0  0  0  0  0  0  0
  -24.3799  -32.9868   20.1991 C   0  0  0  0  0  0  0  0  0  0  0  0
  -22.9058  -30.4747   21.1620 C   0  0  0  0  0  0  0  0  0  0  0  0
  -20.5846  -28.1245   22.0138 C   0  0  0  0  0  0  0  0  0  0  0  0
  -28.5954  -15.9255   20.0994 C   0  0  0  0  0  0  0  0  0  0  0  0
  -21.5067  -36.3533   17.6558 C   0  0  0  0  0  0  0  0  0  0  0  0
  -26.0769  -31.4250   19.2784 C   0  0  0  0  0  0  0  0  0  0  0  0
  -25.3695  -30.1847   21.7157 C   0  0  0  0  0  0  0  0  0  0  0  0
  -21.2534  -35.2762   18.7075 C   0  0  0  0  0  0  0  0  0  0  0  0
  -30.0812  -12.8846   18.9938 C   0  0  0  0  0  0  0  0  0  0  0  0
  -22.2410  -35.4144   19.8618 C   0  0  0  0  0  0  0  0  0  0  0  0
  -28.8962  -11.9231   18.8782 C   0  0  0  0  0  0  0  0  0  0  0  0
  -28.9921  -23.1410   18.9395 C   0  0  0  0  0  0  0  0  0  0  0  0
  -27.2280  -23.8151   20.5879 C   0  0  0  0  0  0  0  0  0  0  0  0
  -29.9298  -13.8309   20.1834 C   0  0  0  0  0  0  0  0  0  0  0  0
  -28.8241  -21.6793   19.3621 C   0  0  0  0  0  0  0  0  0  0  0  0
  -27.0693  -22.3531   21.0093 C   0  0  0  0  0  0  0  0  0  0  0  0
  -27.4772  -13.6092   20.1153 C   0  0  0  0  0  0  0  0  0  0  0  0
  -23.6844  -35.2301   19.3778 C   0  0  1  0  0  0  0  0  0  0  0  0
  -24.6240  -31.5714   19.7649 C   0  0  1  0  0  0  0  0  0  0  0  0
  -27.5533  -12.6794   18.8933 C   0  0  2  0  0  0  0  0  0  0  0  0
  -28.6365  -24.1196   20.0636 C   0  0  0  0  0  0  0  0  0  0  0  0
  -18.5290  -27.8042   23.4172 C   0  0  0  0  0  0  0  0  0  0  0  0
  -24.6410  -30.3442   23.6672 C   0  0  0  0  0  0  0  0  0  0  0  0
  -22.7775  -29.1223   24.8083 C   0  0  0  0  0  0  0  0  0  0  0  0
  -22.4225  -31.4522   23.9909 C   0  0  0  0  0  0  0  0  0  0  0  0
  -18.9289  -27.4769   19.6477 C   0  0  0  0  0  0  0  0  0  0  0  0
  -28.7369  -25.5643   19.5736 C   0  0  0  0  0  0  0  0  0  1  0  0
  -22.5827  -29.5629   22.3185 C   0  0  1  0  0  0  0  0  0  0  0  0
  -19.0675  -28.1710   22.0431 C   0  0  2  0  0  0  0  0  0  0  0  0
  -23.1171  -30.1104   23.6721 C   0  0  0  0  0  0  0  0  0  0  0  0
  -25.8174  -11.3004   19.9733 N   0  0  0  0  0  0  0  0  0  0  0  0
  -26.3722  -11.7293   18.8269 N   0  0  0  0  0  0  0  0  0  0  0  0
  -27.4916  -21.4522   19.9293 N   0  0  0  0  0  0  0  0  0  0  0  0
  -24.2601  -30.7386   20.9238 N   0  0  0  0  0  0  0  0  0  0  0  0
  -28.6363  -14.5154   20.1288 N   0  0  0  0  0  0  0  0  0  0  0  0
  -26.2063  -11.5623   16.4699 N   0  0  0  0  0  0  0  0  0  0  0  0
  -24.2014   -8.3771   16.9492 N   0  0  0  0  0  0  0  0  0  0  0  0
  -27.3116  -16.4634   20.0147 N   0  0  0  0  0  0  0  0  0  0  0  0
  -23.9754  -33.8265   19.1790 N   0  0  0  0  0  0  0  0  0  0  0  0
  -21.1387  -29.3576   22.2854 N   0  0  0  0  0  0  0  0  0  0  0  0
  -18.5008  -27.2187   21.0466 N   0  3  0  0  0  0  0  0  0  0  0  0
  -22.7722  -10.1700   16.9092 O   0  0  0  0  0  0  0  0  0  0  0  0
  -24.5446  -33.2953   21.3736 O   0  0  0  0  0  0  0  0  0  0  0  0
  -21.9843  -30.9461   20.4898 O   0  0  0  0  0  0  0  0  0  0  0  0
  -21.2150  -27.0963   21.7776 O   0  0  0  0  0  0  0  0  0  0  0  0
  -29.6248  -16.6051   20.1184 O   0  0  0  0  0  0  0  0  0  0  0  0
  -29.5820  -23.9473   21.1218 O   0  0  0  0  0  0  0  0  0  0  0  0
  -21.5440   -7.9113   23.2602 O   0  0  0  0  0  0  0  0  0  0  0  0
  -28.3891  -26.4430   20.6428 O   0  0  0  0  0  0  0  0  0  1  0  0
  -22.3413   -2.5142   24.0601 F   0  0  0  0  0  0  0  0  0  0  0  0
  -22.2209   -6.9320   25.7553 F   0  0  0  0  0  0  0  0  0  0  0  0
  -25.2882  -18.2044   19.8635 S   0  0  0  0  0  0  0  0  0  0  0  0
  1  2  1  0  0  0  0
  1  5  2  0  0  0  0
  2  6  2  0  0  0  0
  3  8  2  0  0  0  0
  3 17  1  0  0  0  0
  4  9  1  0  0  0  0
  4 17  2  0  0  0  0
  5 19  1  0  0  0  0
  6 21  1  0  0  0  0
  7 10  2  0  0  0  0
  7 20  1  0  0  0  0
  8 24  1  0  0  0  0
  9 24  2  0  0  0  0
 10 25  1  0  0  0  0
 11 12  2  0  0  0  0
 11 26  1  0  0  0  0
 12 27  1  0  0  0  0
 13 22  1  0  0  0  0
 13 25  2  0  0  0  0
 14 23  1  0  0  0  0
 14 31  2  0  0  0  0
 15 27  2  0  0  0  0
 15 28  1  0  0  0  0
 16 23  2  0  0  0  0
 16 84  1  0  0  0  0
 17 29  1  0  0  0  0
 18 29  1  0  0  0  0
 18 30  2  0  0  0  0
 18 32  1  0  0  0  0
 19 21  2  0  0  0  0
 19 37  1  0  0  0  0
 20 22  2  0  0  0  0
 20 38  1  0  0  0  0
 21 50  1  0  0  0  0
 22 39  1  0  0  0  0
 23 65  1  0  0  0  0
 24 80  1  0  0  0  0
 25 81  1  0  0  0  0
 26 28  2  0  0  0  0
 26 80  1  0  0  0  0
 27 82  1  0  0  0  0
 28 83  1  0  0  0  0
 29 63  2  0  0  0  0
 30 64  1  0  0  0  0
 30 68  1  0  0  0  0
 31 70  1  0  0  0  0
 31 84  1  0  0  0  0
 32 69  1  0  0  0  0
 32 74  2  0  0  0  0
 33 51  1  0  0  0  0
 33 71  1  0  0  0  0
 33 75  2  0  0  0  0
 34 60  1  0  0  0  0
 34 66  1  0  0  0  0
 34 76  2  0  0  0  0
 35 61  1  0  0  0  0
 35 72  1  0  0  0  0
 35 77  2  0  0  0  0
 36 67  1  0  0  0  0
 36 70  1  0  0  0  0
 36 78  2  0  0  0  0
 37 40  1  0  0  0  0
 38 51  1  0  0  0  0
 39 66  1  0  0  0  0
 40 42  1  0  0  0  0
 41 43  1  0  0  0  0
 41 46  1  0  0  0  0
 42 50  1  0  0  0  0
 43 52  1  0  0  0  0
 44 47  1  0  0  0  0
 44 53  1  0  0  0  0
 45 48  1  0  0  0  0
 45 53  1  0  0  0  0
 46 67  1  0  0  0  0
 47 65  1  0  0  0  0
 48 65  1  0  0  0  0
 49 52  1  0  0  0  0
 49 67  1  0  0  0  0
 50 71  1  0  0  0  0
 51 66  1  0  0  0  0
 52 64  1  0  0  0  0
 53 59  1  0  0  0  0
 53 79  1  0  0  0  0
 54 61  1  0  0  0  0
 55 62  1  0  0  0  0
 56 62  1  0  0  0  0
 57 62  1  0  0  0  0
 58 73  1  0  0  0  0
 59 81  1  0  0  0  0
 60 62  1  0  0  0  0
 60 72  1  0  0  0  0
 61 73  1  0  0  0  0
 63 64  1  0  0  0  0
M  CHG  1  73   1
M  ISO  4  36 100  59 101  70 100  81 101
M  END
> <Batch ID>
0148

> <Smiles>
CNC(C)C(=O)NC(C(=O)N1Cc2cc([101O:1][101CH2:1]C3(O)CCN(c4csc([100NH:0][100C:0](=O)N5CCCC(n6nc(-c7ccc(Oc8ccc(F)cc8F)cc7)c(C(N)=O)c6N)C5)c4)CC3)ccc2CC1C(=O)NC1CCCc2ccccc21)C(C)(C)C

> <Shape>
0.286

> <Color>
0.103

> <Negative vol penalty>
0.000

$$$$

  -OEChem-04052303163D

 88 97  0     1  0  0  0  0  0999 V2000
  -21.9560  -30.3846   13.6418 C   0  0  0  0  0  0  0  0  0  0  0  0
  -23.0124  -29.8348   14.3610 C   0  0  0  0  0  0  0  0  0  0  0  0
  -26.5294  -11.6396   21.2048 C   0  0  0  0  0  0  0  0  0  0  0  0
  -26.0425  -12.6345   19.0576 C   0  0  0  0  0  0  0  0  0  0  0  0
  -21.6085  -31.7218   13.8283 C   0  0  0  0  0  0  0  0  0  0  0  0
  -23.7226  -30.6224   15.2664 C   0  0  0  0  0  0  0  0  0  0  0  0
  -24.5662  -28.2501   19.6602 C   0  0  0  0  0  0  0  0  0  0  0  0
  -29.7631  -20.2324   15.5617 C   0  0  0  0  0  0  0  0  0  0  0  0
  -30.1114  -19.1362   16.3507 C   0  0  0  0  0  0  0  0  0  0  0  0
  -25.1719  -11.3802   21.3925 C   0  0  0  0  0  0  0  0  0  0  0  0
  -24.6849  -12.3750   19.2453 C   0  0  0  0  0  0  0  0  0  0  0  0
  -25.5921  -27.3063   19.6875 C   0  0  0  0  0  0  0  0  0  0  0  0
  -22.9034   -9.1012   20.3469 C   0  0  0  0  0  0  0  0  0  0  0  0
  -22.5443   -7.8413   20.8255 C   0  0  0  0  0  0  0  0  0  0  0  0
  -31.0257  -20.6266   18.0180 C   0  0  0  0  0  0  0  0  0  0  0  0
  -27.0522  -28.9320   20.7096 C   0  0  0  0  0  0  0  0  0  0  0  0
  -21.5147   -8.8677   22.7551 C   0  0  0  0  0  0  0  0  0  0  0  0
  -26.9648  -12.2668   20.0374 C   0  0  0  0  0  0  0  0  0  0  0  0
  -30.6774  -21.7228   17.2289 C   0  0  0  0  0  0  0  0  0  0  0  0
  -29.3180  -11.6930   19.2369 C   0  0  0  0  0  0  0  0  0  0  0  0
  -22.3086  -32.5236   14.7435 C   0  0  0  0  0  0  0  0  0  0  0  0
  -24.7793  -29.5473   20.1482 C   0  0  0  0  0  0  0  0  0  0  0  0
  -23.3849  -31.9720   15.4644 C   0  0  0  0  0  0  0  0  0  0  0  0
  -26.0266  -29.8896   20.6896 C   0  0  0  0  0  0  0  0  0  0  0  0
  -30.0462  -21.5258   16.0008 C   0  0  0  0  0  0  0  0  0  0  0  0
  -30.7427  -19.3332   17.5788 C   0  0  0  0  0  0  0  0  0  0  0  0
  -24.2496  -11.7479   20.4128 C   0  0  0  0  0  0  0  0  0  0  0  0
  -26.8362  -27.6481   20.2096 C   0  0  0  0  0  0  0  0  0  0  0  0
  -22.5682  -10.2445   21.0724 C   0  0  0  0  0  0  0  0  0  0  0  0
  -21.8499   -7.7245   22.0296 C   0  0  0  0  0  0  0  0  0  0  0  0
  -21.8738  -10.1277   22.2765 C   0  0  0  0  0  0  0  0  0  0  0  0
  -28.3670  -12.5355   19.8431 C   0  0  0  0  0  0  0  0  0  0  0  0
  -30.4930  -12.4017   19.2979 C   0  0  0  0  0  0  0  0  0  0  0  0
  -30.9850  -23.0813   17.7109 C   0  0  0  0  0  0  0  0  0  0  0  0
  -29.1540  -10.3866   18.6693 C   0  0  0  0  0  0  0  0  0  0  0  0
  -24.7075  -32.4610   18.8797 C   0  0  0  0  0  0  0  0  0  0  0  0
  -25.1430  -33.3881   21.9576 C   0  0  0  0  0  0  0  0  0  0  0  0
  -26.2640  -32.6121   25.0861 C   0  0  0  0  0  0  0  0  0  0  0  0
  -31.7270  -18.2392   19.6235 C   0  0  0  0  0  0  0  0  0  0  0  0
  -21.9266  -33.9766   14.8763 C   0  0  0  0  0  0  0  0  0  0  0  0
  -23.6543  -30.5457   20.1361 C   0  0  0  0  0  0  0  0  0  0  0  0
  -26.3004  -31.2627   21.2447 C   0  0  0  0  0  0  0  0  0  0  0  0
  -22.4893  -34.6423   16.1295 C   0  0  0  0  0  0  0  0  0  0  0  0
  -32.7336  -15.7182   21.9275 C   0  0  0  0  0  0  0  0  0  0  0  0
  -23.9656  -34.2981   16.2997 C   0  0  0  0  0  0  0  0  0  0  0  0
  -31.8187  -14.5372   21.5952 C   0  0  0  0  0  0  0  0  0  0  0  0
  -32.0068  -17.0548   21.7900 C   0  0  0  0  0  0  0  0  0  0  0  0
  -30.4255  -16.0883   20.1669 C   0  0  0  0  0  0  0  0  0  0  0  0
  -28.7910  -23.3300   18.8898 C   0  0  0  0  0  0  0  0  0  0  0  0
  -24.1634  -32.7875   16.4738 C   0  0  1  0  0  0  0  0  0  0  0  0
  -24.1381  -31.9916   20.1886 C   0  0  1  0  0  0  0  0  0  0  0  0
  -31.1314  -14.7239   20.2283 C   0  0  2  0  0  0  0  0  0  0  0  0
  -28.8037  -24.5680   19.8248 C   0  0  2  0  0  0  0  0  0  0  0  0
  -30.0777  -25.0521   19.0125 C   0  0  0  0  0  0  0  0  0  0  0  0
  -29.6626  -22.6834   15.1385 C   0  0  0  0  0  0  0  0  0  0  0  0
  -29.0334  -24.1685   21.2879 C   0  0  0  0  0  0  0  0  0  0  0  0
  -31.3474  -25.3426   19.8084 C   0  0  0  0  0  0  0  0  0  0  0  0
  -29.8687  -26.0922   17.9112 C   0  0  0  0  0  0  0  0  0  0  0  0
  -26.5213  -33.5864   27.3844 C   0  0  0  0  0  0  0  0  0  0  0  0
  -27.5396  -35.0142   20.9973 C   0  0  0  0  0  0  0  0  0  0  0  0
  -28.2964  -35.1746   23.3784 C   0  0  0  0  0  0  0  0  0  0  0  0
  -26.1111  -36.1657   22.6967 C   0  0  0  0  0  0  0  0  0  0  0  0
  -24.4973  -30.5598   26.2802 C   0  0  0  0  0  0  0  0  0  0  0  0
  -27.5480  -25.4337   19.7140 C   0  0  0  0  0  0  0  0  0  1  0  0
  -26.3427  -33.6519   22.8351 C   0  0  1  0  0  0  0  0  0  0  0  0
  -25.6282  -32.7800   26.4544 C   0  0  2  0  0  0  0  0  0  0  0  0
  -27.0682  -34.9762   22.4647 C   0  0  0  0  0  0  0  0  0  0  0  0
  -28.8924  -13.6910   20.2588 N   0  0  0  0  0  0  0  0  0  0  0  0
  -30.1863  -13.5796   19.9133 N   0  0  0  0  0  0  0  0  0  0  0  0
  -30.1052  -23.7198   18.4339 N   0  0  0  0  0  0  0  0  0  0  0  0
  -25.1705  -32.2057   21.2047 N   0  0  0  0  0  0  0  0  0  0  0  0
  -31.3840  -17.1629   20.4689 N   0  0  0  0  0  0  0  0  0  0  0  0
  -31.7482  -12.1260   18.8846 N   0  0  0  0  0  0  0  0  0  0  0  0
  -27.8792   -9.8046   18.6895 N   0  0  0  0  0  0  0  0  0  0  0  0
  -31.0962  -18.2192   18.3799 N   0  0  0  0  0  0  0  0  0  0  0  0
  -23.8222  -32.3851   17.8215 N   0  0  0  0  0  0  0  0  0  0  0  0
  -25.8614  -33.5989   24.2113 N   0  0  0  0  0  0  0  0  0  0  0  0
  -32.1545  -23.6345   17.4033 N   0  3  0  0  0  0  0  0  0  0  0  0
  -25.3808  -31.4490   27.0774 N   0  3  0  0  0  0  0  0  0  0  0  0
  -30.1129   -9.7474   18.1740 O   0  0  0  0  0  0  0  0  0  0  0  0
  -25.8640  -32.8637   18.8337 O   0  0  0  0  0  0  0  0  0  0  0  0
  -24.2124  -34.1978   21.9461 O   0  0  0  0  0  0  0  0  0  0  0  0
  -27.0430  -31.6992   24.8211 O   0  0  0  0  0  0  0  0  0  0  0  0
  -32.5423  -19.0993   19.9661 O   0  0  0  0  0  0  0  0  0  0  0  0
  -22.9248  -11.4947   20.5955 O   0  0  0  0  0  0  0  0  0  0  0  0
  -27.8394  -26.7291   20.2369 O   0  0  0  0  0  0  0  0  0  1  0  0
  -21.5038   -6.5145   22.4883 F   0  0  0  0  0  0  0  0  0  0  0  0
  -21.5480  -11.2224   22.9773 F   0  0  0  0  0  0  0  0  0  0  0  0
  1  2  1  0  0  0  0
  1  5  2  0  0  0  0
  2  6  2  0  0  0  0
  3 10  2  0  0  0  0
  3 18  1  0  0  0  0
  4 11  1  0  0  0  0
  4 18  2  0  0  0  0
  5 21  1  0  0  0  0
  6 23  1  0  0  0  0
  7 12  2  0  0  0  0
  7 22  1  0  0  0  0
  8  9  2  0  0  0  0
  8 25  1  0  0  0  0
  9 26  1  0  0  0  0
 10 27  1  0  0  0  0
 11 27  2  0  0  0  0
 12 28  1  0  0  0  0
 13 14  2  0  0  0  0
 13 29  1  0  0  0  0
 14 30  1  0  0  0  0
 15 19  1  0  0  0  0
 15 26  2  0  0  0  0
 16 24  1  0  0  0  0
 16 28  2  0  0  0  0
 17 30  2  0  0  0  0
 17 31  1  0  0  0  0
 18 32  1  0  0  0  0
 19 25  2  0  0  0  0
 19 34  1  0  0  0  0
 20 32  1  0  0  0  0
 20 33  2  0  0  0  0
 20 35  1  0  0  0  0
 21 23  2  0  0  0  0
 21 40  1  0  0  0  0
 22 24  2  0  0  0  0
 22 41  1  0  0  0  0
 23 50  1  0  0  0  0
 24 42  1  0  0  0  0
 25 55  1  0  0  0  0
 26 75  1  0  0  0  0
 27 85  1  0  0  0  0
 28 86  1  0  0  0  0
 29 31  2  0  0  0  0
 29 85  1  0  0  0  0
 30 87  1  0  0  0  0
 31 88  1  0  0  0  0
 32 68  2  0  0  0  0
 33 69  1  0  0  0  0
 33 73  1  0  0  0  0
 34 70  1  0  0  0  0
 34 78  2  0  0  0  0
 35 74  1  0  0  0  0
 35 80  2  0  0  0  0
 36 51  1  0  0  0  0
 36 76  1  0  0  0  0
 36 81  2  0  0  0  0
 37 65  1  0  0  0  0
 37 71  1  0  0  0  0
 37 82  2  0  0  0  0
 38 66  1  0  0  0  0
 38 77  1  0  0  0  0
 38 83  2  0  0  0  0
 39 72  1  0  0  0  0
 39 75  1  0  0  0  0
 39 84  2  0  0  0  0
 40 43  1  0  0  0  0
 41 51  1  0  0  0  0
 42 71  1  0  0  0  0
 43 45  1  0  0  0  0
 44 46  1  0  0  0  0
 44 47  1  0  0  0  0
 45 50  1  0  0  0  0
 46 52  1  0  0  0  0
 47 72  1  0  0  0  0
 48 52  1  0  0  0  0
 48 72  1  0  0  0  0
 49 53  1  0  0  0  0
 49 70  1  0  0  0  0
 50 76  1  0  0  0  0
 51 71  1  0  0  0  0
 52 69  1  0  0  0  0
 53 54  1  0  0  0  0
 53 56  1  0  0  0  0
 53 64  1  0  0  0  0
 54 57  1  0  0  0  0
 54 58  1  0  0  0  0
 54 70  1  0  0  0  0
 59 66  1  0  0  0  0
 60 67  1  0  0  0  0
 61 67  1  0  0  0  0
 62 67  1  0  0  0  0
 63 79  1  0  0  0  0
 64 86  1  0  0  0  0
 65 67  1  0  0  0  0
 65 77  1  0  0  0  0
 66 79  1  0  0  0  0
 68 69  1  0  0  0  0
M  CHG  2  78   1  79   1
M  ISO  4  39 100  64 101  75 100  86 101
M  END
> <Batch ID>
0148

> <Smiles>
CNC(C)C(=O)NC(C(=O)N1Cc2cc([101O:1][101CH2:1]C3(C)CN(C(=N)c4cc([100NH:0][100C:0](=O)N5CCCC(n6nc(-c7ccc(Oc8ccc(F)cc8F)cc7)c(C(N)=O)c6N)C5)ccc4C)C3(C)C)ccc2CC1C(=O)NC1CCCc2ccccc21)C(C)(C)C

> <Shape>
0.301

> <Color>
0.084

> <Negative vol penalty>
0.000

$$$$

  -OEChem-04052303163D

 89 98  0     1  0  0  0  0  0999 V2000
  -17.0759  -23.2741   23.1675 C   0  0  0  0  0  0  0  0  0  0  0  0
  -18.4198  -22.9218   23.0949 C   0  0  0  0  0  0  0  0  0  0  0  0
  -26.5964   -9.7693   20.0926 C   0  0  0  0  0  0  0  0  0  0  0  0
  -25.4607  -11.5528   18.9237 C   0  0  0  0  0  0  0  0  0  0  0  0
  -16.6174  -24.4103   22.5022 C   0  0  0  0  0  0  0  0  0  0  0  0
  -19.3057  -23.7049   22.3558 C   0  0  0  0  0  0  0  0  0  0  0  0
  -30.5647  -23.4624   20.5896 C   0  0  0  0  0  0  0  0  0  0  0  0
  -31.7861  -23.1542   22.6512 C   0  0  0  0  0  0  0  0  0  0  0  0
  -26.1337  -25.8711   22.3031 C   0  0  0  0  0  0  0  0  0  0  0  0
  -31.1874  -24.6968   20.4051 C   0  0  0  0  0  0  0  0  0  0  0  0
  -32.4089  -24.3886   22.4668 C   0  0  0  0  0  0  0  0  0  0  0  0
  -25.4301   -9.0049   20.0595 C   0  0  0  0  0  0  0  0  0  0  0  0
  -24.2944  -10.7884   18.8905 C   0  0  0  0  0  0  0  0  0  0  0  0
  -27.2418  -25.9197   21.4583 C   0  0  0  0  0  0  0  0  0  0  0  0
  -22.5043   -8.8514   21.7450 C   0  0  0  0  0  0  0  0  0  0  0  0
  -22.1263   -8.1963   22.9168 C   0  0  0  0  0  0  0  0  0  0  0  0
  -26.3520  -27.9045   20.4153 C   0  0  0  0  0  0  0  0  0  0  0  0
  -22.2695   -6.0718   21.7753 C   0  0  0  0  0  0  0  0  0  0  0  0
  -26.6117  -11.0433   19.5248 C   0  0  0  0  0  0  0  0  0  0  0  0
  -28.8441  -11.8586   18.5980 C   0  0  0  0  0  0  0  0  0  0  0  0
  -30.8640  -22.6911   21.7127 C   0  0  0  0  0  0  0  0  0  0  0  0
  -17.5000  -25.2132   21.7625 C   0  0  0  0  0  0  0  0  0  0  0  0
  -25.1195  -26.8342   22.2028 C   0  0  0  0  0  0  0  0  0  0  0  0
  -18.8583  -24.8522   21.6788 C   0  0  0  0  0  0  0  0  0  0  0  0
  -25.2334  -27.8674   21.2617 C   0  0  0  0  0  0  0  0  0  0  0  0
  -32.1095  -25.1599   21.3437 C   0  0  0  0  0  0  0  0  0  0  0  0
  -24.2791   -9.5144   19.4584 C   0  0  0  0  0  0  0  0  0  0  0  0
  -27.3497  -26.9348   20.5123 C   0  0  0  0  0  0  0  0  0  0  0  0
  -22.7649   -8.1168   20.5882 C   0  0  0  0  0  0  0  0  0  0  0  0
  -22.0089   -6.8064   22.9320 C   0  0  0  0  0  0  0  0  0  0  0  0
  -22.6476   -6.7270   20.6033 C   0  0  0  0  0  0  0  0  0  0  0  0
  -27.8159  -11.8336   19.5592 C   0  0  0  0  0  0  0  0  0  0  0  0
  -29.7535  -12.7620   19.0912 C   0  0  0  0  0  0  0  0  0  0  0  0
  -28.9662  -11.1303   17.3690 C   0  0  0  0  0  0  0  0  0  0  0  0
  -22.0174  -26.7615   21.5130 C   0  0  0  0  0  0  0  0  0  0  0  0
  -31.1590  -27.9673   20.2433 C   0  0  0  0  0  0  0  0  0  0  0  0
  -22.1672  -29.9055   22.2975 C   0  0  0  0  0  0  0  0  0  0  0  0
  -24.0640  -32.7244   22.6182 C   0  0  0  0  0  0  0  0  0  0  0  0
  -30.4245  -17.8848   21.3105 C   0  0  0  0  0  0  0  0  0  0  0  0
  -16.9490  -26.4056   21.0214 C   0  0  0  0  0  0  0  0  0  0  0  0
  -23.9436  -26.7832   23.1394 C   0  0  0  0  0  0  0  0  0  0  0  0
  -24.1817  -28.9372   21.1273 C   0  0  0  0  0  0  0  0  0  0  0  0
  -18.0234  -27.3904   20.5676 C   0  0  0  0  0  0  0  0  0  0  0  0
  -30.1076  -14.9584   23.6221 C   0  0  0  0  0  0  0  0  0  0  0  0
  -19.1860  -26.6490   19.9154 C   0  0  0  0  0  0  0  0  0  0  0  0
  -29.4976  -13.9151   22.6873 C   0  0  0  0  0  0  0  0  0  0  0  0
  -29.7190  -16.3713   23.2027 C   0  0  0  0  0  0  0  0  0  0  0  0
  -29.6447  -18.9097   23.4264 C   0  0  0  0  0  0  0  0  0  0  0  0
  -31.2015  -20.1970   22.0018 C   0  0  0  0  0  0  0  0  0  0  0  0
  -29.4605  -15.6590   20.8467 C   0  0  0  0  0  0  0  0  0  0  0  0
  -28.6082  -20.0163   23.3469 C   0  0  0  0  0  0  0  0  0  0  0  0
  -19.8549  -25.6901   20.9076 C   0  0  1  0  0  0  0  0  0  0  0  0
  -30.1886  -21.3521   21.9139 C   0  0  1  0  0  0  0  0  0  0  0  0
  -22.7202  -27.5201   22.6031 C   0  0  1  0  0  0  0  0  0  0  0  0
  -29.8482  -14.2190   21.2209 C   0  0  2  0  0  0  0  0  0  0  0  0
  -33.6184  -28.2433   19.8593 C   0  0  0  0  0  0  0  0  0  0  0  0
  -23.8989  -35.1493   23.2427 C   0  0  0  0  0  0  0  0  0  0  0  0
  -20.8896  -30.5124   19.5939 C   0  0  0  0  0  0  0  0  0  0  0  0
  -21.6142  -32.8935   19.8643 C   0  0  0  0  0  0  0  0  0  0  0  0
  -20.0155  -31.8855   21.4925 C   0  0  0  0  0  0  0  0  0  0  0  0
  -25.9441  -32.3896   24.8792 C   0  0  0  0  0  0  0  0  0  0  0  0
  -30.3474  -28.2680   18.9884 C   0  0  0  0  0  0  0  0  0  0  0  0
  -28.8464  -28.2720   19.2365 C   0  0  0  0  0  0  0  0  0  1  0  0
  -32.4835  -27.2463   20.0274 C   0  0  1  0  0  0  0  0  0  0  0  0
  -22.4438  -31.1836   21.5432 C   0  0  1  0  0  0  0  0  0  0  0  0
  -24.1776  -33.7397   23.7410 C   0  0  2  0  0  0  0  0  0  0  0  0
  -21.2598  -31.5976   20.6245 C   0  0  0  0  0  0  0  0  0  0  0  0
  -28.0496  -12.6557   20.5856 N   0  0  0  0  0  0  0  0  0  0  0  0
  -29.2350  -13.2057   20.2721 N   0  0  0  0  0  0  0  0  0  0  0  0
  -23.0480  -28.8405   22.0616 N   0  0  0  0  0  0  0  0  0  0  0  0
  -30.0308  -16.6240   21.7891 N   0  0  0  0  0  0  0  0  0  0  0  0
  -30.5183  -18.9194   22.2535 N   0  0  0  0  0  0  0  0  0  0  0  0
  -30.9380  -13.2122   18.6258 N   0  0  0  0  0  0  0  0  0  0  0  0
  -27.9410  -10.2433   17.0132 N   0  0  0  0  0  0  0  0  0  0  0  0
  -32.7408  -26.4071   21.1566 N   0  0  0  0  0  0  0  0  0  0  0  0
  -20.7131  -26.4203   21.8158 N   0  0  0  0  0  0  0  0  0  0  0  0
  -22.7986  -32.1812   22.5468 N   0  0  0  0  0  0  0  0  0  0  0  0
  -29.3108  -21.3201   23.1409 N   0  3  0  0  0  0  0  0  0  0  0  0
  -25.5468  -33.7110   24.3287 N   0  3  0  0  0  0  0  0  0  0  0  0
  -29.9630  -11.2499   16.6168 O   0  0  0  0  0  0  0  0  0  0  0  0
  -22.6139  -26.5061   20.4734 O   0  0  0  0  0  0  0  0  0  0  0  0
  -30.7781  -28.3062   21.3641 O   0  0  0  0  0  0  0  0  0  0  0  0
  -21.2091  -29.8562   23.0730 O   0  0  0  0  0  0  0  0  0  0  0  0
  -25.0027  -32.4440   21.8761 O   0  0  0  0  0  0  0  0  0  0  0  0
  -30.6816  -18.0712   20.1147 O   0  0  0  0  0  0  0  0  0  0  0  0
  -23.1409   -8.7687   19.4257 O   0  0  0  0  0  0  0  0  0  0  0  0
  -28.4374  -26.9845   19.6803 O   0  0  0  0  0  0  0  0  0  1  0  0
  -21.6473   -6.1772   24.0579 F   0  0  0  0  0  0  0  0  0  0  0  0
  -22.8978   -6.0158   19.4955 F   0  0  0  0  0  0  0  0  0  0  0  0
  1  2  1  0  0  0  0
  1  5  2  0  0  0  0
  2  6  2  0  0  0  0
  3 12  2  0  0  0  0
  3 19  1  0  0  0  0
  4 13  1  0  0  0  0
  4 19  2  0  0  0  0
  5 22  1  0  0  0  0
  6 24  1  0  0  0  0
  7 10  2  0  0  0  0
  7 21  1  0  0  0  0
  8 11  1  0  0  0  0
  8 21  2  0  0  0  0
  9 14  2  0  0  0  0
  9 23  1  0  0  0  0
 10 26  1  0  0  0  0
 11 26  2  0  0  0  0
 12 27  1  0  0  0  0
 13 27  2  0  0  0  0
 14 28  1  0  0  0  0
 15 16  2  0  0  0  0
 15 29  1  0  0  0  0
 16 30  1  0  0  0  0
 17 25  1  0  0  0  0
 17 28  2  0  0  0  0
 18 30  2  0  0  0  0
 18 31  1  0  0  0  0
 19 32  1  0  0  0  0
 20 32  1  0  0  0  0
 20 33  2  0  0  0  0
 20 34  1  0  0  0  0
 21 53  1  0  0  0  0
 22 24  2  0  0  0  0
 22 40  1  0  0  0  0
 23 25  2  0  0  0  0
 23 41  1  0  0  0  0
 24 52  1  0  0  0  0
 25 42  1  0  0  0  0
 26 75  1  0  0  0  0
 27 86  1  0  0  0  0
 28 87  1  0  0  0  0
 29 31  2  0  0  0  0
 29 86  1  0  0  0  0
 30 88  1  0  0  0  0
 31 89  1  0  0  0  0
 32 68  2  0  0  0  0
 33 69  1  0  0  0  0
 33 73  1  0  0  0  0
 34 74  1  0  0  0  0
 34 80  2  0  0  0  0
 35 54  1  0  0  0  0
 35 76  1  0  0  0  0
 35 81  2  0  0  0  0
 36 62  1  0  0  0  0
 36 64  1  0  0  0  0
 36 82  2  0  0  0  0
 37 65  1  0  0  0  0
 37 70  1  0  0  0  0
 37 83  2  0  0  0  0
 38 66  1  0  0  0  0
 38 77  1  0  0  0  0
 38 84  2  0  0  0  0
 39 71  1  0  0  0  0
 39 72  1  0  0  0  0
 39 85  2  0  0  0  0
 40 43  1  0  0  0  0
 41 54  1  0  0  0  0
 42 70  1  0  0  0  0
 43 45  1  0  0  0  0
 44 46  1  0  0  0  0
 44 47  1  0  0  0  0
 45 52  1  0  0  0  0
 46 55  1  0  0  0  0
 47 71  1  0  0  0  0
 48 51  1  0  0  0  0
 48 72  1  0  0  0  0
 49 53  1  0  0  0  0
 49 72  1  0  0  0  0
 50 55  1  0  0  0  0
 50 71  1  0  0  0  0
 51 78  1  0  0  0  0
 52 76  1  0  0  0  0
 53 78  1  0  0  0  0
 54 70  1  0  0  0  0
 55 69  1  0  0  0  0
 56 64  1  0  0  0  0
 57 66  1  0  0  0  0
 58 67  1  0  0  0  0
 59 67  1  0  0  0  0
 60 67  1  0  0  0  0
 61 79  1  0  0  0  0
 62 63  1  0  0  0  0
 63 87  1  0  0  0  0
 64 75  1  0  0  0  0
 65 67  1  0  0  0  0
 65 77  1  0  0  0  0
 66 79  1  0  0  0  0
 68 69  1  0  0  0  0
M  CHG  2  78   1  79   1
M  ISO  4  39 100  63 101  72 100  87 101
M  END
> <Batch ID>
0148

> <Smiles>
CNC(C)C(=O)NC(C(=O)N1Cc2cc([101O:1][101CH2:1]CC(=O)C(C)Nc3ccc(C4C[100N:0]([100C:0](=O)N5CCCC(n6nc(-c7ccc(Oc8ccc(F)cc8F)cc7)c(C(N)=O)c6N)C5)CCN4)cc3)ccc2CC1C(=O)NC1CCCc2ccccc21)C(C)(C)C

> <Shape>
0.272

> <Color>
0.063

> <Negative vol penalty>
0.000

$$$$

  -OEChem-04052303163D

 85 94  0     1  0  0  0  0  0999 V2000
  -28.6686  -36.4556   20.7760 C   0  0  0  0  0  0  0  0  0  0  0  0
  -28.8824  -35.0833   20.8555 C   0  0  0  0  0  0  0  0  0  0  0  0
  -27.9995   -8.3381   16.1177 C   0  0  0  0  0  0  0  0  0  0  0  0
  -29.5451  -10.1823   15.9002 C   0  0  0  0  0  0  0  0  0  0  0  0
  -27.5820  -37.0300   21.4342 C   0  0  0  0  0  0  0  0  0  0  0  0
  -28.0102  -34.2845   21.5942 C   0  0  0  0  0  0  0  0  0  0  0  0
  -26.7221  -30.0400   19.1509 C   0  0  0  0  0  0  0  0  0  0  0  0
  -28.2408   -7.9795   14.7915 C   0  0  0  0  0  0  0  0  0  0  0  0
  -29.7865   -9.8236   14.5741 C   0  0  0  0  0  0  0  0  0  0  0  0
  -27.6534  -29.0025   19.1425 C   0  0  0  0  0  0  0  0  0  0  0  0
  -31.0827   -9.1780   11.2392 C   0  0  0  0  0  0  0  0  0  0  0  0
  -32.4071   -9.1611   10.8019 C   0  0  0  0  0  0  0  0  0  0  0  0
  -25.9846  -20.2707   18.9627 C   0  0  0  0  0  0  0  0  0  0  0  0
  -26.4035  -21.6325   18.9435 C   0  0  0  0  0  0  0  0  0  0  0  0
  -26.4417  -27.9084   20.9184 C   0  0  0  0  0  0  0  0  0  0  0  0
  -32.9375   -7.4983   12.4724 C   0  0  0  0  0  0  0  0  0  0  0  0
  -28.6516   -9.4396   16.6721 C   0  0  0  0  0  0  0  0  0  0  0  0
  -29.0954   -9.3649   19.1831 C   0  0  0  0  0  0  0  0  0  0  0  0
  -26.6905  -36.2366   22.1734 C   0  0  0  0  0  0  0  0  0  0  0  0
  -25.6478  -30.0248   20.0521 C   0  0  0  0  0  0  0  0  0  0  0  0
  -26.9113  -34.8490   22.2640 C   0  0  0  0  0  0  0  0  0  0  0  0
  -25.4967  -28.9456   20.9345 C   0  0  0  0  0  0  0  0  0  0  0  0
  -29.1343   -8.7222   14.0197 C   0  0  0  0  0  0  0  0  0  0  0  0
  -27.5150  -27.9380   20.0283 C   0  0  0  0  0  0  0  0  0  0  0  0
  -30.6856   -8.3550   12.2932 C   0  0  0  0  0  0  0  0  0  0  0  0
  -33.3345   -8.3213   11.4185 C   0  0  0  0  0  0  0  0  0  0  0  0
  -31.6131   -7.5152   12.9098 C   0  0  0  0  0  0  0  0  0  0  0  0
  -28.4024   -9.8109   18.0418 C   0  0  0  0  0  0  0  0  0  0  0  0
  -27.0478  -19.4008   18.8610 C   0  0  0  0  0  0  0  0  0  0  0  0
  -28.4799  -10.0054   20.2306 C   0  0  0  0  0  0  0  0  0  0  0  0
  -27.7712  -21.7514   18.8281 C   0  0  0  0  0  0  0  0  0  0  0  0
  -30.1971   -8.4532   19.2870 C   0  0  0  0  0  0  0  0  0  0  0  0
  -24.6904  -31.9008   22.4328 C   0  0  0  0  0  0  0  0  0  0  0  0
  -22.1187  -29.9237   22.4381 C   0  0  0  0  0  0  0  0  0  0  0  0
  -28.2060  -24.2323   18.8228 C   0  0  0  0  0  0  0  0  0  0  0  0
  -20.8156  -26.8632   21.6752 C   0  0  0  0  0  0  0  0  0  0  0  0
  -25.3284  -15.0789   20.5872 C   0  0  0  0  0  0  0  0  0  0  0  0
  -25.5570  -36.9090   22.9067 C   0  0  0  0  0  0  0  0  0  0  0  0
  -24.6368  -31.1383   20.0304 C   0  0  0  0  0  0  0  0  0  0  0  0
  -24.3498  -28.8718   21.9080 C   0  0  0  0  0  0  0  0  0  0  0  0
  -24.4661  -35.9421   23.3599 C   0  0  0  0  0  0  0  0  0  0  0  0
  -24.2930  -11.8475   21.5717 C   0  0  0  0  0  0  0  0  0  0  0  0
  -25.0828  -34.7130   24.0201 C   0  0  0  0  0  0  0  0  0  0  0  0
  -25.2655  -10.9086   20.8632 C   0  0  0  0  0  0  0  0  0  0  0  0
  -26.1959  -17.2188   17.7373 C   0  0  0  0  0  0  0  0  0  0  0  0
  -23.9447  -13.0353   20.6848 C   0  0  0  0  0  0  0  0  0  0  0  0
  -26.0549  -15.7863   18.2343 C   0  0  0  0  0  0  0  0  0  0  0  0
  -26.4295  -17.2427   20.1001 C   0  0  0  0  0  0  0  0  0  0  0  0
  -26.1458  -12.9067   19.5496 C   0  0  0  0  0  0  0  0  0  0  0  0
  -25.9732  -33.9459   23.0350 C   0  0  1  0  0  0  0  0  0  0  0  0
  -27.0286  -17.8883   18.8426 C   0  0  2  0  0  0  0  0  0  0  0  0
  -23.8692  -31.2740   21.3417 C   0  0  1  0  0  0  0  0  0  0  0  0
  -26.5150  -11.6728   20.3988 C   0  0  2  0  0  0  0  0  0  0  0  0
  -18.6955  -25.5299   21.8333 C   0  0  0  0  0  0  0  0  0  0  0  0
  -22.6200  -29.4841   25.4156 C   0  0  0  0  0  0  0  0  0  0  0  0
  -21.1259  -27.4785   25.3000 C   0  0  0  0  0  0  0  0  0  0  0  0
  -20.2125  -29.7432   24.7902 C   0  0  0  0  0  0  0  0  0  0  0  0
  -20.6392  -26.5774   18.7348 C   0  0  0  0  0  0  0  0  0  0  0  0
  -29.4198  -25.1500   18.7308 C   0  0  0  0  0  0  0  0  0  0  0  0
  -29.0576  -26.6266   18.7807 C   0  0  0  0  0  0  0  0  0  1  0  0
  -21.7653  -28.6312   23.1335 C   0  0  1  0  0  0  0  0  0  0  0  0
  -19.5321  -26.4621   20.9708 C   0  0  2  0  0  0  0  0  0  0  0  0
  -21.4537  -28.8363   24.6429 C   0  0  0  0  0  0  0  0  0  0  0  0
  -27.4215  -10.6683   18.3364 N   0  0  0  0  0  0  0  0  0  0  0  0
  -27.4938  -10.7662   19.6748 N   0  0  0  0  0  0  0  0  0  0  0  0
  -23.3910  -29.9877   21.8525 N   0  0  0  0  0  0  0  0  0  0  0  0
  -25.1425  -13.7403   20.2245 N   0  0  0  0  0  0  0  0  0  0  0  0
  -25.9952  -15.9114   19.6892 N   0  0  0  0  0  0  0  0  0  0  0  0
  -28.6913   -9.9863   21.5638 N   0  0  0  0  0  0  0  0  0  0  0  0
  -30.7078   -7.8856   18.1117 N   0  0  0  0  0  0  0  0  0  0  0  0
  -28.5713  -22.8588   18.7739 N   0  0  0  0  0  0  0  0  0  0  0  0
  -25.1636  -33.1624   22.1266 N   0  0  0  0  0  0  0  0  0  0  0  0
  -20.6684  -28.0443   22.3714 N   0  0  0  0  0  0  0  0  0  0  0  0
  -19.8402  -25.7666   19.6893 N   0  3  0  0  0  0  0  0  0  0  0  0
  -30.7027   -8.1382   20.3909 O   0  0  0  0  0  0  0  0  0  0  0  0
  -24.8793  -31.2859   23.4758 O   0  0  0  0  0  0  0  0  0  0  0  0
  -21.2935  -30.8401   22.4092 O   0  0  0  0  0  0  0  0  0  0  0  0
  -27.0642  -24.6683   18.9254 O   0  0  0  0  0  0  0  0  0  0  0  0
  -21.8446  -26.1937   21.6170 O   0  0  0  0  0  0  0  0  0  0  0  0
  -24.8806  -15.5243   21.6526 O   0  0  0  0  0  0  0  0  0  0  0  0
  -29.3702   -8.3723   12.7257 O   0  0  0  0  0  0  0  0  0  0  0  0
  -28.4294  -26.9172   20.0226 O   0  0  0  0  0  0  0  0  0  1  0  0
  -34.6059   -8.3040   10.9974 F   0  0  0  0  0  0  0  0  0  0  0  0
  -31.2373   -6.7214   13.9220 F   0  0  0  0  0  0  0  0  0  0  0  0
  -28.5439  -20.2256   18.7432 S   0  0  0  0  0  0  0  0  0  0  0  0
  1  2  1  0  0  0  0
  1  5  2  0  0  0  0
  2  6  2  0  0  0  0
  3  8  2  0  0  0  0
  3 17  1  0  0  0  0
  4  9  1  0  0  0  0
  4 17  2  0  0  0  0
  5 19  1  0  0  0  0
  6 21  1  0  0  0  0
  7 10  2  0  0  0  0
  7 20  1  0  0  0  0
  8 23  1  0  0  0  0
  9 23  2  0  0  0  0
 10 24  1  0  0  0  0
 11 12  2  0  0  0  0
 11 25  1  0  0  0  0
 12 26  1  0  0  0  0
 13 14  1  0  0  0  0
 13 29  2  0  0  0  0
 14 31  2  0  0  0  0
 15 22  1  0  0  0  0
 15 24  2  0  0  0  0
 16 26  2  0  0  0  0
 16 27  1  0  0  0  0
 17 28  1  0  0  0  0
 18 28  1  0  0  0  0
 18 30  2  0  0  0  0
 18 32  1  0  0  0  0
 19 21  2  0  0  0  0
 19 38  1  0  0  0  0
 20 22  2  0  0  0  0
 20 39  1  0  0  0  0
 21 50  1  0  0  0  0
 22 40  1  0  0  0  0
 23 81  1  0  0  0  0
 24 82  1  0  0  0  0
 25 27  2  0  0  0  0
 25 81  1  0  0  0  0
 26 83  1  0  0  0  0
 27 84  1  0  0  0  0
 28 64  2  0  0  0  0
 29 51  1  0  0  0  0
 29 85  1  0  0  0  0
 30 65  1  0  0  0  0
 30 69  1  0  0  0  0
 31 71  1  0  0  0  0
 31 85  1  0  0  0  0
 32 70  1  0  0  0  0
 32 75  2  0  0  0  0
 33 52  1  0  0  0  0
 33 72  1  0  0  0  0
 33 76  2  0  0  0  0
 34 61  1  0  0  0  0
 34 66  1  0  0  0  0
 34 77  2  0  0  0  0
 35 59  1  0  0  0  0
 35 71  1  0  0  0  0
 35 78  2  0  0  0  0
 36 62  1  0  0  0  0
 36 73  1  0  0  0  0
 36 79  2  0  0  0  0
 37 67  1  0  0  0  0
 37 68  1  0  0  0  0
 37 80  2  0  0  0  0
 38 41  1  0  0  0  0
 39 52  1  0  0  0  0
 40 66  1  0  0  0  0
 41 43  1  0  0  0  0
 42 44  1  0  0  0  0
 42 46  1  0  0  0  0
 43 50  1  0  0  0  0
 44 53  1  0  0  0  0
 45 47  1  0  0  0  0
 45 51  1  0  0  0  0
 46 67  1  0  0  0  0
 47 68  1  0  0  0  0
 48 51  1  0  0  0  0
 48 68  1  0  0  0  0
 49 53  1  0  0  0  0
 49 67  1  0  0  0  0
 50 72  1  0  0  0  0
 52 66  1  0  0  0  0
 53 65  1  0  0  0  0
 54 62  1  0  0  0  0
 55 63  1  0  0  0  0
 56 63  1  0  0  0  0
 57 63  1  0  0  0  0
 58 74  1  0  0  0  0
 59 60  1  0  0  0  0
 60 82  1  0  0  0  0
 61 63  1  0  0  0  0
 61 73  1  0  0  0  0
 62 74  1  0  0  0  0
 64 65  1  0  0  0  0
M  CHG  1  74   1
M  ISO  4  37 100  60 101  68 100  82 101
M  END
> <Batch ID>
0148

> <Smiles>
CNC(C)C(=O)NC(C(=O)N1Cc2cc([101O:1][101CH2:1]CC(=O)Nc3ccc(C4CC[100N:0]([100C:0](=O)N5CCCC(n6nc(-c7ccc(Oc8ccc(F)cc8F)cc7)c(C(N)=O)c6N)C5)C4)s3)ccc2CC1C(=O)NC1CCCc2ccccc21)C(C)(C)C

> <Shape>
0.230

> <Color>
0.069

> <Negative vol penalty>
0.000

$$$$

  -OEChem-04052303163D

 87 96  0     1  0  0  0  0  0999 V2000
  -17.2060  -30.3033   24.1391 C   0  0  0  0  0  0  0  0  0  0  0  0
  -18.5655  -30.5591   24.2865 C   0  0  0  0  0  0  0  0  0  0  0  0
  -23.6978  -14.0461   20.4163 C   0  0  0  0  0  0  0  0  0  0  0  0
  -26.0663  -14.2870   20.8273 C   0  0  0  0  0  0  0  0  0  0  0  0
  -16.7821  -29.1794   23.4314 C   0  0  0  0  0  0  0  0  0  0  0  0
  -19.5019  -29.6905   23.7271 C   0  0  0  0  0  0  0  0  0  0  0  0
  -26.0191  -29.6695   20.7535 C   0  0  0  0  0  0  0  0  0  0  0  0
  -32.5509  -22.5099   22.0188 C   0  0  0  0  0  0  0  0  0  0  0  0
  -32.3376  -21.1319   22.0528 C   0  0  0  0  0  0  0  0  0  0  0  0
  -23.8690  -12.6739   20.2337 C   0  0  0  0  0  0  0  0  0  0  0  0
  -26.2376  -12.9148   20.6448 C   0  0  0  0  0  0  0  0  0  0  0  0
  -27.2541  -29.0331   20.8700 C   0  0  0  0  0  0  0  0  0  0  0  0
  -24.2680   -9.9336   22.1739 C   0  0  0  0  0  0  0  0  0  0  0  0
  -23.3579   -9.0784   22.7952 C   0  0  0  0  0  0  0  0  0  0  0  0
  -26.4049  -27.1657   19.6008 C   0  0  0  0  0  0  0  0  0  0  0  0
  -30.4814  -22.8004   20.8063 C   0  0  0  0  0  0  0  0  0  0  0  0
  -22.7153   -8.1964   20.6397 C   0  0  0  0  0  0  0  0  0  0  0  0
  -24.7964  -14.8527   20.7130 C   0  0  0  0  0  0  0  0  0  0  0  0
  -23.8161  -16.9064   21.8657 C   0  0  0  0  0  0  0  0  0  0  0  0
  -17.7137  -28.3017   22.8547 C   0  0  0  0  0  0  0  0  0  0  0  0
  -24.9626  -29.0529   20.0679 C   0  0  0  0  0  0  0  0  0  0  0  0
  -19.0901  -28.5530   23.0121 C   0  0  0  0  0  0  0  0  0  0  0  0
  -25.1583  -27.7975   19.4748 C   0  0  0  0  0  0  0  0  0  0  0  0
  -31.6228  -23.3442   21.3955 C   0  0  0  0  0  0  0  0  0  0  0  0
  -31.1962  -20.5881   21.4635 C   0  0  0  0  0  0  0  0  0  0  0  0
  -30.2681  -21.4223   20.8403 C   0  0  0  0  0  0  0  0  0  0  0  0
  -25.1388  -12.1082   20.3480 C   0  0  0  0  0  0  0  0  0  0  0  0
  -27.4463  -27.7798   20.2961 C   0  0  0  0  0  0  0  0  0  0  0  0
  -24.4017   -9.9202   20.7855 C   0  0  0  0  0  0  0  0  0  0  0  0
  -22.5816   -8.2098   22.0281 C   0  0  0  0  0  0  0  0  0  0  0  0
  -23.6254   -9.0516   20.0184 C   0  0  0  0  0  0  0  0  0  0  0  0
  -24.6203  -16.2703   20.9011 C   0  0  0  0  0  0  0  0  0  0  0  0
  -23.9917  -18.2479   21.6286 C   0  0  0  0  0  0  0  0  0  0  0  0
  -32.0687  -27.4447   20.6775 C   0  0  0  0  0  0  0  0  0  0  0  0
  -30.9149  -26.9965   21.1900 C   0  0  0  0  0  0  0  0  0  0  0  0
  -33.2864  -26.6120   20.7505 C   0  0  0  0  0  0  0  0  0  0  0  0
  -22.9849  -16.3358   22.8851 C   0  0  0  0  0  0  0  0  0  0  0  0
  -22.0548  -28.0469   20.8656 C   0  0  0  0  0  0  0  0  0  0  0  0
  -21.7946  -27.4991   17.6790 C   0  0  0  0  0  0  0  0  0  0  0  0
  -23.3577  -26.8958   14.7058 C   0  0  0  0  0  0  0  0  0  0  0  0
  -28.4093  -21.4096   19.1400 C   0  0  0  0  0  0  0  0  0  0  0  0
  -17.2082  -27.0742   22.1390 C   0  0  0  0  0  0  0  0  0  0  0  0
  -23.6447  -29.7643   19.9282 C   0  0  0  0  0  0  0  0  0  0  0  0
  -24.0624  -27.1019   18.7108 C   0  0  0  0  0  0  0  0  0  0  0  0
  -33.2112  -25.2295   21.3489 C   0  0  0  0  0  0  0  0  0  0  0  0
  -18.2604  -26.4065   21.2574 C   0  0  0  0  0  0  0  0  0  0  0  0
  -25.0043  -21.3262   18.1026 C   0  0  0  0  0  0  0  0  0  0  0  0
  -19.5803  -26.2723   22.0101 C   0  0  0  0  0  0  0  0  0  0  0  0
  -24.4447  -20.0815   18.7952 C   0  0  0  0  0  0  0  0  0  0  0  0
  -26.4467  -21.1196   17.6436 C   0  0  0  0  0  0  0  0  0  0  0  0
  -26.8099  -19.4095   19.3794 C   0  0  0  0  0  0  0  0  0  0  0  0
  -20.1362  -27.6477   22.3986 C   0  0  1  0  0  0  0  0  0  0  0  0
  -30.7665  -25.6307   21.8277 C   0  0  2  0  0  0  0  0  0  0  0  0
  -22.4815  -28.8177   19.6484 C   0  0  1  0  0  0  0  0  0  0  0  0
  -25.3812  -19.5919   19.9171 C   0  0  2  0  0  0  0  0  0  0  0  0
  -30.7801  -25.7254   23.3573 C   0  0  0  0  0  0  0  0  0  0  0  0
  -22.8787  -26.4536   12.2825 C   0  0  0  0  0  0  0  0  0  0  0  0
  -20.9830  -24.6386   18.3639 C   0  0  0  0  0  0  0  0  0  0  0  0
  -21.4435  -24.0121   15.9841 C   0  0  0  0  0  0  0  0  0  0  0  0
  -19.6662  -25.6813   16.5110 C   0  0  0  0  0  0  0  0  0  0  0  0
  -24.8172  -29.3256   13.8542 C   0  0  0  0  0  0  0  0  0  0  0  0
  -29.6730  -27.8435   21.1290 C   0  0  0  0  0  0  0  0  0  1  0  0
  -22.0952  -26.3347   16.7663 C   0  0  1  0  0  0  0  0  0  0  0  0
  -23.1797  -27.5136   13.3307 C   0  0  2  0  0  0  0  0  0  0  0  0
  -21.0673  -25.1787   16.9223 C   0  0  0  0  0  0  0  0  0  0  0  0
  -25.2591  -17.1364   20.1100 N   0  0  0  0  0  0  0  0  0  0  0  0
  -24.8563  -18.3305   20.5770 N   0  0  0  0  0  0  0  0  0  0  0  0
  -31.8373  -24.7294   21.3623 N   0  0  2  0  0  0  0  0  0  0  0  0
  -22.7900  -27.8353   18.6073 N   0  0  0  0  0  0  0  0  0  0  0  0
  -27.2759  -20.6601   18.7599 N   0  0  0  0  0  0  0  0  0  0  0  0
  -31.0009  -19.1893   21.5085 N   0  0  0  0  0  0  0  0  0  0  0  0
  -23.4891  -19.3530   22.2189 N   0  0  0  0  0  0  0  0  0  0  0  0
  -23.5483  -16.0840   24.1434 N   0  0  0  0  0  0  0  0  0  0  0  0
  -29.1015  -20.8930   20.2348 N   0  0  0  0  0  0  0  0  0  0  0  0
  -20.7505  -28.2862   21.2544 N   0  0  0  0  0  0  0  0  0  0  0  0
  -22.1766  -26.8840   15.4172 N   0  0  0  0  0  0  0  0  0  0  0  0
  -24.4168  -28.2384   12.9243 N   0  3  0  0  0  0  0  0  0  0  0  0
  -34.3558  -27.0754   20.3540 O   0  0  0  0  0  0  0  0  0  0  0  0
  -21.7825  -16.0422   22.6810 O   0  0  0  0  0  0  0  0  0  0  0  0
  -22.8495  -27.2900   21.4107 O   0  0  0  0  0  0  0  0  0  0  0  0
  -20.7192  -28.0930   17.5673 O   0  0  0  0  0  0  0  0  0  0  0  0
  -24.4358  -26.4634   15.1073 O   0  0  0  0  0  0  0  0  0  0  0  0
  -28.7258  -22.4490   18.5557 O   0  0  0  0  0  0  0  0  0  0  0  0
  -25.3063  -10.7692   20.1702 O   0  0  0  0  0  0  0  0  0  0  0  0
  -28.6506  -27.1561   20.4090 O   0  0  0  0  0  0  0  0  0  1  0  0
  -21.7087   -7.3876   22.6250 F   0  0  0  0  0  0  0  0  0  0  0  0
  -23.7502   -9.0333   18.6843 F   0  0  0  0  0  0  0  0  0  0  0  0
  1  2  1  0  0  0  0
  1  5  2  0  0  0  0
  2  6  2  0  0  0  0
  3 10  2  0  0  0  0
  3 18  1  0  0  0  0
  4 11  1  0  0  0  0
  4 18  2  0  0  0  0
  5 20  1  0  0  0  0
  6 22  1  0  0  0  0
  7 12  2  0  0  0  0
  7 21  1  0  0  0  0
  8  9  2  0  0  0  0
  8 24  1  0  0  0  0
  9 25  1  0  0  0  0
 10 27  1  0  0  0  0
 11 27  2  0  0  0  0
 12 28  1  0  0  0  0
 13 14  2  0  0  0  0
 13 29  1  0  0  0  0
 14 30  1  0  0  0  0
 15 23  1  0  0  0  0
 15 28  2  0  0  0  0
 16 24  2  0  0  0  0
 16 26  1  0  0  0  0
 17 30  2  0  0  0  0
 17 31  1  0  0  0  0
 18 32  1  0  0  0  0
 19 32  1  0  0  0  0
 19 33  2  0  0  0  0
 19 37  1  0  0  0  0
 20 22  2  0  0  0  0
 20 42  1  0  0  0  0
 21 23  2  0  0  0  0
 21 43  1  0  0  0  0
 22 52  1  0  0  0  0
 23 44  1  0  0  0  0
 24 68  1  0  0  0  0
 25 26  2  0  0  0  0
 25 71  1  0  0  0  0
 26 74  1  0  0  0  0
 27 84  1  0  0  0  0
 28 85  1  0  0  0  0
 29 31  2  0  0  0  0
 29 84  1  0  0  0  0
 30 86  1  0  0  0  0
 31 87  1  0  0  0  0
 32 66  2  0  0  0  0
 33 67  1  0  0  0  0
 33 72  1  0  0  0  0
 34 35  2  0  0  0  0
 34 36  1  0  0  0  0
 35 53  1  0  0  0  0
 35 62  1  0  0  0  0
 36 45  1  0  0  0  0
 36 78  2  0  0  0  0
 37 73  1  0  0  0  0
 37 79  2  0  0  0  0
 38 54  1  0  0  0  0
 38 75  1  0  0  0  0
 38 80  2  0  0  0  0
 39 63  1  0  0  0  0
 39 69  1  0  0  0  0
 39 81  2  0  0  0  0
 40 64  1  0  0  0  0
 40 76  1  0  0  0  0
 40 82  2  0  0  0  0
 41 70  1  0  0  0  0
 41 74  1  0  0  0  0
 41 83  2  0  0  0  0
 42 46  1  0  0  0  0
 43 54  1  0  0  0  0
 44 69  1  0  0  0  0
 45 68  1  0  0  0  0
 46 48  1  0  0  0  0
 47 49  1  0  0  0  0
 47 50  1  0  0  0  0
 48 52  1  0  0  0  0
 49 55  1  0  0  0  0
 50 70  1  0  0  0  0
 51 55  1  0  0  0  0
 51 70  1  0  0  0  0
 52 75  1  0  0  0  0
 53 56  1  0  0  0  0
 53 68  1  0  0  0  0
 54 69  1  0  0  0  0
 55 67  1  0  0  0  0
 57 64  1  0  0  0  0
 58 65  1  0  0  0  0
 59 65  1  0  0  0  0
 60 65  1  0  0  0  0
 61 77  1  0  0  0  0
 62 85  1  0  0  0  0
 63 65  1  0  0  0  0
 63 76  1  0  0  0  0
 64 77  1  0  0  0  0
 66 67  1  0  0  0  0
M  CHG  1  77   1
M  ISO  4  41 100  62 101  74 100  85 101
M  END
> <Batch ID>
0148

> <Smiles>
CNC(C)C(=O)NC(C(=O)N1Cc2cc([101O:1][101CH2:1]C3=C(C)N(c4ccc(N)c([100NH:0][100C:0](=O)N5CCCC(n6nc(-c7ccc(Oc8ccc(F)cc8F)cc7)c(C(N)=O)c6N)C5)c4)CC(=O)C3)ccc2CC1C(=O)NC1CCCc2ccccc21)C(C)(C)C

> <Shape>
0.247

> <Color>
0.101

> <Negative vol penalty>
0.000

$$$$

  -OEChem-04052303163D

 86 95  0     1  0  0  0  0  0999 V2000
  -17.6431  -25.2158   21.3946 C   0  0  0  0  0  0  0  0  0  0  0  0
  -18.9847  -24.9266   21.1667 C   0  0  0  0  0  0  0  0  0  0  0  0
  -22.0805  -15.2347   20.0572 C   0  0  0  0  0  0  0  0  0  0  0  0
  -23.6159  -15.9840   18.3490 C   0  0  0  0  0  0  0  0  0  0  0  0
  -17.2820  -26.4304   21.9762 C   0  0  0  0  0  0  0  0  0  0  0  0
  -19.9660  -25.8524   21.5194 C   0  0  0  0  0  0  0  0  0  0  0  0
  -23.8980  -23.7101   23.8847 C   0  0  0  0  0  0  0  0  0  0  0  0
  -21.1010  -15.0275   19.0861 C   0  0  0  0  0  0  0  0  0  0  0  0
  -22.6364  -15.7768   17.3777 C   0  0  0  0  0  0  0  0  0  0  0  0
  -24.8276  -23.0372   23.0930 C   0  0  0  0  0  0  0  0  0  0  0  0
  -20.3562  -12.6910   16.7582 C   0  0  0  0  0  0  0  0  0  0  0  0
  -19.6278  -11.5029   16.8153 C   0  0  0  0  0  0  0  0  0  0  0  0
  -29.0142  -18.4613   21.6055 C   0  0  0  0  0  0  0  0  0  0  0  0
  -29.3489  -17.0995   21.4137 C   0  0  0  0  0  0  0  0  0  0  0  0
  -26.2886  -24.9543   23.1896 C   0  0  0  0  0  0  0  0  0  0  0  0
  -17.5848  -12.7675   17.0679 C   0  0  0  0  0  0  0  0  0  0  0  0
  -23.3380  -15.7130   19.6887 C   0  0  0  0  0  0  0  0  0  0  0  0
  -24.2786  -16.7932   21.7996 C   0  0  0  0  0  0  0  0  0  0  0  0
  -18.2600  -27.3675   22.3450 C   0  0  0  0  0  0  0  0  0  0  0  0
  -24.1523  -25.0164   24.3264 C   0  0  0  0  0  0  0  0  0  0  0  0
  -19.6175  -27.0813   22.1052 C   0  0  0  0  0  0  0  0  0  0  0  0
  -25.3617  -25.6407   23.9889 C   0  0  0  0  0  0  0  0  0  0  0  0
  -21.3789  -15.2985   17.7463 C   0  0  0  0  0  0  0  0  0  0  0  0
  -26.0218  -23.6603   22.7429 C   0  0  0  0  0  0  0  0  0  0  0  0
  -19.6990  -13.9175   16.8560 C   0  0  0  0  0  0  0  0  0  0  0  0
  -18.2421  -11.5411   16.9702 C   0  0  0  0  0  0  0  0  0  0  0  0
  -18.3133  -13.9557   17.0108 C   0  0  0  0  0  0  0  0  0  0  0  0
  -24.3500  -15.9278   20.6916 C   0  0  0  0  0  0  0  0  0  0  0  0
  -25.4842  -16.6335   22.4382 C   0  0  0  0  0  0  0  0  0  0  0  0
  -29.7559  -19.1697   20.6891 C   0  0  0  0  0  0  0  0  0  0  0  0
  -30.2712  -17.0729   20.3935 C   0  0  0  0  0  0  0  0  0  0  0  0
  -29.4194  -23.1988   19.6016 C   0  0  0  0  0  0  0  0  0  0  0  0
  -29.0346  -22.8226   20.8285 C   0  0  0  0  0  0  0  0  0  0  0  0
  -30.3131  -22.3329   18.8060 C   0  0  0  0  0  0  0  0  0  0  0  0
  -23.2175  -17.6634   22.2147 C   0  0  0  0  0  0  0  0  0  0  0  0
  -22.7577  -27.8406   23.8984 C   0  0  0  0  0  0  0  0  0  0  0  0
  -24.9517  -28.8174   26.0790 C   0  0  0  0  0  0  0  0  0  0  0  0
  -27.9734  -28.3026   27.5792 C   0  0  0  0  0  0  0  0  0  0  0  0
  -30.7925  -14.6329   20.1374 C   0  0  0  0  0  0  0  0  0  0  0  0
  -17.8182  -28.6867   22.9274 C   0  0  0  0  0  0  0  0  0  0  0  0
  -23.1510  -25.7187   25.2020 C   0  0  0  0  0  0  0  0  0  0  0  0
  -25.6916  -27.0345   24.4544 C   0  0  0  0  0  0  0  0  0  0  0  0
  -30.7407  -20.9950   19.3556 C   0  0  0  0  0  0  0  0  0  0  0  0
  -18.9430  -29.4560   23.6154 C   0  0  0  0  0  0  0  0  0  0  0  0
  -28.9833  -13.4543   23.1425 C   0  0  0  0  0  0  0  0  0  0  0  0
  -20.1923  -29.4713   22.7402 C   0  0  0  0  0  0  0  0  0  0  0  0
  -27.5619  -13.9598   22.9029 C   0  0  0  0  0  0  0  0  0  0  0  0
  -29.7176  -13.1864   21.8323 C   0  0  0  0  0  0  0  0  0  0  0  0
  -28.3188  -14.8708   20.6716 C   0  0  0  0  0  0  0  0  0  0  0  0
  -20.7127  -28.0495   22.4966 C   0  0  1  0  0  0  0  0  0  0  0  0
  -29.4417  -21.5063   21.4574 C   0  0  2  0  0  0  0  0  0  0  0  0
  -23.2891  -27.2377   25.1680 C   0  0  1  0  0  0  0  0  0  0  0  0
  -27.5716  -15.1866   21.9760 C   0  0  1  0  0  0  0  0  0  0  0  0
  -30.5804  -21.6986   22.4651 C   0  0  0  0  0  0  0  0  0  0  0  0
  -29.5135  -29.2898   29.2971 C   0  0  0  0  0  0  0  0  0  0  0  0
  -25.7846  -30.9751   24.0889 C   0  0  0  0  0  0  0  0  0  0  0  0
  -27.8844  -31.2899   25.4154 C   0  0  0  0  0  0  0  0  0  0  0  0
  -25.6676  -31.7389   26.4674 C   0  0  0  0  0  0  0  0  0  0  0  0
  -32.0908  -16.2984   18.8837 C   0  0  0  0  0  0  0  0  0  0  0  0
  -27.8284  -25.8786   29.2710 C   0  0  0  0  0  0  0  0  0  0  0  0
  -28.1331  -23.7043   21.6491 C   0  0  0  0  0  0  0  0  0  1  0  0
  -26.3622  -29.3511   26.0111 C   0  0  1  0  0  0  0  0  0  0  0  0
  -28.3857  -28.3025   29.0402 C   0  0  2  0  0  0  0  0  0  0  0  0
  -26.4179  -30.8132   25.4852 C   0  0  0  0  0  0  0  0  0  0  0  0
  -25.5093  -15.2675   20.6268 N   0  0  0  0  0  0  0  0  0  0  0  0
  -26.1775  -15.7182   21.7022 N   0  0  0  0  0  0  0  0  0  0  0  0
  -29.8401  -20.5422   20.4146 N   0  0  2  0  0  0  0  0  0  0  0  0
  -24.6778  -27.6821   25.3032 N   0  0  0  0  0  0  0  0  0  0  0  0
  -29.6670  -14.3423   20.9356 N   0  0  0  0  0  0  0  0  0  0  0  0
  -26.0082  -17.1883   23.5517 N   0  0  0  0  0  0  0  0  0  0  0  0
  -23.2029  -18.9781   21.7291 N   0  0  0  0  0  0  0  0  0  0  0  0
  -21.4247  -27.5657   23.6600 N   0  0  0  0  0  0  0  0  0  0  0  0
  -26.9305  -29.1731   27.3429 N   0  0  0  0  0  0  0  0  0  0  0  0
  -30.9690  -15.9788   19.7637 N   0  0  0  0  0  0  0  0  0  0  0  0
  -28.8471  -26.9454   29.4481 N   0  3  0  0  0  0  0  0  0  0  0  0
  -30.7266  -22.7345   17.7181 O   0  0  0  0  0  0  0  0  0  0  0  0
  -22.3182  -17.2913   23.0061 O   0  0  0  0  0  0  0  0  0  0  0  0
  -23.5017  -28.5071   23.1885 O   0  0  0  0  0  0  0  0  0  0  0  0
  -24.1252  -29.3827   26.7995 O   0  0  0  0  0  0  0  0  0  0  0  0
  -28.5242  -27.6035   26.7316 O   0  0  0  0  0  0  0  0  0  0  0  0
  -31.5577  -13.7467   19.7377 O   0  0  0  0  0  0  0  0  0  0  0  0
  -30.5247  -18.3308   19.9463 O   0  0  0  0  0  0  0  0  0  0  0  0
  -20.4235  -15.0962   16.7983 O   0  0  0  0  0  0  0  0  0  0  0  0
  -26.9307  -23.0060   21.9698 O   0  0  0  0  0  0  0  0  0  1  0  0
  -17.5426  -10.4000   17.0235 F   0  0  0  0  0  0  0  0  0  0  0  0
  -17.6761  -15.1309   17.1042 F   0  0  0  0  0  0  0  0  0  0  0  0
  1  2  1  0  0  0  0
  1  5  2  0  0  0  0
  2  6  2  0  0  0  0
  3  8  2  0  0  0  0
  3 17  1  0  0  0  0
  4  9  1  0  0  0  0
  4 17  2  0  0  0  0
  5 19  1  0  0  0  0
  6 21  1  0  0  0  0
  7 10  2  0  0  0  0
  7 20  1  0  0  0  0
  8 23  1  0  0  0  0
  9 23  2  0  0  0  0
 10 24  1  0  0  0  0
 11 12  2  0  0  0  0
 11 25  1  0  0  0  0
 12 26  1  0  0  0  0
 13 14  1  0  0  0  0
 13 30  2  0  0  0  0
 14 31  2  0  0  0  0
 15 22  1  0  0  0  0
 15 24  2  0  0  0  0
 16 26  2  0  0  0  0
 16 27  1  0  0  0  0
 17 28  1  0  0  0  0
 18 28  1  0  0  0  0
 18 29  2  0  0  0  0
 18 35  1  0  0  0  0
 19 21  2  0  0  0  0
 19 40  1  0  0  0  0
 20 22  2  0  0  0  0
 20 41  1  0  0  0  0
 21 50  1  0  0  0  0
 22 42  1  0  0  0  0
 23 83  1  0  0  0  0
 24 84  1  0  0  0  0
 25 27  2  0  0  0  0
 25 83  1  0  0  0  0
 26 85  1  0  0  0  0
 27 86  1  0  0  0  0
 28 65  2  0  0  0  0
 29 66  1  0  0  0  0
 29 70  1  0  0  0  0
 30 67  1  0  0  0  0
 30 82  1  0  0  0  0
 31 74  1  0  0  0  0
 31 82  1  0  0  0  0
 32 33  2  0  0  0  0
 32 34  1  0  0  0  0
 33 51  1  0  0  0  0
 33 61  1  0  0  0  0
 34 43  1  0  0  0  0
 34 76  2  0  0  0  0
 35 71  1  0  0  0  0
 35 77  2  0  0  0  0
 36 52  1  0  0  0  0
 36 72  1  0  0  0  0
 36 78  2  0  0  0  0
 37 62  1  0  0  0  0
 37 68  1  0  0  0  0
 37 79  2  0  0  0  0
 38 63  1  0  0  0  0
 38 73  1  0  0  0  0
 38 80  2  0  0  0  0
 39 69  1  0  0  0  0
 39 74  1  0  0  0  0
 39 81  2  0  0  0  0
 40 44  1  0  0  0  0
 41 52  1  0  0  0  0
 42 68  1  0  0  0  0
 43 67  1  0  0  0  0
 44 46  1  0  0  0  0
 45 47  1  0  0  0  0
 45 48  1  0  0  0  0
 46 50  1  0  0  0  0
 47 53  1  0  0  0  0
 48 69  1  0  0  0  0
 49 53  1  0  0  0  0
 49 69  1  0  0  0  0
 50 72  1  0  0  0  0
 51 54  1  0  0  0  0
 51 67  1  0  0  0  0
 52 68  1  0  0  0  0
 53 66  1  0  0  0  0
 55 63  1  0  0  0  0
 56 64  1  0  0  0  0
 57 64  1  0  0  0  0
 58 64  1  0  0  0  0
 59 74  1  0  0  0  0
 60 75  1  0  0  0  0
 61 84  1  0  0  0  0
 62 64  1  0  0  0  0
 62 73  1  0  0  0  0
 63 75  1  0  0  0  0
 65 66  1  0  0  0  0
M  CHG  1  75   1
M  ISO  4  39 100  61 101  74 100  84 101
M  END
> <Batch ID>
0148

> <Smiles>
CNC(C)C(=O)NC(C(=O)N1Cc2cc([101O:1][101CH2:1]C3=C(C)N(c4ccc([100N:0](C)[100C:0](=O)N5CCCC(n6nc(-c7ccc(Oc8ccc(F)cc8F)cc7)c(C(N)=O)c6N)C5)o4)CC(=O)C3)ccc2CC1C(=O)NC1CCCc2ccccc21)C(C)(C)C

> <Shape>
0.200

> <Color>
0.085

> <Negative vol penalty>
0.000

$$$$

  -OEChem-04052303163D

 86 95  0     1  0  0  0  0  0999 V2000
  -18.4219  -23.9938   23.3032 C   0  0  0  0  0  0  0  0  0  0  0  0
  -19.7869  -23.7991   23.4888 C   0  0  0  0  0  0  0  0  0  0  0  0
  -23.2325   -9.8618   19.9073 C   0  0  0  0  0  0  0  0  0  0  0  0
  -24.0047   -9.8460   22.1965 C   0  0  0  0  0  0  0  0  0  0  0  0
  -17.9605  -25.1704   22.7145 C   0  0  0  0  0  0  0  0  0  0  0  0
  -20.6913  -24.7805   23.0847 C   0  0  0  0  0  0  0  0  0  0  0  0
  -24.2703  -25.6713   26.5550 C   0  0  0  0  0  0  0  0  0  0  0  0
  -22.5954   -8.6383   20.1138 C   0  0  0  0  0  0  0  0  0  0  0  0
  -23.3676   -8.6225   22.4030 C   0  0  0  0  0  0  0  0  0  0  0  0
  -25.3160  -24.7533   26.6412 C   0  0  0  0  0  0  0  0  0  0  0  0
  -20.2270   -7.5183   22.9844 C   0  0  0  0  0  0  0  0  0  0  0  0
  -19.4847   -7.3654   24.1554 C   0  0  0  0  0  0  0  0  0  0  0  0
  -31.2510  -18.2147   21.9483 C   0  0  0  0  0  0  0  0  0  0  0  0
  -26.7164  -26.2368   25.3538 C   0  0  0  0  0  0  0  0  0  0  0  0
  -20.8979   -5.5183   24.8099 C   0  0  0  0  0  0  0  0  0  0  0  0
  -23.9372  -10.4657   20.9487 C   0  0  0  0  0  0  0  0  0  0  0  0
  -31.2328  -19.4490   22.6599 C   0  0  0  0  0  0  0  0  0  0  0  0
  -24.0533  -13.0140   20.9280 C   0  0  0  0  0  0  0  0  0  0  0  0
  -18.8591  -26.1709   22.3119 C   0  0  0  0  0  0  0  0  0  0  0  0
  -24.4366  -26.8761   25.8570 C   0  0  0  0  0  0  0  0  0  0  0  0
  -20.2415  -25.9710   22.4889 C   0  0  0  0  0  0  0  0  0  0  0  0
  -25.6720  -27.1695   25.2623 C   0  0  0  0  0  0  0  0  0  0  0  0
  -22.6629   -8.0186   21.3616 C   0  0  0  0  0  0  0  0  0  0  0  0
  -26.5384  -25.0347   26.0382 C   0  0  0  0  0  0  0  0  0  0  0  0
  -21.3047   -6.6712   22.7261 C   0  0  0  0  0  0  0  0  0  0  0  0
  -19.8202   -6.3654   25.0682 C   0  0  0  0  0  0  0  0  0  0  0  0
  -21.6401   -5.6712   23.6389 C   0  0  0  0  0  0  0  0  0  0  0  0
  -24.5961  -11.7293   20.7359 C   0  0  0  0  0  0  0  0  0  0  0  0
  -25.0723  -13.8711   20.5911 C   0  0  0  0  0  0  0  0  0  0  0  0
  -30.0691  -19.6152   23.3780 C   0  0  0  0  0  0  0  0  0  0  0  0
  -30.1004  -17.4843   22.1499 C   0  0  0  0  0  0  0  0  0  0  0  0
  -29.0728  -22.7490   24.9054 C   0  0  0  0  0  0  0  0  0  0  0  0
  -29.0446  -21.8910   23.8669 C   0  0  0  0  0  0  0  0  0  0  0  0
  -32.2973  -20.4205   22.6423 C   0  0  0  0  0  0  0  0  0  0  0  0
  -22.7451  -13.3981   21.3715 C   0  0  0  0  0  0  0  0  0  0  0  0
  -23.0742  -28.1979   23.3074 C   0  0  0  0  0  0  0  0  0  0  0  0
  -24.9109  -30.7423   24.1291 C   0  0  0  0  0  0  0  0  0  0  0  0
  -27.6895  -31.9142   25.7268 C   0  0  0  0  0  0  0  0  0  0  0  0
  -30.4256  -15.3898   20.7885 C   0  0  0  0  0  0  0  0  0  0  0  0
  -18.3161  -27.4056   21.6369 C   0  0  0  0  0  0  0  0  0  0  0  0
  -23.3072  -27.8677   25.7959 C   0  0  0  0  0  0  0  0  0  0  0  0
  -25.9082  -28.4578   24.5187 C   0  0  0  0  0  0  0  0  0  0  0  0
  -29.8342  -22.1549   26.0606 C   0  0  0  0  0  0  0  0  0  0  0  0
  -19.3161  -28.5574   21.5784 C   0  0  0  0  0  0  0  0  0  0  0  0
  -29.5127  -12.9818   18.3298 C   0  0  0  0  0  0  0  0  0  0  0  0
  -20.6793  -28.0577   21.1104 C   0  0  0  0  0  0  0  0  0  0  0  0
  -28.1075  -12.5469   18.7524 C   0  0  0  0  0  0  0  0  0  0  0  0
  -30.1399  -20.7219   25.5944 C   0  0  0  0  0  0  0  0  0  0  0  0
  -30.4123  -13.2433   19.5364 C   0  0  0  0  0  0  0  0  0  0  0  0
  -28.4584  -13.7408   20.9520 C   0  0  0  0  0  0  0  0  0  0  0  0
  -21.2523  -27.0229   22.0864 C   0  0  1  0  0  0  0  0  0  0  0  0
  -23.4244  -28.8353   24.6222 C   0  0  1  0  0  0  0  0  0  0  0  0
  -27.4966  -13.5285   19.7716 C   0  0  2  0  0  0  0  0  0  0  0  0
  -28.2974  -22.1035   22.5917 C   0  0  0  0  0  0  0  0  0  0  0  0
  -33.7062  -19.9214   22.4487 C   0  0  0  0  0  0  0  0  0  0  0  0
  -28.9467  -34.0356   26.1921 C   0  0  0  0  0  0  0  0  0  0  0  0
  -25.9904  -30.7258   21.2752 C   0  0  0  0  0  0  0  0  0  0  0  0
  -27.8691  -32.1872   22.0516 C   0  0  0  0  0  0  0  0  0  0  0  0
  -25.5157  -33.0013   22.1979 C   0  0  0  0  0  0  0  0  0  0  0  0
  -27.3382  -31.6177   28.6504 C   0  0  0  0  0  0  0  0  0  0  0  0
  -28.4868  -24.1107   25.0351 C   0  0  0  0  0  0  0  0  0  1  0  0
  -26.3075  -31.2059   23.7921 C   0  0  1  0  0  0  0  0  0  0  0  0
  -27.8843  -33.0692   26.6924 C   0  0  2  0  0  0  0  0  0  0  0  0
  -26.4159  -31.7548   22.3415 C   0  0  0  0  0  0  0  0  0  0  0  0
  -25.8615  -11.7626   20.3098 N   0  0  0  0  0  0  0  0  0  0  0  0
  -26.1224  -13.0786   20.2313 N   0  0  0  0  0  0  0  0  0  0  0  0
  -29.7192  -20.7115   24.1861 N   0  0  0  0  0  0  0  0  0  0  0  0
  -24.7713  -29.3924   24.4814 N   0  0  0  0  0  0  0  0  0  0  0  0
  -29.7705  -14.1852   20.4561 N   0  0  0  0  0  0  0  0  0  0  0  0
  -25.1635  -15.2178   20.5704 N   0  0  0  0  0  0  0  0  0  0  0  0
  -21.8200  -12.3902   21.6758 N   0  0  0  0  0  0  0  0  0  0  0  0
  -29.7046  -16.2208   21.6453 N   0  0  0  0  0  0  0  0  0  0  0  0
  -21.7947  -27.6785   23.2570 N   0  0  0  0  0  0  0  0  0  0  0  0
  -26.6784  -32.1679   24.8243 N   0  0  0  0  0  0  0  0  0  0  0  0
  -28.3030  -32.5615   28.0295 N   0  3  0  0  0  0  0  0  0  0  0  0
  -32.1560  -21.6452   22.7786 O   0  0  0  0  0  0  0  0  0  0  0  0
  -22.4013  -14.5997   21.4786 O   0  0  0  0  0  0  0  0  0  0  0  0
  -23.9029  -28.1801   22.4048 O   0  0  0  0  0  0  0  0  0  0  0  0
  -23.9793  -31.5498   24.0883 O   0  0  0  0  0  0  0  0  0  0  0  0
  -28.3691  -30.8908   25.7665 O   0  0  0  0  0  0  0  0  0  0  0  0
  -31.5321  -15.6763   20.3241 O   0  0  0  0  0  0  0  0  0  0  0  0
  -22.0411   -6.8248   21.5635 O   0  0  0  0  0  0  0  0  0  0  0  0
  -27.5606  -24.1401   26.1203 O   0  0  0  0  0  0  0  0  0  1  0  0
  -19.1082   -6.2196   26.1934 F   0  0  0  0  0  0  0  0  0  0  0  0
  -22.6751   -4.8551   23.3968 F   0  0  0  0  0  0  0  0  0  0  0  0
  -29.0047  -18.2865   23.1930 S   0  0  0  0  0  0  0  0  0  0  0  0
  1  2  1  0  0  0  0
  1  5  2  0  0  0  0
  2  6  2  0  0  0  0
  3  8  2  0  0  0  0
  3 16  1  0  0  0  0
  4  9  1  0  0  0  0
  4 16  2  0  0  0  0
  5 19  1  0  0  0  0
  6 21  1  0  0  0  0
  7 10  2  0  0  0  0
  7 20  1  0  0  0  0
  8 23  1  0  0  0  0
  9 23  2  0  0  0  0
 10 24  1  0  0  0  0
 11 12  2  0  0  0  0
 11 25  1  0  0  0  0
 12 26  1  0  0  0  0
 13 17  1  0  0  0  0
 13 31  2  0  0  0  0
 14 22  1  0  0  0  0
 14 24  2  0  0  0  0
 15 26  2  0  0  0  0
 15 27  1  0  0  0  0
 16 28  1  0  0  0  0
 17 30  2  0  0  0  0
 17 34  1  0  0  0  0
 18 28  1  0  0  0  0
 18 29  2  0  0  0  0
 18 35  1  0  0  0  0
 19 21  2  0  0  0  0
 19 40  1  0  0  0  0
 20 22  2  0  0  0  0
 20 41  1  0  0  0  0
 21 51  1  0  0  0  0
 22 42  1  0  0  0  0
 23 82  1  0  0  0  0
 24 83  1  0  0  0  0
 25 27  2  0  0  0  0
 25 82  1  0  0  0  0
 26 84  1  0  0  0  0
 27 85  1  0  0  0  0
 28 65  2  0  0  0  0
 29 66  1  0  0  0  0
 29 70  1  0  0  0  0
 30 67  1  0  0  0  0
 30 86  1  0  0  0  0
 31 72  1  0  0  0  0
 31 86  1  0  0  0  0
 32 33  2  0  0  0  0
 32 43  1  0  0  0  0
 32 61  1  0  0  0  0
 33 54  1  0  0  0  0
 33 67  1  0  0  0  0
 34 55  1  0  0  0  0
 34 76  2  0  0  0  0
 35 71  1  0  0  0  0
 35 77  2  0  0  0  0
 36 52  1  0  0  0  0
 36 73  1  0  0  0  0
 36 78  2  0  0  0  0
 37 62  1  0  0  0  0
 37 68  1  0  0  0  0
 37 79  2  0  0  0  0
 38 63  1  0  0  0  0
 38 74  1  0  0  0  0
 38 80  2  0  0  0  0
 39 69  1  0  0  0  0
 39 72  1  0  0  0  0
 39 81  2  0  0  0  0
 40 44  1  0  0  0  0
 41 52  1  0  0  0  0
 42 68  1  0  0  0  0
 43 48  1  0  0  0  0
 44 46  1  0  0  0  0
 45 47  1  0  0  0  0
 45 49  1  0  0  0  0
 46 51  1  0  0  0  0
 47 53  1  0  0  0  0
 48 67  1  0  0  0  0
 49 69  1  0  0  0  0
 50 53  1  0  0  0  0
 50 69  1  0  0  0  0
 51 73  1  0  0  0  0
 52 68  1  0  0  0  0
 53 66  1  0  0  0  0
 56 63  1  0  0  0  0
 57 64  1  0  0  0  0
 58 64  1  0  0  0  0
 59 64  1  0  0  0  0
 60 75  1  0  0  0  0
 61 83  1  0  0  0  0
 62 64  1  0  0  0  0
 62 74  1  0  0  0  0
 63 75  1  0  0  0  0
 65 66  1  0  0  0  0
M  CHG  1  75   1
M  ISO  4  39 100  61 101  72 100  83 101
M  END
> <Batch ID>
0148

> <Smiles>
CNC(C)C(=O)NC(C(=O)N1Cc2cc([101O:1][101CH2:1]C3=C(C)N(c4sc([100NH:0][100C:0](=O)N5CCCC(n6nc(-c7ccc(Oc8ccc(F)cc8F)cc7)c(C(N)=O)c6N)C5)cc4C(C)=O)CC3)ccc2CC1C(=O)NC1CCCc2ccccc21)C(C)(C)C

> <Shape>
0.305

> <Color>
0.193

> <Negative vol penalty>
0.000

$$$$

  -OEChem-04052303163D

 87 96  0     1  0  0  0  0  0999 V2000
  -26.1152  -32.4968   28.2925 C   0  0  0  0  0  0  0  0  0  0  0  0
  -26.0948  -31.1219   28.0810 C   0  0  0  0  0  0  0  0  0  0  0  0
  -23.2642  -13.0472   23.6030 C   0  0  0  0  0  0  0  0  0  0  0  0
  -24.3050  -10.8720   23.4528 C   0  0  0  0  0  0  0  0  0  0  0  0
  -25.4316  -33.3450   27.4223 C   0  0  0  0  0  0  0  0  0  0  0  0
  -25.3899  -30.5943   26.9997 C   0  0  0  0  0  0  0  0  0  0  0  0
  -28.7106  -26.6240   21.9896 C   0  0  0  0  0  0  0  0  0  0  0  0
  -22.6703  -12.6796   24.8104 C   0  0  0  0  0  0  0  0  0  0  0  0
  -23.7111  -10.5045   24.6602 C   0  0  0  0  0  0  0  0  0  0  0  0
  -29.2317  -25.6803   21.1042 C   0  0  0  0  0  0  0  0  0  0  0  0
  -20.0189  -10.8449   25.8246 C   0  0  0  0  0  0  0  0  0  0  0  0
  -18.6715  -11.1574   26.0047 C   0  0  0  0  0  0  0  0  0  0  0  0
  -27.1131  -25.5848   19.9423 C   0  0  0  0  0  0  0  0  0  0  0  0
  -30.0569  -18.2864   21.5907 C   0  0  0  0  0  0  0  0  0  0  0  0
  -19.2404  -12.4998   27.9312 C   0  0  0  0  0  0  0  0  0  0  0  0
  -31.9954  -17.4961   20.5809 C   0  0  0  0  0  0  0  0  0  0  0  0
  -24.0816  -12.1433   22.9242 C   0  0  0  0  0  0  0  0  0  0  0  0
  -24.0419  -12.9140   20.4927 C   0  0  0  0  0  0  0  0  0  0  0  0
  -24.7259  -32.8283   26.3243 C   0  0  0  0  0  0  0  0  0  0  0  0
  -27.3918  -27.0637   21.8451 C   0  0  0  0  0  0  0  0  0  0  0  0
  -24.6951  -31.4363   26.1148 C   0  0  0  0  0  0  0  0  0  0  0  0
  -26.5894  -26.5391   20.8185 C   0  0  0  0  0  0  0  0  0  0  0  0
  -30.7257  -17.1725   21.0060 C   0  0  0  0  0  0  0  0  0  0  0  0
  -22.8937  -11.4083   25.3390 C   0  0  0  0  0  0  0  0  0  0  0  0
  -28.4348  -25.1619   20.0832 C   0  0  0  0  0  0  0  0  0  0  0  0
  -20.9771  -11.3599   26.6979 C   0  0  0  0  0  0  0  0  0  0  0  0
  -18.2822  -11.9848   27.0580 C   0  0  0  0  0  0  0  0  0  0  0  0
  -20.5878  -12.1873   27.7511 C   0  0  0  0  0  0  0  0  0  0  0  0
  -24.6949  -12.5222   21.6767 C   0  0  0  0  0  0  0  0  0  0  0  0
  -30.8410  -19.4191   21.5904 C   0  0  0  0  0  0  0  0  0  0  0  0
  -25.0602  -13.1680   19.6068 C   0  0  0  0  0  0  0  0  0  0  0  0
  -22.6400  -13.0374   20.2183 C   0  0  0  0  0  0  0  0  0  0  0  0
  -24.6498  -29.2927   23.1055 C   0  0  0  0  0  0  0  0  0  0  0  0
  -28.5264  -21.6314   20.7238 C   0  0  0  0  0  0  0  0  0  0  0  0
  -24.5323  -29.3811   20.0414 C   0  0  0  0  0  0  0  0  0  0  0  0
  -25.0072  -29.5346   16.6668 C   0  0  0  0  0  0  0  0  0  0  0  0
  -30.7789  -14.7531   20.3060 C   0  0  0  0  0  0  0  0  0  0  0  0
  -23.9631  -33.7810   25.4382 C   0  0  0  0  0  0  0  0  0  0  0  0
  -26.7698  -28.0329   22.8133 C   0  0  0  0  0  0  0  0  0  0  0  0
  -25.1658  -27.0156   20.7224 C   0  0  0  0  0  0  0  0  0  0  0  0
  -23.5502  -33.1711   24.1011 C   0  0  0  0  0  0  0  0  0  0  0  0
  -30.0362  -20.5988   24.6381 C   0  0  0  0  0  0  0  0  0  0  0  0
  -28.6736  -21.2277   24.3973 C   0  0  0  0  0  0  0  0  0  0  0  0
  -29.5603  -11.8735   18.6029 C   0  0  0  0  0  0  0  0  0  0  0  0
  -22.9440  -31.7870   24.3102 C   0  0  0  0  0  0  0  0  0  0  0  0
  -31.0098  -21.0410   23.5543 C   0  0  0  0  0  0  0  0  0  0  0  0
  -28.1131  -11.7523   19.0854 C   0  0  0  0  0  0  0  0  0  0  0  0
  -28.1305  -20.8649   23.0233 C   0  0  0  0  0  0  0  0  0  0  0  0
  -30.4902  -12.3569   19.7144 C   0  0  0  0  0  0  0  0  0  0  0  0
  -28.6199  -13.4723   20.8663 C   0  0  0  0  0  0  0  0  0  0  0  0
  -23.9622  -30.8280   24.9388 C   0  0  1  0  0  0  0  0  0  0  0  0
  -30.5006  -20.8126   22.1203 C   0  0  2  0  0  0  0  0  0  0  0  0
  -25.7641  -28.9893   22.1476 C   0  0  1  0  0  0  0  0  0  0  0  0
  -27.6346  -13.0509   19.7639 C   0  0  2  0  0  0  0  0  0  0  0  0
  -24.0684  -30.5876   14.5914 C   0  0  0  0  0  0  0  0  0  0  0  0
  -31.2411  -23.6087   18.9092 C   0  0  0  0  0  0  0  0  0  0  0  0
  -22.2086  -27.4059   20.0949 C   0  0  0  0  0  0  0  0  0  0  0  0
  -21.8872  -27.8269   17.6479 C   0  0  0  0  0  0  0  0  0  0  0  0
  -21.6146  -29.6942   19.2793 C   0  0  0  0  0  0  0  0  0  0  0  0
  -27.5447  -30.9466   16.0955 C   0  0  0  0  0  0  0  0  0  0  0  0
  -29.4933  -21.9407   19.6078 C   0  0  0  0  0  0  0  0  0  0  0  0
  -23.9308  -28.8114   18.7817 C   0  0  1  0  0  0  0  0  0  0  0  0
  -25.0875  -30.7131   15.7132 C   0  0  2  0  0  0  0  0  0  0  0  0
  -29.9734  -23.3843   19.7218 C   0  0  2  0  0  0  0  0  0  1  0  0
  -22.4354  -28.4255   18.9609 C   0  0  0  0  0  0  0  0  0  0  0  0
  -26.0252  -12.5254   21.5570 N   0  0  0  0  0  0  0  0  0  0  0  0
  -26.2163  -12.9222   20.2873 N   0  0  0  0  0  0  0  0  0  0  0  0
  -25.1074  -28.4702   20.9358 N   0  0  0  0  0  0  0  0  0  0  0  0
  -29.0671  -21.1544   21.9281 N   0  0  0  0  0  0  0  0  0  0  0  0
  -29.9757  -13.5930   20.3077 N   0  0  0  0  0  0  0  0  0  0  0  0
  -25.0706  -13.5754   18.3198 N   0  0  0  0  0  0  0  0  0  0  0  0
  -21.9562  -11.9206   19.7187 N   0  0  0  0  0  0  0  0  0  0  0  0
  -30.1718  -15.8756   20.8680 N   0  0  0  0  0  0  0  0  0  0  0  0
  -24.9023  -30.3639   23.9412 N   0  0  0  0  0  0  0  0  0  0  0  0
  -24.1723  -29.7960   17.7325 N   0  0  0  0  0  0  0  0  0  0  0  0
  -26.4462  -30.7970   15.1067 N   0  3  0  0  0  0  0  0  0  0  0  0
  -22.0159  -14.1110   20.3950 O   0  0  0  0  0  0  0  0  0  0  0  0
  -23.6343  -28.6070   23.0878 O   0  0  0  0  0  0  0  0  0  0  0  0
  -27.3208  -21.8193   20.5353 O   0  0  0  0  0  0  0  0  0  0  0  0
  -24.4898  -30.5997   20.2325 O   0  0  0  0  0  0  0  0  0  0  0  0
  -25.6207  -28.4857   16.4826 O   0  0  0  0  0  0  0  0  0  0  0  0
  -31.9110  -14.7578   19.8156 O   0  0  0  0  0  0  0  0  0  0  0  0
  -22.3145  -11.0494   26.5172 O   0  0  0  0  0  0  0  0  0  0  0  0
  -28.9513  -24.2442   19.2195 O   0  0  0  0  0  0  0  0  0  1  0  0
  -16.9884  -12.2860   27.2299 F   0  0  0  0  0  0  0  0  0  0  0  0
  -21.5038  -12.6860   28.5926 F   0  0  0  0  0  0  0  0  0  0  0  0
  -32.3766  -19.1373   20.8870 S   0  0  0  0  0  0  0  0  0  0  0  0
  1  2  1  0  0  0  0
  1  5  2  0  0  0  0
  2  6  2  0  0  0  0
  3  8  2  0  0  0  0
  3 17  1  0  0  0  0
  4  9  1  0  0  0  0
  4 17  2  0  0  0  0
  5 19  1  0  0  0  0
  6 21  1  0  0  0  0
  7 10  2  0  0  0  0
  7 20  1  0  0  0  0
  8 24  1  0  0  0  0
  9 24  2  0  0  0  0
 10 25  1  0  0  0  0
 11 12  2  0  0  0  0
 11 26  1  0  0  0  0
 12 27  1  0  0  0  0
 13 22  1  0  0  0  0
 13 25  2  0  0  0  0
 14 23  1  0  0  0  0
 14 30  2  0  0  0  0
 15 27  2  0  0  0  0
 15 28  1  0  0  0  0
 16 23  2  0  0  0  0
 16 87  1  0  0  0  0
 17 29  1  0  0  0  0
 18 29  1  0  0  0  0
 18 31  2  0  0  0  0
 18 32  1  0  0  0  0
 19 21  2  0  0  0  0
 19 38  1  0  0  0  0
 20 22  2  0  0  0  0
 20 39  1  0  0  0  0
 21 51  1  0  0  0  0
 22 40  1  0  0  0  0
 23 73  1  0  0  0  0
 24 83  1  0  0  0  0
 25 84  1  0  0  0  0
 26 28  2  0  0  0  0
 26 83  1  0  0  0  0
 27 85  1  0  0  0  0
 28 86  1  0  0  0  0
 29 66  2  0  0  0  0
 30 52  1  0  0  0  0
 30 87  1  0  0  0  0
 31 67  1  0  0  0  0
 31 71  1  0  0  0  0
 32 72  1  0  0  0  0
 32 77  2  0  0  0  0
 33 53  1  0  0  0  0
 33 74  1  0  0  0  0
 33 78  2  0  0  0  0
 34 61  1  0  0  0  0
 34 69  1  0  0  0  0
 34 79  2  0  0  0  0
 35 62  1  0  0  0  0
 35 68  1  0  0  0  0
 35 80  2  0  0  0  0
 36 63  1  0  0  0  0
 36 75  1  0  0  0  0
 36 81  2  0  0  0  0
 37 70  1  0  0  0  0
 37 73  1  0  0  0  0
 37 82  2  0  0  0  0
 38 41  1  0  0  0  0
 39 53  1  0  0  0  0
 40 68  1  0  0  0  0
 41 45  1  0  0  0  0
 42 43  1  0  0  0  0
 42 46  1  0  0  0  0
 43 48  1  0  0  0  0
 44 47  1  0  0  0  0
 44 49  1  0  0  0  0
 45 51  1  0  0  0  0
 46 52  1  0  0  0  0
 47 54  1  0  0  0  0
 48 69  1  0  0  0  0
 49 70  1  0  0  0  0
 50 54  1  0  0  0  0
 50 70  1  0  0  0  0
 51 74  1  0  0  0  0
 52 69  1  0  0  0  0
 53 68  1  0  0  0  0
 54 67  1  0  0  0  0
 55 63  1  0  0  0  0
 56 64  1  0  0  0  0
 57 65  1  0  0  0  0
 58 65  1  0  0  0  0
 59 65  1  0  0  0  0
 60 76  1  0  0  0  0
 61 64  1  0  0  0  0
 62 65  1  0  0  0  0
 62 75  1  0  0  0  0
 63 76  1  0  0  0  0
 64 84  1  0  0  0  0
 66 67  1  0  0  0  0
M  CHG  1  76   1
M  ISO  4  37 100  64 101  73 100  84 101
M  END
> <Batch ID>
0148

> <Smiles>
CNC(C)C(=O)NC(C(=O)N1Cc2cc([101O:1][101CH:1](C)CC(=O)N3CCCCC3c3cc([100NH:0][100C:0](=O)N4CCCC(n5nc(-c6ccc(Oc7ccc(F)cc7F)cc6)c(C(N)=O)c5N)C4)cs3)ccc2CC1C(=O)NC1CCCc2ccccc21)C(C)(C)C

> <Shape>
0.235

> <Color>
0.096

> <Negative vol penalty>
0.000

$$$$

  -OEChem-04052303163D

 87 95  0     1  0  0  0  0  0999 V2000
  -28.4826  -29.8737   15.2342 C   0  0  0  0  0  0  0  0  0  0  0  0
  -28.9567  -29.5062   16.4895 C   0  0  0  0  0  0  0  0  0  0  0  0
  -23.0005   -9.8914   19.9863 C   0  0  0  0  0  0  0  0  0  0  0  0
  -23.7178   -9.9572   22.2924 C   0  0  0  0  0  0  0  0  0  0  0  0
  -27.1912  -30.3818   15.0994 C   0  0  0  0  0  0  0  0  0  0  0  0
  -28.1401  -29.6477   17.6108 C   0  0  0  0  0  0  0  0  0  0  0  0
  -28.2769  -25.5904   20.6381 C   0  0  0  0  0  0  0  0  0  0  0  0
  -22.2330   -8.7587   20.2572 C   0  0  0  0  0  0  0  0  0  0  0  0
  -22.9502   -8.8245   22.5634 C   0  0  0  0  0  0  0  0  0  0  0  0
  -29.3861  -25.4551   21.4718 C   0  0  0  0  0  0  0  0  0  0  0  0
  -23.1959   -5.4825   22.1139 C   0  0  0  0  0  0  0  0  0  0  0  0
  -23.7807   -4.4702   22.8746 C   0  0  0  0  0  0  0  0  0  0  0  0
  -31.7509  -18.7422   22.3641 C   0  0  0  0  0  0  0  0  0  0  0  0
  -31.8076  -17.4981   21.6917 C   0  0  0  0  0  0  0  0  0  0  0  0
  -28.0987  -26.3277   23.3159 C   0  0  0  0  0  0  0  0  0  0  0  0
  -22.0511   -4.7240   24.5422 C   0  0  0  0  0  0  0  0  0  0  0  0
  -23.7430  -10.4906   21.0038 C   0  0  0  0  0  0  0  0  0  0  0  0
  -24.1291  -13.0050   20.8129 C   0  0  0  0  0  0  0  0  0  0  0  0
  -26.3549  -30.5205   16.2184 C   0  0  0  0  0  0  0  0  0  0  0  0
  -27.0715  -26.1064   21.1352 C   0  0  0  0  0  0  0  0  0  0  0  0
  -26.8368  -30.1594   17.4911 C   0  0  0  0  0  0  0  0  0  0  0  0
  -26.9750  -26.4661   22.4870 C   0  0  0  0  0  0  0  0  0  0  0  0
  -22.2078   -8.2252   21.5458 C   0  0  0  0  0  0  0  0  0  0  0  0
  -29.2980  -25.8266   22.8103 C   0  0  0  0  0  0  0  0  0  0  0  0
  -22.0386   -6.1157   22.5674 C   0  0  0  0  0  0  0  0  0  0  0  0
  -23.2083   -4.0909   24.0887 C   0  0  0  0  0  0  0  0  0  0  0  0
  -21.4663   -5.7364   23.7816 C   0  0  0  0  0  0  0  0  0  0  0  0
  -24.5365  -11.6604   20.7244 C   0  0  0  0  0  0  0  0  0  0  0  0
  -30.5014  -18.8111   22.9352 C   0  0  0  0  0  0  0  0  0  0  0  0
  -25.2402  -13.7251   20.4477 C   0  0  0  0  0  0  0  0  0  0  0  0
  -30.5888  -16.8953   21.9000 C   0  0  0  0  0  0  0  0  0  0  0  0
  -22.8599  -13.5540   21.1915 C   0  0  0  0  0  0  0  0  0  0  0  0
  -29.8476  -19.8722   23.7680 C   0  0  0  0  0  0  0  0  0  0  0  0
  -25.2893  -28.6586   20.4921 C   0  0  0  0  0  0  0  0  0  0  0  0
  -23.2368  -27.2691   22.5846 C   0  0  0  0  0  0  0  0  0  0  0  0
  -22.7776  -25.1377   25.2101 C   0  0  0  0  0  0  0  0  0  0  0  0
  -30.7190  -14.6872   20.6944 C   0  0  0  0  0  0  0  0  0  0  0  0
  -24.9833  -31.1187   16.0298 C   0  0  0  0  0  0  0  0  0  0  0  0
  -25.8762  -26.2209   20.2292 C   0  0  0  0  0  0  0  0  0  0  0  0
  -25.6977  -27.0063   23.0746 C   0  0  0  0  0  0  0  0  0  0  0  0
  -24.0493  -30.8864   17.2147 C   0  0  0  0  0  0  0  0  0  0  0  0
  -29.6084  -12.2196   18.3804 C   0  0  0  0  0  0  0  0  0  0  0  0
  -24.7636  -31.1966   18.5263 C   0  0  0  0  0  0  0  0  0  0  0  0
  -28.1564  -11.9648   18.7912 C   0  0  0  0  0  0  0  0  0  0  0  0
  -30.5048  -12.4707   19.5916 C   0  0  0  0  0  0  0  0  0  0  0  0
  -28.5850  -13.2682   20.9135 C   0  0  0  0  0  0  0  0  0  0  0  0
  -25.9723  -30.2747   18.7278 C   0  0  1  0  0  0  0  0  0  0  0  0
  -24.8511  -27.2393   20.7185 C   0  0  1  0  0  0  0  0  0  0  0  0
  -27.6314  -13.0743   19.7233 C   0  0  2  0  0  0  0  0  0  0  0  0
  -20.9931  -24.2367   26.7271 C   0  0  0  0  0  0  0  0  0  0  0  0
  -23.2138  -29.9060   24.1197 C   0  0  0  0  0  0  0  0  0  0  0  0
  -22.2231  -28.6834   26.0670 C   0  0  0  0  0  0  0  0  0  0  0  0
  -20.9794  -28.8026   23.9079 C   0  0  0  0  0  0  0  0  0  0  0  0
  -30.9514  -24.3327   27.1214 C   0  0  0  0  0  0  0  0  0  0  0  0
  -32.5870  -25.3298   25.5272 C   0  0  0  0  0  0  0  0  0  0  0  0
  -23.2552  -22.3583   24.3123 C   0  0  0  0  0  0  0  0  0  0  0  0
  -30.1242  -25.4455   25.0076 C   0  0  0  0  0  0  0  0  0  1  0  0
  -31.3955  -23.2465   24.8651 C   0  0  0  0  0  0  0  0  0  0  0  0
  -23.0282  -27.3311   24.0785 C   0  0  1  0  0  0  0  0  0  0  0  0
  -21.7726  -24.0232   25.4388 C   0  0  2  0  0  0  0  0  0  0  0  0
  -22.3859  -28.6725   24.5321 C   0  0  0  0  0  0  0  0  0  0  0  0
  -31.2410  -24.5783   25.6290 C   0  0  0  0  0  0  0  0  0  0  0  0
  -25.8071  -11.5312   20.3334 N   0  0  0  0  0  0  0  0  0  0  0  0
  -30.5637  -20.9334   24.0139 N   0  0  0  0  0  0  0  0  0  0  0  0
  -26.2078  -12.8040   20.1730 N   0  0  0  0  0  0  0  0  0  0  0  0
  -24.5587  -27.1055   22.1470 N   0  0  0  0  0  0  0  0  0  0  0  0
  -29.9470  -13.5370   20.4262 N   0  0  0  0  0  0  0  0  0  0  0  0
  -25.4742  -15.0501   20.3379 N   0  0  0  0  0  0  0  0  0  0  0  0
  -21.8269  -12.6721   21.5372 N   0  0  0  0  0  0  0  0  0  0  0  0
  -28.5598  -19.6404   24.2040 N   0  0  0  0  0  0  0  0  0  0  0  0
  -30.0721  -15.6475   21.4716 N   0  0  0  0  0  0  0  0  0  0  0  0
  -25.5413  -28.9653   19.1685 N   0  0  0  0  0  0  0  0  0  0  0  0
  -22.2521  -26.1474   24.4318 N   0  0  0  0  0  0  0  0  0  0  0  0
  -22.4681  -22.7078   25.5228 N   0  3  0  0  0  0  0  0  0  0  0  0
  -22.6432  -14.7894   21.2066 O   0  0  0  0  0  0  0  0  0  0  0  0
  -25.3899  -29.4196   21.4473 O   0  0  0  0  0  0  0  0  0  0  0  0
  -22.2619  -27.3554   21.8338 O   0  0  0  0  0  0  0  0  0  0  0  0
  -23.9137  -25.1166   25.6783 O   0  0  0  0  0  0  0  0  0  0  0  0
  -31.8592  -14.8231   20.2434 O   0  0  0  0  0  0  0  0  0  0  0  0
  -28.9170  -22.8443   24.2019 O   0  0  0  0  0  0  0  0  0  0  0  0
  -29.8194  -21.7522   26.2885 O   0  0  0  0  0  0  0  0  0  0  0  0
  -29.7869  -17.6892   22.6572 O   0  0  0  0  0  0  0  0  0  0  0  0
  -21.4588   -7.1201   21.8107 O   0  0  0  0  0  0  0  0  0  0  0  0
  -30.3793  -25.6962   23.6261 O   0  0  0  0  0  0  0  0  0  1  0  0
  -23.7692   -3.1176   24.8183 F   0  0  0  0  0  0  0  0  0  0  0  0
  -20.3539   -6.3402   24.2219 F   0  0  0  0  0  0  0  0  0  0  0  0
  -29.9969  -22.1727   24.9075 S   0  0  0  0  0  0  0  0  0  0  0  0
  1  2  1  0  0  0  0
  1  5  2  0  0  0  0
  2  6  2  0  0  0  0
  3  8  2  0  0  0  0
  3 17  1  0  0  0  0
  4  9  1  0  0  0  0
  4 17  2  0  0  0  0
  5 19  1  0  0  0  0
  6 21  1  0  0  0  0
  7 10  2  0  0  0  0
  7 20  1  0  0  0  0
  8 23  1  0  0  0  0
  9 23  2  0  0  0  0
 10 24  1  0  0  0  0
 11 12  2  0  0  0  0
 11 25  1  0  0  0  0
 12 26  1  0  0  0  0
 13 14  1  0  0  0  0
 13 29  2  0  0  0  0
 14 31  2  0  0  0  0
 15 22  1  0  0  0  0
 15 24  2  0  0  0  0
 16 26  2  0  0  0  0
 16 27  1  0  0  0  0
 17 28  1  0  0  0  0
 18 28  1  0  0  0  0
 18 30  2  0  0  0  0
 18 32  1  0  0  0  0
 19 21  2  0  0  0  0
 19 38  1  0  0  0  0
 20 22  2  0  0  0  0
 20 39  1  0  0  0  0
 21 47  1  0  0  0  0
 22 40  1  0  0  0  0
 23 83  1  0  0  0  0
 24 84  1  0  0  0  0
 25 27  2  0  0  0  0
 25 83  1  0  0  0  0
 26 85  1  0  0  0  0
 27 86  1  0  0  0  0
 28 63  2  0  0  0  0
 29 33  1  0  0  0  0
 29 82  1  0  0  0  0
 30 65  1  0  0  0  0
 30 68  1  0  0  0  0
 31 71  1  0  0  0  0
 31 82  1  0  0  0  0
 32 69  1  0  0  0  0
 32 75  2  0  0  0  0
 33 64  2  0  0  0  0
 33 70  1  0  0  0  0
 34 48  1  0  0  0  0
 34 72  1  0  0  0  0
 34 76  2  0  0  0  0
 35 59  1  0  0  0  0
 35 66  1  0  0  0  0
 35 77  2  0  0  0  0
 36 60  1  0  0  0  0
 36 73  1  0  0  0  0
 36 78  2  0  0  0  0
 37 67  1  0  0  0  0
 37 71  1  0  0  0  0
 37 79  2  0  0  0  0
 38 41  1  0  0  0  0
 39 48  1  0  0  0  0
 40 66  1  0  0  0  0
 41 43  1  0  0  0  0
 42 44  1  0  0  0  0
 42 45  1  0  0  0  0
 43 47  1  0  0  0  0
 44 49  1  0  0  0  0
 45 67  1  0  0  0  0
 46 49  1  0  0  0  0
 46 67  1  0  0  0  0
 47 72  1  0  0  0  0
 48 66  1  0  0  0  0
 49 65  1  0  0  0  0
 50 60  1  0  0  0  0
 51 61  1  0  0  0  0
 52 61  1  0  0  0  0
 53 61  1  0  0  0  0
 54 62  1  0  0  0  0
 55 62  1  0  0  0  0
 56 74  1  0  0  0  0
 57 62  1  0  0  0  0
 57 84  1  0  0  0  0
 58 62  1  0  0  0  0
 58 87  1  0  0  0  0
 59 61  1  0  0  0  0
 59 73  1  0  0  0  0
 60 74  1  0  0  0  0
 63 65  1  0  0  0  0
 64 87  1  0  0  0  0
 80 87  2  0  0  0  0
 81 87  2  0  0  0  0
M  CHG  1  74   1
M  ISO  4  37 100  57 101  71 100  84 101
M  END
> <Batch ID>
0148

> <Smiles>
CNC(C)C(=O)NC(C(=O)N1Cc2cc([101O:1][101CH2:1]C(C)(C)CS(=O)(=O)NC(=N)c3ccc([100NH:0][100C:0](=O)N4CCCC(n5nc(-c6ccc(Oc7ccc(F)cc7F)cc6)c(C(N)=O)c5N)C4)o3)ccc2CC1C(=O)NC1CCCc2ccccc21)C(C)(C)C

> <Shape>
0.235

> <Color>
0.182

> <Negative vol penalty>
0.000

$$$$

  -OEChem-04052303163D

 87 96  0     1  0  0  0  0  0999 V2000
  -24.7922  -38.3557   19.4632 C   0  0  0  0  0  0  0  0  0  0  0  0
  -25.1022  -37.2369   18.6966 C   0  0  0  0  0  0  0  0  0  0  0  0
  -29.7364  -18.1815   20.8434 C   0  0  0  0  0  0  0  0  0  0  0  0
  -21.1611  -11.3808   20.9885 C   0  0  0  0  0  0  0  0  0  0  0  0
  -23.5340  -11.7300   20.6980 C   0  0  0  0  0  0  0  0  0  0  0  0
  -30.2346  -19.0519   19.8740 C   0  0  0  0  0  0  0  0  0  0  0  0
  -25.0259  -38.3441   20.8376 C   0  0  0  0  0  0  0  0  0  0  0  0
  -25.6471  -36.1061   19.3040 C   0  0  0  0  0  0  0  0  0  0  0  0
  -25.7019  -28.9625   18.7727 C   0  0  0  0  0  0  0  0  0  0  0  0
  -28.3592  -18.0166   20.9911 C   0  0  0  0  0  0  0  0  0  0  0  0
  -21.2991  -10.0681   20.5376 C   0  0  0  0  0  0  0  0  0  0  0  0
  -23.6720  -10.4172   20.2471 C   0  0  0  0  0  0  0  0  0  0  0  0
  -26.5954  -27.8954   18.6912 C   0  0  0  0  0  0  0  0  0  0  0  0
  -22.3440   -7.1033   21.7832 C   0  0  0  0  0  0  0  0  0  0  0  0
  -21.6917   -6.1000   22.4996 C   0  0  0  0  0  0  0  0  0  0  0  0
  -27.9784  -19.5928   19.2001 C   0  0  0  0  0  0  0  0  0  0  0  0
  -26.8821  -27.9604   21.0855 C   0  0  0  0  0  0  0  0  0  0  0  0
  -20.4325   -5.5081   20.5244 C   0  0  0  0  0  0  0  0  0  0  0  0
  -22.2786  -12.2118   21.0686 C   0  0  0  0  0  0  0  0  0  0  0  0
  -29.3556  -19.7575   19.0524 C   0  0  0  0  0  0  0  0  0  0  0  0
  -21.6570  -13.9909   22.7880 C   0  0  0  0  0  0  0  0  0  0  0  0
  -25.5650  -37.2091   21.4636 C   0  0  0  0  0  0  0  0  0  0  0  0
  -25.3996  -29.5447   20.0121 C   0  0  0  0  0  0  0  0  0  0  0  0
  -25.8895  -36.0798   20.6879 C   0  0  0  0  0  0  0  0  0  0  0  0
  -25.9825  -29.0332   21.1804 C   0  0  0  0  0  0  0  0  0  0  0  0
  -27.4802  -18.7223   20.1695 C   0  0  0  0  0  0  0  0  0  0  0  0
  -22.5545   -9.5863   20.1670 C   0  0  0  0  0  0  0  0  0  0  0  0
  -27.1878  -27.3960   19.8474 C   0  0  0  0  0  0  0  0  0  0  0  0
  -22.0405   -7.3092   20.4373 C   0  0  0  0  0  0  0  0  0  0  0  0
  -20.7360   -5.3023   21.8703 C   0  0  0  0  0  0  0  0  0  0  0  0
  -21.0848   -6.5116   19.8080 C   0  0  0  0  0  0  0  0  0  0  0  0
  -22.1367  -13.5681   21.5338 C   0  0  0  0  0  0  0  0  0  0  0  0
  -21.7191  -15.3620   22.7349 C   0  0  0  0  0  0  0  0  0  0  0  0
  -29.8811  -20.6771   18.0274 C   0  0  0  0  0  0  0  0  0  0  0  0
  -21.1966  -13.2138   23.9014 C   0  0  0  0  0  0  0  0  0  0  0  0
  -25.7688  -32.4350   21.2824 C   0  0  0  0  0  0  0  0  0  0  0  0
  -24.0714  -31.1493   23.7295 C   0  0  0  0  0  0  0  0  0  0  0  0
  -23.0853  -28.3509   25.4158 C   0  0  0  0  0  0  0  0  0  0  0  0
  -25.0718  -19.1778   19.5878 C   0  0  0  0  0  0  0  0  0  0  0  0
  -25.8440  -37.2608   22.9449 C   0  0  0  0  0  0  0  0  0  0  0  0
  -24.4133  -30.6779   20.0861 C   0  0  0  0  0  0  0  0  0  0  0  0
  -25.6758  -29.6097   22.5376 C   0  0  0  0  0  0  0  0  0  0  0  0
  -26.0754  -35.8872   23.5694 C   0  0  0  0  0  0  0  0  0  0  0  0
  -21.5159  -19.0024   19.6301 C   0  0  0  0  0  0  0  0  0  0  0  0
  -27.0359  -35.0669   22.7141 C   0  0  0  0  0  0  0  0  0  0  0  0
  -21.2278  -17.6300   20.2428 C   0  0  0  0  0  0  0  0  0  0  0  0
  -29.6396  -24.0679   17.2287 C   0  0  0  0  0  0  0  0  0  0  0  0
  -28.8401  -23.6216   19.5901 C   0  0  0  0  0  0  0  0  0  0  0  0
  -22.7490  -18.9737   18.7288 C   0  0  0  0  0  0  0  0  0  0  0  0
  -30.6169  -22.9037   17.3467 C   0  0  0  0  0  0  0  0  0  0  0  0
  -29.8210  -22.4592   19.6956 C   0  0  0  0  0  0  0  0  0  0  0  0
  -23.6725  -17.0528   19.9643 C   0  0  0  0  0  0  0  0  0  0  0  0
  -26.4589  -34.8253   21.3140 C   0  0  1  0  0  0  0  0  0  0  0  0
  -24.5727  -31.5276   21.3431 C   0  0  1  0  0  0  0  0  0  0  0  0
  -22.4773  -17.0468   20.9314 C   0  0  2  0  0  0  0  0  0  0  0  0
  -29.3297  -24.6841   18.5984 C   0  0  0  0  0  0  0  0  0  0  0  0
  -21.7300  -27.6202   27.3973 C   0  0  0  0  0  0  0  0  0  0  0  0
  -26.3160  -32.0451   25.5920 C   0  0  0  0  0  0  0  0  0  0  0  0
  -25.3969  -30.4961   27.3310 C   0  0  0  0  0  0  0  0  0  0  0  0
  -24.0099  -32.3934   26.4948 C   0  0  0  0  0  0  0  0  0  0  0  0
  -21.2348  -26.7841   23.7188 C   0  0  0  0  0  0  0  0  0  0  0  0
  -28.3240  -25.8224   18.4731 C   0  0  0  0  0  0  0  0  0  1  0  0
  -24.4179  -30.4004   24.9936 C   0  0  1  0  0  0  0  0  0  0  0  0
  -21.7210  -27.8962   25.9018 C   0  0  2  0  0  0  0  0  0  0  0  0
  -25.0427  -31.3239   26.0772 C   0  0  0  0  0  0  0  0  0  0  0  0
  -22.4781  -14.5880   20.7418 N   0  0  0  0  0  0  0  0  0  0  0  0
  -22.2126  -15.6653   21.5002 N   0  0  0  0  0  0  0  0  0  0  0  0
  -30.0924  -21.9480   18.3395 N   0  0  0  0  0  0  0  0  0  0  0  0
  -24.7100  -30.7207   22.5572 N   0  0  0  0  0  0  0  0  0  0  0  0
  -23.8941  -18.4132   19.4495 N   0  0  0  0  0  0  0  0  0  0  0  0
  -21.3991  -16.3257   23.6245 N   0  0  0  0  0  0  0  0  0  0  0  0
  -21.1993  -11.8168   23.7878 N   0  0  0  0  0  0  0  0  0  0  0  0
  -26.0814  -18.5543   20.3203 N   0  0  0  0  0  0  0  0  0  0  0  0
  -25.4590  -33.7798   21.3529 N   0  0  0  0  0  0  0  0  0  0  0  0
  -23.1956  -29.7254   25.4163 N   0  0  0  0  0  0  0  0  0  0  0  0
  -30.1367  -20.2170   16.8062 N   0  3  0  0  0  0  0  0  0  0  0  0
  -21.3088  -26.6498   25.1964 N   0  3  0  0  0  0  0  0  0  0  0  0
  -20.7793  -13.7429   24.9594 O   0  0  0  0  0  0  0  0  0  0  0  0
  -26.8899  -31.9508   21.1808 O   0  0  0  0  0  0  0  0  0  0  0  0
  -23.2584  -32.0757   23.7790 O   0  0  0  0  0  0  0  0  0  0  0  0
  -23.9664  -27.5654   25.0736 O   0  0  0  0  0  0  0  0  0  0  0  0
  -25.1671  -20.3138   19.1162 O   0  0  0  0  0  0  0  0  0  0  0  0
  -22.6895   -8.3053   19.7272 O   0  0  0  0  0  0  0  0  0  0  0  0
  -28.0608  -26.3549   19.7706 O   0  0  0  0  0  0  0  0  0  1  0  0
  -20.1108   -4.3378   22.5580 F   0  0  0  0  0  0  0  0  0  0  0  0
  -20.7899   -6.7038   18.5150 F   0  0  0  0  0  0  0  0  0  0  0  0
  -30.4869  -25.2186   19.0911 F   0  0  0  0  0  0  0  0  0  0  0  0
  1  2  1  0  0  0  0
  1  7  2  0  0  0  0
  2  8  2  0  0  0  0
  3  6  2  0  0  0  0
  3 10  1  0  0  0  0
  4 11  2  0  0  0  0
  4 19  1  0  0  0  0
  5 12  1  0  0  0  0
  5 19  2  0  0  0  0
  6 20  1  0  0  0  0
  7 22  1  0  0  0  0
  8 24  1  0  0  0  0
  9 13  2  0  0  0  0
  9 23  1  0  0  0  0
 10 26  2  0  0  0  0
 11 27  1  0  0  0  0
 12 27  2  0  0  0  0
 13 28  1  0  0  0  0
 14 15  2  0  0  0  0
 14 29  1  0  0  0  0
 15 30  1  0  0  0  0
 16 20  2  0  0  0  0
 16 26  1  0  0  0  0
 17 25  1  0  0  0  0
 17 28  2  0  0  0  0
 18 30  2  0  0  0  0
 18 31  1  0  0  0  0
 19 32  1  0  0  0  0
 20 34  1  0  0  0  0
 21 32  1  0  0  0  0
 21 33  2  0  0  0  0
 21 35  1  0  0  0  0
 22 24  2  0  0  0  0
 22 40  1  0  0  0  0
 23 25  2  0  0  0  0
 23 41  1  0  0  0  0
 24 53  1  0  0  0  0
 25 42  1  0  0  0  0
 26 73  1  0  0  0  0
 27 83  1  0  0  0  0
 28 84  1  0  0  0  0
 29 31  2  0  0  0  0
 29 83  1  0  0  0  0
 30 85  1  0  0  0  0
 31 86  1  0  0  0  0
 32 66  2  0  0  0  0
 33 67  1  0  0  0  0
 33 71  1  0  0  0  0
 34 68  1  0  0  0  0
 34 76  2  0  0  0  0
 35 72  1  0  0  0  0
 35 78  2  0  0  0  0
 36 54  1  0  0  0  0
 36 74  1  0  0  0  0
 36 79  2  0  0  0  0
 37 63  1  0  0  0  0
 37 69  1  0  0  0  0
 37 80  2  0  0  0  0
 38 64  1  0  0  0  0
 38 75  1  0  0  0  0
 38 81  2  0  0  0  0
 39 70  1  0  0  0  0
 39 73  1  0  0  0  0
 39 82  2  0  0  0  0
 40 43  1  0  0  0  0
 41 54  1  0  0  0  0
 42 69  1  0  0  0  0
 43 45  1  0  0  0  0
 44 46  1  0  0  0  0
 44 49  1  0  0  0  0
 45 53  1  0  0  0  0
 46 55  1  0  0  0  0
 47 50  1  0  0  0  0
 47 56  1  0  0  0  0
 48 51  1  0  0  0  0
 48 56  1  0  0  0  0
 49 70  1  0  0  0  0
 50 68  1  0  0  0  0
 51 68  1  0  0  0  0
 52 55  1  0  0  0  0
 52 70  1  0  0  0  0
 53 74  1  0  0  0  0
 54 69  1  0  0  0  0
 55 67  1  0  0  0  0
 56 62  1  0  0  0  0
 56 87  1  0  0  0  0
 57 64  1  0  0  0  0
 58 65  1  0  0  0  0
 59 65  1  0  0  0  0
 60 65  1  0  0  0  0
 61 77  1  0  0  0  0
 62 84  1  0  0  0  0
 63 65  1  0  0  0  0
 63 75  1  0  0  0  0
 64 77  1  0  0  0  0
 66 67  1  0  0  0  0
M  CHG  2  76   1  77   1
M  ISO  4  39 100  62 101  73 100  84 101
M  END
> <Batch ID>
0148

> <Smiles>
CNC(C)C(=O)NC(C(=O)N1Cc2cc([101O:1][101CH2:1]C3(F)CCN(C(=N)c4cccc([100NH:0][100C:0](=O)N5CCCC(n6nc(-c7ccc(Oc8ccc(F)cc8F)cc7)c(C(N)=O)c6N)C5)c4)CC3)ccc2CC1C(=O)NC1CCCc2ccccc21)C(C)(C)C

> <Shape>
0.264

> <Color>
0.083

> <Negative vol penalty>
0.000

$$$$

  -OEChem-04052303163D

 86 95  0     1  0  0  0  0  0999 V2000
  -30.1219  -35.6978   24.4321 C   0  0  0  0  0  0  0  0  0  0  0  0
  -30.2721  -34.8233   23.3606 C   0  0  0  0  0  0  0  0  0  0  0  0
  -22.6542  -10.3324   20.2594 C   0  0  0  0  0  0  0  0  0  0  0  0
  -23.8804   -9.9704   22.3094 C   0  0  0  0  0  0  0  0  0  0  0  0
  -29.3488  -35.3256   25.5311 C   0  0  0  0  0  0  0  0  0  0  0  0
  -29.6502  -33.5755   23.3880 C   0  0  0  0  0  0  0  0  0  0  0  0
  -26.6193  -28.7520   19.0447 C   0  0  0  0  0  0  0  0  0  0  0  0
  -22.3353   -8.9754   20.2105 C   0  0  0  0  0  0  0  0  0  0  0  0
  -23.5614   -8.6134   22.2605 C   0  0  0  0  0  0  0  0  0  0  0  0
  -26.6838  -27.3954   18.7299 C   0  0  0  0  0  0  0  0  0  0  0  0
  -20.9037   -6.6535   22.9788 C   0  0  0  0  0  0  0  0  0  0  0  0
  -20.4725   -6.0478   24.1590 C   0  0  0  0  0  0  0  0  0  0  0  0
  -25.3076  -26.8915   20.6461 C   0  0  0  0  0  0  0  0  0  0  0  0
  -30.1157  -18.5691   19.6495 C   0  0  0  0  0  0  0  0  0  0  0  0
  -22.3349   -4.5125   24.0514 C   0  0  0  0  0  0  0  0  0  0  0  0
  -30.0169  -19.6283   21.7160 C   0  0  0  0  0  0  0  0  0  0  0  0
  -23.4268  -10.8299   21.3088 C   0  0  0  0  0  0  0  0  0  0  0  0
  -23.0196  -13.2566   21.9819 C   0  0  0  0  0  0  0  0  0  0  0  0
  -28.7092  -34.0765   25.5676 C   0  0  0  0  0  0  0  0  0  0  0  0
  -25.9063  -29.1883   20.1706 C   0  0  0  0  0  0  0  0  0  0  0  0
  -28.8689  -33.1857   24.4890 C   0  0  0  0  0  0  0  0  0  0  0  0
  -25.2335  -28.2545   20.9715 C   0  0  0  0  0  0  0  0  0  0  0  0
  -29.9074  -19.7908   20.3525 C   0  0  0  0  0  0  0  0  0  0  0  0
  -22.7889   -8.1159   21.2110 C   0  0  0  0  0  0  0  0  0  0  0  0
  -26.0303  -26.4646   19.5323 C   0  0  0  0  0  0  0  0  0  0  0  0
  -22.0505   -6.1887   22.3349 C   0  0  0  0  0  0  0  0  0  0  0  0
  -21.1881   -4.9773   24.6953 C   0  0  0  0  0  0  0  0  0  0  0  0
  -22.7661   -5.1182   22.8712 C   0  0  0  0  0  0  0  0  0  0  0  0
  -23.7570  -12.2315   21.3596 C   0  0  0  0  0  0  0  0  0  0  0  0
  -30.3767  -17.5193   20.5026 C   0  0  0  0  0  0  0  0  0  0  0  0
  -23.7499  -14.3960   21.7472 C   0  0  0  0  0  0  0  0  0  0  0  0
  -21.7849  -13.1853   22.7073 C   0  0  0  0  0  0  0  0  0  0  0  0
  -29.5588  -15.1566   20.6732 C   0  0  0  0  0  0  0  0  0  0  0  0
  -26.6667  -30.7079   22.8570 C   0  0  0  0  0  0  0  0  0  0  0  0
  -27.5548  -23.2332   18.9165 C   0  0  0  0  0  0  0  0  0  0  0  0
  -23.4546  -30.7039   23.3090 C   0  0  0  0  0  0  0  0  0  0  0  0
  -28.9217  -21.2026   18.6569 C   0  0  0  0  0  0  0  0  0  0  0  0
  -20.4346  -29.2681   22.6271 C   0  0  0  0  0  0  0  0  0  0  0  0
  -27.9224  -33.6996   26.7979 C   0  0  0  0  0  0  0  0  0  0  0  0
  -25.8242  -30.6577   20.4814 C   0  0  0  0  0  0  0  0  0  0  0  0
  -24.4378  -28.6733   22.1797 C   0  0  0  0  0  0  0  0  0  0  0  0
  -26.9906  -32.5095   26.5841 C   0  0  0  0  0  0  0  0  0  0  0  0
  -31.9369  -14.7384   18.8503 C   0  0  0  0  0  0  0  0  0  0  0  0
  -26.7926  -16.3252   18.6115 C   0  0  0  0  0  0  0  0  0  0  0  0
  -27.7208  -31.3832   25.8595 C   0  0  0  0  0  0  0  0  0  0  0  0
  -25.6373  -15.4677   19.1264 C   0  0  0  0  0  0  0  0  0  0  0  0
  -30.8708  -15.7862   18.4881 C   0  0  0  0  0  0  0  0  0  0  0  0
  -32.1190  -15.4765   20.1874 C   0  0  0  0  0  0  0  0  0  0  0  0
  -28.1112  -15.5564   18.6236 C   0  0  0  0  0  0  0  0  0  0  0  0
  -27.3057  -14.1234   20.4759 C   0  0  0  0  0  0  0  0  0  0  0  0
  -28.1898  -31.8335   24.4707 C   0  0  1  0  0  0  0  0  0  0  0  0
  -25.4965  -30.9418   21.9440 C   0  0  1  0  0  0  0  0  0  0  0  0
  -25.9641  -14.8744   20.5081 C   0  0  2  0  0  0  0  0  0  0  0  0
  -30.6537  -16.0198   20.0266 C   0  0  0  0  0  0  0  0  0  0  0  0
  -17.9930  -29.4622   23.1730 C   0  0  0  0  0  0  0  0  0  0  0  0
  -23.9657  -29.4338   26.0358 C   0  0  0  0  0  0  0  0  0  0  0  0
  -21.5469  -28.7923   26.1128 C   0  0  0  0  0  0  0  0  0  0  0  0
  -22.1948  -31.1996   26.0230 C   0  0  0  0  0  0  0  0  0  0  0  0
  -19.7238  -29.7747   19.7992 C   0  0  0  0  0  0  0  0  0  0  0  0
  -28.7744  -22.6266   18.2557 C   0  0  0  0  0  0  0  0  0  0  0  0
  -27.2693  -24.6800   18.5648 C   0  0  0  0  0  0  0  0  0  1  0  0
  -22.4676  -29.7648   23.9593 C   0  0  1  0  0  0  0  0  0  0  0  0
  -19.1028  -29.8701   22.2166 C   0  0  2  0  0  0  0  0  0  0  0  0
  -22.5603  -29.7892   25.5111 C   0  0  0  0  0  0  0  0  0  0  0  0
  -24.8702  -12.6800   20.7735 N   0  0  0  0  0  0  0  0  0  0  0  0
  -24.8378  -13.9995   21.0264 N   0  0  0  0  0  0  0  0  0  0  0  0
  -28.3716  -14.9785   19.9458 N   0  0  0  0  0  0  0  0  0  0  0  0
  -24.3928  -30.1207   22.4457 N   0  0  0  0  0  0  0  0  0  0  0  0
  -23.5612  -15.6882   22.0891 N   0  0  0  0  0  0  0  0  0  0  0  0
  -21.1679  -11.9356   22.8548 N   0  0  0  0  0  0  0  0  0  0  0  0
  -28.2958  -20.3322   17.8670 N   0  0  0  0  0  0  0  0  0  0  0  0
  -27.0822  -31.8354   23.5392 N   0  0  0  0  0  0  0  0  0  0  0  0
  -21.1550  -30.1238   23.4333 N   0  0  0  0  0  0  0  0  0  0  0  0
  -29.6286  -21.0015   19.7740 N   0  3  0  0  0  0  0  0  0  0  0  0
  -18.7311  -29.4192   20.8457 N   0  3  0  0  0  0  0  0  0  0  0  0
  -21.2364  -14.2023   23.1957 O   0  0  0  0  0  0  0  0  0  0  0  0
  -29.7383  -14.6490   21.7906 O   0  0  0  0  0  0  0  0  0  0  0  0
  -27.1555  -29.5871   22.9377 O   0  0  0  0  0  0  0  0  0  0  0  0
  -26.8353  -22.6019   19.6893 O   0  0  0  0  0  0  0  0  0  0  0  0
  -23.3908  -31.9116   23.5525 O   0  0  0  0  0  0  0  0  0  0  0  0
  -20.7978  -28.1492   22.2714 O   0  0  0  0  0  0  0  0  0  0  0  0
  -22.4777   -6.7917   21.1638 O   0  0  0  0  0  0  0  0  0  0  0  0
  -26.0922  -25.1397   19.2277 O   0  0  0  0  0  0  0  0  0  1  0  0
  -20.7748   -4.3967   25.8294 F   0  0  0  0  0  0  0  0  0  0  0  0
  -23.8692   -4.6681   22.2577 F   0  0  0  0  0  0  0  0  0  0  0  0
  -30.3696  -18.0081   22.1437 S   0  0  0  0  0  0  0  0  0  0  0  0
  1  2  1  0  0  0  0
  1  5  2  0  0  0  0
  2  6  2  0  0  0  0
  3  8  2  0  0  0  0
  3 17  1  0  0  0  0
  4  9  1  0  0  0  0
  4 17  2  0  0  0  0
  5 19  1  0  0  0  0
  6 21  1  0  0  0  0
  7 10  2  0  0  0  0
  7 20  1  0  0  0  0
  8 24  1  0  0  0  0
  9 24  2  0  0  0  0
 10 25  1  0  0  0  0
 11 12  2  0  0  0  0
 11 26  1  0  0  0  0
 12 27  1  0  0  0  0
 13 22  1  0  0  0  0
 13 25  2  0  0  0  0
 14 23  1  0  0  0  0
 14 30  2  0  0  0  0
 15 27  2  0  0  0  0
 15 28  1  0  0  0  0
 16 23  2  0  0  0  0
 16 86  1  0  0  0  0
 17 29  1  0  0  0  0
 18 29  1  0  0  0  0
 18 31  2  0  0  0  0
 18 32  1  0  0  0  0
 19 21  2  0  0  0  0
 19 39  1  0  0  0  0
 20 22  2  0  0  0  0
 20 40  1  0  0  0  0
 21 51  1  0  0  0  0
 22 41  1  0  0  0  0
 23 74  1  0  0  0  0
 24 82  1  0  0  0  0
 25 83  1  0  0  0  0
 26 28  2  0  0  0  0
 26 82  1  0  0  0  0
 27 84  1  0  0  0  0
 28 85  1  0  0  0  0
 29 65  2  0  0  0  0
 30 54  1  0  0  0  0
 30 86  1  0  0  0  0
 31 66  1  0  0  0  0
 31 69  1  0  0  0  0
 32 70  1  0  0  0  0
 32 76  2  0  0  0  0
 33 54  1  0  0  0  0
 33 67  1  0  0  0  0
 33 77  2  0  0  0  0
 34 52  1  0  0  0  0
 34 72  1  0  0  0  0
 34 78  2  0  0  0  0
 35 60  1  0  0  0  0
 35 61  1  0  0  0  0
 35 79  2  0  0  0  0
 36 62  1  0  0  0  0
 36 68  1  0  0  0  0
 36 80  2  0  0  0  0
 37 60  1  0  0  0  0
 37 71  1  0  0  0  0
 37 74  2  0  0  0  0
 38 63  1  0  0  0  0
 38 73  1  0  0  0  0
 38 81  2  0  0  0  0
 39 42  1  0  0  0  0
 40 52  1  0  0  0  0
 41 68  1  0  0  0  0
 42 45  1  0  0  0  0
 43 47  1  0  0  0  0
 43 48  1  0  0  0  0
 44 46  1  0  0  0  0
 44 49  1  0  0  0  0
 45 51  1  0  0  0  0
 46 53  1  0  0  0  0
 47 54  1  0  0  0  0
 48 54  1  0  0  0  0
 49 67  1  0  0  0  0
 50 53  1  0  0  0  0
 50 67  1  0  0  0  0
 51 72  1  0  0  0  0
 52 68  1  0  0  0  0
 53 66  1  0  0  0  0
 55 63  1  0  0  0  0
 56 64  1  0  0  0  0
 57 64  1  0  0  0  0
 58 64  1  0  0  0  0
 59 75  1  0  0  0  0
 61 83  1  0  0  0  0
 62 64  1  0  0  0  0
 62 73  1  0  0  0  0
 63 75  1  0  0  0  0
 65 66  1  0  0  0  0
M  CHG  2  74   1  75   1
M  ISO  4  33 100  54 100  61 101  83 101
M  END
> <Batch ID>
0148

> <Smiles>
CNC(C)C(=O)NC(C(=O)N1Cc2cc([101O:1][101CH2:1]C(=O)CC(=N)Nc3csc([100C:0]4([100C:0](=O)N5CCCC(n6nc(-c7ccc(Oc8ccc(F)cc8F)cc7)c(C(N)=O)c6N)C5)CCC4)c3)ccc2CC1C(=O)NC1CCCc2ccccc21)C(C)(C)C

> <Shape>
0.334

> <Color>
0.094

> <Negative vol penalty>
0.000

$$$$

  -OEChem-04052303163D

 84 93  0     1  0  0  0  0  0999 V2000
  -23.1803  -35.6615   27.2761 C   0  0  0  0  0  0  0  0  0  0  0  0
  -22.5314  -34.6781   26.5363 C   0  0  0  0  0  0  0  0  0  0  0  0
  -23.8056   -9.8870   22.1731 C   0  0  0  0  0  0  0  0  0  0  0  0
  -22.4310  -10.1636   20.2056 C   0  0  0  0  0  0  0  0  0  0  0  0
  -24.4112  -36.1563   26.8473 C   0  0  0  0  0  0  0  0  0  0  0  0
  -23.1126  -34.1897   25.3666 C   0  0  0  0  0  0  0  0  0  0  0  0
  -22.8088  -28.4630   23.2177 C   0  0  0  0  0  0  0  0  0  0  0  0
  -23.4709   -8.5336   22.2167 C   0  0  0  0  0  0  0  0  0  0  0  0
  -22.0963   -8.8101   20.2492 C   0  0  0  0  0  0  0  0  0  0  0  0
  -22.0041  -27.8665   22.2479 C   0  0  0  0  0  0  0  0  0  0  0  0
  -20.8563   -6.6462   23.2297 C   0  0  0  0  0  0  0  0  0  0  0  0
  -20.5099   -6.1046   24.4675 C   0  0  0  0  0  0  0  0  0  0  0  0
  -23.7447  -28.1949   20.6103 C   0  0  0  0  0  0  0  0  0  0  0  0
  -22.1374  -21.2075   19.5510 C   0  0  0  0  0  0  0  0  0  0  0  0
  -22.3439   -4.5411   24.2967 C   0  0  0  0  0  0  0  0  0  0  0  0
  -23.2655  -19.8497   18.0390 C   0  0  0  0  0  0  0  0  0  0  0  0
  -23.2856  -10.7020   21.1675 C   0  0  0  0  0  0  0  0  0  0  0  0
  -24.7169  -12.6863   20.4454 C   0  0  0  0  0  0  0  0  0  0  0  0
  -25.0124  -35.6669   25.6769 C   0  0  0  0  0  0  0  0  0  0  0  0
  -24.0853  -28.9406   22.8880 C   0  0  0  0  0  0  0  0  0  0  0  0
  -24.3521  -34.6795   24.9210 C   0  0  0  0  0  0  0  0  0  0  0  0
  -24.5646  -28.7948   21.5783 C   0  0  0  0  0  0  0  0  0  0  0  0
  -22.5479  -19.8852   19.2143 C   0  0  0  0  0  0  0  0  0  0  0  0
  -22.6163   -7.9951   21.2547 C   0  0  0  0  0  0  0  0  0  0  0  0
  -22.4709  -27.7350   20.9433 C   0  0  0  0  0  0  0  0  0  0  0  0
  -21.9465   -6.1352   22.5253 C   0  0  0  0  0  0  0  0  0  0  0  0
  -21.2537   -5.0521   25.0010 C   0  0  0  0  0  0  0  0  0  0  0  0
  -22.6903   -5.0827   23.0588 C   0  0  0  0  0  0  0  0  0  0  0  0
  -23.6305  -12.1002   21.1223 C   0  0  0  0  0  0  0  0  0  0  0  0
  -24.6037  -14.0289   20.7122 C   0  0  0  0  0  0  0  0  0  0  0  0
  -22.5572  -22.1323   18.6202 C   0  0  0  0  0  0  0  0  0  0  0  0
  -25.7370  -12.0721   19.6469 C   0  0  0  0  0  0  0  0  0  0  0  0
  -20.0880  -25.8318   17.9619 C   0  0  0  0  0  0  0  0  0  0  0  0
  -25.4898  -31.7919   22.9159 C   0  0  0  0  0  0  0  0  0  0  0  0
  -28.1267  -30.0679   22.1433 C   0  0  0  0  0  0  0  0  0  0  0  0
  -29.4324  -27.2251   20.7792 C   0  0  0  0  0  0  0  0  0  0  0  0
  -21.5509  -18.6621   21.1781 C   0  0  0  0  0  0  0  0  0  0  0  0
  -26.3215  -36.2664   25.2280 C   0  0  0  0  0  0  0  0  0  0  0  0
  -24.9515  -29.5574   23.9518 C   0  0  0  0  0  0  0  0  0  0  0  0
  -25.9356  -29.2727   21.1778 C   0  0  0  0  0  0  0  0  0  0  0  0
  -27.0470  -35.4283   24.1784 C   0  0  0  0  0  0  0  0  0  0  0  0
  -21.6521  -16.4961   24.0021 C   0  0  0  0  0  0  0  0  0  0  0  0
  -26.0789  -34.9867   23.0854 C   0  0  0  0  0  0  0  0  0  0  0  0
  -22.2652  -15.2076   23.4490 C   0  0  0  0  0  0  0  0  0  0  0  0
  -20.7302  -17.1674   22.9857 C   0  0  0  0  0  0  0  0  0  0  0  0
  -21.9440  -16.1210   21.1146 C   0  0  0  0  0  0  0  0  0  0  0  0
  -22.2017  -24.3294   17.5384 C   0  0  0  0  0  0  0  0  0  0  0  0
  -21.4124  -24.1487   19.4848 C   0  0  0  0  0  0  0  0  0  0  0  0
  -24.9622  -34.1068   23.6601 C   0  0  1  0  0  0  0  0  0  0  0  0
  -26.0331  -30.4721   23.3855 C   0  0  1  0  0  0  0  0  0  0  0  0
  -22.9309  -15.4431   22.0790 C   0  0  2  0  0  0  0  0  0  0  0  0
  -21.4645  -25.3221   18.4733 C   0  0  0  0  0  0  0  0  0  0  0  0
  -20.0846  -26.5715   16.6514 C   0  0  0  0  0  0  0  0  0  0  0  0
  -31.6224  -26.1181   20.2541 C   0  0  0  0  0  0  0  0  0  0  0  0
  -28.4973  -31.9371   19.7603 C   0  0  0  0  0  0  0  0  0  0  0  0
  -30.0712  -30.2571   18.7761 C   0  0  0  0  0  0  0  0  0  0  0  0
  -30.6107  -31.3410   20.9571 C   0  0  0  0  0  0  0  0  0  0  0  0
  -28.8235  -24.9239   22.5379 C   0  0  0  0  0  0  0  0  0  0  0  0
  -22.3516  -26.4604   18.9390 C   0  0  0  0  0  0  0  0  0  1  0  0
  -28.7672  -29.6139   20.8538 C   0  0  1  0  0  0  0  0  0  0  0  0
  -30.5046  -26.2710   21.2738 C   0  0  2  0  0  0  0  0  0  0  0  0
  -29.4600  -30.7799   20.0936 C   0  0  0  0  0  0  0  0  0  0  0  0
  -22.8824  -12.9970   21.7705 N   0  0  0  0  0  0  0  0  0  0  0  0
  -23.4996  -14.1602   21.5022 N   0  0  0  0  0  0  0  0  0  0  0  0
  -22.3323  -23.4544   18.6517 N   0  0  0  0  0  0  0  0  0  0  0  0
  -26.7422  -29.8747   22.2522 N   0  0  0  0  0  0  0  0  0  0  0  0
  -21.4299  -17.3625   21.7139 N   0  0  0  0  0  0  0  0  0  0  0  0
  -25.3419  -15.0981   20.3459 N   0  0  0  0  0  0  0  0  0  0  0  0
  -25.7044  -10.6815   19.4751 N   0  0  0  0  0  0  0  0  0  0  0  0
  -22.2644  -18.7283   19.9818 N   0  0  0  0  0  0  0  0  0  0  0  0
  -25.4479  -32.7642   23.8969 N   0  0  0  0  0  0  0  0  0  0  0  0
  -29.6609  -28.5160   21.2064 N   0  0  0  0  0  0  0  0  0  0  0  0
  -29.9199  -24.9254   21.5355 N   0  3  0  0  0  0  0  0  0  0  0  0
  -26.6599  -12.7349   19.1153 O   0  0  0  0  0  0  0  0  0  0  0  0
  -19.0521  -25.6382   18.5962 O   0  0  0  0  0  0  0  0  0  0  0  0
  -25.1363  -31.9192   21.7495 O   0  0  0  0  0  0  0  0  0  0  0  0
  -28.8299  -30.5687   23.0243 O   0  0  0  0  0  0  0  0  0  0  0  0
  -28.4887  -26.8622   20.0805 O   0  0  0  0  0  0  0  0  0  0  0  0
  -21.0814  -19.6475   21.7530 O   0  0  0  0  0  0  0  0  0  0  0  0
  -22.2896   -6.6745   21.2968 O   0  0  0  0  0  0  0  0  0  0  0  0
  -21.6873  -27.1538   19.9946 O   0  0  0  0  0  0  0  0  0  1  0  0
  -20.9219   -4.5331   26.1905 F   0  0  0  0  0  0  0  0  0  0  0  0
  -23.7394   -4.5884   22.3873 F   0  0  0  0  0  0  0  0  0  0  0  0
  -23.4420  -21.4059   17.3467 S   0  0  0  0  0  0  0  0  0  0  0  0
  1  2  1  0  0  0  0
  1  5  2  0  0  0  0
  2  6  2  0  0  0  0
  3  8  2  0  0  0  0
  3 17  1  0  0  0  0
  4  9  1  0  0  0  0
  4 17  2  0  0  0  0
  5 19  1  0  0  0  0
  6 21  1  0  0  0  0
  7 10  2  0  0  0  0
  7 20  1  0  0  0  0
  8 24  1  0  0  0  0
  9 24  2  0  0  0  0
 10 25  1  0  0  0  0
 11 12  2  0  0  0  0
 11 26  1  0  0  0  0
 12 27  1  0  0  0  0
 13 22  1  0  0  0  0
 13 25  2  0  0  0  0
 14 23  1  0  0  0  0
 14 31  2  0  0  0  0
 15 27  2  0  0  0  0
 15 28  1  0  0  0  0
 16 23  2  0  0  0  0
 16 84  1  0  0  0  0
 17 29  1  0  0  0  0
 18 29  1  0  0  0  0
 18 30  2  0  0  0  0
 18 32  1  0  0  0  0
 19 21  2  0  0  0  0
 19 38  1  0  0  0  0
 20 22  2  0  0  0  0
 20 39  1  0  0  0  0
 21 49  1  0  0  0  0
 22 40  1  0  0  0  0
 23 70  1  0  0  0  0
 24 80  1  0  0  0  0
 25 81  1  0  0  0  0
 26 28  2  0  0  0  0
 26 80  1  0  0  0  0
 27 82  1  0  0  0  0
 28 83  1  0  0  0  0
 29 63  2  0  0  0  0
 30 64  1  0  0  0  0
 30 68  1  0  0  0  0
 31 65  1  0  0  0  0
 31 84  1  0  0  0  0
 32 69  1  0  0  0  0
 32 74  2  0  0  0  0
 33 52  1  0  0  0  0
 33 53  1  0  0  0  0
 33 75  2  0  0  0  0
 34 50  1  0  0  0  0
 34 71  1  0  0  0  0
 34 76  2  0  0  0  0
 35 60  1  0  0  0  0
 35 66  1  0  0  0  0
 35 77  2  0  0  0  0
 36 61  1  0  0  0  0
 36 72  1  0  0  0  0
 36 78  2  0  0  0  0
 37 67  1  0  0  0  0
 37 70  1  0  0  0  0
 37 79  2  0  0  0  0
 38 41  1  0  0  0  0
 39 50  1  0  0  0  0
 40 66  1  0  0  0  0
 41 43  1  0  0  0  0
 42 44  1  0  0  0  0
 42 45  1  0  0  0  0
 43 49  1  0  0  0  0
 44 51  1  0  0  0  0
 45 67  1  0  0  0  0
 46 51  1  0  0  0  0
 46 67  1  0  0  0  0
 47 52  1  0  0  0  0
 47 65  1  0  0  0  0
 48 52  1  0  0  0  0
 48 65  1  0  0  0  0
 49 71  1  0  0  0  0
 50 66  1  0  0  0  0
 51 64  1  0  0  0  0
 52 59  1  0  0  0  0
 54 61  1  0  0  0  0
 55 62  1  0  0  0  0
 56 62  1  0  0  0  0
 57 62  1  0  0  0  0
 58 73  1  0  0  0  0
 59 81  1  0  0  0  0
 60 62  1  0  0  0  0
 60 72  1  0  0  0  0
 61 73  1  0  0  0  0
 63 64  1  0  0  0  0
M  CHG  1  73   1
M  ISO  4  37 100  59 101  70 100  81 101
M  END
> <Batch ID>
0148

> <Smiles>
CNC(C)C(=O)NC(C(=O)N1Cc2cc([101O:1][101CH2:1]C3(C(C)=O)CN(c4cc([100NH:0][100C:0](=O)N5CCCC(n6nc(-c7ccc(Oc8ccc(F)cc8F)cc7)c(C(N)=O)c6N)C5)cs4)C3)ccc2CC1C(=O)NC1CCCc2ccccc21)C(C)(C)C

> <Shape>
0.244

> <Color>
0.115

> <Negative vol penalty>
0.000

$$$$

  -OEChem-04052303163D

 83 91  0     1  0  0  0  0  0999 V2000
  -22.7762   -7.8675   21.6973 C   0  0  0  0  0  0  0  0  0  0  0  0
  -24.0649   -8.3543   21.8912 C   0  0  0  0  0  0  0  0  0  0  0  0
  -24.6502  -29.0754   21.0848 C   0  0  0  0  0  0  0  0  0  0  0  0
  -23.3048  -30.7175   19.9315 C   0  0  0  0  0  0  0  0  0  0  0  0
  -21.8844   -8.5639   20.8828 C   0  0  0  0  0  0  0  0  0  0  0  0
  -24.4629   -9.5374   21.2697 C   0  0  0  0  0  0  0  0  0  0  0  0
  -28.6897  -15.2306   22.2884 C   0  0  0  0  0  0  0  0  0  0  0  0
  -25.5474  -30.0749   21.4613 C   0  0  0  0  0  0  0  0  0  0  0  0
  -24.2018  -31.7171   20.3081 C   0  0  0  0  0  0  0  0  0  0  0  0
  -29.7048  -15.9456   21.6543 C   0  0  0  0  0  0  0  0  0  0  0  0
  -28.0001  -32.2510   23.0310 C   0  0  0  0  0  0  0  0  0  0  0  0
  -28.4458  -32.2580   24.3527 C   0  0  0  0  0  0  0  0  0  0  0  0
  -25.9561  -22.0565   19.0911 C   0  0  0  0  0  0  0  0  0  0  0  0
  -26.9869  -21.4372   19.8552 C   0  0  0  0  0  0  0  0  0  0  0  0
  -28.0537  -17.1057   20.3325 C   0  0  0  0  0  0  0  0  0  0  0  0
  -26.1696  -32.5216   25.1188 C   0  0  0  0  0  0  0  0  0  0  0  0
  -23.5290  -29.3967   20.3198 C   0  0  0  0  0  0  0  0  0  0  0  0
  -21.4655  -27.9310   20.6384 C   0  0  0  0  0  0  0  0  0  0  0  0
  -22.2685   -9.7612   20.2587 C   0  0  0  0  0  0  0  0  0  0  0  0
  -27.3474  -15.4403   21.9410 C   0  0  0  0  0  0  0  0  0  0  0  0
  -23.5758  -10.2498   20.4450 C   0  0  0  0  0  0  0  0  0  0  0  0
  -27.0233  -16.3939   20.9655 C   0  0  0  0  0  0  0  0  0  0  0  0
  -25.3232  -31.3957   21.0730 C   0  0  0  0  0  0  0  0  0  0  0  0
  -29.3871  -16.8813   20.6742 C   0  0  0  0  0  0  0  0  0  0  0  0
  -26.6392  -32.3793   22.7532 C   0  0  0  0  0  0  0  0  0  0  0  0
  -27.5305  -32.3933   25.3966 C   0  0  0  0  0  0  0  0  0  0  0  0
  -25.7240  -32.5146   23.7971 C   0  0  0  0  0  0  0  0  0  0  0  0
  -22.6022  -28.3646   19.9300 C   0  0  0  0  0  0  0  0  0  0  0  0
  -26.0525  -21.7537   17.7507 C   0  0  0  0  0  0  0  0  0  0  0  0
  -20.9285  -26.9405   19.8528 C   0  0  0  0  0  0  0  0  0  0  0  0
  -27.8320  -20.6843   19.0697 C   0  0  0  0  0  0  0  0  0  0  0  0
  -25.1886  -22.1902   16.6394 C   0  0  0  0  0  0  0  0  0  0  0  0
  -20.9418  -28.3832   21.8941 C   0  0  0  0  0  0  0  0  0  0  0  0
  -25.0392  -13.6320   20.7139 C   0  0  0  0  0  0  0  0  0  0  0  0
  -23.2151  -16.2516   21.2905 C   0  0  0  0  0  0  0  0  0  0  0  0
  -23.0592  -19.6301   21.7474 C   0  0  0  0  0  0  0  0  0  0  0  0
  -29.5261  -19.7271   20.6693 C   0  0  0  0  0  0  0  0  0  0  0  0
  -23.4028  -23.3302   15.7436 C   0  0  0  0  0  0  0  0  0  0  0  0
  -21.2848  -10.4540   19.3493 C   0  0  0  0  0  0  0  0  0  0  0  0
  -26.2625  -14.6801   22.6533 C   0  0  0  0  0  0  0  0  0  0  0  0
  -25.5965  -16.6709   20.5705 C   0  0  0  0  0  0  0  0  0  0  0  0
  -21.6648  -11.8969   19.0273 C   0  0  0  0  0  0  0  0  0  0  0  0
  -20.5808  -25.5314   15.3007 C   0  0  0  0  0  0  0  0  0  0  0  0
  -23.1392  -11.9886   18.6472 C   0  0  0  0  0  0  0  0  0  0  0  0
  -20.6980  -26.4888   16.4865 C   0  0  0  0  0  0  0  0  0  0  0  0
  -21.9528  -25.1162   14.7785 C   0  0  0  0  0  0  0  0  0  0  0  0
  -22.9627  -25.4822   17.0134 C   0  0  0  0  0  0  0  0  0  0  0  0
  -24.0369  -11.5427   19.8078 C   0  0  1  0  0  0  0  0  0  0  0  0
  -24.9637  -14.6049   21.8565 C   0  0  1  0  0  0  0  0  0  0  0  0
  -21.5975  -25.8983   17.5871 C   0  0  1  0  0  0  0  0  0  0  0  0
  -21.4246  -21.4886   22.1610 C   0  0  0  0  0  0  0  0  0  0  0  0
  -31.8659  -19.4038   19.7613 C   0  0  0  0  0  0  0  0  0  0  0  0
  -31.2839  -18.5269   22.0545 C   0  0  0  0  0  0  0  0  0  0  0  0
  -22.3516  -16.1397   18.3662 C   0  0  0  0  0  0  0  0  0  0  0  0
  -21.5188  -18.4897   18.5946 C   0  0  0  0  0  0  0  0  0  0  0  0
  -20.5141  -16.6724   19.9768 C   0  0  0  0  0  0  0  0  0  0  0  0
  -24.3311  -20.3309   24.3262 C   0  0  0  0  0  0  0  0  0  0  0  0
  -22.8461  -17.4903   20.5104 C   0  0  1  0  0  0  0  0  0  0  0  0
  -22.3601  -20.4732   22.7985 C   0  0  2  0  0  0  0  0  0  0  0  0
  -30.7674  -18.8178   20.6460 C   0  0  0  0  0  0  0  0  0  1  0  0
  -21.8348  -17.1916   19.3678 C   0  0  0  0  0  0  0  0  0  0  0  0
  -22.7780  -27.7036   18.7828 N   0  0  0  0  0  0  0  0  0  0  0  0
  -24.1696  -22.9619   16.8325 N   0  0  0  0  0  0  0  0  0  0  0  0
  -21.7446  -26.8446   18.7643 N   0  0  0  0  0  0  0  0  0  0  0  0
  -24.5717  -15.8976   21.2912 N   0  0  0  0  0  0  0  0  0  0  0  0
  -22.7900  -24.5915   15.8582 N   0  0  0  0  0  0  0  0  0  0  0  0
  -19.8427  -26.1510   19.9939 N   0  0  0  0  0  0  0  0  0  0  0  0
  -21.6169  -29.4093   22.5691 N   0  0  0  0  0  0  0  0  0  0  0  0
  -28.9701  -19.9132   19.4083 N   0  0  0  0  0  0  0  0  0  0  0  0
  -24.1356  -12.5901   20.8015 N   0  0  0  0  0  0  0  0  0  0  0  0
  -22.3721  -18.4629   21.4889 N   0  0  0  0  0  0  0  0  0  0  0  0
  -23.3609  -21.2085   23.6223 N   0  3  0  0  0  0  0  0  0  0  0  0
  -19.9150  -27.8806   22.4106 O   0  0  0  0  0  0  0  0  0  0  0  0
  -25.8557  -13.8139   19.8184 O   0  0  0  0  0  0  0  0  0  0  0  0
  -22.3332  -15.6254   21.8836 O   0  0  0  0  0  0  0  0  0  0  0  0
  -24.1079  -19.9743   21.2068 O   0  0  0  0  0  0  0  0  0  0  0  0
  -29.1201  -20.2078   21.7254 O   0  0  0  0  0  0  0  0  0  0  0  0
  -23.2560  -22.6311   14.7382 O   0  0  0  0  0  0  0  0  0  0  0  0
  -26.1982  -32.3713   21.4405 O   0  0  0  0  0  0  0  0  0  0  0  0
  -30.3760  -17.5801   20.0532 O   0  0  0  0  0  0  0  0  0  1  0  0
  -27.9585  -32.3985   26.6659 F   0  0  0  0  0  0  0  0  0  0  0  0
  -24.4152  -32.6371   23.5364 F   0  0  0  0  0  0  0  0  0  0  0  0
  -27.3817  -20.7265   17.4181 S   0  0  0  0  0  0  0  0  0  0  0  0
  1  2  1  0  0  0  0
  1  5  2  0  0  0  0
  2  6  2  0  0  0  0
  3  8  2  0  0  0  0
  3 17  1  0  0  0  0
  4  9  1  0  0  0  0
  4 17  2  0  0  0  0
  5 19  1  0  0  0  0
  6 21  1  0  0  0  0
  7 10  2  0  0  0  0
  7 20  1  0  0  0  0
  8 23  1  0  0  0  0
  9 23  2  0  0  0  0
 10 24  1  0  0  0  0
 11 12  2  0  0  0  0
 11 25  1  0  0  0  0
 12 26  1  0  0  0  0
 13 14  1  0  0  0  0
 13 29  2  0  0  0  0
 14 31  2  0  0  0  0
 15 22  1  0  0  0  0
 15 24  2  0  0  0  0
 16 26  2  0  0  0  0
 16 27  1  0  0  0  0
 17 28  1  0  0  0  0
 18 28  1  0  0  0  0
 18 30  2  0  0  0  0
 18 33  1  0  0  0  0
 19 21  2  0  0  0  0
 19 39  1  0  0  0  0
 20 22  2  0  0  0  0
 20 40  1  0  0  0  0
 21 48  1  0  0  0  0
 22 41  1  0  0  0  0
 23 79  1  0  0  0  0
 24 80  1  0  0  0  0
 25 27  2  0  0  0  0
 25 79  1  0  0  0  0
 26 81  1  0  0  0  0
 27 82  1  0  0  0  0
 28 62  2  0  0  0  0
 29 32  1  0  0  0  0
 29 83  1  0  0  0  0
 30 64  1  0  0  0  0
 30 67  1  0  0  0  0
 31 69  1  0  0  0  0
 31 83  1  0  0  0  0
 32 63  2  0  0  0  0
 33 68  1  0  0  0  0
 33 73  2  0  0  0  0
 34 49  1  0  0  0  0
 34 70  1  0  0  0  0
 34 74  2  0  0  0  0
 35 58  1  0  0  0  0
 35 65  1  0  0  0  0
 35 75  2  0  0  0  0
 36 59  1  0  0  0  0
 36 71  1  0  0  0  0
 36 76  2  0  0  0  0
 37 60  1  0  0  0  0
 37 69  1  0  0  0  0
 37 77  2  0  0  0  0
 38 63  1  0  0  0  0
 38 66  1  0  0  0  0
 38 78  2  0  0  0  0
 39 42  1  0  0  0  0
 40 49  1  0  0  0  0
 41 65  1  0  0  0  0
 42 44  1  0  0  0  0
 43 45  1  0  0  0  0
 43 46  1  0  0  0  0
 44 48  1  0  0  0  0
 45 50  1  0  0  0  0
 46 66  1  0  0  0  0
 47 50  1  0  0  0  0
 47 66  1  0  0  0  0
 48 70  1  0  0  0  0
 49 65  1  0  0  0  0
 50 64  1  0  0  0  0
 51 59  1  0  0  0  0
 52 60  1  0  0  0  0
 53 60  1  0  0  0  0
 54 61  1  0  0  0  0
 55 61  1  0  0  0  0
 56 61  1  0  0  0  0
 57 72  1  0  0  0  0
 58 61  1  0  0  0  0
 58 71  1  0  0  0  0
 59 72  1  0  0  0  0
 60 80  1  0  0  0  0
 62 64  1  0  0  0  0
M  CHG  1  72   1
M  ISO  4  38 100  60 101  63 100  80 101
M  END
> <Batch ID>
0148

> <Smiles>
CNC(C)C(=O)NC(C(=O)N1Cc2cc([101O:1][101C:1](C)(C)C(=O)Nc3ccc(C=[100N:0][100C:0](=O)N4CCCC(n5nc(-c6ccc(Oc7ccc(F)cc7F)cc6)c(C(N)=O)c5N)C4)s3)ccc2CC1C(=O)NC1CCCc2ccccc21)C(C)(C)C

> <Shape>
0.236

> <Color>
0.071

> <Negative vol penalty>
0.000

$$$$

  -OEChem-04052303163D

 87 96  0     1  0  0  0  0  0999 V2000
  -19.2599  -27.5215   26.4501 C   0  0  0  0  0  0  0  0  0  0  0  0
  -20.5027  -27.0833   26.0041 C   0  0  0  0  0  0  0  0  0  0  0  0
  -23.6212   -9.3174   20.1923 C   0  0  0  0  0  0  0  0  0  0  0  0
  -24.1473  -10.3385   22.3177 C   0  0  0  0  0  0  0  0  0  0  0  0
  -18.3794  -28.1377   25.5618 C   0  0  0  0  0  0  0  0  0  0  0  0
  -20.8652  -27.2600   24.6693 C   0  0  0  0  0  0  0  0  0  0  0  0
  -26.4711  -28.4351   22.5015 C   0  0  0  0  0  0  0  0  0  0  0  0
  -23.1509   -8.1829   20.8536 C   0  0  0  0  0  0  0  0  0  0  0  0
  -23.6770   -9.2040   22.9791 C   0  0  0  0  0  0  0  0  0  0  0  0
  -27.4509  -27.6165   21.9416 C   0  0  0  0  0  0  0  0  0  0  0  0
  -20.6873   -7.8877   23.8449 C   0  0  0  0  0  0  0  0  0  0  0  0
  -19.8584   -8.0807   24.9500 C   0  0  0  0  0  0  0  0  0  0  0  0
  -26.6725  -28.2040   19.7353 C   0  0  0  0  0  0  0  0  0  0  0  0
  -28.6184  -19.9987   19.5724 C   0  0  0  0  0  0  0  0  0  0  0  0
  -21.4500   -6.9176   26.3469 C   0  0  0  0  0  0  0  0  0  0  0  0
  -26.3124  -19.7092   19.5429 C   0  0  0  0  0  0  0  0  0  0  0  0
  -24.1195  -10.3952   20.9243 C   0  0  0  0  0  0  0  0  0  0  0  0
  -23.8810  -12.4104   19.3785 C   0  0  0  0  0  0  0  0  0  0  0  0
  -18.7352  -28.3307   24.2176 C   0  0  0  0  0  0  0  0  0  0  0  0
  -25.5761  -29.1371   21.6813 C   0  0  0  0  0  0  0  0  0  0  0  0
  -19.9881  -27.8781   23.7619 C   0  0  0  0  0  0  0  0  0  0  0  0
  -25.6838  -29.0329   20.2872 C   0  0  0  0  0  0  0  0  0  0  0  0
  -27.5307  -19.0896   19.7149 C   0  0  0  0  0  0  0  0  0  0  0  0
  -23.1788   -8.1262   22.2471 C   0  0  0  0  0  0  0  0  0  0  0  0
  -27.5499  -27.4985   20.5584 C   0  0  0  0  0  0  0  0  0  0  0  0
  -21.8975   -7.2096   23.9907 C   0  0  0  0  0  0  0  0  0  0  0  0
  -20.2398   -7.5956   26.2010 C   0  0  0  0  0  0  0  0  0  0  0  0
  -22.2789   -6.7246   25.2417 C   0  0  0  0  0  0  0  0  0  0  0  0
  -24.6060  -11.5671   20.2417 C   0  0  0  0  0  0  0  0  0  0  0  0
  -24.7863  -13.3697   18.9954 C   0  0  0  0  0  0  0  0  0  0  0  0
  -28.1901  -21.2787   19.2965 C   0  0  0  0  0  0  0  0  0  0  0  0
  -29.8289  -24.6172   17.6203 C   0  0  0  0  0  0  0  0  0  0  0  0
  -28.9490  -24.7954   18.6171 C   0  0  0  0  0  0  0  0  0  0  0  0
  -30.5713  -23.3417   17.5039 C   0  0  0  0  0  0  0  0  0  0  0  0
  -22.5117  -12.3336   18.9605 C   0  0  0  0  0  0  0  0  0  0  0  0
  -22.4229  -29.1288   21.2799 C   0  0  0  0  0  0  0  0  0  0  0  0
  -23.0562  -31.6416   19.3286 C   0  0  0  0  0  0  0  0  0  0  0  0
  -25.3046  -33.2805   17.3525 C   0  0  0  0  0  0  0  0  0  0  0  0
  -28.8431  -16.9920   20.1885 C   0  0  0  0  0  0  0  0  0  0  0  0
  -17.7312  -28.9592   23.2840 C   0  0  0  0  0  0  0  0  0  0  0  0
  -24.5419  -30.0369   22.3003 C   0  0  0  0  0  0  0  0  0  0  0  0
  -24.7603  -29.7814   19.3623 C   0  0  0  0  0  0  0  0  0  0  0  0
  -30.3406  -22.2654   18.5364 C   0  0  0  0  0  0  0  0  0  0  0  0
  -18.3409  -29.4456   21.9718 C   0  0  0  0  0  0  0  0  0  0  0  0
  -29.8019  -13.6080   19.6349 C   0  0  0  0  0  0  0  0  0  0  0  0
  -19.2590  -28.3796   21.3823 C   0  0  0  0  0  0  0  0  0  0  0  0
  -28.4759  -12.8448   19.6724 C   0  0  0  0  0  0  0  0  0  0  0  0
  -29.8247  -14.7550   20.6437 C   0  0  0  0  0  0  0  0  0  0  0  0
  -27.3676  -14.9234   20.5877 C   0  0  0  0  0  0  0  0  0  0  0  0
  -20.4275  -28.0740   22.3271 C   0  0  1  0  0  0  0  0  0  0  0  0
  -28.6206  -23.7193   19.6377 C   0  0  2  0  0  0  0  0  0  0  0  0
  -23.3544  -30.3036   21.3805 C   0  0  1  0  0  0  0  0  0  0  0  0
  -27.2725  -13.7991   19.5435 C   0  0  2  0  0  0  0  0  0  0  0  0
  -29.6824  -23.1824   23.3206 C   0  0  0  0  0  0  0  0  0  0  0  0
  -25.5199  -35.2845   15.8575 C   0  0  0  0  0  0  0  0  0  0  0  0
  -21.5034  -30.1782   17.1475 C   0  0  0  0  0  0  0  0  0  0  0  0
  -22.5396  -31.7221   15.4710 C   0  0  0  0  0  0  0  0  0  0  0  0
  -21.0690  -32.6382   17.2656 C   0  0  0  0  0  0  0  0  0  0  0  0
  -27.4222  -34.4630   19.0485 C   0  0  0  0  0  0  0  0  0  0  0  0
  -28.2013  -26.0934   18.7536 C   0  0  0  0  0  0  0  0  0  1  0  0
  -29.3246  -23.9883   20.9706 C   0  0  0  0  0  0  0  0  0  0  0  0
  -28.9639  -22.9296   22.0048 C   0  0  0  0  0  0  0  0  0  0  0  0
  -23.3790  -31.8019   17.8627 C   0  0  1  0  0  0  0  0  0  0  0  0
  -25.6922  -34.7458   17.2692 C   0  0  2  0  0  0  0  0  0  0  0  0
  -22.1390  -31.5693   16.9539 C   0  0  0  0  0  0  0  0  0  0  0  0
  -25.8741  -11.9563   20.3978 N   0  0  0  0  0  0  0  0  0  0  0  0
  -25.9531  -13.0547   19.6275 N   0  0  0  0  0  0  0  0  0  0  0  0
  -28.9975  -22.3994   19.0997 N   0  0  3  0  0  0  0  0  0  0  0  0
  -23.7617  -30.6436   20.0157 N   0  0  0  0  0  0  0  0  0  0  0  0
  -28.6573  -15.6197   20.4589 N   0  0  0  0  0  0  0  0  0  0  0  0
  -24.6901  -14.4434   18.1828 N   0  0  0  0  0  0  0  0  0  0  0  0
  -21.5414  -12.9949   19.7257 N   0  0  0  0  0  0  0  0  0  0  0  0
  -27.6612  -17.7076   19.9992 N   0  0  0  0  0  0  0  0  0  0  0  0
  -21.4313  -29.1131   22.2421 N   0  0  0  0  0  0  0  0  0  0  0  0
  -23.9853  -33.1212   17.7202 N   0  0  0  0  0  0  0  0  0  0  0  0
  -27.1154  -34.9289   17.6716 N   0  3  0  0  0  0  0  0  0  0  0  0
  -31.3991  -23.2023   16.6044 O   0  0  0  0  0  0  0  0  0  0  0  0
  -22.1570  -11.6838   17.9478 O   0  0  0  0  0  0  0  0  0  0  0  0
  -22.5906  -28.2990   20.3940 O   0  0  0  0  0  0  0  0  0  0  0  0
  -22.2143  -32.3795   19.8467 O   0  0  0  0  0  0  0  0  0  0  0  0
  -26.0924  -32.3684   17.1116 O   0  0  0  0  0  0  0  0  0  0  0  0
  -29.9685  -17.4899   20.1024 O   0  0  0  0  0  0  0  0  0  0  0  0
  -22.7197   -7.0195   22.8928 O   0  0  0  0  0  0  0  0  0  0  0  0
  -28.5049  -26.6996   20.0092 O   0  0  0  0  0  0  0  0  0  1  0  0
  -19.4444   -7.7824   27.2625 F   0  0  0  0  0  0  0  0  0  0  0  0
  -23.4409   -6.0734   25.3882 F   0  0  0  0  0  0  0  0  0  0  0  0
  -26.4829  -21.3804   19.2107 S   0  0  0  0  0  0  0  0  0  0  0  0
  1  2  1  0  0  0  0
  1  5  2  0  0  0  0
  2  6  2  0  0  0  0
  3  8  2  0  0  0  0
  3 17  1  0  0  0  0
  4  9  1  0  0  0  0
  4 17  2  0  0  0  0
  5 19  1  0  0  0  0
  6 21  1  0  0  0  0
  7 10  2  0  0  0  0
  7 20  1  0  0  0  0
  8 24  1  0  0  0  0
  9 24  2  0  0  0  0
 10 25  1  0  0  0  0
 11 12  2  0  0  0  0
 11 26  1  0  0  0  0
 12 27  1  0  0  0  0
 13 22  1  0  0  0  0
 13 25  2  0  0  0  0
 14 23  1  0  0  0  0
 14 31  2  0  0  0  0
 15 27  2  0  0  0  0
 15 28  1  0  0  0  0
 16 23  2  0  0  0  0
 16 87  1  0  0  0  0
 17 29  1  0  0  0  0
 18 29  1  0  0  0  0
 18 30  2  0  0  0  0
 18 35  1  0  0  0  0
 19 21  2  0  0  0  0
 19 40  1  0  0  0  0
 20 22  2  0  0  0  0
 20 41  1  0  0  0  0
 21 50  1  0  0  0  0
 22 42  1  0  0  0  0
 23 73  1  0  0  0  0
 24 83  1  0  0  0  0
 25 84  1  0  0  0  0
 26 28  2  0  0  0  0
 26 83  1  0  0  0  0
 27 85  1  0  0  0  0
 28 86  1  0  0  0  0
 29 66  2  0  0  0  0
 30 67  1  0  0  0  0
 30 71  1  0  0  0  0
 31 68  1  0  0  0  0
 31 87  1  0  0  0  0
 32 33  2  0  0  0  0
 32 34  1  0  0  0  0
 33 51  1  0  0  0  0
 33 60  1  0  0  0  0
 34 43  1  0  0  0  0
 34 77  2  0  0  0  0
 35 72  1  0  0  0  0
 35 78  2  0  0  0  0
 36 52  1  0  0  0  0
 36 74  1  0  0  0  0
 36 79  2  0  0  0  0
 37 63  1  0  0  0  0
 37 69  1  0  0  0  0
 37 80  2  0  0  0  0
 38 64  1  0  0  0  0
 38 75  1  0  0  0  0
 38 81  2  0  0  0  0
 39 70  1  0  0  0  0
 39 73  1  0  0  0  0
 39 82  2  0  0  0  0
 40 44  1  0  0  0  0
 41 52  1  0  0  0  0
 42 69  1  0  0  0  0
 43 68  1  0  0  0  0
 44 46  1  0  0  0  0
 45 47  1  0  0  0  0
 45 48  1  0  0  0  0
 46 50  1  0  0  0  0
 47 53  1  0  0  0  0
 48 70  1  0  0  0  0
 49 53  1  0  0  0  0
 49 70  1  0  0  0  0
 50 74  1  0  0  0  0
 51 61  1  0  0  0  0
 51 68  1  0  0  0  0
 52 69  1  0  0  0  0
 53 67  1  0  0  0  0
 54 62  1  0  0  0  0
 55 64  1  0  0  0  0
 56 65  1  0  0  0  0
 57 65  1  0  0  0  0
 58 65  1  0  0  0  0
 59 76  1  0  0  0  0
 60 84  1  0  0  0  0
 61 62  1  0  0  0  0
 63 65  1  0  0  0  0
 63 75  1  0  0  0  0
 64 76  1  0  0  0  0
 66 67  1  0  0  0  0
M  CHG  1  76   1
M  ISO  4  39 100  60 101  73 100  84 101
M  END
> <Batch ID>
0148

> <Smiles>
CCCC1=C([101CH2:1][101O:1]c2ccc3c(c2)CN(C(=O)C(NC(=O)C(C)NC)C(C)(C)C)C(C(=O)NC2CCCc4ccccc42)C3)CC(=O)CN1c1cc([100NH:0][100C:0](=O)N2CCCC(n3nc(-c4ccc(Oc5ccc(F)cc5F)cc4)c(C(N)=O)c3N)C2)cs1

> <Shape>
0.288

> <Color>
0.127

> <Negative vol penalty>
0.000

$$$$

  -OEChem-04052303163D

 82 91  0     1  0  0  0  0  0999 V2000
  -18.2541  -28.3757   22.9424 C   0  0  0  0  0  0  0  0  0  0  0  0
  -18.9481  -27.6802   23.9274 C   0  0  0  0  0  0  0  0  0  0  0  0
  -23.9593   -9.5384   21.2822 C   0  0  0  0  0  0  0  0  0  0  0  0
  -24.4974  -10.5157   23.4252 C   0  0  0  0  0  0  0  0  0  0  0  0
  -18.7981  -28.5012   21.6648 C   0  0  0  0  0  0  0  0  0  0  0  0
  -20.1859  -27.1087   23.6349 C   0  0  0  0  0  0  0  0  0  0  0  0
  -26.4975  -25.6040   26.6708 C   0  0  0  0  0  0  0  0  0  0  0  0
  -23.4909   -8.3914   21.9229 C   0  0  0  0  0  0  0  0  0  0  0  0
  -24.0290   -9.3686   24.0659 C   0  0  0  0  0  0  0  0  0  0  0  0
  -27.3772  -24.5382   26.8552 C   0  0  0  0  0  0  0  0  0  0  0  0
  -20.7021   -7.4215   23.5706 C   0  0  0  0  0  0  0  0  0  0  0  0
  -19.4896   -6.8859   23.1365 C   0  0  0  0  0  0  0  0  0  0  0  0
  -28.2553  -24.8869   24.6356 C   0  0  0  0  0  0  0  0  0  0  0  0
  -30.6828  -17.9114   24.9909 C   0  0  0  0  0  0  0  0  0  0  0  0
  -20.6038   -4.8163   22.5775 C   0  0  0  0  0  0  0  0  0  0  0  0
  -24.4626  -10.6006   22.0334 C   0  0  0  0  0  0  0  0  0  0  0  0
  -24.2062  -12.9339   21.0347 C   0  0  0  0  0  0  0  0  0  0  0  0
  -20.0477  -27.9393   21.3592 C   0  0  0  0  0  0  0  0  0  0  0  0
  -26.4825  -26.3135   25.4614 C   0  0  0  0  0  0  0  0  0  0  0  0
  -20.7465  -27.2257   22.3516 C   0  0  0  0  0  0  0  0  0  0  0  0
  -27.3762  -25.9630   24.4393 C   0  0  0  0  0  0  0  0  0  0  0  0
  -31.1010  -16.7410   24.3920 C   0  0  0  0  0  0  0  0  0  0  0  0
  -23.5257   -8.3065   23.3147 C   0  0  0  0  0  0  0  0  0  0  0  0
  -28.2542  -24.1777   25.8364 C   0  0  0  0  0  0  0  0  0  0  0  0
  -21.8656   -6.6545   23.5081 C   0  0  0  0  0  0  0  0  0  0  0  0
  -19.4404   -5.5833   22.6400 C   0  0  0  0  0  0  0  0  0  0  0  0
  -21.8164   -5.3520   23.0116 C   0  0  0  0  0  0  0  0  0  0  0  0
  -24.9472  -11.7855   21.3721 C   0  0  0  0  0  0  0  0  0  0  0  0
  -31.2962  -16.8209   23.0704 C   0  0  0  0  0  0  0  0  0  0  0  0
  -25.1169  -13.7642   20.4283 C   0  0  0  0  0  0  0  0  0  0  0  0
  -30.5826  -18.8898   24.0002 C   0  0  0  0  0  0  0  0  0  0  0  0
  -22.8188  -13.2242   21.2503 C   0  0  0  0  0  0  0  0  0  0  0  0
  -24.3235  -26.8192   23.1839 C   0  0  0  0  0  0  0  0  0  0  0  0
  -26.5966  -28.8159   22.0142 C   0  0  0  0  0  0  0  0  0  0  0  0
  -29.8185  -20.9615   25.2078 C   0  0  0  0  0  0  0  0  0  0  0  0
  -29.8977  -29.6648   21.8439 C   0  0  0  0  0  0  0  0  0  0  0  0
  -31.0650  -14.2647   20.7917 C   0  0  0  0  0  0  0  0  0  0  0  0
  -20.5734  -28.0607   19.9509 C   0  0  0  0  0  0  0  0  0  0  0  0
  -25.5460  -27.4778   25.2882 C   0  0  0  0  0  0  0  0  0  0  0  0
  -31.4709  -15.2989   24.4849 C   0  0  0  0  0  0  0  0  0  0  0  0
  -27.4139  -26.7056   23.1296 C   0  0  0  0  0  0  0  0  0  0  0  0
  -22.0621  -27.7465   19.8272 C   0  0  0  0  0  0  0  0  0  0  0  0
  -29.1544  -13.6547   17.8610 C   0  0  0  0  0  0  0  0  0  0  0  0
  -22.4019  -26.4659   20.5830 C   0  0  0  0  0  0  0  0  0  0  0  0
  -27.7907  -13.2145   18.3960 C   0  0  0  0  0  0  0  0  0  0  0  0
  -30.2967  -13.1321   18.7294 C   0  0  0  0  0  0  0  0  0  0  0  0
  -28.8212  -13.0141   20.6979 C   0  0  0  0  0  0  0  0  0  0  0  0
  -22.1033  -26.6129   22.0799 C   0  0  1  0  0  0  0  0  0  0  0  0
  -31.7215  -15.3890   22.9396 C   0  0  1  0  0  0  0  0  0  0  0  0
  -25.2610  -27.8028   23.8251 C   0  0  1  0  0  0  0  0  0  0  0  0
  -27.6339  -13.5636   19.8885 C   0  0  2  0  0  0  0  0  0  0  0  0
  -31.4535  -31.3206   20.7785 C   0  0  0  0  0  0  0  0  0  0  0  0
  -26.3651  -27.3238   19.3628 C   0  0  0  0  0  0  0  0  0  0  0  0
  -28.5408  -28.3529   18.6735 C   0  0  0  0  0  0  0  0  0  0  0  0
  -26.5702  -29.8070   19.1480 C   0  0  0  0  0  0  0  0  0  0  0  0
  -30.7809  -30.7010   24.4717 C   0  0  0  0  0  0  0  0  0  0  0  0
  -29.4873  -22.3987   24.8512 C   0  0  0  0  0  0  0  0  0  1  0  0
  -27.7623  -28.6703   21.0660 C   0  0  1  0  0  0  0  0  0  0  0  0
  -30.6038  -30.9998   21.9982 C   0  0  2  0  0  0  0  0  0  0  0  0
  -27.3078  -28.5231   19.5864 C   0  0  0  0  0  0  0  0  0  0  0  0
  -26.2297  -11.8745   21.0100 N   0  0  0  0  0  0  0  0  0  0  0  0
  -26.3017  -13.0888   20.4387 N   0  0  0  0  0  0  0  0  0  0  0  0
  -26.4745  -27.8324   23.0060 N   0  0  0  0  0  0  0  0  0  0  0  0
  -30.0879  -13.5033   20.1312 N   0  0  0  0  0  0  0  0  0  0  0  0
  -25.0117  -14.9989   19.8926 N   0  0  0  0  0  0  0  0  0  0  0  0
  -22.0257  -12.2605   21.8880 N   0  0  0  0  0  0  0  0  0  0  0  0
  -30.2004  -20.2502   24.0753 N   0  0  0  0  0  0  0  0  0  0  0  0
  -23.1446  -27.3793   22.7301 N   0  0  0  0  0  0  0  0  0  0  0  0
  -28.6342  -29.8137   21.3124 N   0  0  0  0  0  0  0  0  0  0  0  0
  -30.7930  -14.5861   22.1175 N   0  0  0  0  0  0  0  0  0  0  0  0
  -31.4896  -30.9818   23.1965 N   0  3  0  0  0  0  0  0  0  0  0  0
  -22.2940  -14.2994   20.8733 O   0  0  0  0  0  0  0  0  0  0  0  0
  -24.6464  -25.6397   23.1054 O   0  0  0  0  0  0  0  0  0  0  0  0
  -25.8271  -29.7712   21.8843 O   0  0  0  0  0  0  0  0  0  0  0  0
  -29.7379  -20.5506   26.3607 O   0  0  0  0  0  0  0  0  0  0  0  0
  -30.4167  -28.5964   22.1596 O   0  0  0  0  0  0  0  0  0  0  0  0
  -32.1057  -14.6422   20.2425 O   0  0  0  0  0  0  0  0  0  0  0  0
  -23.0685   -7.1874   23.9403 O   0  0  0  0  0  0  0  0  0  0  0  0
  -29.1135  -23.1374   26.0135 O   0  0  0  0  0  0  0  0  0  1  0  0
  -18.2757   -5.0686   22.2245 F   0  0  0  0  0  0  0  0  0  0  0  0
  -22.9306   -4.6099   22.9503 F   0  0  0  0  0  0  0  0  0  0  0  0
  -31.0146  -18.2875   22.4057 S   0  0  0  0  0  0  0  0  0  0  0  0
  1  2  1  0  0  0  0
  1  5  2  0  0  0  0
  2  6  2  0  0  0  0
  3  8  2  0  0  0  0
  3 16  1  0  0  0  0
  4  9  1  0  0  0  0
  4 16  2  0  0  0  0
  5 18  1  0  0  0  0
  6 20  1  0  0  0  0
  7 10  2  0  0  0  0
  7 19  1  0  0  0  0
  8 23  1  0  0  0  0
  9 23  2  0  0  0  0
 10 24  1  0  0  0  0
 11 12  2  0  0  0  0
 11 25  1  0  0  0  0
 12 26  1  0  0  0  0
 13 21  1  0  0  0  0
 13 24  2  0  0  0  0
 14 22  1  0  0  0  0
 14 31  2  0  0  0  0
 15 26  2  0  0  0  0
 15 27  1  0  0  0  0
 16 28  1  0  0  0  0
 17 28  1  0  0  0  0
 17 30  2  0  0  0  0
 17 32  1  0  0  0  0
 18 20  2  0  0  0  0
 18 38  1  0  0  0  0
 19 21  2  0  0  0  0
 19 39  1  0  0  0  0
 20 48  1  0  0  0  0
 21 41  1  0  0  0  0
 22 29  2  0  0  0  0
 22 40  1  0  0  0  0
 23 78  1  0  0  0  0
 24 79  1  0  0  0  0
 25 27  2  0  0  0  0
 25 78  1  0  0  0  0
 26 80  1  0  0  0  0
 27 81  1  0  0  0  0
 28 61  2  0  0  0  0
 29 49  1  0  0  0  0
 29 82  1  0  0  0  0
 30 62  1  0  0  0  0
 30 65  1  0  0  0  0
 31 67  1  0  0  0  0
 31 82  1  0  0  0  0
 32 66  1  0  0  0  0
 32 72  2  0  0  0  0
 33 50  1  0  0  0  0
 33 68  1  0  0  0  0
 33 73  2  0  0  0  0
 34 58  1  0  0  0  0
 34 63  1  0  0  0  0
 34 74  2  0  0  0  0
 35 57  1  0  0  0  0
 35 67  1  0  0  0  0
 35 75  2  0  0  0  0
 36 59  1  0  0  0  0
 36 69  1  0  0  0  0
 36 76  2  0  0  0  0
 37 64  1  0  0  0  0
 37 70  1  0  0  0  0
 37 77  2  0  0  0  0
 38 42  1  0  0  0  0
 39 50  1  0  0  0  0
 40 49  1  0  0  0  0
 41 63  1  0  0  0  0
 42 44  1  0  0  0  0
 43 45  1  0  0  0  0
 43 46  1  0  0  0  0
 44 48  1  0  0  0  0
 45 51  1  0  0  0  0
 46 64  1  0  0  0  0
 47 51  1  0  0  0  0
 47 64  1  0  0  0  0
 48 68  1  0  0  0  0
 49 70  1  0  0  0  0
 50 63  1  0  0  0  0
 51 62  1  0  0  0  0
 52 59  1  0  0  0  0
 53 60  1  0  0  0  0
 54 60  1  0  0  0  0
 55 60  1  0  0  0  0
 56 71  1  0  0  0  0
 57 79  1  0  0  0  0
 58 60  1  0  0  0  0
 58 69  1  0  0  0  0
 59 71  1  0  0  0  0
 61 62  1  0  0  0  0
M  CHG  1  71   1
M  ISO  4  37 100  57 101  70 100  79 101
M  END
> <Batch ID>
0148

> <Smiles>
CNC(C)C(=O)NC(C(=O)N1Cc2cc([101O:1][101CH2:1]C(=O)Nc3cc4c(s3)C([100NH:0][100C:0](=O)N3CCCC(n5nc(-c6ccc(Oc7ccc(F)cc7F)cc6)c(C(N)=O)c5N)C3)C4)ccc2CC1C(=O)NC1CCCc2ccccc21)C(C)(C)C

> <Shape>
0.234

> <Color>
0.136

> <Negative vol penalty>
0.000

$$$$

  -OEChem-04052303163D

 86 95  0     1  0  0  0  0  0999 V2000
  -16.6709  -27.4109   22.1975 C   0  0  0  0  0  0  0  0  0  0  0  0
  -17.8002  -26.8044   21.6569 C   0  0  0  0  0  0  0  0  0  0  0  0
  -28.1734  -18.9365   15.2118 C   0  0  0  0  0  0  0  0  0  0  0  0
  -21.7629  -14.0466   22.3619 C   0  0  0  0  0  0  0  0  0  0  0  0
  -21.6781  -14.6395   20.0214 C   0  0  0  0  0  0  0  0  0  0  0  0
  -28.9965  -20.0506   15.3758 C   0  0  0  0  0  0  0  0  0  0  0  0
  -16.6428  -28.7929   22.3792 C   0  0  0  0  0  0  0  0  0  0  0  0
  -18.9017  -27.5798   21.2967 C   0  0  0  0  0  0  0  0  0  0  0  0
  -24.8046  -25.9947   21.6833 C   0  0  0  0  0  0  0  0  0  0  0  0
  -28.0452  -18.0062   16.2432 C   0  0  0  0  0  0  0  0  0  0  0  0
  -20.4318  -14.4366   22.5090 C   0  0  0  0  0  0  0  0  0  0  0  0
  -20.3469  -15.0294   20.1684 C   0  0  0  0  0  0  0  0  0  0  0  0
  -25.7087  -25.5077   20.7404 C   0  0  0  0  0  0  0  0  0  0  0  0
  -17.3736  -13.1616   21.8345 C   0  0  0  0  0  0  0  0  0  0  0  0
  -16.5261  -12.3168   22.5511 C   0  0  0  0  0  0  0  0  0  0  0  0
  -29.5634  -19.3041   17.6025 C   0  0  0  0  0  0  0  0  0  0  0  0
  -26.5225  -27.7485   20.3723 C   0  0  0  0  0  0  0  0  0  0  0  0
  -16.0983  -14.0900   24.1354 C   0  0  0  0  0  0  0  0  0  0  0  0
  -22.3861  -14.1481   21.1181 C   0  0  0  0  0  0  0  0  0  0  0  0
  -29.6915  -20.2344   16.5711 C   0  0  0  0  0  0  0  0  0  0  0  0
  -24.2401  -12.4670   20.6242 C   0  0  0  0  0  0  0  0  0  0  0  0
  -17.7482  -29.5846   22.0300 C   0  0  0  0  0  0  0  0  0  0  0  0
  -24.7450  -27.3660   21.9704 C   0  0  0  0  0  0  0  0  0  0  0  0
  -18.8878  -28.9739   21.4726 C   0  0  0  0  0  0  0  0  0  0  0  0
  -25.6185  -28.2501   21.3212 C   0  0  0  0  0  0  0  0  0  0  0  0
  -28.7403  -18.1900   17.4386 C   0  0  0  0  0  0  0  0  0  0  0  0
  -19.7238  -14.9279   21.4123 C   0  0  0  0  0  0  0  0  0  0  0  0
  -26.5659  -26.3850   20.0826 C   0  0  0  0  0  0  0  0  0  0  0  0
  -17.5836  -14.4706   22.2683 C   0  0  0  0  0  0  0  0  0  0  0  0
  -15.8884  -12.7810   23.7016 C   0  0  0  0  0  0  0  0  0  0  0  0
  -16.9459  -14.9347   23.4188 C   0  0  0  0  0  0  0  0  0  0  0  0
  -23.7613  -13.7460   20.9657 C   0  0  0  0  0  0  0  0  0  0  0  0
  -25.6066  -12.6049   20.6087 C   0  0  0  0  0  0  0  0  0  0  0  0
  -30.5610  -21.4116   16.7455 C   0  0  0  0  0  0  0  0  0  0  0  0
  -23.5146  -11.2621   20.3457 C   0  0  0  0  0  0  0  0  0  0  0  0
  -22.5188  -29.6190   21.7031 C   0  0  0  0  0  0  0  0  0  0  0  0
  -24.7228  -31.4320   23.2451 C   0  0  0  0  0  0  0  0  0  0  0  0
  -28.0018  -31.9640   24.0275 C   0  0  0  0  0  0  0  0  0  0  0  0
  -29.2287  -17.2763   19.7349 C   0  0  0  0  0  0  0  0  0  0  0  0
  -17.6531  -31.0800   22.2010 C   0  0  0  0  0  0  0  0  0  0  0  0
  -23.7825  -27.8720   23.0096 C   0  0  0  0  0  0  0  0  0  0  0  0
  -25.6083  -29.7286   21.6082 C   0  0  0  0  0  0  0  0  0  0  0  0
  -19.0047  -31.7871   22.1414 C   0  0  0  0  0  0  0  0  0  0  0  0
  -29.1354  -15.1602   22.5967 C   0  0  0  0  0  0  0  0  0  0  0  0
  -19.8217  -31.2781   20.9581 C   0  0  0  0  0  0  0  0  0  0  0  0
  -27.7930  -14.4365   22.4689 C   0  0  0  0  0  0  0  0  0  0  0  0
  -29.8990  -24.6104   18.2906 C   0  0  0  0  0  0  0  0  0  0  0  0
  -29.0460  -16.6093   22.1217 C   0  0  0  0  0  0  0  0  0  0  0  0
  -30.8418  -23.7471   17.4589 C   0  0  0  0  0  0  0  0  0  0  0  0
  -27.1509  -16.0638   20.6451 C   0  0  0  0  0  0  0  0  0  0  0  0
  -28.6437  -22.6628   17.6516 C   0  0  0  0  0  0  0  0  0  0  0  0
  -20.1120  -29.7784   21.0925 C   0  0  1  0  0  0  0  0  0  0  0  0
  -23.4538  -29.3530   22.8489 C   0  0  1  0  0  0  0  0  0  0  0  0
  -27.2071  -14.5820   21.0508 C   0  0  2  0  0  0  0  0  0  0  0  0
  -28.4870  -24.1818   17.8483 C   0  0  2  0  0  0  0  0  0  0  0  0
  -28.0936  -24.8619   16.5271 C   0  0  0  0  0  0  0  0  0  0  0  0
  -29.4979  -33.5478   25.2727 C   0  0  0  0  0  0  0  0  0  0  0  0
  -24.4512  -33.4624   20.9839 C   0  0  0  0  0  0  0  0  0  0  0  0
  -26.5886  -34.5094   21.7608 C   0  0  0  0  0  0  0  0  0  0  0  0
  -24.6037  -34.4624   23.2711 C   0  0  0  0  0  0  0  0  0  0  0  0
  -28.9327  -29.8307   25.8554 C   0  0  0  0  0  0  0  0  0  0  0  0
  -27.4432  -24.5063   18.9178 C   0  0  0  0  0  0  0  0  0  1  0  0
  -25.8661  -32.3196   22.8163 C   0  0  1  0  0  0  0  0  0  0  0  0
  -28.6862  -32.2641   25.3489 C   0  0  2  0  0  0  0  0  0  0  0  0
  -25.3765  -33.6609   22.2010 C   0  0  0  0  0  0  0  0  0  0  0  0
  -24.7437  -14.6312   21.1538 N   0  0  0  0  0  0  0  0  0  0  0  0
  -25.8536  -13.9072   20.9297 N   0  0  0  0  0  0  0  0  0  0  0  0
  -30.0550  -22.5232   17.2477 N   0  0  0  0  0  0  0  0  0  0  0  0
  -24.6449  -30.1756   22.6277 N   0  0  0  0  0  0  0  0  0  0  0  0
  -28.4863  -16.6688   20.7696 N   0  0  0  0  0  0  0  0  0  0  0  0
  -26.6090  -11.7379   20.3520 N   0  0  0  0  0  0  0  0  0  0  0  0
  -22.1148  -11.2961   20.4059 N   0  0  0  0  0  0  0  0  0  0  0  0
  -28.6095  -17.2445   18.4858 N   0  0  0  0  0  0  0  0  0  0  0  0
  -21.1808  -29.5536   22.0421 N   0  0  0  0  0  0  0  0  0  0  0  0
  -26.7224  -32.4766   23.9870 N   0  0  0  0  0  0  0  0  0  0  0  0
  -31.8418  -21.3354   16.3960 N   0  3  0  0  0  0  0  0  0  0  0  0
  -29.6028  -31.1499   25.7222 N   0  3  0  0  0  0  0  0  0  0  0  0
  -24.0912  -10.1832   20.0684 O   0  0  0  0  0  0  0  0  0  0  0  0
  -22.9773  -29.8668   20.5941 O   0  0  0  0  0  0  0  0  0  0  0  0
  -23.9323  -31.8356   24.1017 O   0  0  0  0  0  0  0  0  0  0  0  0
  -28.5489  -31.3407   23.1205 O   0  0  0  0  0  0  0  0  0  0  0  0
  -30.3443  -17.7630   19.9361 O   0  0  0  0  0  0  0  0  0  0  0  0
  -18.4248  -15.3083   21.5553 O   0  0  0  0  0  0  0  0  0  0  0  0
  -27.4489  -25.9124   19.1613 O   0  0  0  0  0  0  0  0  0  1  0  0
  -15.0733  -11.9701   24.3888 F   0  0  0  0  0  0  0  0  0  0  0  0
  -17.1428  -16.1916   23.8398 F   0  0  0  0  0  0  0  0  0  0  0  0
  1  2  1  0  0  0  0
  1  7  2  0  0  0  0
  2  8  2  0  0  0  0
  3  6  2  0  0  0  0
  3 10  1  0  0  0  0
  4 11  2  0  0  0  0
  4 19  1  0  0  0  0
  5 12  1  0  0  0  0
  5 19  2  0  0  0  0
  6 20  1  0  0  0  0
  7 22  1  0  0  0  0
  8 24  1  0  0  0  0
  9 13  2  0  0  0  0
  9 23  1  0  0  0  0
 10 26  2  0  0  0  0
 11 27  1  0  0  0  0
 12 27  2  0  0  0  0
 13 28  1  0  0  0  0
 14 15  2  0  0  0  0
 14 29  1  0  0  0  0
 15 30  1  0  0  0  0
 16 20  2  0  0  0  0
 16 26  1  0  0  0  0
 17 25  1  0  0  0  0
 17 28  2  0  0  0  0
 18 30  2  0  0  0  0
 18 31  1  0  0  0  0
 19 32  1  0  0  0  0
 20 34  1  0  0  0  0
 21 32  1  0  0  0  0
 21 33  2  0  0  0  0
 21 35  1  0  0  0  0
 22 24  2  0  0  0  0
 22 40  1  0  0  0  0
 23 25  2  0  0  0  0
 23 41  1  0  0  0  0
 24 52  1  0  0  0  0
 25 42  1  0  0  0  0
 26 73  1  0  0  0  0
 27 83  1  0  0  0  0
 28 84  1  0  0  0  0
 29 31  2  0  0  0  0
 29 83  1  0  0  0  0
 30 85  1  0  0  0  0
 31 86  1  0  0  0  0
 32 66  2  0  0  0  0
 33 67  1  0  0  0  0
 33 71  1  0  0  0  0
 34 68  1  0  0  0  0
 34 76  2  0  0  0  0
 35 72  1  0  0  0  0
 35 78  2  0  0  0  0
 36 53  1  0  0  0  0
 36 74  1  0  0  0  0
 36 79  2  0  0  0  0
 37 63  1  0  0  0  0
 37 69  1  0  0  0  0
 37 80  2  0  0  0  0
 38 64  1  0  0  0  0
 38 75  1  0  0  0  0
 38 81  2  0  0  0  0
 39 70  1  0  0  0  0
 39 73  1  0  0  0  0
 39 82  2  0  0  0  0
 40 43  1  0  0  0  0
 41 53  1  0  0  0  0
 42 69  1  0  0  0  0
 43 45  1  0  0  0  0
 44 46  1  0  0  0  0
 44 48  1  0  0  0  0
 45 52  1  0  0  0  0
 46 54  1  0  0  0  0
 47 49  1  0  0  0  0
 47 55  1  0  0  0  0
 48 70  1  0  0  0  0
 49 68  1  0  0  0  0
 50 54  1  0  0  0  0
 50 70  1  0  0  0  0
 51 55  1  0  0  0  0
 51 68  1  0  0  0  0
 52 74  1  0  0  0  0
 53 69  1  0  0  0  0
 54 67  1  0  0  0  0
 55 56  1  0  0  0  0
 55 62  1  0  0  0  0
 57 64  1  0  0  0  0
 58 65  1  0  0  0  0
 59 65  1  0  0  0  0
 60 65  1  0  0  0  0
 61 77  1  0  0  0  0
 62 84  1  0  0  0  0
 63 65  1  0  0  0  0
 63 75  1  0  0  0  0
 64 77  1  0  0  0  0
 66 67  1  0  0  0  0
M  CHG  2  76   1  77   1
M  ISO  4  39 100  62 101  73 100  84 101
M  END
> <Batch ID>
0148

> <Smiles>
CNC(C)C(=O)NC(C(=O)N1Cc2cc([101O:1][101CH2:1]C3(C)CCN(C(=N)c4cccc([100NH:0][100C:0](=O)N5CCCC(n6nc(-c7ccc(Oc8ccc(F)cc8F)cc7)c(C(N)=O)c6N)C5)c4)C3)ccc2CC1C(=O)NC1CCCc2ccccc21)C(C)(C)C

> <Shape>
0.257

> <Color>
0.077

> <Negative vol penalty>
0.000

$$$$

  -OEChem-04052303163D

 83 91  0     1  0  0  0  0  0999 V2000
  -18.0564  -26.5066   26.0275 C   0  0  0  0  0  0  0  0  0  0  0  0
  -19.3894  -26.1360   26.1732 C   0  0  0  0  0  0  0  0  0  0  0  0
  -23.1262   -9.7462   19.9840 C   0  0  0  0  0  0  0  0  0  0  0  0
  -23.6310  -10.0532   22.3266 C   0  0  0  0  0  0  0  0  0  0  0  0
  -17.6327  -27.1354   24.8574 C   0  0  0  0  0  0  0  0  0  0  0  0
  -20.2993  -26.3929   25.1482 C   0  0  0  0  0  0  0  0  0  0  0  0
  -26.2101  -27.8747   25.7583 C   0  0  0  0  0  0  0  0  0  0  0  0
  -22.3781   -8.6104   20.2940 C   0  0  0  0  0  0  0  0  0  0  0  0
  -22.8829   -8.9175   22.6367 C   0  0  0  0  0  0  0  0  0  0  0  0
  -27.3797  -27.1207   25.6731 C   0  0  0  0  0  0  0  0  0  0  0  0
  -23.2864   -5.5624   22.5283 C   0  0  0  0  0  0  0  0  0  0  0  0
  -23.8363   -4.6501   23.4288 C   0  0  0  0  0  0  0  0  0  0  0  0
  -31.4728  -19.1729   22.2125 C   0  0  0  0  0  0  0  0  0  0  0  0
  -31.4772  -17.8415   21.7049 C   0  0  0  0  0  0  0  0  0  0  0  0
  -27.6370  -27.7913   23.3702 C   0  0  0  0  0  0  0  0  0  0  0  0
  -21.9562   -4.9791   24.9101 C   0  0  0  0  0  0  0  0  0  0  0  0
  -23.7527  -10.4675   21.0003 C   0  0  0  0  0  0  0  0  0  0  0  0
  -24.0648  -12.9685   20.6062 C   0  0  0  0  0  0  0  0  0  0  0  0
  -18.5398  -27.4088   23.8216 C   0  0  0  0  0  0  0  0  0  0  0  0
  -25.7384  -28.5850   24.6451 C   0  0  0  0  0  0  0  0  0  0  0  0
  -19.8870  -27.0246   23.9626 C   0  0  0  0  0  0  0  0  0  0  0  0
  -26.4625  -28.5556   23.4447 C   0  0  0  0  0  0  0  0  0  0  0  0
  -22.2565   -8.1961   21.6203 C   0  0  0  0  0  0  0  0  0  0  0  0
  -28.0918  -27.0766   24.4781 C   0  0  0  0  0  0  0  0  0  0  0  0
  -22.0714   -6.1831   22.8187 C   0  0  0  0  0  0  0  0  0  0  0  0
  -23.1712   -4.3585   24.6197 C   0  0  0  0  0  0  0  0  0  0  0  0
  -21.4063   -5.8914   24.0096 C   0  0  0  0  0  0  0  0  0  0  0  0
  -24.5260  -11.6405   20.6806 C   0  0  0  0  0  0  0  0  0  0  0  0
  -25.1779  -13.7002   20.2713 C   0  0  0  0  0  0  0  0  0  0  0  0
  -30.2513  -19.5188   22.7472 C   0  0  0  0  0  0  0  0  0  0  0  0
  -30.2588  -17.2204   21.8714 C   0  0  0  0  0  0  0  0  0  0  0  0
  -29.7178  -22.9329   24.2228 C   0  0  0  0  0  0  0  0  0  0  0  0
  -22.7481  -13.4937   20.8206 C   0  0  0  0  0  0  0  0  0  0  0  0
  -30.1780  -24.1551   24.5360 C   0  0  0  0  0  0  0  0  0  0  0  0
  -30.5477  -21.8844   23.5498 C   0  0  0  0  0  0  0  0  0  0  0  0
  -23.1014  -28.4852   22.8731 C   0  0  0  0  0  0  0  0  0  0  0  0
  -24.4011  -31.1145   21.4874 C   0  0  0  0  0  0  0  0  0  0  0  0
  -27.2022  -32.9303   20.7777 C   0  0  0  0  0  0  0  0  0  0  0  0
  -30.5748  -14.9193   20.8958 C   0  0  0  0  0  0  0  0  0  0  0  0
  -18.0255  -28.0478   22.5560 C   0  0  0  0  0  0  0  0  0  0  0  0
  -24.4894  -29.4151   24.7611 C   0  0  0  0  0  0  0  0  0  0  0  0
  -26.0095  -29.3167   22.2265 C   0  0  0  0  0  0  0  0  0  0  0  0
  -19.1292  -28.6214   21.6712 C   0  0  0  0  0  0  0  0  0  0  0  0
  -29.7646  -12.2049   18.7389 C   0  0  0  0  0  0  0  0  0  0  0  0
  -20.2704  -27.6199   21.5245 C   0  0  0  0  0  0  0  0  0  0  0  0
  -28.2915  -11.9253   19.0456 C   0  0  0  0  0  0  0  0  0  0  0  0
  -30.5392  -12.6043   19.9935 C   0  0  0  0  0  0  0  0  0  0  0  0
  -28.4815  -13.4343   21.0640 C   0  0  0  0  0  0  0  0  0  0  0  0
  -20.9092  -27.3085   22.8834 C   0  0  1  0  0  0  0  0  0  0  0  0
  -23.8246  -29.6857   23.4150 C   0  0  1  0  0  0  0  0  0  0  0  0
  -27.6460  -13.0912   19.8199 C   0  0  2  0  0  0  0  0  0  0  0  0
  -27.9525  -35.0138   19.5974 C   0  0  0  0  0  0  0  0  0  0  0  0
  -24.0671  -29.7094   18.7997 C   0  0  0  0  0  0  0  0  0  0  0  0
  -25.6568  -31.3721   17.8116 C   0  0  0  0  0  0  0  0  0  0  0  0
  -23.4924  -32.1433   18.7829 C   0  0  0  0  0  0  0  0  0  0  0  0
  -28.2724  -34.0998   23.2768 C   0  0  0  0  0  0  0  0  0  0  0  0
  -29.3227  -25.1812   25.2186 C   0  0  0  0  0  0  0  0  0  1  0  0
  -25.3349  -31.3603   20.3270 C   0  0  1  0  0  0  0  0  0  0  0  0
  -27.5058  -34.4108   20.9201 C   0  0  2  0  0  0  0  0  0  0  0  0
  -24.6456  -31.1303   18.9525 C   0  0  0  0  0  0  0  0  0  0  0  0
  -25.8303  -11.5319   20.4143 N   0  0  0  0  0  0  0  0  0  0  0  0
  -26.1983  -12.8010   20.1691 N   0  0  0  0  0  0  0  0  0  0  0  0
  -24.7790  -30.1087   22.3881 N   0  0  0  0  0  0  0  0  0  0  0  0
  -29.8713  -13.7169   20.6724 N   0  0  0  0  0  0  0  0  0  0  0  0
  -25.3735  -15.0187   20.0571 N   0  0  0  0  0  0  0  0  0  0  0  0
  -21.7202  -12.6028   21.1581 N   0  0  0  0  0  0  0  0  0  0  0  0
  -29.8114  -20.7227   23.3507 N   0  0  0  0  0  0  0  0  0  0  0  0
  -29.8272  -15.9173   21.5202 N   0  0  0  0  0  0  0  0  0  0  0  0
  -21.7871  -28.3856   23.2879 N   0  0  0  0  0  0  0  0  0  0  0  0
  -25.8683  -32.7059   20.5102 N   0  0  0  0  0  0  0  0  0  0  0  0
  -28.5875  -34.6237   21.9228 N   0  3  0  0  0  0  0  0  0  0  0  0
  -22.4872  -14.7147   20.7000 O   0  0  0  0  0  0  0  0  0  0  0  0
  -31.7155  -22.0883   23.2417 O   0  0  0  0  0  0  0  0  0  0  0  0
  -23.6917  -27.7078   22.1322 O   0  0  0  0  0  0  0  0  0  0  0  0
  -23.3777  -31.7949   21.5947 O   0  0  0  0  0  0  0  0  0  0  0  0
  -28.0630  -32.0601   20.8886 O   0  0  0  0  0  0  0  0  0  0  0  0
  -31.7454  -15.0633   20.5337 O   0  0  0  0  0  0  0  0  0  0  0  0
  -31.4753  -24.5456   24.2695 O   0  0  0  0  0  0  0  0  0  0  0  0
  -21.5264   -7.0880   21.9232 O   0  0  0  0  0  0  0  0  0  0  0  0
  -29.2334  -26.3410   24.3920 O   0  0  0  0  0  0  0  0  0  1  0  0
  -23.6986   -3.4812   25.4837 F   0  0  0  0  0  0  0  0  0  0  0  0
  -20.2382   -6.4837   24.2935 F   0  0  0  0  0  0  0  0  0  0  0  0
  -29.1165  -18.2412   22.6364 S   0  0  0  0  0  0  0  0  0  0  0  0
  1  2  1  0  0  0  0
  1  5  2  0  0  0  0
  2  6  2  0  0  0  0
  3  8  2  0  0  0  0
  3 17  1  0  0  0  0
  4  9  1  0  0  0  0
  4 17  2  0  0  0  0
  5 19  1  0  0  0  0
  6 21  1  0  0  0  0
  7 10  2  0  0  0  0
  7 20  1  0  0  0  0
  8 23  1  0  0  0  0
  9 23  2  0  0  0  0
 10 24  1  0  0  0  0
 11 12  2  0  0  0  0
 11 25  1  0  0  0  0
 12 26  1  0  0  0  0
 13 14  1  0  0  0  0
 13 30  2  0  0  0  0
 14 31  2  0  0  0  0
 15 22  1  0  0  0  0
 15 24  2  0  0  0  0
 16 26  2  0  0  0  0
 16 27  1  0  0  0  0
 17 28  1  0  0  0  0
 18 28  1  0  0  0  0
 18 29  2  0  0  0  0
 18 33  1  0  0  0  0
 19 21  2  0  0  0  0
 19 40  1  0  0  0  0
 20 22  2  0  0  0  0
 20 41  1  0  0  0  0
 21 49  1  0  0  0  0
 22 42  1  0  0  0  0
 23 79  1  0  0  0  0
 24 80  1  0  0  0  0
 25 27  2  0  0  0  0
 25 79  1  0  0  0  0
 26 81  1  0  0  0  0
 27 82  1  0  0  0  0
 28 61  2  0  0  0  0
 29 62  1  0  0  0  0
 29 65  1  0  0  0  0
 30 67  1  0  0  0  0
 30 83  1  0  0  0  0
 31 68  1  0  0  0  0
 31 83  1  0  0  0  0
 32 34  2  0  0  0  0
 32 35  1  0  0  0  0
 33 66  1  0  0  0  0
 33 72  2  0  0  0  0
 34 57  1  0  0  0  0
 34 78  1  0  0  0  0
 35 67  1  0  0  0  0
 35 73  2  0  0  0  0
 36 50  1  0  0  0  0
 36 69  1  0  0  0  0
 36 74  2  0  0  0  0
 37 58  1  0  0  0  0
 37 63  1  0  0  0  0
 37 75  2  0  0  0  0
 38 59  1  0  0  0  0
 38 70  1  0  0  0  0
 38 76  2  0  0  0  0
 39 64  1  0  0  0  0
 39 68  1  0  0  0  0
 39 77  2  0  0  0  0
 40 43  1  0  0  0  0
 41 50  1  0  0  0  0
 42 63  1  0  0  0  0
 43 45  1  0  0  0  0
 44 46  1  0  0  0  0
 44 47  1  0  0  0  0
 45 49  1  0  0  0  0
 46 51  1  0  0  0  0
 47 64  1  0  0  0  0
 48 51  1  0  0  0  0
 48 64  1  0  0  0  0
 49 69  1  0  0  0  0
 50 63  1  0  0  0  0
 51 62  1  0  0  0  0
 52 59  1  0  0  0  0
 53 60  1  0  0  0  0
 54 60  1  0  0  0  0
 55 60  1  0  0  0  0
 56 71  1  0  0  0  0
 57 80  1  0  0  0  0
 58 60  1  0  0  0  0
 58 70  1  0  0  0  0
 59 71  1  0  0  0  0
 61 62  1  0  0  0  0
M  CHG  1  71   1
M  ISO  4  39 100  57 101  68 100  80 101
M  END
> <Batch ID>
0148

> <Smiles>
CNC(C)C(=O)NC(C(=O)N1Cc2cc([101O:1][101CH2:1]C(=O)CC(=O)Nc3ccc([100NH:0][100C:0](=O)N4CCCC(n5nc(-c6ccc(Oc7ccc(F)cc7F)cc6)c(C(N)=O)c5N)C4)s3)ccc2CC1C(=O)NC1CCCc2ccccc21)C(C)(C)C

> <Shape>
0.282

> <Color>
0.208

> <Negative vol penalty>
0.000

$$$$

  -OEChem-04052303163D

 89 98  0     1  0  0  0  0  0999 V2000
  -25.5040  -37.4282   19.4493 C   0  0  0  0  0  0  0  0  0  0  0  0
  -26.1949  -36.2443   19.2120 C   0  0  0  0  0  0  0  0  0  0  0  0
  -24.7419   -8.9021   21.7007 C   0  0  0  0  0  0  0  0  0  0  0  0
  -23.1561  -10.1077   20.3336 C   0  0  0  0  0  0  0  0  0  0  0  0
  -24.7335  -37.5650   20.6032 C   0  0  0  0  0  0  0  0  0  0  0  0
  -26.1166  -35.1968   20.1291 C   0  0  0  0  0  0  0  0  0  0  0  0
  -26.1515  -29.2011   18.8817 C   0  0  0  0  0  0  0  0  0  0  0  0
  -23.6962   -8.4167   22.4858 C   0  0  0  0  0  0  0  0  0  0  0  0
  -22.1103   -9.6222   21.1187 C   0  0  0  0  0  0  0  0  0  0  0  0
  -27.1624  -28.2416   18.9167 C   0  0  0  0  0  0  0  0  0  0  0  0
  -21.3462   -5.9939   22.2832 C   0  0  0  0  0  0  0  0  0  0  0  0
  -21.3590   -4.6390   22.6142 C   0  0  0  0  0  0  0  0  0  0  0  0
  -25.1454  -20.8429   18.7595 C   0  0  0  0  0  0  0  0  0  0  0  0
  -26.4606  -27.5917   21.1313 C   0  0  0  0  0  0  0  0  0  0  0  0
  -23.5256  -19.9980   17.1787 C   0  0  0  0  0  0  0  0  0  0  0  0
  -23.7976  -22.3806   17.4728 C   0  0  0  0  0  0  0  0  0  0  0  0
  -21.4254   -5.2127   24.9602 C   0  0  0  0  0  0  0  0  0  0  0  0
  -24.4719   -9.7476   20.6246 C   0  0  0  0  0  0  0  0  0  0  0  0
  -26.0952   -9.6556   18.6589 C   0  0  0  0  0  0  0  0  0  0  0  0
  -24.6380  -36.5151   21.5302 C   0  0  0  0  0  0  0  0  0  0  0  0
  -25.2930  -29.3708   19.9775 C   0  0  0  0  0  0  0  0  0  0  0  0
  -25.3452  -35.3202   21.2972 C   0  0  0  0  0  0  0  0  0  0  0  0
  -24.5148  -19.7671   18.1346 C   0  0  0  0  0  0  0  0  0  0  0  0
  -25.4380  -28.5523   21.1067 C   0  0  0  0  0  0  0  0  0  0  0  0
  -24.7868  -22.1496   18.4287 C   0  0  0  0  0  0  0  0  0  0  0  0
  -22.3804   -8.7767   22.1948 C   0  0  0  0  0  0  0  0  0  0  0  0
  -27.3189  -27.4387   20.0427 C   0  0  0  0  0  0  0  0  0  0  0  0
  -21.3731   -6.9583   23.2907 C   0  0  0  0  0  0  0  0  0  0  0  0
  -21.3986   -4.2484   23.9527 C   0  0  0  0  0  0  0  0  0  0  0  0
  -23.1669  -21.3047   16.8478 C   0  0  0  0  0  0  0  0  0  0  0  0
  -21.4127   -6.5677   24.6292 C   0  0  0  0  0  0  0  0  0  0  0  0
  -25.5518  -10.2498   19.8137 C   0  0  0  0  0  0  0  0  0  0  0  0
  -27.0892  -10.5175   18.2645 C   0  0  0  0  0  0  0  0  0  0  0  0
  -25.7337   -8.4338   18.0015 C   0  0  0  0  0  0  0  0  0  0  0  0
  -24.6591  -31.7547   21.9822 C   0  0  0  0  0  0  0  0  0  0  0  0
  -22.3598  -29.7296   23.0475 C   0  0  0  0  0  0  0  0  0  0  0  0
  -26.4265  -23.1944   20.0241 C   0  0  0  0  0  0  0  0  0  0  0  0
  -21.2479  -26.5189   23.3663 C   0  0  0  0  0  0  0  0  0  0  0  0
  -27.9745  -16.3652   19.1703 C   0  0  0  0  0  0  0  0  0  0  0  0
  -23.8306  -36.7271   22.7864 C   0  0  0  0  0  0  0  0  0  0  0  0
  -24.1906  -30.3921   19.9134 C   0  0  0  0  0  0  0  0  0  0  0  0
  -24.5297  -28.6809   22.3012 C   0  0  0  0  0  0  0  0  0  0  0  0
  -23.4997  -35.4319   23.5235 C   0  0  0  0  0  0  0  0  0  0  0  0
  -30.1792  -13.7223   19.9684 C   0  0  0  0  0  0  0  0  0  0  0  0
  -24.7404  -34.5522   23.6403 C   0  0  0  0  0  0  0  0  0  0  0  0
  -29.2970  -12.4771   19.9480 C   0  0  0  0  0  0  0  0  0  0  0  0
  -24.7610  -17.9433   19.9684 C   0  0  0  0  0  0  0  0  0  0  0  0
  -29.4229  -14.9117   20.5449 C   0  0  0  0  0  0  0  0  0  0  0  0
  -25.5889  -16.6681   20.0544 C   0  0  0  0  0  0  0  0  0  0  0  0
  -26.3769  -18.0068   18.2298 C   0  0  0  0  0  0  0  0  0  0  0  0
  -27.2601  -13.9952   19.7498 C   0  0  0  0  0  0  0  0  0  0  0  0
  -24.9038  -18.3497   18.4927 C   0  0  2  0  0  0  0  0  0  0  0  0
  -25.2654  -34.1522   22.2561 C   0  0  1  0  0  0  0  0  0  0  0  0
  -23.6995  -30.8283   21.2903 C   0  0  1  0  0  0  0  0  0  0  0  0
  -27.9873  -12.7535   19.1935 C   0  0  2  0  0  0  0  0  0  0  0  0
  -19.3537  -25.1755   24.3173 C   0  0  0  0  0  0  0  0  0  0  0  0
  -23.5055  -30.1031   25.8507 C   0  0  0  0  0  0  0  0  0  0  0  0
  -22.2329  -28.0693   26.5663 C   0  0  0  0  0  0  0  0  0  0  0  0
  -21.0072  -30.0784   25.7396 C   0  0  0  0  0  0  0  0  0  0  0  0
  -27.5527  -25.3418   18.1308 C   0  0  0  0  0  0  0  0  0  0  0  0
  -29.2333  -24.3290   19.6848 C   0  0  0  0  0  0  0  0  0  0  0  0
  -20.5004  -25.4705   20.7015 C   0  0  0  0  0  0  0  0  0  0  0  0
  -26.8606  -24.5862   20.4658 C   0  0  0  0  0  0  0  0  0  0  0  0
  -22.2913  -28.6474   24.0978 C   0  0  1  0  0  0  0  0  0  0  0  0
  -19.8949  -25.8892   23.0883 C   0  0  2  0  0  0  0  0  0  0  0  0
  -22.2777  -29.2232   25.5420 C   0  0  0  0  0  0  0  0  0  0  0  0
  -27.9731  -25.1967   19.5942 C   0  0  0  0  0  0  0  0  0  1  0  0
  -26.1510  -11.4003   20.1322 N   0  0  0  0  0  0  0  0  0  0  0  0
  -27.0813  -11.5358   19.1719 N   0  0  0  0  0  0  0  0  0  0  0  0
  -23.4710  -29.6982   22.1931 N   0  0  0  0  0  0  0  0  0  0  0  0
  -28.1633  -15.1499   19.8376 N   0  0  0  0  0  0  0  0  0  0  0  0
  -26.6800  -16.8793   19.1054 N   0  0  0  0  0  0  0  0  0  0  0  0
  -27.9605  -10.4961   17.2336 N   0  0  0  0  0  0  0  0  0  0  0  0
  -24.6897   -7.6691   18.5396 N   0  0  0  0  0  0  0  0  0  0  0  0
  -25.4172  -23.2260   19.0538 N   0  0  0  0  0  0  0  0  0  0  0  0
  -24.4561  -33.0912   21.6959 N   0  0  0  0  0  0  0  0  0  0  0  0
  -21.1271  -27.8322   23.7686 N   0  0  0  0  0  0  0  0  0  0  0  0
  -20.0022  -24.8995   21.9793 N   0  3  0  0  0  0  0  0  0  0  0  0
  -26.3301   -8.0238   16.9769 O   0  0  0  0  0  0  0  0  0  0  0  0
  -25.5189  -31.2913   22.7222 O   0  0  0  0  0  0  0  0  0  0  0  0
  -21.4569  -30.5676   22.9829 O   0  0  0  0  0  0  0  0  0  0  0  0
  -26.9554  -22.1975   20.5084 O   0  0  0  0  0  0  0  0  0  0  0  0
  -22.3060  -25.9058   23.2428 O   0  0  0  0  0  0  0  0  0  0  0  0
  -28.9295  -16.9883   18.6869 O   0  0  0  0  0  0  0  0  0  0  0  0
  -21.3596   -8.3031   22.9605 O   0  0  0  0  0  0  0  0  0  0  0  0
  -28.3099  -26.4974   20.0799 O   0  0  0  0  0  0  0  0  0  1  0  0
  -21.4093   -2.9472   24.2704 F   0  0  0  0  0  0  0  0  0  0  0  0
  -22.2170  -21.5264   15.9298 F   0  0  0  0  0  0  0  0  0  0  0  0
  -21.4375   -7.4896   25.6015 F   0  0  0  0  0  0  0  0  0  0  0  0
  1  2  1  0  0  0  0
  1  5  2  0  0  0  0
  2  6  2  0  0  0  0
  3  8  2  0  0  0  0
  3 18  1  0  0  0  0
  4  9  1  0  0  0  0
  4 18  2  0  0  0  0
  5 20  1  0  0  0  0
  6 22  1  0  0  0  0
  7 10  2  0  0  0  0
  7 21  1  0  0  0  0
  8 26  1  0  0  0  0
  9 26  2  0  0  0  0
 10 27  1  0  0  0  0
 11 12  2  0  0  0  0
 11 28  1  0  0  0  0
 12 29  1  0  0  0  0
 13 23  1  0  0  0  0
 13 25  2  0  0  0  0
 14 24  1  0  0  0  0
 14 27  2  0  0  0  0
 15 23  2  0  0  0  0
 15 30  1  0  0  0  0
 16 25  1  0  0  0  0
 16 30  2  0  0  0  0
 17 29  2  0  0  0  0
 17 31  1  0  0  0  0
 18 32  1  0  0  0  0
 19 32  1  0  0  0  0
 19 33  2  0  0  0  0
 19 34  1  0  0  0  0
 20 22  2  0  0  0  0
 20 40  1  0  0  0  0
 21 24  2  0  0  0  0
 21 41  1  0  0  0  0
 22 53  1  0  0  0  0
 23 52  1  0  0  0  0
 24 42  1  0  0  0  0
 25 75  1  0  0  0  0
 26 85  1  0  0  0  0
 27 86  1  0  0  0  0
 28 31  2  0  0  0  0
 28 85  1  0  0  0  0
 29 87  1  0  0  0  0
 30 88  1  0  0  0  0
 31 89  1  0  0  0  0
 32 68  2  0  0  0  0
 33 69  1  0  0  0  0
 33 73  1  0  0  0  0
 34 74  1  0  0  0  0
 34 79  2  0  0  0  0
 35 54  1  0  0  0  0
 35 76  1  0  0  0  0
 35 80  2  0  0  0  0
 36 64  1  0  0  0  0
 36 70  1  0  0  0  0
 36 81  2  0  0  0  0
 37 63  1  0  0  0  0
 37 75  1  0  0  0  0
 37 82  2  0  0  0  0
 38 65  1  0  0  0  0
 38 77  1  0  0  0  0
 38 83  2  0  0  0  0
 39 71  1  0  0  0  0
 39 72  1  0  0  0  0
 39 84  2  0  0  0  0
 40 43  1  0  0  0  0
 41 54  1  0  0  0  0
 42 70  1  0  0  0  0
 43 45  1  0  0  0  0
 44 46  1  0  0  0  0
 44 48  1  0  0  0  0
 45 53  1  0  0  0  0
 46 55  1  0  0  0  0
 47 49  1  0  0  0  0
 47 52  1  0  0  0  0
 48 71  1  0  0  0  0
 49 72  1  0  0  0  0
 50 52  1  0  0  0  0
 50 72  1  0  0  0  0
 51 55  1  0  0  0  0
 51 71  1  0  0  0  0
 53 76  1  0  0  0  0
 54 70  1  0  0  0  0
 55 69  1  0  0  0  0
 56 65  1  0  0  0  0
 57 66  1  0  0  0  0
 58 66  1  0  0  0  0
 59 66  1  0  0  0  0
 60 67  1  0  0  0  0
 61 67  1  0  0  0  0
 62 78  1  0  0  0  0
 63 67  1  0  0  0  0
 64 66  1  0  0  0  0
 64 77  1  0  0  0  0
 65 78  1  0  0  0  0
 67 86  1  0  0  0  0
 68 69  1  0  0  0  0
M  CHG  1  78   1
M  ISO  4  39 100  67 101  72 100  86 101
M  END
> <Batch ID>
0148

> <Smiles>
CNC(C)C(=O)NC(C(=O)N1Cc2cc([101O:1][101C:1](C)(C)CC(=O)Nc3cc(F)cc(C4CC[100N:0]([100C:0](=O)N5CCCC(n6nc(-c7ccc(Oc8ccc(F)cc8F)cc7)c(C(N)=O)c6N)C5)C4)c3)ccc2CC1C(=O)NC1CCCc2ccccc21)C(C)(C)C

> <Shape>
0.265

> <Color>
0.101

> <Negative vol penalty>
0.000

$$$$

  -OEChem-04052303163D

 84 93  0     1  0  0  0  0  0999 V2000
  -31.9715  -33.1513   20.2012 C   0  0  0  0  0  0  0  0  0  0  0  0
  -31.4291  -31.8703   20.2130 C   0  0  0  0  0  0  0  0  0  0  0  0
  -23.5815   -9.5410   19.8284 C   0  0  0  0  0  0  0  0  0  0  0  0
  -25.0329   -8.4476   21.4205 C   0  0  0  0  0  0  0  0  0  0  0  0
  -31.4975  -34.1160   21.0892 C   0  0  0  0  0  0  0  0  0  0  0  0
  -30.4129  -31.5529   21.1136 C   0  0  0  0  0  0  0  0  0  0  0  0
  -26.6461  -28.9474   18.9532 C   0  0  0  0  0  0  0  0  0  0  0  0
  -27.7673  -16.9575   18.9203 C   0  0  0  0  0  0  0  0  0  0  0  0
  -22.4756   -9.2181   20.6147 C   0  0  0  0  0  0  0  0  0  0  0  0
  -23.9270   -8.1247   22.2069 C   0  0  0  0  0  0  0  0  0  0  0  0
  -26.8599  -27.5884   18.7268 C   0  0  0  0  0  0  0  0  0  0  0  0
  -21.4533   -5.8201   22.2007 C   0  0  0  0  0  0  0  0  0  0  0  0
  -21.3737   -4.5222   22.7054 C   0  0  0  0  0  0  0  0  0  0  0  0
  -27.4611  -18.3058   19.0677 C   0  0  0  0  0  0  0  0  0  0  0  0
  -25.5899  -27.0643   20.7096 C   0  0  0  0  0  0  0  0  0  0  0  0
  -21.3699   -5.3979   24.9571 C   0  0  0  0  0  0  0  0  0  0  0  0
  -29.7412  -17.3197   20.1968 C   0  0  0  0  0  0  0  0  0  0  0  0
  -24.8601   -9.1557   20.2313 C   0  0  0  0  0  0  0  0  0  0  0  0
  -26.2403   -9.1017   18.0865 C   0  0  0  0  0  0  0  0  0  0  0  0
  -30.4683  -33.8131   21.9946 C   0  0  0  0  0  0  0  0  0  0  0  0
  -25.9105  -29.3762   20.0675 C   0  0  0  0  0  0  0  0  0  0  0  0
  -29.9256  -32.5141   22.0155 C   0  0  0  0  0  0  0  0  0  0  0  0
  -25.3660  -28.4292   20.9466 C   0  0  0  0  0  0  0  0  0  0  0  0
  -28.9272  -16.4471   19.4925 C   0  0  0  0  0  0  0  0  0  0  0  0
  -22.6483   -8.5100   21.8040 C   0  0  0  0  0  0  0  0  0  0  0  0
  -26.3343  -26.6468   19.6066 C   0  0  0  0  0  0  0  0  0  0  0  0
  -21.4912   -6.9069   23.0743 C   0  0  0  0  0  0  0  0  0  0  0  0
  -21.3320   -4.3110   24.0835 C   0  0  0  0  0  0  0  0  0  0  0  0
  -21.4495   -6.6958   24.4524 C   0  0  0  0  0  0  0  0  0  0  0  0
  -26.0028   -9.4885   19.4191 C   0  0  0  0  0  0  0  0  0  0  0  0
  -28.3406  -19.0951   19.7911 C   0  0  0  0  0  0  0  0  0  0  0  0
  -27.4514   -9.6697   17.7747 C   0  0  0  0  0  0  0  0  0  0  0  0
  -25.4378   -8.3008   17.2089 C   0  0  0  0  0  0  0  0  0  0  0  0
  -26.5451  -31.1529   22.6257 C   0  0  0  0  0  0  0  0  0  0  0  0
  -23.3645  -30.8154   23.1665 C   0  0  0  0  0  0  0  0  0  0  0  0
  -20.9207  -28.1710   22.9388 C   0  0  0  0  0  0  0  0  0  0  0  0
  -30.3886  -14.4310   19.8742 C   0  0  0  0  0  0  0  0  0  0  0  0
  -30.0213  -34.8753   22.9675 C   0  0  0  0  0  0  0  0  0  0  0  0
  -25.6661  -30.8446   20.2830 C   0  0  0  0  0  0  0  0  0  0  0  0
  -24.5519  -28.8369   22.1464 C   0  0  0  0  0  0  0  0  0  0  0  0
  -28.6839  -34.5659   23.6351 C   0  0  0  0  0  0  0  0  0  0  0  0
  -31.5615  -11.0701   19.7946 C   0  0  0  0  0  0  0  0  0  0  0  0
  -28.6543  -33.1223   24.1272 C   0  0  0  0  0  0  0  0  0  0  0  0
  -30.2916  -10.2484   19.5619 C   0  0  0  0  0  0  0  0  0  0  0  0
  -27.6032  -22.3519   21.4447 C   0  0  0  0  0  0  0  0  0  0  0  0
  -26.9975  -22.5024   19.0212 C   0  0  0  0  0  0  0  0  0  0  0  0
  -31.3011  -12.2723   20.7005 C   0  0  0  0  0  0  0  0  0  0  0  0
  -28.4741  -21.1327   21.1485 C   0  0  0  0  0  0  0  0  0  0  0  0
  -27.8655  -21.2791   18.7291 C   0  0  0  0  0  0  0  0  0  0  0  0
  -28.9275  -12.3209   20.0425 C   0  0  0  0  0  0  0  0  0  0  0  0
  -28.8050  -32.1386   22.9606 C   0  0  1  0  0  0  0  0  0  0  0  0
  -25.3375  -31.1893   21.7323 C   0  0  1  0  0  0  0  0  0  0  0  0
  -27.5056  -23.2846   20.2347 C   0  0  0  0  0  0  0  0  0  0  0  0
  -29.1259  -11.1359   19.0833 C   0  0  2  0  0  0  0  0  0  0  0  0
  -18.4430  -28.2680   22.5524 C   0  0  0  0  0  0  0  0  0  0  0  0
  -23.1799  -30.7597   26.2117 C   0  0  0  0  0  0  0  0  0  0  0  0
  -21.1708  -29.2818   25.9933 C   0  0  0  0  0  0  0  0  0  0  0  0
  -21.1242  -31.5935   25.0570 C   0  0  0  0  0  0  0  0  0  0  0  0
  -21.0961  -26.3563   20.6074 C   0  0  0  0  0  0  0  0  0  0  0  0
  -26.5961  -24.4734   20.5359 C   0  0  0  0  0  0  0  0  0  1  0  0
  -22.5056  -29.8171   23.9045 C   0  0  1  0  0  0  0  0  0  0  0  0
  -19.8064  -28.0491   21.9151 C   0  0  2  0  0  0  0  0  0  0  0  0
  -22.0199  -30.3555   25.2799 C   0  0  0  0  0  0  0  0  0  0  0  0
  -29.4768  -18.6352   20.3614 N   0  0  0  0  0  0  0  0  0  0  0  0
  -26.9844  -10.2436   19.9195 N   0  0  0  0  0  0  0  0  0  0  0  0
  -27.8503  -10.3359   18.8960 N   0  0  0  0  0  0  0  0  0  0  0  0
  -28.0191  -20.4514   19.9295 N   0  0  0  0  0  0  0  0  0  0  0  0
  -24.3460  -30.2846   22.3176 N   0  0  0  0  0  0  0  0  0  0  0  0
  -30.1867  -13.0690   20.1824 N   0  0  0  0  0  0  0  0  0  0  0  0
  -28.2033   -9.6591   16.6536 N   0  0  0  0  0  0  0  0  0  0  0  0
  -25.6412   -6.9141   17.1970 N   0  0  0  0  0  0  0  0  0  0  0  0
  -29.2662  -15.0779   19.3582 N   0  0  0  0  0  0  0  0  0  0  0  0
  -27.5558  -32.0130   22.2408 N   0  0  0  0  0  0  0  0  0  0  0  0
  -21.4279  -29.4521   22.9914 N   0  0  0  0  0  0  0  0  0  0  0  0
  -19.8217  -26.6956   21.2915 N   0  3  0  0  0  0  0  0  0  0  0  0
  -24.5776   -8.8017   16.4456 O   0  0  0  0  0  0  0  0  0  0  0  0
  -26.5582  -30.4013   23.5934 O   0  0  0  0  0  0  0  0  0  0  0  0
  -23.1671  -32.0218   23.3316 O   0  0  0  0  0  0  0  0  0  0  0  0
  -21.3004  -27.2253   23.6258 O   0  0  0  0  0  0  0  0  0  0  0  0
  -31.4846  -14.9758   20.0291 O   0  0  0  0  0  0  0  0  0  0  0  0
  -21.5695   -8.1949   22.5717 O   0  0  0  0  0  0  0  0  0  0  0  0
  -26.5421  -25.3198   19.3883 O   0  0  0  0  0  0  0  0  0  1  0  0
  -21.2540   -3.0647   24.5680 F   0  0  0  0  0  0  0  0  0  0  0  0
  -21.4845   -7.7360   25.2966 F   0  0  0  0  0  0  0  0  0  0  0  0
  1  2  1  0  0  0  0
  1  5  2  0  0  0  0
  2  6  2  0  0  0  0
  3  9  2  0  0  0  0
  3 18  1  0  0  0  0
  4 10  1  0  0  0  0
  4 18  2  0  0  0  0
  5 20  1  0  0  0  0
  6 22  1  0  0  0  0
  7 11  2  0  0  0  0
  7 21  1  0  0  0  0
  8 14  2  0  0  0  0
  8 24  1  0  0  0  0
  9 25  1  0  0  0  0
 10 25  2  0  0  0  0
 11 26  1  0  0  0  0
 12 13  2  0  0  0  0
 12 27  1  0  0  0  0
 13 28  1  0  0  0  0
 14 31  1  0  0  0  0
 15 23  1  0  0  0  0
 15 26  2  0  0  0  0
 16 28  2  0  0  0  0
 16 29  1  0  0  0  0
 17 24  2  0  0  0  0
 17 64  1  0  0  0  0
 18 30  1  0  0  0  0
 19 30  1  0  0  0  0
 19 32  2  0  0  0  0
 19 33  1  0  0  0  0
 20 22  2  0  0  0  0
 20 38  1  0  0  0  0
 21 23  2  0  0  0  0
 21 39  1  0  0  0  0
 22 51  1  0  0  0  0
 23 40  1  0  0  0  0
 24 72  1  0  0  0  0
 25 81  1  0  0  0  0
 26 82  1  0  0  0  0
 27 29  2  0  0  0  0
 27 81  1  0  0  0  0
 28 83  1  0  0  0  0
 29 84  1  0  0  0  0
 30 65  2  0  0  0  0
 31 64  2  0  0  0  0
 31 67  1  0  0  0  0
 32 66  1  0  0  0  0
 32 70  1  0  0  0  0
 33 71  1  0  0  0  0
 33 76  2  0  0  0  0
 34 52  1  0  0  0  0
 34 73  1  0  0  0  0
 34 77  2  0  0  0  0
 35 61  1  0  0  0  0
 35 68  1  0  0  0  0
 35 78  2  0  0  0  0
 36 62  1  0  0  0  0
 36 74  1  0  0  0  0
 36 79  2  0  0  0  0
 37 69  1  0  0  0  0
 37 72  1  0  0  0  0
 37 80  2  0  0  0  0
 38 41  1  0  0  0  0
 39 52  1  0  0  0  0
 40 68  1  0  0  0  0
 41 43  1  0  0  0  0
 42 44  1  0  0  0  0
 42 47  1  0  0  0  0
 43 51  1  0  0  0  0
 44 54  1  0  0  0  0
 45 48  1  0  0  0  0
 45 53  1  0  0  0  0
 46 49  1  0  0  0  0
 46 53  1  0  0  0  0
 47 69  1  0  0  0  0
 48 67  1  0  0  0  0
 49 67  1  0  0  0  0
 50 54  1  0  0  0  0
 50 69  1  0  0  0  0
 51 73  1  0  0  0  0
 52 68  1  0  0  0  0
 53 60  1  0  0  0  0
 54 66  1  0  0  0  0
 55 62  1  0  0  0  0
 56 63  1  0  0  0  0
 57 63  1  0  0  0  0
 58 63  1  0  0  0  0
 59 75  1  0  0  0  0
 60 82  1  0  0  0  0
 61 63  1  0  0  0  0
 61 74  1  0  0  0  0
 62 75  1  0  0  0  0
 65 66  1  0  0  0  0
M  CHG  1  75   1
M  ISO  4  37 100  60 101  72 100  82 101
M  END
> <Batch ID>
0148

> <Smiles>
CNC(C)C(=O)NC(C(=O)N1Cc2cc([101O:1][101CH2:1]C3CCN(c4ccc([100NH:0][100C:0](=O)N5CCCC(n6nc(-c7ccc(Oc8ccc(F)cc8F)cc7)c(C(N)=O)c6N)C5)cn4)CC3)ccc2CC1C(=O)NC1CCCc2ccccc21)C(C)(C)C

> <Shape>
0.289

> <Color>
0.109

> <Negative vol penalty>
0.000

$$$$

  -OEChem-04052303163D

 86 95  0     1  0  0  0  0  0999 V2000
  -18.3679  -26.2359   22.9566 C   0  0  0  0  0  0  0  0  0  0  0  0
  -19.4365  -25.3914   23.2401 C   0  0  0  0  0  0  0  0  0  0  0  0
  -23.0724   -9.8919   19.9555 C   0  0  0  0  0  0  0  0  0  0  0  0
  -23.8102   -9.9307   22.2558 C   0  0  0  0  0  0  0  0  0  0  0  0
  -18.5898  -27.4381   22.2864 C   0  0  0  0  0  0  0  0  0  0  0  0
  -20.7276  -25.7482   22.8525 C   0  0  0  0  0  0  0  0  0  0  0  0
  -25.9332  -24.5569   25.8505 C   0  0  0  0  0  0  0  0  0  0  0  0
  -22.3282   -8.7408   20.2135 C   0  0  0  0  0  0  0  0  0  0  0  0
  -23.0659   -8.7796   22.5139 C   0  0  0  0  0  0  0  0  0  0  0  0
  -26.9013  -23.5663   25.6919 C   0  0  0  0  0  0  0  0  0  0  0  0
  -19.8335   -7.9838   23.0958 C   0  0  0  0  0  0  0  0  0  0  0  0
  -19.0653   -7.9580   24.2598 C   0  0  0  0  0  0  0  0  0  0  0  0
  -28.2264  -25.0825   24.3635 C   0  0  0  0  0  0  0  0  0  0  0  0
  -29.8839  -17.9506   22.7344 C   0  0  0  0  0  0  0  0  0  0  0  0
  -20.3030   -6.0328   25.0338 C   0  0  0  0  0  0  0  0  0  0  0  0
  -31.7965  -17.5083   21.6317 C   0  0  0  0  0  0  0  0  0  0  0  0
  -23.8135  -10.4869   20.9766 C   0  0  0  0  0  0  0  0  0  0  0  0
  -24.1520  -13.0108   20.8263 C   0  0  0  0  0  0  0  0  0  0  0  0
  -19.8856  -27.8144   21.8988 C   0  0  0  0  0  0  0  0  0  0  0  0
  -26.0996  -25.8163   25.2567 C   0  0  0  0  0  0  0  0  0  0  0  0
  -20.9668  -26.9560   22.1752 C   0  0  0  0  0  0  0  0  0  0  0  0
  -27.2601  -26.0882   24.5182 C   0  0  0  0  0  0  0  0  0  0  0  0
  -30.5497  -16.9999   21.9221 C   0  0  0  0  0  0  0  0  0  0  0  0
  -22.3249   -8.1846   21.4927 C   0  0  0  0  0  0  0  0  0  0  0  0
  -28.0468  -23.8280   24.9459 C   0  0  0  0  0  0  0  0  0  0  0  0
  -20.8363   -7.0340   22.9008 C   0  0  0  0  0  0  0  0  0  0  0  0
  -19.3001   -6.9825   25.2288 C   0  0  0  0  0  0  0  0  0  0  0  0
  -21.0711   -6.0586   23.8698 C   0  0  0  0  0  0  0  0  0  0  0  0
  -24.5829  -11.6756   20.7105 C   0  0  0  0  0  0  0  0  0  0  0  0
  -30.7440  -19.0112   22.9156 C   0  0  0  0  0  0  0  0  0  0  0  0
  -25.2463  -13.7575   20.4637 C   0  0  0  0  0  0  0  0  0  0  0  0
  -22.8767  -13.5298   21.2261 C   0  0  0  0  0  0  0  0  0  0  0  0
  -30.4700  -20.2318   23.6949 C   0  0  0  0  0  0  0  0  0  0  0  0
  -24.5092  -27.4962   23.0767 C   0  0  0  0  0  0  0  0  0  0  0  0
  -26.6463  -29.8061   23.8637 C   0  0  0  0  0  0  0  0  0  0  0  0
  -29.7076  -30.6069   25.1420 C   0  0  0  0  0  0  0  0  0  0  0  0
  -30.7087  -14.8157   20.6770 C   0  0  0  0  0  0  0  0  0  0  0  0
  -20.0697  -29.1015   21.1346 C   0  0  0  0  0  0  0  0  0  0  0  0
  -25.0585  -26.8828   25.4595 C   0  0  0  0  0  0  0  0  0  0  0  0
  -27.4960  -27.4306   23.8774 C   0  0  0  0  0  0  0  0  0  0  0  0
  -21.5182  -29.5814   21.0900 C   0  0  0  0  0  0  0  0  0  0  0  0
  -29.6215  -12.3684   18.3305 C   0  0  0  0  0  0  0  0  0  0  0  0
  -31.9228  -19.7184   26.9534 C   0  0  0  0  0  0  0  0  0  0  0  0
  -22.4519  -28.4284   20.7356 C   0  0  0  0  0  0  0  0  0  0  0  0
  -28.1783  -12.0798   18.7501 C   0  0  0  0  0  0  0  0  0  0  0  0
  -30.9233  -20.8260   27.2643 C   0  0  0  0  0  0  0  0  0  0  0  0
  -31.3852  -19.1081   25.6674 C   0  0  0  0  0  0  0  0  0  0  0  0
  -30.5245  -12.6150   19.5378 C   0  0  0  0  0  0  0  0  0  0  0  0
  -28.6030  -13.3541   20.8908 C   0  0  0  0  0  0  0  0  0  0  0  0
  -22.3852  -27.3197   21.7929 C   0  0  1  0  0  0  0  0  0  0  0  0
  -25.0906  -27.9619   24.3816 C   0  0  1  0  0  0  0  0  0  0  0  0
  -27.6420  -13.1633   19.7061 C   0  0  2  0  0  0  0  0  0  0  0  0
  -30.5818  -21.4291   25.8862 C   0  0  2  0  0  0  0  0  0  0  0  0
  -31.5580  -22.5368   25.4897 C   0  0  0  0  0  0  0  0  0  0  0  0
  -31.1882  -32.5753   25.6222 C   0  0  0  0  0  0  0  0  0  0  0  0
  -27.3126  -30.0264   20.8943 C   0  0  0  0  0  0  0  0  0  0  0  0
  -29.3954  -31.2644   21.5248 C   0  0  0  0  0  0  0  0  0  0  0  0
  -27.1606  -32.2152   22.0945 C   0  0  0  0  0  0  0  0  0  0  0  0
  -33.0665  -19.5876   22.1731 C   0  0  0  0  0  0  0  0  0  0  0  0
  -29.7438  -30.0194   28.0424 C   0  0  0  0  0  0  0  0  0  0  0  0
  -29.1360  -21.9153   25.8465 C   0  0  0  0  0  0  0  0  0  1  0  0
  -28.0158  -30.2080   23.3719 C   0  0  1  0  0  0  0  0  0  0  0  0
  -30.1297  -31.6344   26.1766 C   0  0  2  0  0  0  0  0  0  0  0  0
  -27.9660  -30.9025   21.9817 C   0  0  0  0  0  0  0  0  0  0  0  0
  -25.8519  -11.5766   20.3057 N   0  0  0  0  0  0  0  0  0  0  0  0
  -31.9034  -18.7315   22.2406 N   0  0  0  0  0  0  0  0  0  0  0  0
  -26.2278  -12.8591   20.1640 N   0  0  0  0  0  0  0  0  0  0  0  0
  -30.7752  -20.2634   24.9823 N   0  0  0  0  0  0  0  0  0  0  0  0
  -26.4461  -28.4385   24.0992 N   0  0  0  0  0  0  0  0  0  0  0  0
  -29.9553  -13.6563   20.3959 N   0  0  0  0  0  0  0  0  0  0  0  0
  -25.4551  -15.0882   20.3750 N   0  0  0  0  0  0  0  0  0  0  0  0
  -21.8631  -12.6232   21.5657 N   0  0  0  0  0  0  0  0  0  0  0  0
  -30.0518  -15.7504   21.4767 N   0  0  0  0  0  0  0  0  0  0  0  0
  -23.1460  -27.6934   22.9659 N   0  0  0  0  0  0  0  0  0  0  0  0
  -28.6050  -31.0250   24.4272 N   0  0  0  0  0  0  0  0  0  0  0  0
  -29.9222  -21.2827   23.0918 N   0  3  0  0  0  0  0  0  0  0  0  0
  -30.6873  -30.9575   27.3815 N   0  3  0  0  0  0  0  0  0  0  0  0
  -22.6377  -14.7606   21.2649 O   0  0  0  0  0  0  0  0  0  0  0  0
  -25.2433  -26.9964   22.2323 O   0  0  0  0  0  0  0  0  0  0  0  0
  -25.7880  -30.6745   24.0396 O   0  0  0  0  0  0  0  0  0  0  0  0
  -30.2992  -29.5417   24.9812 O   0  0  0  0  0  0  0  0  0  0  0  0
  -31.8419  -14.9803   20.2181 O   0  0  0  0  0  0  0  0  0  0  0  0
  -21.5986   -7.0615   21.7450 O   0  0  0  0  0  0  0  0  0  0  0  0
  -28.9931  -22.8627   24.7890 O   0  0  0  0  0  0  0  0  0  1  0  0
  -18.5634   -6.9588   26.3473 F   0  0  0  0  0  0  0  0  0  0  0  0
  -22.0339   -5.1443   23.6886 F   0  0  0  0  0  0  0  0  0  0  0  0
  1  2  1  0  0  0  0
  1  5  2  0  0  0  0
  2  6  2  0  0  0  0
  3  8  2  0  0  0  0
  3 17  1  0  0  0  0
  4  9  1  0  0  0  0
  4 17  2  0  0  0  0
  5 19  1  0  0  0  0
  6 21  1  0  0  0  0
  7 10  2  0  0  0  0
  7 20  1  0  0  0  0
  8 24  1  0  0  0  0
  9 24  2  0  0  0  0
 10 25  1  0  0  0  0
 11 12  2  0  0  0  0
 11 26  1  0  0  0  0
 12 27  1  0  0  0  0
 13 22  1  0  0  0  0
 13 25  2  0  0  0  0
 14 23  1  0  0  0  0
 14 30  2  0  0  0  0
 15 27  2  0  0  0  0
 15 28  1  0  0  0  0
 16 23  2  0  0  0  0
 16 66  1  0  0  0  0
 17 29  1  0  0  0  0
 18 29  1  0  0  0  0
 18 31  2  0  0  0  0
 18 32  1  0  0  0  0
 19 21  2  0  0  0  0
 19 38  1  0  0  0  0
 20 22  2  0  0  0  0
 20 39  1  0  0  0  0
 21 50  1  0  0  0  0
 22 40  1  0  0  0  0
 23 73  1  0  0  0  0
 24 83  1  0  0  0  0
 25 84  1  0  0  0  0
 26 28  2  0  0  0  0
 26 83  1  0  0  0  0
 27 85  1  0  0  0  0
 28 86  1  0  0  0  0
 29 65  2  0  0  0  0
 30 33  1  0  0  0  0
 30 66  1  0  0  0  0
 31 67  1  0  0  0  0
 31 71  1  0  0  0  0
 32 72  1  0  0  0  0
 32 78  2  0  0  0  0
 33 68  1  0  0  0  0
 33 76  2  0  0  0  0
 34 51  1  0  0  0  0
 34 74  1  0  0  0  0
 34 79  2  0  0  0  0
 35 62  1  0  0  0  0
 35 69  1  0  0  0  0
 35 80  2  0  0  0  0
 36 63  1  0  0  0  0
 36 75  1  0  0  0  0
 36 81  2  0  0  0  0
 37 70  1  0  0  0  0
 37 73  1  0  0  0  0
 37 82  2  0  0  0  0
 38 41  1  0  0  0  0
 39 51  1  0  0  0  0
 40 69  1  0  0  0  0
 41 44  1  0  0  0  0
 42 45  1  0  0  0  0
 42 48  1  0  0  0  0
 43 46  1  0  0  0  0
 43 47  1  0  0  0  0
 44 50  1  0  0  0  0
 45 52  1  0  0  0  0
 46 53  1  0  0  0  0
 47 68  1  0  0  0  0
 48 70  1  0  0  0  0
 49 52  1  0  0  0  0
 49 70  1  0  0  0  0
 50 74  1  0  0  0  0
 51 69  1  0  0  0  0
 52 67  1  0  0  0  0
 53 54  1  0  0  0  0
 53 61  1  0  0  0  0
 53 68  1  0  0  0  0
 55 63  1  0  0  0  0
 56 64  1  0  0  0  0
 57 64  1  0  0  0  0
 58 64  1  0  0  0  0
 59 66  1  0  0  0  0
 60 77  1  0  0  0  0
 61 84  1  0  0  0  0
 62 64  1  0  0  0  0
 62 75  1  0  0  0  0
 63 77  1  0  0  0  0
 65 67  1  0  0  0  0
M  CHG  2  76   1  77   1
M  ISO  4  37 100  61 101  73 100  84 101
M  END
> <Batch ID>
0148

> <Smiles>
CNC(C)C(=O)NC(C(=O)N1Cc2cc([101O:1][101CH2:1]C3(C)CCCN3C(=N)c3cc([100NH:0][100C:0](=O)N4CCCC(n5nc(-c6ccc(Oc7ccc(F)cc7F)cc6)c(C(N)=O)c5N)C4)cn3C)ccc2CC1C(=O)NC1CCCc2ccccc21)C(C)(C)C

> <Shape>
0.268

> <Color>
0.195

> <Negative vol penalty>
0.000

$$$$

  -OEChem-04052303163D

 88 97  0     1  0  0  0  0  0999 V2000
  -27.5309  -36.4005   24.8594 C   0  0  0  0  0  0  0  0  0  0  0  0
  -28.0595  -35.2676   24.2489 C   0  0  0  0  0  0  0  0  0  0  0  0
  -22.9813   -9.7230   19.8530 C   0  0  0  0  0  0  0  0  0  0  0  0
  -24.5050   -9.2235   21.6602 C   0  0  0  0  0  0  0  0  0  0  0  0
  -26.2868  -36.3371   25.4857 C   0  0  0  0  0  0  0  0  0  0  0  0
  -27.3449  -34.0704   24.2654 C   0  0  0  0  0  0  0  0  0  0  0  0
  -27.1815  -29.8194   19.8599 C   0  0  0  0  0  0  0  0  0  0  0  0
  -28.2993  -20.1177   18.6720 C   0  0  0  0  0  0  0  0  0  0  0  0
  -28.3106  -18.7399   18.8888 C   0  0  0  0  0  0  0  0  0  0  0  0
  -21.9046   -9.3503   20.6577 C   0  0  0  0  0  0  0  0  0  0  0  0
  -23.4283   -8.8509   22.4650 C   0  0  0  0  0  0  0  0  0  0  0  0
  -27.8595  -28.6123   19.6956 C   0  0  0  0  0  0  0  0  0  0  0  0
  -21.4039   -6.1681   22.8326 C   0  0  0  0  0  0  0  0  0  0  0  0
  -21.5241   -4.9915   23.5719 C   0  0  0  0  0  0  0  0  0  0  0  0
  -25.9823  -27.4351   20.6494 C   0  0  0  0  0  0  0  0  0  0  0  0
  -30.6981  -18.8165   19.2508 C   0  0  0  0  0  0  0  0  0  0  0  0
  -21.2319   -6.2461   25.6159 C   0  0  0  0  0  0  0  0  0  0  0  0
  -24.2815   -9.6595   20.3542 C   0  0  0  0  0  0  0  0  0  0  0  0
  -25.7750   -9.4715   18.2947 C   0  0  0  0  0  0  0  0  0  0  0  0
  -25.5522  -35.1409   25.5015 C   0  0  0  0  0  0  0  0  0  0  0  0
  -25.9010  -29.8446   20.4312 C   0  0  0  0  0  0  0  0  0  0  0  0
  -26.0904  -33.9906   24.8937 C   0  0  0  0  0  0  0  0  0  0  0  0
  -25.2891  -28.6436   20.8175 C   0  0  0  0  0  0  0  0  0  0  0  0
  -29.4874  -20.8449   18.7445 C   0  0  0  0  0  0  0  0  0  0  0  0
  -29.5100  -18.0892   19.1782 C   0  0  0  0  0  0  0  0  0  0  0  0
  -30.6868  -20.1943   19.0339 C   0  0  0  0  0  0  0  0  0  0  0  0
  -22.1281   -8.9144   21.9637 C   0  0  0  0  0  0  0  0  0  0  0  0
  -27.2611  -27.4202   20.0930 C   0  0  0  0  0  0  0  0  0  0  0  0
  -21.1977   -7.3838   23.4849 C   0  0  0  0  0  0  0  0  0  0  0  0
  -21.4381   -5.0304   24.9636 C   0  0  0  0  0  0  0  0  0  0  0  0
  -21.1117   -7.4227   24.8765 C   0  0  0  0  0  0  0  0  0  0  0  0
  -25.3941  -10.0437   19.5232 C   0  0  0  0  0  0  0  0  0  0  0  0
  -26.8835  -10.1864   17.9120 C   0  0  0  0  0  0  0  0  0  0  0  0
  -27.8730  -24.0981   18.8373 C   0  0  0  0  0  0  0  0  0  0  0  0
  -28.6897  -23.1231   19.3194 C   0  0  0  0  0  0  0  0  0  0  0  0
  -29.0478  -22.6387   16.1563 C   0  0  0  0  0  0  0  0  0  0  0  0
  -25.1799   -8.3905   17.5646 C   0  0  0  0  0  0  0  0  0  0  0  0
  -24.6339  -31.1455   23.0399 C   0  0  0  0  0  0  0  0  0  0  0  0
  -21.8599  -30.0456   21.7679 C   0  0  0  0  0  0  0  0  0  0  0  0
  -20.7342  -27.0543   20.0939 C   0  0  0  0  0  0  0  0  0  0  0  0
  -28.4347  -15.8106   19.3677 C   0  0  0  0  0  0  0  0  0  0  0  0
  -24.2331  -35.1088   26.2320 C   0  0  0  0  0  0  0  0  0  0  0  0
  -25.1721  -31.1522   20.5770 C   0  0  0  0  0  0  0  0  0  0  0  0
  -23.9079  -28.6144   21.4173 C   0  0  0  0  0  0  0  0  0  0  0  0
  -27.5738  -24.3187   17.3582 C   0  0  0  0  0  0  0  0  0  0  0  0
  -27.6343  -23.0930   16.4469 C   0  0  0  0  0  0  0  0  0  0  0  0
  -30.0625  -22.7225   17.2701 C   0  0  0  0  0  0  0  0  0  0  0  0
  -23.3713  -33.8989   25.8800 C   0  0  0  0  0  0  0  0  0  0  0  0
  -30.1908  -12.5917   20.4987 C   0  0  0  0  0  0  0  0  0  0  0  0
  -24.2065  -32.6228   25.9065 C   0  0  0  0  0  0  0  0  0  0  0  0
  -29.4772  -11.5844   19.6001 C   0  0  0  0  0  0  0  0  0  0  0  0
  -30.1442  -14.0053   19.9325 C   0  0  0  0  0  0  0  0  0  0  0  0
  -27.7241  -13.4432   19.6449 C   0  0  0  0  0  0  0  0  0  0  0  0
  -25.3343  -32.6799   24.8690 C   0  0  1  0  0  0  0  0  0  0  0  0
  -24.0815  -31.1127   21.6430 C   0  0  1  0  0  0  0  0  0  0  0  0
  -28.1930  -12.1493   18.9612 C   0  0  2  0  0  0  0  0  0  0  0  0
  -28.9060  -22.9707   20.8145 C   0  0  0  0  0  0  0  0  0  0  0  0
  -18.8729  -26.7088   18.4467 C   0  0  0  0  0  0  0  0  0  0  0  0
  -20.2060  -29.3230   24.2281 C   0  0  0  0  0  0  0  0  0  0  0  0
  -19.0962  -27.5356   22.8709 C   0  0  0  0  0  0  0  0  0  0  0  0
  -18.8615  -29.9291   22.2083 C   0  0  0  0  0  0  0  0  0  0  0  0
  -22.5615  -25.8396   18.1079 C   0  0  0  0  0  0  0  0  0  0  0  0
  -27.1258  -25.0757   19.7175 C   0  0  0  0  0  0  0  0  0  1  0  0
  -21.0760  -28.7590   21.8635 C   0  0  1  0  0  0  0  0  0  0  0  0
  -20.3686  -26.9167   18.6270 C   0  0  2  0  0  0  0  0  0  0  0  0
  -19.8382  -28.8871   22.7957 C   0  0  0  0  0  0  0  0  0  0  0  0
  -26.1957  -11.0448   19.8963 N   0  0  0  0  0  0  0  0  0  0  0  0
  -27.0914  -11.1073   18.8964 N   0  0  0  0  0  0  0  0  0  0  0  0
  -29.4528  -22.2508   18.5200 N   0  0  0  0  0  0  0  0  0  0  0  0
  -23.2384  -29.9194   21.5451 N   0  0  0  0  0  0  0  0  0  0  0  0
  -28.7796  -14.4626   19.6330 N   0  0  0  0  0  0  0  0  0  0  0  0
  -31.9013  -20.9122   19.1122 N   0  0  0  0  0  0  0  0  0  0  0  0
  -27.6911  -10.1109   16.8328 N   0  0  0  0  0  0  0  0  0  0  0  0
  -25.6246   -7.0864   17.8210 N   0  0  0  0  0  0  0  0  0  0  0  0
  -29.5208  -16.6893   19.3995 N   0  0  0  0  0  0  0  0  0  0  0  0
  -24.8153  -32.4194   23.5434 N   0  0  0  0  0  0  0  0  0  0  0  0
  -20.7550  -28.3738   20.4935 N   0  0  0  0  0  0  0  0  0  0  0  0
  -21.0808  -25.7556   18.0224 N   0  3  0  0  0  0  0  0  0  0  0  0
  -29.3586  -22.2039   15.0465 O   0  0  0  0  0  0  0  0  0  0  0  0
  -24.2920   -8.5772   16.6984 O   0  0  0  0  0  0  0  0  0  0  0  0
  -24.8760  -30.0928   23.6188 O   0  0  0  0  0  0  0  0  0  0  0  0
  -21.2698  -31.1231   21.8794 O   0  0  0  0  0  0  0  0  0  0  0  0
  -20.9736  -26.0877   20.8143 O   0  0  0  0  0  0  0  0  0  0  0  0
  -27.2743  -16.1459   19.1213 O   0  0  0  0  0  0  0  0  0  0  0  0
  -21.0778   -8.5509   22.7493 O   0  0  0  0  0  0  0  0  0  0  0  0
  -27.9209  -26.2406   19.9344 O   0  0  0  0  0  0  0  0  0  1  0  0
  -21.5521   -3.9002   25.6734 F   0  0  0  0  0  0  0  0  0  0  0  0
  -20.9126   -8.5874   25.5087 F   0  0  0  0  0  0  0  0  0  0  0  0
  1  2  1  0  0  0  0
  1  5  2  0  0  0  0
  2  6  2  0  0  0  0
  3 10  2  0  0  0  0
  3 18  1  0  0  0  0
  4 11  1  0  0  0  0
  4 18  2  0  0  0  0
  5 20  1  0  0  0  0
  6 22  1  0  0  0  0
  7 12  2  0  0  0  0
  7 21  1  0  0  0  0
  8  9  2  0  0  0  0
  8 24  1  0  0  0  0
  9 25  1  0  0  0  0
 10 27  1  0  0  0  0
 11 27  2  0  0  0  0
 12 28  1  0  0  0  0
 13 14  2  0  0  0  0
 13 29  1  0  0  0  0
 14 30  1  0  0  0  0
 15 23  1  0  0  0  0
 15 28  2  0  0  0  0
 16 25  2  0  0  0  0
 16 26  1  0  0  0  0
 17 30  2  0  0  0  0
 17 31  1  0  0  0  0
 18 32  1  0  0  0  0
 19 32  1  0  0  0  0
 19 33  2  0  0  0  0
 19 37  1  0  0  0  0
 20 22  2  0  0  0  0
 20 42  1  0  0  0  0
 21 23  2  0  0  0  0
 21 43  1  0  0  0  0
 22 54  1  0  0  0  0
 23 44  1  0  0  0  0
 24 26  2  0  0  0  0
 24 69  1  0  0  0  0
 25 75  1  0  0  0  0
 26 72  1  0  0  0  0
 27 85  1  0  0  0  0
 28 86  1  0  0  0  0
 29 31  2  0  0  0  0
 29 85  1  0  0  0  0
 30 87  1  0  0  0  0
 31 88  1  0  0  0  0
 32 67  2  0  0  0  0
 33 68  1  0  0  0  0
 33 73  1  0  0  0  0
 34 35  2  0  0  0  0
 34 45  1  0  0  0  0
 34 63  1  0  0  0  0
 35 57  1  0  0  0  0
 35 69  1  0  0  0  0
 36 46  1  0  0  0  0
 36 47  1  0  0  0  0
 36 79  2  0  0  0  0
 37 74  1  0  0  0  0
 37 80  2  0  0  0  0
 38 55  1  0  0  0  0
 38 76  1  0  0  0  0
 38 81  2  0  0  0  0
 39 64  1  0  0  0  0
 39 70  1  0  0  0  0
 39 82  2  0  0  0  0
 40 65  1  0  0  0  0
 40 77  1  0  0  0  0
 40 83  2  0  0  0  0
 41 71  1  0  0  0  0
 41 75  1  0  0  0  0
 41 84  2  0  0  0  0
 42 48  1  0  0  0  0
 43 55  1  0  0  0  0
 44 70  1  0  0  0  0
 45 46  1  0  0  0  0
 47 69  1  0  0  0  0
 48 50  1  0  0  0  0
 49 51  1  0  0  0  0
 49 52  1  0  0  0  0
 50 54  1  0  0  0  0
 51 56  1  0  0  0  0
 52 71  1  0  0  0  0
 53 56  1  0  0  0  0
 53 71  1  0  0  0  0
 54 76  1  0  0  0  0
 55 70  1  0  0  0  0
 56 68  1  0  0  0  0
 58 65  1  0  0  0  0
 59 66  1  0  0  0  0
 60 66  1  0  0  0  0
 61 66  1  0  0  0  0
 62 78  1  0  0  0  0
 63 86  1  0  0  0  0
 64 66  1  0  0  0  0
 64 77  1  0  0  0  0
 65 78  1  0  0  0  0
 67 68  1  0  0  0  0
M  CHG  1  78   1
M  ISO  4  41 100  63 101  75 100  86 101
M  END
> <Batch ID>
0148

> <Smiles>
CNC(C)C(=O)NC(C(=O)N1Cc2cc([101O:1][101CH2:1]C3=C(C)N(c4ccc([100NH:0][100C:0](=O)N5CCCC(n6nc(-c7ccc(Oc8ccc(F)cc8F)cc7)c(C(N)=O)c6N)C5)cc4N)CC(=O)CC3)ccc2CC1C(=O)NC1CCCc2ccccc21)C(C)(C)C

> <Shape>
0.342

> <Color>
0.090

> <Negative vol penalty>
0.000

$$$$

  -OEChem-04052303163D

 79 87  0     1  0  0  0  0  0999 V2000
  -29.0317  -34.7777   25.6380 C   0  0  0  0  0  0  0  0  0  0  0  0
  -29.0560  -33.5031   25.0811 C   0  0  0  0  0  0  0  0  0  0  0  0
  -26.2506  -12.4329   21.4355 C   0  0  0  0  0  0  0  0  0  0  0  0
  -26.0831  -12.7041   19.0406 C   0  0  0  0  0  0  0  0  0  0  0  0
  -27.8172  -35.3493   26.0151 C   0  0  0  0  0  0  0  0  0  0  0  0
  -27.8659  -32.7988   24.9020 C   0  0  0  0  0  0  0  0  0  0  0  0
  -27.5885  -30.5763   20.3601 C   0  0  0  0  0  0  0  0  0  0  0  0
  -25.0785  -11.6767   21.4319 C   0  0  0  0  0  0  0  0  0  0  0  0
  -24.9110  -11.9478   19.0369 C   0  0  0  0  0  0  0  0  0  0  0  0
  -28.3062  -29.3938   20.1850 C   0  0  0  0  0  0  0  0  0  0  0  0
  -24.1598   -8.5094   20.6855 C   0  0  0  0  0  0  0  0  0  0  0  0
  -24.1459   -7.3316   21.4326 C   0  0  0  0  0  0  0  0  0  0  0  0
  -26.2829  -28.1235   20.5194 C   0  0  0  0  0  0  0  0  0  0  0  0
  -22.3133   -8.1903   22.7522 C   0  0  0  0  0  0  0  0  0  0  0  0
  -26.7529  -12.9466   20.2399 C   0  0  0  0  0  0  0  0  0  0  0  0
  -29.2811  -13.2552   20.0972 C   0  0  0  0  0  0  0  0  0  0  0  0
  -26.6106  -34.6556   25.8316 C   0  0  0  0  0  0  0  0  0  0  0  0
  -26.2124  -30.5407   20.6275 C   0  0  0  0  0  0  0  0  0  0  0  0
  -26.6343  -33.3612   25.2782 C   0  0  0  0  0  0  0  0  0  0  0  0
  -25.5496  -29.3070   20.6950 C   0  0  0  0  0  0  0  0  0  0  0  0
  -24.4087  -11.4342   20.2326 C   0  0  0  0  0  0  0  0  0  0  0  0
  -27.6539  -28.1671   20.2675 C   0  0  0  0  0  0  0  0  0  0  0  0
  -23.2505   -9.5278   20.9718 C   0  0  0  0  0  0  0  0  0  0  0  0
  -23.2227   -7.1721   22.4659 C   0  0  0  0  0  0  0  0  0  0  0  0
  -22.3273   -9.3682   22.0051 C   0  0  0  0  0  0  0  0  0  0  0  0
  -27.9633  -13.7283   20.2431 C   0  0  0  0  0  0  0  0  0  0  0  0
  -30.0610  -14.3835   20.1696 C   0  0  0  0  0  0  0  0  0  0  0  0
  -29.7577  -11.9156   19.9126 C   0  0  0  0  0  0  0  0  0  0  0  0
  -24.3713  -31.4830   23.0412 C   0  0  0  0  0  0  0  0  0  0  0  0
  -21.9718  -30.6143   21.0387 C   0  0  0  0  0  0  0  0  0  0  0  0
  -20.9535  -28.7251   18.3852 C   0  0  0  0  0  0  0  0  0  0  0  0
  -29.1699  -19.9609   18.9233 C   0  0  0  0  0  0  0  0  0  0  0  0
  -25.3271  -35.2956   26.2982 C   0  0  0  0  0  0  0  0  0  0  0  0
  -25.4477  -31.8260   20.7874 C   0  0  0  0  0  0  0  0  0  0  0  0
  -24.0698  -29.2152   20.9597 C   0  0  0  0  0  0  0  0  0  0  0  0
  -24.0746  -34.6338   25.7294 C   0  0  0  0  0  0  0  0  0  0  0  0
  -30.1540  -18.7637   22.0777 C   0  0  0  0  0  0  0  0  0  0  0  0
  -24.1723  -33.1161   25.8475 C   0  0  0  0  0  0  0  0  0  0  0  0
  -29.8294  -17.2755   21.9526 C   0  0  0  0  0  0  0  0  0  0  0  0
  -27.3033  -22.9273   19.2270 C   0  0  0  0  0  0  0  0  0  0  0  0
  -29.0774  -19.6408   21.4363 C   0  0  0  0  0  0  0  0  0  0  0  0
  -28.3381  -22.1002   19.9939 C   0  0  0  0  0  0  0  0  0  0  0  0
  -29.8646  -22.1704   18.0463 C   0  0  0  0  0  0  0  0  0  0  0  0
  -28.4532  -17.8019   19.9038 C   0  0  0  0  0  0  0  0  0  0  0  0
  -25.3620  -32.5757   25.0450 C   0  0  1  0  0  0  0  0  0  0  0  0
  -24.1467  -31.6544   21.5655 C   0  0  1  0  0  0  0  0  0  0  0  0
  -27.9310  -23.8277   18.1477 C   0  0  2  0  0  0  0  0  0  0  0  0
  -28.8469  -22.9796   17.2308 C   0  0  1  0  0  0  0  0  0  0  0  0
  -29.5454  -16.8931   20.4891 C   0  0  2  0  0  0  0  0  0  0  0  0
  -29.5561  -23.8091   16.1603 C   0  0  0  0  0  0  0  0  0  0  0  0
  -18.9254  -28.2001   17.0037 C   0  0  0  0  0  0  0  0  0  0  0  0
  -20.8915  -28.8654   23.2936 C   0  0  0  0  0  0  0  0  0  0  0  0
  -19.4807  -27.6762   21.6014 C   0  0  0  0  0  0  0  0  0  0  0  0
  -19.1435  -30.1134   22.0125 C   0  0  0  0  0  0  0  0  0  0  0  0
  -22.2323  -29.7343   15.9143 C   0  0  0  0  0  0  0  0  0  0  0  0
  -28.6310  -25.0328   18.7875 C   0  0  0  0  0  0  0  0  0  0  0  0
  -27.6484  -25.9003   19.5481 C   0  0  0  0  0  0  0  0  0  1  0  0
  -21.2079  -29.3391   20.7753 C   0  0  1  0  0  0  0  0  0  0  0  0
  -20.1578  -29.0803   17.1422 C   0  0  2  0  0  0  0  0  0  0  0  0
  -20.2092  -28.9999   21.9176 C   0  0  0  0  0  0  0  0  0  0  0  0
  -27.9053  -15.0538   20.3967 N   0  0  0  0  0  0  0  0  0  0  0  0
  -29.1965  -15.4233   20.3478 N   0  0  0  0  0  0  0  0  0  0  0  0
  -23.3670  -30.4995   21.1152 N   0  0  0  0  0  0  0  0  0  0  0  0
  -28.8122  -19.2136   20.0555 N   0  0  0  0  0  0  0  0  0  0  0  0
  -29.1995  -21.3568   19.0651 N   0  0  0  0  0  0  0  0  0  0  0  0
  -31.3950  -14.5777   20.0976 N   0  0  0  0  0  0  0  0  0  0  0  0
  -28.8210  -10.8743   19.8610 N   0  0  0  0  0  0  0  0  0  0  0  0
  -25.0431  -32.5350   23.6340 N   0  0  0  0  0  0  0  0  0  0  0  0
  -20.5857  -29.4990   19.4655 N   0  0  0  0  0  0  0  0  0  0  0  0
  -20.9975  -28.9084   15.9230 N   0  3  0  0  0  0  0  0  0  0  0  0
  -30.9792  -11.6480   19.8134 O   0  0  0  0  0  0  0  0  0  0  0  0
  -23.9638  -30.4719   23.6009 O   0  0  0  0  0  0  0  0  0  0  0  0
  -21.3537  -31.6744   21.1645 O   0  0  0  0  0  0  0  0  0  0  0  0
  -21.8126  -27.8463   18.3976 O   0  0  0  0  0  0  0  0  0  0  0  0
  -29.4468  -19.4135   17.8486 O   0  0  0  0  0  0  0  0  0  0  0  0
  -23.2651  -10.6962   20.2286 O   0  0  0  0  0  0  0  0  0  0  0  0
  -28.3572  -27.0029   20.0964 O   0  0  0  0  0  0  0  0  0  1  0  0
  -23.2084   -6.0403   23.1823 F   0  0  0  0  0  0  0  0  0  0  0  0
  -21.4505  -10.3425   22.2840 F   0  0  0  0  0  0  0  0  0  0  0  0
  1  2  1  0  0  0  0
  1  5  2  0  0  0  0
  2  6  2  0  0  0  0
  3  8  2  0  0  0  0
  3 15  1  0  0  0  0
  4  9  1  0  0  0  0
  4 15  2  0  0  0  0
  5 17  1  0  0  0  0
  6 19  1  0  0  0  0
  7 10  2  0  0  0  0
  7 18  1  0  0  0  0
  8 21  1  0  0  0  0
  9 21  2  0  0  0  0
 10 22  1  0  0  0  0
 11 12  2  0  0  0  0
 11 23  1  0  0  0  0
 12 24  1  0  0  0  0
 13 20  1  0  0  0  0
 13 22  2  0  0  0  0
 14 24  2  0  0  0  0
 14 25  1  0  0  0  0
 15 26  1  0  0  0  0
 16 26  1  0  0  0  0
 16 27  2  0  0  0  0
 16 28  1  0  0  0  0
 17 19  2  0  0  0  0
 17 33  1  0  0  0  0
 18 20  2  0  0  0  0
 18 34  1  0  0  0  0
 19 45  1  0  0  0  0
 20 35  1  0  0  0  0
 21 76  1  0  0  0  0
 22 77  1  0  0  0  0
 23 25  2  0  0  0  0
 23 76  1  0  0  0  0
 24 78  1  0  0  0  0
 25 79  1  0  0  0  0
 26 61  2  0  0  0  0
 27 62  1  0  0  0  0
 27 66  1  0  0  0  0
 28 67  1  0  0  0  0
 28 71  2  0  0  0  0
 29 46  1  0  0  0  0
 29 68  1  0  0  0  0
 29 72  2  0  0  0  0
 30 58  1  0  0  0  0
 30 63  1  0  0  0  0
 30 73  2  0  0  0  0
 31 59  1  0  0  0  0
 31 69  1  0  0  0  0
 31 74  2  0  0  0  0
 32 64  1  0  0  0  0
 32 65  1  0  0  0  0
 32 75  2  0  0  0  0
 33 36  1  0  0  0  0
 34 46  1  0  0  0  0
 35 63  1  0  0  0  0
 36 38  1  0  0  0  0
 37 39  1  0  0  0  0
 37 41  1  0  0  0  0
 38 45  1  0  0  0  0
 39 49  1  0  0  0  0
 40 42  1  0  0  0  0
 40 47  1  0  0  0  0
 41 64  1  0  0  0  0
 42 65  1  0  0  0  0
 43 48  1  0  0  0  0
 43 65  1  0  0  0  0
 44 49  1  0  0  0  0
 44 64  1  0  0  0  0
 45 68  1  0  0  0  0
 46 63  1  0  0  0  0
 47 48  1  0  0  0  0
 47 56  1  0  0  0  0
 48 50  1  0  0  0  0
 49 62  1  0  0  0  0
 51 59  1  0  0  0  0
 52 60  1  0  0  0  0
 53 60  1  0  0  0  0
 54 60  1  0  0  0  0
 55 70  1  0  0  0  0
 56 57  1  0  0  0  0
 57 77  1  0  0  0  0
 58 60  1  0  0  0  0
 58 69  1  0  0  0  0
 59 70  1  0  0  0  0
 61 62  1  0  0  0  0
M  CHG  1  70   1
M  ISO  4  32 100  57 101  65 100  77 101
M  END
> <Batch ID>
0148

> <Smiles>
CNC(C)C(=O)NC(C(=O)N1Cc2cc([101O:1][101CH2:1]CC3CC[100N:0]([100C:0](=O)N4CCCC(n5nc(-c6ccc(Oc7ccc(F)cc7F)cc6)c(C(N)=O)c5N)C4)CC3C)ccc2CC1C(=O)NC1CCCc2ccccc21)C(C)(C)C

> <Shape>
0.342

> <Color>
0.081

> <Negative vol penalty>
0.000

$$$$

  -OEChem-04052303163D

 88 97  0     1  0  0  0  0  0999 V2000
  -28.7037  -37.4468   22.8073 C   0  0  0  0  0  0  0  0  0  0  0  0
  -29.0973  -36.2118   22.3021 C   0  0  0  0  0  0  0  0  0  0  0  0
  -21.0016  -10.2889   20.5933 C   0  0  0  0  0  0  0  0  0  0  0  0
  -22.9205  -10.1087   22.0502 C   0  0  0  0  0  0  0  0  0  0  0  0
  -27.6837  -37.5180   23.7552 C   0  0  0  0  0  0  0  0  0  0  0  0
  -28.4717  -35.0470   22.7454 C   0  0  0  0  0  0  0  0  0  0  0  0
  -27.3059  -30.0141   19.4565 C   0  0  0  0  0  0  0  0  0  0  0  0
  -20.8825   -8.8992   20.5782 C   0  0  0  0  0  0  0  0  0  0  0  0
  -22.8013   -8.7190   22.0352 C   0  0  0  0  0  0  0  0  0  0  0  0
  -27.9688  -28.7928   19.3439 C   0  0  0  0  0  0  0  0  0  0  0  0
  -20.8861   -6.3686   23.5278 C   0  0  0  0  0  0  0  0  0  0  0  0
  -20.9983   -5.6968   24.7451 C   0  0  0  0  0  0  0  0  0  0  0  0
  -27.6321  -19.6419   21.8416 C   0  0  0  0  0  0  0  0  0  0  0  0
  -26.4829  -27.8415   20.9890 C   0  0  0  0  0  0  0  0  0  0  0  0
  -26.8193  -20.0010   24.4860 C   0  0  0  0  0  0  0  0  0  0  0  0
  -22.8954   -4.4678   23.8920 C   0  0  0  0  0  0  0  0  0  0  0  0
  -22.0206  -10.8936   21.3292 C   0  0  0  0  0  0  0  0  0  0  0  0
  -28.3766  -20.4554   22.6957 C   0  0  0  0  0  0  0  0  0  0  0  0
  -21.5425  -13.2246   22.2488 C   0  0  0  0  0  0  0  0  0  0  0  0
  -27.0388  -36.3544   24.2031 C   0  0  0  0  0  0  0  0  0  0  0  0
  -26.2316  -30.1616   20.3457 C   0  0  0  0  0  0  0  0  0  0  0  0
  -27.4430  -35.1026   23.7011 C   0  0  0  0  0  0  0  0  0  0  0  0
  -25.8064  -29.0651   21.1091 C   0  0  0  0  0  0  0  0  0  0  0  0
  -26.4810  -19.0080   22.3096 C   0  0  0  0  0  0  0  0  0  0  0  0
  -27.9702  -20.6349   24.0179 C   0  0  0  0  0  0  0  0  0  0  0  0
  -21.7823   -8.1143   21.2992 C   0  0  0  0  0  0  0  0  0  0  0  0
  -27.5592  -27.7071   20.1123 C   0  0  0  0  0  0  0  0  0  0  0  0
  -21.7785   -6.0899   22.4926 C   0  0  0  0  0  0  0  0  0  0  0  0
  -22.0030   -4.7465   24.9272 C   0  0  0  0  0  0  0  0  0  0  0  0
  -26.0747  -19.1875   23.6319 C   0  0  0  0  0  0  0  0  0  0  0  0
  -22.7831   -5.1395   22.6747 C   0  0  0  0  0  0  0  0  0  0  0  0
  -22.1445  -12.3291   21.3447 C   0  0  0  0  0  0  0  0  0  0  0  0
  -21.9701  -14.4643   21.8403 C   0  0  0  0  0  0  0  0  0  0  0  0
  -29.5881  -21.1151   22.1768 C   0  0  0  0  0  0  0  0  0  0  0  0
  -20.6744  -12.9596   23.3586 C   0  0  0  0  0  0  0  0  0  0  0  0
  -25.6692  -31.9605   22.9053 C   0  0  0  0  0  0  0  0  0  0  0  0
  -22.7076  -30.6547   22.6900 C   0  0  0  0  0  0  0  0  0  0  0  0
  -20.7484  -28.0802   21.6034 C   0  0  0  0  0  0  0  0  0  0  0  0
  -25.9910  -17.9007   20.1006 C   0  0  0  0  0  0  0  0  0  0  0  0
  -25.9737  -36.4773   25.2639 C   0  0  0  0  0  0  0  0  0  0  0  0
  -25.5100  -31.4783   20.4358 C   0  0  0  0  0  0  0  0  0  0  0  0
  -24.6457  -29.1657   22.0636 C   0  0  0  0  0  0  0  0  0  0  0  0
  -25.1063  -35.2289   25.4037 C   0  0  0  0  0  0  0  0  0  0  0  0
  -24.3955  -15.8906   17.6326 C   0  0  0  0  0  0  0  0  0  0  0  0
  -25.9758  -33.9761   25.4401 C   0  0  0  0  0  0  0  0  0  0  0  0
  -23.6181  -14.8585   18.4527 C   0  0  0  0  0  0  0  0  0  0  0  0
  -30.0626  -24.4420   20.8482 C   0  0  0  0  0  0  0  0  0  0  0  0
  -25.7380  -16.2321   18.2766 C   0  0  0  0  0  0  0  0  0  0  0  0
  -30.6409  -23.0512   21.0881 C   0  0  0  0  0  0  0  0  0  0  0  0
  -24.8870  -15.6129   20.5040 C   0  0  0  0  0  0  0  0  0  0  0  0
  -28.2183  -23.0486   21.5072 C   0  0  0  0  0  0  0  0  0  0  0  0
  -26.7716  -33.8189   24.1388 C   0  0  1  0  0  0  0  0  0  0  0  0
  -24.7569  -31.6581   21.7503 C   0  0  1  0  0  0  0  0  0  0  0  0
  -23.4993  -15.2854   19.9289 C   0  0  2  0  0  0  0  0  0  0  0  0
  -28.5726  -24.1966   20.5443 C   0  0  2  0  0  0  0  0  0  0  0  0
  -28.3728  -23.7604   19.0839 C   0  0  0  0  0  0  0  0  0  0  0  0
  -18.3717  -27.2749   21.6100 C   0  0  0  0  0  0  0  0  0  0  0  0
  -23.0039  -29.8114   25.6074 C   0  0  0  0  0  0  0  0  0  0  0  0
  -21.0865  -28.2364   25.2743 C   0  0  0  0  0  0  0  0  0  0  0  0
  -20.7432  -30.6920   25.0004 C   0  0  0  0  0  0  0  0  0  0  0  0
  -20.5972  -28.1421   18.6484 C   0  0  0  0  0  0  0  0  0  0  0  0
  -27.7323  -25.4438   20.8220 C   0  0  0  0  0  0  0  0  0  1  0  0
  -22.0414  -29.4184   23.2441 C   0  0  1  0  0  0  0  0  0  0  0  0
  -19.4281  -28.0659   20.8543 C   0  0  2  0  0  0  0  0  0  0  0  0
  -21.7419  -29.5379   24.7651 C   0  0  0  0  0  0  0  0  0  0  0  0
  -22.8972  -12.9472   20.4307 N   0  0  0  0  0  0  0  0  0  0  0  0
  -22.7709  -14.2445   20.7583 N   0  0  0  0  0  0  0  0  0  0  0  0
  -29.4910  -22.3144   21.6323 N   0  0  0  0  0  0  0  0  0  0  0  0
  -23.9764  -30.4758   22.1208 N   0  0  0  0  0  0  0  0  0  0  0  0
  -25.5467  -16.6318   19.6725 N   0  0  0  0  0  0  0  0  0  0  0  0
  -28.7108  -21.4559   24.8971 N   0  0  0  0  0  0  0  0  0  0  0  0
  -21.7355  -15.7100   22.3046 N   0  0  0  0  0  0  0  0  0  0  0  0
  -20.3356  -11.6288   23.6390 N   0  0  0  0  0  0  0  0  0  0  0  0
  -25.7255  -18.1828   21.4402 N   0  0  0  0  0  0  0  0  0  0  0  0
  -25.9217  -33.3071   23.0852 N   0  0  0  0  0  0  0  0  0  0  0  0
  -20.8609  -29.1864   22.4190 N   0  0  0  0  0  0  0  0  0  0  0  0
  -30.7601  -20.4934   22.2667 N   0  3  0  0  0  0  0  0  0  0  0  0
  -19.6029  -27.4503   19.5084 N   0  3  0  0  0  0  0  0  0  0  0  0
  -20.1996  -13.8770   24.0704 O   0  0  0  0  0  0  0  0  0  0  0  0
  -26.1101  -31.0403   23.5839 O   0  0  0  0  0  0  0  0  0  0  0  0
  -22.1207  -31.7378   22.7533 O   0  0  0  0  0  0  0  0  0  0  0  0
  -21.5936  -27.1965   21.4805 O   0  0  0  0  0  0  0  0  0  0  0  0
  -26.5404  -18.6904   19.3283 O   0  0  0  0  0  0  0  0  0  0  0  0
  -21.6662   -6.7582   21.2849 O   0  0  0  0  0  0  0  0  0  0  0  0
  -28.2048  -26.5140   20.0048 O   0  0  0  0  0  0  0  0  0  1  0  0
  -22.1116   -4.1026   26.0967 F   0  0  0  0  0  0  0  0  0  0  0  0
  -24.9701  -18.5834   24.0929 F   0  0  0  0  0  0  0  0  0  0  0  0
  -23.6441   -4.8684   21.6842 F   0  0  0  0  0  0  0  0  0  0  0  0
  1  2  1  0  0  0  0
  1  5  2  0  0  0  0
  2  6  2  0  0  0  0
  3  8  2  0  0  0  0
  3 17  1  0  0  0  0
  4  9  1  0  0  0  0
  4 17  2  0  0  0  0
  5 20  1  0  0  0  0
  6 22  1  0  0  0  0
  7 10  2  0  0  0  0
  7 21  1  0  0  0  0
  8 26  1  0  0  0  0
  9 26  2  0  0  0  0
 10 27  1  0  0  0  0
 11 12  2  0  0  0  0
 11 28  1  0  0  0  0
 12 29  1  0  0  0  0
 13 18  1  0  0  0  0
 13 24  2  0  0  0  0
 14 23  1  0  0  0  0
 14 27  2  0  0  0  0
 15 25  1  0  0  0  0
 15 30  2  0  0  0  0
 16 29  2  0  0  0  0
 16 31  1  0  0  0  0
 17 32  1  0  0  0  0
 18 25  2  0  0  0  0
 18 34  1  0  0  0  0
 19 32  1  0  0  0  0
 19 33  2  0  0  0  0
 19 35  1  0  0  0  0
 20 22  2  0  0  0  0
 20 40  1  0  0  0  0
 21 23  2  0  0  0  0
 21 41  1  0  0  0  0
 22 52  1  0  0  0  0
 23 42  1  0  0  0  0
 24 30  1  0  0  0  0
 24 74  1  0  0  0  0
 25 71  1  0  0  0  0
 26 84  1  0  0  0  0
 27 85  1  0  0  0  0
 28 31  2  0  0  0  0
 28 84  1  0  0  0  0
 29 86  1  0  0  0  0
 30 87  1  0  0  0  0
 31 88  1  0  0  0  0
 32 66  2  0  0  0  0
 33 67  1  0  0  0  0
 33 72  1  0  0  0  0
 34 68  1  0  0  0  0
 34 77  2  0  0  0  0
 35 73  1  0  0  0  0
 35 79  2  0  0  0  0
 36 53  1  0  0  0  0
 36 75  1  0  0  0  0
 36 80  2  0  0  0  0
 37 63  1  0  0  0  0
 37 69  1  0  0  0  0
 37 81  2  0  0  0  0
 38 64  1  0  0  0  0
 38 76  1  0  0  0  0
 38 82  2  0  0  0  0
 39 70  1  0  0  0  0
 39 74  1  0  0  0  0
 39 83  2  0  0  0  0
 40 43  1  0  0  0  0
 41 53  1  0  0  0  0
 42 69  1  0  0  0  0
 43 45  1  0  0  0  0
 44 46  1  0  0  0  0
 44 48  1  0  0  0  0
 45 52  1  0  0  0  0
 46 54  1  0  0  0  0
 47 49  1  0  0  0  0
 47 55  1  0  0  0  0
 48 70  1  0  0  0  0
 49 68  1  0  0  0  0
 50 54  1  0  0  0  0
 50 70  1  0  0  0  0
 51 55  1  0  0  0  0
 51 68  1  0  0  0  0
 52 75  1  0  0  0  0
 53 69  1  0  0  0  0
 54 67  1  0  0  0  0
 55 56  1  0  0  0  0
 55 62  1  0  0  0  0
 57 64  1  0  0  0  0
 58 65  1  0  0  0  0
 59 65  1  0  0  0  0
 60 65  1  0  0  0  0
 61 78  1  0  0  0  0
 62 85  1  0  0  0  0
 63 65  1  0  0  0  0
 63 76  1  0  0  0  0
 64 78  1  0  0  0  0
 66 67  1  0  0  0  0
M  CHG  2  77   1  78   1
M  ISO  4  39 100  62 101  74 100  85 101
M  END
> <Batch ID>
0148

> <Smiles>
CNC(C)C(=O)NC(C(=O)N1Cc2cc([101O:1][101CH2:1]C3(C)CCN(C(=N)c4cc([100NH:0][100C:0](=O)N5CCCC(n6nc(-c7ccc(Oc8ccc(F)cc8F)cc7)c(C(N)=O)c6N)C5)c(F)cc4N)C3)ccc2CC1C(=O)NC1CCCc2ccccc21)C(C)(C)C

> <Shape>
0.288

> <Color>
0.092

> <Negative vol penalty>
0.000

$$$$

  -OEChem-04052303163D

 88 97  0     1  0  0  0  0  0999 V2000
  -17.4952  -26.0713   22.3474 C   0  0  0  0  0  0  0  0  0  0  0  0
  -18.6148  -25.9449   21.5313 C   0  0  0  0  0  0  0  0  0  0  0  0
  -26.4602  -13.7393   21.0922 C   0  0  0  0  0  0  0  0  0  0  0  0
  -24.7485  -15.2553   20.3119 C   0  0  0  0  0  0  0  0  0  0  0  0
  -17.1468  -27.3191   22.8625 C   0  0  0  0  0  0  0  0  0  0  0  0
  -19.3861  -27.0665   21.2291 C   0  0  0  0  0  0  0  0  0  0  0  0
  -25.4558  -27.2558   20.4364 C   0  0  0  0  0  0  0  0  0  0  0  0
  -25.6903  -12.6543   20.6733 C   0  0  0  0  0  0  0  0  0  0  0  0
  -23.9785  -14.1703   19.8930 C   0  0  0  0  0  0  0  0  0  0  0  0
  -26.2529  -27.2535   19.2925 C   0  0  0  0  0  0  0  0  0  0  0  0
  -24.0142   -9.4725   20.1347 C   0  0  0  0  0  0  0  0  0  0  0  0
  -23.8908   -8.3887   21.0040 C   0  0  0  0  0  0  0  0  0  0  0  0
  -28.7263  -25.9650   24.0745 C   0  0  0  0  0  0  0  0  0  0  0  0
  -28.3034  -24.7690   24.7233 C   0  0  0  0  0  0  0  0  0  0  0  0
  -26.3717  -29.6614   19.3778 C   0  0  0  0  0  0  0  0  0  0  0  0
  -22.8899   -9.8328   22.6623 C   0  0  0  0  0  0  0  0  0  0  0  0
  -25.9893  -15.0399   20.9116 C   0  0  0  0  0  0  0  0  0  0  0  0
  -27.7466  -16.8615   20.5932 C   0  0  0  0  0  0  0  0  0  0  0  0
  -17.9197  -28.4550   22.5743 C   0  0  0  0  0  0  0  0  0  0  0  0
  -25.1010  -28.4636   21.0543 C   0  0  0  0  0  0  0  0  0  0  0  0
  -19.0469  -28.3310   21.7397 C   0  0  0  0  0  0  0  0  0  0  0  0
  -25.5721  -29.6762   20.5308 C   0  0  0  0  0  0  0  0  0  0  0  0
  -24.4494  -12.8698   20.0737 C   0  0  0  0  0  0  0  0  0  0  0  0
  -26.7086  -28.4566   18.7614 C   0  0  0  0  0  0  0  0  0  0  0  0
  -23.5755  -10.7365   20.5291 C   0  0  0  0  0  0  0  0  0  0  0  0
  -23.3287   -8.5689   22.2678 C   0  0  0  0  0  0  0  0  0  0  0  0
  -23.0133  -10.9166   21.7929 C   0  0  0  0  0  0  0  0  0  0  0  0
  -26.7840  -16.1611   21.3446 C   0  0  0  0  0  0  0  0  0  0  0  0
  -28.2125  -17.8294   21.4491 C   0  0  0  0  0  0  0  0  0  0  0  0
  -28.7861  -25.8179   22.7061 C   0  0  0  0  0  0  0  0  0  0  0  0
  -28.0559  -23.7534   23.8260 C   0  0  0  0  0  0  0  0  0  0  0  0
  -29.1866  -26.5034   20.2807 C   0  0  0  0  0  0  0  0  0  0  0  0
  -28.1807  -16.6556   19.2423 C   0  0  0  0  0  0  0  0  0  0  0  0
  -22.3603  -29.9633   21.6400 C   0  0  0  0  0  0  0  0  0  0  0  0
  -24.2780  -32.0073   23.2730 C   0  0  0  0  0  0  0  0  0  0  0  0
  -27.3954  -33.3213   23.7224 C   0  0  0  0  0  0  0  0  0  0  0  0
  -27.3350  -21.8036   25.2490 C   0  0  0  0  0  0  0  0  0  0  0  0
  -17.4766  -29.7911   23.1157 C   0  0  0  0  0  0  0  0  0  0  0  0
  -24.2626  -28.4475   22.3029 C   0  0  0  0  0  0  0  0  0  0  0  0
  -25.2364  -30.9988   21.1683 C   0  0  0  0  0  0  0  0  0  0  0  0
  -18.5609  -30.8638   23.0526 C   0  0  0  0  0  0  0  0  0  0  0  0
  -27.5044  -18.4464   26.4230 C   0  0  0  0  0  0  0  0  0  0  0  0
  -19.2343  -30.8623   21.6839 C   0  0  0  0  0  0  0  0  0  0  0  0
  -27.4112  -17.6102   25.1446 C   0  0  0  0  0  0  0  0  0  0  0  0
  -26.6239  -19.6928   26.3508 C   0  0  0  0  0  0  0  0  0  0  0  0
  -29.6153  -28.0876   21.9830 C   0  0  0  0  0  0  0  0  0  0  0  0
  -29.7602  -28.7736   20.6363 C   0  0  0  0  0  0  0  0  0  0  0  0
  -26.7455  -19.7007   23.8902 C   0  0  0  0  0  0  0  0  0  0  0  0
  -19.9229  -29.5200   21.4093 C   0  0  1  0  0  0  0  0  0  0  0  0
  -23.5374  -29.7663   22.5528 C   0  0  1  0  0  0  0  0  0  0  0  0
  -27.6651  -18.4686   23.8899 C   0  0  2  0  0  0  0  0  0  0  0  0
  -28.6447  -35.0000   25.1076 C   0  0  0  0  0  0  0  0  0  0  0  0
  -23.0546  -34.2693   21.6310 C   0  0  0  0  0  0  0  0  0  0  0  0
  -24.9578  -35.7278   22.3510 C   0  0  0  0  0  0  0  0  0  0  0  0
  -23.3872  -34.7997   24.0523 C   0  0  0  0  0  0  0  0  0  0  0  0
  -30.5532  -30.4245   16.5642 C   0  0  0  0  0  0  0  0  0  0  0  0
  -29.3001  -28.6928   15.2610 C   0  0  0  0  0  0  0  0  0  0  0  0
  -28.1373  -30.7613   16.0347 C   0  0  0  0  0  0  0  0  0  0  0  0
  -29.1846  -31.2435   24.8361 C   0  0  0  0  0  0  0  0  0  0  0  0
  -29.7459  -27.9371   18.2566 C   0  0  0  0  0  0  0  0  0  0  0  0
  -25.0465  -33.2597   22.9267 C   0  0  1  0  0  0  0  0  0  0  0  0
  -28.2235  -33.5447   24.9749 C   0  0  2  0  0  0  0  0  0  0  0  0
  -28.7891  -29.0274   17.7607 C   0  0  1  0  0  0  0  0  0  1  0  0
  -24.1164  -34.4895   22.7269 C   0  0  0  0  0  0  0  0  0  0  0  0
  -29.1983  -29.7063   16.4162 C   0  0  0  0  0  0  0  0  0  0  0  0
  -26.6457  -16.6429   22.5826 N   0  0  0  0  0  0  0  0  0  0  0  0
  -27.5276  -17.6564   22.6158 N   0  0  0  0  0  0  0  0  0  0  0  0
  -29.1525  -26.7419   21.6841 N   0  0  0  0  0  0  0  0  0  0  0  0
  -29.5987  -27.7092   19.6781 N   0  0  0  0  0  0  0  0  0  0  0  0
  -24.4085  -30.9311   22.3838 N   0  0  0  0  0  0  0  0  0  0  0  0
  -26.9230  -20.4586   25.1388 N   0  0  0  0  0  0  0  0  0  0  0  0
  -29.1372  -18.8031   21.3100 N   0  0  0  0  0  0  0  0  0  0  0  0
  -27.5979  -15.6165   18.5043 N   0  0  0  0  0  0  0  0  0  0  0  0
  -27.6228  -22.4200   24.0317 N   0  0  0  0  0  0  0  0  0  0  0  0
  -21.1776  -29.4396   22.1261 N   0  0  0  0  0  0  0  0  0  0  0  0
  -26.0446  -33.4298   23.9770 N   0  0  0  0  0  0  0  0  0  0  0  0
  -29.4515  -32.7011   24.9413 N   0  3  0  0  0  0  0  0  0  0  0  0
  -28.9261  -25.4730   19.6727 O   0  0  0  0  0  0  0  0  0  0  0  0
  -29.0711  -17.3616   18.7110 O   0  0  0  0  0  0  0  0  0  0  0  0
  -22.5135  -30.5486   20.5743 O   0  0  0  0  0  0  0  0  0  0  0  0
  -23.5931  -31.9823   24.2986 O   0  0  0  0  0  0  0  0  0  0  0  0
  -27.8969  -33.0789   22.6268 O   0  0  0  0  0  0  0  0  0  0  0  0
  -27.4519  -22.3588   26.3445 O   0  0  0  0  0  0  0  0  0  0  0  0
  -23.6979  -11.8113   19.6646 O   0  0  0  0  0  0  0  0  0  0  0  0
  -27.4862  -28.4572   17.6446 O   0  0  0  0  0  0  0  0  0  1  0  0
  -23.2089   -7.5277   23.1020 F   0  0  0  0  0  0  0  0  0  0  0  0
  -22.5890  -12.1283   22.1770 F   0  0  0  0  0  0  0  0  0  0  0  0
  -28.3335  -24.2431   22.2088 S   0  0  0  0  0  0  0  0  0  0  0  0
  1  2  1  0  0  0  0
  1  5  2  0  0  0  0
  2  6  2  0  0  0  0
  3  8  2  0  0  0  0
  3 17  1  0  0  0  0
  4  9  1  0  0  0  0
  4 17  2  0  0  0  0
  5 19  1  0  0  0  0
  6 21  1  0  0  0  0
  7 10  2  0  0  0  0
  7 20  1  0  0  0  0
  8 23  1  0  0  0  0
  9 23  2  0  0  0  0
 10 24  1  0  0  0  0
 11 12  2  0  0  0  0
 11 25  1  0  0  0  0
 12 26  1  0  0  0  0
 13 14  1  0  0  0  0
 13 30  2  0  0  0  0
 14 31  2  0  0  0  0
 15 22  1  0  0  0  0
 15 24  2  0  0  0  0
 16 26  2  0  0  0  0
 16 27  1  0  0  0  0
 17 28  1  0  0  0  0
 18 28  1  0  0  0  0
 18 29  2  0  0  0  0
 18 33  1  0  0  0  0
 19 21  2  0  0  0  0
 19 38  1  0  0  0  0
 20 22  2  0  0  0  0
 20 39  1  0  0  0  0
 21 49  1  0  0  0  0
 22 40  1  0  0  0  0
 23 84  1  0  0  0  0
 24 85  1  0  0  0  0
 25 27  2  0  0  0  0
 25 84  1  0  0  0  0
 26 86  1  0  0  0  0
 27 87  1  0  0  0  0
 28 66  2  0  0  0  0
 29 67  1  0  0  0  0
 29 72  1  0  0  0  0
 30 68  1  0  0  0  0
 30 88  1  0  0  0  0
 31 74  1  0  0  0  0
 31 88  1  0  0  0  0
 32 68  1  0  0  0  0
 32 69  1  0  0  0  0
 32 78  2  0  0  0  0
 33 73  1  0  0  0  0
 33 79  2  0  0  0  0
 34 50  1  0  0  0  0
 34 75  1  0  0  0  0
 34 80  2  0  0  0  0
 35 61  1  0  0  0  0
 35 70  1  0  0  0  0
 35 81  2  0  0  0  0
 36 62  1  0  0  0  0
 36 76  1  0  0  0  0
 36 82  2  0  0  0  0
 37 71  1  0  0  0  0
 37 74  1  0  0  0  0
 37 83  2  0  0  0  0
 38 41  1  0  0  0  0
 39 50  1  0  0  0  0
 40 70  1  0  0  0  0
 41 43  1  0  0  0  0
 42 44  1  0  0  0  0
 42 45  1  0  0  0  0
 43 49  1  0  0  0  0
 44 51  1  0  0  0  0
 45 71  1  0  0  0  0
 46 47  1  0  0  0  0
 46 68  1  0  0  0  0
 47 69  1  0  0  0  0
 48 51  1  0  0  0  0
 48 71  1  0  0  0  0
 49 75  1  0  0  0  0
 50 70  1  0  0  0  0
 51 67  1  0  0  0  0
 52 62  1  0  0  0  0
 53 64  1  0  0  0  0
 54 64  1  0  0  0  0
 55 64  1  0  0  0  0
 56 65  1  0  0  0  0
 57 65  1  0  0  0  0
 58 65  1  0  0  0  0
 59 77  1  0  0  0  0
 60 63  1  0  0  0  0
 60 69  1  0  0  0  0
 61 64  1  0  0  0  0
 61 76  1  0  0  0  0
 62 77  1  0  0  0  0
 63 65  1  0  0  0  0
 63 85  1  0  0  0  0
 66 67  1  0  0  0  0
M  CHG  1  77   1
M  ISO  4  37 100  63 101  74 100  85 101
M  END
> <Batch ID>
0148

> <Smiles>
CNC(C)C(=O)NC(C(=O)N1Cc2cc([101O:1][101CH:1](CN3CCN(c4ccc([100NH:0][100C:0](=O)N5CCCC(n6nc(-c7ccc(Oc8ccc(F)cc8F)cc7)c(C(N)=O)c6N)C5)s4)C3=O)C(C)(C)C)ccc2CC1C(=O)NC1CCCc2ccccc21)C(C)(C)C

> <Shape>
0.282

> <Color>
0.099

> <Negative vol penalty>
0.000

$$$$

  -OEChem-04052303163D

 86 95  0     1  0  0  0  0  0999 V2000
  -30.5501  -23.9467   15.9577 C   0  0  0  0  0  0  0  0  0  0  0  0
  -29.1664  -23.9008   16.0942 C   0  0  0  0  0  0  0  0  0  0  0  0
  -26.8952  -13.3658   21.0847 C   0  0  0  0  0  0  0  0  0  0  0  0
  -26.9169  -13.4547   18.6704 C   0  0  0  0  0  0  0  0  0  0  0  0
  -31.3525  -24.1730   17.0751 C   0  0  0  0  0  0  0  0  0  0  0  0
  -28.5843  -24.0800   17.3486 C   0  0  0  0  0  0  0  0  0  0  0  0
  -22.7177  -26.7823   20.4463 C   0  0  0  0  0  0  0  0  0  0  0  0
  -26.2089  -12.1525   21.0339 C   0  0  0  0  0  0  0  0  0  0  0  0
  -26.2306  -12.2414   18.6196 C   0  0  0  0  0  0  0  0  0  0  0  0
  -21.7097  -26.4242   21.3404 C   0  0  0  0  0  0  0  0  0  0  0  0
  -24.1343   -9.2096   21.5425 C   0  0  0  0  0  0  0  0  0  0  0  0
  -23.0477   -9.0410   22.4006 C   0  0  0  0  0  0  0  0  0  0  0  0
  -21.6675  -21.5742   26.8378 C   0  0  0  0  0  0  0  0  0  0  0  0
  -23.1913  -26.8872   23.1869 C   0  0  0  0  0  0  0  0  0  0  0  0
  -21.9480  -10.9347   21.3800 C   0  0  0  0  0  0  0  0  0  0  0  0
  -20.5946  -22.4330   26.9301 C   0  0  0  0  0  0  0  0  0  0  0  0
  -21.6684  -22.9070   25.0230 C   0  0  0  0  0  0  0  0  0  0  0  0
  -27.2492  -14.0169   19.9029 C   0  0  0  0  0  0  0  0  0  0  0  0
  -29.3527  -15.4584   19.9740 C   0  0  0  0  0  0  0  0  0  0  0  0
  -30.7796  -24.3647   18.3423 C   0  0  0  0  0  0  0  0  0  0  0  0
  -23.9757  -27.1858   20.9164 C   0  0  0  0  0  0  0  0  0  0  0  0
  -29.3800  -24.3077   18.4843 C   0  0  0  0  0  0  0  0  0  0  0  0
  -22.3468  -21.8739   25.6312 C   0  0  0  0  0  0  0  0  0  0  0  0
  -24.2127  -27.2524   22.2968 C   0  0  0  0  0  0  0  0  0  0  0  0
  -25.8766  -11.5903   19.8014 C   0  0  0  0  0  0  0  0  0  0  0  0
  -21.9473  -26.4738   22.7109 C   0  0  0  0  0  0  0  0  0  0  0  0
  -24.1279  -10.2408   20.6032 C   0  0  0  0  0  0  0  0  0  0  0  0
  -21.9545   -9.9035   22.3194 C   0  0  0  0  0  0  0  0  0  0  0  0
  -23.0347  -11.1033   20.5219 C   0  0  0  0  0  0  0  0  0  0  0  0
  -27.9576  -15.2705   19.9548 C   0  0  0  0  0  0  0  0  0  0  0  0
  -29.5149  -16.8213   20.0248 C   0  0  0  0  0  0  0  0  0  0  0  0
  -30.4076  -14.4877   19.9481 C   0  0  0  0  0  0  0  0  0  0  0  0
  -26.9412  -26.0804   20.6204 C   0  0  0  0  0  0  0  0  0  0  0  0
  -27.7014  -28.8164   22.1885 C   0  0  0  0  0  0  0  0  0  0  0  0
  -26.7173  -31.3236   24.2843 C   0  0  0  0  0  0  0  0  0  0  0  0
  -26.2502  -21.2883   21.9826 C   0  0  0  0  0  0  0  0  0  0  0  0
  -31.6901  -24.5592   19.5288 C   0  0  0  0  0  0  0  0  0  0  0  0
  -25.0439  -27.5946   19.9395 C   0  0  0  0  0  0  0  0  0  0  0  0
  -25.5395  -27.6982   22.8530 C   0  0  0  0  0  0  0  0  0  0  0  0
  -30.9767  -25.1123   20.7598 C   0  0  0  0  0  0  0  0  0  0  0  0
  -27.3926  -20.9044   18.7429 C   0  0  0  0  0  0  0  0  0  0  0  0
  -29.6738  -24.3580   21.0056 C   0  0  0  0  0  0  0  0  0  0  0  0
  -27.8089  -19.4352   18.6761 C   0  0  0  0  0  0  0  0  0  0  0  0
  -23.3345  -20.4788   23.7605 C   0  0  0  0  0  0  0  0  0  0  0  0
  -24.7828  -22.1523   24.9899 C   0  0  0  0  0  0  0  0  0  0  0  0
  -26.0924  -21.0683   19.5214 C   0  0  0  0  0  0  0  0  0  0  0  0
  -24.6025  -19.8126   23.2187 C   0  0  0  0  0  0  0  0  0  0  0  0
  -26.0124  -21.4334   24.4425 C   0  0  0  0  0  0  0  0  0  0  0  0
  -26.5580  -19.0379   20.8551 C   0  0  0  0  0  0  0  0  0  0  0  0
  -23.5911  -21.1844   25.1043 C   0  0  0  0  0  0  0  0  0  0  0  0
  -28.7100  -24.5222   19.8242 C   0  0  1  0  0  0  0  0  0  0  0  0
  -26.4520  -27.4974   20.5186 C   0  0  1  0  0  0  0  0  0  0  0  0
  -27.8741  -18.8144   20.0828 C   0  0  1  0  0  0  0  0  0  0  0  0
  -27.5704  -33.3960   25.4134 C   0  0  0  0  0  0  0  0  0  0  0  0
  -29.2108  -27.0937   24.2045 C   0  0  0  0  0  0  0  0  0  0  0  0
  -29.2168  -29.0502   25.7667 C   0  0  0  0  0  0  0  0  0  0  0  0
  -30.3755  -29.2120   23.5636 C   0  0  0  0  0  0  0  0  0  0  0  0
  -18.8720  -26.6572   25.5494 C   0  0  0  0  0  0  0  0  0  0  0  0
  -20.4587  -25.9188   27.3276 C   0  0  0  0  0  0  0  0  0  0  0  0
  -24.7321  -33.0318   22.9059 C   0  0  0  0  0  0  0  0  0  0  0  0
  -19.6436  -24.2797   25.5390 C   0  0  0  0  0  0  0  0  0  0  0  0
  -21.2757  -26.1978   24.9755 C   0  0  0  0  0  0  0  0  0  1  0  0
  -27.8484  -29.2124   23.6379 C   0  0  1  0  0  0  0  0  0  0  0  0
  -26.8651  -32.8315   24.1900 C   0  0  2  0  0  0  0  0  0  0  0  0
  -29.1384  -28.6318   24.2830 C   0  0  0  0  0  0  0  0  0  0  0  0
  -20.0827  -25.7429   25.8449 C   0  0  0  0  0  0  0  0  0  0  0  0
  -27.2817  -16.4219   19.9906 N   0  0  0  0  0  0  0  0  0  0  0  0
  -20.6053  -23.2389   25.8216 N   0  0  0  0  0  0  0  0  0  0  0  0
  -28.2562  -17.3465   20.0329 N   0  0  0  0  0  0  0  0  0  0  0  0
  -26.5541  -28.0817   21.8574 N   0  0  0  0  0  0  0  0  0  0  0  0
  -26.1933  -20.4631   20.8493 N   0  0  0  0  0  0  0  0  0  0  0  0
  -25.7140  -20.7727   23.1721 N   0  0  0  0  0  0  0  0  0  0  0  0
  -30.6100  -17.6098   20.0629 N   0  0  0  0  0  0  0  0  0  0  0  0
  -30.0648  -13.1297   19.8958 N   0  0  0  0  0  0  0  0  0  0  0  0
  -28.0715  -25.8201   19.8694 N   0  0  0  0  0  0  0  0  0  0  0  0
  -27.7657  -30.6685   23.6736 N   0  0  0  0  0  0  0  0  0  0  0  0
  -25.5265  -33.4772   24.0796 N   0  3  0  0  0  0  0  0  0  0  0  0
  -31.6181  -14.8143   19.9873 O   0  0  0  0  0  0  0  0  0  0  0  0
  -26.3387  -25.2827   21.3291 O   0  0  0  0  0  0  0  0  0  0  0  0
  -28.5689  -29.1529   21.3787 O   0  0  0  0  0  0  0  0  0  0  0  0
  -25.7688  -30.7811   24.8469 O   0  0  0  0  0  0  0  0  0  0  0  0
  -26.7510  -22.4188   21.9354 O   0  0  0  0  0  0  0  0  0  0  0  0
  -25.2071  -10.4063   19.7514 O   0  0  0  0  0  0  0  0  0  0  0  0
  -20.9583  -26.1217   23.5920 O   0  0  0  0  0  0  0  0  0  1  0  0
  -20.9104   -9.7406   23.1424 F   0  0  0  0  0  0  0  0  0  0  0  0
  -23.0222  -12.0950   19.6207 F   0  0  0  0  0  0  0  0  0  0  0  0
  1  2  1  0  0  0  0
  1  5  2  0  0  0  0
  2  6  2  0  0  0  0
  3  8  2  0  0  0  0
  3 18  1  0  0  0  0
  4  9  1  0  0  0  0
  4 18  2  0  0  0  0
  5 20  1  0  0  0  0
  6 22  1  0  0  0  0
  7 10  2  0  0  0  0
  7 21  1  0  0  0  0
  8 25  1  0  0  0  0
  9 25  2  0  0  0  0
 10 26  1  0  0  0  0
 11 12  2  0  0  0  0
 11 27  1  0  0  0  0
 12 28  1  0  0  0  0
 13 16  2  0  0  0  0
 13 23  1  0  0  0  0
 14 24  1  0  0  0  0
 14 26  2  0  0  0  0
 15 28  2  0  0  0  0
 15 29  1  0  0  0  0
 16 68  1  0  0  0  0
 17 23  2  0  0  0  0
 17 68  1  0  0  0  0
 18 30  1  0  0  0  0
 19 30  1  0  0  0  0
 19 31  2  0  0  0  0
 19 32  1  0  0  0  0
 20 22  2  0  0  0  0
 20 37  1  0  0  0  0
 21 24  2  0  0  0  0
 21 38  1  0  0  0  0
 22 51  1  0  0  0  0
 23 50  1  0  0  0  0
 24 39  1  0  0  0  0
 25 83  1  0  0  0  0
 26 84  1  0  0  0  0
 27 29  2  0  0  0  0
 27 83  1  0  0  0  0
 28 85  1  0  0  0  0
 29 86  1  0  0  0  0
 30 67  2  0  0  0  0
 31 69  1  0  0  0  0
 31 73  1  0  0  0  0
 32 74  1  0  0  0  0
 32 78  2  0  0  0  0
 33 52  1  0  0  0  0
 33 75  1  0  0  0  0
 33 79  2  0  0  0  0
 34 63  1  0  0  0  0
 34 70  1  0  0  0  0
 34 80  2  0  0  0  0
 35 64  1  0  0  0  0
 35 76  1  0  0  0  0
 35 81  2  0  0  0  0
 36 71  1  0  0  0  0
 36 72  1  0  0  0  0
 36 82  2  0  0  0  0
 37 40  1  0  0  0  0
 38 52  1  0  0  0  0
 39 70  1  0  0  0  0
 40 42  1  0  0  0  0
 41 43  1  0  0  0  0
 41 46  1  0  0  0  0
 42 51  1  0  0  0  0
 43 53  1  0  0  0  0
 44 47  1  0  0  0  0
 44 50  1  0  0  0  0
 45 48  1  0  0  0  0
 45 50  1  0  0  0  0
 46 71  1  0  0  0  0
 47 72  1  0  0  0  0
 48 72  1  0  0  0  0
 49 53  1  0  0  0  0
 49 71  1  0  0  0  0
 51 75  1  0  0  0  0
 52 70  1  0  0  0  0
 53 69  1  0  0  0  0
 54 64  1  0  0  0  0
 55 65  1  0  0  0  0
 56 65  1  0  0  0  0
 57 65  1  0  0  0  0
 58 66  1  0  0  0  0
 59 66  1  0  0  0  0
 60 77  1  0  0  0  0
 61 66  1  0  0  0  0
 61 68  1  0  0  0  0
 62 66  1  0  0  0  0
 62 84  1  0  0  0  0
 63 65  1  0  0  0  0
 63 76  1  0  0  0  0
 64 77  1  0  0  0  0
 67 69  1  0  0  0  0
M  CHG  1  77   1
M  ISO  4  36 100  62 101  72 100  84 101
M  END
> <Batch ID>
0148

> <Smiles>
CNC(C)C(=O)NC(C(=O)N1Cc2cc([101O:1][101CH2:1]C(C)(C)Cn3ccc(C4CC[100N:0]([100C:0](=O)N5CCCC(n6nc(-c7ccc(Oc8ccc(F)cc8F)cc7)c(C(N)=O)c6N)C5)CC4)c3)ccc2CC1C(=O)NC1CCCc2ccccc21)C(C)(C)C

> <Shape>
0.238

> <Color>
0.065

> <Negative vol penalty>
0.000

$$$$

  -OEChem-04052303163D

 90 99  0     1  0  0  0  0  0999 V2000
  -31.8302  -24.0834   15.6197 C   0  0  0  0  0  0  0  0  0  0  0  0
  -31.0147  -23.1315   16.2231 C   0  0  0  0  0  0  0  0  0  0  0  0
  -31.1283  -18.5192   25.2053 C   0  0  0  0  0  0  0  0  0  0  0  0
  -24.3470  -12.7387   20.0969 C   0  0  0  0  0  0  0  0  0  0  0  0
  -24.8165  -13.4159   22.3680 C   0  0  0  0  0  0  0  0  0  0  0  0
  -32.1536  -25.2557   16.3016 C   0  0  0  0  0  0  0  0  0  0  0  0
  -30.5229  -23.3509   17.5094 C   0  0  0  0  0  0  0  0  0  0  0  0
  -24.7995  -22.0075   21.6026 C   0  0  0  0  0  0  0  0  0  0  0  0
  -30.3581  -18.8474   26.3209 C   0  0  0  0  0  0  0  0  0  0  0  0
  -30.8644  -19.1198   23.9743 C   0  0  0  0  0  0  0  0  0  0  0  0
  -24.4468  -11.3999   20.4754 C   0  0  0  0  0  0  0  0  0  0  0  0
  -24.9163  -12.0771   22.7466 C   0  0  0  0  0  0  0  0  0  0  0  0
  -24.4662  -21.4699   22.8450 C   0  0  0  0  0  0  0  0  0  0  0  0
  -22.5186   -9.1021   22.0358 C   0  0  0  0  0  0  0  0  0  0  0  0
  -21.5397   -8.2228   21.5729 C   0  0  0  0  0  0  0  0  0  0  0  0
  -25.0264  -23.5676   23.8963 C   0  0  0  0  0  0  0  0  0  0  0  0
  -29.0600  -20.3770   24.9746 C   0  0  0  0  0  0  0  0  0  0  0  0
  -23.2394   -6.9182   20.4567 C   0  0  0  0  0  0  0  0  0  0  0  0
  -24.5319  -13.7467   21.0432 C   0  0  0  0  0  0  0  0  0  0  0  0
  -23.2712  -15.9299   20.6537 C   0  0  0  0  0  0  0  0  0  0  0  0
  -31.6577  -25.4939   17.5931 C   0  0  0  0  0  0  0  0  0  0  0  0
  -25.2600  -23.3280   21.4988 C   0  0  0  0  0  0  0  0  0  0  0  0
  -30.8411  -24.5269   18.2097 C   0  0  0  0  0  0  0  0  0  0  0  0
  -25.3625  -24.1204   22.6511 C   0  0  0  0  0  0  0  0  0  0  0  0
  -29.3239  -19.7764   26.2056 C   0  0  0  0  0  0  0  0  0  0  0  0
  -29.8302  -20.0487   23.8590 C   0  0  0  0  0  0  0  0  0  0  0  0
  -24.7314  -11.0691   21.8003 C   0  0  0  0  0  0  0  0  0  0  0  0
  -24.5824  -22.2490   23.9925 C   0  0  0  0  0  0  0  0  0  0  0  0
  -23.8579   -8.8894   21.7091 C   0  0  0  0  0  0  0  0  0  0  0  0
  -21.9001   -7.1309   20.7834 C   0  0  0  0  0  0  0  0  0  0  0  0
  -24.2183   -7.7975   20.9196 C   0  0  0  0  0  0  0  0  0  0  0  0
  -24.4295  -15.1298   20.6526 C   0  0  0  0  0  0  0  0  0  0  0  0
  -23.6991  -17.1541   20.2011 C   0  0  0  0  0  0  0  0  0  0  0  0
  -26.0649  -20.7730   27.2143 C   0  0  0  0  0  0  0  0  0  0  0  0
  -21.9285  -15.5964   21.0302 C   0  0  0  0  0  0  0  0  0  0  0  0
  -23.6091  -20.4318   27.6950 C   0  0  0  0  0  0  0  0  0  0  0  0
  -27.9559  -24.6925   20.5122 C   0  0  0  0  0  0  0  0  0  0  0  0
  -26.2797  -27.4315   20.9707 C   0  0  0  0  0  0  0  0  0  0  0  0
  -23.7121  -29.0260   22.5557 C   0  0  0  0  0  0  0  0  0  0  0  0
  -29.0268  -19.8860   20.2533 C   0  0  0  0  0  0  0  0  0  0  0  0
  -32.0732  -26.7546   18.3091 C   0  0  0  0  0  0  0  0  0  0  0  0
  -25.5900  -23.9015   20.1481 C   0  0  0  0  0  0  0  0  0  0  0  0
  -25.8324  -25.5501   22.5911 C   0  0  0  0  0  0  0  0  0  0  0  0
  -31.2059  -27.0799   19.5225 C   0  0  0  0  0  0  0  0  0  0  0  0
  -27.0213  -19.1594   17.4025 C   0  0  0  0  0  0  0  0  0  0  0  0
  -30.9987  -25.8353   20.3797 C   0  0  0  0  0  0  0  0  0  0  0  0
  -26.0252  -18.1165   17.9123 C   0  0  0  0  0  0  0  0  0  0  0  0
  -25.1474  -18.5673   27.0795 C   0  0  0  0  0  0  0  0  0  0  0  0
  -28.3997  -18.9796   18.0348 C   0  0  0  0  0  0  0  0  0  0  0  0
  -26.6483  -18.5065   26.8646 C   0  0  0  0  0  0  0  0  0  0  0  0
  -27.4091  -17.9049   20.0191 C   0  0  0  0  0  0  0  0  0  0  0  0
  -30.2680  -24.7397   19.5941 C   0  0  1  0  0  0  0  0  0  0  0  0
  -26.5378  -25.0947   20.2209 C   0  0  1  0  0  0  0  0  0  0  0  0
  -25.9900  -18.0802   19.4520 C   0  0  2  0  0  0  0  0  0  0  0  0
  -24.7813  -20.0423   26.8440 C   0  0  2  0  0  0  0  0  0  0  0  0
  -21.4207  -19.5599   28.6071 C   0  0  0  0  0  0  0  0  0  0  0  0
  -22.6129  -31.2730   22.7561 C   0  0  0  0  0  0  0  0  0  0  0  0
  -28.5794  -28.3971   22.7282 C   0  0  0  0  0  0  0  0  0  0  0  0
  -27.0523  -30.1607   23.6370 C   0  0  0  0  0  0  0  0  0  0  0  0
  -27.6247  -30.1394   21.2092 C   0  0  0  0  0  0  0  0  0  0  0  0
  -21.1347  -27.9848   21.5400 C   0  0  0  0  0  0  0  0  0  0  0  0
  -28.4963  -20.1303   27.4073 C   0  0  0  0  0  0  0  0  0  0  0  0
  -29.5477  -20.6905   22.5425 C   0  0  0  0  0  0  0  0  0  0  0  0
  -22.2954  -19.7406   27.3798 C   0  0  0  0  0  0  0  0  0  0  0  0
  -24.4448  -20.3224   25.3800 C   0  0  0  0  0  0  0  0  0  1  0  0
  -26.0676  -28.3736   22.1311 C   0  0  1  0  0  0  0  0  0  0  0  0
  -22.6150  -29.9354   22.0325 C   0  0  2  0  0  0  0  0  0  0  0  0
  -27.3240  -29.2402   22.4281 C   0  0  0  0  0  0  0  0  0  0  0  0
  -25.5119  -15.7901   20.2325 N   0  0  0  0  0  0  0  0  0  0  0  0
  -25.0355  -17.0180   19.9653 N   0  0  0  0  0  0  0  0  0  0  0  0
  -27.0942  -19.8350   27.2052 N   0  0  0  0  0  0  0  0  0  0  0  0
  -26.1492  -26.0634   21.2480 N   0  0  0  0  0  0  0  0  0  0  0  0
  -28.2967  -18.9553   19.4959 N   0  0  0  0  0  0  0  0  0  0  0  0
  -23.0587  -18.3229   19.9857 N   0  0  0  0  0  0  0  0  0  0  0  0
  -21.6628  -14.2935   21.4729 N   0  0  0  0  0  0  0  0  0  0  0  0
  -28.8526  -25.0316   19.5170 N   0  0  0  0  0  0  0  0  0  0  0  0
  -24.8701  -29.1454   21.8168 N   0  0  0  0  0  0  0  0  0  0  0  0
  -28.8673  -19.7980   21.6308 N   0  0  0  0  0  0  0  0  0  0  0  0
  -21.2809  -29.2980   22.2191 N   0  3  0  0  0  0  0  0  0  0  0  0
  -26.1502  -21.9720   27.4404 O   0  0  0  0  0  0  0  0  0  0  0  0
  -20.9890  -16.4246   20.9602 O   0  0  0  0  0  0  0  0  0  0  0  0
  -23.7261  -21.2655   28.5919 O   0  0  0  0  0  0  0  0  0  0  0  0
  -28.2175  -24.1184   21.5628 O   0  0  0  0  0  0  0  0  0  0  0  0
  -26.5440  -27.8929   19.8577 O   0  0  0  0  0  0  0  0  0  0  0  0
  -23.5585  -28.2867   23.5254 O   0  0  0  0  0  0  0  0  0  0  0  0
  -29.7620  -20.7361   19.7397 O   0  0  0  0  0  0  0  0  0  0  0  0
  -24.8287   -9.7628   22.1701 O   0  0  0  0  0  0  0  0  0  0  0  0
  -24.2583  -21.7265   25.2065 O   0  0  0  0  0  0  0  0  0  1  0  0
  -20.9601   -6.2857   20.3403 F   0  0  0  0  0  0  0  0  0  0  0  0
  -25.5035   -7.5873   20.6034 F   0  0  0  0  0  0  0  0  0  0  0  0
  1  2  1  0  0  0  0
  1  6  2  0  0  0  0
  2  7  2  0  0  0  0
  3  9  2  0  0  0  0
  3 10  1  0  0  0  0
  4 11  2  0  0  0  0
  4 19  1  0  0  0  0
  5 12  1  0  0  0  0
  5 19  2  0  0  0  0
  6 21  1  0  0  0  0
  7 23  1  0  0  0  0
  8 13  2  0  0  0  0
  8 22  1  0  0  0  0
  9 25  1  0  0  0  0
 10 26  2  0  0  0  0
 11 27  1  0  0  0  0
 12 27  2  0  0  0  0
 13 28  1  0  0  0  0
 14 15  2  0  0  0  0
 14 29  1  0  0  0  0
 15 30  1  0  0  0  0
 16 24  1  0  0  0  0
 16 28  2  0  0  0  0
 17 25  2  0  0  0  0
 17 26  1  0  0  0  0
 18 30  2  0  0  0  0
 18 31  1  0  0  0  0
 19 32  1  0  0  0  0
 20 32  1  0  0  0  0
 20 33  2  0  0  0  0
 20 35  1  0  0  0  0
 21 23  2  0  0  0  0
 21 41  1  0  0  0  0
 22 24  2  0  0  0  0
 22 42  1  0  0  0  0
 23 52  1  0  0  0  0
 24 43  1  0  0  0  0
 25 62  1  0  0  0  0
 26 63  1  0  0  0  0
 27 87  1  0  0  0  0
 28 88  1  0  0  0  0
 29 31  2  0  0  0  0
 29 87  1  0  0  0  0
 30 89  1  0  0  0  0
 31 90  1  0  0  0  0
 32 69  2  0  0  0  0
 33 70  1  0  0  0  0
 33 74  1  0  0  0  0
 34 55  1  0  0  0  0
 34 71  1  0  0  0  0
 34 80  2  0  0  0  0
 35 75  1  0  0  0  0
 35 81  2  0  0  0  0
 36 55  1  0  0  0  0
 36 64  1  0  0  0  0
 36 82  2  0  0  0  0
 37 53  1  0  0  0  0
 37 76  1  0  0  0  0
 37 83  2  0  0  0  0
 38 66  1  0  0  0  0
 38 72  1  0  0  0  0
 38 84  2  0  0  0  0
 39 67  1  0  0  0  0
 39 77  1  0  0  0  0
 39 85  2  0  0  0  0
 40 73  1  0  0  0  0
 40 78  1  0  0  0  0
 40 86  2  0  0  0  0
 41 44  1  0  0  0  0
 42 53  1  0  0  0  0
 43 72  1  0  0  0  0
 44 46  1  0  0  0  0
 45 47  1  0  0  0  0
 45 49  1  0  0  0  0
 46 52  1  0  0  0  0
 47 54  1  0  0  0  0
 48 50  1  0  0  0  0
 48 55  1  0  0  0  0
 49 73  1  0  0  0  0
 50 71  1  0  0  0  0
 51 54  1  0  0  0  0
 51 73  1  0  0  0  0
 52 76  1  0  0  0  0
 53 72  1  0  0  0  0
 54 70  1  0  0  0  0
 55 65  1  0  0  0  0
 56 64  1  0  0  0  0
 57 67  1  0  0  0  0
 58 68  1  0  0  0  0
 59 68  1  0  0  0  0
 60 68  1  0  0  0  0
 61 79  1  0  0  0  0
 62 71  1  0  0  0  0
 63 78  1  0  0  0  0
 65 88  1  0  0  0  0
 66 68  1  0  0  0  0
 66 77  1  0  0  0  0
 67 79  1  0  0  0  0
 69 70  1  0  0  0  0
M  CHG  1  79   1
M  ISO  4  40 100  65 101  78 100  88 101
M  END
> <Batch ID>
0148

> <Smiles>
CCC(=O)C1([101CH2:1][101O:1]c2ccc3c(c2)CN(C(=O)C(NC(=O)C(C)NC)C(C)(C)C)C(C(=O)NC2CCCc4ccccc42)C3)CCN(Cc2cccc(C[100NH:0][100C:0](=O)N3CCCC(n4nc(-c5ccc(Oc6ccc(F)cc6F)cc5)c(C(N)=O)c4N)C3)c2)C1=O

> <Shape>
0.200

> <Color>
0.068

> <Negative vol penalty>
0.000

$$$$

  -OEChem-04052303163D

 86 95  0     1  0  0  0  0  0999 V2000
  -28.1762  -19.3713   17.8725 C   0  0  0  0  0  0  0  0  0  0  0  0
  -27.5583  -19.6395   19.0898 C   0  0  0  0  0  0  0  0  0  0  0  0
  -31.0201  -19.4582   23.3851 C   0  0  0  0  0  0  0  0  0  0  0  0
  -23.9632   -9.4793   19.7471 C   0  0  0  0  0  0  0  0  0  0  0  0
  -24.8822   -9.5586   21.9800 C   0  0  0  0  0  0  0  0  0  0  0  0
  -28.9741  -20.3419   17.2683 C   0  0  0  0  0  0  0  0  0  0  0  0
  -27.7389  -20.8783   19.7041 C   0  0  0  0  0  0  0  0  0  0  0  0
  -23.4102  -22.8159   21.4795 C   0  0  0  0  0  0  0  0  0  0  0  0
  -30.6319  -18.5016   22.4436 C   0  0  0  0  0  0  0  0  0  0  0  0
  -30.1001  -20.0057   24.2843 C   0  0  0  0  0  0  0  0  0  0  0  0
  -23.6362   -8.1356   19.9293 C   0  0  0  0  0  0  0  0  0  0  0  0
  -24.5552   -8.2149   22.1623 C   0  0  0  0  0  0  0  0  0  0  0  0
  -22.9265  -22.2990   22.6806 C   0  0  0  0  0  0  0  0  0  0  0  0
  -23.6367   -4.9025   23.3467 C   0  0  0  0  0  0  0  0  0  0  0  0
  -23.0367   -4.5381   24.5520 C   0  0  0  0  0  0  0  0  0  0  0  0
  -26.9744  -18.4182   23.5045 C   0  0  0  0  0  0  0  0  0  0  0  0
  -23.8295  -24.2019   23.8563 C   0  0  0  0  0  0  0  0  0  0  0  0
  -21.1961   -6.0326   24.0876 C   0  0  0  0  0  0  0  0  0  0  0  0
  -28.3624  -18.5949   23.2634 C   0  0  0  0  0  0  0  0  0  0  0  0
  -24.5862  -10.1908   20.7724 C   0  0  0  0  0  0  0  0  0  0  0  0
  -24.1206  -12.6968   20.8760 C   0  0  0  0  0  0  0  0  0  0  0  0
  -29.1568  -21.5966   17.8707 C   0  0  0  0  0  0  0  0  0  0  0  0
  -24.1178  -24.0264   21.4593 C   0  0  0  0  0  0  0  0  0  0  0  0
  -28.5412  -21.8661   19.1080 C   0  0  0  0  0  0  0  0  0  0  0  0
  -24.3189  -24.7334   22.6534 C   0  0  0  0  0  0  0  0  0  0  0  0
  -29.3046  -18.0577   22.3689 C   0  0  0  0  0  0  0  0  0  0  0  0
  -28.7884  -19.5451   24.1858 C   0  0  0  0  0  0  0  0  0  0  0  0
  -23.9322   -7.5034   21.1370 C   0  0  0  0  0  0  0  0  0  0  0  0
  -23.1387  -22.9905   23.8696 C   0  0  0  0  0  0  0  0  0  0  0  0
  -23.0164   -5.8321   22.5119 C   0  0  0  0  0  0  0  0  0  0  0  0
  -21.8163   -5.1031   24.9225 C   0  0  0  0  0  0  0  0  0  0  0  0
  -21.7961   -6.3971   22.8824 C   0  0  0  0  0  0  0  0  0  0  0  0
  -24.9248  -11.5786   20.5845 C   0  0  0  0  0  0  0  0  0  0  0  0
  -24.8920  -13.7764   20.5211 C   0  0  0  0  0  0  0  0  0  0  0  0
  -26.6508  -19.2605   24.5429 C   0  0  0  0  0  0  0  0  0  0  0  0
  -22.7950  -12.7544   21.4191 C   0  0  0  0  0  0  0  0  0  0  0  0
  -27.0649  -24.8884   20.6375 C   0  0  0  0  0  0  0  0  0  0  0  0
  -25.9227  -27.8761   21.1771 C   0  0  0  0  0  0  0  0  0  0  0  0
  -25.1865  -20.3849   26.2557 C   0  0  0  0  0  0  0  0  0  0  0  0
  -23.6392  -29.8643   22.7517 C   0  0  0  0  0  0  0  0  0  0  0  0
  -29.7624  -16.4744   20.4636 C   0  0  0  0  0  0  0  0  0  0  0  0
  -30.0666  -22.5970   17.2028 C   0  0  0  0  0  0  0  0  0  0  0  0
  -24.6098  -24.5840   20.1518 C   0  0  0  0  0  0  0  0  0  0  0  0
  -25.0548  -26.0472   22.6828 C   0  0  0  0  0  0  0  0  0  0  0  0
  -29.9044  -24.0184   17.7354 C   0  0  0  0  0  0  0  0  0  0  0  0
  -29.2433  -14.0112   17.9456 C   0  0  0  0  0  0  0  0  0  0  0  0
  -29.8806  -24.0175   19.2606 C   0  0  0  0  0  0  0  0  0  0  0  0
  -28.0074  -13.2507   18.4317 C   0  0  0  0  0  0  0  0  0  0  0  0
  -30.1451  -14.4286   19.1060 C   0  0  0  0  0  0  0  0  0  0  0  0
  -28.2367  -14.4134   20.6639 C   0  0  0  0  0  0  0  0  0  0  0  0
  -28.6929  -23.2068   19.7933 C   0  0  1  0  0  0  0  0  0  0  0  0
  -25.7635  -25.5682   20.3183 C   0  0  1  0  0  0  0  0  0  0  0  0
  -27.2653  -14.0286   19.5361 C   0  0  2  0  0  0  0  0  0  0  0  0
  -22.9805  -32.2699   23.0284 C   0  0  0  0  0  0  0  0  0  0  0  0
  -28.2852  -28.3039   23.0601 C   0  0  0  0  0  0  0  0  0  0  0  0
  -27.0838  -30.2871   24.0044 C   0  0  0  0  0  0  0  0  0  0  0  0
  -27.7473  -30.2616   21.5999 C   0  0  0  0  0  0  0  0  0  0  0  0
  -20.9575  -29.3836   21.5956 C   0  0  0  0  0  0  0  0  0  0  0  0
  -23.7220  -20.3403   26.6694 C   0  0  0  0  0  0  0  0  0  0  0  0
  -23.2288  -21.6704   27.2285 C   0  0  0  0  0  0  0  0  0  0  0  0
  -23.4037  -22.8014   26.2255 C   0  0  0  0  0  0  0  0  0  1  0  0
  -25.8436  -28.7900   22.3760 C   0  0  1  0  0  0  0  0  0  0  0  0
  -22.7594  -30.9897   22.2380 C   0  0  2  0  0  0  0  0  0  0  0  0
  -27.2278  -29.3850   22.7601 C   0  0  0  0  0  0  0  0  0  0  0  0
  -26.1156  -11.9166   20.0829 N   0  0  0  0  0  0  0  0  0  0  0  0
  -26.0655  -13.2593   20.0564 N   0  0  0  0  0  0  0  0  0  0  0  0
  -25.5220  -26.5479   21.3795 N   0  0  0  0  0  0  0  0  0  0  0  0
  -29.3748  -15.1644   20.1110 N   0  0  0  0  0  0  0  0  0  0  0  0
  -24.6743  -15.1079   20.5642 N   0  0  0  0  0  0  0  0  0  0  0  0
  -22.1465  -11.5509   21.7279 N   0  0  0  0  0  0  0  0  0  0  0  0
  -28.9358  -17.0865   21.4052 N   0  0  0  0  0  0  0  0  0  0  0  0
  -25.4233  -19.5052   25.2032 N   0  0  0  0  0  0  0  0  0  0  0  0
  -27.4694  -23.9722   19.6854 N   0  0  0  0  0  0  0  0  0  0  0  0
  -24.8299  -29.7907   22.0603 N   0  0  0  0  0  0  0  0  0  0  0  0
  -21.3214  -30.6133   22.3455 N   0  3  0  0  0  0  0  0  0  0  0  0
  -22.1967  -13.8405   21.6091 O   0  0  0  0  0  0  0  0  0  0  0  0
  -27.6588  -25.1750   21.6703 O   0  0  0  0  0  0  0  0  0  0  0  0
  -26.3186  -28.3260   20.0989 O   0  0  0  0  0  0  0  0  0  0  0  0
  -25.9984  -21.1165   26.8125 O   0  0  0  0  0  0  0  0  0  0  0  0
  -23.3053  -29.1269   23.6765 O   0  0  0  0  0  0  0  0  0  0  0  0
  -30.7388  -17.0236   19.9468 O   0  0  0  0  0  0  0  0  0  0  0  0
  -27.7443  -19.9484   24.9634 O   0  0  0  0  0  0  0  0  0  0  0  0
  -23.6130   -6.1923   21.3153 O   0  0  0  0  0  0  0  0  0  0  0  0
  -22.6682  -22.4878   25.0435 O   0  0  0  0  0  0  0  0  0  1  0  0
  -21.2395   -4.7519   26.0792 F   0  0  0  0  0  0  0  0  0  0  0  0
  -21.1949   -7.2898   22.0839 F   0  0  0  0  0  0  0  0  0  0  0  0
  1  2  1  0  0  0  0
  1  6  2  0  0  0  0
  2  7  2  0  0  0  0
  3  9  1  0  0  0  0
  3 10  2  0  0  0  0
  4 11  2  0  0  0  0
  4 20  1  0  0  0  0
  5 12  1  0  0  0  0
  5 20  2  0  0  0  0
  6 22  1  0  0  0  0
  7 24  1  0  0  0  0
  8 13  2  0  0  0  0
  8 23  1  0  0  0  0
  9 26  2  0  0  0  0
 10 27  1  0  0  0  0
 11 28  1  0  0  0  0
 12 28  2  0  0  0  0
 13 29  1  0  0  0  0
 14 15  2  0  0  0  0
 14 30  1  0  0  0  0
 15 31  1  0  0  0  0
 16 19  1  0  0  0  0
 16 35  2  0  0  0  0
 17 25  1  0  0  0  0
 17 29  2  0  0  0  0
 18 31  2  0  0  0  0
 18 32  1  0  0  0  0
 19 26  1  0  0  0  0
 19 27  2  0  0  0  0
 20 33  1  0  0  0  0
 21 33  1  0  0  0  0
 21 34  2  0  0  0  0
 21 36  1  0  0  0  0
 22 24  2  0  0  0  0
 22 42  1  0  0  0  0
 23 25  2  0  0  0  0
 23 43  1  0  0  0  0
 24 51  1  0  0  0  0
 25 44  1  0  0  0  0
 26 71  1  0  0  0  0
 27 82  1  0  0  0  0
 28 83  1  0  0  0  0
 29 84  1  0  0  0  0
 30 32  2  0  0  0  0
 30 83  1  0  0  0  0
 31 85  1  0  0  0  0
 32 86  1  0  0  0  0
 33 65  2  0  0  0  0
 34 66  1  0  0  0  0
 34 69  1  0  0  0  0
 35 72  1  0  0  0  0
 35 82  1  0  0  0  0
 36 70  1  0  0  0  0
 36 76  2  0  0  0  0
 37 52  1  0  0  0  0
 37 73  1  0  0  0  0
 37 77  2  0  0  0  0
 38 62  1  0  0  0  0
 38 67  1  0  0  0  0
 38 78  2  0  0  0  0
 39 59  1  0  0  0  0
 39 72  1  0  0  0  0
 39 79  2  0  0  0  0
 40 63  1  0  0  0  0
 40 74  1  0  0  0  0
 40 80  2  0  0  0  0
 41 68  1  0  0  0  0
 41 71  1  0  0  0  0
 41 81  2  0  0  0  0
 42 45  1  0  0  0  0
 43 52  1  0  0  0  0
 44 67  1  0  0  0  0
 45 47  1  0  0  0  0
 46 48  1  0  0  0  0
 46 49  1  0  0  0  0
 47 51  1  0  0  0  0
 48 53  1  0  0  0  0
 49 68  1  0  0  0  0
 50 53  1  0  0  0  0
 50 68  1  0  0  0  0
 51 73  1  0  0  0  0
 52 67  1  0  0  0  0
 53 66  1  0  0  0  0
 54 63  1  0  0  0  0
 55 64  1  0  0  0  0
 56 64  1  0  0  0  0
 57 64  1  0  0  0  0
 58 75  1  0  0  0  0
 59 60  1  0  0  0  0
 60 61  1  0  0  0  0
 61 84  1  0  0  0  0
 62 64  1  0  0  0  0
 62 74  1  0  0  0  0
 63 75  1  0  0  0  0
 65 66  1  0  0  0  0
M  CHG  1  75   1
M  ISO  4  41 100  61 101  71 100  84 101
M  END
> <Batch ID>
0148

> <Smiles>
CNC(C)C(=O)NC(C(=O)N1Cc2cc([101O:1][101CH2:1]CCC(=O)Nc3cc4c([100NH:0][100C:0](=O)N5CCCC(n6nc(-c7ccc(Oc8ccc(F)cc8F)cc7)c(C(N)=O)c6N)C5)cccc4o3)ccc2CC1C(=O)NC1CCCc2ccccc21)C(C)(C)C

> <Shape>
0.263

> <Color>
0.107

> <Negative vol penalty>
0.000

$$$$

  -OEChem-04052303163D

 86 95  0     1  0  0  0  0  0999 V2000
  -31.7237  -12.7722   21.5092 C   0  0  0  0  0  0  0  0  0  0  0  0
  -31.1378  -13.9028   22.0694 C   0  0  0  0  0  0  0  0  0  0  0  0
  -22.6373  -30.6442   20.5627 C   0  0  0  0  0  0  0  0  0  0  0  0
  -22.5401  -28.8674   22.1970 C   0  0  0  0  0  0  0  0  0  0  0  0
  -31.1026  -12.1219   20.4437 C   0  0  0  0  0  0  0  0  0  0  0  0
  -29.9309  -14.3845   21.5635 C   0  0  0  0  0  0  0  0  0  0  0  0
  -26.6438  -15.6082   25.2163 C   0  0  0  0  0  0  0  0  0  0  0  0
  -21.2509  -30.5886   20.4198 C   0  0  0  0  0  0  0  0  0  0  0  0
  -21.1536  -28.8119   22.0541 C   0  0  0  0  0  0  0  0  0  0  0  0
  -26.8445  -16.8215   25.8731 C   0  0  0  0  0  0  0  0  0  0  0  0
  -18.4682  -30.5571   23.1328 C   0  0  0  0  0  0  0  0  0  0  0  0
  -17.7010  -30.4807   24.2952 C   0  0  0  0  0  0  0  0  0  0  0  0
  -28.8719  -20.8457   22.0875 C   0  0  0  0  0  0  0  0  0  0  0  0
  -28.2948  -23.1332   22.6081 C   0  0  0  0  0  0  0  0  0  0  0  0
  -25.1359  -17.8372   24.5062 C   0  0  0  0  0  0  0  0  0  0  0  0
  -29.4750  -22.6205   20.5632 C   0  0  0  0  0  0  0  0  0  0  0  0
  -16.7839  -28.3729   23.5514 C   0  0  0  0  0  0  0  0  0  0  0  0
  -23.2819  -29.7835   21.4513 C   0  0  0  0  0  0  0  0  0  0  0  0
  -28.2862  -21.7791   22.9427 C   0  0  0  0  0  0  0  0  0  0  0  0
  -25.4447  -30.6326   22.5043 C   0  0  0  0  0  0  0  0  0  0  0  0
  -29.8826  -12.5902   19.9309 C   0  0  0  0  0  0  0  0  0  0  0  0
  -25.6937  -15.5029   24.1903 C   0  0  0  0  0  0  0  0  0  0  0  0
  -29.2936  -13.7407   20.4893 C   0  0  0  0  0  0  0  0  0  0  0  0
  -24.9234  -16.6208   23.8396 C   0  0  0  0  0  0  0  0  0  0  0  0
  -29.4663  -21.2663   20.8978 C   0  0  0  0  0  0  0  0  0  0  0  0
  -28.8892  -23.5539   21.4184 C   0  0  0  0  0  0  0  0  0  0  0  0
  -20.5091  -29.6725   21.1655 C   0  0  0  0  0  0  0  0  0  0  0  0
  -26.0925  -17.9369   25.5161 C   0  0  0  0  0  0  0  0  0  0  0  0
  -18.3933  -29.5414   22.1797 C   0  0  0  0  0  0  0  0  0  0  0  0
  -16.8589  -29.3887   24.5045 C   0  0  0  0  0  0  0  0  0  0  0  0
  -17.5511  -28.4493   22.3890 C   0  0  0  0  0  0  0  0  0  0  0  0
  -24.7141  -29.8400   21.5989 C   0  0  0  0  0  0  0  0  0  0  0  0
  -26.7584  -30.3240   22.2482 C   0  0  0  0  0  0  0  0  0  0  0  0
  -27.6582  -21.3347   24.1998 C   0  0  0  0  0  0  0  0  0  0  0  0
  -24.9777  -31.5644   23.4889 C   0  0  0  0  0  0  0  0  0  0  0  0
  -25.8072  -14.8064   21.0910 C   0  0  0  0  0  0  0  0  0  0  0  0
  -22.5753  -14.9195   21.3454 C   0  0  0  0  0  0  0  0  0  0  0  0
  -19.8400  -16.0879   23.0187 C   0  0  0  0  0  0  0  0  0  0  0  0
  -29.4458  -25.5137   19.9366 C   0  0  0  0  0  0  0  0  0  0  0  0
  -29.2728  -11.8816   18.7473 C   0  0  0  0  0  0  0  0  0  0  0  0
  -25.4706  -14.1802   23.5098 C   0  0  0  0  0  0  0  0  0  0  0  0
  -23.8766  -16.5550   22.7587 C   0  0  0  0  0  0  0  0  0  0  0  0
  -27.8066  -12.2367   18.5140 C   0  0  0  0  0  0  0  0  0  0  0  0
  -29.6398  -28.8533   18.7172 C   0  0  0  0  0  0  0  0  0  0  0  0
  -30.2426  -21.1692   26.7307 C   0  0  0  0  0  0  0  0  0  0  0  0
  -27.6036  -13.7463   18.5947 C   0  0  0  0  0  0  0  0  0  0  0  0
  -28.4688  -29.5589   19.4049 C   0  0  0  0  0  0  0  0  0  0  0  0
  -28.9755  -21.3227   27.5656 C   0  0  0  0  0  0  0  0  0  0  0  0
  -29.8161  -21.6197   25.3393 C   0  0  0  0  0  0  0  0  0  0  0  0
  -29.2931  -27.4135   18.3421 C   0  0  0  0  0  0  0  0  0  0  0  0
  -27.6038  -27.2982   20.1315 C   0  0  0  0  0  0  0  0  0  0  0  0
  -27.9725  -14.2791   19.9845 C   0  0  1  0  0  0  0  0  0  0  0  0
  -24.8367  -14.3181   22.1290 C   0  0  1  0  0  0  0  0  0  0  0  0
  -27.9272  -28.7307   20.5865 C   0  0  2  0  0  0  0  0  0  0  0  0
  -27.8508  -20.8833   26.6233 C   0  0  2  0  0  0  0  0  0  0  0  0
  -17.3315  -16.0418   22.9680 C   0  0  0  0  0  0  0  0  0  0  0  0
  -22.5880  -16.9095   19.0325 C   0  0  0  0  0  0  0  0  0  0  0  0
  -20.2426  -17.5331   19.6478 C   0  0  0  0  0  0  0  0  0  0  0  0
  -20.7638  -15.2018   18.9294 C   0  0  0  0  0  0  0  0  0  0  0  0
  -19.6942  -14.8008   25.6797 C   0  0  0  0  0  0  0  0  0  0  0  0
  -27.5975  -19.3835   26.6557 C   0  0  0  0  0  0  0  0  0  1  0  0
  -21.5289  -15.9983   21.2037 C   0  0  1  0  0  0  0  0  0  0  0  0
  -18.5893  -15.3872   23.5178 C   0  0  2  0  0  0  0  0  0  0  0  0
  -21.3018  -16.4128   19.7225 C   0  0  0  0  0  0  0  0  0  0  0  0
  -25.4984  -29.0848   20.8253 N   0  0  0  0  0  0  0  0  0  0  0  0
  -26.7356  -29.4015   21.2439 N   0  0  0  0  0  0  0  0  0  0  0  0
  -28.3861  -21.2678   25.3010 N   0  0  0  0  0  0  0  0  0  0  0  0
  -23.7000  -15.2411   22.1185 N   0  0  0  0  0  0  0  0  0  0  0  0
  -28.7909  -26.6889   19.5115 N   0  0  0  0  0  0  0  0  0  0  0  0
  -30.0590  -20.3226   20.0334 N   0  0  0  0  0  0  0  0  0  0  0  0
  -27.9192  -30.7545   22.7864 N   0  0  0  0  0  0  0  0  0  0  0  0
  -23.5963  -31.7616   23.6200 N   0  0  0  0  0  0  0  0  0  0  0  0
  -28.8985  -24.9294   21.0783 N   0  0  0  0  0  0  0  0  0  0  0  0
  -26.9151  -13.9962   20.9313 N   0  0  0  0  0  0  0  0  0  0  0  0
  -20.3336  -15.4982   21.8742 N   0  0  0  0  0  0  0  0  0  0  0  0
  -26.3687  -21.0099   24.2068 N   0  3  0  0  0  0  0  0  0  0  0  0
  -18.5298  -15.4313   25.0062 N   0  3  0  0  0  0  0  0  0  0  0  0
  -25.7629  -32.2153   24.2192 O   0  0  0  0  0  0  0  0  0  0  0  0
  -25.5677  -15.8408   20.4791 O   0  0  0  0  0  0  0  0  0  0  0  0
  -22.3980  -13.8291   20.7966 O   0  0  0  0  0  0  0  0  0  0  0  0
  -20.3281  -17.0633   23.5852 O   0  0  0  0  0  0  0  0  0  0  0  0
  -30.4370  -25.0741   19.3481 O   0  0  0  0  0  0  0  0  0  0  0  0
  -19.1562  -29.6182   21.0265 O   0  0  0  0  0  0  0  0  0  0  0  0
  -26.2868  -19.1226   26.1552 O   0  0  0  0  0  0  0  0  0  1  0  0
  -16.1233  -29.3147   25.6215 F   0  0  0  0  0  0  0  0  0  0  0  0
  -17.4758  -27.4698   21.4775 F   0  0  0  0  0  0  0  0  0  0  0  0
  1  2  1  0  0  0  0
  1  5  2  0  0  0  0
  2  6  2  0  0  0  0
  3  8  2  0  0  0  0
  3 18  1  0  0  0  0
  4  9  1  0  0  0  0
  4 18  2  0  0  0  0
  5 21  1  0  0  0  0
  6 23  1  0  0  0  0
  7 10  2  0  0  0  0
  7 22  1  0  0  0  0
  8 27  1  0  0  0  0
  9 27  2  0  0  0  0
 10 28  1  0  0  0  0
 11 12  2  0  0  0  0
 11 29  1  0  0  0  0
 12 30  1  0  0  0  0
 13 19  1  0  0  0  0
 13 25  2  0  0  0  0
 14 19  2  0  0  0  0
 14 26  1  0  0  0  0
 15 24  1  0  0  0  0
 15 28  2  0  0  0  0
 16 25  1  0  0  0  0
 16 26  2  0  0  0  0
 17 30  2  0  0  0  0
 17 31  1  0  0  0  0
 18 32  1  0  0  0  0
 19 34  1  0  0  0  0
 20 32  1  0  0  0  0
 20 33  2  0  0  0  0
 20 35  1  0  0  0  0
 21 23  2  0  0  0  0
 21 40  1  0  0  0  0
 22 24  2  0  0  0  0
 22 41  1  0  0  0  0
 23 52  1  0  0  0  0
 24 42  1  0  0  0  0
 25 70  1  0  0  0  0
 26 73  1  0  0  0  0
 27 83  1  0  0  0  0
 28 84  1  0  0  0  0
 29 31  2  0  0  0  0
 29 83  1  0  0  0  0
 30 85  1  0  0  0  0
 31 86  1  0  0  0  0
 32 65  2  0  0  0  0
 33 66  1  0  0  0  0
 33 71  1  0  0  0  0
 34 67  1  0  0  0  0
 34 76  2  0  0  0  0
 35 72  1  0  0  0  0
 35 78  2  0  0  0  0
 36 53  1  0  0  0  0
 36 74  1  0  0  0  0
 36 79  2  0  0  0  0
 37 62  1  0  0  0  0
 37 68  1  0  0  0  0
 37 80  2  0  0  0  0
 38 63  1  0  0  0  0
 38 75  1  0  0  0  0
 38 81  2  0  0  0  0
 39 69  1  0  0  0  0
 39 73  1  0  0  0  0
 39 82  2  0  0  0  0
 40 43  1  0  0  0  0
 41 53  1  0  0  0  0
 42 68  1  0  0  0  0
 43 46  1  0  0  0  0
 44 47  1  0  0  0  0
 44 50  1  0  0  0  0
 45 48  1  0  0  0  0
 45 49  1  0  0  0  0
 46 52  1  0  0  0  0
 47 54  1  0  0  0  0
 48 55  1  0  0  0  0
 49 67  1  0  0  0  0
 50 69  1  0  0  0  0
 51 54  1  0  0  0  0
 51 69  1  0  0  0  0
 52 74  1  0  0  0  0
 53 68  1  0  0  0  0
 54 66  1  0  0  0  0
 55 61  1  0  0  0  0
 55 67  1  0  0  0  0
 56 63  1  0  0  0  0
 57 64  1  0  0  0  0
 58 64  1  0  0  0  0
 59 64  1  0  0  0  0
 60 77  1  0  0  0  0
 61 84  1  0  0  0  0
 62 64  1  0  0  0  0
 62 75  1  0  0  0  0
 63 77  1  0  0  0  0
 65 66  1  0  0  0  0
M  CHG  2  76   1  77   1
M  ISO  4  39 100  61 101  73 100  84 101
M  END
> <Batch ID>
0148

> <Smiles>
CNC(C)C(=O)NC(C(=O)N1Cc2cc([101O:1][101CH2:1]C3CCCN3C(=N)c3cc(N)cc([100NH:0][100C:0](=O)N4CCCC(n5nc(-c6ccc(Oc7ccc(F)cc7F)cc6)c(C(N)=O)c5N)C4)c3)ccc2CC1C(=O)NC1CCCc2ccccc21)C(C)(C)C

> <Shape>
0.250

> <Color>
0.083

> <Negative vol penalty>
0.000

$$$$

  -OEChem-04052303163D

 87 96  0     1  0  0  0  0  0999 V2000
  -17.3058  -27.6832   26.9213 C   0  0  0  0  0  0  0  0  0  0  0  0
  -18.6835  -27.6176   26.7397 C   0  0  0  0  0  0  0  0  0  0  0  0
  -24.5721   -8.7416   19.9217 C   0  0  0  0  0  0  0  0  0  0  0  0
  -24.4104   -9.4157   22.2361 C   0  0  0  0  0  0  0  0  0  0  0  0
  -16.5207  -28.4163   26.0324 C   0  0  0  0  0  0  0  0  0  0  0  0
  -19.2769  -28.2843   25.6683 C   0  0  0  0  0  0  0  0  0  0  0  0
  -23.4618  -30.7950   27.0199 C   0  0  0  0  0  0  0  0  0  0  0  0
  -24.2015   -7.4438   20.2738 C   0  0  0  0  0  0  0  0  0  0  0  0
  -24.0397   -8.1179   22.5882 C   0  0  0  0  0  0  0  0  0  0  0  0
  -24.6261  -30.0471   27.1900 C   0  0  0  0  0  0  0  0  0  0  0  0
  -22.7006   -5.0690   24.0472 C   0  0  0  0  0  0  0  0  0  0  0  0
  -21.6309   -4.9159   24.9292 C   0  0  0  0  0  0  0  0  0  0  0  0
  -29.1947  -20.5263   25.1077 C   0  0  0  0  0  0  0  0  0  0  0  0
  -29.1618  -21.9264   25.3704 C   0  0  0  0  0  0  0  0  0  0  0  0
  -25.3737  -30.7238   24.9985 C   0  0  0  0  0  0  0  0  0  0  0  0
  -20.1810   -6.0554   23.3683 C   0  0  0  0  0  0  0  0  0  0  0  0
  -24.6766   -9.7276   20.9028 C   0  0  0  0  0  0  0  0  0  0  0  0
  -24.2071  -12.1262   20.1723 C   0  0  0  0  0  0  0  0  0  0  0  0
  -17.1059  -29.1002   24.9552 C   0  0  0  0  0  0  0  0  0  0  0  0
  -23.2394  -31.5054   25.8315 C   0  0  0  0  0  0  0  0  0  0  0  0
  -18.4987  -29.0261   24.7633 C   0  0  0  0  0  0  0  0  0  0  0  0
  -24.2070  -31.4820   24.8169 C   0  0  0  0  0  0  0  0  0  0  0  0
  -23.9353   -7.1320   21.6070 C   0  0  0  0  0  0  0  0  0  0  0  0
  -25.5809  -30.0091   26.1781 C   0  0  0  0  0  0  0  0  0  0  0  0
  -22.5105   -5.7153   22.8258 C   0  0  0  0  0  0  0  0  0  0  0  0
  -20.3711   -5.4091   24.5897 C   0  0  0  0  0  0  0  0  0  0  0  0
  -21.2507   -6.2085   22.4863 C   0  0  0  0  0  0  0  0  0  0  0  0
  -25.0600  -11.0682   20.5398 C   0  0  0  0  0  0  0  0  0  0  0  0
  -28.2398  -20.1497   24.1890 C   0  0  0  0  0  0  0  0  0  0  0  0
  -25.0533  -13.1795   19.9255 C   0  0  0  0  0  0  0  0  0  0  0  0
  -28.1831  -22.5665   24.6422 C   0  0  0  0  0  0  0  0  0  0  0  0
  -27.6843  -26.2760   24.9729 C   0  0  0  0  0  0  0  0  0  0  0  0
  -22.7777  -12.1544   20.0638 C   0  0  0  0  0  0  0  0  0  0  0  0
  -28.0235  -27.4564   25.5161 C   0  0  0  0  0  0  0  0  0  0  0  0
  -28.3670  -24.9860   25.3059 C   0  0  0  0  0  0  0  0  0  0  0  0
  -21.0507  -31.3961   23.5290 C   0  0  0  0  0  0  0  0  0  0  0  0
  -22.6062  -34.0347   22.4611 C   0  0  0  0  0  0  0  0  0  0  0  0
  -25.4849  -35.8659   22.3783 C   0  0  0  0  0  0  0  0  0  0  0  0
  -29.4696  -16.2740   21.3462 C   0  0  0  0  0  0  0  0  0  0  0  0
  -16.2109  -29.8409   23.9933 C   0  0  0  0  0  0  0  0  0  0  0  0
  -21.9906  -32.3289   25.6743 C   0  0  0  0  0  0  0  0  0  0  0  0
  -24.0253  -32.2434   23.5302 C   0  0  0  0  0  0  0  0  0  0  0  0
  -16.9601  -30.8262   23.0999 C   0  0  0  0  0  0  0  0  0  0  0  0
  -30.0680  -13.3534   19.4503 C   0  0  0  0  0  0  0  0  0  0  0  0
  -18.2104  -30.1747   22.5176 C   0  0  0  0  0  0  0  0  0  0  0  0
  -28.7668  -12.5629   19.5561 C   0  0  0  0  0  0  0  0  0  0  0  0
  -28.2823  -17.5790   24.5620 C   0  0  0  0  0  0  0  0  0  0  0  0
  -30.3835  -14.0543   20.7648 C   0  0  0  0  0  0  0  0  0  0  0  0
  -28.2664  -16.3946   23.6050 C   0  0  0  0  0  0  0  0  0  0  0  0
  -28.7350  -18.4005   22.3807 C   0  0  0  0  0  0  0  0  0  0  0  0
  -27.9726  -14.2194   21.3218 C   0  0  0  0  0  0  0  0  0  0  0  0
  -19.1822  -29.7560   23.6275 C   0  0  1  0  0  0  0  0  0  0  0  0
  -27.9481  -18.7680   23.6466 C   0  0  2  0  0  0  0  0  0  0  0  0
  -21.6326  -32.5990   24.2162 C   0  0  1  0  0  0  0  0  0  0  0  0
  -27.6175  -13.4710   20.0204 C   0  0  2  0  0  0  0  0  0  0  0  0
  -26.4625  -37.9556   21.3911 C   0  0  0  0  0  0  0  0  0  0  0  0
  -22.8713  -32.6335   19.7637 C   0  0  0  0  0  0  0  0  0  0  0  0
  -24.6288  -34.3062   19.1460 C   0  0  0  0  0  0  0  0  0  0  0  0
  -22.3010  -35.0646   19.6248 C   0  0  0  0  0  0  0  0  0  0  0  0
  -25.9807  -37.0355   25.0514 C   0  0  0  0  0  0  0  0  0  0  0  0
  -27.3133  -28.7310   25.1674 C   0  0  0  0  0  0  0  0  0  1  0  0
  -23.7684  -34.2876   21.5315 C   0  0  1  0  0  0  0  0  0  0  0  0
  -25.7424  -37.3476   22.5847 C   0  0  2  0  0  0  0  0  0  0  0  0
  -23.3952  -34.0570   20.0398 C   0  0  0  0  0  0  0  0  0  0  0  0
  -26.3491  -11.4175   20.5287 N   0  0  0  0  0  0  0  0  0  0  0  0
  -26.3126  -12.7067   20.1511 N   0  0  0  0  0  0  0  0  0  0  0  0
  -22.7849  -33.0289   23.4215 N   0  0  0  0  0  0  0  0  0  0  0  0
  -29.2720  -14.8952   21.2133 N   0  0  0  0  0  0  0  0  0  0  0  0
  -28.7583  -16.9418   22.3423 N   0  0  0  0  0  0  0  0  0  0  0  0
  -24.8357  -14.4547   19.5396 N   0  0  0  0  0  0  0  0  0  0  0  0
  -22.0625  -10.9845   20.3538 N   0  0  0  0  0  0  0  0  0  0  0  0
  -27.8201  -23.8840   24.5961 N   0  0  0  0  0  0  0  0  0  0  0  0
  -19.9052  -30.9061   24.1266 N   0  0  0  0  0  0  0  0  0  0  0  0
  -24.2421  -35.6354   21.8274 N   0  0  0  0  0  0  0  0  0  0  0  0
  -26.5794  -37.5638   23.7986 N   0  3  0  0  0  0  0  0  0  0  0  0
  -22.1544  -13.1818   19.7040 O   0  0  0  0  0  0  0  0  0  0  0  0
  -29.2912  -24.9359   26.1081 O   0  0  0  0  0  0  0  0  0  0  0  0
  -21.5995  -30.9467   22.5297 O   0  0  0  0  0  0  0  0  0  0  0  0
  -21.5804  -34.7097   22.3443 O   0  0  0  0  0  0  0  0  0  0  0  0
  -26.3057  -34.9998   22.6727 O   0  0  0  0  0  0  0  0  0  0  0  0
  -30.2801  -16.8791   20.6314 O   0  0  0  0  0  0  0  0  0  0  0  0
  -29.0359  -27.5764   26.4473 O   0  0  0  0  0  0  0  0  0  0  0  0
  -23.5734   -5.8657   21.9509 O   0  0  0  0  0  0  0  0  0  0  0  0
  -26.7261  -29.2740   26.3424 O   0  0  0  0  0  0  0  0  0  1  0  0
  -19.3436   -5.2607   25.4361 F   0  0  0  0  0  0  0  0  0  0  0  0
  -21.0617   -6.8293   21.3138 F   0  0  0  0  0  0  0  0  0  0  0  0
  -27.3091  -21.4810   23.6472 S   0  0  0  0  0  0  0  0  0  0  0  0
  1  2  1  0  0  0  0
  1  5  2  0  0  0  0
  2  6  2  0  0  0  0
  3  8  2  0  0  0  0
  3 17  1  0  0  0  0
  4  9  1  0  0  0  0
  4 17  2  0  0  0  0
  5 19  1  0  0  0  0
  6 21  1  0  0  0  0
  7 10  2  0  0  0  0
  7 20  1  0  0  0  0
  8 23  1  0  0  0  0
  9 23  2  0  0  0  0
 10 24  1  0  0  0  0
 11 12  2  0  0  0  0
 11 25  1  0  0  0  0
 12 26  1  0  0  0  0
 13 14  1  0  0  0  0
 13 29  2  0  0  0  0
 14 31  2  0  0  0  0
 15 22  1  0  0  0  0
 15 24  2  0  0  0  0
 16 26  2  0  0  0  0
 16 27  1  0  0  0  0
 17 28  1  0  0  0  0
 18 28  1  0  0  0  0
 18 30  2  0  0  0  0
 18 33  1  0  0  0  0
 19 21  2  0  0  0  0
 19 40  1  0  0  0  0
 20 22  2  0  0  0  0
 20 41  1  0  0  0  0
 21 52  1  0  0  0  0
 22 42  1  0  0  0  0
 23 83  1  0  0  0  0
 24 84  1  0  0  0  0
 25 27  2  0  0  0  0
 25 83  1  0  0  0  0
 26 85  1  0  0  0  0
 27 86  1  0  0  0  0
 28 65  2  0  0  0  0
 29 53  1  0  0  0  0
 29 87  1  0  0  0  0
 30 66  1  0  0  0  0
 30 70  1  0  0  0  0
 31 72  1  0  0  0  0
 31 87  1  0  0  0  0
 32 34  2  0  0  0  0
 32 35  1  0  0  0  0
 33 71  1  0  0  0  0
 33 76  2  0  0  0  0
 34 61  1  0  0  0  0
 34 82  1  0  0  0  0
 35 72  1  0  0  0  0
 35 77  2  0  0  0  0
 36 54  1  0  0  0  0
 36 73  1  0  0  0  0
 36 78  2  0  0  0  0
 37 62  1  0  0  0  0
 37 67  1  0  0  0  0
 37 79  2  0  0  0  0
 38 63  1  0  0  0  0
 38 74  1  0  0  0  0
 38 80  2  0  0  0  0
 39 68  1  0  0  0  0
 39 69  1  0  0  0  0
 39 81  2  0  0  0  0
 40 43  1  0  0  0  0
 41 54  1  0  0  0  0
 42 67  1  0  0  0  0
 43 45  1  0  0  0  0
 44 46  1  0  0  0  0
 44 48  1  0  0  0  0
 45 52  1  0  0  0  0
 46 55  1  0  0  0  0
 47 49  1  0  0  0  0
 47 53  1  0  0  0  0
 48 68  1  0  0  0  0
 49 69  1  0  0  0  0
 50 53  1  0  0  0  0
 50 69  1  0  0  0  0
 51 55  1  0  0  0  0
 51 68  1  0  0  0  0
 52 73  1  0  0  0  0
 54 67  1  0  0  0  0
 55 66  1  0  0  0  0
 56 63  1  0  0  0  0
 57 64  1  0  0  0  0
 58 64  1  0  0  0  0
 59 64  1  0  0  0  0
 60 75  1  0  0  0  0
 61 84  1  0  0  0  0
 62 64  1  0  0  0  0
 62 74  1  0  0  0  0
 63 75  1  0  0  0  0
 65 66  1  0  0  0  0
M  CHG  1  75   1
M  ISO  4  39 100  61 101  69 100  84 101
M  END
> <Batch ID>
0148

> <Smiles>
CNC(C)C(=O)NC(C(=O)N1Cc2cc([101O:1][101CH2:1]C(=O)CC(=O)Nc3ccc(C4CC[100N:0]([100C:0](=O)N5CCCC(n6nc(-c7ccc(Oc8ccc(F)cc8F)cc7)c(C(N)=O)c6N)C5)C4)s3)ccc2CC1C(=O)NC1CCCc2ccccc21)C(C)(C)C

> <Shape>
0.237

> <Color>
0.137

> <Negative vol penalty>
0.000

$$$$

  -OEChem-04052303163D

 86 94  0     1  0  0  0  0  0999 V2000
  -27.6766  -35.1768   14.8643 C   0  0  0  0  0  0  0  0  0  0  0  0
  -26.7987  -34.7769   15.8667 C   0  0  0  0  0  0  0  0  0  0  0  0
  -25.9221  -13.1647   19.1008 C   0  0  0  0  0  0  0  0  0  0  0  0
  -24.3215  -13.6285   20.8502 C   0  0  0  0  0  0  0  0  0  0  0  0
  -28.5023  -34.2381   14.2471 C   0  0  0  0  0  0  0  0  0  0  0  0
  -26.7453  -33.4377   16.2517 C   0  0  0  0  0  0  0  0  0  0  0  0
  -25.7160  -31.2647   21.8841 C   0  0  0  0  0  0  0  0  0  0  0  0
  -21.5683  -22.8997   19.7133 C   0  0  0  0  0  0  0  0  0  0  0  0
  -20.5718  -23.8330   19.9987 C   0  0  0  0  0  0  0  0  0  0  0  0
  -26.0855  -11.8701   19.5935 C   0  0  0  0  0  0  0  0  0  0  0  0
  -24.4849  -12.3338   21.3429 C   0  0  0  0  0  0  0  0  0  0  0  0
  -24.5682  -30.7735   22.5048 C   0  0  0  0  0  0  0  0  0  0  0  0
  -24.2107   -9.0347   22.8458 C   0  0  0  0  0  0  0  0  0  0  0  0
  -23.0627   -8.3218   23.1912 C   0  0  0  0  0  0  0  0  0  0  0  0
  -25.2422  -28.5231   21.9566 C   0  0  0  0  0  0  0  0  0  0  0  0
  -23.1527  -24.2004   20.9920 C   0  0  0  0  0  0  0  0  0  0  0  0
  -22.2635   -8.5078   20.9188 C   0  0  0  0  0  0  0  0  0  0  0  0
  -25.0401  -14.0440   19.7292 C   0  0  0  0  0  0  0  0  0  0  0  0
  -23.9416  -15.8135   18.2562 C   0  0  0  0  0  0  0  0  0  0  0  0
  -28.4659  -32.8885   14.6314 C   0  0  0  0  0  0  0  0  0  0  0  0
  -26.6315  -30.3879   21.2845 C   0  0  0  0  0  0  0  0  0  0  0  0
  -27.5704  -32.4799   15.6381 C   0  0  0  0  0  0  0  0  0  0  0  0
  -26.4020  -29.0054   21.3313 C   0  0  0  0  0  0  0  0  0  0  0  0
  -22.8588  -23.0833   20.2100 C   0  0  0  0  0  0  0  0  0  0  0  0
  -20.8657  -24.9501   20.7807 C   0  0  0  0  0  0  0  0  0  0  0  0
  -25.3669  -11.4546   20.7145 C   0  0  0  0  0  0  0  0  0  0  0  0
  -24.3297  -29.4027   22.5386 C   0  0  0  0  0  0  0  0  0  0  0  0
  -24.3852   -9.4843   21.5369 C   0  0  0  0  0  0  0  0  0  0  0  0
  -22.0891   -8.0583   22.2277 C   0  0  0  0  0  0  0  0  0  0  0  0
  -22.1562  -25.1337   21.2773 C   0  0  0  0  0  0  0  0  0  0  0  0
  -23.4116   -9.2208   20.5734 C   0  0  0  0  0  0  0  0  0  0  0  0
  -24.8713  -15.3817   19.2210 C   0  0  0  0  0  0  0  0  0  0  0  0
  -24.1847  -17.1587   18.1230 C   0  0  0  0  0  0  0  0  0  0  0  0
  -18.8719  -26.0700   20.1627 C   0  0  0  0  0  0  0  0  0  0  0  0
  -22.9471  -15.0655   17.5440 C   0  0  0  0  0  0  0  0  0  0  0  0
  -27.7100  -29.9492   18.3268 C   0  0  0  0  0  0  0  0  0  0  0  0
  -20.6751  -27.9425   22.0150 C   0  0  0  0  0  0  0  0  0  0  0  0
  -29.6992  -27.8404   19.7822 C   0  0  0  0  0  0  0  0  0  0  0  0
  -30.3011  -25.7857   22.4399 C   0  0  0  0  0  0  0  0  0  0  0  0
  -25.2020  -22.1668   20.3338 C   0  0  0  0  0  0  0  0  0  0  0  0
  -29.3438  -31.9022   13.9026 C   0  0  0  0  0  0  0  0  0  0  0  0
  -27.8782  -30.9318   20.6424 C   0  0  0  0  0  0  0  0  0  0  0  0
  -27.3640  -28.0208   20.7201 C   0  0  0  0  0  0  0  0  0  0  0  0
  -29.4937  -30.5677   14.6285 C   0  0  0  0  0  0  0  0  0  0  0  0
  -27.9920  -20.0059   19.8608 C   0  0  0  0  0  0  0  0  0  0  0  0
  -28.1349  -30.0630   15.1037 C   0  0  0  0  0  0  0  0  0  0  0  0
  -27.3524  -18.6457   19.5729 C   0  0  0  0  0  0  0  0  0  0  0  0
  -27.1978  -20.7979   20.8979 C   0  0  0  0  0  0  0  0  0  0  0  0
  -25.1294  -19.5959   20.3096 C   0  0  0  0  0  0  0  0  0  0  0  0
  -27.5011  -31.0406   16.1006 C   0  0  1  0  0  0  0  0  0  0  0  0
  -28.4841  -29.9816   19.6142 C   0  0  1  0  0  0  0  0  0  0  0  0
  -25.8581  -18.7884   19.2230 C   0  0  2  0  0  0  0  0  0  0  0  0
  -31.9940  -24.1614   23.3303 C   0  0  0  0  0  0  0  0  0  0  0  0
  -28.7344  -25.7442   17.7859 C   0  0  0  0  0  0  0  0  0  0  0  0
  -29.6959  -23.9800   19.2797 C   0  0  0  0  0  0  0  0  0  0  0  0
  -31.1914  -25.6903   18.2495 C   0  0  0  0  0  0  0  0  0  0  0  0
  -30.7716  -27.4238   24.8594 C   0  0  0  0  0  0  0  0  0  0  0  0
  -20.8035  -28.8959   23.1951 C   0  0  0  0  0  0  0  0  0  0  0  0
  -19.9138  -26.6705   22.2892 C   0  0  0  0  0  0  0  0  0  0  0  0
  -22.0547  -29.7585   23.1333 C   0  0  0  0  0  0  0  0  0  1  0  0
  -29.6358  -26.3710   20.1227 C   0  0  1  0  0  0  0  0  0  0  0  0
  -31.5260  -25.6083   23.3188 C   0  0  2  0  0  0  0  0  0  0  0  0
  -29.7951  -25.4648   18.8694 C   0  0  0  0  0  0  0  0  0  0  0  0
  -25.6473  -16.3722   19.6690 N   0  0  0  0  0  0  0  0  0  0  0  0
  -25.2057  -17.4399   18.9825 N   0  0  0  0  0  0  0  0  0  0  0  0
  -28.5653  -28.6020   20.0984 N   0  0  0  0  0  0  0  0  0  0  0  0
  -25.7924  -20.8958   20.4977 N   0  0  0  0  0  0  0  0  0  0  0  0
  -23.6226  -18.1167   17.3558 N   0  0  0  0  0  0  0  0  0  0  0  0
  -22.8320  -13.6926   17.8015 N   0  0  0  0  0  0  0  0  0  0  0  0
  -23.8709  -22.1351   19.9196 N   0  0  0  0  0  0  0  0  0  0  0  0
  -28.1106  -30.8979   17.4055 N   0  0  0  0  0  0  0  0  0  0  0  0
  -30.6432  -26.1471   21.1539 N   0  0  0  0  0  0  0  0  0  0  0  0
  -19.8626  -25.8880   21.0657 N   0  0  0  0  0  0  0  0  0  0  0  0
  -17.8604  -26.9294   20.2214 N   0  3  0  0  0  0  0  0  0  0  0  0
  -31.2216  -26.0149   24.7198 N   0  3  0  0  0  0  0  0  0  0  0  0
  -22.1943  -15.5956   16.6920 O   0  0  0  0  0  0  0  0  0  0  0  0
  -26.8165  -29.1235   18.1797 O   0  0  0  0  0  0  0  0  0  0  0  0
  -21.1614  -28.1903   20.9126 O   0  0  0  0  0  0  0  0  0  0  0  0
  -30.7201  -28.2969   19.2616 O   0  0  0  0  0  0  0  0  0  0  0  0
  -29.1555  -25.6168   22.8518 O   0  0  0  0  0  0  0  0  0  0  0  0
  -25.8390  -23.2070   20.5189 O   0  0  0  0  0  0  0  0  0  0  0  0
  -25.5259  -10.1913   21.1954 O   0  0  0  0  0  0  0  0  0  0  0  0
  -23.2099  -28.9207   23.1432 O   0  0  0  0  0  0  0  0  0  1  0  0
  -20.9874   -7.3723   22.5592 F   0  0  0  0  0  0  0  0  0  0  0  0
  -22.4469  -26.2050   22.0284 F   0  0  0  0  0  0  0  0  0  0  0  0
  -23.5742   -9.6490   19.3141 F   0  0  0  0  0  0  0  0  0  0  0  0
  1  2  1  0  0  0  0
  1  5  2  0  0  0  0
  2  6  2  0  0  0  0
  3 10  2  0  0  0  0
  3 18  1  0  0  0  0
  4 11  1  0  0  0  0
  4 18  2  0  0  0  0
  5 20  1  0  0  0  0
  6 22  1  0  0  0  0
  7 12  2  0  0  0  0
  7 21  1  0  0  0  0
  8  9  2  0  0  0  0
  8 24  1  0  0  0  0
  9 25  1  0  0  0  0
 10 26  1  0  0  0  0
 11 26  2  0  0  0  0
 12 27  1  0  0  0  0
 13 14  2  0  0  0  0
 13 28  1  0  0  0  0
 14 29  1  0  0  0  0
 15 23  1  0  0  0  0
 15 27  2  0  0  0  0
 16 24  2  0  0  0  0
 16 30  1  0  0  0  0
 17 29  2  0  0  0  0
 17 31  1  0  0  0  0
 18 32  1  0  0  0  0
 19 32  1  0  0  0  0
 19 33  2  0  0  0  0
 19 35  1  0  0  0  0
 20 22  2  0  0  0  0
 20 41  1  0  0  0  0
 21 23  2  0  0  0  0
 21 42  1  0  0  0  0
 22 50  1  0  0  0  0
 23 43  1  0  0  0  0
 24 70  1  0  0  0  0
 25 30  2  0  0  0  0
 25 73  1  0  0  0  0
 26 82  1  0  0  0  0
 27 83  1  0  0  0  0
 28 31  2  0  0  0  0
 28 82  1  0  0  0  0
 29 84  1  0  0  0  0
 30 85  1  0  0  0  0
 31 86  1  0  0  0  0
 32 64  2  0  0  0  0
 33 65  1  0  0  0  0
 33 68  1  0  0  0  0
 34 73  1  0  0  0  0
 34 74  2  0  0  0  0
 35 69  1  0  0  0  0
 35 76  2  0  0  0  0
 36 51  1  0  0  0  0
 36 71  1  0  0  0  0
 36 77  2  0  0  0  0
 37 58  1  0  0  0  0
 37 59  1  0  0  0  0
 37 78  2  0  0  0  0
 38 61  1  0  0  0  0
 38 66  1  0  0  0  0
 38 79  2  0  0  0  0
 39 62  1  0  0  0  0
 39 72  1  0  0  0  0
 39 80  2  0  0  0  0
 40 67  1  0  0  0  0
 40 70  1  0  0  0  0
 40 81  2  0  0  0  0
 41 44  1  0  0  0  0
 42 51  1  0  0  0  0
 43 66  1  0  0  0  0
 44 46  1  0  0  0  0
 45 47  1  0  0  0  0
 45 48  1  0  0  0  0
 46 50  1  0  0  0  0
 47 52  1  0  0  0  0
 48 67  1  0  0  0  0
 49 52  1  0  0  0  0
 49 67  1  0  0  0  0
 50 71  1  0  0  0  0
 51 66  1  0  0  0  0
 52 65  1  0  0  0  0
 53 62  1  0  0  0  0
 54 63  1  0  0  0  0
 55 63  1  0  0  0  0
 56 63  1  0  0  0  0
 57 75  1  0  0  0  0
 58 60  1  0  0  0  0
 59 73  1  0  0  0  0
 60 83  1  0  0  0  0
 61 63  1  0  0  0  0
 61 72  1  0  0  0  0
 62 75  1  0  0  0  0
 64 65  1  0  0  0  0
M  CHG  2  74   1  75   1
M  ISO  4  40 100  60 101  70 100  83 101
M  END
> <Batch ID>
0148

> <Smiles>
CNC(C)C(=O)NC(C(=O)N1Cc2cc([101O:1][101CH2:1]CC(=O)CN(C=N)c3ccc([100NH:0][100C:0](=O)N4CCCC(n5nc(-c6ccc(Oc7ccc(F)cc7F)cc6)c(C(N)=O)c5N)C4)cc3F)ccc2CC1C(=O)NC1CCCc2ccccc21)C(C)(C)C

> <Shape>
0.218

> <Color>
0.050

> <Negative vol penalty>
0.000

$$$$

  -OEChem-04052303163D

 86 94  0     1  0  0  0  0  0999 V2000
  -18.9347  -32.7463   20.2404 C   0  0  0  0  0  0  0  0  0  0  0  0
  -20.2163  -32.3605   19.8606 C   0  0  0  0  0  0  0  0  0  0  0  0
  -24.7406  -10.4386   21.8642 C   0  0  0  0  0  0  0  0  0  0  0  0
  -25.1312  -11.9257   23.7278 C   0  0  0  0  0  0  0  0  0  0  0  0
  -18.4265  -32.3502   21.4769 C   0  0  0  0  0  0  0  0  0  0  0  0
  -20.9908  -31.5794   20.7175 C   0  0  0  0  0  0  0  0  0  0  0  0
  -24.9983  -27.2317   19.1228 C   0  0  0  0  0  0  0  0  0  0  0  0
  -24.5972   -9.3689   22.7478 C   0  0  0  0  0  0  0  0  0  0  0  0
  -24.9876  -10.8561   24.6115 C   0  0  0  0  0  0  0  0  0  0  0  0
  -26.3863  -27.2379   18.9918 C   0  0  0  0  0  0  0  0  0  0  0  0
  -22.2127   -8.1420   24.8074 C   0  0  0  0  0  0  0  0  0  0  0  0
  -21.1465   -7.2673   24.5987 C   0  0  0  0  0  0  0  0  0  0  0  0
  -26.5952  -26.3554   21.2271 C   0  0  0  0  0  0  0  0  0  0  0  0
  -28.7111  -20.9130   18.3525 C   0  0  0  0  0  0  0  0  0  0  0  0
  -22.7008   -5.4377   24.3268 C   0  0  0  0  0  0  0  0  0  0  0  0
  -26.6638  -20.7872   19.4457 C   0  0  0  0  0  0  0  0  0  0  0  0
  -25.0077  -11.7170   22.3542 C   0  0  0  0  0  0  0  0  0  0  0  0
  -24.1431  -13.6785   20.9712 C   0  0  0  0  0  0  0  0  0  0  0  0
  -19.1916  -31.5558   22.3453 C   0  0  0  0  0  0  0  0  0  0  0  0
  -24.3976  -26.7968   20.3129 C   0  0  0  0  0  0  0  0  0  0  0  0
  -20.4928  -31.1735   21.9673 C   0  0  0  0  0  0  0  0  0  0  0  0
  -25.1993  -26.3422   21.3697 C   0  0  0  0  0  0  0  0  0  0  0  0
  -27.7874  -20.0901   19.0593 C   0  0  0  0  0  0  0  0  0  0  0  0
  -24.7206   -9.5776   24.1214 C   0  0  0  0  0  0  0  0  0  0  0  0
  -27.1851  -26.8024   20.0451 C   0  0  0  0  0  0  0  0  0  0  0  0
  -23.5230   -7.6646   24.7758 C   0  0  0  0  0  0  0  0  0  0  0  0
  -21.3905   -5.9151   24.3584 C   0  0  0  0  0  0  0  0  0  0  0  0
  -23.7670   -6.3124   24.5355 C   0  0  0  0  0  0  0  0  0  0  0  0
  -25.1566  -12.8223   21.4419 C   0  0  0  0  0  0  0  0  0  0  0  0
  -24.7937  -14.5545   20.1370 C   0  0  0  0  0  0  0  0  0  0  0  0
  -28.2583  -22.2079   18.2254 C   0  0  0  0  0  0  0  0  0  0  0  0
  -22.7392  -13.6819   21.2622 C   0  0  0  0  0  0  0  0  0  0  0  0
  -22.5400  -28.1459   22.5113 C   0  0  0  0  0  0  0  0  0  0  0  0
  -30.4348  -25.9486   18.6846 C   0  0  0  0  0  0  0  0  0  0  0  0
  -22.4175  -25.1293   23.6977 C   0  0  0  0  0  0  0  0  0  0  0  0
  -30.0677  -23.4061   16.9538 C   0  0  0  0  0  0  0  0  0  0  0  0
  -23.8724  -22.0521   23.9451 C   0  0  0  0  0  0  0  0  0  0  0  0
  -29.0756  -17.9261   18.9968 C   0  0  0  0  0  0  0  0  0  0  0  0
  -18.6174  -31.1918   23.6916 C   0  0  0  0  0  0  0  0  0  0  0  0
  -22.8982  -26.7711   20.4286 C   0  0  0  0  0  0  0  0  0  0  0  0
  -24.6030  -25.8464   22.6609 C   0  0  0  0  0  0  0  0  0  0  0  0
  -19.3606  -30.0515   24.3826 C   0  0  0  0  0  0  0  0  0  0  0  0
  -29.5067  -14.4626   18.2927 C   0  0  0  0  0  0  0  0  0  0  0  0
  -20.8677  -30.2767   24.3127 C   0  0  0  0  0  0  0  0  0  0  0  0
  -28.3300  -13.7976   19.0105 C   0  0  0  0  0  0  0  0  0  0  0  0
  -30.0592  -15.6458   19.0855 C   0  0  0  0  0  0  0  0  0  0  0  0
  -27.8858  -15.9857   20.1945 C   0  0  0  0  0  0  0  0  0  0  0  0
  -21.3543  -30.3056   22.8588 C   0  0  1  0  0  0  0  0  0  0  0  0
  -22.4099  -26.7915   21.8738 C   0  0  1  0  0  0  0  0  0  0  0  0
  -27.2539  -14.8287   19.4034 C   0  0  2  0  0  0  0  0  0  0  0  0
  -24.1112  -19.6326   24.5667 C   0  0  0  0  0  0  0  0  0  0  0  0
  -31.4867  -27.0281   16.6636 C   0  0  0  0  0  0  0  0  0  0  0  0
  -32.5486  -25.0233   17.6741 C   0  0  0  0  0  0  0  0  0  0  0  0
  -23.3122  -26.2811   26.3778 C   0  0  0  0  0  0  0  0  0  0  0  0
  -23.8884  -23.9559   27.1056 C   0  0  0  0  0  0  0  0  0  0  0  0
  -21.5297  -24.5341   26.5359 C   0  0  0  0  0  0  0  0  0  0  0  0
  -22.5469  -21.1613   21.4534 C   0  0  0  0  0  0  0  0  0  0  0  0
  -29.0723  -26.6194   18.6095 C   0  0  0  0  0  0  0  0  0  1  0  0
  -30.3529  -24.8034   16.4159 C   0  0  0  0  0  0  0  0  0  0  0  0
  -23.2388  -24.3341   24.6837 C   0  0  1  0  0  0  0  0  0  0  0  0
  -23.3058  -20.6537   23.7783 C   0  0  2  0  0  0  0  0  0  0  0  0
  -31.1934  -25.6886   17.3642 C   0  0  0  0  0  0  0  0  0  0  0  0
  -23.0039  -24.7874   26.1523 C   0  0  0  0  0  0  0  0  0  0  0  0
  -26.3595  -13.1266   20.9476 N   0  0  0  0  0  0  0  0  0  0  0  0
  -26.1061  -14.1839   20.1576 N   0  0  0  0  0  0  0  0  0  0  0  0
  -23.1323  -25.8465   22.7278 N   0  0  0  0  0  0  0  0  0  0  0  0
  -28.9840  -16.5828   19.4186 N   0  0  0  0  0  0  0  0  0  0  0  0
  -24.3654  -15.5978   19.3951 N   0  0  0  0  0  0  0  0  0  0  0  0
  -22.2366  -12.7121   22.1404 N   0  0  0  0  0  0  0  0  0  0  0  0
  -27.9794  -18.7152   19.3433 N   0  0  0  0  0  0  0  0  0  0  0  0
  -28.8442  -23.3370   17.6067 N   0  0  0  0  0  0  0  0  0  0  0  0
  -21.4401  -28.9620   22.3278 N   0  0  0  0  0  0  0  0  0  0  0  0
  -22.9289  -22.9304   24.4347 N   0  0  0  0  0  0  0  0  0  0  0  0
  -23.3208  -20.2566   22.3420 N   0  3  0  0  0  0  0  0  0  0  0  0
  -21.9510  -14.5097   20.7455 O   0  0  0  0  0  0  0  0  0  0  0  0
  -23.5619  -28.4290   23.1255 O   0  0  0  0  0  0  0  0  0  0  0  0
  -30.8988  -25.5977   19.7724 O   0  0  0  0  0  0  0  0  0  0  0  0
  -21.1869  -25.1090   23.7804 O   0  0  0  0  0  0  0  0  0  0  0  0
  -30.8829  -22.5014   16.7950 O   0  0  0  0  0  0  0  0  0  0  0  0
  -25.0366  -22.3361   23.6721 O   0  0  0  0  0  0  0  0  0  0  0  0
  -30.0420  -18.3389   18.3505 O   0  0  0  0  0  0  0  0  0  0  0  0
  -24.5804   -8.5341   24.9840 O   0  0  0  0  0  0  0  0  0  0  0  0
  -28.5401  -26.8081   19.9201 O   0  0  0  0  0  0  0  0  0  1  0  0
  -20.3664   -5.0749   24.1594 F   0  0  0  0  0  0  0  0  0  0  0  0
  -25.0236   -5.8477   24.5051 F   0  0  0  0  0  0  0  0  0  0  0  0
  -26.7255  -22.4271   18.9566 S   0  0  0  0  0  0  0  0  0  0  0  0
  1  2  1  0  0  0  0
  1  5  2  0  0  0  0
  2  6  2  0  0  0  0
  3  8  2  0  0  0  0
  3 17  1  0  0  0  0
  4  9  1  0  0  0  0
  4 17  2  0  0  0  0
  5 19  1  0  0  0  0
  6 21  1  0  0  0  0
  7 10  2  0  0  0  0
  7 20  1  0  0  0  0
  8 24  1  0  0  0  0
  9 24  2  0  0  0  0
 10 25  1  0  0  0  0
 11 12  2  0  0  0  0
 11 26  1  0  0  0  0
 12 27  1  0  0  0  0
 13 22  1  0  0  0  0
 13 25  2  0  0  0  0
 14 23  1  0  0  0  0
 14 31  2  0  0  0  0
 15 27  2  0  0  0  0
 15 28  1  0  0  0  0
 16 23  2  0  0  0  0
 16 86  1  0  0  0  0
 17 29  1  0  0  0  0
 18 29  1  0  0  0  0
 18 30  2  0  0  0  0
 18 32  1  0  0  0  0
 19 21  2  0  0  0  0
 19 39  1  0  0  0  0
 20 22  2  0  0  0  0
 20 40  1  0  0  0  0
 21 48  1  0  0  0  0
 22 41  1  0  0  0  0
 23 70  1  0  0  0  0
 24 82  1  0  0  0  0
 25 83  1  0  0  0  0
 26 28  2  0  0  0  0
 26 82  1  0  0  0  0
 27 84  1  0  0  0  0
 28 85  1  0  0  0  0
 29 64  2  0  0  0  0
 30 65  1  0  0  0  0
 30 68  1  0  0  0  0
 31 71  1  0  0  0  0
 31 86  1  0  0  0  0
 32 69  1  0  0  0  0
 32 75  2  0  0  0  0
 33 49  1  0  0  0  0
 33 72  1  0  0  0  0
 33 76  2  0  0  0  0
 34 58  1  0  0  0  0
 34 62  1  0  0  0  0
 34 77  2  0  0  0  0
 35 60  1  0  0  0  0
 35 66  1  0  0  0  0
 35 78  2  0  0  0  0
 36 59  1  0  0  0  0
 36 71  1  0  0  0  0
 36 79  2  0  0  0  0
 37 61  1  0  0  0  0
 37 73  1  0  0  0  0
 37 80  2  0  0  0  0
 38 67  1  0  0  0  0
 38 70  1  0  0  0  0
 38 81  2  0  0  0  0
 39 42  1  0  0  0  0
 40 49  1  0  0  0  0
 41 66  1  0  0  0  0
 42 44  1  0  0  0  0
 43 45  1  0  0  0  0
 43 46  1  0  0  0  0
 44 48  1  0  0  0  0
 45 50  1  0  0  0  0
 46 67  1  0  0  0  0
 47 50  1  0  0  0  0
 47 67  1  0  0  0  0
 48 72  1  0  0  0  0
 49 66  1  0  0  0  0
 50 65  1  0  0  0  0
 51 61  1  0  0  0  0
 52 62  1  0  0  0  0
 53 62  1  0  0  0  0
 54 63  1  0  0  0  0
 55 63  1  0  0  0  0
 56 63  1  0  0  0  0
 57 74  1  0  0  0  0
 58 83  1  0  0  0  0
 59 62  1  0  0  0  0
 60 63  1  0  0  0  0
 60 73  1  0  0  0  0
 61 74  1  0  0  0  0
 64 65  1  0  0  0  0
M  CHG  1  74   1
M  ISO  4  38 100  58 101  70 100  83 101
M  END
> <Batch ID>
0148

> <Smiles>
CNC(C)C(=O)NC(C(=O)N1Cc2cc([101O:1][101CH2:1]C(=O)C(C)(C)CC(=O)Nc3cc([100NH:0][100C:0](=O)N4CCCC(n5nc(-c6ccc(Oc7ccc(F)cc7F)cc6)c(C(N)=O)c5N)C4)cs3)ccc2CC1C(=O)NC1CCCc2ccccc21)C(C)(C)C

> <Shape>
0.226

> <Color>
0.116

> <Negative vol penalty>
0.000

$$$$

  -OEChem-04052303163D

 86 95  0     1  0  0  0  0  0999 V2000
  -18.5539  -30.5800   16.3064 C   0  0  0  0  0  0  0  0  0  0  0  0
  -19.7079  -29.8045   16.3557 C   0  0  0  0  0  0  0  0  0  0  0  0
  -23.8846  -10.1249   22.4725 C   0  0  0  0  0  0  0  0  0  0  0  0
  -21.8501  -10.9643   21.4758 C   0  0  0  0  0  0  0  0  0  0  0  0
  -18.5453  -31.8519   16.8774 C   0  0  0  0  0  0  0  0  0  0  0  0
  -20.8543  -30.3010   16.9751 C   0  0  0  0  0  0  0  0  0  0  0  0
  -24.9989  -27.1040   20.1543 C   0  0  0  0  0  0  0  0  0  0  0  0
  -23.1588   -9.1144   23.1030 C   0  0  0  0  0  0  0  0  0  0  0  0
  -21.1243   -9.9537   22.1063 C   0  0  0  0  0  0  0  0  0  0  0  0
  -26.2456  -26.5825   19.8115 C   0  0  0  0  0  0  0  0  0  0  0  0
  -21.8934   -6.0969   24.6868 C   0  0  0  0  0  0  0  0  0  0  0  0
  -22.4159   -4.8041   24.6509 C   0  0  0  0  0  0  0  0  0  0  0  0
  -27.3117  -28.5384   20.7374 C   0  0  0  0  0  0  0  0  0  0  0  0
  -29.6958  -21.2896   20.2528 C   0  0  0  0  0  0  0  0  0  0  0  0
  -22.3278   -4.8354   22.2367 C   0  0  0  0  0  0  0  0  0  0  0  0
  -30.2296  -19.2895   19.1959 C   0  0  0  0  0  0  0  0  0  0  0  0
  -23.2302  -11.0500   21.6589 C   0  0  0  0  0  0  0  0  0  0  0  0
  -24.5809  -12.0428   19.7360 C   0  0  0  0  0  0  0  0  0  0  0  0
  -19.6893  -32.3604   17.5126 C   0  0  0  0  0  0  0  0  0  0  0  0
  -24.8985  -28.3537   20.7825 C   0  0  0  0  0  0  0  0  0  0  0  0
  -20.8614  -31.5814   17.5540 C   0  0  0  0  0  0  0  0  0  0  0  0
  -26.0627  -29.0723   21.0895 C   0  0  0  0  0  0  0  0  0  0  0  0
  -29.9565  -19.8968   20.4018 C   0  0  0  0  0  0  0  0  0  0  0  0
  -21.7786   -9.0288   22.9199 C   0  0  0  0  0  0  0  0  0  0  0  0
  -27.4021  -27.3010   20.1004 C   0  0  0  0  0  0  0  0  0  0  0  0
  -21.5880   -6.7589   23.4976 C   0  0  0  0  0  0  0  0  0  0  0  0
  -22.6331   -4.1734   23.4259 C   0  0  0  0  0  0  0  0  0  0  0  0
  -21.8053   -6.1282   22.2726 C   0  0  0  0  0  0  0  0  0  0  0  0
  -23.9793  -12.0944   21.0077 C   0  0  0  0  0  0  0  0  0  0  0  0
  -25.1644  -13.2766   19.5819 C   0  0  0  0  0  0  0  0  0  0  0  0
  -29.7798  -21.6939   18.9384 C   0  0  0  0  0  0  0  0  0  0  0  0
  -24.6095  -10.9752   18.7794 C   0  0  0  0  0  0  0  0  0  0  0  0
  -29.1723  -25.2974   18.0182 C   0  0  0  0  0  0  0  0  0  0  0  0
  -28.8698  -26.5361   18.4477 C   0  0  0  0  0  0  0  0  0  1  0  0
  -29.2792  -24.1572   18.9888 C   0  0  0  0  0  0  0  0  0  0  0  0
  -23.5656  -31.1403   20.0330 C   0  0  0  0  0  0  0  0  0  0  0  0
  -24.4511  -31.9328   23.0513 C   0  0  0  0  0  0  0  0  0  0  0  0
  -26.5249  -31.3736   25.7034 C   0  0  0  0  0  0  0  0  0  0  0  0
  -28.3379  -17.2742   21.6557 C   0  0  0  0  0  0  0  0  0  0  0  0
  -19.6465  -33.7596   18.0740 C   0  0  0  0  0  0  0  0  0  0  0  0
  -23.5477  -28.8902   21.1699 C   0  0  0  0  0  0  0  0  0  0  0  0
  -26.0102  -30.4093   21.7811 C   0  0  0  0  0  0  0  0  0  0  0  0
  -20.7884  -34.0633   19.0404 C   0  0  0  0  0  0  0  0  0  0  0  0
  -24.7095  -17.5088   22.2817 C   0  0  0  0  0  0  0  0  0  0  0  0
  -22.1183  -33.5926   18.4602 C   0  0  0  0  0  0  0  0  0  0  0  0
  -24.2617  -16.0890   21.9476 C   0  0  0  0  0  0  0  0  0  0  0  0
  -31.2267  -18.4754   22.1877 C   0  0  0  0  0  0  0  0  0  0  0  0
  -30.7986  -19.7343   22.8691 C   0  0  0  0  0  0  0  0  0  0  0  0
  -26.1078  -17.5393   22.8972 C   0  0  0  0  0  0  0  0  0  0  0  0
  -26.6896  -15.4301   21.7323 C   0  0  0  0  0  0  0  0  0  0  0  0
  -22.1173  -32.0752   18.2387 C   0  0  1  0  0  0  0  0  0  0  0  0
  -23.5341  -30.4058   21.3434 C   0  0  1  0  0  0  0  0  0  0  0  0
  -25.3052  -15.3840   21.0676 C   0  0  1  0  0  0  0  0  0  0  0  0
  -29.9353  -19.1644   21.7417 C   0  0  0  0  0  0  0  0  0  0  0  0
  -28.7572  -27.7298   17.5448 C   0  0  0  0  0  0  0  0  0  0  0  0
  -27.0331  -32.2046   28.0161 C   0  0  0  0  0  0  0  0  0  0  0  0
  -25.8621  -34.3642   21.8650 C   0  0  0  0  0  0  0  0  0  0  0  0
  -27.1098  -34.6055   24.0222 C   0  0  0  0  0  0  0  0  0  0  0  0
  -24.6240  -34.8111   23.9915 C   0  0  0  0  0  0  0  0  0  0  0  0
  -25.8854  -28.7490   26.9124 C   0  0  0  0  0  0  0  0  0  0  0  0
  -25.6835  -32.5368   23.6802 C   0  0  1  0  0  0  0  0  0  0  0  0
  -26.2421  -31.2061   27.1854 C   0  0  2  0  0  0  0  0  0  0  0  0
  -25.8211  -34.0551   23.3749 C   0  0  0  0  0  0  0  0  0  0  0  0
  -24.1639  -13.2680   21.6182 N   0  0  0  0  0  0  0  0  0  0  0  0
  -24.8880  -13.9653   20.7262 N   0  0  0  0  0  0  0  0  0  0  0  0
  -24.6657  -30.8944   22.1340 N   0  0  0  0  0  0  0  0  0  0  0  0
  -27.0788  -16.8045   22.0712 N   0  0  0  0  0  0  0  0  0  0  0  0
  -25.8819  -13.8288   18.5805 N   0  0  0  0  0  0  0  0  0  0  0  0
  -23.9593   -9.7752   19.0979 N   0  0  0  0  0  0  0  0  0  0  0  0
  -29.5984  -22.9681   18.3472 N   0  0  0  0  0  0  0  0  0  0  0  0
  -22.3167  -31.3813   19.4930 N   0  0  0  0  0  0  0  0  0  0  0  0
  -25.6148  -32.2169   25.1019 N   0  0  0  0  0  0  0  0  0  0  0  0
  -28.6785  -18.5529   22.0821 N   0  0  0  0  0  0  0  0  0  0  0  0
  -26.6069  -29.8313   27.6302 N   0  3  0  0  0  0  0  0  0  0  0  0
  -25.2083  -11.0764   17.6819 O   0  0  0  0  0  0  0  0  0  0  0  0
  -29.0910  -24.3330   20.1874 O   0  0  0  0  0  0  0  0  0  0  0  0
  -24.6431  -31.4658   19.5485 O   0  0  0  0  0  0  0  0  0  0  0  0
  -23.3386  -32.3616   23.3679 O   0  0  0  0  0  0  0  0  0  0  0  0
  -27.4619  -30.8154   25.1368 O   0  0  0  0  0  0  0  0  0  0  0  0
  -29.1072  -16.6021   20.9598 O   0  0  0  0  0  0  0  0  0  0  0  0
  -29.4019  -25.0396   16.6797 O   0  0  0  0  0  0  0  0  0  0  0  0
  -21.0701   -8.0427   23.5349 O   0  0  0  0  0  0  0  0  0  0  0  0
  -28.6202  -26.7945   19.7662 O   0  0  0  0  0  0  0  0  0  1  0  0
  -23.1364   -2.9325   23.3916 F   0  0  0  0  0  0  0  0  0  0  0  0
  -21.5149   -6.7597   21.1268 F   0  0  0  0  0  0  0  0  0  0  0  0
  -30.1712  -20.3969   17.8911 S   0  0  0  0  0  0  0  0  0  0  0  0
  1  2  1  0  0  0  0
  1  5  2  0  0  0  0
  2  6  2  0  0  0  0
  3  8  2  0  0  0  0
  3 17  1  0  0  0  0
  4  9  1  0  0  0  0
  4 17  2  0  0  0  0
  5 19  1  0  0  0  0
  6 21  1  0  0  0  0
  7 10  2  0  0  0  0
  7 20  1  0  0  0  0
  8 24  1  0  0  0  0
  9 24  2  0  0  0  0
 10 25  1  0  0  0  0
 11 12  2  0  0  0  0
 11 26  1  0  0  0  0
 12 27  1  0  0  0  0
 13 22  1  0  0  0  0
 13 25  2  0  0  0  0
 14 23  1  0  0  0  0
 14 31  2  0  0  0  0
 15 27  2  0  0  0  0
 15 28  1  0  0  0  0
 16 23  2  0  0  0  0
 16 86  1  0  0  0  0
 17 29  1  0  0  0  0
 18 29  1  0  0  0  0
 18 30  2  0  0  0  0
 18 32  1  0  0  0  0
 19 21  2  0  0  0  0
 19 40  1  0  0  0  0
 20 22  2  0  0  0  0
 20 41  1  0  0  0  0
 21 51  1  0  0  0  0
 22 42  1  0  0  0  0
 23 54  1  0  0  0  0
 24 82  1  0  0  0  0
 25 83  1  0  0  0  0
 26 28  2  0  0  0  0
 26 82  1  0  0  0  0
 27 84  1  0  0  0  0
 28 85  1  0  0  0  0
 29 64  2  0  0  0  0
 30 65  1  0  0  0  0
 30 68  1  0  0  0  0
 31 70  1  0  0  0  0
 31 86  1  0  0  0  0
 32 69  1  0  0  0  0
 32 75  2  0  0  0  0
 33 34  2  0  0  0  0
 33 35  1  0  0  0  0
 33 81  1  0  0  0  0
 34 55  1  0  0  0  0
 34 83  1  0  0  0  0
 35 70  1  0  0  0  0
 35 76  2  0  0  0  0
 36 52  1  0  0  0  0
 36 71  1  0  0  0  0
 36 77  2  0  0  0  0
 37 61  1  0  0  0  0
 37 66  1  0  0  0  0
 37 78  2  0  0  0  0
 38 62  1  0  0  0  0
 38 72  1  0  0  0  0
 38 79  2  0  0  0  0
 39 67  1  0  0  0  0
 39 73  1  0  0  0  0
 39 80  2  0  0  0  0
 40 43  1  0  0  0  0
 41 52  1  0  0  0  0
 42 66  1  0  0  0  0
 43 45  1  0  0  0  0
 44 46  1  0  0  0  0
 44 49  1  0  0  0  0
 45 51  1  0  0  0  0
 46 53  1  0  0  0  0
 47 48  1  0  0  0  0
 47 54  1  0  0  0  0
 48 54  1  0  0  0  0
 49 67  1  0  0  0  0
 50 53  1  0  0  0  0
 50 67  1  0  0  0  0
 51 71  1  0  0  0  0
 52 66  1  0  0  0  0
 53 65  1  0  0  0  0
 54 73  1  0  0  0  0
 56 62  1  0  0  0  0
 57 63  1  0  0  0  0
 58 63  1  0  0  0  0
 59 63  1  0  0  0  0
 60 74  1  0  0  0  0
 61 63  1  0  0  0  0
 61 72  1  0  0  0  0
 62 74  1  0  0  0  0
 64 65  1  0  0  0  0
M  CHG  1  74   1
M  ISO  4  34 101  39 100  73 100  83 101
M  END
> <Batch ID>
0148

> <Smiles>
CNC(C)C(=O)NC(C(=O)N1Cc2cc([101O:1][101CH:1](C)C(=O)C(=O)Nc3cc(C4([100NH:0][100C:0](=O)N5CCCC(n6nc(-c7ccc(Oc8ccc(F)cc8F)cc7)c(C(N)=O)c6N)C5)CC4)cs3)ccc2CC1C(=O)NC1CCCc2ccccc21)C(C)(C)C

> <Shape>
0.307

> <Color>
0.088

> <Negative vol penalty>
0.000

$$$$

  -OEChem-04052303163D

 84 93  0     1  0  0  0  0  0999 V2000
  -28.0753  -34.1369   26.5087 C   0  0  0  0  0  0  0  0  0  0  0  0
  -28.4004  -33.0610   25.6887 C   0  0  0  0  0  0  0  0  0  0  0  0
  -24.2118   -9.6350   21.5991 C   0  0  0  0  0  0  0  0  0  0  0  0
  -23.2308  -10.9982   19.8623 C   0  0  0  0  0  0  0  0  0  0  0  0
  -26.7708  -34.2846   26.9783 C   0  0  0  0  0  0  0  0  0  0  0  0
  -27.4215  -32.1317   25.3388 C   0  0  0  0  0  0  0  0  0  0  0  0
  -26.9203  -29.1388   20.0193 C   0  0  0  0  0  0  0  0  0  0  0  0
  -22.9385   -9.3361   22.0838 C   0  0  0  0  0  0  0  0  0  0  0  0
  -21.9574  -10.6992   20.3469 C   0  0  0  0  0  0  0  0  0  0  0  0
  -27.2999  -27.8565   19.6251 C   0  0  0  0  0  0  0  0  0  0  0  0
  -20.3885   -7.2673   21.2772 C   0  0  0  0  0  0  0  0  0  0  0  0
  -20.1141   -5.9390   21.6025 C   0  0  0  0  0  0  0  0  0  0  0  0
  -25.0660  -27.0640   20.0730 C   0  0  0  0  0  0  0  0  0  0  0  0
  -26.6716  -20.3255   17.4900 C   0  0  0  0  0  0  0  0  0  0  0  0
  -28.0968  -19.0821   18.9932 C   0  0  0  0  0  0  0  0  0  0  0  0
  -26.7268  -17.9125   17.3832 C   0  0  0  0  0  0  0  0  0  0  0  0
  -19.6556   -6.5921   23.8829 C   0  0  0  0  0  0  0  0  0  0  0  0
  -24.3580  -10.4661   20.4884 C   0  0  0  0  0  0  0  0  0  0  0  0
  -26.4023  -10.0637   19.0166 C   0  0  0  0  0  0  0  0  0  0  0  0
  -25.7732  -33.3620   26.6261 C   0  0  0  0  0  0  0  0  0  0  0  0
  -25.6113  -29.3914   20.4544 C   0  0  0  0  0  0  0  0  0  0  0  0
  -26.1028  -32.2665   25.8052 C   0  0  0  0  0  0  0  0  0  0  0  0
  -24.6716  -28.3509   20.4697 C   0  0  0  0  0  0  0  0  0  0  0  0
  -27.6032  -20.3009   18.5278 C   0  0  0  0  0  0  0  0  0  0  0  0
  -26.2333  -19.1313   16.9178 C   0  0  0  0  0  0  0  0  0  0  0  0
  -27.6586  -17.8879   18.4209 C   0  0  0  0  0  0  0  0  0  0  0  0
  -21.8113   -9.8682   21.4577 C   0  0  0  0  0  0  0  0  0  0  0  0
  -26.3735  -26.8182   19.6546 C   0  0  0  0  0  0  0  0  0  0  0  0
  -20.2966   -8.2581   22.2549 C   0  0  0  0  0  0  0  0  0  0  0  0
  -19.7476   -5.6014   22.9053 C   0  0  0  0  0  0  0  0  0  0  0  0
  -19.9301   -7.9205   23.5577 C   0  0  0  0  0  0  0  0  0  0  0  0
  -25.6731  -10.7757   19.9876 C   0  0  0  0  0  0  0  0  0  0  0  0
  -27.5810  -10.7582   18.8947 C   0  0  0  0  0  0  0  0  0  0  0  0
  -28.1936  -23.7243   19.6695 C   0  0  0  0  0  0  0  0  0  0  0  0
  -27.7508  -24.9525   19.9591 C   0  0  0  0  0  0  0  0  0  1  0  0
  -26.0461   -8.8803   18.2896 C   0  0  0  0  0  0  0  0  0  0  0  0
  -24.3059  -30.3983   23.1720 C   0  0  0  0  0  0  0  0  0  0  0  0
  -21.5834  -30.4027   21.4085 C   0  0  0  0  0  0  0  0  0  0  0  0
  -19.8743  -29.1901   18.7149 C   0  0  0  0  0  0  0  0  0  0  0  0
  -29.0897  -16.4494   19.9139 C   0  0  0  0  0  0  0  0  0  0  0  0
  -24.3882  -33.5373   27.1967 C   0  0  0  0  0  0  0  0  0  0  0  0
  -25.2104  -30.7858   20.8509 C   0  0  0  0  0  0  0  0  0  0  0  0
  -23.2484  -28.5741   20.9092 C   0  0  0  0  0  0  0  0  0  0  0  0
  -29.3083  -23.0223   20.3783 C   0  0  0  0  0  0  0  0  0  0  0  0
  -27.5710  -22.8000   18.6668 C   0  0  0  0  0  0  0  0  0  0  0  0
  -23.3234  -32.7157   26.4745 C   0  0  0  0  0  0  0  0  0  0  0  0
  -30.5518  -13.5608   21.3955 C   0  0  0  0  0  0  0  0  0  0  0  0
  -23.8065  -31.2845   26.2619 C   0  0  0  0  0  0  0  0  0  0  0  0
  -29.5359  -12.4527   21.1089 C   0  0  0  0  0  0  0  0  0  0  0  0
  -28.9126  -21.5530   20.2621 C   0  0  0  0  0  0  0  0  0  0  0  0
  -29.8681  -14.8949   21.6894 C   0  0  0  0  0  0  0  0  0  0  0  0
  -27.8862  -14.2263   20.3879 C   0  0  0  0  0  0  0  0  0  0  0  0
  -25.0630  -31.2512   25.3834 C   0  0  1  0  0  0  0  0  0  0  0  0
  -23.9894  -30.8194   21.7649 C   0  0  1  0  0  0  0  0  0  0  0  0
  -28.5291  -12.8785   20.0223 C   0  0  2  0  0  0  0  0  0  0  0  0
  -17.6554  -29.3523   17.5540 C   0  0  0  0  0  0  0  0  0  0  0  0
  -20.3247  -28.6634   23.5765 C   0  0  0  0  0  0  0  0  0  0  0  0
  -18.5049  -28.0841   21.9576 C   0  0  0  0  0  0  0  0  0  0  0  0
  -18.8275  -30.4517   22.6739 C   0  0  0  0  0  0  0  0  0  0  0  0
  -21.1189  -30.2009   16.2273 C   0  0  0  0  0  0  0  0  0  0  0  0
  -20.5039  -29.3917   21.1060 C   0  0  1  0  0  0  0  0  0  0  0  0
  -19.0758  -29.8903   17.6301 C   0  0  2  0  0  0  0  0  0  0  0  0
  -19.5675  -29.1428   22.3220 C   0  0  0  0  0  0  0  0  0  0  0  0
  -26.3332  -11.8408   20.4499 N   0  0  0  0  0  0  0  0  0  0  0  0
  -27.4898  -11.8031   19.7665 N   0  0  0  0  0  0  0  0  0  0  0  0
  -28.0371  -21.4833   19.0946 N   0  0  3  0  0  0  0  0  0  0  0  0
  -22.9066  -29.9536   21.2934 N   0  0  0  0  0  0  0  0  0  0  0  0
  -28.9323  -15.2356   20.6157 N   0  0  0  0  0  0  0  0  0  0  0  0
  -25.2910  -19.1562   15.8686 N   0  0  0  0  0  0  0  0  0  0  0  0
  -28.6762  -10.5709   18.1280 N   0  0  0  0  0  0  0  0  0  0  0  0
  -24.7969   -8.2949   18.5369 N   0  0  0  0  0  0  0  0  0  0  0  0
  -28.1609  -16.6501   18.8933 N   0  0  0  0  0  0  0  0  0  0  0  0
  -24.7115  -31.4343   23.9916 N   0  0  0  0  0  0  0  0  0  0  0  0
  -19.8174  -29.8724   19.9118 N   0  0  0  0  0  0  0  0  0  0  0  0
  -19.7240  -29.6954   16.3024 N   0  3  0  0  0  0  0  0  0  0  0  0
  -26.8196   -8.3481   17.4578 O   0  0  0  0  0  0  0  0  0  0  0  0
  -24.1893  -29.2209   23.4911 O   0  0  0  0  0  0  0  0  0  0  0  0
  -21.2644  -31.5507   21.7279 O   0  0  0  0  0  0  0  0  0  0  0  0
  -20.4841  -28.1409   18.5210 O   0  0  0  0  0  0  0  0  0  0  0  0
  -29.9994  -17.2393   20.1795 O   0  0  0  0  0  0  0  0  0  0  0  0
  -20.5686   -9.5765   21.9302 O   0  0  0  0  0  0  0  0  0  0  0  0
  -26.7416  -25.5656   19.2710 O   0  0  0  0  0  0  0  0  0  1  0  0
  -19.4825   -4.3260   23.2171 F   0  0  0  0  0  0  0  0  0  0  0  0
  -19.8389   -8.8680   24.5009 F   0  0  0  0  0  0  0  0  0  0  0  0
  1  2  1  0  0  0  0
  1  5  2  0  0  0  0
  2  6  2  0  0  0  0
  3  8  2  0  0  0  0
  3 18  1  0  0  0  0
  4  9  1  0  0  0  0
  4 18  2  0  0  0  0
  5 20  1  0  0  0  0
  6 22  1  0  0  0  0
  7 10  2  0  0  0  0
  7 21  1  0  0  0  0
  8 27  1  0  0  0  0
  9 27  2  0  0  0  0
 10 28  1  0  0  0  0
 11 12  2  0  0  0  0
 11 29  1  0  0  0  0
 12 30  1  0  0  0  0
 13 23  1  0  0  0  0
 13 28  2  0  0  0  0
 14 24  1  0  0  0  0
 14 25  2  0  0  0  0
 15 24  2  0  0  0  0
 15 26  1  0  0  0  0
 16 25  1  0  0  0  0
 16 26  2  0  0  0  0
 17 30  2  0  0  0  0
 17 31  1  0  0  0  0
 18 32  1  0  0  0  0
 19 32  1  0  0  0  0
 19 33  2  0  0  0  0
 19 36  1  0  0  0  0
 20 22  2  0  0  0  0
 20 41  1  0  0  0  0
 21 23  2  0  0  0  0
 21 42  1  0  0  0  0
 22 53  1  0  0  0  0
 23 43  1  0  0  0  0
 24 66  1  0  0  0  0
 25 69  1  0  0  0  0
 26 72  1  0  0  0  0
 27 81  1  0  0  0  0
 28 82  1  0  0  0  0
 29 31  2  0  0  0  0
 29 81  1  0  0  0  0
 30 83  1  0  0  0  0
 31 84  1  0  0  0  0
 32 64  2  0  0  0  0
 33 65  1  0  0  0  0
 33 70  1  0  0  0  0
 34 35  2  0  0  0  0
 34 44  1  0  0  0  0
 34 45  1  0  0  0  0
 35 82  1  0  0  0  0
 36 71  1  0  0  0  0
 36 76  2  0  0  0  0
 37 54  1  0  0  0  0
 37 73  1  0  0  0  0
 37 77  2  0  0  0  0
 38 61  1  0  0  0  0
 38 67  1  0  0  0  0
 38 78  2  0  0  0  0
 39 62  1  0  0  0  0
 39 74  1  0  0  0  0
 39 79  2  0  0  0  0
 40 68  1  0  0  0  0
 40 72  1  0  0  0  0
 40 80  2  0  0  0  0
 41 46  1  0  0  0  0
 42 54  1  0  0  0  0
 43 67  1  0  0  0  0
 44 50  1  0  0  0  0
 45 66  1  0  0  0  0
 46 48  1  0  0  0  0
 47 49  1  0  0  0  0
 47 51  1  0  0  0  0
 48 53  1  0  0  0  0
 49 55  1  0  0  0  0
 50 66  1  0  0  0  0
 51 68  1  0  0  0  0
 52 55  1  0  0  0  0
 52 68  1  0  0  0  0
 53 73  1  0  0  0  0
 54 67  1  0  0  0  0
 55 65  1  0  0  0  0
 56 62  1  0  0  0  0
 57 63  1  0  0  0  0
 58 63  1  0  0  0  0
 59 63  1  0  0  0  0
 60 75  1  0  0  0  0
 61 63  1  0  0  0  0
 61 74  1  0  0  0  0
 62 75  1  0  0  0  0
 64 65  1  0  0  0  0
M  CHG  1  75   1
M  ISO  4  35 101  40 100  72 100  82 101
M  END
> <Batch ID>
0148

> <Smiles>
CNC(C)C(=O)NC(C(=O)N1Cc2cc([101O:1][101CH:1]=C3CCN(c4cc(N)cc([100NH:0][100C:0](=O)N5CCCC(n6nc(-c7ccc(Oc8ccc(F)cc8F)cc7)c(C(N)=O)c6N)C5)c4)C3)ccc2CC1C(=O)NC1CCCc2ccccc21)C(C)(C)C

> <Shape>
0.288

> <Color>
0.076

> <Negative vol penalty>
0.000

$$$$

  -OEChem-04052303163D

 87 96  0     1  0  0  0  0  0999 V2000
  -39.9036  -26.1758   19.2292 C   0  0  0  0  0  0  0  0  0  0  0  0
  -38.7752  -25.3863   19.4260 C   0  0  0  0  0  0  0  0  0  0  0  0
  -23.1447   -9.7910   20.2446 C   0  0  0  0  0  0  0  0  0  0  0  0
  -24.0457  -10.0490   22.4714 C   0  0  0  0  0  0  0  0  0  0  0  0
  -39.7706  -27.5562   19.0850 C   0  0  0  0  0  0  0  0  0  0  0  0
  -37.5131  -25.9769   19.4799 C   0  0  0  0  0  0  0  0  0  0  0  0
  -32.2468  -23.6009   17.4485 C   0  0  0  0  0  0  0  0  0  0  0  0
  -29.0147  -16.3868   18.6602 C   0  0  0  0  0  0  0  0  0  0  0  0
  -28.1229  -17.1133   17.8684 C   0  0  0  0  0  0  0  0  0  0  0  0
  -22.4746   -8.6366   20.6494 C   0  0  0  0  0  0  0  0  0  0  0  0
  -23.3755   -8.8946   22.8763 C   0  0  0  0  0  0  0  0  0  0  0  0
  -31.2052  -22.9381   18.0962 C   0  0  0  0  0  0  0  0  0  0  0  0
  -19.6651   -7.8585   22.3624 C   0  0  0  0  0  0  0  0  0  0  0  0
  -18.3341   -7.7110   21.9722 C   0  0  0  0  0  0  0  0  0  0  0  0
  -27.7902  -18.6694   19.6725 C   0  0  0  0  0  0  0  0  0  0  0  0
  -29.9929  -25.0171   18.2613 C   0  0  0  0  0  0  0  0  0  0  0  0
  -18.9031   -5.6759   20.8009 C   0  0  0  0  0  0  0  0  0  0  0  0
  -23.9303  -10.4972   21.1555 C   0  0  0  0  0  0  0  0  0  0  0  0
  -24.1415  -13.0115   20.7797 C   0  0  0  0  0  0  0  0  0  0  0  0
  -38.5054  -28.1629   19.1276 C   0  0  0  0  0  0  0  0  0  0  0  0
  -32.1739  -24.9812   17.2117 C   0  0  0  0  0  0  0  0  0  0  0  0
  -37.3632  -27.3668   19.3376 C   0  0  0  0  0  0  0  0  0  0  0  0
  -28.6785  -17.9434   20.4835 C   0  0  0  0  0  0  0  0  0  0  0  0
  -31.0338  -25.6946   17.6082 C   0  0  0  0  0  0  0  0  0  0  0  0
  -29.2892  -16.7741   19.9823 C   0  0  0  0  0  0  0  0  0  0  0  0
  -27.5057  -18.2501   18.3759 C   0  0  0  0  0  0  0  0  0  0  0  0
  -22.5900   -8.1884   21.9653 C   0  0  0  0  0  0  0  0  0  0  0  0
  -30.0794  -23.6467   18.5053 C   0  0  0  0  0  0  0  0  0  0  0  0
  -20.6151   -6.9147   21.9718 C   0  0  0  0  0  0  0  0  0  0  0  0
  -17.9531   -6.6197   21.1915 C   0  0  0  0  0  0  0  0  0  0  0  0
  -20.2341   -5.8235   21.1911 C   0  0  0  0  0  0  0  0  0  0  0  0
  -24.6232  -11.6894   20.7378 C   0  0  0  0  0  0  0  0  0  0  0  0
  -25.1712  -13.7683   20.2763 C   0  0  0  0  0  0  0  0  0  0  0  0
  -22.8763  -13.5109   21.2333 C   0  0  0  0  0  0  0  0  0  0  0  0
  -33.8768  -27.5062   18.1216 C   0  0  0  0  0  0  0  0  0  0  0  0
  -26.9131  -21.3317   17.9897 C   0  0  0  0  0  0  0  0  0  0  0  0
  -31.9259  -29.0762   16.0598 C   0  0  0  0  0  0  0  0  0  0  0  0
  -28.9409  -29.1852   14.4092 C   0  0  0  0  0  0  0  0  0  0  0  0
  -30.7594  -14.7931   20.4614 C   0  0  0  0  0  0  0  0  0  0  0  0
  -38.4160  -29.6642   19.0140 C   0  0  0  0  0  0  0  0  0  0  0  0
  -33.2942  -25.6766   16.4879 C   0  0  0  0  0  0  0  0  0  0  0  0
  -28.9924  -18.4843   21.8558 C   0  0  0  0  0  0  0  0  0  0  0  0
  -30.8977  -27.1739   17.3595 C   0  0  0  0  0  0  0  0  0  0  0  0
  -37.0082  -30.1692   18.7089 C   0  0  0  0  0  0  0  0  0  0  0  0
  -29.6770  -17.4561   22.7436 C   0  0  0  0  0  0  0  0  0  0  0  0
  -29.4321  -12.4464   17.9213 C   0  0  0  0  0  0  0  0  0  0  0  0
  -35.9876  -29.4831   19.6113 C   0  0  0  0  0  0  0  0  0  0  0  0
  -28.0579  -12.0850   18.4812 C   0  0  0  0  0  0  0  0  0  0  0  0
  -30.7638  -16.7353   21.9653 C   0  0  0  0  0  0  0  0  0  0  0  0
  -30.4169  -12.8074   19.0289 C   0  0  0  0  0  0  0  0  0  0  0  0
  -28.5505  -13.5424   20.4859 C   0  0  0  0  0  0  0  0  0  0  0  0
  -35.9748  -27.9676   19.3771 C   0  0  1  0  0  0  0  0  0  0  0  0
  -33.3391  -27.1774   16.7577 C   0  0  1  0  0  0  0  0  0  0  0  0
  -27.5297  -13.2088   19.3876 C   0  0  2  0  0  0  0  0  0  0  0  0
  -24.7232  -20.4371   17.1675 C   0  0  0  0  0  0  0  0  0  0  0  0
  -27.6169  -30.6114   12.8247 C   0  0  0  0  0  0  0  0  0  0  0  0
  -31.2636  -30.9914   18.3408 C   0  0  0  0  0  0  0  0  0  0  0  0
  -29.2843  -31.7697   17.0199 C   0  0  0  0  0  0  0  0  0  0  0  0
  -31.5878  -32.0896   16.1175 C   0  0  0  0  0  0  0  0  0  0  0  0
  -28.8744  -27.0506   12.3602 C   0  0  0  0  0  0  0  0  0  0  0  0
  -26.7278  -22.4028   19.0586 C   0  0  0  0  0  0  0  0  0  0  0  0
  -27.7477  -23.5272   18.9583 C   0  0  0  0  0  0  0  0  0  1  0  0
  -25.9385  -20.1619   18.0379 C   0  0  1  0  0  0  0  0  0  0  0  0
  -30.5885  -29.7678   16.1699 C   0  0  1  0  0  0  0  0  0  0  0  0
  -28.6034  -29.4613   12.9551 C   0  0  2  0  0  0  0  0  0  0  0  0
  -30.6842  -31.1271   16.9186 C   0  0  0  0  0  0  0  0  0  0  0  0
  -25.8625  -11.6076   20.2463 N   0  0  0  0  0  0  0  0  0  0  0  0
  -26.1682  -12.8878   19.9748 N   0  0  0  0  0  0  0  0  0  0  0  0
  -30.2023  -16.0334   20.8107 N   0  0  0  0  0  0  0  0  0  0  0  0
  -32.0225  -27.8099   16.6539 N   0  0  0  0  0  0  0  0  0  0  0  0
  -29.8789  -13.8341   19.9225 N   0  0  0  0  0  0  0  0  0  0  0  0
  -25.3120  -15.0944   20.0665 N   0  0  0  0  0  0  0  0  0  0  0  0
  -21.9327  -12.5961   21.7203 N   0  0  0  0  0  0  0  0  0  0  0  0
  -26.6077  -18.9850   17.5756 N   0  0  0  0  0  0  0  0  0  0  0  0
  -35.2505  -27.6495   18.1653 N   0  0  0  0  0  0  0  0  0  0  0  0
  -30.0685  -29.8696   14.8106 N   0  0  0  0  0  0  0  0  0  0  0  0
  -28.0019  -28.2524   12.3244 N   0  3  0  0  0  0  0  0  0  0  0  0
  -22.5849  -14.7303   21.1922 O   0  0  0  0  0  0  0  0  0  0  0  0
  -33.1026  -27.6228   19.0643 O   0  0  0  0  0  0  0  0  0  0  0  0
  -27.7849  -21.4168   17.1244 O   0  0  0  0  0  0  0  0  0  0  0  0
  -32.8487  -29.6357   15.4622 O   0  0  0  0  0  0  0  0  0  0  0  0
  -28.2691  -28.4400   15.1190 O   0  0  0  0  0  0  0  0  0  0  0  0
  -31.9503  -14.5412   20.6828 O   0  0  0  0  0  0  0  0  0  0  0  0
  -21.9360   -7.0622   22.3607 O   0  0  0  0  0  0  0  0  0  0  0  0
  -29.0544  -22.9977   19.1428 O   0  0  0  0  0  0  0  0  0  1  0  0
  -16.6746   -6.4774   20.8181 F   0  0  0  0  0  0  0  0  0  0  0  0
  -21.1420   -4.9129   20.8138 F   0  0  0  0  0  0  0  0  0  0  0  0
  1  2  1  0  0  0  0
  1  5  2  0  0  0  0
  2  6  2  0  0  0  0
  3 10  2  0  0  0  0
  3 18  1  0  0  0  0
  4 11  1  0  0  0  0
  4 18  2  0  0  0  0
  5 20  1  0  0  0  0
  6 22  1  0  0  0  0
  7 12  2  0  0  0  0
  7 21  1  0  0  0  0
  8  9  2  0  0  0  0
  8 25  1  0  0  0  0
  9 26  1  0  0  0  0
 10 27  1  0  0  0  0
 11 27  2  0  0  0  0
 12 28  1  0  0  0  0
 13 14  2  0  0  0  0
 13 29  1  0  0  0  0
 14 30  1  0  0  0  0
 15 23  1  0  0  0  0
 15 26  2  0  0  0  0
 16 24  1  0  0  0  0
 16 28  2  0  0  0  0
 17 30  2  0  0  0  0
 17 31  1  0  0  0  0
 18 32  1  0  0  0  0
 19 32  1  0  0  0  0
 19 33  2  0  0  0  0
 19 34  1  0  0  0  0
 20 22  2  0  0  0  0
 20 40  1  0  0  0  0
 21 24  2  0  0  0  0
 21 41  1  0  0  0  0
 22 52  1  0  0  0  0
 23 25  2  0  0  0  0
 23 42  1  0  0  0  0
 24 43  1  0  0  0  0
 25 69  1  0  0  0  0
 26 74  1  0  0  0  0
 27 84  1  0  0  0  0
 28 85  1  0  0  0  0
 29 31  2  0  0  0  0
 29 84  1  0  0  0  0
 30 86  1  0  0  0  0
 31 87  1  0  0  0  0
 32 67  2  0  0  0  0
 33 68  1  0  0  0  0
 33 72  1  0  0  0  0
 34 73  1  0  0  0  0
 34 78  2  0  0  0  0
 35 53  1  0  0  0  0
 35 75  1  0  0  0  0
 35 79  2  0  0  0  0
 36 61  1  0  0  0  0
 36 63  1  0  0  0  0
 36 80  2  0  0  0  0
 37 64  1  0  0  0  0
 37 70  1  0  0  0  0
 37 81  2  0  0  0  0
 38 65  1  0  0  0  0
 38 76  1  0  0  0  0
 38 82  2  0  0  0  0
 39 69  1  0  0  0  0
 39 71  1  0  0  0  0
 39 83  2  0  0  0  0
 40 44  1  0  0  0  0
 41 53  1  0  0  0  0
 42 45  1  0  0  0  0
 43 70  1  0  0  0  0
 44 47  1  0  0  0  0
 45 49  1  0  0  0  0
 46 48  1  0  0  0  0
 46 50  1  0  0  0  0
 47 52  1  0  0  0  0
 48 54  1  0  0  0  0
 49 69  1  0  0  0  0
 50 71  1  0  0  0  0
 51 54  1  0  0  0  0
 51 71  1  0  0  0  0
 52 75  1  0  0  0  0
 53 70  1  0  0  0  0
 54 68  1  0  0  0  0
 55 63  1  0  0  0  0
 56 65  1  0  0  0  0
 57 66  1  0  0  0  0
 58 66  1  0  0  0  0
 59 66  1  0  0  0  0
 60 77  1  0  0  0  0
 61 62  1  0  0  0  0
 62 85  1  0  0  0  0
 63 74  1  0  0  0  0
 64 66  1  0  0  0  0
 64 76  1  0  0  0  0
 65 77  1  0  0  0  0
 67 68  1  0  0  0  0
M  CHG  1  77   1
M  ISO  4  39 100  62 101  69 100  85 101
M  END
> <Batch ID>
0148

> <Smiles>
CNC(C)C(=O)NC(C(=O)N1Cc2cc([101O:1][101CH2:1]CC(=O)C(C)Nc3ccc4c(c3)CCC[100N:0]4[100C:0](=O)N3CCCC(n4nc(-c5ccc(Oc6ccc(F)cc6F)cc5)c(C(N)=O)c4N)C3)ccc2CC1C(=O)NC1CCCc2ccccc21)C(C)(C)C

> <Shape>
0.215

> <Color>
0.185

> <Negative vol penalty>
0.000

$$$$

  -OEChem-04052303163D

 85 94  0     1  0  0  0  0  0999 V2000
  -24.6305  -36.2243   21.8331 C   0  0  0  0  0  0  0  0  0  0  0  0
  -25.4157  -35.5389   20.9116 C   0  0  0  0  0  0  0  0  0  0  0  0
  -23.1773  -11.4514   23.5713 C   0  0  0  0  0  0  0  0  0  0  0  0
  -24.6632   -9.8395   22.5559 C   0  0  0  0  0  0  0  0  0  0  0  0
  -24.4549  -35.7096   23.1169 C   0  0  0  0  0  0  0  0  0  0  0  0
  -26.0265  -34.3389   21.2737 C   0  0  0  0  0  0  0  0  0  0  0  0
  -28.0064  -28.0289   18.5204 C   0  0  0  0  0  0  0  0  0  0  0  0
  -22.5669  -10.4302   24.2994 C   0  0  0  0  0  0  0  0  0  0  0  0
  -24.0528   -8.8183   23.2840 C   0  0  0  0  0  0  0  0  0  0  0  0
  -29.1217  -27.1978   18.4248 C   0  0  0  0  0  0  0  0  0  0  0  0
  -21.2174   -6.9851   23.1086 C   0  0  0  0  0  0  0  0  0  0  0  0
  -20.8965   -5.8089   22.4312 C   0  0  0  0  0  0  0  0  0  0  0  0
  -29.7454  -20.1140   20.7449 C   0  0  0  0  0  0  0  0  0  0  0  0
  -28.6831  -26.3639   20.6456 C   0  0  0  0  0  0  0  0  0  0  0  0
  -22.3257   -4.5587   23.9249 C   0  0  0  0  0  0  0  0  0  0  0  0
  -24.2254  -11.1561   22.6995 C   0  0  0  0  0  0  0  0  0  0  0  0
  -29.3258  -21.4232   20.3704 C   0  0  0  0  0  0  0  0  0  0  0  0
  -24.2454  -13.0735   21.0170 C   0  0  0  0  0  0  0  0  0  0  0  0
  -25.0561  -34.4977   23.4919 C   0  0  0  0  0  0  0  0  0  0  0  0
  -27.2261  -28.0417   19.6855 C   0  0  0  0  0  0  0  0  0  0  0  0
  -25.8599  -33.8081   22.5641 C   0  0  0  0  0  0  0  0  0  0  0  0
  -27.5570  -27.1942   20.7524 C   0  0  0  0  0  0  0  0  0  0  0  0
  -23.0047   -9.1136   24.1557 C   0  0  0  0  0  0  0  0  0  0  0  0
  -29.4619  -26.3673   19.4886 C   0  0  0  0  0  0  0  0  0  0  0  0
  -22.0925   -6.9482   24.1942 C   0  0  0  0  0  0  0  0  0  0  0  0
  -21.4506   -4.5956   22.8393 C   0  0  0  0  0  0  0  0  0  0  0  0
  -22.6467   -5.7350   24.6024 C   0  0  0  0  0  0  0  0  0  0  0  0
  -24.8559  -12.2106   21.9467 C   0  0  0  0  0  0  0  0  0  0  0  0
  -25.2635  -13.8875   20.5841 C   0  0  0  0  0  0  0  0  0  0  0  0
  -28.6780  -19.2697   20.9579 C   0  0  0  0  0  0  0  0  0  0  0  0
  -27.9535  -21.5295   20.3113 C   0  0  0  0  0  0  0  0  0  0  0  0
  -30.2351  -22.5392   20.0753 C   0  0  0  0  0  0  0  0  0  0  0  0
  -22.8800  -13.1340   20.5836 C   0  0  0  0  0  0  0  0  0  0  0  0
  -26.4840  -30.2342   21.8641 C   0  0  0  0  0  0  0  0  0  0  0  0
  -24.5308  -27.8984   22.9828 C   0  0  0  0  0  0  0  0  0  0  0  0
  -23.8303  -24.5655   23.2018 C   0  0  0  0  0  0  0  0  0  0  0  0
  -29.7219  -17.0667   21.5930 C   0  0  0  0  0  0  0  0  0  0  0  0
  -24.8758  -34.0050   24.9059 C   0  0  0  0  0  0  0  0  0  0  0  0
  -26.0107  -28.9245   19.7625 C   0  0  0  0  0  0  0  0  0  0  0  0
  -26.7401  -27.1556   22.0172 C   0  0  0  0  0  0  0  0  0  0  0  0
  -25.2522  -32.5373   25.0921 C   0  0  0  0  0  0  0  0  0  0  0  0
  -30.2659  -13.5615   21.2848 C   0  0  0  0  0  0  0  0  0  0  0  0
  -30.7461  -22.3802   16.4203 C   0  0  0  0  0  0  0  0  0  0  0  0
  -26.5903  -32.2403   24.4226 C   0  0  0  0  0  0  0  0  0  0  0  0
  -28.8567  -12.9686   21.3531 C   0  0  0  0  0  0  0  0  0  0  0  0
  -31.9795  -23.1612   16.8594 C   0  0  0  0  0  0  0  0  0  0  0  0
  -30.2205  -21.7962   17.7202 C   0  0  0  0  0  0  0  0  0  0  0  0
  -30.4207  -14.7643   22.2139 C   0  0  0  0  0  0  0  0  0  0  0  0
  -28.0028  -15.2242   22.1080 C   0  0  0  0  0  0  0  0  0  0  0  0
  -26.5188  -32.4908   22.9115 C   0  0  1  0  0  0  0  0  0  0  0  0
  -25.5858  -29.2326   21.1949 C   0  0  1  0  0  0  0  0  0  0  0  0
  -27.7793  -14.0501   21.1409 C   0  0  2  0  0  0  0  0  0  0  0  0
  -31.5844  -23.7236   18.2283 C   0  0  1  0  0  0  0  0  0  0  0  0
  -22.1893  -22.9599   24.2150 C   0  0  0  0  0  0  0  0  0  0  0  0
  -25.8495  -28.2743   25.7085 C   0  0  0  0  0  0  0  0  0  0  0  0
  -24.8851  -26.0702   26.4014 C   0  0  0  0  0  0  0  0  0  0  0  0
  -23.3704  -27.9537   25.7844 C   0  0  0  0  0  0  0  0  0  0  0  0
  -22.9956  -23.5619   20.5457 C   0  0  0  0  0  0  0  0  0  0  0  0
  -30.9046  -25.0864   18.0979 C   0  0  0  0  0  0  0  0  0  1  0  0
  -24.6746  -26.7673   23.9723 C   0  0  1  0  0  0  0  0  0  0  0  0
  -22.5418  -23.7910   22.9912 C   0  0  2  0  0  0  0  0  0  0  0  0
  -24.7116  -27.2683   25.4437 C   0  0  0  0  0  0  0  0  0  0  0  0
  -26.1608  -12.4535   22.0961 N   0  0  0  0  0  0  0  0  0  0  0  0
  -26.3785  -13.4783   21.2544 N   0  0  0  0  0  0  0  0  0  0  0  0
  -30.6646  -22.7090   18.7653 N   0  0  0  0  0  0  0  0  0  0  0  0
  -25.5648  -28.0417   22.0468 N   0  0  0  0  0  0  0  0  0  0  0  0
  -29.3685  -15.7489   21.9526 N   0  0  0  0  0  0  0  0  0  0  0  0
  -25.3047  -14.9061   19.6991 N   0  0  0  0  0  0  0  0  0  0  0  0
  -27.2297  -22.6322   19.9878 N   0  0  0  0  0  0  0  0  0  0  0  0
  -22.4958  -12.3653   19.4764 N   0  0  0  0  0  0  0  0  0  0  0  0
  -28.6373  -17.9050   21.3371 N   0  0  0  0  0  0  0  0  0  0  0  0
  -25.8427  -31.3960   22.2491 N   0  0  0  0  0  0  0  0  0  0  0  0
  -23.5904  -25.8341   23.6859 N   0  0  0  0  0  0  0  0  0  0  0  0
  -22.6731  -22.8751   21.8229 N   0  3  0  0  0  0  0  0  0  0  0  0
  -30.5563  -23.2578   21.0208 O   0  0  0  0  0  0  0  0  0  0  0  0
  -22.0298  -13.8612   21.1510 O   0  0  0  0  0  0  0  0  0  0  0  0
  -27.6706  -29.9716   22.0209 O   0  0  0  0  0  0  0  0  0  0  0  0
  -23.5341  -28.6235   23.0338 O   0  0  0  0  0  0  0  0  0  0  0  0
  -24.9390  -24.0911   22.9646 O   0  0  0  0  0  0  0  0  0  0  0  0
  -30.9002  -17.4177   21.4910 O   0  0  0  0  0  0  0  0  0  0  0  0
  -22.4095   -8.1168   24.8662 O   0  0  0  0  0  0  0  0  0  0  0  0
  -30.5504  -25.5555   19.3982 O   0  0  0  0  0  0  0  0  0  1  0  0
  -21.1411   -3.4659   22.1896 F   0  0  0  0  0  0  0  0  0  0  0  0
  -23.4871   -5.6931   25.6453 F   0  0  0  0  0  0  0  0  0  0  0  0
  -27.1773  -20.0552   20.7065 S   0  0  0  0  0  0  0  0  0  0  0  0
  1  2  1  0  0  0  0
  1  5  2  0  0  0  0
  2  6  2  0  0  0  0
  3  8  2  0  0  0  0
  3 16  1  0  0  0  0
  4  9  1  0  0  0  0
  4 16  2  0  0  0  0
  5 19  1  0  0  0  0
  6 21  1  0  0  0  0
  7 10  2  0  0  0  0
  7 20  1  0  0  0  0
  8 23  1  0  0  0  0
  9 23  2  0  0  0  0
 10 24  1  0  0  0  0
 11 12  2  0  0  0  0
 11 25  1  0  0  0  0
 12 26  1  0  0  0  0
 13 17  1  0  0  0  0
 13 30  2  0  0  0  0
 14 22  1  0  0  0  0
 14 24  2  0  0  0  0
 15 26  2  0  0  0  0
 15 27  1  0  0  0  0
 16 28  1  0  0  0  0
 17 31  2  0  0  0  0
 17 32  1  0  0  0  0
 18 28  1  0  0  0  0
 18 29  2  0  0  0  0
 18 33  1  0  0  0  0
 19 21  2  0  0  0  0
 19 38  1  0  0  0  0
 20 22  2  0  0  0  0
 20 39  1  0  0  0  0
 21 50  1  0  0  0  0
 22 40  1  0  0  0  0
 23 81  1  0  0  0  0
 24 82  1  0  0  0  0
 25 27  2  0  0  0  0
 25 81  1  0  0  0  0
 26 83  1  0  0  0  0
 27 84  1  0  0  0  0
 28 63  2  0  0  0  0
 29 64  1  0  0  0  0
 29 68  1  0  0  0  0
 30 71  1  0  0  0  0
 30 85  1  0  0  0  0
 31 69  1  0  0  0  0
 31 85  1  0  0  0  0
 32 65  1  0  0  0  0
 32 75  2  0  0  0  0
 33 70  1  0  0  0  0
 33 76  2  0  0  0  0
 34 51  1  0  0  0  0
 34 72  1  0  0  0  0
 34 77  2  0  0  0  0
 35 60  1  0  0  0  0
 35 66  1  0  0  0  0
 35 78  2  0  0  0  0
 36 61  1  0  0  0  0
 36 73  1  0  0  0  0
 36 79  2  0  0  0  0
 37 67  1  0  0  0  0
 37 71  1  0  0  0  0
 37 80  2  0  0  0  0
 38 41  1  0  0  0  0
 39 51  1  0  0  0  0
 40 66  1  0  0  0  0
 41 44  1  0  0  0  0
 42 45  1  0  0  0  0
 42 48  1  0  0  0  0
 43 46  1  0  0  0  0
 43 47  1  0  0  0  0
 44 50  1  0  0  0  0
 45 52  1  0  0  0  0
 46 53  1  0  0  0  0
 47 65  1  0  0  0  0
 48 67  1  0  0  0  0
 49 52  1  0  0  0  0
 49 67  1  0  0  0  0
 50 72  1  0  0  0  0
 51 66  1  0  0  0  0
 52 64  1  0  0  0  0
 53 59  1  0  0  0  0
 53 65  1  0  0  0  0
 54 61  1  0  0  0  0
 55 62  1  0  0  0  0
 56 62  1  0  0  0  0
 57 62  1  0  0  0  0
 58 74  1  0  0  0  0
 59 82  1  0  0  0  0
 60 62  1  0  0  0  0
 60 73  1  0  0  0  0
 61 74  1  0  0  0  0
 63 64  1  0  0  0  0
M  CHG  1  74   1
M  ISO  4  37 100  59 101  71 100  82 101
M  END
> <Batch ID>
0148

> <Smiles>
CNC(C)C(=O)NC(C(=O)N1Cc2cc([101O:1][101CH2:1]C3CCCN3C(=O)c3cc([100NH:0][100C:0](=O)N4CCCC(n5nc(-c6ccc(Oc7ccc(F)cc7F)cc6)c(C(N)=O)c5N)C4)sc3N)ccc2CC1C(=O)NC1CCCc2ccccc21)C(C)(C)C

> <Shape>
0.310

> <Color>
0.096

> <Negative vol penalty>
0.000

$$$$

  -OEChem-04052303163D

 88 97  0     1  0  0  0  0  0999 V2000
  -16.5698  -29.8969   24.3244 C   0  0  0  0  0  0  0  0  0  0  0  0
  -17.4893  -29.0761   24.9695 C   0  0  0  0  0  0  0  0  0  0  0  0
  -33.2916  -16.7200   23.3364 C   0  0  0  0  0  0  0  0  0  0  0  0
  -22.8578  -10.2197   20.0124 C   0  0  0  0  0  0  0  0  0  0  0  0
  -23.7219  -10.0492   22.2621 C   0  0  0  0  0  0  0  0  0  0  0  0
  -32.6191  -17.6245   24.1581 C   0  0  0  0  0  0  0  0  0  0  0  0
  -16.5817  -29.9968   22.9338 C   0  0  0  0  0  0  0  0  0  0  0  0
  -18.4206  -28.3538   24.2242 C   0  0  0  0  0  0  0  0  0  0  0  0
  -25.1389  -25.8906   24.5609 C   0  0  0  0  0  0  0  0  0  0  0  0
  -32.5773  -15.9388   22.4279 C   0  0  0  0  0  0  0  0  0  0  0  0
  -22.0167   -9.1333   20.2531 C   0  0  0  0  0  0  0  0  0  0  0  0
  -22.8807   -8.9628   22.5029 C   0  0  0  0  0  0  0  0  0  0  0  0
  -25.8620  -24.7090   24.4037 C   0  0  0  0  0  0  0  0  0  0  0  0
  -19.6217   -8.4529   23.2373 C   0  0  0  0  0  0  0  0  0  0  0  0
  -18.9205   -8.4328   24.4429 C   0  0  0  0  0  0  0  0  0  0  0  0
  -30.5181  -16.9665   23.1630 C   0  0  0  0  0  0  0  0  0  0  0  0
  -25.8400  -25.0209   22.0117 C   0  0  0  0  0  0  0  0  0  0  0  0
  -19.9986   -6.3534   25.0353 C   0  0  0  0  0  0  0  0  0  0  0  0
  -23.7104  -10.6776   21.0169 C   0  0  0  0  0  0  0  0  0  0  0  0
  -31.2324  -17.7477   24.0714 C   0  0  0  0  0  0  0  0  0  0  0  0
  -24.2930  -13.1610   20.9822 C   0  0  0  0  0  0  0  0  0  0  0  0
  -17.5198  -29.2828   22.1717 C   0  0  0  0  0  0  0  0  0  0  0  0
  -24.7509  -26.6418   23.4421 C   0  0  0  0  0  0  0  0  0  0  0  0
  -18.4441  -28.4431   22.8220 C   0  0  0  0  0  0  0  0  0  0  0  0
  -25.1143  -26.2130   22.1576 C   0  0  0  0  0  0  0  0  0  0  0  0
  -31.1906  -16.0620   22.3412 C   0  0  0  0  0  0  0  0  0  0  0  0
  -22.0281   -8.5049   21.4983 C   0  0  0  0  0  0  0  0  0  0  0  0
  -26.2102  -24.2725   23.1288 C   0  0  0  0  0  0  0  0  0  0  0  0
  -20.5113   -7.4232   22.9306 C   0  0  0  0  0  0  0  0  0  0  0  0
  -19.1090   -7.3831   25.3419 C   0  0  0  0  0  0  0  0  0  0  0  0
  -20.6998   -6.3735   23.8296 C   0  0  0  0  0  0  0  0  0  0  0  0
  -24.5799  -11.7994   20.7687 C   0  0  0  0  0  0  0  0  0  0  0  0
  -25.4352  -13.8176   20.5942 C   0  0  0  0  0  0  0  0  0  0  0  0
  -30.5210  -18.7035   24.9389 C   0  0  0  0  0  0  0  0  0  0  0  0
  -23.1005  -13.7771   21.4864 C   0  0  0  0  0  0  0  0  0  0  0  0
  -21.9662  -27.5233   22.1882 C   0  0  0  0  0  0  0  0  0  0  0  0
  -23.8547  -29.2369   20.1833 C   0  0  0  0  0  0  0  0  0  0  0  0
  -26.9088  -29.6361   18.7137 C   0  0  0  0  0  0  0  0  0  0  0  0
  -30.9799  -14.3232   20.5306 C   0  0  0  0  0  0  0  0  0  0  0  0
  -17.4632  -29.3861   20.6681 C   0  0  0  0  0  0  0  0  0  0  0  0
  -23.9942  -27.9281   23.6302 C   0  0  0  0  0  0  0  0  0  0  0  0
  -24.7395  -26.9937   20.9253 C   0  0  0  0  0  0  0  0  0  0  0  0
  -18.7247  -28.8778   19.9747 C   0  0  0  0  0  0  0  0  0  0  0  0
  -29.5231  -12.1380   18.1264 C   0  0  0  0  0  0  0  0  0  0  0  0
  -19.1506  -27.5347   20.5590 C   0  0  0  0  0  0  0  0  0  0  0  0
  -28.0836  -11.9671   18.6171 C   0  0  0  0  0  0  0  0  0  0  0  0
  -29.3183  -21.5009   22.9877 C   0  0  0  0  0  0  0  0  0  0  0  0
  -30.5119  -12.2228   19.2878 C   0  0  0  0  0  0  0  0  0  0  0  0
  -30.1871  -20.2535   23.0838 C   0  0  0  0  0  0  0  0  0  0  0  0
  -28.7526  -13.0639   20.7934 C   0  0  0  0  0  0  0  0  0  0  0  0
  -19.4858  -27.6630   22.0499 C   0  0  1  0  0  0  0  0  0  0  0  0
  -23.2076  -28.3452   22.3914 C   0  0  1  0  0  0  0  0  0  0  0  0
  -27.7131  -13.0388   19.6610 C   0  0  2  0  0  0  0  0  0  0  0  0
  -28.0371  -21.1378   23.7691 C   0  0  2  0  0  0  0  0  0  0  0  0
  -28.6100  -20.3305   24.9948 C   0  0  0  0  0  0  0  0  0  0  0  0
  -27.1202  -20.2877   22.8606 C   0  0  0  0  0  0  0  0  0  0  0  0
  -27.6424  -19.2789   25.5470 C   0  0  0  0  0  0  0  0  0  0  0  0
  -29.1131  -21.2176   26.1464 C   0  0  0  0  0  0  0  0  0  0  0  0
  -28.1380  -31.1055   17.0928 C   0  0  0  0  0  0  0  0  0  0  0  0
  -22.3969  -27.8936   17.8638 C   0  0  0  0  0  0  0  0  0  0  0  0
  -24.2496  -28.6439   16.3562 C   0  0  0  0  0  0  0  0  0  0  0  0
  -22.8467  -30.3324   17.5409 C   0  0  0  0  0  0  0  0  0  0  0  0
  -28.8861  -30.4406   20.7635 C   0  0  0  0  0  0  0  0  0  0  0  0
  -27.2656  -22.4063   24.1580 C   0  0  0  0  0  0  0  0  0  1  0  0
  -24.5230  -28.9713   18.8560 C   0  0  1  0  0  0  0  0  0  0  0  0
  -27.7980  -30.8560   18.5540 C   0  0  2  0  0  0  0  0  0  0  0  0
  -23.5096  -28.9444   17.6771 C   0  0  0  0  0  0  0  0  0  0  0  0
  -25.8081  -11.6014   20.2825 N   0  0  0  0  0  0  0  0  0  0  0  0
  -26.3030  -12.8472   20.1873 N   0  0  0  0  0  0  0  0  0  0  0  0
  -29.8122  -19.6778   24.3894 N   0  0  0  0  0  0  0  0  0  0  0  0
  -23.9944  -28.2415   21.1608 N   0  0  0  0  0  0  0  0  0  0  0  0
  -30.0990  -13.2617   20.2339 N   0  0  0  0  0  0  0  0  0  0  0  0
  -25.7719  -15.1246   20.5647 N   0  0  0  0  0  0  0  0  0  0  0  0
  -22.0211  -12.9551   21.8379 N   0  0  0  0  0  0  0  0  0  0  0  0
  -30.4659  -15.2681   21.4181 N   0  0  0  0  0  0  0  0  0  0  0  0
  -20.7947  -28.2553   22.2244 N   0  0  0  0  0  0  0  0  0  0  0  0
  -25.5723  -29.9755   18.7191 N   0  0  0  0  0  0  0  0  0  0  0  0
  -30.6006  -18.5715   26.2597 N   0  3  0  0  0  0  0  0  0  0  0  0
  -29.0704  -30.6717   19.3077 N   0  3  0  0  0  0  0  0  0  0  0  0
  -22.9895  -15.0208   21.6058 O   0  0  0  0  0  0  0  0  0  0  0  0
  -22.0641  -26.3148   22.0103 O   0  0  0  0  0  0  0  0  0  0  0  0
  -23.2376  -30.2921   20.3492 O   0  0  0  0  0  0  0  0  0  0  0  0
  -27.3549  -28.4958   18.8191 O   0  0  0  0  0  0  0  0  0  0  0  0
  -32.0968  -14.4035   20.0129 O   0  0  0  0  0  0  0  0  0  0  0  0
  -21.2073   -7.4449   21.7336 O   0  0  0  0  0  0  0  0  0  0  0  0
  -26.9154  -23.1192   22.9725 O   0  0  0  0  0  0  0  0  0  1  0  0
  -18.4367   -7.3647   26.5003 F   0  0  0  0  0  0  0  0  0  0  0  0
  -21.5540   -5.3820   23.5411 F   0  0  0  0  0  0  0  0  0  0  0  0
  1  2  1  0  0  0  0
  1  7  2  0  0  0  0
  2  8  2  0  0  0  0
  3  6  2  0  0  0  0
  3 10  1  0  0  0  0
  4 11  2  0  0  0  0
  4 19  1  0  0  0  0
  5 12  1  0  0  0  0
  5 19  2  0  0  0  0
  6 20  1  0  0  0  0
  7 22  1  0  0  0  0
  8 24  1  0  0  0  0
  9 13  2  0  0  0  0
  9 23  1  0  0  0  0
 10 26  2  0  0  0  0
 11 27  1  0  0  0  0
 12 27  2  0  0  0  0
 13 28  1  0  0  0  0
 14 15  2  0  0  0  0
 14 29  1  0  0  0  0
 15 30  1  0  0  0  0
 16 20  2  0  0  0  0
 16 26  1  0  0  0  0
 17 25  1  0  0  0  0
 17 28  2  0  0  0  0
 18 30  2  0  0  0  0
 18 31  1  0  0  0  0
 19 32  1  0  0  0  0
 20 34  1  0  0  0  0
 21 32  1  0  0  0  0
 21 33  2  0  0  0  0
 21 35  1  0  0  0  0
 22 24  2  0  0  0  0
 22 40  1  0  0  0  0
 23 25  2  0  0  0  0
 23 41  1  0  0  0  0
 24 51  1  0  0  0  0
 25 42  1  0  0  0  0
 26 75  1  0  0  0  0
 27 85  1  0  0  0  0
 28 86  1  0  0  0  0
 29 31  2  0  0  0  0
 29 85  1  0  0  0  0
 30 87  1  0  0  0  0
 31 88  1  0  0  0  0
 32 68  2  0  0  0  0
 33 69  1  0  0  0  0
 33 73  1  0  0  0  0
 34 70  1  0  0  0  0
 34 78  2  0  0  0  0
 35 74  1  0  0  0  0
 35 80  2  0  0  0  0
 36 52  1  0  0  0  0
 36 76  1  0  0  0  0
 36 81  2  0  0  0  0
 37 65  1  0  0  0  0
 37 71  1  0  0  0  0
 37 82  2  0  0  0  0
 38 66  1  0  0  0  0
 38 77  1  0  0  0  0
 38 83  2  0  0  0  0
 39 72  1  0  0  0  0
 39 75  1  0  0  0  0
 39 84  2  0  0  0  0
 40 43  1  0  0  0  0
 41 52  1  0  0  0  0
 42 71  1  0  0  0  0
 43 45  1  0  0  0  0
 44 46  1  0  0  0  0
 44 48  1  0  0  0  0
 45 51  1  0  0  0  0
 46 53  1  0  0  0  0
 47 49  1  0  0  0  0
 47 54  1  0  0  0  0
 48 72  1  0  0  0  0
 49 70  1  0  0  0  0
 50 53  1  0  0  0  0
 50 72  1  0  0  0  0
 51 76  1  0  0  0  0
 52 71  1  0  0  0  0
 53 69  1  0  0  0  0
 54 55  1  0  0  0  0
 54 56  1  0  0  0  0
 54 64  1  0  0  0  0
 55 57  1  0  0  0  0
 55 58  1  0  0  0  0
 55 70  1  0  0  0  0
 59 66  1  0  0  0  0
 60 67  1  0  0  0  0
 61 67  1  0  0  0  0
 62 67  1  0  0  0  0
 63 79  1  0  0  0  0
 64 86  1  0  0  0  0
 65 67  1  0  0  0  0
 65 77  1  0  0  0  0
 66 79  1  0  0  0  0
 68 69  1  0  0  0  0
M  CHG  2  78   1  79   1
M  ISO  4  39 100  64 101  75 100  86 101
M  END
> <Batch ID>
0148

> <Smiles>
CNC(C)C(=O)NC(C(=O)N1Cc2cc([101O:1][101CH2:1]C3(C)CCN(C(=N)c4cccc([100NH:0][100C:0](=O)N5CCCC(n6nc(-c7ccc(Oc8ccc(F)cc8F)cc7)c(C(N)=O)c6N)C5)c4)C3(C)C)ccc2CC1C(=O)NC1CCCc2ccccc21)C(C)(C)C

> <Shape>
0.259

> <Color>
0.184

> <Negative vol penalty>
0.000

$$$$

  -OEChem-04052303163D

 83 91  0     1  0  0  0  0  0999 V2000
  -18.7100  -32.9339   20.0015 C   0  0  0  0  0  0  0  0  0  0  0  0
  -20.0610  -32.7010   19.7653 C   0  0  0  0  0  0  0  0  0  0  0  0
  -26.7058  -12.5457   21.7414 C   0  0  0  0  0  0  0  0  0  0  0  0
  -25.9602  -14.0041   19.9654 C   0  0  0  0  0  0  0  0  0  0  0  0
  -18.1033  -32.4130   21.1436 C   0  0  0  0  0  0  0  0  0  0  0  0
  -20.8065  -31.9480   20.6717 C   0  0  0  0  0  0  0  0  0  0  0  0
  -25.4113  -28.1252   19.3725 C   0  0  0  0  0  0  0  0  0  0  0  0
  -25.4307  -11.9851   21.8164 C   0  0  0  0  0  0  0  0  0  0  0  0
  -24.6852  -13.4435   20.0403 C   0  0  0  0  0  0  0  0  0  0  0  0
  -26.7966  -28.2765   19.4158 C   0  0  0  0  0  0  0  0  0  0  0  0
  -22.4682   -9.9192   22.2290 C   0  0  0  0  0  0  0  0  0  0  0  0
  -22.3745   -8.5303   22.3171 C   0  0  0  0  0  0  0  0  0  0  0  0
  -26.8306  -27.2807   21.6127 C   0  0  0  0  0  0  0  0  0  0  0  0
  -30.2656  -22.8766   20.5666 C   0  0  0  0  0  0  0  0  0  0  0  0
  -23.5114   -8.3190   20.1958 C   0  0  0  0  0  0  0  0  0  0  0  0
  -29.1209  -22.8868   18.6520 C   0  0  0  0  0  0  0  0  0  0  0  0
  -26.9705  -13.5553   20.8160 C   0  0  0  0  0  0  0  0  0  0  0  0
  -29.3598  -13.7047   19.9346 C   0  0  0  0  0  0  0  0  0  0  0  0
  -18.8394  -31.6451   22.0597 C   0  0  0  0  0  0  0  0  0  0  0  0
  -24.7229  -27.5595   20.4554 C   0  0  0  0  0  0  0  0  0  0  0  0
  -20.2094  -31.4175   21.8279 C   0  0  0  0  0  0  0  0  0  0  0  0
  -25.4369  -27.1210   21.5796 C   0  0  0  0  0  0  0  0  0  0  0  0
  -29.8601  -23.6942   19.4848 C   0  0  0  0  0  0  0  0  0  0  0  0
  -24.4204  -12.4340   20.9658 C   0  0  0  0  0  0  0  0  0  0  0  0
  -27.5062  -27.8569   20.5372 C   0  0  0  0  0  0  0  0  0  0  0  0
  -23.0834  -10.5080   21.1242 C   0  0  0  0  0  0  0  0  0  0  0  0
  -22.8962   -7.7302   21.3006 C   0  0  0  0  0  0  0  0  0  0  0  0
  -23.6050   -9.7079   20.1076 C   0  0  0  0  0  0  0  0  0  0  0  0
  -28.2873  -14.1351   20.7385 C   0  0  0  0  0  0  0  0  0  0  0  0
  -30.3785  -14.5793   20.2240 C   0  0  0  0  0  0  0  0  0  0  0  0
  -29.7451  -21.6279   20.3179 C   0  0  0  0  0  0  0  0  0  0  0  0
  -29.4289  -12.6120   19.0089 C   0  0  0  0  0  0  0  0  0  0  0  0
  -22.4855  -28.5786   22.4702 C   0  0  0  0  0  0  0  0  0  0  0  0
  -22.5422  -25.4963   23.4795 C   0  0  0  0  0  0  0  0  0  0  0  0
  -24.2740  -22.5682   23.7517 C   0  0  0  0  0  0  0  0  0  0  0  0
  -30.8825  -25.9187   20.0874 C   0  0  0  0  0  0  0  0  0  0  0  0
  -30.4813  -20.1975   22.2565 C   0  0  0  0  0  0  0  0  0  0  0  0
  -18.1512  -31.1428   23.3041 C   0  0  0  0  0  0  0  0  0  0  0  0
  -23.2315  -27.3789   20.3820 C   0  0  0  0  0  0  0  0  0  0  0  0
  -24.7473  -26.4889   22.7601 C   0  0  0  0  0  0  0  0  0  0  0  0
  -18.9233  -30.0403   24.0243 C   0  0  0  0  0  0  0  0  0  0  0  0
  -32.0349  -17.3636   23.7507 C   0  0  0  0  0  0  0  0  0  0  0  0
  -20.3957  -30.4170   24.1539 C   0  0  0  0  0  0  0  0  0  0  0  0
  -31.3521  -16.1750   23.0703 C   0  0  0  0  0  0  0  0  0  0  0  0
  -31.0608  -18.5156   23.9915 C   0  0  0  0  0  0  0  0  0  0  0  0
  -29.6368  -17.7716   22.1240 C   0  0  0  0  0  0  0  0  0  0  0  0
  -21.0457  -30.5847   22.7751 C   0  0  1  0  0  0  0  0  0  0  0  0
  -22.5758  -27.2605   21.7544 C   0  0  1  0  0  0  0  0  0  0  0  0
  -30.5930  -16.6116   21.8019 C   0  0  2  0  0  0  0  0  0  0  0  0
  -24.0724  -20.2374   24.6594 C   0  0  0  0  0  0  0  0  0  0  0  0
  -31.6649  -27.3347   18.1534 C   0  0  0  0  0  0  0  0  0  0  0  0
  -31.7774  -28.2555   20.4978 C   0  0  0  0  0  0  0  0  0  0  0  0
  -22.9859  -26.5607   26.3044 C   0  0  0  0  0  0  0  0  0  0  0  0
  -23.7138  -24.2628   26.9810 C   0  0  0  0  0  0  0  0  0  0  0  0
  -21.3916  -24.6399   26.1518 C   0  0  0  0  0  0  0  0  0  0  0  0
  -24.6022  -21.3694   21.0658 C   0  0  0  0  0  0  0  0  0  0  0  0
  -29.5591  -27.9511   19.3403 C   0  0  0  0  0  0  0  0  0  1  0  0
  -23.3200  -24.7259   24.5190 C   0  0  1  0  0  0  0  0  0  0  0  0
  -23.8820  -21.1339   23.4459 C   0  0  2  0  0  0  0  0  0  0  0  0
  -30.9783  -27.3645   19.5303 C   0  0  0  0  0  0  0  0  0  0  0  0
  -22.8659  -25.0610   25.9678 C   0  0  0  0  0  0  0  0  0  0  0  0
  -28.5960  -15.2003   21.4829 N   0  0  0  0  0  0  0  0  0  0  0  0
  -29.8740  -15.4464   21.1480 N   0  0  0  0  0  0  0  0  0  0  0  0
  -23.2873  -26.3398   22.6433 N   0  0  0  0  0  0  0  0  0  0  0  0
  -30.3818  -18.8777   22.7455 N   0  0  0  0  0  0  0  0  0  0  0  0
  -31.6476  -14.6834   19.7758 N   0  0  0  0  0  0  0  0  0  0  0  0
  -28.2909  -11.8133   18.8317 N   0  0  0  0  0  0  0  0  0  0  0  0
  -30.1415  -25.0662   19.2740 N   0  0  0  0  0  0  0  0  0  0  0  0
  -29.8217  -20.4156   21.0474 N   0  0  0  0  0  0  0  0  0  0  0  0
  -21.3352  -29.2921   22.1923 N   0  0  0  0  0  0  0  0  0  0  0  0
  -23.1917  -23.3168   24.1634 N   0  0  0  0  0  0  0  0  0  0  0  0
  -24.7113  -20.5969   22.3301 N   0  3  0  0  0  0  0  0  0  0  0  0
  -30.4742  -12.3416   18.3703 O   0  0  0  0  0  0  0  0  0  0  0  0
  -23.3917  -28.9221   23.2202 O   0  0  0  0  0  0  0  0  0  0  0  0
  -21.3196  -25.3495   23.4073 O   0  0  0  0  0  0  0  0  0  0  0  0
  -25.4259  -22.9822   23.6403 O   0  0  0  0  0  0  0  0  0  0  0  0
  -31.4181  -25.6122   21.1510 O   0  0  0  0  0  0  0  0  0  0  0  0
  -31.1284  -21.0630   22.8516 O   0  0  0  0  0  0  0  0  0  0  0  0
  -29.0459  -21.6257   19.1527 O   0  0  0  0  0  0  0  0  0  0  0  0
  -23.1762  -11.8871   21.0385 O   0  0  0  0  0  0  0  0  0  0  0  0
  -28.8583  -28.0040   20.5823 O   0  0  0  0  0  0  0  0  0  1  0  0
  -22.8076   -6.3964   21.3861 F   0  0  0  0  0  0  0  0  0  0  0  0
  -24.1982  -10.2678   19.0444 F   0  0  0  0  0  0  0  0  0  0  0  0
  1  2  1  0  0  0  0
  1  5  2  0  0  0  0
  2  6  2  0  0  0  0
  3  8  2  0  0  0  0
  3 17  1  0  0  0  0
  4  9  1  0  0  0  0
  4 17  2  0  0  0  0
  5 19  1  0  0  0  0
  6 21  1  0  0  0  0
  7 10  2  0  0  0  0
  7 20  1  0  0  0  0
  8 24  1  0  0  0  0
  9 24  2  0  0  0  0
 10 25  1  0  0  0  0
 11 12  2  0  0  0  0
 11 26  1  0  0  0  0
 12 27  1  0  0  0  0
 13 22  1  0  0  0  0
 13 25  2  0  0  0  0
 14 23  1  0  0  0  0
 14 31  2  0  0  0  0
 15 27  2  0  0  0  0
 15 28  1  0  0  0  0
 16 23  2  0  0  0  0
 16 79  1  0  0  0  0
 17 29  1  0  0  0  0
 18 29  1  0  0  0  0
 18 30  2  0  0  0  0
 18 32  1  0  0  0  0
 19 21  2  0  0  0  0
 19 38  1  0  0  0  0
 20 22  2  0  0  0  0
 20 39  1  0  0  0  0
 21 47  1  0  0  0  0
 22 40  1  0  0  0  0
 23 68  1  0  0  0  0
 24 80  1  0  0  0  0
 25 81  1  0  0  0  0
 26 28  2  0  0  0  0
 26 80  1  0  0  0  0
 27 82  1  0  0  0  0
 28 83  1  0  0  0  0
 29 62  2  0  0  0  0
 30 63  1  0  0  0  0
 30 66  1  0  0  0  0
 31 69  1  0  0  0  0
 31 79  1  0  0  0  0
 32 67  1  0  0  0  0
 32 73  2  0  0  0  0
 33 48  1  0  0  0  0
 33 70  1  0  0  0  0
 33 74  2  0  0  0  0
 34 58  1  0  0  0  0
 34 64  1  0  0  0  0
 34 75  2  0  0  0  0
 35 59  1  0  0  0  0
 35 71  1  0  0  0  0
 35 76  2  0  0  0  0
 36 60  1  0  0  0  0
 36 68  1  0  0  0  0
 36 77  2  0  0  0  0
 37 65  1  0  0  0  0
 37 69  1  0  0  0  0
 37 78  2  0  0  0  0
 38 41  1  0  0  0  0
 39 48  1  0  0  0  0
 40 64  1  0  0  0  0
 41 43  1  0  0  0  0
 42 44  1  0  0  0  0
 42 45  1  0  0  0  0
 43 47  1  0  0  0  0
 44 49  1  0  0  0  0
 45 65  1  0  0  0  0
 46 49  1  0  0  0  0
 46 65  1  0  0  0  0
 47 70  1  0  0  0  0
 48 64  1  0  0  0  0
 49 63  1  0  0  0  0
 50 59  1  0  0  0  0
 51 60  1  0  0  0  0
 52 60  1  0  0  0  0
 53 61  1  0  0  0  0
 54 61  1  0  0  0  0
 55 61  1  0  0  0  0
 56 72  1  0  0  0  0
 57 60  1  0  0  0  0
 57 81  1  0  0  0  0
 58 61  1  0  0  0  0
 58 71  1  0  0  0  0
 59 72  1  0  0  0  0
 62 63  1  0  0  0  0
M  CHG  1  72   1
M  ISO  4  37 100  57 101  69 100  81 101
M  END
> <Batch ID>
0148

> <Smiles>
CNC(C)C(=O)NC(C(=O)N1Cc2cc([101O:1][101CH2:1]C(C)(C)C(=O)Nc3coc([100NH:0][100C:0](=O)N4CCCC(n5nc(-c6ccc(Oc7ccc(F)cc7F)cc6)c(C(N)=O)c5N)C4)c3)ccc2CC1C(=O)NC1CCCc2ccccc21)C(C)(C)C

> <Shape>
0.274

> <Color>
0.106

> <Negative vol penalty>
0.000

$$$$

  -OEChem-04052303163D

 87 96  0     1  0  0  0  0  0999 V2000
  -31.0799  -35.0146   23.9092 C   0  0  0  0  0  0  0  0  0  0  0  0
  -30.7805  -33.6759   23.6772 C   0  0  0  0  0  0  0  0  0  0  0  0
  -24.2307   -9.2770   21.2033 C   0  0  0  0  0  0  0  0  0  0  0  0
  -25.0665  -10.3335   23.2089 C   0  0  0  0  0  0  0  0  0  0  0  0
  -30.0724  -35.8953   24.3008 C   0  0  0  0  0  0  0  0  0  0  0  0
  -29.4736  -33.2170   23.8377 C   0  0  0  0  0  0  0  0  0  0  0  0
  -27.9931  -30.2045   20.0458 C   0  0  0  0  0  0  0  0  0  0  0  0
  -24.0472   -8.0867   21.9068 C   0  0  0  0  0  0  0  0  0  0  0  0
  -24.8829   -9.1432   23.9124 C   0  0  0  0  0  0  0  0  0  0  0  0
  -28.4501  -28.8875   20.0633 C   0  0  0  0  0  0  0  0  0  0  0  0
  -21.7915   -6.7929   24.0681 C   0  0  0  0  0  0  0  0  0  0  0  0
  -20.5920   -6.1066   23.8793 C   0  0  0  0  0  0  0  0  0  0  0  0
  -29.7811  -19.3156   20.0122 C   0  0  0  0  0  0  0  0  0  0  0  0
  -26.3317  -28.1708   20.9677 C   0  0  0  0  0  0  0  0  0  0  0  0
  -27.7137  -20.7308   21.2393 C   0  0  0  0  0  0  0  0  0  0  0  0
  -21.8172   -4.1866   23.0734 C   0  0  0  0  0  0  0  0  0  0  0  0
  -24.7404  -10.4005   21.8543 C   0  0  0  0  0  0  0  0  0  0  0  0
  -30.0098  -20.6028   20.4986 C   0  0  0  0  0  0  0  0  0  0  0  0
  -24.0005  -12.6744   20.9658 C   0  0  0  0  0  0  0  0  0  0  0  0
  -28.7506  -35.4489   24.4568 C   0  0  0  0  0  0  0  0  0  0  0  0
  -26.7037  -30.5166   20.5000 C   0  0  0  0  0  0  0  0  0  0  0  0
  -28.4478  -34.0922   24.2330 C   0  0  0  0  0  0  0  0  0  0  0  0
  -25.8598  -29.4923   20.9525 C   0  0  0  0  0  0  0  0  0  0  0  0
  -28.9762  -21.3104   21.1122 C   0  0  0  0  0  0  0  0  0  0  0  0
  -28.5187  -18.7361   20.1393 C   0  0  0  0  0  0  0  0  0  0  0  0
  -24.3733   -8.0197   23.2614 C   0  0  0  0  0  0  0  0  0  0  0  0
  -27.6204  -27.8708   20.5270 C   0  0  0  0  0  0  0  0  0  0  0  0
  -23.0040   -6.1760   23.7595 C   0  0  0  0  0  0  0  0  0  0  0  0
  -20.6048   -4.8035   23.3820 C   0  0  0  0  0  0  0  0  0  0  0  0
  -27.4850  -19.4437   20.7529 C   0  0  0  0  0  0  0  0  0  0  0  0
  -23.0168   -4.8729   23.2622 C   0  0  0  0  0  0  0  0  0  0  0  0
  -24.9307  -11.6302   21.1280 C   0  0  0  0  0  0  0  0  0  0  0  0
  -24.6598  -13.6059   20.2014 C   0  0  0  0  0  0  0  0  0  0  0  0
  -29.1750  -24.8963   21.8001 C   0  0  0  0  0  0  0  0  0  0  0  0
  -28.6987  -26.1392   21.6714 C   0  0  0  0  0  0  0  0  0  1  0  0
  -31.3292  -21.1835   20.3534 C   0  0  0  0  0  0  0  0  0  0  0  0
  -22.6604  -12.7919   21.4619 C   0  0  0  0  0  0  0  0  0  0  0  0
  -25.5243  -32.3087   22.8455 C   0  0  0  0  0  0  0  0  0  0  0  0
  -22.6869  -31.5669   21.4593 C   0  0  0  0  0  0  0  0  0  0  0  0
  -20.8906  -29.4234   19.5035 C   0  0  0  0  0  0  0  0  0  0  0  0
  -29.2053  -16.5922   19.0085 C   0  0  0  0  0  0  0  0  0  0  0  0
  -27.7045  -36.4281   24.9274 C   0  0  0  0  0  0  0  0  0  0  0  0
  -26.2162  -31.9387   20.4496 C   0  0  0  0  0  0  0  0  0  0  0  0
  -24.4597  -29.7720   21.4320 C   0  0  0  0  0  0  0  0  0  0  0  0
  -29.8752  -24.3642   23.0103 C   0  0  0  0  0  0  0  0  0  0  0  0
  -28.9832  -23.7942   20.8021 C   0  0  0  0  0  0  0  0  0  0  0  0
  -26.2738  -35.9414   24.7118 C   0  0  0  0  0  0  0  0  0  0  0  0
  -29.0363  -13.2942   17.6775 C   0  0  0  0  0  0  0  0  0  0  0  0
  -26.1258  -34.4962   25.1768 C   0  0  0  0  0  0  0  0  0  0  0  0
  -27.8766  -12.6532   18.4432 C   0  0  0  0  0  0  0  0  0  0  0  0
  -29.5071  -22.8833   22.9920 C   0  0  0  0  0  0  0  0  0  0  0  0
  -29.8509  -14.2341   18.5645 C   0  0  0  0  0  0  0  0  0  0  0  0
  -27.9087  -14.6198   20.0302 C   0  0  0  0  0  0  0  0  0  0  0  0
  -27.0374  -33.5617   24.3724 C   0  0  1  0  0  0  0  0  0  0  0  0
  -25.0685  -32.2115   21.4170 C   0  0  1  0  0  0  0  0  0  0  0  0
  -27.0203  -13.7147   19.1612 C   0  0  2  0  0  0  0  0  0  0  0  0
  -18.5853  -29.0612   18.5805 C   0  0  0  0  0  0  0  0  0  0  0  0
  -21.7470  -30.5955   24.1948 C   0  0  0  0  0  0  0  0  0  0  0  0
  -19.8671  -29.4040   23.0483 C   0  0  0  0  0  0  0  0  0  0  0  0
  -20.0394  -31.8883   22.9035 C   0  0  0  0  0  0  0  0  0  0  0  0
  -21.8548  -29.6016   16.7111 C   0  0  0  0  0  0  0  0  0  0  0  0
  -21.6779  -30.4552   21.6177 C   0  0  1  0  0  0  0  0  0  0  0  0
  -19.9563  -29.6708   18.3328 C   0  0  2  0  0  0  0  0  0  0  0  0
  -20.8599  -30.5804   22.9339 C   0  0  0  0  0  0  0  0  0  0  0  0
  -26.0923  -11.8747   20.5157 N   0  0  0  0  0  0  0  0  0  0  0  0
  -25.8964  -13.0832   19.9613 N   0  0  0  0  0  0  0  0  0  0  0  0
  -29.1839  -22.5862   21.5985 N   0  0  3  0  0  0  0  0  0  0  0  0
  -24.0313  -31.1791   21.3691 N   0  0  0  0  0  0  0  0  0  0  0  0
  -28.9742  -15.2147   19.2083 N   0  0  0  0  0  0  0  0  0  0  0  0
  -24.2964  -14.8128   19.7179 N   0  0  0  0  0  0  0  0  0  0  0  0
  -32.2539  -21.0142   21.3115 N   0  0  0  0  0  0  0  0  0  0  0  0
  -22.1383  -11.7431   22.2310 N   0  0  0  0  0  0  0  0  0  0  0  0
  -28.2881  -17.4288   19.6438 N   0  0  0  0  0  0  0  0  0  0  0  0
  -26.4653  -33.2954   23.0700 N   0  0  0  0  0  0  0  0  0  0  0  0
  -20.8656  -30.4656   20.4059 N   0  0  0  0  0  0  0  0  0  0  0  0
  -31.6405  -21.8950   19.2587 N   0  3  0  0  0  0  0  0  0  0  0  0
  -20.5175  -29.0750   17.0874 N   0  3  0  0  0  0  0  0  0  0  0  0
  -21.9414  -13.7900   21.2161 O   0  0  0  0  0  0  0  0  0  0  0  0
  -25.0557  -31.5459   23.6824 O   0  0  0  0  0  0  0  0  0  0  0  0
  -22.2960  -32.7359   21.4101 O   0  0  0  0  0  0  0  0  0  0  0  0
  -21.5714  -28.4056   19.6088 O   0  0  0  0  0  0  0  0  0  0  0  0
  -30.1311  -16.9992   18.3020 O   0  0  0  0  0  0  0  0  0  0  0  0
  -24.1941   -6.8584   23.9482 O   0  0  0  0  0  0  0  0  0  0  0  0
  -28.0643  -26.5845   20.5458 O   0  0  0  0  0  0  0  0  0  1  0  0
  -19.4528   -4.1440   23.2022 F   0  0  0  0  0  0  0  0  0  0  0  0
  -26.2676  -18.8970   20.8807 F   0  0  0  0  0  0  0  0  0  0  0  0
  -24.1785   -4.2746   22.9651 F   0  0  0  0  0  0  0  0  0  0  0  0
  1  2  1  0  0  0  0
  1  5  2  0  0  0  0
  2  6  2  0  0  0  0
  3  8  2  0  0  0  0
  3 17  1  0  0  0  0
  4  9  1  0  0  0  0
  4 17  2  0  0  0  0
  5 20  1  0  0  0  0
  6 22  1  0  0  0  0
  7 10  2  0  0  0  0
  7 21  1  0  0  0  0
  8 26  1  0  0  0  0
  9 26  2  0  0  0  0
 10 27  1  0  0  0  0
 11 12  2  0  0  0  0
 11 28  1  0  0  0  0
 12 29  1  0  0  0  0
 13 18  1  0  0  0  0
 13 25  2  0  0  0  0
 14 23  1  0  0  0  0
 14 27  2  0  0  0  0
 15 24  1  0  0  0  0
 15 30  2  0  0  0  0
 16 29  2  0  0  0  0
 16 31  1  0  0  0  0
 17 32  1  0  0  0  0
 18 24  2  0  0  0  0
 18 36  1  0  0  0  0
 19 32  1  0  0  0  0
 19 33  2  0  0  0  0
 19 37  1  0  0  0  0
 20 22  2  0  0  0  0
 20 42  1  0  0  0  0
 21 23  2  0  0  0  0
 21 43  1  0  0  0  0
 22 54  1  0  0  0  0
 23 44  1  0  0  0  0
 24 67  1  0  0  0  0
 25 30  1  0  0  0  0
 25 73  1  0  0  0  0
 26 83  1  0  0  0  0
 27 84  1  0  0  0  0
 28 31  2  0  0  0  0
 28 83  1  0  0  0  0
 29 85  1  0  0  0  0
 30 86  1  0  0  0  0
 31 87  1  0  0  0  0
 32 65  2  0  0  0  0
 33 66  1  0  0  0  0
 33 70  1  0  0  0  0
 34 35  2  0  0  0  0
 34 45  1  0  0  0  0
 34 46  1  0  0  0  0
 35 84  1  0  0  0  0
 36 71  1  0  0  0  0
 36 76  2  0  0  0  0
 37 72  1  0  0  0  0
 37 78  2  0  0  0  0
 38 55  1  0  0  0  0
 38 74  1  0  0  0  0
 38 79  2  0  0  0  0
 39 62  1  0  0  0  0
 39 68  1  0  0  0  0
 39 80  2  0  0  0  0
 40 63  1  0  0  0  0
 40 75  1  0  0  0  0
 40 81  2  0  0  0  0
 41 69  1  0  0  0  0
 41 73  1  0  0  0  0
 41 82  2  0  0  0  0
 42 47  1  0  0  0  0
 43 55  1  0  0  0  0
 44 68  1  0  0  0  0
 45 51  1  0  0  0  0
 46 67  1  0  0  0  0
 47 49  1  0  0  0  0
 48 50  1  0  0  0  0
 48 52  1  0  0  0  0
 49 54  1  0  0  0  0
 50 56  1  0  0  0  0
 51 67  1  0  0  0  0
 52 69  1  0  0  0  0
 53 56  1  0  0  0  0
 53 69  1  0  0  0  0
 54 74  1  0  0  0  0
 55 68  1  0  0  0  0
 56 66  1  0  0  0  0
 57 63  1  0  0  0  0
 58 64  1  0  0  0  0
 59 64  1  0  0  0  0
 60 64  1  0  0  0  0
 61 77  1  0  0  0  0
 62 64  1  0  0  0  0
 62 75  1  0  0  0  0
 63 77  1  0  0  0  0
 65 66  1  0  0  0  0
M  CHG  2  76   1  77   1
M  ISO  4  35 101  41 100  73 100  84 101
M  END
> <Batch ID>
0148

> <Smiles>
CNC(C)C(=O)NC(C(=O)N1Cc2cc([101O:1][101CH:1]=C3CCN(c4cc(F)c([100NH:0][100C:0](=O)N5CCCC(n6nc(-c7ccc(Oc8ccc(F)cc8F)cc7)c(C(N)=O)c6N)C5)cc4C(=N)N)C3)ccc2CC1C(=O)NC1CCCc2ccccc21)C(C)(C)C

> <Shape>
0.318

> <Color>
0.098

> <Negative vol penalty>
0.000

$$$$

  -OEChem-04052303163D

 89 98  0     1  0  0  0  0  0999 V2000
  -25.8775  -32.4135   26.8754 C   0  0  0  0  0  0  0  0  0  0  0  0
  -26.4888  -31.2799   26.3494 C   0  0  0  0  0  0  0  0  0  0  0  0
  -24.4230  -10.0304   22.2746 C   0  0  0  0  0  0  0  0  0  0  0  0
  -24.5791  -11.4920   24.1920 C   0  0  0  0  0  0  0  0  0  0  0  0
  -24.5643  -32.7227   26.5235 C   0  0  0  0  0  0  0  0  0  0  0  0
  -25.7868  -30.4542   25.4721 C   0  0  0  0  0  0  0  0  0  0  0  0
  -28.5549  -29.0846   21.4587 C   0  0  0  0  0  0  0  0  0  0  0  0
  -24.0148   -8.9859   23.1040 C   0  0  0  0  0  0  0  0  0  0  0  0
  -24.1709  -10.4475   25.0215 C   0  0  0  0  0  0  0  0  0  0  0  0
  -29.4942  -28.0720   21.6487 C   0  0  0  0  0  0  0  0  0  0  0  0
  -21.1757   -7.9985   24.6524 C   0  0  0  0  0  0  0  0  0  0  0  0
  -20.0950   -7.2225   24.2334 C   0  0  0  0  0  0  0  0  0  0  0  0
  -29.8105  -20.1616   19.7109 C   0  0  0  0  0  0  0  0  0  0  0  0
  -27.9665  -26.4801   20.6734 C   0  0  0  0  0  0  0  0  0  0  0  0
  -21.4999   -5.2570   24.2505 C   0  0  0  0  0  0  0  0  0  0  0  0
  -28.0470  -21.6601   19.9280 C   0  0  0  0  0  0  0  0  0  0  0  0
  -24.7052  -11.2835   22.8186 C   0  0  0  0  0  0  0  0  0  0  0  0
  -29.3635  -21.5053   19.5533 C   0  0  0  0  0  0  0  0  0  0  0  0
  -24.3062  -13.3034   21.3125 C   0  0  0  0  0  0  0  0  0  0  0  0
  -23.8491  -31.9056   25.6338 C   0  0  0  0  0  0  0  0  0  0  0  0
  -27.3080  -28.8000   20.8836 C   0  0  0  0  0  0  0  0  0  0  0  0
  -24.4624  -30.7520   25.1090 C   0  0  0  0  0  0  0  0  0  0  0  0
  -27.0141  -27.4913   20.4749 C   0  0  0  0  0  0  0  0  0  0  0  0
  -23.8887   -9.1944   24.4774 C   0  0  0  0  0  0  0  0  0  0  0  0
  -29.1990  -26.7690   21.2587 C   0  0  0  0  0  0  0  0  0  0  0  0
  -22.4185   -7.4038   24.8703 C   0  0  0  0  0  0  0  0  0  0  0  0
  -20.2571   -5.8517   24.0325 C   0  0  0  0  0  0  0  0  0  0  0  0
  -22.5805   -6.0331   24.6694 C   0  0  0  0  0  0  0  0  0  0  0  0
  -25.1275  -12.3627   21.9624 C   0  0  0  0  0  0  0  0  0  0  0  0
  -25.1826  -14.1094   20.6278 C   0  0  0  0  0  0  0  0  0  0  0  0
  -28.8185  -19.3405   20.2005 C   0  0  0  0  0  0  0  0  0  0  0  0
  -30.2114  -22.5999   19.0482 C   0  0  0  0  0  0  0  0  0  0  0  0
  -22.8787  -13.4368   21.3265 C   0  0  0  0  0  0  0  0  0  0  0  0
  -24.2893  -29.0049   21.8577 C   0  0  0  0  0  0  0  0  0  0  0  0
  -23.6510  -28.1765   18.7871 C   0  0  0  0  0  0  0  0  0  0  0  0
  -24.7113  -26.6769   15.9107 C   0  0  0  0  0  0  0  0  0  0  0  0
  -29.8925  -17.0679   20.3682 C   0  0  0  0  0  0  0  0  0  0  0  0
  -22.4159  -32.2547   25.3199 C   0  0  0  0  0  0  0  0  0  0  0  0
  -26.3160  -29.9084   20.6610 C   0  0  0  0  0  0  0  0  0  0  0  0
  -25.6978  -27.1373   19.8342 C   0  0  0  0  0  0  0  0  0  0  0  0
  -21.8680  -31.5325   24.0918 C   0  0  0  0  0  0  0  0  0  0  0  0
  -30.1350  -13.5737   19.7287 C   0  0  0  0  0  0  0  0  0  0  0  0
  -22.2224  -30.0496   24.1422 C   0  0  0  0  0  0  0  0  0  0  0  0
  -28.7863  -13.0246   20.1994 C   0  0  0  0  0  0  0  0  0  0  0  0
  -32.1663  -23.7483   21.8281 C   0  0  0  0  0  0  0  0  0  0  0  0
  -30.6290  -14.7085   20.6243 C   0  0  0  0  0  0  0  0  0  0  0  0
  -30.8922  -23.0662   21.3525 C   0  0  0  0  0  0  0  0  0  0  0  0
  -28.3222  -15.2540   21.2954 C   0  0  0  0  0  0  0  0  0  0  0  0
  -23.7421  -29.8451   24.1349 C   0  0  1  0  0  0  0  0  0  0  0  0
  -24.8799  -29.4090   20.5365 C   0  0  1  0  0  0  0  0  0  0  0  0
  -27.7528  -14.1526   20.3864 C   0  0  2  0  0  0  0  0  0  0  0  0
  -31.8784  -24.3893   19.5250 C   0  0  2  0  0  0  0  0  0  0  0  0
  -32.3120  -24.9605   20.8973 C   0  0  1  0  0  0  0  0  0  0  0  0
  -23.9542  -26.1230   13.5832 C   0  0  0  0  0  0  0  0  0  0  0  0
  -32.2176  -26.5452   18.2885 C   0  0  0  0  0  0  0  0  0  0  0  0
  -30.8326  -24.7161   17.2688 C   0  0  0  0  0  0  0  0  0  0  0  0
  -21.9361  -25.9055   19.8880 C   0  0  0  0  0  0  0  0  0  0  0  0
  -21.9956  -24.8530   17.6171 C   0  0  0  0  0  0  0  0  0  0  0  0
  -20.9515  -27.0979   17.9225 C   0  0  0  0  0  0  0  0  0  0  0  0
  -26.8706  -28.2974   14.6980 C   0  0  0  0  0  0  0  0  0  0  0  0
  -34.1717  -25.7033   22.1144 C   0  0  0  0  0  0  0  0  0  0  0  0
  -31.4910  -26.1500   21.3994 C   0  0  0  0  0  0  0  0  0  1  0  0
  -23.4667  -26.8733   18.0477 C   0  0  1  0  0  0  0  0  0  0  0  0
  -24.6731  -27.1335   14.4635 C   0  0  2  0  0  0  0  0  0  0  0  0
  -31.2517  -25.3953   18.5720 C   0  0  0  0  0  0  0  0  0  0  0  0
  -22.1116  -26.1884   18.3826 C   0  0  0  0  0  0  0  0  0  0  0  0
  -26.4259  -12.5522   21.7128 N   0  0  0  0  0  0  0  0  0  0  0  0
  -26.4270  -13.6213   20.8984 N   0  0  0  0  0  0  0  0  0  0  0  0
  -30.9196  -23.3199   19.9019 N   0  0  0  0  0  0  0  0  0  0  0  0
  -24.7583  -28.2547   19.6436 N   0  0  0  0  0  0  0  0  0  0  0  0
  -29.5994  -15.7422   20.7519 N   0  0  0  0  0  0  0  0  0  0  0  0
  -25.0024  -15.1808   19.8266 N   0  0  0  0  0  0  0  0  0  0  0  0
  -22.1298  -12.5243   22.0820 N   0  0  0  0  0  0  0  0  0  0  0  0
  -28.8262  -17.9564   20.5036 N   0  0  0  0  0  0  0  0  0  0  0  0
  -24.2689  -30.0173   22.7980 N   0  0  0  0  0  0  0  0  0  0  0  0
  -23.6486  -27.1777   16.6325 N   0  0  0  0  0  0  0  0  0  0  0  0
  -30.2525  -22.8451   17.7419 N   0  3  0  0  0  0  0  0  0  0  0  0
  -26.0569  -27.3124   13.9400 N   0  3  0  0  0  0  0  0  0  0  0  0
  -22.2838  -14.3283   20.6747 O   0  0  0  0  0  0  0  0  0  0  0  0
  -23.8809  -27.8599   22.0121 O   0  0  0  0  0  0  0  0  0  0  0  0
  -22.8464  -29.0937   18.6059 O   0  0  0  0  0  0  0  0  0  0  0  0
  -25.5935  -25.9458   16.3554 O   0  0  0  0  0  0  0  0  0  0  0  0
  -30.9990  -17.3856   19.9247 O   0  0  0  0  0  0  0  0  0  0  0  0
  -23.4902   -8.1755   25.2870 O   0  0  0  0  0  0  0  0  0  0  0  0
  -30.1138  -25.7786   21.4437 O   0  0  0  0  0  0  0  0  0  1  0  0
  -33.6798  -25.3504   20.8329 O   0  0  0  0  0  0  0  0  0  0  0  0
  -19.2189   -5.1064   23.6316 F   0  0  0  0  0  0  0  0  0  0  0  0
  -23.7718   -5.4559   24.8784 F   0  0  0  0  0  0  0  0  0  0  0  0
  -27.3554  -20.1894   20.4675 S   0  0  0  0  0  0  0  0  0  0  0  0
  1  2  1  0  0  0  0
  1  5  2  0  0  0  0
  2  6  2  0  0  0  0
  3  8  2  0  0  0  0
  3 17  1  0  0  0  0
  4  9  1  0  0  0  0
  4 17  2  0  0  0  0
  5 20  1  0  0  0  0
  6 22  1  0  0  0  0
  7 10  2  0  0  0  0
  7 21  1  0  0  0  0
  8 24  1  0  0  0  0
  9 24  2  0  0  0  0
 10 25  1  0  0  0  0
 11 12  2  0  0  0  0
 11 26  1  0  0  0  0
 12 27  1  0  0  0  0
 13 18  1  0  0  0  0
 13 31  2  0  0  0  0
 14 23  1  0  0  0  0
 14 25  2  0  0  0  0
 15 27  2  0  0  0  0
 15 28  1  0  0  0  0
 16 18  2  0  0  0  0
 16 89  1  0  0  0  0
 17 29  1  0  0  0  0
 18 32  1  0  0  0  0
 19 29  1  0  0  0  0
 19 30  2  0  0  0  0
 19 33  1  0  0  0  0
 20 22  2  0  0  0  0
 20 38  1  0  0  0  0
 21 23  2  0  0  0  0
 21 39  1  0  0  0  0
 22 49  1  0  0  0  0
 23 40  1  0  0  0  0
 24 84  1  0  0  0  0
 25 85  1  0  0  0  0
 26 28  2  0  0  0  0
 26 84  1  0  0  0  0
 27 87  1  0  0  0  0
 28 88  1  0  0  0  0
 29 67  2  0  0  0  0
 30 68  1  0  0  0  0
 30 72  1  0  0  0  0
 31 74  1  0  0  0  0
 31 89  1  0  0  0  0
 32 69  1  0  0  0  0
 32 77  2  0  0  0  0
 33 73  1  0  0  0  0
 33 79  2  0  0  0  0
 34 50  1  0  0  0  0
 34 75  1  0  0  0  0
 34 80  2  0  0  0  0
 35 63  1  0  0  0  0
 35 70  1  0  0  0  0
 35 81  2  0  0  0  0
 36 64  1  0  0  0  0
 36 76  1  0  0  0  0
 36 82  2  0  0  0  0
 37 71  1  0  0  0  0
 37 74  1  0  0  0  0
 37 83  2  0  0  0  0
 38 41  1  0  0  0  0
 39 50  1  0  0  0  0
 40 70  1  0  0  0  0
 41 43  1  0  0  0  0
 42 44  1  0  0  0  0
 42 46  1  0  0  0  0
 43 49  1  0  0  0  0
 44 51  1  0  0  0  0
 45 47  1  0  0  0  0
 45 53  1  0  0  0  0
 46 71  1  0  0  0  0
 47 69  1  0  0  0  0
 48 51  1  0  0  0  0
 48 71  1  0  0  0  0
 49 75  1  0  0  0  0
 50 70  1  0  0  0  0
 51 68  1  0  0  0  0
 52 53  1  0  0  0  0
 52 65  1  0  0  0  0
 52 69  1  0  0  0  0
 53 62  1  0  0  0  0
 53 86  1  0  0  0  0
 54 64  1  0  0  0  0
 55 65  1  0  0  0  0
 56 65  1  0  0  0  0
 57 66  1  0  0  0  0
 58 66  1  0  0  0  0
 59 66  1  0  0  0  0
 60 78  1  0  0  0  0
 61 86  1  0  0  0  0
 62 85  1  0  0  0  0
 63 66  1  0  0  0  0
 63 76  1  0  0  0  0
 64 78  1  0  0  0  0
 67 68  1  0  0  0  0
M  CHG  2  77   1  78   1
M  ISO  4  37 100  62 101  74 100  85 101
M  END
> <Batch ID>
0148

> <Smiles>
CNC(C)C(=O)NC(C(=O)N1Cc2cc([101O:1][101CH2:1]C3(OC)CCN(C(=N)c4csc([100NH:0][100C:0](=O)N5CCCC(n6nc(-c7ccc(Oc8ccc(F)cc8F)cc7)c(C(N)=O)c6N)C5)c4)C3C(C)C)ccc2CC1C(=O)NC1CCCc2ccccc21)C(C)(C)C

> <Shape>
0.302

> <Color>
0.098

> <Negative vol penalty>
0.000

$$$$

  -OEChem-04052303163D

 86 95  0     1  0  0  0  0  0999 V2000
  -17.8180  -31.0048   21.0174 C   0  0  0  0  0  0  0  0  0  0  0  0
  -19.1869  -31.2471   21.0709 C   0  0  0  0  0  0  0  0  0  0  0  0
  -26.7028  -12.6306   20.3813 C   0  0  0  0  0  0  0  0  0  0  0  0
  -25.1022  -14.4263   20.1562 C   0  0  0  0  0  0  0  0  0  0  0  0
  -17.3102  -29.7817   21.4534 C   0  0  0  0  0  0  0  0  0  0  0  0
  -20.0487  -30.2668   21.5614 C   0  0  0  0  0  0  0  0  0  0  0  0
  -25.7505  -29.0915   19.6603 C   0  0  0  0  0  0  0  0  0  0  0  0
  -30.0610  -24.5458   23.3534 C   0  0  0  0  0  0  0  0  0  0  0  0
  -30.0648  -23.1721   23.5949 C   0  0  0  0  0  0  0  0  0  0  0  0
  -25.6784  -11.6974   20.2217 C   0  0  0  0  0  0  0  0  0  0  0  0
  -24.0778  -13.4931   19.9966 C   0  0  0  0  0  0  0  0  0  0  0  0
  -26.9997  -29.4610   20.1569 C   0  0  0  0  0  0  0  0  0  0  0  0
  -23.2233  -10.3468   22.1118 C   0  0  0  0  0  0  0  0  0  0  0  0
  -23.1974   -9.2584   22.9838 C   0  0  0  0  0  0  0  0  0  0  0  0
  -30.0731  -24.1278   20.9739 C   0  0  0  0  0  0  0  0  0  0  0  0
  -27.1505  -27.3567   21.3266 C   0  0  0  0  0  0  0  0  0  0  0  0
  -23.4044   -7.7503   21.1077 C   0  0  0  0  0  0  0  0  0  0  0  0
  -26.4147  -13.9950   20.3486 C   0  0  0  0  0  0  0  0  0  0  0  0
  -28.2622  -15.5369   19.5018 C   0  0  0  0  0  0  0  0  0  0  0  0
  -18.1673  -28.7822   21.9405 C   0  0  0  0  0  0  0  0  0  0  0  0
  -25.1861  -27.8542   20.0025 C   0  0  0  0  0  0  0  0  0  0  0  0
  -19.5518  -29.0297   22.0056 C   0  0  0  0  0  0  0  0  0  0  0  0
  -30.0770  -22.7540   21.2153 C   0  0  0  0  0  0  0  0  0  0  0  0
  -25.8951  -26.9727   20.8310 C   0  0  0  0  0  0  0  0  0  0  0  0
  -30.0650  -25.0237   22.0430 C   0  0  0  0  0  0  0  0  0  0  0  0
  -30.0729  -22.2761   22.5258 C   0  0  0  0  0  0  0  0  0  0  0  0
  -24.3659  -12.1287   20.0293 C   0  0  0  0  0  0  0  0  0  0  0  0
  -27.6987  -28.5948   20.9925 C   0  0  0  0  0  0  0  0  0  0  0  0
  -23.3397  -10.1369   20.7377 C   0  0  0  0  0  0  0  0  0  0  0  0
  -23.2880   -7.9602   22.4818 C   0  0  0  0  0  0  0  0  0  0  0  0
  -23.4303   -8.8386   20.2357 C   0  0  0  0  0  0  0  0  0  0  0  0
  -27.4724  -14.9594   20.5140 C   0  0  0  0  0  0  0  0  0  0  0  0
  -29.1142  -16.3813   20.1708 C   0  0  0  0  0  0  0  0  0  0  0  0
  -28.2287  -15.3286   18.0836 C   0  0  0  0  0  0  0  0  0  0  0  0
  -22.5596  -26.9349   21.5386 C   0  0  0  0  0  0  0  0  0  0  0  0
  -23.5251  -23.9785   20.6169 C   0  0  0  0  0  0  0  0  0  0  0  0
  -26.0849  -21.9334   19.6620 C   0  0  0  0  0  0  0  0  0  0  0  0
  -30.0645  -27.0651   20.5673 C   0  0  0  0  0  0  0  0  0  0  0  0
  -30.0769  -20.2650   24.0429 C   0  0  0  0  0  0  0  0  0  0  0  0
  -17.5671  -27.4937   22.4446 C   0  0  0  0  0  0  0  0  0  0  0  0
  -23.8495  -27.4593   19.4369 C   0  0  0  0  0  0  0  0  0  0  0  0
  -25.3422  -25.6246   21.2119 C   0  0  0  0  0  0  0  0  0  0  0  0
  -18.5858  -26.3675   22.6010 C   0  0  0  0  0  0  0  0  0  0  0  0
  -30.0514  -16.8717   25.1209 C   0  0  0  0  0  0  0  0  0  0  0  0
  -31.4030  -21.2805   19.5586 C   0  0  0  0  0  0  0  0  0  0  0  0
  -30.6544  -22.2856   18.7403 C   0  0  0  0  0  0  0  0  0  0  0  0
  -19.8352  -26.8732   23.3152 C   0  0  0  0  0  0  0  0  0  0  0  0
  -29.4431  -16.1192   23.9352 C   0  0  0  0  0  0  0  0  0  0  0  0
  -29.4026  -18.2407   25.3168 C   0  0  0  0  0  0  0  0  0  0  0  0
  -28.7744  -18.3425   22.9369 C   0  0  0  0  0  0  0  0  0  0  0  0
  -30.0862  -21.8162   20.0525 C   0  0  0  0  0  0  0  0  0  0  0  0
  -20.5213  -27.9820   22.5081 C   0  0  1  0  0  0  0  0  0  0  0  0
  -23.1424  -26.3908   20.2651 C   0  0  1  0  0  0  0  0  0  0  0  0
  -29.4403  -16.9847   22.6599 C   0  0  2  0  0  0  0  0  0  0  0  0
  -26.5716  -19.5591   19.0112 C   0  0  0  0  0  0  0  0  0  0  0  0
  -31.2866  -29.0930   21.4605 C   0  0  0  0  0  0  0  0  0  0  0  0
  -29.9349  -29.2838   19.3385 C   0  0  0  0  0  0  0  0  0  0  0  0
  -23.3288  -23.1386   23.5436 C   0  0  0  0  0  0  0  0  0  0  0  0
  -24.7007  -21.1204   22.9841 C   0  0  0  0  0  0  0  0  0  0  0  0
  -22.4716  -21.4471   21.9132 C   0  0  0  0  0  0  0  0  0  0  0  0
  -27.0379  -22.7418   16.9792 C   0  0  0  0  0  0  0  0  0  0  0  0
  -24.4105  -22.9095   21.2105 C   0  0  1  0  0  0  0  0  0  0  0  0
  -26.2137  -20.9504   18.5123 C   0  0  2  0  0  0  0  0  0  0  0  0
  -30.0587  -28.5984   20.6987 C   0  0  0  0  0  0  0  0  0  1  0  0
  -23.7377  -22.1800   22.4074 C   0  0  0  0  0  0  0  0  0  0  0  0
  -27.7941  -15.3996   21.7333 N   0  0  0  0  0  0  0  0  0  0  0  0
  -28.7955  -16.2626   21.4916 N   0  0  0  0  0  0  0  0  0  0  0  0
  -24.0289  -25.2868   20.6387 N   0  0  0  0  0  0  0  0  0  0  0  0
  -29.4403  -19.0060   24.0687 N   0  0  0  0  0  0  0  0  0  0  0  0
  -30.0974  -17.2062   19.7523 N   0  0  0  0  0  0  0  0  0  0  0  0
  -27.2910  -14.4265   17.5628 N   0  0  0  0  0  0  0  0  0  0  0  0
  -30.0613  -26.4182   21.7983 N   0  0  0  0  0  0  0  0  0  0  0  0
  -30.0785  -20.8847   22.7937 N   0  0  0  0  0  0  0  0  0  0  0  0
  -21.2708  -27.4158   21.4071 N   0  0  0  0  0  0  0  0  0  0  0  0
  -24.7838  -22.0299   20.1080 N   0  0  0  0  0  0  0  0  0  0  0  0
  -27.2740  -21.3972   17.5651 N   0  3  0  0  0  0  0  0  0  0  0  0
  -29.0181  -15.9126   17.3031 O   0  0  0  0  0  0  0  0  0  0  0  0
  -23.2290  -26.9182   22.5650 O   0  0  0  0  0  0  0  0  0  0  0  0
  -22.4301  -23.6632   20.1445 O   0  0  0  0  0  0  0  0  0  0  0  0
  -27.0434  -22.5507   20.1211 O   0  0  0  0  0  0  0  0  0  0  0  0
  -30.0719  -26.5303   19.4604 O   0  0  0  0  0  0  0  0  0  0  0  0
  -30.6071  -20.7448   25.0482 O   0  0  0  0  0  0  0  0  0  0  0  0
  -23.3661  -11.2184   19.8733 O   0  0  0  0  0  0  0  0  0  0  0  0
  -28.9179  -28.9533   21.4791 O   0  0  0  0  0  0  0  0  0  1  0  0
  -23.2646   -6.9152   23.3195 F   0  0  0  0  0  0  0  0  0  0  0  0
  -23.5435   -8.6307   18.9167 F   0  0  0  0  0  0  0  0  0  0  0  0
  1  2  1  0  0  0  0
  1  5  2  0  0  0  0
  2  6  2  0  0  0  0
  3 10  2  0  0  0  0
  3 18  1  0  0  0  0
  4 11  1  0  0  0  0
  4 18  2  0  0  0  0
  5 20  1  0  0  0  0
  6 22  1  0  0  0  0
  7 12  2  0  0  0  0
  7 21  1  0  0  0  0
  8  9  2  0  0  0  0
  8 25  1  0  0  0  0
  9 26  1  0  0  0  0
 10 27  1  0  0  0  0
 11 27  2  0  0  0  0
 12 28  1  0  0  0  0
 13 14  2  0  0  0  0
 13 29  1  0  0  0  0
 14 30  1  0  0  0  0
 15 23  1  0  0  0  0
 15 25  2  0  0  0  0
 16 24  1  0  0  0  0
 16 28  2  0  0  0  0
 17 30  2  0  0  0  0
 17 31  1  0  0  0  0
 18 32  1  0  0  0  0
 19 32  1  0  0  0  0
 19 33  2  0  0  0  0
 19 34  1  0  0  0  0
 20 22  2  0  0  0  0
 20 40  1  0  0  0  0
 21 24  2  0  0  0  0
 21 41  1  0  0  0  0
 22 52  1  0  0  0  0
 23 26  2  0  0  0  0
 23 51  1  0  0  0  0
 24 42  1  0  0  0  0
 25 72  1  0  0  0  0
 26 73  1  0  0  0  0
 27 83  1  0  0  0  0
 28 84  1  0  0  0  0
 29 31  2  0  0  0  0
 29 83  1  0  0  0  0
 30 85  1  0  0  0  0
 31 86  1  0  0  0  0
 32 66  2  0  0  0  0
 33 67  1  0  0  0  0
 33 70  1  0  0  0  0
 34 71  1  0  0  0  0
 34 77  2  0  0  0  0
 35 53  1  0  0  0  0
 35 74  1  0  0  0  0
 35 78  2  0  0  0  0
 36 62  1  0  0  0  0
 36 68  1  0  0  0  0
 36 79  2  0  0  0  0
 37 63  1  0  0  0  0
 37 75  1  0  0  0  0
 37 80  2  0  0  0  0
 38 64  1  0  0  0  0
 38 72  1  0  0  0  0
 38 81  2  0  0  0  0
 39 69  1  0  0  0  0
 39 73  1  0  0  0  0
 39 82  2  0  0  0  0
 40 43  1  0  0  0  0
 41 53  1  0  0  0  0
 42 68  1  0  0  0  0
 43 47  1  0  0  0  0
 44 48  1  0  0  0  0
 44 49  1  0  0  0  0
 45 46  1  0  0  0  0
 45 51  1  0  0  0  0
 46 51  1  0  0  0  0
 47 52  1  0  0  0  0
 48 54  1  0  0  0  0
 49 69  1  0  0  0  0
 50 54  1  0  0  0  0
 50 69  1  0  0  0  0
 52 74  1  0  0  0  0
 53 68  1  0  0  0  0
 54 67  1  0  0  0  0
 55 63  1  0  0  0  0
 56 64  1  0  0  0  0
 57 64  1  0  0  0  0
 58 65  1  0  0  0  0
 59 65  1  0  0  0  0
 60 65  1  0  0  0  0
 61 76  1  0  0  0  0
 62 65  1  0  0  0  0
 62 75  1  0  0  0  0
 63 76  1  0  0  0  0
 64 84  1  0  0  0  0
 66 67  1  0  0  0  0
M  CHG  1  76   1
M  ISO  4  39 100  64 101  73 100  84 101
M  END
> <Batch ID>
0148

> <Smiles>
CNC(C)C(=O)NC(C(=O)N1Cc2cc([101O:1][101C:1](C)(C)C(=O)Nc3ccc([100NH:0][100C:0](=O)N4CCCC(n5nc(-c6ccc(Oc7ccc(F)cc7F)cc6)c(C(N)=O)c5N)C4)c(C4CC4)c3)ccc2CC1C(=O)NC1CCCc2ccccc21)C(C)(C)C

> <Shape>
0.227

> <Color>
0.076

> <Negative vol penalty>
0.000

$$$$

  -OEChem-04052303163D

 88 97  0     1  0  0  0  0  0999 V2000
  -16.5698  -29.8969   24.3244 C   0  0  0  0  0  0  0  0  0  0  0  0
  -17.4893  -29.0761   24.9695 C   0  0  0  0  0  0  0  0  0  0  0  0
  -33.2916  -16.7200   23.3364 C   0  0  0  0  0  0  0  0  0  0  0  0
  -22.8578  -10.2197   20.0124 C   0  0  0  0  0  0  0  0  0  0  0  0
  -23.7219  -10.0492   22.2621 C   0  0  0  0  0  0  0  0  0  0  0  0
  -32.6191  -17.6245   24.1581 C   0  0  0  0  0  0  0  0  0  0  0  0
  -16.5817  -29.9968   22.9338 C   0  0  0  0  0  0  0  0  0  0  0  0
  -18.4206  -28.3538   24.2242 C   0  0  0  0  0  0  0  0  0  0  0  0
  -25.1389  -25.8906   24.5609 C   0  0  0  0  0  0  0  0  0  0  0  0
  -32.5773  -15.9388   22.4279 C   0  0  0  0  0  0  0  0  0  0  0  0
  -22.0167   -9.1333   20.2531 C   0  0  0  0  0  0  0  0  0  0  0  0
  -22.8807   -8.9628   22.5029 C   0  0  0  0  0  0  0  0  0  0  0  0
  -25.8620  -24.7090   24.4037 C   0  0  0  0  0  0  0  0  0  0  0  0
  -19.6217   -8.4529   23.2373 C   0  0  0  0  0  0  0  0  0  0  0  0
  -18.9205   -8.4328   24.4429 C   0  0  0  0  0  0  0  0  0  0  0  0
  -30.5181  -16.9665   23.1630 C   0  0  0  0  0  0  0  0  0  0  0  0
  -25.8400  -25.0209   22.0117 C   0  0  0  0  0  0  0  0  0  0  0  0
  -19.9986   -6.3534   25.0353 C   0  0  0  0  0  0  0  0  0  0  0  0
  -23.7104  -10.6776   21.0169 C   0  0  0  0  0  0  0  0  0  0  0  0
  -31.2324  -17.7477   24.0714 C   0  0  0  0  0  0  0  0  0  0  0  0
  -24.2930  -13.1610   20.9822 C   0  0  0  0  0  0  0  0  0  0  0  0
  -17.5198  -29.2828   22.1717 C   0  0  0  0  0  0  0  0  0  0  0  0
  -24.7509  -26.6418   23.4421 C   0  0  0  0  0  0  0  0  0  0  0  0
  -18.4441  -28.4431   22.8220 C   0  0  0  0  0  0  0  0  0  0  0  0
  -25.1143  -26.2130   22.1576 C   0  0  0  0  0  0  0  0  0  0  0  0
  -31.1906  -16.0620   22.3412 C   0  0  0  0  0  0  0  0  0  0  0  0
  -22.0281   -8.5049   21.4983 C   0  0  0  0  0  0  0  0  0  0  0  0
  -26.2102  -24.2725   23.1288 C   0  0  0  0  0  0  0  0  0  0  0  0
  -20.5113   -7.4232   22.9306 C   0  0  0  0  0  0  0  0  0  0  0  0
  -19.1090   -7.3831   25.3419 C   0  0  0  0  0  0  0  0  0  0  0  0
  -20.6998   -6.3735   23.8296 C   0  0  0  0  0  0  0  0  0  0  0  0
  -24.5799  -11.7994   20.7687 C   0  0  0  0  0  0  0  0  0  0  0  0
  -25.4352  -13.8176   20.5942 C   0  0  0  0  0  0  0  0  0  0  0  0
  -30.5210  -18.7035   24.9389 C   0  0  0  0  0  0  0  0  0  0  0  0
  -23.1005  -13.7771   21.4864 C   0  0  0  0  0  0  0  0  0  0  0  0
  -21.9662  -27.5233   22.1882 C   0  0  0  0  0  0  0  0  0  0  0  0
  -23.8547  -29.2369   20.1833 C   0  0  0  0  0  0  0  0  0  0  0  0
  -26.9088  -29.6361   18.7137 C   0  0  0  0  0  0  0  0  0  0  0  0
  -30.9799  -14.3232   20.5306 C   0  0  0  0  0  0  0  0  0  0  0  0
  -17.4632  -29.3861   20.6681 C   0  0  0  0  0  0  0  0  0  0  0  0
  -23.9942  -27.9281   23.6302 C   0  0  0  0  0  0  0  0  0  0  0  0
  -24.7395  -26.9937   20.9253 C   0  0  0  0  0  0  0  0  0  0  0  0
  -18.7247  -28.8778   19.9747 C   0  0  0  0  0  0  0  0  0  0  0  0
  -29.5231  -12.1380   18.1264 C   0  0  0  0  0  0  0  0  0  0  0  0
  -19.1506  -27.5347   20.5590 C   0  0  0  0  0  0  0  0  0  0  0  0
  -28.0836  -11.9671   18.6171 C   0  0  0  0  0  0  0  0  0  0  0  0
  -29.3183  -21.5009   22.9877 C   0  0  0  0  0  0  0  0  0  0  0  0
  -30.5119  -12.2228   19.2878 C   0  0  0  0  0  0  0  0  0  0  0  0
  -30.1871  -20.2535   23.0838 C   0  0  0  0  0  0  0  0  0  0  0  0
  -28.7526  -13.0639   20.7934 C   0  0  0  0  0  0  0  0  0  0  0  0
  -19.4858  -27.6630   22.0499 C   0  0  1  0  0  0  0  0  0  0  0  0
  -23.2076  -28.3452   22.3914 C   0  0  1  0  0  0  0  0  0  0  0  0
  -27.7131  -13.0388   19.6610 C   0  0  2  0  0  0  0  0  0  0  0  0
  -28.0371  -21.1378   23.7691 C   0  0  2  0  0  0  0  0  0  0  0  0
  -28.6100  -20.3305   24.9948 C   0  0  0  0  0  0  0  0  0  0  0  0
  -27.1202  -20.2877   22.8606 C   0  0  0  0  0  0  0  0  0  0  0  0
  -27.6424  -19.2789   25.5470 C   0  0  0  0  0  0  0  0  0  0  0  0
  -29.1131  -21.2176   26.1464 C   0  0  0  0  0  0  0  0  0  0  0  0
  -28.1380  -31.1055   17.0928 C   0  0  0  0  0  0  0  0  0  0  0  0
  -22.3969  -27.8936   17.8638 C   0  0  0  0  0  0  0  0  0  0  0  0
  -24.2496  -28.6439   16.3562 C   0  0  0  0  0  0  0  0  0  0  0  0
  -22.8467  -30.3324   17.5409 C   0  0  0  0  0  0  0  0  0  0  0  0
  -28.8861  -30.4406   20.7635 C   0  0  0  0  0  0  0  0  0  0  0  0
  -27.2656  -22.4063   24.1580 C   0  0  0  0  0  0  0  0  0  1  0  0
  -24.5230  -28.9713   18.8560 C   0  0  1  0  0  0  0  0  0  0  0  0
  -27.7980  -30.8560   18.5540 C   0  0  2  0  0  0  0  0  0  0  0  0
  -23.5096  -28.9444   17.6771 C   0  0  0  0  0  0  0  0  0  0  0  0
  -25.8081  -11.6014   20.2825 N   0  0  0  0  0  0  0  0  0  0  0  0
  -26.3030  -12.8472   20.1873 N   0  0  0  0  0  0  0  0  0  0  0  0
  -29.8122  -19.6778   24.3894 N   0  0  0  0  0  0  0  0  0  0  0  0
  -23.9944  -28.2415   21.1608 N   0  0  0  0  0  0  0  0  0  0  0  0
  -30.0990  -13.2617   20.2339 N   0  0  0  0  0  0  0  0  0  0  0  0
  -25.7719  -15.1246   20.5647 N   0  0  0  0  0  0  0  0  0  0  0  0
  -22.0211  -12.9551   21.8379 N   0  0  0  0  0  0  0  0  0  0  0  0
  -30.4659  -15.2681   21.4181 N   0  0  0  0  0  0  0  0  0  0  0  0
  -20.7947  -28.2553   22.2244 N   0  0  0  0  0  0  0  0  0  0  0  0
  -25.5723  -29.9755   18.7191 N   0  0  0  0  0  0  0  0  0  0  0  0
  -30.6006  -18.5715   26.2597 N   0  3  0  0  0  0  0  0  0  0  0  0
  -29.0704  -30.6717   19.3077 N   0  3  0  0  0  0  0  0  0  0  0  0
  -22.9895  -15.0208   21.6058 O   0  0  0  0  0  0  0  0  0  0  0  0
  -22.0641  -26.3148   22.0103 O   0  0  0  0  0  0  0  0  0  0  0  0
  -23.2376  -30.2921   20.3492 O   0  0  0  0  0  0  0  0  0  0  0  0
  -27.3549  -28.4958   18.8191 O   0  0  0  0  0  0  0  0  0  0  0  0
  -32.0968  -14.4035   20.0129 O   0  0  0  0  0  0  0  0  0  0  0  0
  -21.2073   -7.4449   21.7336 O   0  0  0  0  0  0  0  0  0  0  0  0
  -26.9154  -23.1192   22.9725 O   0  0  0  0  0  0  0  0  0  1  0  0
  -18.4367   -7.3647   26.5003 F   0  0  0  0  0  0  0  0  0  0  0  0
  -21.5540   -5.3820   23.5411 F   0  0  0  0  0  0  0  0  0  0  0  0
  1  2  1  0  0  0  0
  1  7  2  0  0  0  0
  2  8  2  0  0  0  0
  3  6  2  0  0  0  0
  3 10  1  0  0  0  0
  4 11  2  0  0  0  0
  4 19  1  0  0  0  0
  5 12  1  0  0  0  0
  5 19  2  0  0  0  0
  6 20  1  0  0  0  0
  7 22  1  0  0  0  0
  8 24  1  0  0  0  0
  9 13  2  0  0  0  0
  9 23  1  0  0  0  0
 10 26  2  0  0  0  0
 11 27  1  0  0  0  0
 12 27  2  0  0  0  0
 13 28  1  0  0  0  0
 14 15  2  0  0  0  0
 14 29  1  0  0  0  0
 15 30  1  0  0  0  0
 16 20  2  0  0  0  0
 16 26  1  0  0  0  0
 17 25  1  0  0  0  0
 17 28  2  0  0  0  0
 18 30  2  0  0  0  0
 18 31  1  0  0  0  0
 19 32  1  0  0  0  0
 20 34  1  0  0  0  0
 21 32  1  0  0  0  0
 21 33  2  0  0  0  0
 21 35  1  0  0  0  0
 22 24  2  0  0  0  0
 22 40  1  0  0  0  0
 23 25  2  0  0  0  0
 23 41  1  0  0  0  0
 24 51  1  0  0  0  0
 25 42  1  0  0  0  0
 26 75  1  0  0  0  0
 27 85  1  0  0  0  0
 28 86  1  0  0  0  0
 29 31  2  0  0  0  0
 29 85  1  0  0  0  0
 30 87  1  0  0  0  0
 31 88  1  0  0  0  0
 32 68  2  0  0  0  0
 33 69  1  0  0  0  0
 33 73  1  0  0  0  0
 34 70  1  0  0  0  0
 34 78  2  0  0  0  0
 35 74  1  0  0  0  0
 35 80  2  0  0  0  0
 36 52  1  0  0  0  0
 36 76  1  0  0  0  0
 36 81  2  0  0  0  0
 37 65  1  0  0  0  0
 37 71  1  0  0  0  0
 37 82  2  0  0  0  0
 38 66  1  0  0  0  0
 38 77  1  0  0  0  0
 38 83  2  0  0  0  0
 39 72  1  0  0  0  0
 39 75  1  0  0  0  0
 39 84  2  0  0  0  0
 40 43  1  0  0  0  0
 41 52  1  0  0  0  0
 42 71  1  0  0  0  0
 43 45  1  0  0  0  0
 44 46  1  0  0  0  0
 44 48  1  0  0  0  0
 45 51  1  0  0  0  0
 46 53  1  0  0  0  0
 47 49  1  0  0  0  0
 47 54  1  0  0  0  0
 48 72  1  0  0  0  0
 49 70  1  0  0  0  0
 50 53  1  0  0  0  0
 50 72  1  0  0  0  0
 51 76  1  0  0  0  0
 52 71  1  0  0  0  0
 53 69  1  0  0  0  0
 54 55  1  0  0  0  0
 54 56  1  0  0  0  0
 54 64  1  0  0  0  0
 55 57  1  0  0  0  0
 55 58  1  0  0  0  0
 55 70  1  0  0  0  0
 59 66  1  0  0  0  0
 60 67  1  0  0  0  0
 61 67  1  0  0  0  0
 62 67  1  0  0  0  0
 63 79  1  0  0  0  0
 64 86  1  0  0  0  0
 65 67  1  0  0  0  0
 65 77  1  0  0  0  0
 66 79  1  0  0  0  0
 68 69  1  0  0  0  0
M  CHG  2  78   1  79   1
M  ISO  4  39 100  64 101  75 100  86 101
M  END
> <Batch ID>
0148

> <Smiles>
CNC(C)C(=O)NC(C(=O)N1Cc2cc([101O:1][101CH2:1]C3(C)CCN(C(=N)c4cccc([100NH:0][100C:0](=O)N5CCCC(n6nc(-c7ccc(Oc8ccc(F)cc8F)cc7)c(C(N)=O)c6N)C5)c4)C3(C)C)ccc2CC1C(=O)NC1CCCc2ccccc21)C(C)(C)C

> <Shape>
0.259

> <Color>
0.184

> <Negative vol penalty>
0.000

$$$$

  -OEChem-04052303163D

 85 94  0     1  0  0  0  0  0999 V2000
  -36.3659  -29.9568   27.4785 C   0  0  0  0  0  0  0  0  0  0  0  0
  -35.5640  -29.0293   26.8212 C   0  0  0  0  0  0  0  0  0  0  0  0
  -23.0764   -9.8662   19.9411 C   0  0  0  0  0  0  0  0  0  0  0  0
  -23.8348   -9.8749   22.2350 C   0  0  0  0  0  0  0  0  0  0  0  0
  -36.3388  -31.2967   27.0940 C   0  0  0  0  0  0  0  0  0  0  0  0
  -34.7335  -29.4415   25.7796 C   0  0  0  0  0  0  0  0  0  0  0  0
  -34.9268  -26.3261   21.7919 C   0  0  0  0  0  0  0  0  0  0  0  0
  -22.3327   -8.7130   20.1914 C   0  0  0  0  0  0  0  0  0  0  0  0
  -23.0910   -8.7218   22.4853 C   0  0  0  0  0  0  0  0  0  0  0  0
  -34.2112  -25.1329   21.8808 C   0  0  0  0  0  0  0  0  0  0  0  0
  -19.8627   -7.9235   23.0862 C   0  0  0  0  0  0  0  0  0  0  0  0
  -19.1049   -7.8841   24.2566 C   0  0  0  0  0  0  0  0  0  0  0  0
  -31.8819  -18.8137   22.3703 C   0  0  0  0  0  0  0  0  0  0  0  0
  -31.7940  -17.5549   21.7086 C   0  0  0  0  0  0  0  0  0  0  0  0
  -32.4375  -26.1059   20.5668 C   0  0  0  0  0  0  0  0  0  0  0  0
  -20.3464   -5.9475   24.9952 C   0  0  0  0  0  0  0  0  0  0  0  0
  -23.8275  -10.4471   20.9629 C   0  0  0  0  0  0  0  0  0  0  0  0
  -24.1687  -12.9723   20.8414 C   0  0  0  0  0  0  0  0  0  0  0  0
  -35.5147  -31.7238   26.0408 C   0  0  0  0  0  0  0  0  0  0  0  0
  -34.3975  -27.4236   21.0978 C   0  0  0  0  0  0  0  0  0  0  0  0
  -34.6943  -30.7886   25.3815 C   0  0  0  0  0  0  0  0  0  0  0  0
  -33.1496  -27.3111   20.4684 C   0  0  0  0  0  0  0  0  0  0  0  0
  -22.3400   -8.1408   21.4635 C   0  0  0  0  0  0  0  0  0  0  0  0
  -32.9650  -25.0236   21.2706 C   0  0  0  0  0  0  0  0  0  0  0  0
  -20.8622   -6.9748   22.8702 C   0  0  0  0  0  0  0  0  0  0  0  0
  -19.3468   -6.8962   25.2111 C   0  0  0  0  0  0  0  0  0  0  0  0
  -21.1041   -5.9869   23.8248 C   0  0  0  0  0  0  0  0  0  0  0  0
  -24.5964  -11.6380   20.7049 C   0  0  0  0  0  0  0  0  0  0  0  0
  -25.2609  -13.7218   20.4783 C   0  0  0  0  0  0  0  0  0  0  0  0
  -30.7344  -19.1106   23.0721 C   0  0  0  0  0  0  0  0  0  0  0  0
  -30.5825  -16.9374   21.9302 C   0  0  0  0  0  0  0  0  0  0  0  0
  -29.1757  -20.4558   24.5518 C   0  0  0  0  0  0  0  0  0  0  0  0
  -22.8978  -13.4880   21.2591 C   0  0  0  0  0  0  0  0  0  0  0  0
  -31.2167  -22.2674   22.8460 C   0  0  0  0  0  0  0  0  0  0  0  0
  -33.5539  -30.3840   21.8903 C   0  0  0  0  0  0  0  0  0  0  0  0
  -33.1139  -30.6980   18.6919 C   0  0  0  0  0  0  0  0  0  0  0  0
  -32.4982  -29.1945   15.6907 C   0  0  0  0  0  0  0  0  0  0  0  0
  -30.7267  -14.7690   20.6561 C   0  0  0  0  0  0  0  0  0  0  0  0
  -35.4841  -33.1908   25.6921 C   0  0  0  0  0  0  0  0  0  0  0  0
  -35.1939  -28.6949   20.9885 C   0  0  0  0  0  0  0  0  0  0  0  0
  -32.5461  -28.4533   19.6941 C   0  0  0  0  0  0  0  0  0  0  0  0
  -29.2618  -21.7961   25.2434 C   0  0  0  0  0  0  0  0  0  0  0  0
  -34.8555  -33.4805   24.3315 C   0  0  0  0  0  0  0  0  0  0  0  0
  -30.7502  -22.0970   25.2730 C   0  0  0  0  0  0  0  0  0  0  0  0
  -29.6145  -12.3534   18.2886 C   0  0  0  0  0  0  0  0  0  0  0  0
  -33.5520  -32.7049   24.1697 C   0  0  0  0  0  0  0  0  0  0  0  0
  -28.1747  -12.0617   18.7174 C   0  0  0  0  0  0  0  0  0  0  0  0
  -30.5288  -12.5832   19.4907 C   0  0  0  0  0  0  0  0  0  0  0  0
  -28.6207  -13.3080   20.8703 C   0  0  0  0  0  0  0  0  0  0  0  0
  -33.7986  -31.1926   24.2306 C   0  0  1  0  0  0  0  0  0  0  0  0
  -31.2908  -21.3759   24.0513 C   0  0  1  0  0  0  0  0  0  0  0  0
  -34.3305  -29.9172   20.6918 C   0  0  1  0  0  0  0  0  0  0  0  0
  -27.6487  -13.1337   19.6919 C   0  0  2  0  0  0  0  0  0  0  0  0
  -32.1558  -29.7155   13.2599 C   0  0  0  0  0  0  0  0  0  0  0  0
  -30.2918  -31.6838   19.3032 C   0  0  0  0  0  0  0  0  0  0  0  0
  -29.7053  -31.2784   16.9032 C   0  0  0  0  0  0  0  0  0  0  0  0
  -31.4672  -32.9438   17.4907 C   0  0  0  0  0  0  0  0  0  0  0  0
  -34.8547  -27.5902   14.8955 C   0  0  0  0  0  0  0  0  0  0  0  0
  -32.4612  -23.0681   22.5267 C   0  0  0  0  0  0  0  0  0  1  0  0
  -31.9593  -30.4770   17.7447 C   0  0  1  0  0  0  0  0  0  0  0  0
  -33.1647  -29.3418   14.3347 C   0  0  2  0  0  0  0  0  0  0  0  0
  -30.8661  -31.5747   17.8766 C   0  0  0  0  0  0  0  0  0  0  0  0
  -25.8616  -11.5423   20.2875 N   0  0  0  0  0  0  0  0  0  0  0  0
  -26.2382  -12.8259   20.1586 N   0  0  0  0  0  0  0  0  0  0  0  0
  -30.3922  -20.2501   23.8687 N   0  0  0  0  0  0  0  0  0  0  0  0
  -33.3606  -29.6776   19.6213 N   0  0  0  0  0  0  0  0  0  0  0  0
  -29.9690  -13.6144   20.3671 N   0  0  0  0  0  0  0  0  0  0  0  0
  -25.4710  -15.0533   20.4046 N   0  0  0  0  0  0  0  0  0  0  0  0
  -21.8859  -12.5788   21.5963 N   0  0  0  0  0  0  0  0  0  0  0  0
  -30.0786  -15.6944   21.4735 N   0  0  0  0  0  0  0  0  0  0  0  0
  -34.3411  -30.7180   22.9757 N   0  0  0  0  0  0  0  0  0  0  0  0
  -32.5404  -30.3695   16.4108 N   0  0  0  0  0  0  0  0  0  0  0  0
  -33.8216  -28.0640   13.9388 N   0  3  0  0  0  0  0  0  0  0  0  0
  -28.1704  -19.7615   24.5998 O   0  0  0  0  0  0  0  0  0  0  0  0
  -22.6612  -14.7186   21.3154 O   0  0  0  0  0  0  0  0  0  0  0  0
  -30.1957  -22.3356   22.1634 O   0  0  0  0  0  0  0  0  0  0  0  0
  -32.3309  -30.4385   21.8340 O   0  0  0  0  0  0  0  0  0  0  0  0
  -33.7771  -31.7345   18.6054 O   0  0  0  0  0  0  0  0  0  0  0  0
  -31.9878  -28.1432   16.0713 O   0  0  0  0  0  0  0  0  0  0  0  0
  -31.8561  -14.9377   20.1891 O   0  0  0  0  0  0  0  0  0  0  0  0
  -21.6142   -7.0156   21.7081 O   0  0  0  0  0  0  0  0  0  0  0  0
  -32.2641  -23.8604   21.3564 O   0  0  0  0  0  0  0  0  0  1  0  0
  -18.6201   -6.8595   26.3357 F   0  0  0  0  0  0  0  0  0  0  0  0
  -22.0638   -5.0735   23.6234 F   0  0  0  0  0  0  0  0  0  0  0  0
  -29.5576  -17.8745   22.9320 S   0  0  0  0  0  0  0  0  0  0  0  0
  1  2  1  0  0  0  0
  1  5  2  0  0  0  0
  2  6  2  0  0  0  0
  3  8  2  0  0  0  0
  3 17  1  0  0  0  0
  4  9  1  0  0  0  0
  4 17  2  0  0  0  0
  5 19  1  0  0  0  0
  6 21  1  0  0  0  0
  7 10  2  0  0  0  0
  7 20  1  0  0  0  0
  8 23  1  0  0  0  0
  9 23  2  0  0  0  0
 10 24  1  0  0  0  0
 11 12  2  0  0  0  0
 11 25  1  0  0  0  0
 12 26  1  0  0  0  0
 13 14  1  0  0  0  0
 13 30  2  0  0  0  0
 14 31  2  0  0  0  0
 15 22  1  0  0  0  0
 15 24  2  0  0  0  0
 16 26  2  0  0  0  0
 16 27  1  0  0  0  0
 17 28  1  0  0  0  0
 18 28  1  0  0  0  0
 18 29  2  0  0  0  0
 18 33  1  0  0  0  0
 19 21  2  0  0  0  0
 19 39  1  0  0  0  0
 20 22  2  0  0  0  0
 20 40  1  0  0  0  0
 21 50  1  0  0  0  0
 22 41  1  0  0  0  0
 23 81  1  0  0  0  0
 24 82  1  0  0  0  0
 25 27  2  0  0  0  0
 25 81  1  0  0  0  0
 26 83  1  0  0  0  0
 27 84  1  0  0  0  0
 28 63  2  0  0  0  0
 29 64  1  0  0  0  0
 29 68  1  0  0  0  0
 30 65  1  0  0  0  0
 30 85  1  0  0  0  0
 31 70  1  0  0  0  0
 31 85  1  0  0  0  0
 32 42  1  0  0  0  0
 32 65  1  0  0  0  0
 32 74  2  0  0  0  0
 33 69  1  0  0  0  0
 33 75  2  0  0  0  0
 34 51  1  0  0  0  0
 34 59  1  0  0  0  0
 34 76  2  0  0  0  0
 35 52  1  0  0  0  0
 35 71  1  0  0  0  0
 35 77  2  0  0  0  0
 36 60  1  0  0  0  0
 36 66  1  0  0  0  0
 36 78  2  0  0  0  0
 37 61  1  0  0  0  0
 37 72  1  0  0  0  0
 37 79  2  0  0  0  0
 38 67  1  0  0  0  0
 38 70  1  0  0  0  0
 38 80  2  0  0  0  0
 39 43  1  0  0  0  0
 40 52  1  0  0  0  0
 41 66  1  0  0  0  0
 42 44  1  0  0  0  0
 43 46  1  0  0  0  0
 44 51  1  0  0  0  0
 45 47  1  0  0  0  0
 45 48  1  0  0  0  0
 46 50  1  0  0  0  0
 47 53  1  0  0  0  0
 48 67  1  0  0  0  0
 49 53  1  0  0  0  0
 49 67  1  0  0  0  0
 50 71  1  0  0  0  0
 51 65  1  0  0  0  0
 52 66  1  0  0  0  0
 53 64  1  0  0  0  0
 54 61  1  0  0  0  0
 55 62  1  0  0  0  0
 56 62  1  0  0  0  0
 57 62  1  0  0  0  0
 58 73  1  0  0  0  0
 59 82  1  0  0  0  0
 60 62  1  0  0  0  0
 60 72  1  0  0  0  0
 61 73  1  0  0  0  0
 63 64  1  0  0  0  0
M  CHG  1  73   1
M  ISO  4  38 100  59 101  70 100  82 101
M  END
> <Batch ID>
0148

> <Smiles>
CNC(C)C(=O)NC(C(=O)N1Cc2cc([101O:1][101CH2:1]C(=O)C3CCC(=O)N3c3ccc([100NH:0][100C:0](=O)N4CCCC(n5nc(-c6ccc(Oc7ccc(F)cc7F)cc6)c(C(N)=O)c5N)C4)s3)ccc2CC1C(=O)NC1CCCc2ccccc21)C(C)(C)C

> <Shape>
0.174

> <Color>
0.188

> <Negative vol penalty>
0.000

$$$$

  -OEChem-04052303163D

 87 96  0     1  0  0  0  0  0999 V2000
  -26.1152  -32.4968   28.2925 C   0  0  0  0  0  0  0  0  0  0  0  0
  -26.0948  -31.1219   28.0810 C   0  0  0  0  0  0  0  0  0  0  0  0
  -23.2642  -13.0472   23.6030 C   0  0  0  0  0  0  0  0  0  0  0  0
  -24.3050  -10.8720   23.4528 C   0  0  0  0  0  0  0  0  0  0  0  0
  -25.4316  -33.3450   27.4223 C   0  0  0  0  0  0  0  0  0  0  0  0
  -25.3899  -30.5943   26.9997 C   0  0  0  0  0  0  0  0  0  0  0  0
  -28.7106  -26.6240   21.9896 C   0  0  0  0  0  0  0  0  0  0  0  0
  -22.6703  -12.6796   24.8104 C   0  0  0  0  0  0  0  0  0  0  0  0
  -23.7111  -10.5045   24.6602 C   0  0  0  0  0  0  0  0  0  0  0  0
  -29.2317  -25.6803   21.1042 C   0  0  0  0  0  0  0  0  0  0  0  0
  -20.0189  -10.8449   25.8246 C   0  0  0  0  0  0  0  0  0  0  0  0
  -18.6715  -11.1574   26.0047 C   0  0  0  0  0  0  0  0  0  0  0  0
  -27.1131  -25.5848   19.9423 C   0  0  0  0  0  0  0  0  0  0  0  0
  -30.0569  -18.2864   21.5907 C   0  0  0  0  0  0  0  0  0  0  0  0
  -19.2404  -12.4998   27.9312 C   0  0  0  0  0  0  0  0  0  0  0  0
  -31.9954  -17.4961   20.5809 C   0  0  0  0  0  0  0  0  0  0  0  0
  -24.0816  -12.1433   22.9242 C   0  0  0  0  0  0  0  0  0  0  0  0
  -24.0419  -12.9140   20.4927 C   0  0  0  0  0  0  0  0  0  0  0  0
  -24.7259  -32.8283   26.3243 C   0  0  0  0  0  0  0  0  0  0  0  0
  -27.3918  -27.0637   21.8451 C   0  0  0  0  0  0  0  0  0  0  0  0
  -24.6951  -31.4363   26.1148 C   0  0  0  0  0  0  0  0  0  0  0  0
  -26.5894  -26.5391   20.8185 C   0  0  0  0  0  0  0  0  0  0  0  0
  -30.7257  -17.1725   21.0060 C   0  0  0  0  0  0  0  0  0  0  0  0
  -22.8937  -11.4083   25.3390 C   0  0  0  0  0  0  0  0  0  0  0  0
  -28.4348  -25.1619   20.0832 C   0  0  0  0  0  0  0  0  0  0  0  0
  -20.9771  -11.3599   26.6979 C   0  0  0  0  0  0  0  0  0  0  0  0
  -18.2822  -11.9848   27.0580 C   0  0  0  0  0  0  0  0  0  0  0  0
  -20.5878  -12.1873   27.7511 C   0  0  0  0  0  0  0  0  0  0  0  0
  -24.6949  -12.5222   21.6767 C   0  0  0  0  0  0  0  0  0  0  0  0
  -30.8410  -19.4191   21.5904 C   0  0  0  0  0  0  0  0  0  0  0  0
  -25.0602  -13.1680   19.6068 C   0  0  0  0  0  0  0  0  0  0  0  0
  -22.6400  -13.0374   20.2183 C   0  0  0  0  0  0  0  0  0  0  0  0
  -24.6498  -29.2927   23.1055 C   0  0  0  0  0  0  0  0  0  0  0  0
  -28.5264  -21.6314   20.7238 C   0  0  0  0  0  0  0  0  0  0  0  0
  -24.5323  -29.3811   20.0414 C   0  0  0  0  0  0  0  0  0  0  0  0
  -25.0072  -29.5346   16.6668 C   0  0  0  0  0  0  0  0  0  0  0  0
  -30.7789  -14.7531   20.3060 C   0  0  0  0  0  0  0  0  0  0  0  0
  -23.9631  -33.7810   25.4382 C   0  0  0  0  0  0  0  0  0  0  0  0
  -26.7698  -28.0329   22.8133 C   0  0  0  0  0  0  0  0  0  0  0  0
  -25.1658  -27.0156   20.7224 C   0  0  0  0  0  0  0  0  0  0  0  0
  -23.5502  -33.1711   24.1011 C   0  0  0  0  0  0  0  0  0  0  0  0
  -30.0362  -20.5988   24.6381 C   0  0  0  0  0  0  0  0  0  0  0  0
  -28.6736  -21.2277   24.3973 C   0  0  0  0  0  0  0  0  0  0  0  0
  -29.5603  -11.8735   18.6029 C   0  0  0  0  0  0  0  0  0  0  0  0
  -22.9440  -31.7870   24.3102 C   0  0  0  0  0  0  0  0  0  0  0  0
  -31.0098  -21.0410   23.5543 C   0  0  0  0  0  0  0  0  0  0  0  0
  -28.1131  -11.7523   19.0854 C   0  0  0  0  0  0  0  0  0  0  0  0
  -28.1305  -20.8649   23.0233 C   0  0  0  0  0  0  0  0  0  0  0  0
  -30.4902  -12.3569   19.7144 C   0  0  0  0  0  0  0  0  0  0  0  0
  -28.6199  -13.4723   20.8663 C   0  0  0  0  0  0  0  0  0  0  0  0
  -23.9622  -30.8280   24.9388 C   0  0  1  0  0  0  0  0  0  0  0  0
  -30.5006  -20.8126   22.1203 C   0  0  2  0  0  0  0  0  0  0  0  0
  -25.7641  -28.9893   22.1476 C   0  0  1  0  0  0  0  0  0  0  0  0
  -27.6346  -13.0509   19.7639 C   0  0  2  0  0  0  0  0  0  0  0  0
  -24.0684  -30.5876   14.5914 C   0  0  0  0  0  0  0  0  0  0  0  0
  -31.2411  -23.6087   18.9092 C   0  0  0  0  0  0  0  0  0  0  0  0
  -22.2086  -27.4059   20.0949 C   0  0  0  0  0  0  0  0  0  0  0  0
  -21.8872  -27.8269   17.6479 C   0  0  0  0  0  0  0  0  0  0  0  0
  -21.6146  -29.6942   19.2793 C   0  0  0  0  0  0  0  0  0  0  0  0
  -27.5447  -30.9466   16.0955 C   0  0  0  0  0  0  0  0  0  0  0  0
  -29.4933  -21.9407   19.6078 C   0  0  0  0  0  0  0  0  0  0  0  0
  -23.9308  -28.8114   18.7817 C   0  0  1  0  0  0  0  0  0  0  0  0
  -25.0875  -30.7131   15.7132 C   0  0  2  0  0  0  0  0  0  0  0  0
  -29.9734  -23.3843   19.7218 C   0  0  2  0  0  0  0  0  0  1  0  0
  -22.4354  -28.4255   18.9609 C   0  0  0  0  0  0  0  0  0  0  0  0
  -26.0252  -12.5254   21.5570 N   0  0  0  0  0  0  0  0  0  0  0  0
  -26.2163  -12.9222   20.2873 N   0  0  0  0  0  0  0  0  0  0  0  0
  -25.1074  -28.4702   20.9358 N   0  0  0  0  0  0  0  0  0  0  0  0
  -29.0671  -21.1544   21.9281 N   0  0  0  0  0  0  0  0  0  0  0  0
  -29.9757  -13.5930   20.3077 N   0  0  0  0  0  0  0  0  0  0  0  0
  -25.0706  -13.5754   18.3198 N   0  0  0  0  0  0  0  0  0  0  0  0
  -21.9562  -11.9206   19.7187 N   0  0  0  0  0  0  0  0  0  0  0  0
  -30.1718  -15.8756   20.8680 N   0  0  0  0  0  0  0  0  0  0  0  0
  -24.9023  -30.3639   23.9412 N   0  0  0  0  0  0  0  0  0  0  0  0
  -24.1723  -29.7960   17.7325 N   0  0  0  0  0  0  0  0  0  0  0  0
  -26.4462  -30.7970   15.1067 N   0  3  0  0  0  0  0  0  0  0  0  0
  -22.0159  -14.1110   20.3950 O   0  0  0  0  0  0  0  0  0  0  0  0
  -23.6343  -28.6070   23.0878 O   0  0  0  0  0  0  0  0  0  0  0  0
  -27.3208  -21.8193   20.5353 O   0  0  0  0  0  0  0  0  0  0  0  0
  -24.4898  -30.5997   20.2325 O   0  0  0  0  0  0  0  0  0  0  0  0
  -25.6207  -28.4857   16.4826 O   0  0  0  0  0  0  0  0  0  0  0  0
  -31.9110  -14.7578   19.8156 O   0  0  0  0  0  0  0  0  0  0  0  0
  -22.3145  -11.0494   26.5172 O   0  0  0  0  0  0  0  0  0  0  0  0
  -28.9513  -24.2442   19.2195 O   0  0  0  0  0  0  0  0  0  1  0  0
  -16.9884  -12.2860   27.2299 F   0  0  0  0  0  0  0  0  0  0  0  0
  -21.5038  -12.6860   28.5926 F   0  0  0  0  0  0  0  0  0  0  0  0
  -32.3766  -19.1373   20.8870 S   0  0  0  0  0  0  0  0  0  0  0  0
  1  2  1  0  0  0  0
  1  5  2  0  0  0  0
  2  6  2  0  0  0  0
  3  8  2  0  0  0  0
  3 17  1  0  0  0  0
  4  9  1  0  0  0  0
  4 17  2  0  0  0  0
  5 19  1  0  0  0  0
  6 21  1  0  0  0  0
  7 10  2  0  0  0  0
  7 20  1  0  0  0  0
  8 24  1  0  0  0  0
  9 24  2  0  0  0  0
 10 25  1  0  0  0  0
 11 12  2  0  0  0  0
 11 26  1  0  0  0  0
 12 27  1  0  0  0  0
 13 22  1  0  0  0  0
 13 25  2  0  0  0  0
 14 23  1  0  0  0  0
 14 30  2  0  0  0  0
 15 27  2  0  0  0  0
 15 28  1  0  0  0  0
 16 23  2  0  0  0  0
 16 87  1  0  0  0  0
 17 29  1  0  0  0  0
 18 29  1  0  0  0  0
 18 31  2  0  0  0  0
 18 32  1  0  0  0  0
 19 21  2  0  0  0  0
 19 38  1  0  0  0  0
 20 22  2  0  0  0  0
 20 39  1  0  0  0  0
 21 51  1  0  0  0  0
 22 40  1  0  0  0  0
 23 73  1  0  0  0  0
 24 83  1  0  0  0  0
 25 84  1  0  0  0  0
 26 28  2  0  0  0  0
 26 83  1  0  0  0  0
 27 85  1  0  0  0  0
 28 86  1  0  0  0  0
 29 66  2  0  0  0  0
 30 52  1  0  0  0  0
 30 87  1  0  0  0  0
 31 67  1  0  0  0  0
 31 71  1  0  0  0  0
 32 72  1  0  0  0  0
 32 77  2  0  0  0  0
 33 53  1  0  0  0  0
 33 74  1  0  0  0  0
 33 78  2  0  0  0  0
 34 61  1  0  0  0  0
 34 69  1  0  0  0  0
 34 79  2  0  0  0  0
 35 62  1  0  0  0  0
 35 68  1  0  0  0  0
 35 80  2  0  0  0  0
 36 63  1  0  0  0  0
 36 75  1  0  0  0  0
 36 81  2  0  0  0  0
 37 70  1  0  0  0  0
 37 73  1  0  0  0  0
 37 82  2  0  0  0  0
 38 41  1  0  0  0  0
 39 53  1  0  0  0  0
 40 68  1  0  0  0  0
 41 45  1  0  0  0  0
 42 43  1  0  0  0  0
 42 46  1  0  0  0  0
 43 48  1  0  0  0  0
 44 47  1  0  0  0  0
 44 49  1  0  0  0  0
 45 51  1  0  0  0  0
 46 52  1  0  0  0  0
 47 54  1  0  0  0  0
 48 69  1  0  0  0  0
 49 70  1  0  0  0  0
 50 54  1  0  0  0  0
 50 70  1  0  0  0  0
 51 74  1  0  0  0  0
 52 69  1  0  0  0  0
 53 68  1  0  0  0  0
 54 67  1  0  0  0  0
 55 63  1  0  0  0  0
 56 64  1  0  0  0  0
 57 65  1  0  0  0  0
 58 65  1  0  0  0  0
 59 65  1  0  0  0  0
 60 76  1  0  0  0  0
 61 64  1  0  0  0  0
 62 65  1  0  0  0  0
 62 75  1  0  0  0  0
 63 76  1  0  0  0  0
 64 84  1  0  0  0  0
 66 67  1  0  0  0  0
M  CHG  1  76   1
M  ISO  4  37 100  64 101  73 100  84 101
M  END
> <Batch ID>
0148

> <Smiles>
CNC(C)C(=O)NC(C(=O)N1Cc2cc([101O:1][101CH:1](C)CC(=O)N3CCCCC3c3cc([100NH:0][100C:0](=O)N4CCCC(n5nc(-c6ccc(Oc7ccc(F)cc7F)cc6)c(C(N)=O)c5N)C4)cs3)ccc2CC1C(=O)NC1CCCc2ccccc21)C(C)(C)C

> <Shape>
0.235

> <Color>
0.096

> <Negative vol penalty>
0.000

$$$$

  -OEChem-04052303163D

 86 95  0     1  0  0  0  0  0999 V2000
  -23.1628  -32.7731   14.8794 C   0  0  0  0  0  0  0  0  0  0  0  0
  -24.1594  -31.8045   14.9433 C   0  0  0  0  0  0  0  0  0  0  0  0
  -23.7059   -9.7901   22.4263 C   0  0  0  0  0  0  0  0  0  0  0  0
  -23.6878   -9.5609   20.0213 C   0  0  0  0  0  0  0  0  0  0  0  0
  -22.8684  -33.5439   16.0033 C   0  0  0  0  0  0  0  0  0  0  0  0
  -24.8629  -31.6070   16.1310 C   0  0  0  0  0  0  0  0  0  0  0  0
  -26.6083  -21.8061   24.3346 C   0  0  0  0  0  0  0  0  0  0  0  0
  -27.0061  -26.2961   18.3005 C   0  0  0  0  0  0  0  0  0  0  0  0
  -27.8075  -22.2954   23.8174 C   0  0  0  0  0  0  0  0  0  0  0  0
  -22.7595   -8.7709   22.5306 C   0  0  0  0  0  0  0  0  0  0  0  0
  -22.7414   -8.5416   20.1255 C   0  0  0  0  0  0  0  0  0  0  0  0
  -28.2696  -25.7082   18.2609 C   0  0  0  0  0  0  0  0  0  0  0  0
  -20.6159   -5.9830   23.4516 C   0  0  0  0  0  0  0  0  0  0  0  0
  -20.8230   -5.0025   24.4218 C   0  0  0  0  0  0  0  0  0  0  0  0
  -27.4492  -21.0325   21.7917 C   0  0  0  0  0  0  0  0  0  0  0  0
  -28.7408  -26.5868   20.4575 C   0  0  0  0  0  0  0  0  0  0  0  0
  -22.9193   -4.4109   23.3764 C   0  0  0  0  0  0  0  0  0  0  0  0
  -24.1701  -10.1852   21.1716 C   0  0  0  0  0  0  0  0  0  0  0  0
  -26.5485  -11.1016   21.0655 C   0  0  0  0  0  0  0  0  0  0  0  0
  -23.5620  -33.3491   17.2080 C   0  0  0  0  0  0  0  0  0  0  0  0
  -25.8131  -20.9318   23.5808 C   0  0  0  0  0  0  0  0  0  0  0  0
  -26.6039  -27.0442   19.4163 C   0  0  0  0  0  0  0  0  0  0  0  0
  -24.5784  -32.3769   17.2716 C   0  0  0  0  0  0  0  0  0  0  0  0
  -26.2459  -20.5262   22.3040 C   0  0  0  0  0  0  0  0  0  0  0  0
  -27.4707  -27.1811   20.5099 C   0  0  0  0  0  0  0  0  0  0  0  0
  -28.2260  -21.9114   22.5460 C   0  0  0  0  0  0  0  0  0  0  0  0
  -22.2772   -8.1466   21.3802 C   0  0  0  0  0  0  0  0  0  0  0  0
  -29.1383  -25.8559   19.3382 C   0  0  0  0  0  0  0  0  0  0  0  0
  -21.5605   -6.1774   22.4437 C   0  0  0  0  0  0  0  0  0  0  0  0
  -21.9747   -4.2165   24.3842 C   0  0  0  0  0  0  0  0  0  0  0  0
  -22.7121   -5.3914   22.4061 C   0  0  0  0  0  0  0  0  0  0  0  0
  -25.1474  -11.2384   21.0632 C   0  0  0  0  0  0  0  0  0  0  0  0
  -27.0191  -12.3857   20.9388 C   0  0  0  0  0  0  0  0  0  0  0  0
  -27.3526   -9.9194   21.1726 C   0  0  0  0  0  0  0  0  0  0  0  0
  -25.7659  -30.0714   19.9037 C   0  0  0  0  0  0  0  0  0  0  0  0
  -25.0866  -28.9953   22.8874 C   0  0  0  0  0  0  0  0  0  0  0  0
  -30.0056  -22.1346   20.7780 C   0  0  0  0  0  0  0  0  0  0  0  0
  -25.6392  -26.6715   25.3249 C   0  0  0  0  0  0  0  0  0  0  0  0
  -24.1639  -17.5595   22.3317 C   0  0  0  0  0  0  0  0  0  0  0  0
  -23.2409  -34.2390   18.3826 C   0  0  0  0  0  0  0  0  0  0  0  0
  -24.5317  -20.3966   24.1698 C   0  0  0  0  0  0  0  0  0  0  0  0
  -25.2275  -27.6497   19.4548 C   0  0  0  0  0  0  0  0  0  0  0  0
  -25.4224  -19.5840   21.4541 C   0  0  0  0  0  0  0  0  0  0  0  0
  -27.0793  -27.9573   21.7399 C   0  0  0  0  0  0  0  0  0  0  0  0
  -23.7760  -33.7108   19.7112 C   0  0  0  0  0  0  0  0  0  0  0  0
  -25.8595  -16.6489   19.1279 C   0  0  0  0  0  0  0  0  0  0  0  0
  -25.2259  -33.2610   19.5617 C   0  0  0  0  0  0  0  0  0  0  0  0
  -25.9197  -15.1271   19.2517 C   0  0  0  0  0  0  0  0  0  0  0  0
  -23.5996  -19.8438   23.0966 C   0  0  0  0  0  0  0  0  0  0  0  0
  -24.6613  -17.2166   19.8792 C   0  0  0  0  0  0  0  0  0  0  0  0
  -24.6711  -15.3085   21.4524 C   0  0  0  0  0  0  0  0  0  0  0  0
  -25.3467  -32.1159   18.5490 C   0  0  1  0  0  0  0  0  0  0  0  0
  -25.1170  -28.8209   20.4261 C   0  0  1  0  0  0  0  0  0  0  0  0
  -25.8792  -14.6927   20.7268 C   0  0  1  0  0  0  0  0  0  0  0  0
  -25.3309  -25.4623   27.5020 C   0  0  0  0  0  0  0  0  0  0  0  0
  -26.8690  -31.2264   23.9623 C   0  0  0  0  0  0  0  0  0  0  0  0
  -26.9262  -30.0272   26.1594 C   0  0  0  0  0  0  0  0  0  0  0  0
  -24.7580  -30.8642   25.2534 C   0  0  0  0  0  0  0  0  0  0  0  0
  -23.5726  -24.8911   24.1766 C   0  0  0  0  0  0  0  0  0  0  0  0
  -31.3216  -22.8817   20.6116 C   0  0  0  0  0  0  0  0  0  0  0  0
  -31.6175  -23.2336   19.1578 C   0  0  0  0  0  0  0  0  0  0  0  0
  -30.5107  -24.0816   18.5481 C   0  0  0  0  0  0  0  0  0  1  0  0
  -25.8599  -28.8596   24.1768 C   0  0  1  0  0  0  0  0  0  0  0  0
  -24.6817  -25.8707   26.1888 C   0  0  2  0  0  0  0  0  0  0  0  0
  -26.1117  -30.2313   24.8641 C   0  0  0  0  0  0  0  0  0  0  0  0
  -24.7536  -12.5092   20.9446 N   0  0  0  0  0  0  0  0  0  0  0  0
  -25.9143  -13.1826   20.8712 N   0  0  0  0  0  0  0  0  0  0  0  0
  -25.7255  -28.5357   21.7271 N   0  0  0  0  0  0  0  0  0  0  0  0
  -24.3317  -18.9469   22.2059 N   0  0  0  0  0  0  0  0  0  0  0  0
  -24.6323  -16.7618   21.2754 N   0  0  0  0  0  0  0  0  0  0  0  0
  -28.2660  -12.8996   20.8797 N   0  0  0  0  0  0  0  0  0  0  0  0
  -26.7074   -8.6814   21.2962 N   0  0  0  0  0  0  0  0  0  0  0  0
  -29.4239  -22.4042   22.0274 N   0  0  0  0  0  0  0  0  0  0  0  0
  -24.9268  -30.8665   19.1464 N   0  0  0  0  0  0  0  0  0  0  0  0
  -25.1208  -27.9066   24.9977 N   0  0  0  0  0  0  0  0  0  0  0  0
  -24.2484  -24.6365   25.4748 N   0  3  0  0  0  0  0  0  0  0  0  0
  -28.6063   -9.9613   21.1756 O   0  0  0  0  0  0  0  0  0  0  0  0
  -26.9404  -30.2989   20.1692 O   0  0  0  0  0  0  0  0  0  0  0  0
  -23.9543  -29.4845   22.9100 O   0  0  0  0  0  0  0  0  0  0  0  0
  -29.5567  -21.4032   19.9017 O   0  0  0  0  0  0  0  0  0  0  0  0
  -26.7387  -26.2456   24.9782 O   0  0  0  0  0  0  0  0  0  0  0  0
  -23.6386  -17.0597   23.3346 O   0  0  0  0  0  0  0  0  0  0  0  0
  -21.3538   -7.1518   21.4816 O   0  0  0  0  0  0  0  0  0  0  0  0
  -30.3815  -25.2794   19.3015 O   0  0  0  0  0  0  0  0  0  1  0  0
  -22.1742   -3.2760   25.3169 F   0  0  0  0  0  0  0  0  0  0  0  0
  -23.6237   -5.5743   21.4410 F   0  0  0  0  0  0  0  0  0  0  0  0
  1  2  1  0  0  0  0
  1  5  2  0  0  0  0
  2  6  2  0  0  0  0
  3 10  2  0  0  0  0
  3 18  1  0  0  0  0
  4 11  1  0  0  0  0
  4 18  2  0  0  0  0
  5 20  1  0  0  0  0
  6 23  1  0  0  0  0
  7  9  2  0  0  0  0
  7 21  1  0  0  0  0
  8 12  2  0  0  0  0
  8 22  1  0  0  0  0
  9 26  1  0  0  0  0
 10 27  1  0  0  0  0
 11 27  2  0  0  0  0
 12 28  1  0  0  0  0
 13 14  2  0  0  0  0
 13 29  1  0  0  0  0
 14 30  1  0  0  0  0
 15 24  1  0  0  0  0
 15 26  2  0  0  0  0
 16 25  1  0  0  0  0
 16 28  2  0  0  0  0
 17 30  2  0  0  0  0
 17 31  1  0  0  0  0
 18 32  1  0  0  0  0
 19 32  1  0  0  0  0
 19 33  2  0  0  0  0
 19 34  1  0  0  0  0
 20 23  2  0  0  0  0
 20 40  1  0  0  0  0
 21 24  2  0  0  0  0
 21 41  1  0  0  0  0
 22 25  2  0  0  0  0
 22 42  1  0  0  0  0
 23 52  1  0  0  0  0
 24 43  1  0  0  0  0
 25 44  1  0  0  0  0
 26 73  1  0  0  0  0
 27 83  1  0  0  0  0
 28 84  1  0  0  0  0
 29 31  2  0  0  0  0
 29 83  1  0  0  0  0
 30 85  1  0  0  0  0
 31 86  1  0  0  0  0
 32 66  2  0  0  0  0
 33 67  1  0  0  0  0
 33 71  1  0  0  0  0
 34 72  1  0  0  0  0
 34 77  2  0  0  0  0
 35 53  1  0  0  0  0
 35 74  1  0  0  0  0
 35 78  2  0  0  0  0
 36 63  1  0  0  0  0
 36 68  1  0  0  0  0
 36 79  2  0  0  0  0
 37 60  1  0  0  0  0
 37 73  1  0  0  0  0
 37 80  2  0  0  0  0
 38 64  1  0  0  0  0
 38 75  1  0  0  0  0
 38 81  2  0  0  0  0
 39 69  1  0  0  0  0
 39 70  1  0  0  0  0
 39 82  2  0  0  0  0
 40 45  1  0  0  0  0
 41 49  1  0  0  0  0
 42 53  1  0  0  0  0
 43 69  1  0  0  0  0
 44 68  1  0  0  0  0
 45 47  1  0  0  0  0
 46 48  1  0  0  0  0
 46 50  1  0  0  0  0
 47 52  1  0  0  0  0
 48 54  1  0  0  0  0
 49 69  1  0  0  0  0
 50 70  1  0  0  0  0
 51 54  1  0  0  0  0
 51 70  1  0  0  0  0
 52 74  1  0  0  0  0
 53 68  1  0  0  0  0
 54 67  1  0  0  0  0
 55 64  1  0  0  0  0
 56 65  1  0  0  0  0
 57 65  1  0  0  0  0
 58 65  1  0  0  0  0
 59 76  1  0  0  0  0
 60 61  1  0  0  0  0
 61 62  1  0  0  0  0
 62 84  1  0  0  0  0
 63 65  1  0  0  0  0
 63 75  1  0  0  0  0
 64 76  1  0  0  0  0
 66 67  1  0  0  0  0
M  CHG  1  76   1
M  ISO  4  39 100  62 101  69 100  84 101
M  END
> <Batch ID>
0148

> <Smiles>
CNC(C)C(=O)NC(C(=O)N1Cc2cc([101O:1][101CH2:1]CCC(=O)Nc3ccc4c(c3)C[100N:0]([100C:0](=O)N3CCCC(n5nc(-c6ccc(Oc7ccc(F)cc7F)cc6)c(C(N)=O)c5N)C3)CC4)ccc2CC1C(=O)NC1CCCc2ccccc21)C(C)(C)C

> <Shape>
0.238

> <Color>
0.121

> <Negative vol penalty>
0.000

$$$$

  -OEChem-04052303163D

 88 98  0     1  0  0  0  0  0999 V2000
  -23.0834  -37.6374   21.1914 C   0  0  0  0  0  0  0  0  0  0  0  0
  -23.6499  -36.7673   20.2654 C   0  0  0  0  0  0  0  0  0  0  0  0
  -23.5666  -10.1127   19.7885 C   0  0  0  0  0  0  0  0  0  0  0  0
  -24.4950  -10.0351   22.0177 C   0  0  0  0  0  0  0  0  0  0  0  0
  -23.2166  -37.3845   22.5561 C   0  0  0  0  0  0  0  0  0  0  0  0
  -24.3510  -35.6444   20.7036 C   0  0  0  0  0  0  0  0  0  0  0  0
  -26.8450  -20.7191   23.6263 C   0  0  0  0  0  0  0  0  0  0  0  0
  -25.7717  -28.8735   18.8455 C   0  0  0  0  0  0  0  0  0  0  0  0
  -27.1629  -19.3851   23.3469 C   0  0  0  0  0  0  0  0  0  0  0  0
  -23.2759   -8.7505   19.8622 C   0  0  0  0  0  0  0  0  0  0  0  0
  -24.2042   -8.6729   22.0914 C   0  0  0  0  0  0  0  0  0  0  0  0
  -26.8516  -28.0114   18.6604 C   0  0  0  0  0  0  0  0  0  0  0  0
  -21.4978   -6.7329   22.6679 C   0  0  0  0  0  0  0  0  0  0  0  0
  -20.9120   -6.2594   23.8418 C   0  0  0  0  0  0  0  0  0  0  0  0
  -26.9498  -27.6329   21.0408 C   0  0  0  0  0  0  0  0  0  0  0  0
  -28.6072  -20.0422   21.4827 C   0  0  0  0  0  0  0  0  0  0  0  0
  -22.7910   -4.7794   24.1825 C   0  0  0  0  0  0  0  0  0  0  0  0
  -24.1762  -10.7550   20.8663 C   0  0  0  0  0  0  0  0  0  0  0  0
  -23.6458  -13.2312   21.1744 C   0  0  0  0  0  0  0  0  0  0  0  0
  -23.9115  -36.2528   23.0110 C   0  0  0  0  0  0  0  0  0  0  0  0
  -25.2788  -29.1307   20.1329 C   0  0  0  0  0  0  0  0  0  0  0  0
  -24.4948  -35.3770   22.0756 C   0  0  0  0  0  0  0  0  0  0  0  0
  -27.4158  -21.6652   22.8181 C   0  0  0  0  0  0  0  0  0  0  0  0
  -25.8619  -28.4967   21.2393 C   0  0  0  0  0  0  0  0  0  0  0  0
  -28.2498  -21.3203   21.7802 C   0  0  0  0  0  0  0  0  0  0  0  0
  -28.0401  -19.0509   22.2888 C   0  0  0  0  0  0  0  0  0  0  0  0
  -23.5946   -8.0306   21.0136 C   0  0  0  0  0  0  0  0  0  0  0  0
  -27.4427  -27.3932   19.7583 C   0  0  0  0  0  0  0  0  0  0  0  0
  -22.7302   -6.2297   22.2512 C   0  0  0  0  0  0  0  0  0  0  0  0
  -21.5586   -5.2827   24.5992 C   0  0  0  0  0  0  0  0  0  0  0  0
  -23.3768   -5.2530   23.0085 C   0  0  0  0  0  0  0  0  0  0  0  0
  -24.4774  -12.1621   20.7906 C   0  0  0  0  0  0  0  0  0  0  0  0
  -24.3868  -14.3560   20.9058 C   0  0  0  0  0  0  0  0  0  0  0  0
  -22.3219  -13.2095   21.7245 C   0  0  0  0  0  0  0  0  0  0  0  0
  -25.0123  -31.7203   21.9568 C   0  0  0  0  0  0  0  0  0  0  0  0
  -23.4137  -29.6948   23.9225 C   0  0  0  0  0  0  0  0  0  0  0  0
  -22.8479  -26.4857   24.9365 C   0  0  0  0  0  0  0  0  0  0  0  0
  -29.1845  -17.1780   21.0524 C   0  0  0  0  0  0  0  0  0  0  0  0
  -24.0696  -36.0467   24.4967 C   0  0  0  0  0  0  0  0  0  0  0  0
  -24.0962  -30.0424   20.3132 C   0  0  0  0  0  0  0  0  0  0  0  0
  -27.6451  -23.1067   22.5108 C   0  0  0  0  0  0  0  0  0  0  0  0
  -25.3574  -28.7236   22.6402 C   0  0  0  0  0  0  0  0  0  0  0  0
  -24.5075  -34.6334   24.8724 C   0  0  0  0  0  0  0  0  0  0  0  0
  -28.7169  -14.9141   18.3444 C   0  0  0  0  0  0  0  0  0  0  0  0
  -25.6623  -34.1788   23.9855 C   0  0  0  0  0  0  0  0  0  0  0  0
  -27.5038  -14.0842   18.7710 C   0  0  0  0  0  0  0  0  0  0  0  0
  -29.3101  -23.2117   17.5276 C   0  0  0  0  0  0  0  0  0  0  0  0
  -28.5939  -24.5278   17.4226 C   0  0  0  0  0  0  0  0  0  0  0  0
  -29.6135  -15.2598   19.5319 C   0  0  0  0  0  0  0  0  0  0  0  0
  -27.7144  -15.0678   21.0894 C   0  0  0  0  0  0  0  0  0  0  0  0
  -25.2416  -34.1350   22.5115 C   0  0  1  0  0  0  0  0  0  0  0  0
  -24.0047  -30.6317   21.7174 C   0  0  1  0  0  0  0  0  0  0  0  0
  -26.7474  -14.7501   19.9372 C   0  0  2  0  0  0  0  0  0  0  0  0
  -28.5571  -23.7541   18.7198 C   0  0  0  0  0  0  0  0  0  0  0  0
  -27.2673  -23.0828   19.1042 C   0  0  0  0  0  0  0  0  0  0  0  0
  -21.5145  -25.1480   26.5888 C   0  0  0  0  0  0  0  0  0  0  0  0
  -25.3140  -30.5555   26.1492 C   0  0  0  0  0  0  0  0  0  0  0  0
  -24.5776  -28.5517   27.4571 C   0  0  0  0  0  0  0  0  0  0  0  0
  -22.9250  -30.3189   26.8499 C   0  0  0  0  0  0  0  0  0  0  0  0
  -21.4470  -25.0103   22.7872 C   0  0  0  0  0  0  0  0  0  0  0  0
  -31.5852  -24.8532   20.3990 C   0  0  0  0  0  0  0  0  0  0  0  0
  -29.6404  -23.1483   20.8891 C   0  0  0  0  0  0  0  0  0  0  0  0
  -28.6467  -25.4896   20.5217 C   0  0  0  0  0  0  0  0  0  1  0  0
  -23.8026  -28.7725   25.0526 C   0  0  1  0  0  0  0  0  0  0  0  0
  -21.5609  -25.7182   25.1798 C   0  0  2  0  0  0  0  0  0  0  0  0
  -29.3628  -24.2860   19.8869 C   0  0  2  0  0  0  0  0  0  0  0  0
  -24.1658  -29.5467   26.3511 C   0  0  0  0  0  0  0  0  0  0  0  0
  -25.6563  -12.5710   20.3144 N   0  0  0  0  0  0  0  0  0  0  0  0
  -25.5709  -13.9097   20.3970 N   0  0  0  0  0  0  0  0  0  0  0  0
  -28.4207  -22.5937   21.4041 N   0  0  1  0  0  0  0  0  0  0  0  0
  -24.2028  -29.6285   22.7655 N   0  0  0  0  0  0  0  0  0  0  0  0
  -28.8295  -15.8910   20.5958 N   0  0  0  0  0  0  0  0  0  0  0  0
  -24.1345  -15.6735   21.0576 N   0  0  0  0  0  0  0  0  0  0  0  0
  -21.7068  -11.9681   21.9366 N   0  0  0  0  0  0  0  0  0  0  0  0
  -28.3472  -17.6896   22.0431 N   0  0  0  0  0  0  0  0  0  0  0  0
  -24.4535  -32.9506   22.2458 N   0  0  0  0  0  0  0  0  0  0  0  0
  -22.7002  -27.8295   25.2076 N   0  0  0  0  0  0  0  0  0  0  0  0
  -21.4391  -24.5912   24.2124 N   0  3  0  0  0  0  0  0  0  0  0  0
  -21.6964  -14.2603   22.0039 O   0  0  0  0  0  0  0  0  0  0  0  0
  -26.2083  -31.4628   21.8861 O   0  0  0  0  0  0  0  0  0  0  0  0
  -22.4412  -30.4413   24.0586 O   0  0  0  0  0  0  0  0  0  0  0  0
  -23.8819  -25.9463   24.5487 O   0  0  0  0  0  0  0  0  0  0  0  0
  -30.1435  -17.7929   20.5788 O   0  0  0  0  0  0  0  0  0  0  0  0
  -23.3109   -6.7014   21.0859 O   0  0  0  0  0  0  0  0  0  0  0  0
  -28.4973  -26.5518   19.5805 O   0  0  0  0  0  0  0  0  0  1  0  0
  -30.6109  -24.7666   19.3736 O   0  0  0  0  0  0  0  0  0  0  0  0
  -20.9966   -4.8292   25.7273 F   0  0  0  0  0  0  0  0  0  0  0  0
  -24.5615   -4.7665   22.6139 F   0  0  0  0  0  0  0  0  0  0  0  0
  1  2  1  0  0  0  0
  1  5  2  0  0  0  0
  2  6  2  0  0  0  0
  3 10  2  0  0  0  0
  3 18  1  0  0  0  0
  4 11  1  0  0  0  0
  4 18  2  0  0  0  0
  5 20  1  0  0  0  0
  6 22  1  0  0  0  0
  7  9  2  0  0  0  0
  7 23  1  0  0  0  0
  8 12  2  0  0  0  0
  8 21  1  0  0  0  0
  9 26  1  0  0  0  0
 10 27  1  0  0  0  0
 11 27  2  0  0  0  0
 12 28  1  0  0  0  0
 13 14  2  0  0  0  0
 13 29  1  0  0  0  0
 14 30  1  0  0  0  0
 15 24  1  0  0  0  0
 15 28  2  0  0  0  0
 16 25  1  0  0  0  0
 16 26  2  0  0  0  0
 17 30  2  0  0  0  0
 17 31  1  0  0  0  0
 18 32  1  0  0  0  0
 19 32  1  0  0  0  0
 19 33  2  0  0  0  0
 19 34  1  0  0  0  0
 20 22  2  0  0  0  0
 20 39  1  0  0  0  0
 21 24  2  0  0  0  0
 21 40  1  0  0  0  0
 22 51  1  0  0  0  0
 23 25  2  0  0  0  0
 23 41  1  0  0  0  0
 24 42  1  0  0  0  0
 25 70  1  0  0  0  0
 26 75  1  0  0  0  0
 27 84  1  0  0  0  0
 28 85  1  0  0  0  0
 29 31  2  0  0  0  0
 29 84  1  0  0  0  0
 30 87  1  0  0  0  0
 31 88  1  0  0  0  0
 32 68  2  0  0  0  0
 33 69  1  0  0  0  0
 33 73  1  0  0  0  0
 34 74  1  0  0  0  0
 34 79  2  0  0  0  0
 35 52  1  0  0  0  0
 35 76  1  0  0  0  0
 35 80  2  0  0  0  0
 36 64  1  0  0  0  0
 36 71  1  0  0  0  0
 36 81  2  0  0  0  0
 37 65  1  0  0  0  0
 37 77  1  0  0  0  0
 37 82  2  0  0  0  0
 38 72  1  0  0  0  0
 38 75  1  0  0  0  0
 38 83  2  0  0  0  0
 39 43  1  0  0  0  0
 40 52  1  0  0  0  0
 41 70  1  0  0  0  0
 42 71  1  0  0  0  0
 43 45  1  0  0  0  0
 44 46  1  0  0  0  0
 44 49  1  0  0  0  0
 45 51  1  0  0  0  0
 46 53  1  0  0  0  0
 47 48  1  0  0  0  0
 47 54  1  0  0  0  0
 48 54  1  0  0  0  0
 49 72  1  0  0  0  0
 50 53  1  0  0  0  0
 50 72  1  0  0  0  0
 51 76  1  0  0  0  0
 52 71  1  0  0  0  0
 53 69  1  0  0  0  0
 54 55  1  0  0  0  0
 54 66  1  0  0  0  0
 56 65  1  0  0  0  0
 57 67  1  0  0  0  0
 58 67  1  0  0  0  0
 59 67  1  0  0  0  0
 60 78  1  0  0  0  0
 61 86  1  0  0  0  0
 62 66  1  0  0  0  0
 62 70  1  0  0  0  0
 63 66  1  0  0  0  0
 63 85  1  0  0  0  0
 64 67  1  0  0  0  0
 64 77  1  0  0  0  0
 65 78  1  0  0  0  0
 66 86  1  0  0  0  0
 68 69  1  0  0  0  0
M  CHG  1  78   1
M  ISO  4  38 100  63 101  75 100  85 101
M  END
> <Batch ID>
0148

> <Smiles>
CNC(C)C(=O)NC(C(=O)N1Cc2cc([101O:1][101CH2:1]C(CN3Cc4ccc([100NH:0][100C:0](=O)N5CCCC(n6nc(-c7ccc(Oc8ccc(F)cc8F)cc7)c(C(N)=O)c6N)C5)cc43)(OC)C3(C)CC3)ccc2CC1C(=O)NC1CCCc2ccccc21)C(C)(C)C

> <Shape>
0.322

> <Color>
0.129

> <Negative vol penalty>
0.000

$$$$

  -OEChem-04052303163D

 83 91  0     1  0  0  0  0  0999 V2000
  -40.5427  -28.5297   24.8060 C   0  0  0  0  0  0  0  0  0  0  0  0
  -39.2925  -27.9265   24.7145 C   0  0  0  0  0  0  0  0  0  0  0  0
  -23.0003   -9.8940   19.9809 C   0  0  0  0  0  0  0  0  0  0  0  0
  -23.7251   -9.9449   22.2850 C   0  0  0  0  0  0  0  0  0  0  0  0
  -41.6972  -27.7497   24.7544 C   0  0  0  0  0  0  0  0  0  0  0  0
  -39.1960  -26.5429   24.5702 C   0  0  0  0  0  0  0  0  0  0  0  0
  -35.6696  -24.5162   27.5872 C   0  0  0  0  0  0  0  0  0  0  0  0
  -22.2335   -8.7596   20.2471 C   0  0  0  0  0  0  0  0  0  0  0  0
  -22.9583   -8.8105   22.5513 C   0  0  0  0  0  0  0  0  0  0  0  0
  -34.3400  -24.6433   27.1872 C   0  0  0  0  0  0  0  0  0  0  0  0
  -23.2022   -5.4715   22.0794 C   0  0  0  0  0  0  0  0  0  0  0  0
  -23.7894   -4.4542   22.8316 C   0  0  0  0  0  0  0  0  0  0  0  0
  -31.9197  -18.7497   22.3285 C   0  0  0  0  0  0  0  0  0  0  0  0
  -31.8205  -17.4765   21.6968 C   0  0  0  0  0  0  0  0  0  0  0  0
  -34.3850  -22.3848   26.3410 C   0  0  0  0  0  0  0  0  0  0  0  0
  -22.0653   -4.6974   24.5065 C   0  0  0  0  0  0  0  0  0  0  0  0
  -23.7462  -10.4866   20.9998 C   0  0  0  0  0  0  0  0  0  0  0  0
  -24.1319  -13.0021   20.8239 C   0  0  0  0  0  0  0  0  0  0  0  0
  -41.6147  -26.3549   24.6191 C   0  0  0  0  0  0  0  0  0  0  0  0
  -36.3713  -23.3242   27.3568 C   0  0  0  0  0  0  0  0  0  0  0  0
  -40.3506  -25.7436   24.5155 C   0  0  0  0  0  0  0  0  0  0  0  0
  -35.7226  -22.2442   26.7413 C   0  0  0  0  0  0  0  0  0  0  0  0
  -22.2125   -8.2179   21.5323 C   0  0  0  0  0  0  0  0  0  0  0  0
  -33.6984  -23.5785   26.5614 C   0  0  0  0  0  0  0  0  0  0  0  0
  -22.0465   -6.1019   22.5408 C   0  0  0  0  0  0  0  0  0  0  0  0
  -23.2210   -4.0671   24.0451 C   0  0  0  0  0  0  0  0  0  0  0  0
  -21.4781   -5.7148   23.7543 C   0  0  0  0  0  0  0  0  0  0  0  0
  -24.5389  -11.6581   20.7253 C   0  0  0  0  0  0  0  0  0  0  0  0
  -25.2418  -13.7245   20.4596 C   0  0  0  0  0  0  0  0  0  0  0  0
  -30.7670  -19.0830   23.0050 C   0  0  0  0  0  0  0  0  0  0  0  0
  -30.5955  -16.8849   21.9148 C   0  0  0  0  0  0  0  0  0  0  0  0
  -31.1309  -22.4332   24.6215 C   0  0  0  0  0  0  0  0  0  0  0  0
  -31.3721  -21.3146   23.9255 C   0  0  0  0  0  0  0  0  0  0  0  0
  -22.8640  -13.5487   21.2102 C   0  0  0  0  0  0  0  0  0  0  0  0
  -38.9500  -22.5279   25.6775 C   0  0  0  0  0  0  0  0  0  0  0  0
  -31.5159  -24.8235   24.2307 C   0  0  0  0  0  0  0  0  0  0  0  0
  -38.5060  -19.6454   27.0975 C   0  0  0  0  0  0  0  0  0  0  0  0
  -36.3638  -17.4568   28.6033 C   0  0  0  0  0  0  0  0  0  0  0  0
  -30.7215  -14.6846   20.6945 C   0  0  0  0  0  0  0  0  0  0  0  0
  -42.8915  -25.5583   24.5206 C   0  0  0  0  0  0  0  0  0  0  0  0
  -37.7969  -23.1938   27.8183 C   0  0  0  0  0  0  0  0  0  0  0  0
  -36.4253  -20.9361   26.4892 C   0  0  0  0  0  0  0  0  0  0  0  0
  -42.6940  -24.0610   24.7429 C   0  0  0  0  0  0  0  0  0  0  0  0
  -29.6031  -12.2320   18.3683 C   0  0  0  0  0  0  0  0  0  0  0  0
  -41.5006  -23.5548   23.9391 C   0  0  0  0  0  0  0  0  0  0  0  0
  -28.1524  -11.9746   18.7822 C   0  0  0  0  0  0  0  0  0  0  0  0
  -30.5035  -12.4752   19.5782 C   0  0  0  0  0  0  0  0  0  0  0  0
  -28.5881  -13.2643   20.9115 C   0  0  0  0  0  0  0  0  0  0  0  0
  -40.2043  -24.2432   24.3832 C   0  0  1  0  0  0  0  0  0  0  0  0
  -38.5704  -22.1121   27.0706 C   0  0  1  0  0  0  0  0  0  0  0  0
  -27.6305  -13.0782   19.7231 C   0  0  2  0  0  0  0  0  0  0  0  0
  -31.1914  -24.8531   22.7577 C   0  0  0  0  0  0  0  0  0  0  0  0
  -36.2836  -15.1654   29.6233 C   0  0  0  0  0  0  0  0  0  0  0  0
  -38.5508  -18.4055   24.3099 C   0  0  0  0  0  0  0  0  0  0  0  0
  -37.5390  -16.3359   25.2902 C   0  0  0  0  0  0  0  0  0  0  0  0
  -39.7873  -17.1036   26.0507 C   0  0  0  0  0  0  0  0  0  0  0  0
  -35.5555  -18.5320   31.2395 C   0  0  0  0  0  0  0  0  0  0  0  0
  -32.1249  -23.5400   24.7786 C   0  0  1  0  0  0  0  0  0  1  0  0
  -37.7319  -18.3945   26.7585 C   0  0  1  0  0  0  0  0  0  0  0  0
  -36.4831  -16.6503   29.8839 C   0  0  2  0  0  0  0  0  0  0  0  0
  -38.3893  -17.5851   25.6052 C   0  0  0  0  0  0  0  0  0  0  0  0
  -25.8082  -11.5314   20.3293 N   0  0  0  0  0  0  0  0  0  0  0  0
  -26.2084  -12.8051   20.1758 N   0  0  0  0  0  0  0  0  0  0  0  0
  -37.8205  -20.8599   26.9531 N   0  0  0  0  0  0  0  0  0  0  0  0
  -29.9485  -13.5362   20.4215 N   0  0  0  0  0  0  0  0  0  0  0  0
  -25.4756  -15.0502   20.3576 N   0  0  0  0  0  0  0  0  0  0  0  0
  -21.8320  -12.6648   21.5536 N   0  0  0  0  0  0  0  0  0  0  0  0
  -30.5361  -20.2633   23.7303 N   0  0  0  0  0  0  0  0  0  0  0  0
  -30.0773  -15.6398   21.4800 N   0  0  0  0  0  0  0  0  0  0  0  0
  -39.7265  -23.6696   25.6230 N   0  0  0  0  0  0  0  0  0  0  0  0
  -37.5912  -17.6509   28.0058 N   0  0  0  0  0  0  0  0  0  0  0  0
  -35.4614  -17.0953   30.8733 N   0  3  0  0  0  0  0  0  0  0  0  0
  -22.6475  -14.7841   21.2339 O   0  0  0  0  0  0  0  0  0  0  0  0
  -38.5679  -21.8614   24.7228 O   0  0  0  0  0  0  0  0  0  0  0  0
  -31.2855  -25.7972   24.9485 O   0  0  0  0  0  0  0  0  0  0  0  0
  -39.6736  -19.5481   27.4834 O   0  0  0  0  0  0  0  0  0  0  0  0
  -35.2888  -17.8697   28.1739 O   0  0  0  0  0  0  0  0  0  0  0  0
  -31.8602  -14.8233   20.2407 O   0  0  0  0  0  0  0  0  0  0  0  0
  -21.4642   -7.1111   21.7925 O   0  0  0  0  0  0  0  0  0  0  0  0
  -32.4009  -23.7002   26.1695 O   0  0  0  0  0  0  0  0  0  1  0  0
  -23.7842   -3.0892   24.7666 F   0  0  0  0  0  0  0  0  0  0  0  0
  -20.3672   -6.3158   24.2022 F   0  0  0  0  0  0  0  0  0  0  0  0
  -29.5717  -17.8635   22.8773 S   0  0  0  0  0  0  0  0  0  0  0  0
  1  2  1  0  0  0  0
  1  5  2  0  0  0  0
  2  6  2  0  0  0  0
  3  8  2  0  0  0  0
  3 17  1  0  0  0  0
  4  9  1  0  0  0  0
  4 17  2  0  0  0  0
  5 19  1  0  0  0  0
  6 21  1  0  0  0  0
  7 10  2  0  0  0  0
  7 20  1  0  0  0  0
  8 23  1  0  0  0  0
  9 23  2  0  0  0  0
 10 24  1  0  0  0  0
 11 12  2  0  0  0  0
 11 25  1  0  0  0  0
 12 26  1  0  0  0  0
 13 14  1  0  0  0  0
 13 30  2  0  0  0  0
 14 31  2  0  0  0  0
 15 22  1  0  0  0  0
 15 24  2  0  0  0  0
 16 26  2  0  0  0  0
 16 27  1  0  0  0  0
 17 28  1  0  0  0  0
 18 28  1  0  0  0  0
 18 29  2  0  0  0  0
 18 34  1  0  0  0  0
 19 21  2  0  0  0  0
 19 40  1  0  0  0  0
 20 22  2  0  0  0  0
 20 41  1  0  0  0  0
 21 49  1  0  0  0  0
 22 42  1  0  0  0  0
 23 79  1  0  0  0  0
 24 80  1  0  0  0  0
 25 27  2  0  0  0  0
 25 79  1  0  0  0  0
 26 81  1  0  0  0  0
 27 82  1  0  0  0  0
 28 62  2  0  0  0  0
 29 63  1  0  0  0  0
 29 66  1  0  0  0  0
 30 68  1  0  0  0  0
 30 83  1  0  0  0  0
 31 69  1  0  0  0  0
 31 83  1  0  0  0  0
 32 33  2  0  0  0  0
 32 58  1  0  0  0  0
 33 68  1  0  0  0  0
 34 67  1  0  0  0  0
 34 73  2  0  0  0  0
 35 50  1  0  0  0  0
 35 70  1  0  0  0  0
 35 74  2  0  0  0  0
 36 52  1  0  0  0  0
 36 58  1  0  0  0  0
 36 75  2  0  0  0  0
 37 59  1  0  0  0  0
 37 64  1  0  0  0  0
 37 76  2  0  0  0  0
 38 60  1  0  0  0  0
 38 71  1  0  0  0  0
 38 77  2  0  0  0  0
 39 65  1  0  0  0  0
 39 69  1  0  0  0  0
 39 78  2  0  0  0  0
 40 43  1  0  0  0  0
 41 50  1  0  0  0  0
 42 64  1  0  0  0  0
 43 45  1  0  0  0  0
 44 46  1  0  0  0  0
 44 47  1  0  0  0  0
 45 49  1  0  0  0  0
 46 51  1  0  0  0  0
 47 65  1  0  0  0  0
 48 51  1  0  0  0  0
 48 65  1  0  0  0  0
 49 70  1  0  0  0  0
 50 64  1  0  0  0  0
 51 63  1  0  0  0  0
 53 60  1  0  0  0  0
 54 61  1  0  0  0  0
 55 61  1  0  0  0  0
 56 61  1  0  0  0  0
 57 72  1  0  0  0  0
 58 80  1  0  0  0  0
 59 61  1  0  0  0  0
 59 71  1  0  0  0  0
 60 72  1  0  0  0  0
 62 63  1  0  0  0  0
M  CHG  1  72   1
M  ISO  4  39 100  58 101  69 100  80 101
M  END
> <Batch ID>
0148

> <Smiles>
CNC(C)C(=O)NC(C(=O)N1Cc2cc([101O:1][101CH:1](C=CNc3ccc([100NH:0][100C:0](=O)N4CCCC(n5nc(-c6ccc(Oc7ccc(F)cc7F)cc6)c(C(N)=O)c5N)C4)s3)C(C)=O)ccc2CC1C(=O)NC1CCCc2ccccc21)C(C)(C)C

> <Shape>
0.174

> <Color>
0.198

> <Negative vol penalty>
0.000

$$$$

  -OEChem-04052303163D

 83 92  0     1  0  0  0  0  0999 V2000
  -18.7343  -25.0266   24.0884 C   0  0  0  0  0  0  0  0  0  0  0  0
  -19.8681  -24.8718   23.2972 C   0  0  0  0  0  0  0  0  0  0  0  0
  -28.0976  -20.8807   14.1652 C   0  0  0  0  0  0  0  0  0  0  0  0
  -26.2441  -13.0080   21.2881 C   0  0  0  0  0  0  0  0  0  0  0  0
  -26.0922  -13.3036   18.8951 C   0  0  0  0  0  0  0  0  0  0  0  0
  -18.0795  -26.2567   24.1331 C   0  0  0  0  0  0  0  0  0  0  0  0
  -20.3472  -25.9469   22.5494 C   0  0  0  0  0  0  0  0  0  0  0  0
  -26.2010  -27.2490   21.3069 C   0  0  0  0  0  0  0  0  0  0  0  0
  -27.8331  -22.2466   14.2644 C   0  0  0  0  0  0  0  0  0  0  0  0
  -28.5325  -20.1714   15.2848 C   0  0  0  0  0  0  0  0  0  0  0  0
  -25.0380  -12.3074   21.2782 C   0  0  0  0  0  0  0  0  0  0  0  0
  -24.8860  -12.6031   18.8851 C   0  0  0  0  0  0  0  0  0  0  0  0
  -26.9989  -27.0073   20.1895 C   0  0  0  0  0  0  0  0  0  0  0  0
  -23.9732   -9.1919   20.5085 C   0  0  0  0  0  0  0  0  0  0  0  0
  -23.9035   -8.0108   21.2472 C   0  0  0  0  0  0  0  0  0  0  0  0
  -26.5218  -29.2276   19.3760 C   0  0  0  0  0  0  0  0  0  0  0  0
  -28.4383  -22.1940   16.6028 C   0  0  0  0  0  0  0  0  0  0  0  0
  -22.1116   -8.9448   22.5715 C   0  0  0  0  0  0  0  0  0  0  0  0
  -26.7712  -13.5061   20.0966 C   0  0  0  0  0  0  0  0  0  0  0  0
  -29.3113  -13.6973   19.9580 C   0  0  0  0  0  0  0  0  0  0  0  0
  -18.5565  -27.3501   23.3930 C   0  0  0  0  0  0  0  0  0  0  0  0
  -25.5476  -28.4801   21.4621 C   0  0  0  0  0  0  0  0  0  0  0  0
  -19.6974  -27.1924   22.5833 C   0  0  0  0  0  0  0  0  0  0  0  0
  -25.7182  -29.4834   20.4976 C   0  0  0  0  0  0  0  0  0  0  0  0
  -28.0034  -22.9033   15.4831 C   0  0  0  0  0  0  0  0  0  0  0  0
  -28.7028  -20.8280   16.5036 C   0  0  0  0  0  0  0  0  0  0  0  0
  -24.3590  -12.1050   20.0767 C   0  0  0  0  0  0  0  0  0  0  0  0
  -27.1571  -27.9956   19.2223 C   0  0  0  0  0  0  0  0  0  0  0  0
  -23.1122  -10.2495   20.8014 C   0  0  0  0  0  0  0  0  0  0  0  0
  -22.9726   -7.8872   22.2787 C   0  0  0  0  0  0  0  0  0  0  0  0
  -22.1813  -10.1259   21.8328 C   0  0  0  0  0  0  0  0  0  0  0  0
  -28.0168  -14.2303   20.1063 C   0  0  0  0  0  0  0  0  0  0  0  0
  -30.1429  -14.7874   20.0391 C   0  0  0  0  0  0  0  0  0  0  0  0
  -29.7250  -12.3382   19.7643 C   0  0  0  0  0  0  0  0  0  0  0  0
  -22.5108  -29.3995   21.6525 C   0  0  0  0  0  0  0  0  0  0  0  0
  -23.8330  -32.2948   22.2781 C   0  0  0  0  0  0  0  0  0  0  0  0
  -26.5226  -34.3753   21.9875 C   0  0  0  0  0  0  0  0  0  0  0  0
  -29.3662  -20.6061   18.9237 C   0  0  0  0  0  0  0  0  0  0  0  0
  -17.7877  -28.6469   23.4366 C   0  0  0  0  0  0  0  0  0  0  0  0
  -24.7119  -28.7347   22.6865 C   0  0  0  0  0  0  0  0  0  0  0  0
  -25.0547  -30.8292   20.6273 C   0  0  0  0  0  0  0  0  0  0  0  0
  -18.5769  -29.8410   22.9060 C   0  0  0  0  0  0  0  0  0  0  0  0
  -30.4194  -19.1491   21.9969 C   0  0  0  0  0  0  0  0  0  0  0  0
  -19.2596  -29.4869   21.5887 C   0  0  0  0  0  0  0  0  0  0  0  0
  -30.0462  -17.6727   21.8449 C   0  0  0  0  0  0  0  0  0  0  0  0
  -29.3831  -20.0657   21.3491 C   0  0  0  0  0  0  0  0  0  0  0  0
  -27.8235  -25.1801   16.6793 C   0  0  0  0  0  0  0  0  0  0  0  0
  -27.6021  -25.2886   14.5908 C   0  0  0  0  0  0  0  0  0  0  0  0
  -28.6976  -18.2806   19.7958 C   0  0  0  0  0  0  0  0  0  0  0  0
  -20.2621  -28.3419   21.7771 C   0  0  1  0  0  0  0  0  0  0  0  0
  -23.6803  -29.8406   22.4864 C   0  0  1  0  0  0  0  0  0  0  0  0
  -27.2687  -26.2628   15.7356 C   0  0  0  0  0  0  0  0  0  0  0  0
  -29.7447  -17.3160   20.3761 C   0  0  2  0  0  0  0  0  0  0  0  0
  -27.2919  -36.6929   22.5658 C   0  0  0  0  0  0  0  0  0  0  0  0
  -22.1282  -33.4232   20.0132 C   0  0  0  0  0  0  0  0  0  0  0  0
  -23.5997  -35.4487   20.0082 C   0  0  0  0  0  0  0  0  0  0  0  0
  -22.2680  -34.8817   22.0399 C   0  0  0  0  0  0  0  0  0  0  0  0
  -28.7421  -33.3479   23.6541 C   0  0  0  0  0  0  0  0  0  0  0  0
  -27.9939  -27.5930   15.7278 C   0  0  0  0  0  0  0  0  0  0  0  0
  -27.5810  -28.4379   16.9244 C   0  0  0  0  0  0  0  0  0  1  0  0
  -24.2783  -33.4700   21.4417 C   0  0  1  0  0  0  0  0  0  0  0  0
  -27.2433  -35.2384   23.0074 C   0  0  2  0  0  0  0  0  0  0  0  0
  -23.0796  -34.2800   20.8720 C   0  0  0  0  0  0  0  0  0  0  0  0
  -28.0206  -15.5560   20.2693 N   0  0  0  0  0  0  0  0  0  0  0  0
  -29.3277  -15.8651   20.2241 N   0  0  0  0  0  0  0  0  0  0  0  0
  -27.7369  -24.2758   15.5827 N   0  0  0  0  0  0  0  0  0  0  0  0
  -24.2426  -31.0277   21.8392 N   0  0  0  0  0  0  0  0  0  0  0  0
  -29.1520  -19.6706   19.9579 N   0  0  0  0  0  0  0  0  0  0  0  0
  -31.4845  -14.9196   19.9695 N   0  0  0  0  0  0  0  0  0  0  0  0
  -28.7407  -11.3422   19.7045 N   0  0  0  0  0  0  0  0  0  0  0  0
  -29.1458  -20.1073   17.6403 N   0  0  0  0  0  0  0  0  0  0  0  0
  -21.4823  -28.8328   22.3808 N   0  0  0  0  0  0  0  0  0  0  0  0
  -25.1813  -34.2498   22.2813 N   0  0  0  0  0  0  0  0  0  0  0  0
  -28.6411  -34.7580   23.1973 N   0  3  0  0  0  0  0  0  0  0  0  0
  -30.9327  -12.0146   19.6641 O   0  0  0  0  0  0  0  0  0  0  0  0
  -22.5388  -29.5626   20.4383 O   0  0  0  0  0  0  0  0  0  0  0  0
  -23.1531  -32.4942   23.2879 O   0  0  0  0  0  0  0  0  0  0  0  0
  -27.0919  -33.8666   21.0243 O   0  0  0  0  0  0  0  0  0  0  0  0
  -29.7455  -21.7565   19.1575 O   0  0  0  0  0  0  0  0  0  0  0  0
  -23.1821  -11.4212   20.0666 O   0  0  0  0  0  0  0  0  0  0  0  0
  -27.9348  -27.7620   18.1303 O   0  0  0  0  0  0  0  0  0  1  0  0
  -22.9048   -6.7523   22.9869 F   0  0  0  0  0  0  0  0  0  0  0  0
  -21.3507  -11.1381   22.1180 F   0  0  0  0  0  0  0  0  0  0  0  0
  1  2  1  0  0  0  0
  1  6  2  0  0  0  0
  2  7  2  0  0  0  0
  3  9  2  0  0  0  0
  3 10  1  0  0  0  0
  4 11  2  0  0  0  0
  4 19  1  0  0  0  0
  5 12  1  0  0  0  0
  5 19  2  0  0  0  0
  6 21  1  0  0  0  0
  7 23  1  0  0  0  0
  8 13  2  0  0  0  0
  8 22  1  0  0  0  0
  9 25  1  0  0  0  0
 10 26  2  0  0  0  0
 11 27  1  0  0  0  0
 12 27  2  0  0  0  0
 13 28  1  0  0  0  0
 14 15  2  0  0  0  0
 14 29  1  0  0  0  0
 15 30  1  0  0  0  0
 16 24  1  0  0  0  0
 16 28  2  0  0  0  0
 17 25  2  0  0  0  0
 17 26  1  0  0  0  0
 18 30  2  0  0  0  0
 18 31  1  0  0  0  0
 19 32  1  0  0  0  0
 20 32  1  0  0  0  0
 20 33  2  0  0  0  0
 20 34  1  0  0  0  0
 21 23  2  0  0  0  0
 21 39  1  0  0  0  0
 22 24  2  0  0  0  0
 22 40  1  0  0  0  0
 23 50  1  0  0  0  0
 24 41  1  0  0  0  0
 25 66  1  0  0  0  0
 26 71  1  0  0  0  0
 27 80  1  0  0  0  0
 28 81  1  0  0  0  0
 29 31  2  0  0  0  0
 29 80  1  0  0  0  0
 30 82  1  0  0  0  0
 31 83  1  0  0  0  0
 32 64  2  0  0  0  0
 33 65  1  0  0  0  0
 33 69  1  0  0  0  0
 34 70  1  0  0  0  0
 34 75  2  0  0  0  0
 35 51  1  0  0  0  0
 35 72  1  0  0  0  0
 35 76  2  0  0  0  0
 36 61  1  0  0  0  0
 36 67  1  0  0  0  0
 36 77  2  0  0  0  0
 37 62  1  0  0  0  0
 37 73  1  0  0  0  0
 37 78  2  0  0  0  0
 38 68  1  0  0  0  0
 38 71  1  0  0  0  0
 38 79  2  0  0  0  0
 39 42  1  0  0  0  0
 40 51  1  0  0  0  0
 41 67  1  0  0  0  0
 42 44  1  0  0  0  0
 43 45  1  0  0  0  0
 43 46  1  0  0  0  0
 44 50  1  0  0  0  0
 45 53  1  0  0  0  0
 46 68  1  0  0  0  0
 47 52  1  0  0  0  0
 47 66  1  0  0  0  0
 48 52  1  0  0  0  0
 48 66  1  0  0  0  0
 49 53  1  0  0  0  0
 49 68  1  0  0  0  0
 50 72  1  0  0  0  0
 51 67  1  0  0  0  0
 52 59  1  0  0  0  0
 53 65  1  0  0  0  0
 54 62  1  0  0  0  0
 55 63  1  0  0  0  0
 56 63  1  0  0  0  0
 57 63  1  0  0  0  0
 58 74  1  0  0  0  0
 59 60  1  0  0  0  0
 60 81  1  0  0  0  0
 61 63  1  0  0  0  0
 61 73  1  0  0  0  0
 62 74  1  0  0  0  0
 64 65  1  0  0  0  0
M  CHG  1  74   1
M  ISO  4  38 100  60 101  71 100  81 101
M  END
> <Batch ID>
0148

> <Smiles>
CNC(C)C(=O)NC(C(=O)N1Cc2cc([101O:1][101CH2:1]CC3CN(c4cccc([100NH:0][100C:0](=O)N5CCCC(n6nc(-c7ccc(Oc8ccc(F)cc8F)cc7)c(C(N)=O)c6N)C5)c4)C3)ccc2CC1C(=O)NC1CCCc2ccccc21)C(C)(C)C

> <Shape>
0.291

> <Color>
0.122

> <Negative vol penalty>
0.000

$$$$

  -OEChem-04052303163D

 84 93  0     1  0  0  0  0  0999 V2000
  -23.4958  -10.4218   18.7178 C   0  0  0  0  0  0  0  0  0  0  0  0
  -22.8280  -11.5871   18.3554 C   0  0  0  0  0  0  0  0  0  0  0  0
  -30.3738  -26.9424   19.0374 C   0  0  0  0  0  0  0  0  0  0  0  0
  -29.7332  -25.7165   21.0183 C   0  0  0  0  0  0  0  0  0  0  0  0
  -24.4537  -10.4548   19.7303 C   0  0  0  0  0  0  0  0  0  0  0  0
  -23.1169  -12.7861   19.0061 C   0  0  0  0  0  0  0  0  0  0  0  0
  -23.4715  -19.8408   17.8137 C   0  0  0  0  0  0  0  0  0  0  0  0
  -31.7122  -26.6317   19.2780 C   0  0  0  0  0  0  0  0  0  0  0  0
  -31.0715  -25.4057   21.2588 C   0  0  0  0  0  0  0  0  0  0  0  0
  -22.9974  -21.0457   18.3307 C   0  0  0  0  0  0  0  0  0  0  0  0
  -33.7939  -26.9433   22.5455 C   0  0  0  0  0  0  0  0  0  0  0  0
  -34.2676  -27.0844   23.8498 C   0  0  0  0  0  0  0  0  0  0  0  0
  -24.7279  -20.9987   20.0107 C   0  0  0  0  0  0  0  0  0  0  0  0
  -34.8278  -24.7348   23.9005 C   0  0  0  0  0  0  0  0  0  0  0  0
  -18.4594  -27.5357   23.4786 C   0  0  0  0  0  0  0  0  0  0  0  0
  -29.3843  -26.4849   19.9077 C   0  0  0  0  0  0  0  0  0  0  0  0
  -27.0788  -26.0617   18.9011 C   0  0  0  0  0  0  0  0  0  0  0  0
  -24.7615  -11.6567   20.3872 C   0  0  0  0  0  0  0  0  0  0  0  0
  -24.5724  -19.1992   18.3991 C   0  0  0  0  0  0  0  0  0  0  0  0
  -24.0788  -12.8350   20.0293 C   0  0  0  0  0  0  0  0  0  0  0  0
  -25.2155  -19.7871   19.4977 C   0  0  0  0  0  0  0  0  0  0  0  0
  -32.0610  -25.8633   20.3886 C   0  0  0  0  0  0  0  0  0  0  0  0
  -23.6238  -21.6234   19.4312 C   0  0  0  0  0  0  0  0  0  0  0  0
  -33.8369  -25.6980   21.9187 C   0  0  0  0  0  0  0  0  0  0  0  0
  -34.7846  -25.9802   24.5273 C   0  0  0  0  0  0  0  0  0  0  0  0
  -34.3539  -24.5937   22.5962 C   0  0  0  0  0  0  0  0  0  0  0  0
  -28.0017  -26.8060   19.6601 C   0  0  0  0  0  0  0  0  0  0  0  0
  -19.8430  -26.6553   22.0224 C   0  0  0  0  0  0  0  0  0  0  0  0
  -25.9132  -26.7846   18.9726 C   0  0  0  0  0  0  0  0  0  0  0  0
  -20.4642  -27.8756   22.1872 C   0  0  0  0  0  0  0  0  0  0  0  0
  -27.2590  -24.8270   18.1948 C   0  0  0  0  0  0  0  0  0  0  0  0
  -25.0377  -16.3976   19.8268 C   0  0  0  0  0  0  0  0  0  0  0  0
  -28.1409  -17.3424   19.8049 C   0  0  0  0  0  0  0  0  0  0  0  0
  -30.3872  -19.9090   19.6894 C   0  0  0  0  0  0  0  0  0  0  0  0
  -22.1644  -29.7076   21.8720 C   0  0  0  0  0  0  0  0  0  0  0  0
  -25.7705  -11.6337   21.5079 C   0  0  0  0  0  0  0  0  0  0  0  0
  -25.0881  -17.9135   17.8130 C   0  0  0  0  0  0  0  0  0  0  0  0
  -26.4137  -19.1488   20.1500 C   0  0  0  0  0  0  0  0  0  0  0  0
  -26.2866  -13.0183   21.8913 C   0  0  0  0  0  0  0  0  0  0  0  0
  -25.0372  -31.4587   20.7068 C   0  0  0  0  0  0  0  0  0  0  0  0
  -25.1282  -14.0016   22.0252 C   0  0  0  0  0  0  0  0  0  0  0  0
  -25.9886  -30.3431   20.2681 C   0  0  0  0  0  0  0  0  0  0  0  0
  -24.2417  -31.0690   21.9514 C   0  0  0  0  0  0  0  0  0  0  0  0
  -24.4759  -28.6757   21.4163 C   0  0  0  0  0  0  0  0  0  0  0  0
  -21.6435  -25.4112   20.8302 C   0  0  0  0  0  0  0  0  0  0  0  0
  -24.3822  -14.1598   20.6948 C   0  0  1  0  0  0  0  0  0  0  0  0
  -25.8988  -17.0868   18.8063 C   0  0  1  0  0  0  0  0  0  0  0  0
  -25.2518  -28.9966   20.1284 C   0  0  2  0  0  0  0  0  0  0  0  0
  -19.8119  -24.3602   21.0006 C   0  0  2  0  0  0  0  0  0  0  0  0
  -21.3074  -23.9073   20.9699 C   0  0  2  0  0  0  0  0  0  0  0  0
  -21.7720  -23.2996   22.2983 C   0  0  0  0  0  0  0  0  0  0  0  0
  -17.6937  -25.0157   19.8463 C   0  0  0  0  0  0  0  0  0  0  0  0
  -32.8534  -20.3715   19.7266 C   0  0  0  0  0  0  0  0  0  0  0  0
  -28.1915  -16.8179   22.8103 C   0  0  0  0  0  0  0  0  0  0  0  0
  -30.2984  -18.1642   22.9393 C   0  0  0  0  0  0  0  0  0  0  0  0
  -30.2398  -16.0695   21.5860 C   0  0  0  0  0  0  0  0  0  0  0  0
  -30.3107  -21.1596   17.0082 C   0  0  0  0  0  0  0  0  0  0  0  0
  -18.9585  -24.2235   19.7482 C   0  0  0  0  0  0  0  0  0  0  0  0
  -21.7670  -23.0627   19.8008 C   0  0  0  0  0  0  0  0  0  1  0  0
  -29.0275  -18.1226   20.7451 C   0  0  1  0  0  0  0  0  0  0  0  0
  -31.6357  -20.1179   18.8515 C   0  0  2  0  0  0  0  0  0  0  0  0
  -29.4155  -17.3048   22.0093 C   0  0  0  0  0  0  0  0  0  0  0  0
  -18.6935  -26.4584   22.7625 N   0  0  0  0  0  0  0  0  0  0  0  0
  -27.4684  -27.9168   20.1756 N   0  0  0  0  0  0  0  0  0  0  0  0
  -26.1978  -27.8758   19.7398 N   0  0  0  0  0  0  0  0  0  0  0  0
  -20.2970  -25.6915   21.2049 N   0  0  1  0  0  0  0  0  0  0  0  0
  -26.8764  -17.8892   19.5444 N   0  0  0  0  0  0  0  0  0  0  0  0
  -23.5674  -29.7856   21.7441 N   0  0  0  0  0  0  0  0  0  0  0  0
  -24.6828  -26.5871   18.4533 N   0  0  0  0  0  0  0  0  0  0  0  0
  -28.5209  -24.2180   18.2251 N   0  0  0  0  0  0  0  0  0  0  0  0
  -21.6319  -28.4436   21.6201 N   0  0  0  0  0  0  0  0  0  0  0  0
  -25.1252  -15.0189   19.7978 N   0  0  0  0  0  0  0  0  0  0  0  0
  -30.1662  -18.5736   19.9525 N   0  0  0  0  0  0  0  0  0  0  0  0
  -31.4596  -21.2850   17.9417 N   0  3  0  0  0  0  0  0  0  0  0  0
  -26.3330  -24.2885   17.5421 O   0  0  0  0  0  0  0  0  0  0  0  0
  -24.3464  -17.0672   20.5854 O   0  0  0  0  0  0  0  0  0  0  0  0
  -28.5577  -16.2903   19.3139 O   0  0  0  0  0  0  0  0  0  0  0  0
  -29.6809  -20.8377   20.0753 O   0  0  0  0  0  0  0  0  0  0  0  0
  -21.4827  -30.6959   22.1555 O   0  0  0  0  0  0  0  0  0  0  0  0
  -33.3669  -25.5597   20.6235 O   0  0  0  0  0  0  0  0  0  0  0  0
  -23.1627  -22.7990   19.9382 O   0  0  0  0  0  0  0  0  0  1  0  0
  -35.2410  -26.1162   25.7792 F   0  0  0  0  0  0  0  0  0  0  0  0
  -34.3990  -23.3950   21.9988 F   0  0  0  0  0  0  0  0  0  0  0  0
  -19.5808  -28.8238   23.3105 S   0  0  0  0  0  0  0  0  0  0  0  0
  1  2  1  0  0  0  0
  1  5  2  0  0  0  0
  2  6  2  0  0  0  0
  3  8  2  0  0  0  0
  3 16  1  0  0  0  0
  4  9  1  0  0  0  0
  4 16  2  0  0  0  0
  5 18  1  0  0  0  0
  6 20  1  0  0  0  0
  7 10  2  0  0  0  0
  7 19  1  0  0  0  0
  8 22  1  0  0  0  0
  9 22  2  0  0  0  0
 10 23  1  0  0  0  0
 11 12  2  0  0  0  0
 11 24  1  0  0  0  0
 12 25  1  0  0  0  0
 13 21  1  0  0  0  0
 13 23  2  0  0  0  0
 14 25  2  0  0  0  0
 14 26  1  0  0  0  0
 15 63  2  0  0  0  0
 15 84  1  0  0  0  0
 16 27  1  0  0  0  0
 17 27  1  0  0  0  0
 17 29  2  0  0  0  0
 17 31  1  0  0  0  0
 18 20  2  0  0  0  0
 18 36  1  0  0  0  0
 19 21  2  0  0  0  0
 19 37  1  0  0  0  0
 20 46  1  0  0  0  0
 21 38  1  0  0  0  0
 22 80  1  0  0  0  0
 23 81  1  0  0  0  0
 24 26  2  0  0  0  0
 24 80  1  0  0  0  0
 25 82  1  0  0  0  0
 26 83  1  0  0  0  0
 27 64  2  0  0  0  0
 28 30  2  0  0  0  0
 28 63  1  0  0  0  0
 28 66  1  0  0  0  0
 29 65  1  0  0  0  0
 29 69  1  0  0  0  0
 30 71  1  0  0  0  0
 30 84  1  0  0  0  0
 31 70  1  0  0  0  0
 31 75  2  0  0  0  0
 32 47  1  0  0  0  0
 32 72  1  0  0  0  0
 32 76  2  0  0  0  0
 33 60  1  0  0  0  0
 33 67  1  0  0  0  0
 33 77  2  0  0  0  0
 34 61  1  0  0  0  0
 34 73  1  0  0  0  0
 34 78  2  0  0  0  0
 35 68  1  0  0  0  0
 35 71  1  0  0  0  0
 35 79  2  0  0  0  0
 36 39  1  0  0  0  0
 37 47  1  0  0  0  0
 38 67  1  0  0  0  0
 39 41  1  0  0  0  0
 40 42  1  0  0  0  0
 40 43  1  0  0  0  0
 41 46  1  0  0  0  0
 42 48  1  0  0  0  0
 43 68  1  0  0  0  0
 44 48  1  0  0  0  0
 44 68  1  0  0  0  0
 45 50  1  0  0  0  0
 45 66  1  0  0  0  0
 46 72  1  0  0  0  0
 47 67  1  0  0  0  0
 48 65  1  0  0  0  0
 49 50  1  0  0  0  0
 49 58  1  0  0  0  0
 49 66  1  0  0  0  0
 50 51  1  0  0  0  0
 50 59  1  0  0  0  0
 52 58  1  0  0  0  0
 53 61  1  0  0  0  0
 54 62  1  0  0  0  0
 55 62  1  0  0  0  0
 56 62  1  0  0  0  0
 57 74  1  0  0  0  0
 59 81  1  0  0  0  0
 60 62  1  0  0  0  0
 60 73  1  0  0  0  0
 61 74  1  0  0  0  0
 64 65  1  0  0  0  0
M  CHG  1  74   1
M  ISO  4  35 100  59 101  71 100  81 101
M  END
> <Batch ID>
0148

> <Smiles>
CCC1N(c2ncsc2[100NH:0][100C:0](=O)N2CCCC(n3nc(-c4ccc(Oc5ccc(F)cc5F)cc4)c(C(N)=O)c3N)C2)CC1(C)[101CH2:1][101O:1]c1ccc2c(c1)CN(C(=O)C(NC(=O)C(C)NC)C(C)(C)C)C(C(=O)NC1CCCc3ccccc31)C2

> <Shape>
0.234

> <Color>
0.086

> <Negative vol penalty>
0.000

$$$$

  -OEChem-04052303163D

 83 92  0     1  0  0  0  0  0999 V2000
  -16.6454  -29.8880   23.4958 C   0  0  0  0  0  0  0  0  0  0  0  0
  -17.2404  -29.3248   22.3715 C   0  0  0  0  0  0  0  0  0  0  0  0
  -24.7831   -8.7522   21.7734 C   0  0  0  0  0  0  0  0  0  0  0  0
  -23.6043   -9.4384   19.7792 C   0  0  0  0  0  0  0  0  0  0  0  0
  -17.3542  -30.8023   24.2741 C   0  0  0  0  0  0  0  0  0  0  0  0
  -18.5443  -29.6764   22.0241 C   0  0  0  0  0  0  0  0  0  0  0  0
  -21.3677  -25.6657   20.7641 C   0  0  0  0  0  0  0  0  0  0  0  0
  -23.8231   -7.7663   22.0017 C   0  0  0  0  0  0  0  0  0  0  0  0
  -22.6443   -8.4525   20.0075 C   0  0  0  0  0  0  0  0  0  0  0  0
  -21.1806  -25.1300   19.4906 C   0  0  0  0  0  0  0  0  0  0  0  0
  -23.0938   -4.6803   20.8280 C   0  0  0  0  0  0  0  0  0  0  0  0
  -23.5427   -3.4077   21.1810 C   0  0  0  0  0  0  0  0  0  0  0  0
  -23.1484  -26.2925   18.7191 C   0  0  0  0  0  0  0  0  0  0  0  0
  -24.4063  -20.8849   18.7874 C   0  0  0  0  0  0  0  0  0  0  0  0
  -22.3285   -3.5573   23.2644 C   0  0  0  0  0  0  0  0  0  0  0  0
  -24.6737   -9.5882   20.6622 C   0  0  0  0  0  0  0  0  0  0  0  0
  -26.8523  -10.4815   19.6807 C   0  0  0  0  0  0  0  0  0  0  0  0
  -18.6708  -31.1579   23.9415 C   0  0  0  0  0  0  0  0  0  0  0  0
  -22.4423  -26.5289   21.0224 C   0  0  0  0  0  0  0  0  0  0  0  0
  -19.2709  -30.5973   22.7979 C   0  0  0  0  0  0  0  0  0  0  0  0
  -23.3485  -26.8357   19.9973 C   0  0  0  0  0  0  0  0  0  0  0  0
  -25.6434  -20.1985   18.9811 C   0  0  0  0  0  0  0  0  0  0  0  0
  -22.7537   -7.6165   21.1187 C   0  0  0  0  0  0  0  0  0  0  0  0
  -22.0693  -25.4457   18.4671 C   0  0  0  0  0  0  0  0  0  0  0  0
  -22.2623   -5.3915   21.6932 C   0  0  0  0  0  0  0  0  0  0  0  0
  -23.1600   -2.8462   22.3991 C   0  0  0  0  0  0  0  0  0  0  0  0
  -21.8797   -4.8299   22.9114 C   0  0  0  0  0  0  0  0  0  0  0  0
  -25.6647  -10.6071   20.4261 C   0  0  0  0  0  0  0  0  0  0  0  0
  -26.5849  -20.5975   18.0511 C   0  0  0  0  0  0  0  0  0  0  0  0
  -27.4395  -11.7207   19.7589 C   0  0  0  0  0  0  0  0  0  0  0  0
  -24.4577  -21.7621   17.7251 C   0  0  0  0  0  0  0  0  0  0  0  0
  -27.3776   -9.3462   18.9800 C   0  0  0  0  0  0  0  0  0  0  0  0
  -22.7141  -29.5559   21.9535 C   0  0  0  0  0  0  0  0  0  0  0  0
  -25.8738  -28.8303   22.0645 C   0  0  0  0  0  0  0  0  0  0  0  0
  -28.4318  -26.8508   20.9759 C   0  0  0  0  0  0  0  0  0  0  0  0
  -27.2991  -17.0925   19.5463 C   0  0  0  0  0  0  0  0  0  0  0  0
  -19.3804  -32.1863   24.7863 C   0  0  0  0  0  0  0  0  0  0  0  0
  -22.6455  -27.0771   22.4082 C   0  0  0  0  0  0  0  0  0  0  0  0
  -24.5297  -27.7414   20.2279 C   0  0  0  0  0  0  0  0  0  0  0  0
  -25.9372  -19.1838   20.0471 C   0  0  0  0  0  0  0  0  0  0  0  0
  -27.9772  -20.0573   17.9752 C   0  0  0  0  0  0  0  0  0  0  0  0
  -20.8900  -32.2218   24.5626 C   0  0  0  0  0  0  0  0  0  0  0  0
  -26.3565  -15.7139   22.6543 C   0  0  0  0  0  0  0  0  0  0  0  0
  -21.2089  -32.2144   23.0709 C   0  0  0  0  0  0  0  0  0  0  0  0
  -26.1797  -14.2404   22.2905 C   0  0  0  0  0  0  0  0  0  0  0  0
  -28.3154  -19.3392   19.2883 C   0  0  0  0  0  0  0  0  0  0  0  0
  -25.8253  -16.6433   21.5616 C   0  0  0  0  0  0  0  0  0  0  0  0
  -26.2043  -14.8929   19.8541 C   0  0  0  0  0  0  0  0  0  0  0  0
  -20.6922  -30.9347   22.4026 C   0  0  1  0  0  0  0  0  0  0  0  0
  -23.4801  -28.3540   22.4292 C   0  0  1  0  0  0  0  0  0  0  0  0
  -26.7845  -13.9378   20.9083 C   0  0  2  0  0  0  0  0  0  0  0  0
  -30.9083  -26.5235   21.2150 C   0  0  0  0  0  0  0  0  0  0  0  0
  -21.1166  -23.2824   15.6723 C   0  0  0  0  0  0  0  0  0  0  0  0
  -26.3643  -31.2489   20.2702 C   0  0  0  0  0  0  0  0  0  0  0  0
  -28.6424  -30.3344   19.7782 C   0  0  0  0  0  0  0  0  0  0  0  0
  -28.0301  -30.9625   22.1134 C   0  0  0  0  0  0  0  0  0  0  0  0
  -28.0835  -24.1167   22.0538 C   0  0  0  0  0  0  0  0  0  0  0  0
  -22.1174  -22.6131   17.8816 C   0  0  0  0  0  0  0  0  0  0  0  0
  -27.0189  -28.8872   21.0825 C   0  0  1  0  0  0  0  0  0  0  0  0
  -29.5330  -26.1243   21.7268 C   0  0  2  0  0  0  0  0  0  0  0  0
  -21.2633  -23.6416   17.1438 C   0  0  1  0  0  0  0  0  0  1  0  0
  -27.4906  -30.3427   20.8059 C   0  0  0  0  0  0  0  0  0  0  0  0
  -25.5056  -11.8296   20.9403 N   0  0  0  0  0  0  0  0  0  0  0  0
  -26.6009  -12.4834   20.5173 N   0  0  0  0  0  0  0  0  0  0  0  0
  -24.6820  -28.2574   21.5984 N   0  0  0  0  0  0  0  0  0  0  0  0
  -27.2014  -18.4813   19.7280 N   0  0  0  0  0  0  0  0  0  0  0  0
  -26.3919  -16.2897   20.2529 N   0  0  0  0  0  0  0  0  0  0  0  0
  -28.5863  -12.2213   19.2524 N   0  0  0  0  0  0  0  0  0  0  0  0
  -26.6464   -8.1507   19.0018 N   0  0  0  0  0  0  0  0  0  0  0  0
  -23.4496  -22.5568   17.2865 N   0  0  0  0  0  0  0  0  0  0  0  0
  -21.5747  -29.8237   22.6880 N   0  0  0  0  0  0  0  0  0  0  0  0
  -28.0582  -28.0135   21.6162 N   0  0  0  0  0  0  0  0  0  0  0  0
  -29.3823  -24.6501   21.5687 N   0  3  0  0  0  0  0  0  0  0  0  0
  -28.4712   -9.3859   18.3670 O   0  0  0  0  0  0  0  0  0  0  0  0
  -23.1271  -30.1939   20.9923 O   0  0  0  0  0  0  0  0  0  0  0  0
  -26.0331  -29.2712   23.2055 O   0  0  0  0  0  0  0  0  0  0  0  0
  -27.9537  -26.4311   19.9244 O   0  0  0  0  0  0  0  0  0  0  0  0
  -28.1446  -16.5990   18.7892 O   0  0  0  0  0  0  0  0  0  0  0  0
  -21.8169   -6.6545   21.3410 O   0  0  0  0  0  0  0  0  0  0  0  0
  -21.8876  -24.9219   17.2160 O   0  0  0  0  0  0  0  0  0  1  0  0
  -23.5899   -1.6235   22.7373 F   0  0  0  0  0  0  0  0  0  0  0  0
  -21.0801   -5.5078   23.7462 F   0  0  0  0  0  0  0  0  0  0  0  0
  -25.9916  -21.7610   16.9629 S   0  0  0  0  0  0  0  0  0  0  0  0
  1  2  1  0  0  0  0
  1  5  2  0  0  0  0
  2  6  2  0  0  0  0
  3  8  2  0  0  0  0
  3 16  1  0  0  0  0
  4  9  1  0  0  0  0
  4 16  2  0  0  0  0
  5 18  1  0  0  0  0
  6 20  1  0  0  0  0
  7 10  2  0  0  0  0
  7 19  1  0  0  0  0
  8 23  1  0  0  0  0
  9 23  2  0  0  0  0
 10 24  1  0  0  0  0
 11 12  2  0  0  0  0
 11 25  1  0  0  0  0
 12 26  1  0  0  0  0
 13 21  1  0  0  0  0
 13 24  2  0  0  0  0
 14 22  1  0  0  0  0
 14 31  2  0  0  0  0
 15 26  2  0  0  0  0
 15 27  1  0  0  0  0
 16 28  1  0  0  0  0
 17 28  1  0  0  0  0
 17 30  2  0  0  0  0
 17 32  1  0  0  0  0
 18 20  2  0  0  0  0
 18 37  1  0  0  0  0
 19 21  2  0  0  0  0
 19 38  1  0  0  0  0
 20 49  1  0  0  0  0
 21 39  1  0  0  0  0
 22 29  2  0  0  0  0
 22 40  1  0  0  0  0
 23 79  1  0  0  0  0
 24 80  1  0  0  0  0
 25 27  2  0  0  0  0
 25 79  1  0  0  0  0
 26 81  1  0  0  0  0
 27 82  1  0  0  0  0
 28 63  2  0  0  0  0
 29 41  1  0  0  0  0
 29 83  1  0  0  0  0
 30 64  1  0  0  0  0
 30 68  1  0  0  0  0
 31 70  1  0  0  0  0
 31 83  1  0  0  0  0
 32 69  1  0  0  0  0
 32 74  2  0  0  0  0
 33 50  1  0  0  0  0
 33 71  1  0  0  0  0
 33 75  2  0  0  0  0
 34 59  1  0  0  0  0
 34 65  1  0  0  0  0
 34 76  2  0  0  0  0
 35 60  1  0  0  0  0
 35 72  1  0  0  0  0
 35 77  2  0  0  0  0
 36 66  1  0  0  0  0
 36 67  1  0  0  0  0
 36 78  2  0  0  0  0
 37 42  1  0  0  0  0
 38 50  1  0  0  0  0
 39 65  1  0  0  0  0
 40 66  1  0  0  0  0
 41 46  1  0  0  0  0
 42 44  1  0  0  0  0
 43 45  1  0  0  0  0
 43 47  1  0  0  0  0
 44 49  1  0  0  0  0
 45 51  1  0  0  0  0
 46 66  1  0  0  0  0
 47 67  1  0  0  0  0
 48 51  1  0  0  0  0
 48 67  1  0  0  0  0
 49 71  1  0  0  0  0
 50 65  1  0  0  0  0
 51 64  1  0  0  0  0
 52 60  1  0  0  0  0
 53 61  1  0  0  0  0
 54 62  1  0  0  0  0
 55 62  1  0  0  0  0
 56 62  1  0  0  0  0
 57 73  1  0  0  0  0
 58 61  1  0  0  0  0
 58 70  1  0  0  0  0
 59 62  1  0  0  0  0
 59 72  1  0  0  0  0
 60 73  1  0  0  0  0
 61 80  1  0  0  0  0
 63 64  1  0  0  0  0
M  CHG  1  73   1
M  ISO  4  36 100  61 101  66 100  80 101
M  END
> <Batch ID>
0148

> <Smiles>
CNC(C)C(=O)NC(C(=O)N1Cc2cc([101O:1][101CH:1](C)CNc3cc4c(s3)CC[100N:0]([100C:0](=O)N3CCCC(n5nc(-c6ccc(Oc7ccc(F)cc7F)cc6)c(C(N)=O)c5N)C3)C4)ccc2CC1C(=O)NC1CCCc2ccccc21)C(C)(C)C

> <Shape>
0.242

> <Color>
0.079

> <Negative vol penalty>
0.000

$$$$

  -OEChem-04052303163D

 84 93  0     1  0  0  0  0  0999 V2000
  -20.5256  -31.3646   26.7040 C   0  0  0  0  0  0  0  0  0  0  0  0
  -21.8048  -31.1041   26.2231 C   0  0  0  0  0  0  0  0  0  0  0  0
  -27.8503  -22.1112   17.1421 C   0  0  0  0  0  0  0  0  0  0  0  0
  -26.6295  -11.8389   21.4736 C   0  0  0  0  0  0  0  0  0  0  0  0
  -25.5204  -13.6533   20.3268 C   0  0  0  0  0  0  0  0  0  0  0  0
  -19.4346  -30.6598   26.1971 C   0  0  0  0  0  0  0  0  0  0  0  0
  -21.9938  -30.1377   25.2358 C   0  0  0  0  0  0  0  0  0  0  0  0
  -28.2857  -23.3910   17.4856 C   0  0  0  0  0  0  0  0  0  0  0  0
  -26.1157  -30.2578   20.7079 C   0  0  0  0  0  0  0  0  0  0  0  0
  -27.9805  -21.0624   18.0524 C   0  0  0  0  0  0  0  0  0  0  0  0
  -25.4269  -11.1339   21.5212 C   0  0  0  0  0  0  0  0  0  0  0  0
  -24.3178  -12.9482   20.3744 C   0  0  0  0  0  0  0  0  0  0  0  0
  -27.3668  -29.6601   20.5623 C   0  0  0  0  0  0  0  0  0  0  0  0
  -23.5540   -9.2586   19.4215 C   0  0  0  0  0  0  0  0  0  0  0  0
  -23.5828   -7.9045   19.0880 C   0  0  0  0  0  0  0  0  0  0  0  0
  -28.9817  -22.5732   19.6499 C   0  0  0  0  0  0  0  0  0  0  0  0
  -26.3502  -27.8433   19.3437 C   0  0  0  0  0  0  0  0  0  0  0  0
  -22.7558   -7.3451   21.2880 C   0  0  0  0  0  0  0  0  0  0  0  0
  -26.6763  -13.0987   20.8764 C   0  0  0  0  0  0  0  0  0  0  0  0
  -29.1172  -13.4238   20.2103 C   0  0  0  0  0  0  0  0  0  0  0  0
  -28.8515  -23.6220   18.7395 C   0  0  0  0  0  0  0  0  0  0  0  0
  -19.6092  -29.6912   25.1962 C   0  0  0  0  0  0  0  0  0  0  0  0
  -24.9690  -29.6463   20.1811 C   0  0  0  0  0  0  0  0  0  0  0  0
  -20.9043  -29.4183   24.7160 C   0  0  0  0  0  0  0  0  0  0  0  0
  -25.0861  -28.4366   19.4817 C   0  0  0  0  0  0  0  0  0  0  0  0
  -28.5462  -21.2934   19.3063 C   0  0  0  0  0  0  0  0  0  0  0  0
  -24.2711  -11.6885   20.9716 C   0  0  0  0  0  0  0  0  0  0  0  0
  -27.4838  -28.4512   19.8826 C   0  0  0  0  0  0  0  0  0  0  0  0
  -23.1262   -9.6559   20.6883 C   0  0  0  0  0  0  0  0  0  0  0  0
  -23.1837   -6.9478   20.0212 C   0  0  0  0  0  0  0  0  0  0  0  0
  -22.7271   -8.6992   21.6216 C   0  0  0  0  0  0  0  0  0  0  0  0
  -27.9181  -13.8277   20.8274 C   0  0  0  0  0  0  0  0  0  0  0  0
  -29.9894  -14.4586   20.4446 C   0  0  0  0  0  0  0  0  0  0  0  0
  -29.4159  -12.2209   19.4896 C   0  0  0  0  0  0  0  0  0  0  0  0
  -22.2760  -28.4911   21.4127 C   0  0  0  0  0  0  0  0  0  0  0  0
  -21.4639  -28.1269   18.2934 C   0  0  0  0  0  0  0  0  0  0  0  0
  -22.4846  -27.7596   15.0577 C   0  0  0  0  0  0  0  0  0  0  0  0
  -29.2163  -20.2861   21.5160 C   0  0  0  0  0  0  0  0  0  0  0  0
  -18.4055  -28.9216   24.7129 C   0  0  0  0  0  0  0  0  0  0  0  0
  -23.6304  -30.3174   20.3235 C   0  0  0  0  0  0  0  0  0  0  0  0
  -23.8886  -27.7495   18.8798 C   0  0  0  0  0  0  0  0  0  0  0  0
  -18.6442  -28.1783   23.4011 C   0  0  0  0  0  0  0  0  0  0  0  0
  -30.9043  -17.9436   23.5993 C   0  0  0  0  0  0  0  0  0  0  0  0
  -19.9711  -27.4273   23.4469 C   0  0  0  0  0  0  0  0  0  0  0  0
  -30.4440  -16.5854   23.0648 C   0  0  0  0  0  0  0  0  0  0  0  0
  -30.6446  -26.9839   20.8790 C   0  0  0  0  0  0  0  0  0  0  0  0
  -28.6216  -25.5491   20.3718 C   0  0  0  0  0  0  0  0  0  0  0  0
  -29.7837  -18.9808   23.5529 C   0  0  0  0  0  0  0  0  0  0  0  0
  -28.6758  -17.7789   21.7097 C   0  0  0  0  0  0  0  0  0  0  0  0
  -31.3279  -26.4493   19.6278 C   0  0  0  0  0  0  0  0  0  0  0  0
  -21.1468  -28.3950   23.6278 C   0  0  1  0  0  0  0  0  0  0  0  0
  -29.3240  -25.0114   19.1120 C   0  0  1  0  0  0  0  0  0  0  0  0
  -22.4593  -29.3484   20.1925 C   0  0  1  0  0  0  0  0  0  0  0  0
  -29.7890  -16.7190   21.6760 C   0  0  2  0  0  0  0  0  0  0  0  0
  -29.1123  -26.9534   20.7639 C   0  0  1  0  0  0  0  0  0  1  0  0
  -28.4611  -27.4020   22.0734 C   0  0  0  0  0  0  0  0  0  0  0  0
  -21.5911  -27.4471   12.7336 C   0  0  0  0  0  0  0  0  0  0  0  0
  -20.8578  -25.2033   18.9222 C   0  0  0  0  0  0  0  0  0  0  0  0
  -20.9007  -24.7379   16.4626 C   0  0  0  0  0  0  0  0  0  0  0  0
  -19.2060  -26.3079   17.4037 C   0  0  0  0  0  0  0  0  0  0  0  0
  -23.7087  -30.2867   14.1224 C   0  0  0  0  0  0  0  0  0  0  0  0
  -21.6248  -27.0310   17.2677 C   0  0  1  0  0  0  0  0  0  0  0  0
  -22.0487  -28.4522   13.7792 C   0  0  2  0  0  0  0  0  0  0  0  0
  -20.6698  -25.8317   17.5270 C   0  0  0  0  0  0  0  0  0  0  0  0
  -28.0161  -15.0255   21.4102 N   0  0  0  0  0  0  0  0  0  0  0  0
  -29.2872  -15.3832   21.1603 N   0  0  0  0  0  0  0  0  0  0  0  0
  -22.6007  -28.4420   19.0511 N   0  0  0  0  0  0  0  0  0  0  0  0
  -29.2137  -19.0553   22.2059 N   0  0  0  0  0  0  0  0  0  0  0  0
  -31.2809  -14.6587   20.1063 N   0  0  0  0  0  0  0  0  0  0  0  0
  -29.1971  -12.1995   18.1054 N   0  0  0  0  0  0  0  0  0  0  0  0
  -28.6777  -20.2278   20.2310 N   0  0  0  0  0  0  0  0  0  0  0  0
  -21.4587  -29.0510   22.3760 N   0  0  0  0  0  0  0  0  0  0  0  0
  -21.4503  -27.6629   15.9644 N   0  0  0  0  0  0  0  0  0  0  0  0
  -30.8142  -25.0788   19.3339 N   0  3  0  0  0  0  0  0  0  0  0  0
  -23.1752  -29.2438   13.2088 N   0  3  0  0  0  0  0  0  0  0  0  0
  -29.8480  -11.1900   20.0588 O   0  0  0  0  0  0  0  0  0  0  0  0
  -22.8336  -27.4017   21.4751 O   0  0  0  0  0  0  0  0  0  0  0  0
  -20.3717  -28.6877   18.4129 O   0  0  0  0  0  0  0  0  0  0  0  0
  -23.6274  -27.3426   15.2330 O   0  0  0  0  0  0  0  0  0  0  0  0
  -29.6881  -21.3099   22.0170 O   0  0  0  0  0  0  0  0  0  0  0  0
  -23.0975  -11.0007   21.0177 O   0  0  0  0  0  0  0  0  0  0  0  0
  -28.7037  -27.8652   19.7396 O   0  0  0  0  0  0  0  0  0  1  0  0
  -23.2099   -5.6476   19.7003 F   0  0  0  0  0  0  0  0  0  0  0  0
  -22.3139   -9.0749   22.8397 F   0  0  0  0  0  0  0  0  0  0  0  0
  1  2  1  0  0  0  0
  1  6  2  0  0  0  0
  2  7  2  0  0  0  0
  3  8  2  0  0  0  0
  3 10  1  0  0  0  0
  4 11  2  0  0  0  0
  4 19  1  0  0  0  0
  5 12  1  0  0  0  0
  5 19  2  0  0  0  0
  6 22  1  0  0  0  0
  7 24  1  0  0  0  0
  8 21  1  0  0  0  0
  9 13  2  0  0  0  0
  9 23  1  0  0  0  0
 10 26  2  0  0  0  0
 11 27  1  0  0  0  0
 12 27  2  0  0  0  0
 13 28  1  0  0  0  0
 14 15  2  0  0  0  0
 14 29  1  0  0  0  0
 15 30  1  0  0  0  0
 16 21  2  0  0  0  0
 16 26  1  0  0  0  0
 17 25  1  0  0  0  0
 17 28  2  0  0  0  0
 18 30  2  0  0  0  0
 18 31  1  0  0  0  0
 19 32  1  0  0  0  0
 20 32  1  0  0  0  0
 20 33  2  0  0  0  0
 20 34  1  0  0  0  0
 21 52  1  0  0  0  0
 22 24  2  0  0  0  0
 22 39  1  0  0  0  0
 23 25  2  0  0  0  0
 23 40  1  0  0  0  0
 24 51  1  0  0  0  0
 25 41  1  0  0  0  0
 26 71  1  0  0  0  0
 27 81  1  0  0  0  0
 28 82  1  0  0  0  0
 29 31  2  0  0  0  0
 29 81  1  0  0  0  0
 30 83  1  0  0  0  0
 31 84  1  0  0  0  0
 32 65  2  0  0  0  0
 33 66  1  0  0  0  0
 33 69  1  0  0  0  0
 34 70  1  0  0  0  0
 34 76  2  0  0  0  0
 35 53  1  0  0  0  0
 35 72  1  0  0  0  0
 35 77  2  0  0  0  0
 36 62  1  0  0  0  0
 36 67  1  0  0  0  0
 36 78  2  0  0  0  0
 37 63  1  0  0  0  0
 37 73  1  0  0  0  0
 37 79  2  0  0  0  0
 38 68  1  0  0  0  0
 38 71  1  0  0  0  0
 38 80  2  0  0  0  0
 39 42  1  0  0  0  0
 40 53  1  0  0  0  0
 41 67  1  0  0  0  0
 42 44  1  0  0  0  0
 43 45  1  0  0  0  0
 43 48  1  0  0  0  0
 44 51  1  0  0  0  0
 45 54  1  0  0  0  0
 46 50  1  0  0  0  0
 46 55  1  0  0  0  0
 47 52  1  0  0  0  0
 47 55  1  0  0  0  0
 48 68  1  0  0  0  0
 49 54  1  0  0  0  0
 49 68  1  0  0  0  0
 50 74  1  0  0  0  0
 51 72  1  0  0  0  0
 52 74  1  0  0  0  0
 53 67  1  0  0  0  0
 54 66  1  0  0  0  0
 55 56  1  0  0  0  0
 55 82  1  0  0  0  0
 57 63  1  0  0  0  0
 58 64  1  0  0  0  0
 59 64  1  0  0  0  0
 60 64  1  0  0  0  0
 61 75  1  0  0  0  0
 62 64  1  0  0  0  0
 62 73  1  0  0  0  0
 63 75  1  0  0  0  0
 65 66  1  0  0  0  0
M  CHG  2  74   1  75   1
M  ISO  4  38 100  55 101  71 100  82 101
M  END
> <Batch ID>
0148

> <Smiles>
CNC(C)C(=O)NC(C(=O)N1Cc2cc([101O:1][101C:1]3(C)CCNC(c4cccc([100NH:0][100C:0](=O)N5CCCC(n6nc(-c7ccc(Oc8ccc(F)cc8F)cc7)c(C(N)=O)c6N)C5)c4)C3)ccc2CC1C(=O)NC1CCCc2ccccc21)C(C)(C)C

> <Shape>
0.307

> <Color>
0.067

> <Negative vol penalty>
0.000

$$$$

  -OEChem-04052303163D

 86 95  0     1  0  0  0  0  0999 V2000
  -27.3164  -37.0753   18.1532 C   0  0  0  0  0  0  0  0  0  0  0  0
  -27.8977  -35.8517   17.8363 C   0  0  0  0  0  0  0  0  0  0  0  0
  -24.0469   -9.1743   21.8216 C   0  0  0  0  0  0  0  0  0  0  0  0
  -23.6712  -11.2137   23.0614 C   0  0  0  0  0  0  0  0  0  0  0  0
  -26.6493  -37.2353   19.3670 C   0  0  0  0  0  0  0  0  0  0  0  0
  -27.8131  -34.7877   18.7335 C   0  0  0  0  0  0  0  0  0  0  0  0
  -27.3361  -27.6418   18.8904 C   0  0  0  0  0  0  0  0  0  0  0  0
  -28.6742  -17.7434   22.0873 C   0  0  0  0  0  0  0  0  0  0  0  0
  -23.4793   -8.4377   22.8613 C   0  0  0  0  0  0  0  0  0  0  0  0
  -23.1036  -10.4771   24.1010 C   0  0  0  0  0  0  0  0  0  0  0  0
  -27.9551  -26.5334   19.4666 C   0  0  0  0  0  0  0  0  0  0  0  0
  -20.3778   -7.7088   23.9936 C   0  0  0  0  0  0  0  0  0  0  0  0
  -19.4621   -6.7119   23.6571 C   0  0  0  0  0  0  0  0  0  0  0  0
  -28.6907  -19.1335   22.0660 C   0  0  0  0  0  0  0  0  0  0  0  0
  -26.7094  -26.9020   21.4992 C   0  0  0  0  0  0  0  0  0  0  0  0
  -20.8823   -5.0566   24.6965 C   0  0  0  0  0  0  0  0  0  0  0  0
  -30.4193  -17.7496   20.4715 C   0  0  0  0  0  0  0  0  0  0  0  0
  -24.1429  -10.5623   21.9217 C   0  0  0  0  0  0  0  0  0  0  0  0
  -24.0660  -11.8772   19.7370 C   0  0  0  0  0  0  0  0  0  0  0  0
  -26.5482  -36.1698   20.2754 C   0  0  0  0  0  0  0  0  0  0  0  0
  -26.4056  -28.3963   19.6192 C   0  0  0  0  0  0  0  0  0  0  0  0
  -27.1452  -34.9339   19.9612 C   0  0  0  0  0  0  0  0  0  0  0  0
  -26.0781  -28.0180   20.9291 C   0  0  0  0  0  0  0  0  0  0  0  0
  -29.5517  -17.0307   21.2779 C   0  0  0  0  0  0  0  0  0  0  0  0
  -23.0077   -9.0891   24.0010 C   0  0  0  0  0  0  0  0  0  0  0  0
  -27.6439  -26.1650   20.7722 C   0  0  0  0  0  0  0  0  0  0  0  0
  -21.5458   -7.3797   24.6815 C   0  0  0  0  0  0  0  0  0  0  0  0
  -19.7143   -5.3858   24.0085 C   0  0  0  0  0  0  0  0  0  0  0  0
  -21.7980   -6.0536   25.0329 C   0  0  0  0  0  0  0  0  0  0  0  0
  -24.7296  -11.3237   20.8483 C   0  0  0  0  0  0  0  0  0  0  0  0
  -29.5970  -19.7583   21.2245 C   0  0  0  0  0  0  0  0  0  0  0  0
  -25.0584  -12.4978   19.0185 C   0  0  0  0  0  0  0  0  0  0  0  0
  -22.6766  -11.8343   19.3857 C   0  0  0  0  0  0  0  0  0  0  0  0
  -27.3110  -22.1521   21.3203 C   0  0  0  0  0  0  0  0  0  0  0  0
  -26.2523  -31.4095   20.6198 C   0  0  0  0  0  0  0  0  0  0  0  0
  -23.2697  -30.5387   21.5517 C   0  0  0  0  0  0  0  0  0  0  0  0
  -21.1305  -28.0367   22.4520 C   0  0  0  0  0  0  0  0  0  0  0  0
  -30.3750  -14.7725   20.5235 C   0  0  0  0  0  0  0  0  0  0  0  0
  -25.8579  -36.4044   21.5957 C   0  0  0  0  0  0  0  0  0  0  0  0
  -25.7268  -29.5733   18.9740 C   0  0  0  0  0  0  0  0  0  0  0  0
  -25.0708  -28.7827   21.7470 C   0  0  0  0  0  0  0  0  0  0  0  0
  -25.4900  -35.1166   22.3280 C   0  0  0  0  0  0  0  0  0  0  0  0
  -29.7531  -12.2281   18.1118 C   0  0  0  0  0  0  0  0  0  0  0  0
  -26.6676  -34.1470   22.3273 C   0  0  0  0  0  0  0  0  0  0  0  0
  -28.3316  -11.7620   18.4348 C   0  0  0  0  0  0  0  0  0  0  0  0
  -30.5375  -12.5743   19.3761 C   0  0  0  0  0  0  0  0  0  0  0  0
  -28.4549  -13.0627   20.5982 C   0  0  0  0  0  0  0  0  0  0  0  0
  -30.3851  -22.0975   20.4824 C   0  0  0  0  0  0  0  0  0  0  0  0
  -27.0534  -33.7487   20.8976 C   0  0  1  0  0  0  0  0  0  0  0  0
  -28.7552  -22.1305   21.8412 C   0  0  2  0  0  0  0  0  0  0  0  0
  -25.1765  -30.5740   19.9856 C   0  0  1  0  0  0  0  0  0  0  0  0
  -27.6047  -12.7646   19.3524 C   0  0  2  0  0  0  0  0  0  0  0  0
  -29.7601  -23.2146   21.3486 C   0  0  1  0  0  0  0  0  0  0  0  0
  -26.2588  -22.6682   22.2642 C   0  0  0  0  0  0  0  0  0  0  0  0
  -30.6877  -23.7230   22.4562 C   0  0  0  0  0  0  0  0  0  0  0  0
  -18.7671  -27.6380   23.1955 C   0  0  0  0  0  0  0  0  0  0  0  0
  -23.9742  -31.5695   24.3358 C   0  0  0  0  0  0  0  0  0  0  0  0
  -22.0028  -30.3085   25.2255 C   0  0  0  0  0  0  0  0  0  0  0  0
  -21.6641  -32.1398   23.5658 C   0  0  0  0  0  0  0  0  0  0  0  0
  -20.5512  -26.3453   20.0935 C   0  0  0  0  0  0  0  0  0  0  0  0
  -29.1890  -24.3727   20.5352 C   0  0  0  0  0  0  0  0  0  1  0  0
  -22.6710  -29.9488   22.8057 C   0  0  1  0  0  0  0  0  0  0  0  0
  -19.7151  -27.7134   22.0088 C   0  0  2  0  0  0  0  0  0  0  0  0
  -22.5985  -30.9782   23.9687 C   0  0  0  0  0  0  0  0  0  0  0  0
  -30.4647  -19.0999   20.4238 N   0  0  0  0  0  0  0  0  0  0  0  0
  -26.0422  -11.5707   20.8406 N   0  0  0  0  0  0  0  0  0  0  0  0
  -26.2114  -12.2862   19.7157 N   0  0  0  0  0  0  0  0  0  0  0  0
  -29.6006  -21.1612   21.2131 N   0  0  3  0  0  0  0  0  0  0  0  0
  -24.4388  -29.9296   21.0741 N   0  0  0  0  0  0  0  0  0  0  0  0
  -29.7896  -13.5318   20.1938 N   0  0  0  0  0  0  0  0  0  0  0  0
  -25.0487  -13.1984   17.8645 N   0  0  0  0  0  0  0  0  0  0  0  0
  -21.7933  -11.1543   20.2353 N   0  0  0  0  0  0  0  0  0  0  0  0
  -29.5572  -15.6138   21.2772 N   0  0  0  0  0  0  0  0  0  0  0  0
  -26.1272  -32.7645   20.3798 N   0  0  0  0  0  0  0  0  0  0  0  0
  -21.3791  -29.3925   22.4186 N   0  0  0  0  0  0  0  0  0  0  0  0
  -19.6815  -26.4048   21.2965 N   0  3  0  0  0  0  0  0  0  0  0  0
  -22.2341  -12.3687   18.3407 O   0  0  0  0  0  0  0  0  0  0  0  0
  -27.0284  -21.7684   20.1864 O   0  0  0  0  0  0  0  0  0  0  0  0
  -27.1300  -30.8651   21.2794 O   0  0  0  0  0  0  0  0  0  0  0  0
  -22.7164  -31.4998   21.0116 O   0  0  0  0  0  0  0  0  0  0  0  0
  -21.9341  -27.1731   22.7972 O   0  0  0  0  0  0  0  0  0  0  0  0
  -31.5073  -15.0779   20.1407 O   0  0  0  0  0  0  0  0  0  0  0  0
  -22.4535   -8.3707   25.0155 O   0  0  0  0  0  0  0  0  0  0  0  0
  -28.2472  -25.0840   21.3373 O   0  0  0  0  0  0  0  0  0  1  0  0
  -18.8342   -4.4288   23.6866 F   0  0  0  0  0  0  0  0  0  0  0  0
  -22.9178   -5.7314   25.6949 F   0  0  0  0  0  0  0  0  0  0  0  0
  1  2  1  0  0  0  0
  1  5  2  0  0  0  0
  2  6  2  0  0  0  0
  3  9  2  0  0  0  0
  3 18  1  0  0  0  0
  4 10  1  0  0  0  0
  4 18  2  0  0  0  0
  5 20  1  0  0  0  0
  6 22  1  0  0  0  0
  7 11  2  0  0  0  0
  7 21  1  0  0  0  0
  8 14  2  0  0  0  0
  8 24  1  0  0  0  0
  9 25  1  0  0  0  0
 10 25  2  0  0  0  0
 11 26  1  0  0  0  0
 12 13  2  0  0  0  0
 12 27  1  0  0  0  0
 13 28  1  0  0  0  0
 14 31  1  0  0  0  0
 15 23  1  0  0  0  0
 15 26  2  0  0  0  0
 16 28  2  0  0  0  0
 16 29  1  0  0  0  0
 17 24  2  0  0  0  0
 17 65  1  0  0  0  0
 18 30  1  0  0  0  0
 19 30  1  0  0  0  0
 19 32  2  0  0  0  0
 19 33  1  0  0  0  0
 20 22  2  0  0  0  0
 20 39  1  0  0  0  0
 21 23  2  0  0  0  0
 21 40  1  0  0  0  0
 22 49  1  0  0  0  0
 23 41  1  0  0  0  0
 24 73  1  0  0  0  0
 25 83  1  0  0  0  0
 26 84  1  0  0  0  0
 27 29  2  0  0  0  0
 27 83  1  0  0  0  0
 28 85  1  0  0  0  0
 29 86  1  0  0  0  0
 30 66  2  0  0  0  0
 31 65  2  0  0  0  0
 31 68  1  0  0  0  0
 32 67  1  0  0  0  0
 32 71  1  0  0  0  0
 33 72  1  0  0  0  0
 33 77  2  0  0  0  0
 34 50  1  0  0  0  0
 34 54  1  0  0  0  0
 34 78  2  0  0  0  0
 35 51  1  0  0  0  0
 35 74  1  0  0  0  0
 35 79  2  0  0  0  0
 36 62  1  0  0  0  0
 36 69  1  0  0  0  0
 36 80  2  0  0  0  0
 37 63  1  0  0  0  0
 37 75  1  0  0  0  0
 37 81  2  0  0  0  0
 38 70  1  0  0  0  0
 38 73  1  0  0  0  0
 38 82  2  0  0  0  0
 39 42  1  0  0  0  0
 40 51  1  0  0  0  0
 41 69  1  0  0  0  0
 42 44  1  0  0  0  0
 43 45  1  0  0  0  0
 43 46  1  0  0  0  0
 44 49  1  0  0  0  0
 45 52  1  0  0  0  0
 46 70  1  0  0  0  0
 47 52  1  0  0  0  0
 47 70  1  0  0  0  0
 48 53  1  0  0  0  0
 48 68  1  0  0  0  0
 49 74  1  0  0  0  0
 50 53  1  0  0  0  0
 50 68  1  0  0  0  0
 51 69  1  0  0  0  0
 52 67  1  0  0  0  0
 53 55  1  0  0  0  0
 53 61  1  0  0  0  0
 56 63  1  0  0  0  0
 57 64  1  0  0  0  0
 58 64  1  0  0  0  0
 59 64  1  0  0  0  0
 60 76  1  0  0  0  0
 61 84  1  0  0  0  0
 62 64  1  0  0  0  0
 62 75  1  0  0  0  0
 63 76  1  0  0  0  0
 66 67  1  0  0  0  0
M  CHG  1  76   1
M  ISO  4  38 100  61 101  73 100  84 101
M  END
> <Batch ID>
0148

> <Smiles>
CNC(C)C(=O)NC(C(=O)N1Cc2cc([101O:1][101CH2:1]C3(C)CN(c4ccc([100NH:0][100C:0](=O)N5CCCC(n6nc(-c7ccc(Oc8ccc(F)cc8F)cc7)c(C(N)=O)c6N)C5)cn4)C3C(C)=O)ccc2CC1C(=O)NC1CCCc2ccccc21)C(C)(C)C

> <Shape>
0.319

> <Color>
0.093

> <Negative vol penalty>
0.000

$$$$

  -OEChem-04052303163D

 87 95  0     1  0  0  0  0  0999 V2000
  -28.0337  -37.2789   20.6214 C   0  0  0  0  0  0  0  0  0  0  0  0
  -28.4930  -35.9880   20.3809 C   0  0  0  0  0  0  0  0  0  0  0  0
  -22.1772  -16.6295   19.4551 C   0  0  0  0  0  0  0  0  0  0  0  0
  -23.7419  -17.9432   20.7446 C   0  0  0  0  0  0  0  0  0  0  0  0
  -27.0452  -37.4987   21.5799 C   0  0  0  0  0  0  0  0  0  0  0  0
  -27.9649  -34.9160   21.0996 C   0  0  0  0  0  0  0  0  0  0  0  0
  -27.0320  -29.2179   19.0584 C   0  0  0  0  0  0  0  0  0  0  0  0
  -21.5156  -17.7955   19.0698 C   0  0  0  0  0  0  0  0  0  0  0  0
  -23.0803  -19.1093   20.3593 C   0  0  0  0  0  0  0  0  0  0  0  0
  -27.7728  -28.0435   19.1840 C   0  0  0  0  0  0  0  0  0  0  0  0
  -22.9482  -21.1142   17.6421 C   0  0  0  0  0  0  0  0  0  0  0  0
  -23.7287  -22.1945   17.2306 C   0  0  0  0  0  0  0  0  0  0  0  0
  -30.3337  -18.4381   20.1880 C   0  0  0  0  0  0  0  0  0  0  0  0
  -26.4146  -27.3957   21.0695 C   0  0  0  0  0  0  0  0  0  0  0  0
  -22.8045  -23.5405   19.0115 C   0  0  0  0  0  0  0  0  0  0  0  0
  -23.2903  -16.7033   20.2925 C   0  0  0  0  0  0  0  0  0  0  0  0
  -30.6257  -17.0697   20.4569 C   0  0  0  0  0  0  0  0  0  0  0  0
  -23.4341  -14.4117   21.4039 C   0  0  0  0  0  0  0  0  0  0  0  0
  -26.4978  -36.4278   22.3038 C   0  0  0  0  0  0  0  0  0  0  0  0
  -25.9822  -29.4956   19.9456 C   0  0  0  0  0  0  0  0  0  0  0  0
  -26.9691  -35.1218   22.0696 C   0  0  0  0  0  0  0  0  0  0  0  0
  -25.6604  -28.5732   20.9514 C   0  0  0  0  0  0  0  0  0  0  0  0
  -21.9672  -19.0354   19.5219 C   0  0  0  0  0  0  0  0  0  0  0  0
  -27.4660  -27.1336   20.1915 C   0  0  0  0  0  0  0  0  0  0  0  0
  -22.0957  -21.2471   18.7383 C   0  0  0  0  0  0  0  0  0  0  0  0
  -23.6569  -23.4077   17.9153 C   0  0  0  0  0  0  0  0  0  0  0  0
  -22.0240  -22.4602   19.4229 C   0  0  0  0  0  0  0  0  0  0  0  0
  -23.9737  -15.4992   20.6912 C   0  0  0  0  0  0  0  0  0  0  0  0
  -24.4800  -13.5303   21.5293 C   0  0  0  0  0  0  0  0  0  0  0  0
  -29.6861  -19.0456   21.2412 C   0  0  0  0  0  0  0  0  0  0  0  0
  -30.1903  -16.6835   21.7056 C   0  0  0  0  0  0  0  0  0  0  0  0
  -28.6923  -22.6632   21.0322 C   0  0  0  0  0  0  0  0  0  0  0  0
  -31.2955  -16.1748   19.5484 C   0  0  0  0  0  0  0  0  0  0  0  0
  -22.1060  -14.2156   21.9074 C   0  0  0  0  0  0  0  0  0  0  0  0
  -28.1136  -23.6028   20.2668 C   0  0  0  0  0  0  0  0  0  0  0  0
  -29.3095  -21.4147   20.4835 C   0  0  0  0  0  0  0  0  0  0  0  0
  -25.3882  -31.7822   22.0723 C   0  0  0  0  0  0  0  0  0  0  0  0
  -22.5175  -30.2884   22.2962 C   0  0  0  0  0  0  0  0  0  0  0  0
  -20.7025  -27.4256   21.9001 C   0  0  0  0  0  0  0  0  0  0  0  0
  -30.2637  -14.1964   21.6816 C   0  0  0  0  0  0  0  0  0  0  0  0
  -25.4650  -36.7203   23.3632 C   0  0  0  0  0  0  0  0  0  0  0  0
  -25.1756  -30.7543   19.7800 C   0  0  0  0  0  0  0  0  0  0  0  0
  -24.5299  -28.8147   21.9168 C   0  0  0  0  0  0  0  0  0  0  0  0
  -24.6908  -35.4852   23.8166 C   0  0  0  0  0  0  0  0  0  0  0  0
  -28.5075  -12.1537   19.3609 C   0  0  0  0  0  0  0  0  0  0  0  0
  -25.6449  -34.3255   24.0841 C   0  0  0  0  0  0  0  0  0  0  0  0
  -27.0828  -12.6881   19.5037 C   0  0  0  0  0  0  0  0  0  0  0  0
  -29.5473  -13.2732   19.4186 C   0  0  0  0  0  0  0  0  0  0  0  0
  -28.0080  -14.6731   20.7586 C   0  0  0  0  0  0  0  0  0  0  0  0
  -26.4033  -33.9302   22.8113 C   0  0  1  0  0  0  0  0  0  0  0  0
  -24.4587  -31.1771   21.0586 C   0  0  1  0  0  0  0  0  0  0  0  0
  -26.9449  -13.5635   20.7617 C   0  0  1  0  0  0  0  0  0  0  0  0
  -31.1237  -16.4094   18.0691 C   0  0  0  0  0  0  0  0  0  0  0  0
  -18.3884  -26.5028   22.2012 C   0  0  0  0  0  0  0  0  0  0  0  0
  -22.9737  -30.1340   25.3092 C   0  0  0  0  0  0  0  0  0  0  0  0
  -21.1583  -28.4138   25.4256 C   0  0  0  0  0  0  0  0  0  0  0  0
  -20.6379  -30.7223   24.6365 C   0  0  0  0  0  0  0  0  0  0  0  0
  -30.5953  -15.4136   23.8226 C   0  0  0  0  0  0  0  0  0  0  0  0
  -20.4434  -26.8197   19.0148 C   0  0  0  0  0  0  0  0  0  0  0  0
  -27.5111  -24.8480   20.8473 C   0  0  0  0  0  0  0  0  0  1  0  0
  -21.9577  -29.1692   23.1406 C   0  0  1  0  0  0  0  0  0  0  0  0
  -19.3608  -27.1669   21.2388 C   0  0  2  0  0  0  0  0  0  0  0  0
  -21.7045  -29.6059   24.6111 C   0  0  0  0  0  0  0  0  0  0  0  0
  -25.2625  -15.3268   20.3855 N   0  0  0  0  0  0  0  0  0  0  0  0
  -25.5413  -14.1207   20.9086 N   0  0  0  0  0  0  0  0  0  0  0  0
  -23.7747  -30.0628   21.7180 N   0  0  0  0  0  0  0  0  0  0  0  0
  -29.3508  -14.1056   20.6139 N   0  0  0  0  0  0  0  0  0  0  0  0
  -24.5862  -12.3158   22.1089 N   0  0  0  0  0  0  0  0  0  0  0  0
  -21.8107  -14.6594   23.2037 N   0  0  0  0  0  0  0  0  0  0  0  0
  -29.2177  -20.3734   21.3993 N   0  0  0  0  0  0  0  0  0  0  0  0
  -25.5539  -33.1476   21.9393 N   0  0  0  0  0  0  0  0  0  0  0  0
  -20.7675  -28.6900   22.4462 N   0  0  0  0  0  0  0  0  0  0  0  0
  -30.2677  -15.4157   22.3927 N   0  0  0  0  0  0  0  0  0  0  0  0
  -19.5298  -26.2789   20.0540 N   0  3  0  0  0  0  0  0  0  0  0  0
  -32.0066  -15.2128   19.8781 O   0  0  0  0  0  0  0  0  0  0  0  0
  -21.2124  -13.6486   21.2341 O   0  0  0  0  0  0  0  0  0  0  0  0
  -29.8120  -21.3827   19.3669 O   0  0  0  0  0  0  0  0  0  0  0  0
  -25.9149  -31.0637   22.9137 O   0  0  0  0  0  0  0  0  0  0  0  0
  -21.8602  -31.3218   22.1490 O   0  0  0  0  0  0  0  0  0  0  0  0
  -21.6016  -26.5882   21.9325 O   0  0  0  0  0  0  0  0  0  0  0  0
  -30.9997  -13.2522   21.9924 O   0  0  0  0  0  0  0  0  0  0  0  0
  -28.0499  -23.4978   18.8915 O   0  0  0  0  0  0  0  0  0  0  0  0
  -21.3221  -20.1734   19.1460 O   0  0  0  0  0  0  0  0  0  0  0  0
  -28.1879  -25.9868   20.3168 O   0  0  0  0  0  0  0  0  0  1  0  0
  -24.4076  -24.4445   17.5210 F   0  0  0  0  0  0  0  0  0  0  0  0
  -21.2078  -22.5935   20.4774 F   0  0  0  0  0  0  0  0  0  0  0  0
  -29.4328  -17.9678   22.5475 S   0  0  0  0  0  0  0  0  0  0  0  0
  1  2  1  0  0  0  0
  1  5  2  0  0  0  0
  2  6  2  0  0  0  0
  3  8  2  0  0  0  0
  3 16  1  0  0  0  0
  4  9  1  0  0  0  0
  4 16  2  0  0  0  0
  5 19  1  0  0  0  0
  6 21  1  0  0  0  0
  7 10  2  0  0  0  0
  7 20  1  0  0  0  0
  8 23  1  0  0  0  0
  9 23  2  0  0  0  0
 10 24  1  0  0  0  0
 11 12  2  0  0  0  0
 11 25  1  0  0  0  0
 12 26  1  0  0  0  0
 13 17  1  0  0  0  0
 13 30  2  0  0  0  0
 14 22  1  0  0  0  0
 14 24  2  0  0  0  0
 15 26  2  0  0  0  0
 15 27  1  0  0  0  0
 16 28  1  0  0  0  0
 17 31  2  0  0  0  0
 17 33  1  0  0  0  0
 18 28  1  0  0  0  0
 18 29  2  0  0  0  0
 18 34  1  0  0  0  0
 19 21  2  0  0  0  0
 19 41  1  0  0  0  0
 20 22  2  0  0  0  0
 20 42  1  0  0  0  0
 21 50  1  0  0  0  0
 22 43  1  0  0  0  0
 23 83  1  0  0  0  0
 24 84  1  0  0  0  0
 25 27  2  0  0  0  0
 25 83  1  0  0  0  0
 26 85  1  0  0  0  0
 27 86  1  0  0  0  0
 28 64  2  0  0  0  0
 29 65  1  0  0  0  0
 29 68  1  0  0  0  0
 30 70  1  0  0  0  0
 30 87  1  0  0  0  0
 31 73  1  0  0  0  0
 31 87  1  0  0  0  0
 32 35  2  0  0  0  0
 32 36  1  0  0  0  0
 33 53  1  0  0  0  0
 33 75  2  0  0  0  0
 34 69  1  0  0  0  0
 34 76  2  0  0  0  0
 35 60  1  0  0  0  0
 35 82  1  0  0  0  0
 36 70  1  0  0  0  0
 36 77  2  0  0  0  0
 37 51  1  0  0  0  0
 37 71  1  0  0  0  0
 37 78  2  0  0  0  0
 38 61  1  0  0  0  0
 38 66  1  0  0  0  0
 38 79  2  0  0  0  0
 39 62  1  0  0  0  0
 39 72  1  0  0  0  0
 39 80  2  0  0  0  0
 40 67  1  0  0  0  0
 40 73  1  0  0  0  0
 40 81  2  0  0  0  0
 41 44  1  0  0  0  0
 42 51  1  0  0  0  0
 43 66  1  0  0  0  0
 44 46  1  0  0  0  0
 45 47  1  0  0  0  0
 45 48  1  0  0  0  0
 46 50  1  0  0  0  0
 47 52  1  0  0  0  0
 48 67  1  0  0  0  0
 49 52  1  0  0  0  0
 49 67  1  0  0  0  0
 50 71  1  0  0  0  0
 51 66  1  0  0  0  0
 52 65  1  0  0  0  0
 54 62  1  0  0  0  0
 55 63  1  0  0  0  0
 56 63  1  0  0  0  0
 57 63  1  0  0  0  0
 58 73  1  0  0  0  0
 59 74  1  0  0  0  0
 60 84  1  0  0  0  0
 61 63  1  0  0  0  0
 61 72  1  0  0  0  0
 62 74  1  0  0  0  0
 64 65  1  0  0  0  0
M  CHG  1  74   1
M  ISO  4  40 100  60 101  73 100  84 101
M  END
> <Batch ID>
0148

> <Smiles>
CNC(C)C(=O)NC(C(=O)N1Cc2cc([101O:1][101CH2:1]C(=O)CC(=O)Nc3cc(C(C)=O)c([100N:0](C)[100C:0](=O)N4CCCC(n5nc(-c6ccc(Oc7ccc(F)cc7F)cc6)c(C(N)=O)c5N)C4)s3)ccc2CC1C(=O)NC1CCCc2ccccc21)C(C)(C)C

> <Shape>
0.307

> <Color>
0.091

> <Negative vol penalty>
0.000

$$$$

  -OEChem-04052303163D

 87 96  0     1  0  0  0  0  0999 V2000
  -29.0481  -24.7822   16.9111 C   0  0  0  0  0  0  0  0  0  0  0  0
  -27.8246  -25.3099   17.3082 C   0  0  0  0  0  0  0  0  0  0  0  0
  -23.7207  -23.9489   22.7398 C   0  0  0  0  0  0  0  0  0  0  0  0
  -26.2944  -13.5635   18.2447 C   0  0  0  0  0  0  0  0  0  0  0  0
  -24.2832  -14.1339   19.4559 C   0  0  0  0  0  0  0  0  0  0  0  0
  -22.4658  -23.4917   23.1419 C   0  0  0  0  0  0  0  0  0  0  0  0
  -30.1947  -25.0556   17.6539 C   0  0  0  0  0  0  0  0  0  0  0  0
  -27.7494  -26.1207   18.4412 C   0  0  0  0  0  0  0  0  0  0  0  0
  -23.4308  -28.2946   19.3509 C   0  0  0  0  0  0  0  0  0  0  0  0
  -24.3685  -23.3489   21.6599 C   0  0  0  0  0  0  0  0  0  0  0  0
  -26.4219  -12.4004   19.0039 C   0  0  0  0  0  0  0  0  0  0  0  0
  -24.4106  -12.9707   20.2151 C   0  0  0  0  0  0  0  0  0  0  0  0
  -22.3144  -27.5930   19.8039 C   0  0  0  0  0  0  0  0  0  0  0  0
  -23.7838   -9.6713   19.8388 C   0  0  0  0  0  0  0  0  0  0  0  0
  -22.6379   -8.9020   20.0403 C   0  0  0  0  0  0  0  0  0  0  0  0
  -22.5063  -21.8344   21.3844 C   0  0  0  0  0  0  0  0  0  0  0  0
  -22.6845  -28.4519   22.0276 C   0  0  0  0  0  0  0  0  0  0  0  0
  -22.8580   -9.1995   22.4278 C   0  0  0  0  0  0  0  0  0  0  0  0
  -25.2251  -14.4303   18.4707 C   0  0  0  0  0  0  0  0  0  0  0  0
  -21.8586  -22.4345   22.4643 C   0  0  0  0  0  0  0  0  0  0  0  0
  -24.4023  -15.7819   16.4697 C   0  0  0  0  0  0  0  0  0  0  0  0
  -30.1305  -25.8601   18.8035 C   0  0  0  0  0  0  0  0  0  0  0  0
  -24.1901  -29.0728   20.2366 C   0  0  0  0  0  0  0  0  0  0  0  0
  -28.8995  -26.4278   19.1905 C   0  0  0  0  0  0  0  0  0  0  0  0
  -23.8085  -29.1645   21.5828 C   0  0  0  0  0  0  0  0  0  0  0  0
  -23.7613  -22.2917   20.9822 C   0  0  0  0  0  0  0  0  0  0  0  0
  -25.4800  -12.1040   19.9892 C   0  0  0  0  0  0  0  0  0  0  0  0
  -21.9428  -27.6693   21.1430 C   0  0  0  0  0  0  0  0  0  0  0  0
  -24.4669  -10.2047   20.9318 C   0  0  0  0  0  0  0  0  0  0  0  0
  -22.1750   -8.6661   21.3347 C   0  0  0  0  0  0  0  0  0  0  0  0
  -24.0039   -9.9688   22.2263 C   0  0  0  0  0  0  0  0  0  0  0  0
  -25.0932  -15.6323   17.6871 C   0  0  0  0  0  0  0  0  0  0  0  0
  -24.5754  -17.1031   16.1367 C   0  0  0  0  0  0  0  0  0  0  0  0
  -20.5324  -21.9511   22.8881 C   0  0  0  0  0  0  0  0  0  0  0  0
  -23.6694  -14.8131   15.7080 C   0  0  0  0  0  0  0  0  0  0  0  0
  -19.8410  -24.8043   21.8570 C   0  0  0  0  0  0  0  0  0  0  0  0
  -27.1998  -29.0166   21.2575 C   0  0  0  0  0  0  0  0  0  0  0  0
  -26.3507  -31.7926   22.7048 C   0  0  0  0  0  0  0  0  0  0  0  0
  -23.8632  -33.7598   23.9656 C   0  0  0  0  0  0  0  0  0  0  0  0
  -25.6675  -22.0155   19.3585 C   0  0  0  0  0  0  0  0  0  0  0  0
  -31.4038  -26.1302   19.5657 C   0  0  0  0  0  0  0  0  0  0  0  0
  -25.3759  -29.8449   19.7267 C   0  0  0  0  0  0  0  0  0  0  0  0
  -24.5782  -30.0022   22.5698 C   0  0  0  0  0  0  0  0  0  0  0  0
  -31.1526  -26.6260   20.9861 C   0  0  0  0  0  0  0  0  0  0  0  0
  -17.1824  -23.1332   22.0306 C   0  0  0  0  0  0  0  0  0  0  0  0
  -27.6490  -20.7333   16.6926 C   0  0  0  0  0  0  0  0  0  0  0  0
  -30.1453  -27.7660   20.9681 C   0  0  0  0  0  0  0  0  0  0  0  0
  -17.9823  -23.5323   20.7971 C   0  0  0  0  0  0  0  0  0  0  0  0
  -27.1513  -19.2952   16.5303 C   0  0  0  0  0  0  0  0  0  0  0  0
  -18.0697  -22.0896   22.6983 C   0  0  0  0  0  0  0  0  0  0  0  0
  -27.6698  -21.1642   18.1581 C   0  0  0  0  0  0  0  0  0  0  0  0
  -25.9070  -19.5364   18.7167 C   0  0  0  0  0  0  0  0  0  0  0  0
  -28.7883  -27.2874   20.4368 C   0  0  1  0  0  0  0  0  0  0  0  0
  -19.4308  -23.4729   21.2696 C   0  0  2  0  0  0  0  0  0  0  0  0
  -26.3766  -30.1962   20.8233 C   0  0  1  0  0  0  0  0  0  0  0  0
  -25.8068  -19.0792   17.2523 C   0  0  2  0  0  0  0  0  0  0  0  0
  -23.4817  -35.9560   25.1183 C   0  0  0  0  0  0  0  0  0  0  0  0
  -27.3625  -30.5923   25.3212 C   0  0  0  0  0  0  0  0  0  0  0  0
  -26.1145  -32.3847   26.5452 C   0  0  0  0  0  0  0  0  0  0  0  0
  -27.9564  -32.9973   24.9783 C   0  0  0  0  0  0  0  0  0  0  0  0
  -22.1878  -34.7672   21.7436 C   0  0  0  0  0  0  0  0  0  0  0  0
  -20.5327  -25.7677   20.9161 C   0  0  0  0  0  0  0  0  0  1  0  0
  -25.7602  -32.1631   24.0439 C   0  0  1  0  0  0  0  0  0  0  0  0
  -23.5543  -35.2347   23.7815 C   0  0  2  0  0  0  0  0  0  0  0  0
  -26.7848  -32.0169   25.2042 C   0  0  0  0  0  0  0  0  0  0  0  0
  -25.6630  -16.7677   18.0995 N   0  0  0  0  0  0  0  0  0  0  0  0
  -25.3304  -17.6434   17.1358 N   0  0  0  0  0  0  0  0  0  0  0  0
  -19.4243  -22.4968   22.3469 N   0  0  0  0  0  0  0  0  0  0  0  0
  -25.7337  -30.7334   22.0242 N   0  0  0  0  0  0  0  0  0  0  0  0
  -26.3619  -20.9344   18.7756 N   0  0  0  0  0  0  0  0  0  0  0  0
  -24.1540  -17.8437   15.0897 N   0  0  0  0  0  0  0  0  0  0  0  0
  -23.5911  -13.5010   16.1943 N   0  0  0  0  0  0  0  0  0  0  0  0
  -24.4200  -21.6828   19.8854 N   0  0  0  0  0  0  0  0  0  0  0  0
  -27.9282  -28.4332   20.2384 N   0  0  0  0  0  0  0  0  0  0  0  0
  -25.2170  -33.5086   23.8923 N   0  0  0  0  0  0  0  0  0  0  0  0
  -20.4493  -20.9831   23.7961 N   0  3  0  0  0  0  0  0  0  0  0  0
  -22.2493  -35.4072   23.0828 N   0  3  0  0  0  0  0  0  0  0  0  0
  -23.1146  -15.0986   14.6198 O   0  0  0  0  0  0  0  0  0  0  0  0
  -19.6198  -25.0782   23.0356 O   0  0  0  0  0  0  0  0  0  0  0  0
  -27.1769  -28.6628   22.4305 O   0  0  0  0  0  0  0  0  0  0  0  0
  -27.3190  -32.4245   22.2752 O   0  0  0  0  0  0  0  0  0  0  0  0
  -22.9911  -32.9157   24.1590 O   0  0  0  0  0  0  0  0  0  0  0  0
  -26.1326  -23.1582   19.3639 O   0  0  0  0  0  0  0  0  0  0  0  0
  -25.6039  -10.9690   20.7301 O   0  0  0  0  0  0  0  0  0  0  0  0
  -20.8539  -26.9850   21.5880 O   0  0  0  0  0  0  0  0  0  1  0  0
  -21.0737   -7.9285   21.5280 F   0  0  0  0  0  0  0  0  0  0  0  0
  -24.6552  -10.4796   23.2802 F   0  0  0  0  0  0  0  0  0  0  0  0
  1  2  1  0  0  0  0
  1  7  2  0  0  0  0
  2  8  2  0  0  0  0
  3  6  2  0  0  0  0
  3 10  1  0  0  0  0
  4 11  2  0  0  0  0
  4 19  1  0  0  0  0
  5 12  1  0  0  0  0
  5 19  2  0  0  0  0
  6 20  1  0  0  0  0
  7 22  1  0  0  0  0
  8 24  1  0  0  0  0
  9 13  2  0  0  0  0
  9 23  1  0  0  0  0
 10 26  2  0  0  0  0
 11 27  1  0  0  0  0
 12 27  2  0  0  0  0
 13 28  1  0  0  0  0
 14 15  2  0  0  0  0
 14 29  1  0  0  0  0
 15 30  1  0  0  0  0
 16 20  2  0  0  0  0
 16 26  1  0  0  0  0
 17 25  1  0  0  0  0
 17 28  2  0  0  0  0
 18 30  2  0  0  0  0
 18 31  1  0  0  0  0
 19 32  1  0  0  0  0
 20 34  1  0  0  0  0
 21 32  1  0  0  0  0
 21 33  2  0  0  0  0
 21 35  1  0  0  0  0
 22 24  2  0  0  0  0
 22 41  1  0  0  0  0
 23 25  2  0  0  0  0
 23 42  1  0  0  0  0
 24 53  1  0  0  0  0
 25 43  1  0  0  0  0
 26 73  1  0  0  0  0
 27 84  1  0  0  0  0
 28 85  1  0  0  0  0
 29 31  2  0  0  0  0
 29 84  1  0  0  0  0
 30 86  1  0  0  0  0
 31 87  1  0  0  0  0
 32 66  2  0  0  0  0
 33 67  1  0  0  0  0
 33 71  1  0  0  0  0
 34 68  1  0  0  0  0
 34 76  2  0  0  0  0
 35 72  1  0  0  0  0
 35 78  2  0  0  0  0
 36 54  1  0  0  0  0
 36 62  1  0  0  0  0
 36 79  2  0  0  0  0
 37 55  1  0  0  0  0
 37 74  1  0  0  0  0
 37 80  2  0  0  0  0
 38 63  1  0  0  0  0
 38 69  1  0  0  0  0
 38 81  2  0  0  0  0
 39 64  1  0  0  0  0
 39 75  1  0  0  0  0
 39 82  2  0  0  0  0
 40 70  1  0  0  0  0
 40 73  1  0  0  0  0
 40 83  2  0  0  0  0
 41 44  1  0  0  0  0
 42 55  1  0  0  0  0
 43 69  1  0  0  0  0
 44 47  1  0  0  0  0
 45 48  1  0  0  0  0
 45 50  1  0  0  0  0
 46 49  1  0  0  0  0
 46 51  1  0  0  0  0
 47 53  1  0  0  0  0
 48 54  1  0  0  0  0
 49 56  1  0  0  0  0
 50 68  1  0  0  0  0
 51 70  1  0  0  0  0
 52 56  1  0  0  0  0
 52 70  1  0  0  0  0
 53 74  1  0  0  0  0
 54 68  1  0  0  0  0
 55 69  1  0  0  0  0
 56 67  1  0  0  0  0
 57 64  1  0  0  0  0
 58 65  1  0  0  0  0
 59 65  1  0  0  0  0
 60 65  1  0  0  0  0
 61 77  1  0  0  0  0
 62 85  1  0  0  0  0
 63 65  1  0  0  0  0
 63 75  1  0  0  0  0
 64 77  1  0  0  0  0
 66 67  1  0  0  0  0
M  CHG  2  76   1  77   1
M  ISO  4  40 100  62 101  73 100  85 101
M  END
> <Batch ID>
0148

> <Smiles>
CNC(C)C(=O)NC(C(=O)N1Cc2cc([101O:1][101CH2:1]C(=O)C3CCCN3C(=N)c3cccc([100NH:0][100C:0](=O)N4CCCC(n5nc(-c6ccc(Oc7ccc(F)cc7F)cc6)c(C(N)=O)c5N)C4)c3)ccc2CC1C(=O)NC1CCCc2ccccc21)C(C)(C)C

> <Shape>
0.240

> <Color>
0.075

> <Negative vol penalty>
0.000

$$$$

  -OEChem-04052303163D

 84 92  0     1  0  0  0  0  0999 V2000
  -31.7838  -24.9156   17.8014 C   0  0  0  0  0  0  0  0  0  0  0  0
  -30.6786  -25.3955   17.1058 C   0  0  0  0  0  0  0  0  0  0  0  0
  -27.9466  -15.0580   21.1893 C   0  0  0  0  0  0  0  0  0  0  0  0
  -25.7267  -15.6550   20.4458 C   0  0  0  0  0  0  0  0  0  0  0  0
  -31.6820  -24.6390   19.1641 C   0  0  0  0  0  0  0  0  0  0  0  0
  -29.4707  -25.5979   17.7724 C   0  0  0  0  0  0  0  0  0  0  0  0
  -23.7311  -29.8842   17.7485 C   0  0  0  0  0  0  0  0  0  0  0  0
  -27.6322  -13.7069   21.0434 C   0  0  0  0  0  0  0  0  0  0  0  0
  -25.4123  -14.3039   20.2998 C   0  0  0  0  0  0  0  0  0  0  0  0
  -22.3389  -29.8198   17.7116 C   0  0  0  0  0  0  0  0  0  0  0  0
  -24.5353  -11.7203   22.2966 C   0  0  0  0  0  0  0  0  0  0  0  0
  -23.3045  -11.2847   22.7875 C   0  0  0  0  0  0  0  0  0  0  0  0
  -22.3023  -29.3825   20.0837 C   0  0  0  0  0  0  0  0  0  0  0  0
  -22.6736  -10.5669   20.5685 C   0  0  0  0  0  0  0  0  0  0  0  0
  -21.4902  -24.2244   21.6237 C   0  0  0  0  0  0  0  0  0  0  0  0
  -26.9939  -16.0321   20.8905 C   0  0  0  0  0  0  0  0  0  0  0  0
  -28.3397  -18.1393   20.3846 C   0  0  0  0  0  0  0  0  0  0  0  0
  -30.4749  -24.8473   19.8498 C   0  0  0  0  0  0  0  0  0  0  0  0
  -24.4211  -29.6871   18.9533 C   0  0  0  0  0  0  0  0  0  0  0  0
  -29.3523  -25.3225   19.1453 C   0  0  0  0  0  0  0  0  0  0  0  0
  -23.7031  -29.4475   20.1336 C   0  0  0  0  0  0  0  0  0  0  0  0
  -26.3650  -13.3299   20.5987 C   0  0  0  0  0  0  0  0  0  0  0  0
  -21.6244  -29.5661   18.8788 C   0  0  0  0  0  0  0  0  0  0  0  0
  -24.8352  -11.5793   20.9416 C   0  0  0  0  0  0  0  0  0  0  0  0
  -22.3737  -10.7080   21.9234 C   0  0  0  0  0  0  0  0  0  0  0  0
  -23.9044  -11.0026   20.0776 C   0  0  0  0  0  0  0  0  0  0  0  0
  -27.3179  -17.4279   21.0416 C   0  0  0  0  0  0  0  0  0  0  0  0
  -28.2328  -19.4200   20.8694 C   0  0  0  0  0  0  0  0  0  0  0  0
  -22.2018  -23.1048   21.2468 C   0  0  0  0  0  0  0  0  0  0  0  0
  -20.6482  -23.9590   19.6161 C   0  0  0  0  0  0  0  0  0  0  0  0
  -29.2996  -17.6833   19.4222 C   0  0  0  0  0  0  0  0  0  0  0  0
  -26.5443  -27.5664   20.0012 C   0  0  0  0  0  0  0  0  0  0  0  0
  -19.6865  -26.5350   18.0364 C   0  0  0  0  0  0  0  0  0  0  0  0
  -26.6326  -29.5168   22.5917 C   0  0  0  0  0  0  0  0  0  0  0  0
  -25.0598  -31.8637   24.5062 C   0  0  0  0  0  0  0  0  0  0  0  0
  -23.6972  -22.5395   23.1937 C   0  0  0  0  0  0  0  0  0  0  0  0
  -30.4000  -24.4891   21.3129 C   0  0  0  0  0  0  0  0  0  0  0  0
  -25.9217  -29.7863   18.9812 C   0  0  0  0  0  0  0  0  0  0  0  0
  -24.3954  -29.2490   21.4564 C   0  0  0  0  0  0  0  0  0  0  0  0
  -29.1887  -25.0858   22.0249 C   0  0  0  0  0  0  0  0  0  0  0  0
  -26.8254  -21.8504   24.7483 C   0  0  0  0  0  0  0  0  0  0  0  0
  -27.9252  -24.8746   21.1967 C   0  0  0  0  0  0  0  0  0  0  0  0
  -27.4024  -20.7069   23.9107 C   0  0  0  0  0  0  0  0  0  0  0  0
  -25.3102  -21.7317   24.9028 C   0  0  0  0  0  0  0  0  0  0  0  0
  -25.1439  -20.4484   22.8064 C   0  0  0  0  0  0  0  0  0  0  0  0
  -28.0317  -25.5785   19.8385 C   0  0  1  0  0  0  0  0  0  0  0  0
  -26.5465  -29.0597   20.1682 C   0  0  1  0  0  0  0  0  0  0  0  0
  -26.6587  -20.5605   22.5687 C   0  0  2  0  0  0  0  0  0  0  0  0
  -17.9533  -24.9193   17.2264 C   0  0  0  0  0  0  0  0  0  0  0  0
  -24.7640  -33.5693   26.3230 C   0  0  0  0  0  0  0  0  0  0  0  0
  -18.8060  -30.1734   17.0694 C   0  0  0  0  0  0  0  0  0  0  0  0
  -26.0560  -27.0592   24.3056 C   0  0  0  0  0  0  0  0  0  0  0  0
  -25.4394  -28.5983   26.1816 C   0  0  0  0  0  0  0  0  0  0  0  0
  -27.7582  -28.6220   25.2620 C   0  0  0  0  0  0  0  0  0  0  0  0
  -26.0955  -34.0413   22.7903 C   0  0  0  0  0  0  0  0  0  0  0  0
  -18.8357  -27.7943   17.9066 C   0  0  0  0  0  0  0  0  0  0  0  0
  -18.9327  -25.2464   18.3412 C   0  0  1  0  0  0  0  0  0  0  0  0
  -25.8717  -29.6012   23.8928 C   0  0  1  0  0  0  0  0  0  0  0  0
  -25.5390  -33.1887   25.0711 C   0  0  2  0  0  0  0  0  0  0  0  0
  -19.6661  -29.0495   17.6320 C   0  0  2  0  0  0  0  0  0  1  0  0
  -26.2681  -28.4719   24.8854 C   0  0  0  0  0  0  0  0  0  0  0  0
  -20.5991  -24.7159   20.6897 N   0  0  0  0  0  0  0  0  0  0  0  0
  -26.6138  -18.1930   21.8799 N   0  0  0  0  0  0  0  0  0  0  0  0
  -27.1941  -19.3985   21.7531 N   0  0  0  0  0  0  0  0  0  0  0  0
  -25.8640  -29.3491   21.4311 N   0  0  0  0  0  0  0  0  0  0  0  0
  -24.6728  -21.6007   23.5907 N   0  0  0  0  0  0  0  0  0  0  0  0
  -28.9268  -20.5510   20.6217 N   0  0  0  0  0  0  0  0  0  0  0  0
  -28.9662  -17.7507   18.0625 N   0  0  0  0  0  0  0  0  0  0  0  0
  -23.1851  -22.3324   21.9133 N   0  0  0  0  0  0  0  0  0  0  0  0
  -19.8840  -24.1656   18.4806 N   0  0  0  0  0  0  0  0  0  0  0  0
  -27.8047  -27.0001   19.9868 N   0  0  0  0  0  0  0  0  0  0  0  0
  -26.0876  -30.9500   24.4052 N   0  0  0  0  0  0  0  0  0  0  0  0
  -25.3671  -34.2737   24.0640 N   0  3  0  0  0  0  0  0  0  0  0  0
  -30.4133  -17.2144   19.7587 O   0  0  0  0  0  0  0  0  0  0  0  0
  -25.4780  -26.9719   19.8948 O   0  0  0  0  0  0  0  0  0  0  0  0
  -20.9083  -26.5524   17.8854 O   0  0  0  0  0  0  0  0  0  0  0  0
  -27.8630  -29.6039   22.6039 O   0  0  0  0  0  0  0  0  0  0  0  0
  -23.8901  -31.6584   24.1899 O   0  0  0  0  0  0  0  0  0  0  0  0
  -23.3618  -23.4753   23.9244 O   0  0  0  0  0  0  0  0  0  0  0  0
  -26.0579  -12.0116   20.4559 O   0  0  0  0  0  0  0  0  0  0  0  0
  -20.2655  -29.5020   18.8454 O   0  0  0  0  0  0  0  0  0  1  0  0
  -21.1924  -10.2883   22.3953 F   0  0  0  0  0  0  0  0  0  0  0  0
  -24.1873  -10.8633   18.7752 F   0  0  0  0  0  0  0  0  0  0  0  0
  -21.7433  -22.6385   19.6613 S   0  0  0  0  0  0  0  0  0  0  0  0
  1  2  1  0  0  0  0
  1  5  2  0  0  0  0
  2  6  2  0  0  0  0
  3  8  2  0  0  0  0
  3 16  1  0  0  0  0
  4  9  1  0  0  0  0
  4 16  2  0  0  0  0
  5 18  1  0  0  0  0
  6 20  1  0  0  0  0
  7 10  2  0  0  0  0
  7 19  1  0  0  0  0
  8 22  1  0  0  0  0
  9 22  2  0  0  0  0
 10 23  1  0  0  0  0
 11 12  2  0  0  0  0
 11 24  1  0  0  0  0
 12 25  1  0  0  0  0
 13 21  1  0  0  0  0
 13 23  2  0  0  0  0
 14 25  2  0  0  0  0
 14 26  1  0  0  0  0
 15 29  2  0  0  0  0
 15 62  1  0  0  0  0
 16 27  1  0  0  0  0
 17 27  1  0  0  0  0
 17 28  2  0  0  0  0
 17 31  1  0  0  0  0
 18 20  2  0  0  0  0
 18 37  1  0  0  0  0
 19 21  2  0  0  0  0
 19 38  1  0  0  0  0
 20 46  1  0  0  0  0
 21 39  1  0  0  0  0
 22 80  1  0  0  0  0
 23 81  1  0  0  0  0
 24 26  2  0  0  0  0
 24 80  1  0  0  0  0
 25 82  1  0  0  0  0
 26 83  1  0  0  0  0
 27 63  2  0  0  0  0
 28 64  1  0  0  0  0
 28 67  1  0  0  0  0
 29 69  1  0  0  0  0
 29 84  1  0  0  0  0
 30 62  2  0  0  0  0
 30 70  1  0  0  0  0
 30 84  1  0  0  0  0
 31 68  1  0  0  0  0
 31 74  2  0  0  0  0
 32 47  1  0  0  0  0
 32 71  1  0  0  0  0
 32 75  2  0  0  0  0
 33 56  1  0  0  0  0
 33 57  1  0  0  0  0
 33 76  2  0  0  0  0
 34 58  1  0  0  0  0
 34 65  1  0  0  0  0
 34 77  2  0  0  0  0
 35 59  1  0  0  0  0
 35 72  1  0  0  0  0
 35 78  2  0  0  0  0
 36 66  1  0  0  0  0
 36 69  1  0  0  0  0
 36 79  2  0  0  0  0
 37 40  1  0  0  0  0
 38 47  1  0  0  0  0
 39 65  1  0  0  0  0
 40 42  1  0  0  0  0
 41 43  1  0  0  0  0
 41 44  1  0  0  0  0
 42 46  1  0  0  0  0
 43 48  1  0  0  0  0
 44 66  1  0  0  0  0
 45 48  1  0  0  0  0
 45 66  1  0  0  0  0
 46 71  1  0  0  0  0
 47 65  1  0  0  0  0
 48 64  1  0  0  0  0
 49 57  1  0  0  0  0
 50 59  1  0  0  0  0
 51 60  1  0  0  0  0
 52 61  1  0  0  0  0
 53 61  1  0  0  0  0
 54 61  1  0  0  0  0
 55 73  1  0  0  0  0
 56 60  1  0  0  0  0
 57 70  1  0  0  0  0
 58 61  1  0  0  0  0
 58 72  1  0  0  0  0
 59 73  1  0  0  0  0
 60 81  1  0  0  0  0
 63 64  1  0  0  0  0
M  CHG  1  73   1
M  ISO  4  36 100  60 101  69 100  81 101
M  END
> <Batch ID>
0148

> <Smiles>
CNC(C)C(=O)NC(C(=O)N1Cc2cc([101O:1][101CH:1](C)CC(=O)C(C)Nc3ncc([100NH:0][100C:0](=O)N4CCCC(n5nc(-c6ccc(Oc7ccc(F)cc7F)cc6)c(C(N)=O)c5N)C4)s3)ccc2CC1C(=O)NC1CCCc2ccccc21)C(C)(C)C

> <Shape>
0.238

> <Color>
0.074

> <Negative vol penalty>
0.000

$$$$

  -OEChem-04052303163D

 84 93  0     1  0  0  0  0  0999 V2000
  -28.9950  -30.7179   27.0866 C   0  0  0  0  0  0  0  0  0  0  0  0
  -28.8536  -29.8480   26.0102 C   0  0  0  0  0  0  0  0  0  0  0  0
  -26.5163  -11.1100   21.1180 C   0  0  0  0  0  0  0  0  0  0  0  0
  -25.7826  -11.8802   18.9487 C   0  0  0  0  0  0  0  0  0  0  0  0
  -27.8647  -31.2640   27.6932 C   0  0  0  0  0  0  0  0  0  0  0  0
  -27.5816  -29.5228   25.5405 C   0  0  0  0  0  0  0  0  0  0  0  0
  -27.2809  -29.6677   20.4874 C   0  0  0  0  0  0  0  0  0  0  0  0
  -25.3383  -10.3759   21.2558 C   0  0  0  0  0  0  0  0  0  0  0  0
  -24.6046  -11.1460   19.0865 C   0  0  0  0  0  0  0  0  0  0  0  0
  -27.8088  -28.5840   19.7868 C   0  0  0  0  0  0  0  0  0  0  0  0
  -24.0875   -7.4403   20.1376 C   0  0  0  0  0  0  0  0  0  0  0  0
  -24.1907   -6.1316   20.6090 C   0  0  0  0  0  0  0  0  0  0  0  0
  -25.5878  -27.6800   19.5238 C   0  0  0  0  0  0  0  0  0  0  0  0
  -28.6940  -21.2328   17.4533 C   0  0  0  0  0  0  0  0  0  0  0  0
  -22.7888   -6.6998   22.4929 C   0  0  0  0  0  0  0  0  0  0  0  0
  -27.7911  -19.5264   16.1589 C   0  0  0  0  0  0  0  0  0  0  0  0
  -26.7384  -11.8622   19.9645 C   0  0  0  0  0  0  0  0  0  0  0  0
  -29.1679  -12.1847   19.2563 C   0  0  0  0  0  0  0  0  0  0  0  0
  -26.5785  -30.9530   27.2245 C   0  0  0  0  0  0  0  0  0  0  0  0
  -25.9014  -29.7602   20.7213 C   0  0  0  0  0  0  0  0  0  0  0  0
  -26.4329  -30.0642   26.1422 C   0  0  0  0  0  0  0  0  0  0  0  0
  -25.0447  -28.7671   20.2254 C   0  0  0  0  0  0  0  0  0  0  0  0
  -28.3312  -19.8567   17.3823 C   0  0  0  0  0  0  0  0  0  0  0  0
  -24.3825  -10.3939   20.2400 C   0  0  0  0  0  0  0  0  0  0  0  0
  -26.9625  -27.5885   19.3074 C   0  0  0  0  0  0  0  0  0  0  0  0
  -23.3351   -8.3788   20.8438 C   0  0  0  0  0  0  0  0  0  0  0  0
  -23.5413   -5.7613   21.7867 C   0  0  0  0  0  0  0  0  0  0  0  0
  -22.6857   -8.0085   22.0215 C   0  0  0  0  0  0  0  0  0  0  0  0
  -27.9548  -12.6212   19.8218 C   0  0  0  0  0  0  0  0  0  0  0  0
  -28.4176  -21.9018   16.2812 C   0  0  0  0  0  0  0  0  0  0  0  0
  -30.0041  -13.2696   19.3578 C   0  0  0  0  0  0  0  0  0  0  0  0
  -29.5083  -10.9123   18.6899 C   0  0  0  0  0  0  0  0  0  0  0  0
  -24.0655  -29.8263   23.3153 C   0  0  0  0  0  0  0  0  0  0  0  0
  -21.7098  -30.3911   21.1579 C   0  0  0  0  0  0  0  0  0  0  0  0
  -20.5961  -30.1103   17.9443 C   0  0  0  0  0  0  0  0  0  0  0  0
  -29.0316  -19.1554   19.6983 C   0  0  0  0  0  0  0  0  0  0  0  0
  -25.3847  -31.5309   27.9426 C   0  0  0  0  0  0  0  0  0  0  0  0
  -25.3448  -30.9491   21.4556 C   0  0  0  0  0  0  0  0  0  0  0  0
  -23.5541  -28.8300   20.4322 C   0  0  0  0  0  0  0  0  0  0  0  0
  -24.0867  -31.4291   27.1458 C   0  0  0  0  0  0  0  0  0  0  0  0
  -30.7951  -17.1488   22.0523 C   0  0  0  0  0  0  0  0  0  0  0  0
  -23.9287  -30.0299   26.5591 C   0  0  0  0  0  0  0  0  0  0  0  0
  -30.3820  -15.7199   21.6920 C   0  0  0  0  0  0  0  0  0  0  0  0
  -29.9457  -26.0288   15.8293 C   0  0  0  0  0  0  0  0  0  0  0  0
  -28.5788  -24.3482   17.1345 C   0  0  0  0  0  0  0  0  0  0  0  0
  -29.6399  -18.1336   21.8803 C   0  0  0  0  0  0  0  0  0  0  0  0
  -28.5764  -16.6749   20.2038 C   0  0  0  0  0  0  0  0  0  0  0  0
  -30.0315  -25.0469   14.6699 C   0  0  0  0  0  0  0  0  0  0  0  0
  -25.0708  -29.7067   25.5881 C   0  0  1  0  0  0  0  0  0  0  0  0
  -28.6512  -23.3657   15.9504 C   0  0  1  0  0  0  0  0  0  0  0  0
  -23.9799  -30.6796   22.0815 C   0  0  1  0  0  0  0  0  0  0  0  0
  -28.6859  -25.8088   16.6730 C   0  0  1  0  0  0  0  0  0  0  0  0
  -29.7250  -15.6574   20.2992 C   0  0  2  0  0  0  0  0  0  0  0  0
  -18.6161  -30.6310   16.4931 C   0  0  0  0  0  0  0  0  0  0  0  0
  -20.1993  -28.0377   22.3786 C   0  0  0  0  0  0  0  0  0  0  0  0
  -18.7421  -28.0072   20.3429 C   0  0  0  0  0  0  0  0  0  0  0  0
  -18.7743  -30.0160   21.8215 C   0  0  0  0  0  0  0  0  0  0  0  0
  -31.2097  -23.1516   15.8324 C   0  0  0  0  0  0  0  0  0  0  0  0
  -22.1981  -31.8781   16.1929 C   0  0  0  0  0  0  0  0  0  0  0  0
  -28.6656  -26.7572   17.8707 C   0  0  0  0  0  0  0  0  0  1  0  0
  -20.7712  -29.5284   20.3495 C   0  0  1  0  0  0  0  0  0  0  0  0
  -19.9612  -31.1210   17.0063 C   0  0  2  0  0  0  0  0  0  0  0  0
  -19.6500  -28.8949   21.2207 C   0  0  0  0  0  0  0  0  0  0  0  0
  -28.0112  -13.8849   20.2508 N   0  0  0  0  0  0  0  0  0  0  0  0
  -29.2698  -14.2516   19.9549 N   0  0  0  0  0  0  0  0  0  0  0  0
  -23.0588  -30.0090   21.1616 N   0  0  0  0  0  0  0  0  0  0  0  0
  -29.0698  -18.0207   20.5360 N   0  0  0  0  0  0  0  0  0  0  0  0
  -31.2885  -13.4697   18.9936 N   0  0  0  0  0  0  0  0  0  0  0  0
  -28.5303   -9.9087   18.6652 N   0  0  0  0  0  0  0  0  0  0  0  0
  -28.4974  -18.9196   18.4320 N   0  0  0  0  0  0  0  0  0  0  0  0
  -24.8535  -30.3619   24.3161 N   0  0  0  0  0  0  0  0  0  0  0  0
  -20.2803  -30.3675   19.2617 N   0  0  0  0  0  0  0  0  0  0  0  0
  -29.9417  -23.6202   15.1625 N   0  3  2  0  0  0  0  0  0  0  0  0
  -20.8487  -31.3698   15.8353 N   0  3  0  0  0  0  0  0  0  0  0  0
  -30.6512  -10.6671   18.2346 O   0  0  0  0  0  0  0  0  0  0  0  0
  -23.4601  -28.7617   23.3568 O   0  0  0  0  0  0  0  0  0  0  0  0
  -21.2638  -31.3722   21.7580 O   0  0  0  0  0  0  0  0  0  0  0  0
  -21.2986  -29.1831   17.5477 O   0  0  0  0  0  0  0  0  0  0  0  0
  -29.4676  -20.2491   20.0669 O   0  0  0  0  0  0  0  0  0  0  0  0
  -23.2330   -9.6774   20.3741 O   0  0  0  0  0  0  0  0  0  0  0  0
  -27.4752  -26.5293   18.6238 O   0  0  0  0  0  0  0  0  0  1  0  0
  -23.6392   -4.5041   22.2385 F   0  0  0  0  0  0  0  0  0  0  0  0
  -21.9605   -8.9054   22.7037 F   0  0  0  0  0  0  0  0  0  0  0  0
  -27.7232  -20.8722   15.1022 S   0  0  0  0  0  0  0  0  0  0  0  0
  1  2  1  0  0  0  0
  1  5  2  0  0  0  0
  2  6  2  0  0  0  0
  3  8  2  0  0  0  0
  3 17  1  0  0  0  0
  4  9  1  0  0  0  0
  4 17  2  0  0  0  0
  5 19  1  0  0  0  0
  6 21  1  0  0  0  0
  7 10  2  0  0  0  0
  7 20  1  0  0  0  0
  8 24  1  0  0  0  0
  9 24  2  0  0  0  0
 10 25  1  0  0  0  0
 11 12  2  0  0  0  0
 11 26  1  0  0  0  0
 12 27  1  0  0  0  0
 13 22  1  0  0  0  0
 13 25  2  0  0  0  0
 14 23  1  0  0  0  0
 14 30  2  0  0  0  0
 15 27  2  0  0  0  0
 15 28  1  0  0  0  0
 16 23  2  0  0  0  0
 16 84  1  0  0  0  0
 17 29  1  0  0  0  0
 18 29  1  0  0  0  0
 18 31  2  0  0  0  0
 18 32  1  0  0  0  0
 19 21  2  0  0  0  0
 19 37  1  0  0  0  0
 20 22  2  0  0  0  0
 20 38  1  0  0  0  0
 21 49  1  0  0  0  0
 22 39  1  0  0  0  0
 23 70  1  0  0  0  0
 24 80  1  0  0  0  0
 25 81  1  0  0  0  0
 26 28  2  0  0  0  0
 26 80  1  0  0  0  0
 27 82  1  0  0  0  0
 28 83  1  0  0  0  0
 29 64  2  0  0  0  0
 30 50  1  0  0  0  0
 30 84  1  0  0  0  0
 31 65  1  0  0  0  0
 31 68  1  0  0  0  0
 32 69  1  0  0  0  0
 32 75  2  0  0  0  0
 33 51  1  0  0  0  0
 33 71  1  0  0  0  0
 33 76  2  0  0  0  0
 34 61  1  0  0  0  0
 34 66  1  0  0  0  0
 34 77  2  0  0  0  0
 35 62  1  0  0  0  0
 35 72  1  0  0  0  0
 35 78  2  0  0  0  0
 36 67  1  0  0  0  0
 36 70  1  0  0  0  0
 36 79  2  0  0  0  0
 37 40  1  0  0  0  0
 38 51  1  0  0  0  0
 39 66  1  0  0  0  0
 40 42  1  0  0  0  0
 41 43  1  0  0  0  0
 41 46  1  0  0  0  0
 42 49  1  0  0  0  0
 43 53  1  0  0  0  0
 44 48  1  0  0  0  0
 44 52  1  0  0  0  0
 45 50  1  0  0  0  0
 45 52  1  0  0  0  0
 46 67  1  0  0  0  0
 47 53  1  0  0  0  0
 47 67  1  0  0  0  0
 48 73  1  0  0  0  0
 49 71  1  0  0  0  0
 50 73  1  0  0  0  0
 51 66  1  0  0  0  0
 52 60  1  0  0  0  0
 53 65  1  0  0  0  0
 54 62  1  0  0  0  0
 55 63  1  0  0  0  0
 56 63  1  0  0  0  0
 57 63  1  0  0  0  0
 58 73  1  0  0  0  0
 59 74  1  0  0  0  0
 60 81  1  0  0  0  0
 61 63  1  0  0  0  0
 61 72  1  0  0  0  0
 62 74  1  0  0  0  0
 64 65  1  0  0  0  0
M  CHG  2  73   1  74   1
M  ISO  4  36 100  60 101  70 100  81 101
M  END
> <Batch ID>
0148

> <Smiles>
CNC(C)C(=O)NC(C(=O)N1Cc2cc([101O:1][101CH2:1]C3CCN(C)C(c4cc([100NH:0][100C:0](=O)N5CCCC(n6nc(-c7ccc(Oc8ccc(F)cc8F)cc7)c(C(N)=O)c6N)C5)cs4)C3)ccc2CC1C(=O)NC1CCCc2ccccc21)C(C)(C)C

> <Shape>
0.286

> <Color>
0.085

> <Negative vol penalty>
0.000

$$$$

  -OEChem-04052303163D

 84 93  0     1  0  0  0  0  0999 V2000
  -20.0755  -26.7146   17.0711 C   0  0  0  0  0  0  0  0  0  0  0  0
  -21.1514  -26.2437   17.8168 C   0  0  0  0  0  0  0  0  0  0  0  0
  -32.4768  -18.5120   21.7616 C   0  0  0  0  0  0  0  0  0  0  0  0
  -23.1531   -9.8471   21.3601 C   0  0  0  0  0  0  0  0  0  0  0  0
  -23.8514  -10.7731   23.4796 C   0  0  0  0  0  0  0  0  0  0  0  0
  -19.8575  -28.0867   16.9537 C   0  0  0  0  0  0  0  0  0  0  0  0
  -22.0106  -27.1447   18.4447 C   0  0  0  0  0  0  0  0  0  0  0  0
  -31.6420  -19.5785   22.0951 C   0  0  0  0  0  0  0  0  0  0  0  0
  -23.1004  -25.7964   23.2028 C   0  0  0  0  0  0  0  0  0  0  0  0
  -31.9311  -17.3275   21.2668 C   0  0  0  0  0  0  0  0  0  0  0  0
  -22.4260   -8.8629   22.0297 C   0  0  0  0  0  0  0  0  0  0  0  0
  -23.1243   -9.7889   24.1491 C   0  0  0  0  0  0  0  0  0  0  0  0
  -24.0444  -24.7854   23.3777 C   0  0  0  0  0  0  0  0  0  0  0  0
  -19.4567   -8.6133   23.6277 C   0  0  0  0  0  0  0  0  0  0  0  0
  -18.1644   -8.3432   23.1777 C   0  0  0  0  0  0  0  0  0  0  0  0
  -29.7158  -18.2759   21.4391 C   0  0  0  0  0  0  0  0  0  0  0  0
  -25.7266  -26.4471   23.8554 C   0  0  0  0  0  0  0  0  0  0  0  0
  -18.7978   -6.0546   22.7325 C   0  0  0  0  0  0  0  0  0  0  0  0
  -23.8658  -10.8022   22.0851 C   0  0  0  0  0  0  0  0  0  0  0  0
  -24.1602  -13.0876   20.9906 C   0  0  0  0  0  0  0  0  0  0  0  0
  -30.2615  -19.4605   21.9339 C   0  0  0  0  0  0  0  0  0  0  0  0
  -20.7089  -29.0048   17.5884 C   0  0  0  0  0  0  0  0  0  0  0  0
  -23.4656  -27.1431   23.3423 C   0  0  0  0  0  0  0  0  0  0  0  0
  -21.8046  -28.5304   18.3345 C   0  0  0  0  0  0  0  0  0  0  0  0
  -24.7848  -27.4732   23.6842 C   0  0  0  0  0  0  0  0  0  0  0  0
  -30.5507  -17.2094   21.1055 C   0  0  0  0  0  0  0  0  0  0  0  0
  -22.4116   -8.8338   23.4242 C   0  0  0  0  0  0  0  0  0  0  0  0
  -25.3583  -25.1108   23.7013 C   0  0  0  0  0  0  0  0  0  0  0  0
  -20.4196   -7.6041   23.6300 C   0  0  0  0  0  0  0  0  0  0  0  0
  -17.8349   -7.0639   22.7301 C   0  0  0  0  0  0  0  0  0  0  0  0
  -20.0902   -6.3248   23.1824 C   0  0  0  0  0  0  0  0  0  0  0  0
  -24.6175  -11.8188   21.3940 C   0  0  0  0  0  0  0  0  0  0  0  0
  -25.2465  -13.6662   20.3809 C   0  0  0  0  0  0  0  0  0  0  0  0
  -28.9322  -23.0937   21.9117 C   0  0  0  0  0  0  0  0  0  0  0  0
  -28.3637  -23.2020   23.1250 C   0  0  0  0  0  0  0  0  0  0  0  0
  -22.8690  -13.6894   21.1526 C   0  0  0  0  0  0  0  0  0  0  0  0
  -23.5010  -29.6692   21.4133 C   0  0  0  0  0  0  0  0  0  0  0  0
  -24.3188  -31.2432   24.1291 C   0  0  0  0  0  0  0  0  0  0  0  0
  -25.6843  -31.1125   27.2541 C   0  0  0  0  0  0  0  0  0  0  0  0
  -30.6841  -14.8537   20.2228 C   0  0  0  0  0  0  0  0  0  0  0  0
  -20.4606  -30.4796   17.3937 C   0  0  0  0  0  0  0  0  0  0  0  0
  -22.4293  -28.2207   23.1766 C   0  0  0  0  0  0  0  0  0  0  0  0
  -25.2231  -28.9027   23.8654 C   0  0  0  0  0  0  0  0  0  0  0  0
  -29.6387  -21.8605   21.4270 C   0  0  0  0  0  0  0  0  0  0  0  0
  -28.4167  -22.0835   24.1357 C   0  0  0  0  0  0  0  0  0  0  0  0
  -21.1991  -31.3596   18.3990 C   0  0  0  0  0  0  0  0  0  0  0  0
  -29.4291  -20.9869   23.7873 C   0  0  0  0  0  0  0  0  0  0  0  0
  -29.6815  -11.6745   18.9720 C   0  0  0  0  0  0  0  0  0  0  0  0
  -22.6524  -30.9155   18.5308 C   0  0  0  0  0  0  0  0  0  0  0  0
  -28.2371  -11.5330   19.4574 C   0  0  0  0  0  0  0  0  0  0  0  0
  -30.5596  -12.3817   20.0028 C   0  0  0  0  0  0  0  0  0  0  0  0
  -28.6025  -13.5337   20.9576 C   0  0  0  0  0  0  0  0  0  0  0  0
  -29.3538  -20.6210   22.2968 C   0  0  2  0  0  0  0  0  0  0  0  0
  -22.7444  -29.4759   19.0508 C   0  0  1  0  0  0  0  0  0  0  0  0
  -23.0309  -29.5811   22.8377 C   0  0  1  0  0  0  0  0  0  0  0  0
  -27.6650  -12.8853   19.9259 C   0  0  2  0  0  0  0  0  0  0  0  0
  -26.2504  -32.5674   29.2188 C   0  0  0  0  0  0  0  0  0  0  0  0
  -26.7292  -32.3439   22.6165 C   0  0  0  0  0  0  0  0  0  0  0  0
  -27.7335  -32.9804   24.8198 C   0  0  0  0  0  0  0  0  0  0  0  0
  -25.5774  -34.0023   24.0921 C   0  0  0  0  0  0  0  0  0  0  0  0
  -23.8877  -29.5901   29.0467 C   0  0  0  0  0  0  0  0  0  0  0  0
  -27.6358  -24.4426   23.5513 C   0  0  0  0  0  0  0  0  0  1  0  0
  -25.6185  -31.5812   24.8188 C   0  0  1  0  0  0  0  0  0  0  0  0
  -25.2058  -31.6612   28.5862 C   0  0  2  0  0  0  0  0  0  0  0  0
  -26.4072  -32.7000   24.0815 C   0  0  0  0  0  0  0  0  0  0  0  0
  -25.8948  -11.6033   21.0679 N   0  0  0  0  0  0  0  0  0  0  0  0
  -26.2492  -12.7445   20.4530 N   0  0  0  0  0  0  0  0  0  0  0  0
  -24.1746  -29.9207   23.6866 N   0  0  0  0  0  0  0  0  0  0  0  0
  -29.9570  -13.6571   20.3965 N   0  0  0  0  0  0  0  0  0  0  0  0
  -25.4321  -14.8683   19.7953 N   0  0  0  0  0  0  0  0  0  0  0  0
  -21.8668  -12.9560   21.8023 N   0  0  0  0  0  0  0  0  0  0  0  0
  -29.9968  -16.0063   20.6022 N   0  0  0  0  0  0  0  0  0  0  0  0
  -22.5099  -29.4382   20.4784 N   0  0  0  0  0  0  0  0  0  0  0  0
  -25.2761  -31.9024   26.2001 N   0  0  0  0  0  0  0  0  0  0  0  0
  -24.9162  -30.5462   29.5316 N   0  3  0  0  0  0  0  0  0  0  0  0
  -22.6067  -14.8369   20.7190 O   0  0  0  0  0  0  0  0  0  0  0  0
  -24.6755  -29.9291   21.1797 O   0  0  0  0  0  0  0  0  0  0  0  0
  -23.4602  -32.1186   23.9946 O   0  0  0  0  0  0  0  0  0  0  0  0
  -26.3563  -30.0880   27.1584 O   0  0  0  0  0  0  0  0  0  0  0  0
  -31.8216  -14.8584   19.7453 O   0  0  0  0  0  0  0  0  0  0  0  0
  -21.7020   -7.8737   24.0778 O   0  0  0  0  0  0  0  0  0  0  0  0
  -26.2819  -24.1260   23.8720 O   0  0  0  0  0  0  0  0  0  1  0  0
  -16.5934   -6.8042   22.2995 F   0  0  0  0  0  0  0  0  0  0  0  0
  -21.0106   -5.3508   23.1834 F   0  0  0  0  0  0  0  0  0  0  0  0
  1  2  1  0  0  0  0
  1  6  2  0  0  0  0
  2  7  2  0  0  0  0
  3  8  2  0  0  0  0
  3 10  1  0  0  0  0
  4 11  2  0  0  0  0
  4 19  1  0  0  0  0
  5 12  1  0  0  0  0
  5 19  2  0  0  0  0
  6 22  1  0  0  0  0
  7 24  1  0  0  0  0
  8 21  1  0  0  0  0
  9 13  2  0  0  0  0
  9 23  1  0  0  0  0
 10 26  2  0  0  0  0
 11 27  1  0  0  0  0
 12 27  2  0  0  0  0
 13 28  1  0  0  0  0
 14 15  2  0  0  0  0
 14 29  1  0  0  0  0
 15 30  1  0  0  0  0
 16 21  2  0  0  0  0
 16 26  1  0  0  0  0
 17 25  1  0  0  0  0
 17 28  2  0  0  0  0
 18 30  2  0  0  0  0
 18 31  1  0  0  0  0
 19 32  1  0  0  0  0
 20 32  1  0  0  0  0
 20 33  2  0  0  0  0
 20 36  1  0  0  0  0
 21 53  1  0  0  0  0
 22 24  2  0  0  0  0
 22 41  1  0  0  0  0
 23 25  2  0  0  0  0
 23 42  1  0  0  0  0
 24 54  1  0  0  0  0
 25 43  1  0  0  0  0
 26 72  1  0  0  0  0
 27 81  1  0  0  0  0
 28 82  1  0  0  0  0
 29 31  2  0  0  0  0
 29 81  1  0  0  0  0
 30 83  1  0  0  0  0
 31 84  1  0  0  0  0
 32 66  2  0  0  0  0
 33 67  1  0  0  0  0
 33 70  1  0  0  0  0
 34 35  2  0  0  0  0
 34 44  1  0  0  0  0
 35 45  1  0  0  0  0
 35 62  1  0  0  0  0
 36 71  1  0  0  0  0
 36 76  2  0  0  0  0
 37 55  1  0  0  0  0
 37 73  1  0  0  0  0
 37 77  2  0  0  0  0
 38 63  1  0  0  0  0
 38 68  1  0  0  0  0
 38 78  2  0  0  0  0
 39 64  1  0  0  0  0
 39 74  1  0  0  0  0
 39 79  2  0  0  0  0
 40 69  1  0  0  0  0
 40 72  1  0  0  0  0
 40 80  2  0  0  0  0
 41 46  1  0  0  0  0
 42 55  1  0  0  0  0
 43 68  1  0  0  0  0
 44 53  1  0  0  0  0
 45 47  1  0  0  0  0
 46 49  1  0  0  0  0
 47 53  1  0  0  0  0
 48 50  1  0  0  0  0
 48 51  1  0  0  0  0
 49 54  1  0  0  0  0
 50 56  1  0  0  0  0
 51 69  1  0  0  0  0
 52 56  1  0  0  0  0
 52 69  1  0  0  0  0
 54 73  1  0  0  0  0
 55 68  1  0  0  0  0
 56 67  1  0  0  0  0
 57 64  1  0  0  0  0
 58 65  1  0  0  0  0
 59 65  1  0  0  0  0
 60 65  1  0  0  0  0
 61 75  1  0  0  0  0
 62 82  1  0  0  0  0
 63 65  1  0  0  0  0
 63 74  1  0  0  0  0
 64 75  1  0  0  0  0
 66 67  1  0  0  0  0
M  CHG  1  75   1
M  ISO  4  40 100  62 101  72 100  82 101
M  END
> <Batch ID>
0148

> <Smiles>
CNC(C)C(=O)NC(C(=O)N1Cc2cc([101O:1][101CH2:1]C3=CCC(c4cccc([100NH:0][100C:0](=O)N5CCCC(n6nc(-c7ccc(Oc8ccc(F)cc8F)cc7)c(C(N)=O)c6N)C5)c4)CC3)ccc2CC1C(=O)NC1CCCc2ccccc21)C(C)(C)C

> <Shape>
0.260

> <Color>
0.159

> <Negative vol penalty>
0.000

$$$$

  -OEChem-04052303163D

 88 97  0     1  0  0  0  0  0999 V2000
  -17.2241  -22.6192   27.3034 C   0  0  0  0  0  0  0  0  0  0  0  0
  -18.6035  -22.4806   27.1884 C   0  0  0  0  0  0  0  0  0  0  0  0
  -32.1491  -18.5997   22.2934 C   0  0  0  0  0  0  0  0  0  0  0  0
  -23.2485   -9.8497   21.4233 C   0  0  0  0  0  0  0  0  0  0  0  0
  -23.9285  -10.8138   23.5316 C   0  0  0  0  0  0  0  0  0  0  0  0
  -16.5277  -23.4229   26.4018 C   0  0  0  0  0  0  0  0  0  0  0  0
  -19.2874  -23.1450   26.1709 C   0  0  0  0  0  0  0  0  0  0  0  0
  -24.9274  -25.5139   26.4631 C   0  0  0  0  0  0  0  0  0  0  0  0
  -31.6202  -17.4062   21.8021 C   0  0  0  0  0  0  0  0  0  0  0  0
  -31.4887  -19.8052   22.0558 C   0  0  0  0  0  0  0  0  0  0  0  0
  -22.5526   -8.8510   22.1044 C   0  0  0  0  0  0  0  0  0  0  0  0
  -23.2326   -9.8152   24.2128 C   0  0  0  0  0  0  0  0  0  0  0  0
  -26.1682  -25.0363   26.0438 C   0  0  0  0  0  0  0  0  0  0  0  0
  -19.5981   -8.5307   23.7173 C   0  0  0  0  0  0  0  0  0  0  0  0
  -18.3122   -8.2197   23.2751 C   0  0  0  0  0  0  0  0  0  0  0  0
  -25.9476  -26.2832   23.9906 C   0  0  0  0  0  0  0  0  0  0  0  0
  -19.0091   -5.9464   22.8470 C   0  0  0  0  0  0  0  0  0  0  0  0
  -23.9365  -10.8311   22.1368 C   0  0  0  0  0  0  0  0  0  0  0  0
  -24.1609  -13.1143   21.0213 C   0  0  0  0  0  0  0  0  0  0  0  0
  -17.2047  -24.1052   25.3786 C   0  0  0  0  0  0  0  0  0  0  0  0
  -24.1811  -26.3726   25.6433 C   0  0  0  0  0  0  0  0  0  0  0  0
  -18.5993  -23.9576   25.2539 C   0  0  0  0  0  0  0  0  0  0  0  0
  -24.6987  -26.7724   24.4030 C   0  0  0  0  0  0  0  0  0  0  0  0
  -29.7707  -18.6236   20.8355 C   0  0  0  0  0  0  0  0  0  0  0  0
  -30.4311  -17.4181   21.0731 C   0  0  0  0  0  0  0  0  0  0  0  0
  -30.2996  -19.8171   21.3268 C   0  0  0  0  0  0  0  0  0  0  0  0
  -22.5446   -8.8337   23.4991 C   0  0  0  0  0  0  0  0  0  0  0  0
  -26.6772  -25.4186   24.8061 C   0  0  0  0  0  0  0  0  0  0  0  0
  -20.5895   -7.5495   23.7242 C   0  0  0  0  0  0  0  0  0  0  0  0
  -18.0177   -6.9276   22.8401 C   0  0  0  0  0  0  0  0  0  0  0  0
  -20.2950   -6.2573   23.2891 C   0  0  0  0  0  0  0  0  0  0  0  0
  -24.6560  -11.8626   21.4338 C   0  0  0  0  0  0  0  0  0  0  0  0
  -25.2276  -13.7183   20.4019 C   0  0  0  0  0  0  0  0  0  0  0  0
  -22.8536  -13.6803   21.1836 C   0  0  0  0  0  0  0  0  0  0  0  0
  -21.3390  -26.2150   24.2285 C   0  0  0  0  0  0  0  0  0  0  0  0
  -29.0707  -23.6875   22.7001 C   0  0  0  0  0  0  0  0  0  0  0  0
  -21.9872  -29.2979   23.4554 C   0  0  0  0  0  0  0  0  0  0  0  0
  -24.3312  -31.7234   22.9364 C   0  0  0  0  0  0  0  0  0  0  0  0
  -30.6283  -15.0595   20.2103 C   0  0  0  0  0  0  0  0  0  0  0  0
  -16.4030  -24.9250   24.3989 C   0  0  0  0  0  0  0  0  0  0  0  0
  -22.8563  -26.9003   26.1217 C   0  0  0  0  0  0  0  0  0  0  0  0
  -23.9461  -27.7084   23.4941 C   0  0  0  0  0  0  0  0  0  0  0  0
  -17.2507  -25.8931   23.5776 C   0  0  0  0  0  0  0  0  0  0  0  0
  -27.4123  -18.7796   18.1216 C   0  0  0  0  0  0  0  0  0  0  0  0
  -29.7122  -11.8420   18.9914 C   0  0  0  0  0  0  0  0  0  0  0  0
  -28.1662  -19.7978   18.9980 C   0  0  0  0  0  0  0  0  0  0  0  0
  -28.2823  -17.6895   18.7765 C   0  0  0  0  0  0  0  0  0  0  0  0
  -18.4913  -25.1895   23.0366 C   0  0  0  0  0  0  0  0  0  0  0  0
  -28.2744  -11.6635   19.4843 C   0  0  0  0  0  0  0  0  0  0  0  0
  -30.5738  -12.5830   20.0124 C   0  0  0  0  0  0  0  0  0  0  0  0
  -28.5883  -13.6870   20.9655 C   0  0  0  0  0  0  0  0  0  0  0  0
  -28.4212  -18.6369   20.0064 C   0  0  0  0  0  0  0  0  0  0  0  0
  -19.3799  -24.6820   24.1786 C   0  0  1  0  0  0  0  0  0  0  0  0
  -21.9505  -27.3609   24.9839 C   0  0  1  0  0  0  0  0  0  0  0  0
  -27.6657  -13.0030   19.9435 C   0  0  2  0  0  0  0  0  0  0  0  0
  -24.5590  -34.1341   22.2776 C   0  0  0  0  0  0  0  0  0  0  0  0
  -30.9800  -22.3879   19.6017 C   0  0  0  0  0  0  0  0  0  0  0  0
  -21.4410  -28.5524   20.5475 C   0  0  0  0  0  0  0  0  0  0  0  0
  -22.5818  -30.6730   19.8623 C   0  0  0  0  0  0  0  0  0  0  0  0
  -20.5107  -30.7651   21.2496 C   0  0  0  0  0  0  0  0  0  0  0  0
  -25.6007  -32.4285   25.5152 C   0  0  0  0  0  0  0  0  0  0  0  0
  -29.3682  -23.4372   21.2274 C   0  0  0  0  0  0  0  0  0  0  0  0
  -28.0801  -24.7987   22.9885 C   0  0  0  0  0  0  0  0  0  1  0  0
  -22.6743  -29.9892   22.3026 C   0  0  1  0  0  0  0  0  0  0  0  0
  -24.4269  -33.1545   23.4334 C   0  0  2  0  0  0  0  0  0  0  0  0
  -30.3523  -22.2886   20.9885 C   0  0  1  0  0  0  0  0  0  0  0  0
  -21.8155  -29.9757   21.0065 C   0  0  0  0  0  0  0  0  0  0  0  0
  -25.9375  -11.6810   21.1041 N   0  0  0  0  0  0  0  0  0  0  0  0
  -26.2567  -12.8264   20.4778 N   0  0  0  0  0  0  0  0  0  0  0  0
  -22.6524  -28.1922   24.0038 N   0  0  0  0  0  0  0  0  0  0  0  0
  -29.9365  -13.8441   20.3975 N   0  0  0  0  0  0  0  0  0  0  0  0
  -25.3764  -14.9201   19.8052 N   0  0  0  0  0  0  0  0  0  0  0  0
  -21.8755  -12.9243   21.8440 N   0  0  0  0  0  0  0  0  0  0  0  0
  -29.9099  -16.1952   20.5826 N   0  0  0  0  0  0  0  0  0  0  0  0
  -29.6586  -21.0210   21.0997 N   0  0  0  0  0  0  0  0  0  0  0  0
  -20.1388  -25.7730   24.7515 N   0  0  0  0  0  0  0  0  0  0  0  0
  -23.0210  -31.3250   22.7758 N   0  0  0  0  0  0  0  0  0  0  0  0
  -25.6112  -33.3156   24.3236 N   0  3  0  0  0  0  0  0  0  0  0  0
  -22.5569  -14.8160   20.7412 O   0  0  0  0  0  0  0  0  0  0  0  0
  -21.9129  -25.7660   23.2432 O   0  0  0  0  0  0  0  0  0  0  0  0
  -29.6034  -23.0456   23.6038 O   0  0  0  0  0  0  0  0  0  0  0  0
  -20.9037  -29.7276   23.8592 O   0  0  0  0  0  0  0  0  0  0  0  0
  -25.3200  -31.0295   22.7095 O   0  0  0  0  0  0  0  0  0  0  0  0
  -31.7633  -15.0925   19.7280 O   0  0  0  0  0  0  0  0  0  0  0  0
  -21.8655   -7.8595   24.1641 O   0  0  0  0  0  0  0  0  0  0  0  0
  -27.8878  -24.9533   24.3941 O   0  0  0  0  0  0  0  0  0  1  0  0
  -16.7825   -6.6288   22.4170 F   0  0  0  0  0  0  0  0  0  0  0  0
  -21.2430   -5.3102   23.2946 F   0  0  0  0  0  0  0  0  0  0  0  0
  1  2  1  0  0  0  0
  1  6  2  0  0  0  0
  2  7  2  0  0  0  0
  3  9  1  0  0  0  0
  3 10  2  0  0  0  0
  4 11  2  0  0  0  0
  4 18  1  0  0  0  0
  5 12  1  0  0  0  0
  5 18  2  0  0  0  0
  6 20  1  0  0  0  0
  7 22  1  0  0  0  0
  8 13  2  0  0  0  0
  8 21  1  0  0  0  0
  9 25  2  0  0  0  0
 10 26  1  0  0  0  0
 11 27  1  0  0  0  0
 12 27  2  0  0  0  0
 13 28  1  0  0  0  0
 14 15  2  0  0  0  0
 14 29  1  0  0  0  0
 15 30  1  0  0  0  0
 16 23  1  0  0  0  0
 16 28  2  0  0  0  0
 17 30  2  0  0  0  0
 17 31  1  0  0  0  0
 18 32  1  0  0  0  0
 19 32  1  0  0  0  0
 19 33  2  0  0  0  0
 19 34  1  0  0  0  0
 20 22  2  0  0  0  0
 20 40  1  0  0  0  0
 21 23  2  0  0  0  0
 21 41  1  0  0  0  0
 22 53  1  0  0  0  0
 23 42  1  0  0  0  0
 24 25  1  0  0  0  0
 24 26  2  0  0  0  0
 24 52  1  0  0  0  0
 25 74  1  0  0  0  0
 26 75  1  0  0  0  0
 27 85  1  0  0  0  0
 28 86  1  0  0  0  0
 29 31  2  0  0  0  0
 29 85  1  0  0  0  0
 30 87  1  0  0  0  0
 31 88  1  0  0  0  0
 32 68  2  0  0  0  0
 33 69  1  0  0  0  0
 33 72  1  0  0  0  0
 34 73  1  0  0  0  0
 34 79  2  0  0  0  0
 35 54  1  0  0  0  0
 35 76  1  0  0  0  0
 35 80  2  0  0  0  0
 36 62  1  0  0  0  0
 36 63  1  0  0  0  0
 36 81  2  0  0  0  0
 37 64  1  0  0  0  0
 37 70  1  0  0  0  0
 37 82  2  0  0  0  0
 38 65  1  0  0  0  0
 38 77  1  0  0  0  0
 38 83  2  0  0  0  0
 39 71  1  0  0  0  0
 39 74  1  0  0  0  0
 39 84  2  0  0  0  0
 40 43  1  0  0  0  0
 41 54  1  0  0  0  0
 42 70  1  0  0  0  0
 43 48  1  0  0  0  0
 44 46  1  0  0  0  0
 44 47  1  0  0  0  0
 45 49  1  0  0  0  0
 45 50  1  0  0  0  0
 46 52  1  0  0  0  0
 47 52  1  0  0  0  0
 48 53  1  0  0  0  0
 49 55  1  0  0  0  0
 50 71  1  0  0  0  0
 51 55  1  0  0  0  0
 51 71  1  0  0  0  0
 53 76  1  0  0  0  0
 54 70  1  0  0  0  0
 55 69  1  0  0  0  0
 56 65  1  0  0  0  0
 57 66  1  0  0  0  0
 58 67  1  0  0  0  0
 59 67  1  0  0  0  0
 60 67  1  0  0  0  0
 61 78  1  0  0  0  0
 62 66  1  0  0  0  0
 63 86  1  0  0  0  0
 64 67  1  0  0  0  0
 64 77  1  0  0  0  0
 65 78  1  0  0  0  0
 66 75  1  0  0  0  0
 68 69  1  0  0  0  0
M  CHG  1  78   1
M  ISO  4  39 100  63 101  74 100  86 101
M  END
> <Batch ID>
0148

> <Smiles>
CNC(C)C(=O)NC(C(=O)N1Cc2cc([101O:1][101CH2:1]C(=O)CC(C)Nc3cccc([100NH:0][100C:0](=O)N4CCCC(n5nc(-c6ccc(Oc7ccc(F)cc7F)cc6)c(C(N)=O)c5N)C4)c3C3CCC3)ccc2CC1C(=O)NC1CCCc2ccccc21)C(C)(C)C

> <Shape>
0.275

> <Color>
0.145

> <Negative vol penalty>
0.000

$$$$

  -OEChem-04052303163D

 89 98  0     1  0  0  0  0  0999 V2000
  -35.7434  -29.0779   17.1622 C   0  0  0  0  0  0  0  0  0  0  0  0
  -35.6936  -28.0821   18.1324 C   0  0  0  0  0  0  0  0  0  0  0  0
  -23.2000   -9.8285   20.0326 C   0  0  0  0  0  0  0  0  0  0  0  0
  -23.6857  -10.0470   22.3891 C   0  0  0  0  0  0  0  0  0  0  0  0
  -34.5610  -29.5983   16.6377 C   0  0  0  0  0  0  0  0  0  0  0  0
  -34.4613  -27.6069   18.5796 C   0  0  0  0  0  0  0  0  0  0  0  0
  -34.3303  -22.5551   18.9080 C   0  0  0  0  0  0  0  0  0  0  0  0
  -22.4198   -8.7031   20.2976 C   0  0  0  0  0  0  0  0  0  0  0  0
  -22.9054   -8.9216   22.6543 C   0  0  0  0  0  0  0  0  0  0  0  0
  -34.9480  -21.9728   20.0139 C   0  0  0  0  0  0  0  0  0  0  0  0
  -19.6206   -8.1818   22.9428 C   0  0  0  0  0  0  0  0  0  0  0  0
  -18.7312   -8.2498   24.0151 C   0  0  0  0  0  0  0  0  0  0  0  0
  -33.4272  -16.4498   19.2118 C   0  0  0  0  0  0  0  0  0  0  0  0
  -32.7974  -21.7284   21.0789 C   0  0  0  0  0  0  0  0  0  0  0  0
  -33.9065  -18.5629   18.1480 C   0  0  0  0  0  0  0  0  0  0  0  0
  -19.8570   -6.3887   25.0669 C   0  0  0  0  0  0  0  0  0  0  0  0
  -23.8331  -10.5004   21.0783 C   0  0  0  0  0  0  0  0  0  0  0  0
  -24.2133  -13.0039   20.7688 C   0  0  0  0  0  0  0  0  0  0  0  0
  -33.3136  -29.1224   17.0717 C   0  0  0  0  0  0  0  0  0  0  0  0
  -32.9403  -22.7388   18.8838 C   0  0  0  0  0  0  0  0  0  0  0  0
  -33.2611  -28.1223   18.0614 C   0  0  0  0  0  0  0  0  0  0  0  0
  -32.7090  -16.0290   18.0832 C   0  0  0  0  0  0  0  0  0  0  0  0
  -32.1642  -22.3110   19.9705 C   0  0  0  0  0  0  0  0  0  0  0  0
  -32.6117  -16.8825   16.9679 C   0  0  0  0  0  0  0  0  0  0  0  0
  -33.2027  -18.1527   17.0161 C   0  0  0  0  0  0  0  0  0  0  0  0
  -34.0213  -17.7111   19.2435 C   0  0  0  0  0  0  0  0  0  0  0  0
  -22.2725   -8.2496   21.6085 C   0  0  0  0  0  0  0  0  0  0  0  0
  -34.1819  -21.5619   21.1008 C   0  0  0  0  0  0  0  0  0  0  0  0
  -20.6282   -7.2173   22.9325 C   0  0  0  0  0  0  0  0  0  0  0  0
  -18.8494   -7.3532   25.0772 C   0  0  0  0  0  0  0  0  0  0  0  0
  -20.7464   -6.3208   23.9945 C   0  0  0  0  0  0  0  0  0  0  0  0
  -24.6396  -11.6627   20.8051 C   0  0  0  0  0  0  0  0  0  0  0  0
  -25.3485  -13.7170   20.4696 C   0  0  0  0  0  0  0  0  0  0  0  0
  -22.9080  -13.5558   20.9862 C   0  0  0  0  0  0  0  0  0  0  0  0
  -31.0137  -25.2605   18.7036 C   0  0  0  0  0  0  0  0  0  0  0  0
  -28.7052  -22.9920   18.4873 C   0  0  0  0  0  0  0  0  0  0  0  0
  -34.9483  -17.4103   21.5623 C   0  0  0  0  0  0  0  0  0  0  0  0
  -27.1894  -19.8488   19.4037 C   0  0  0  0  0  0  0  0  0  0  0  0
  -29.8185  -14.0830   17.0865 C   0  0  0  0  0  0  0  0  0  0  0  0
  -32.0621  -29.7489   16.5097 C   0  0  0  0  0  0  0  0  0  0  0  0
  -32.2864  -23.3442   17.6721 C   0  0  0  0  0  0  0  0  0  0  0  0
  -31.8347  -16.4695   15.7429 C   0  0  0  0  0  0  0  0  0  0  0  0
  -32.0873  -14.6499   18.0783 C   0  0  0  0  0  0  0  0  0  0  0  0
  -30.6663  -22.4672   19.9853 C   0  0  0  0  0  0  0  0  0  0  0  0
  -30.8016  -28.9268   16.7658 C   0  0  0  0  0  0  0  0  0  0  0  0
  -30.1975  -12.3171   20.3586 C   0  0  0  0  0  0  0  0  0  0  0  0
  -30.7506  -28.4665   18.2192 C   0  0  0  0  0  0  0  0  0  0  0  0
  -28.7363  -12.0485   20.7163 C   0  0  0  0  0  0  0  0  0  0  0  0
  -31.6488  -14.9575   15.6698 C   0  0  0  0  0  0  0  0  0  0  0  0
  -30.3956  -12.3674   18.8484 C   0  0  0  0  0  0  0  0  0  0  0  0
  -28.0570  -13.0960   18.5082 C   0  0  0  0  0  0  0  0  0  0  0  0
  -31.9438  -27.5634   18.5540 C   0  0  1  0  0  0  0  0  0  0  0  0
  -30.9194  -23.9517   17.9717 C   0  0  1  0  0  0  0  0  0  0  0  0
  -27.8054  -13.0593   20.0249 C   0  0  1  0  0  0  0  0  0  0  0  0
  -33.0954  -19.1093   15.8717 C   0  0  0  0  0  0  0  0  0  0  0  0
  -25.1311  -18.7127   18.5262 C   0  0  0  0  0  0  0  0  0  0  0  0
  -27.3000  -24.3782   20.8140 C   0  0  0  0  0  0  0  0  0  0  0  0
  -25.9200  -22.3119   21.1207 C   0  0  0  0  0  0  0  0  0  0  0  0
  -25.7767  -23.6004   18.9895 C   0  0  0  0  0  0  0  0  0  0  0  0
  -34.0646  -17.9907   24.3799 C   0  0  0  0  0  0  0  0  0  0  0  0
  -35.8452  -19.7247   24.6125 C   0  0  0  0  0  0  0  0  0  0  0  0
  -28.6869  -17.3790   18.7579 C   0  0  0  0  0  0  0  0  0  0  0  0
  -35.7737  -18.1952   22.5740 C   0  0  0  0  0  0  0  0  0  0  0  0
  -34.0229  -20.0397   22.9211 C   0  0  0  0  0  0  0  0  0  1  0  0
  -27.8503  -22.2388   19.4776 C   0  0  1  0  0  0  0  0  0  0  0  0
  -26.6483  -18.7910   18.4588 C   0  0  2  0  0  0  0  0  0  0  0  0
  -26.7402  -23.1310   20.1013 C   0  0  0  0  0  0  0  0  0  0  0  0
  -34.9383  -18.9993   23.6029 C   0  0  0  0  0  0  0  0  0  0  0  0
  -25.9437  -11.5290   20.5492 N   0  0  0  0  0  0  0  0  0  0  0  0
  -26.3467  -12.7954   20.3492 N   0  0  0  0  0  0  0  0  0  0  0  0
  -30.0741  -23.0705   18.7799 N   0  0  0  0  0  0  0  0  0  0  0  0
  -31.1672  -14.4457   16.9503 N   0  0  0  0  0  0  0  0  0  0  0  0
  -29.4741  -13.3180   18.2125 N   0  0  0  0  0  0  0  0  0  0  0  0
  -25.5801  -15.0361   20.3003 N   0  0  0  0  0  0  0  0  0  0  0  0
  -21.8540  -12.6813   21.2837 N   0  0  0  0  0  0  0  0  0  0  0  0
  -34.7288  -18.1200   20.3745 N   0  0  0  0  0  0  0  0  0  0  0  0
  -31.7316  -26.2309   18.0309 N   0  0  0  0  0  0  0  0  0  0  0  0
  -27.3475  -21.0646   18.7728 N   0  0  0  0  0  0  0  0  0  0  0  0
  -27.2039  -17.4526   18.8067 N   0  3  0  0  0  0  0  0  0  0  0  0
  -22.6797  -14.7864   20.9024 O   0  0  0  0  0  0  0  0  0  0  0  0
  -30.4737  -25.3816   19.7970 O   0  0  0  0  0  0  0  0  0  0  0  0
  -28.1789  -23.4862   17.4870 O   0  0  0  0  0  0  0  0  0  0  0  0
  -34.5460  -16.2817   21.8313 O   0  0  0  0  0  0  0  0  0  0  0  0
  -27.4427  -19.6203   20.5845 O   0  0  0  0  0  0  0  0  0  0  0  0
  -28.9677  -14.4326   16.2586 O   0  0  0  0  0  0  0  0  0  0  0  0
  -21.5110   -7.1516   21.8676 O   0  0  0  0  0  0  0  0  0  0  0  0
  -34.7866  -20.9898   22.1894 O   0  0  0  0  0  0  0  0  0  1  0  0
  -17.9961   -7.4196   26.1076 F   0  0  0  0  0  0  0  0  0  0  0  0
  -21.7132   -5.3927   23.9908 F   0  0  0  0  0  0  0  0  0  0  0  0
  1  2  1  0  0  0  0
  1  5  2  0  0  0  0
  2  6  2  0  0  0  0
  3  8  2  0  0  0  0
  3 17  1  0  0  0  0
  4  9  1  0  0  0  0
  4 17  2  0  0  0  0
  5 19  1  0  0  0  0
  6 21  1  0  0  0  0
  7 10  2  0  0  0  0
  7 20  1  0  0  0  0
  8 27  1  0  0  0  0
  9 27  2  0  0  0  0
 10 28  1  0  0  0  0
 11 12  2  0  0  0  0
 11 29  1  0  0  0  0
 12 30  1  0  0  0  0
 13 22  1  0  0  0  0
 13 26  2  0  0  0  0
 14 23  1  0  0  0  0
 14 28  2  0  0  0  0
 15 25  2  0  0  0  0
 15 26  1  0  0  0  0
 16 30  2  0  0  0  0
 16 31  1  0  0  0  0
 17 32  1  0  0  0  0
 18 32  1  0  0  0  0
 18 33  2  0  0  0  0
 18 34  1  0  0  0  0
 19 21  2  0  0  0  0
 19 40  1  0  0  0  0
 20 23  2  0  0  0  0
 20 41  1  0  0  0  0
 21 52  1  0  0  0  0
 22 24  2  0  0  0  0
 22 43  1  0  0  0  0
 23 44  1  0  0  0  0
 24 25  1  0  0  0  0
 24 42  1  0  0  0  0
 25 55  1  0  0  0  0
 26 76  1  0  0  0  0
 27 86  1  0  0  0  0
 28 87  1  0  0  0  0
 29 31  2  0  0  0  0
 29 86  1  0  0  0  0
 30 88  1  0  0  0  0
 31 89  1  0  0  0  0
 32 69  2  0  0  0  0
 33 70  1  0  0  0  0
 33 74  1  0  0  0  0
 34 75  1  0  0  0  0
 34 80  2  0  0  0  0
 35 53  1  0  0  0  0
 35 77  1  0  0  0  0
 35 81  2  0  0  0  0
 36 65  1  0  0  0  0
 36 71  1  0  0  0  0
 36 82  2  0  0  0  0
 37 63  1  0  0  0  0
 37 76  1  0  0  0  0
 37 83  2  0  0  0  0
 38 66  1  0  0  0  0
 38 78  1  0  0  0  0
 38 84  2  0  0  0  0
 39 72  1  0  0  0  0
 39 73  1  0  0  0  0
 39 85  2  0  0  0  0
 40 45  1  0  0  0  0
 41 53  1  0  0  0  0
 42 49  1  0  0  0  0
 43 72  1  0  0  0  0
 44 71  1  0  0  0  0
 45 47  1  0  0  0  0
 46 48  1  0  0  0  0
 46 50  1  0  0  0  0
 47 52  1  0  0  0  0
 48 54  1  0  0  0  0
 49 72  1  0  0  0  0
 50 73  1  0  0  0  0
 51 54  1  0  0  0  0
 51 73  1  0  0  0  0
 52 77  1  0  0  0  0
 53 71  1  0  0  0  0
 54 70  1  0  0  0  0
 56 66  1  0  0  0  0
 57 67  1  0  0  0  0
 58 67  1  0  0  0  0
 59 67  1  0  0  0  0
 60 68  1  0  0  0  0
 61 68  1  0  0  0  0
 62 79  1  0  0  0  0
 63 68  1  0  0  0  0
 64 68  1  0  0  0  0
 64 87  1  0  0  0  0
 65 67  1  0  0  0  0
 65 78  1  0  0  0  0
 66 79  1  0  0  0  0
 69 70  1  0  0  0  0
M  CHG  1  79   1
M  ISO  4  39 100  64 101  72 100  87 101
M  END
> <Batch ID>
0148

> <Smiles>
CNC(C)C(=O)NC(C(=O)N1Cc2cc([101O:1][101CH2:1]C(C)(C)CC(=O)Nc3cc(C)c4c(c3)C[100N:0]([100C:0](=O)N3CCCC(n5nc(-c6ccc(Oc7ccc(F)cc7F)cc6)c(C(N)=O)c5N)C3)CC4)ccc2CC1C(=O)NC1CCCc2ccccc21)C(C)(C)C

> <Shape>
0.202

> <Color>
0.182

> <Negative vol penalty>
0.000

$$$$

  -OEChem-04052303163D

 86 95  0     1  0  0  0  0  0999 V2000
  -26.0702  -36.1282   18.6489 C   0  0  0  0  0  0  0  0  0  0  0  0
  -26.6917  -34.9353   19.0043 C   0  0  0  0  0  0  0  0  0  0  0  0
  -23.2838  -10.9189   23.0527 C   0  0  0  0  0  0  0  0  0  0  0  0
  -22.5976  -13.1833   22.5638 C   0  0  0  0  0  0  0  0  0  0  0  0
  -24.9329  -36.5517   19.3352 C   0  0  0  0  0  0  0  0  0  0  0  0
  -26.1768  -34.1658   20.0470 C   0  0  0  0  0  0  0  0  0  0  0  0
  -25.9808  -29.2351   18.9095 C   0  0  0  0  0  0  0  0  0  0  0  0
  -22.2386  -10.7999   23.9687 C   0  0  0  0  0  0  0  0  0  0  0  0
  -21.5524  -13.0643   23.4798 C   0  0  0  0  0  0  0  0  0  0  0  0
  -27.1742  -28.5176   18.9790 C   0  0  0  0  0  0  0  0  0  0  0  0
  -18.9035  -10.2492   23.8849 C   0  0  0  0  0  0  0  0  0  0  0  0
  -18.1421   -9.0811   23.8514 C   0  0  0  0  0  0  0  0  0  0  0  0
  -26.5292  -27.6659   21.1418 C   0  0  0  0  0  0  0  0  0  0  0  0
  -26.0276  -21.6005   18.4931 C   0  0  0  0  0  0  0  0  0  0  0  0
  -25.6735  -19.2115   18.4292 C   0  0  0  0  0  0  0  0  0  0  0  0
  -27.6900  -20.1079   19.4126 C   0  0  0  0  0  0  0  0  0  0  0  0
  -18.7690   -8.6069   26.1360 C   0  0  0  0  0  0  0  0  0  0  0  0
  -23.4633  -12.1106   22.3503 C   0  0  0  0  0  0  0  0  0  0  0  0
  -24.7588  -11.4529   20.2535 C   0  0  0  0  0  0  0  0  0  0  0  0
  -24.3981  -35.7822   20.3805 C   0  0  0  0  0  0  0  0  0  0  0  0
  -25.0560  -29.1818   19.9622 C   0  0  0  0  0  0  0  0  0  0  0  0
  -25.0320  -34.5802   20.7488 C   0  0  0  0  0  0  0  0  0  0  0  0
  -25.3237  -28.3816   21.0821 C   0  0  0  0  0  0  0  0  0  0  0  0
  -25.2374  -20.5053   18.1440 C   0  0  0  0  0  0  0  0  0  0  0  0
  -27.2539  -21.4018   19.1274 C   0  0  0  0  0  0  0  0  0  0  0  0
  -26.8998  -19.0127   19.0635 C   0  0  0  0  0  0  0  0  0  0  0  0
  -21.3729  -11.8726   24.1822 C   0  0  0  0  0  0  0  0  0  0  0  0
  -27.4499  -27.7352   20.0965 C   0  0  0  0  0  0  0  0  0  0  0  0
  -19.5978  -10.5962   25.0439 C   0  0  0  0  0  0  0  0  0  0  0  0
  -18.0748   -8.2599   24.9769 C   0  0  0  0  0  0  0  0  0  0  0  0
  -19.5305   -9.7751   26.1694 C   0  0  0  0  0  0  0  0  0  0  0  0
  -24.5431  -12.2344   21.4044 C   0  0  0  0  0  0  0  0  0  0  0  0
  -25.9073  -11.9649   19.7010 C   0  0  0  0  0  0  0  0  0  0  0  0
  -23.9897  -10.3617   19.7305 C   0  0  0  0  0  0  0  0  0  0  0  0
  -23.8237  -31.3108   21.9753 C   0  0  0  0  0  0  0  0  0  0  0  0
  -21.9756  -28.8040   22.8822 C   0  0  0  0  0  0  0  0  0  0  0  0
  -22.4374  -25.2792   23.4989 C   0  0  0  0  0  0  0  0  0  0  0  0
  -28.5322  -17.3258   19.9778 C   0  0  0  0  0  0  0  0  0  0  0  0
  -23.1945  -36.3046   21.1243 C   0  0  0  0  0  0  0  0  0  0  0  0
  -23.7612  -29.9405   19.8601 C   0  0  0  0  0  0  0  0  0  0  0  0
  -24.3546  -28.2744   22.2301 C   0  0  0  0  0  0  0  0  0  0  0  0
  -22.4941  -35.2445   21.9703 C   0  0  0  0  0  0  0  0  0  0  0  0
  -29.9672  -14.2018   20.9045 C   0  0  0  0  0  0  0  0  0  0  0  0
  -23.5130  -34.4477   22.7788 C   0  0  0  0  0  0  0  0  0  0  0  0
  -28.7593  -13.2701   21.0271 C   0  0  0  0  0  0  0  0  0  0  0  0
  -29.6379  -23.5086   21.0756 C   0  0  0  0  0  0  0  0  0  0  0  0
  -29.2722  -24.5414   18.8243 C   0  0  0  0  0  0  0  0  0  0  0  0
  -29.6465  -15.6134   21.3925 C   0  0  0  0  0  0  0  0  0  0  0  0
  -28.3661  -22.6780   20.9000 C   0  0  0  0  0  0  0  0  0  0  0  0
  -28.0001  -23.7104   18.6495 C   0  0  0  0  0  0  0  0  0  0  0  0
  -27.2529  -15.2956   20.9038 C   0  0  0  0  0  0  0  0  0  0  0  0
  -24.4891  -33.7055   21.8580 C   0  0  1  0  0  0  0  0  0  0  0  0
  -23.1231  -30.2188   21.2175 C   0  0  1  0  0  0  0  0  0  0  0  0
  -27.5083  -13.8790   20.3638 C   0  0  2  0  0  0  0  0  0  0  0  0
  -29.6147  -24.8385   20.2970 C   0  0  0  0  0  0  0  0  0  0  0  0
  -23.9263  -20.7180   17.4658 C   0  0  0  0  0  0  0  0  0  0  0  0
  -31.0067  -25.4920   20.3710 C   0  0  0  0  0  0  0  0  0  0  0  0
  -20.8173  -23.3693   23.3408 C   0  0  0  0  0  0  0  0  0  0  0  0
  -21.5508  -29.2968   25.8633 C   0  0  0  0  0  0  0  0  0  0  0  0
  -21.4062  -26.8177   26.1815 C   0  0  0  0  0  0  0  0  0  0  0  0
  -19.7310  -27.9897   24.7523 C   0  0  0  0  0  0  0  0  0  0  0  0
  -24.1925  -23.7928   21.6364 C   0  0  0  0  0  0  0  0  0  0  0  0
  -28.5952  -25.8164   20.9104 C   0  0  0  0  0  0  0  0  0  1  0  0
  -22.0965  -27.7023   23.9073 C   0  0  1  0  0  0  0  0  0  0  0  0
  -21.9315  -24.1328   22.6420 C   0  0  2  0  0  0  0  0  0  0  0  0
  -21.2191  -27.9634   25.1641 C   0  0  0  0  0  0  0  0  0  0  0  0
  -25.4795  -13.1715   21.5742 N   0  0  0  0  0  0  0  0  0  0  0  0
  -26.2948  -12.9821   20.5228 N   0  0  0  0  0  0  0  0  0  0  0  0
  -28.0475  -22.5022   19.4779 N   0  0  0  0  0  0  0  0  0  0  0  0
  -23.1053  -29.0400   22.0861 N   0  0  0  0  0  0  0  0  0  0  0  0
  -28.4524  -16.1270   20.7177 N   0  0  0  0  0  0  0  0  0  0  0  0
  -26.6135  -11.6397   18.5974 N   0  0  0  0  0  0  0  0  0  0  0  0
  -22.9594  -10.6447   18.8234 N   0  0  0  0  0  0  0  0  0  0  0  0
  -27.3422  -17.6982   19.3535 N   0  0  0  0  0  0  0  0  0  0  0  0
  -23.8646  -32.5208   21.3092 N   0  0  0  0  0  0  0  0  0  0  0  0
  -21.7858  -26.4594   23.2093 N   0  0  0  0  0  0  0  0  0  0  0  0
  -23.0388  -23.1807   22.3445 N   0  3  0  0  0  0  0  0  0  0  0  0
  -24.1989   -9.1725   20.0705 O   0  0  0  0  0  0  0  0  0  0  0  0
  -24.2912  -31.0736   23.0829 O   0  0  0  0  0  0  0  0  0  0  0  0
  -20.9154  -29.4272   22.7864 O   0  0  0  0  0  0  0  0  0  0  0  0
  -23.3194  -25.1407   24.3435 O   0  0  0  0  0  0  0  0  0  0  0  0
  -29.5860  -17.9598   19.8812 O   0  0  0  0  0  0  0  0  0  0  0  0
  -20.3527  -11.7567   25.0758 O   0  0  0  0  0  0  0  0  0  0  0  0
  -28.6143  -27.0345   20.1672 O   0  0  0  0  0  0  0  0  0  1  0  0
  -17.3423   -7.1389   24.9451 F   0  0  0  0  0  0  0  0  0  0  0  0
  -20.1944  -10.1039   27.2861 F   0  0  0  0  0  0  0  0  0  0  0  0
  1  2  1  0  0  0  0
  1  5  2  0  0  0  0
  2  6  2  0  0  0  0
  3  8  2  0  0  0  0
  3 18  1  0  0  0  0
  4  9  1  0  0  0  0
  4 18  2  0  0  0  0
  5 20  1  0  0  0  0
  6 22  1  0  0  0  0
  7 10  2  0  0  0  0
  7 21  1  0  0  0  0
  8 27  1  0  0  0  0
  9 27  2  0  0  0  0
 10 28  1  0  0  0  0
 11 12  2  0  0  0  0
 11 29  1  0  0  0  0
 12 30  1  0  0  0  0
 13 23  1  0  0  0  0
 13 28  2  0  0  0  0
 14 24  2  0  0  0  0
 14 25  1  0  0  0  0
 15 24  1  0  0  0  0
 15 26  2  0  0  0  0
 16 25  2  0  0  0  0
 16 26  1  0  0  0  0
 17 30  2  0  0  0  0
 17 31  1  0  0  0  0
 18 32  1  0  0  0  0
 19 32  1  0  0  0  0
 19 33  2  0  0  0  0
 19 34  1  0  0  0  0
 20 22  2  0  0  0  0
 20 39  1  0  0  0  0
 21 23  2  0  0  0  0
 21 40  1  0  0  0  0
 22 52  1  0  0  0  0
 23 41  1  0  0  0  0
 24 56  1  0  0  0  0
 25 69  1  0  0  0  0
 26 74  1  0  0  0  0
 27 83  1  0  0  0  0
 28 84  1  0  0  0  0
 29 31  2  0  0  0  0
 29 83  1  0  0  0  0
 30 85  1  0  0  0  0
 31 86  1  0  0  0  0
 32 67  2  0  0  0  0
 33 68  1  0  0  0  0
 33 72  1  0  0  0  0
 34 73  1  0  0  0  0
 34 78  2  0  0  0  0
 35 53  1  0  0  0  0
 35 75  1  0  0  0  0
 35 79  2  0  0  0  0
 36 64  1  0  0  0  0
 36 70  1  0  0  0  0
 36 80  2  0  0  0  0
 37 65  1  0  0  0  0
 37 76  1  0  0  0  0
 37 81  2  0  0  0  0
 38 71  1  0  0  0  0
 38 74  1  0  0  0  0
 38 82  2  0  0  0  0
 39 42  1  0  0  0  0
 40 53  1  0  0  0  0
 41 70  1  0  0  0  0
 42 44  1  0  0  0  0
 43 45  1  0  0  0  0
 43 48  1  0  0  0  0
 44 52  1  0  0  0  0
 45 54  1  0  0  0  0
 46 49  1  0  0  0  0
 46 55  1  0  0  0  0
 47 50  1  0  0  0  0
 47 55  1  0  0  0  0
 48 71  1  0  0  0  0
 49 69  1  0  0  0  0
 50 69  1  0  0  0  0
 51 54  1  0  0  0  0
 51 71  1  0  0  0  0
 52 75  1  0  0  0  0
 53 70  1  0  0  0  0
 54 68  1  0  0  0  0
 55 57  1  0  0  0  0
 55 63  1  0  0  0  0
 58 65  1  0  0  0  0
 59 66  1  0  0  0  0
 60 66  1  0  0  0  0
 61 66  1  0  0  0  0
 62 77  1  0  0  0  0
 63 84  1  0  0  0  0
 64 66  1  0  0  0  0
 64 76  1  0  0  0  0
 65 77  1  0  0  0  0
 67 68  1  0  0  0  0
M  CHG  1  77   1
M  ISO  4  38 100  63 101  74 100  84 101
M  END
> <Batch ID>
0148

> <Smiles>
CNC(C)C(=O)NC(C(=O)N1Cc2cc([101O:1][101CH2:1]C3(C)CCN(c4cc(C)cc([100NH:0][100C:0](=O)N5CCCC(n6nc(-c7ccc(Oc8ccc(F)cc8F)cc7)c(C(N)=O)c6N)C5)c4)CC3)ccc2CC1C(=O)NC1CCCc2ccccc21)C(C)(C)C

> <Shape>
0.231

> <Color>
0.071

> <Negative vol penalty>
0.000

$$$$

  -OEChem-04052303163D

 87 96  0     1  0  0  0  0  0999 V2000
  -23.0996  -35.5035   15.6411 C   0  0  0  0  0  0  0  0  0  0  0  0
  -23.7826  -34.2921   15.6792 C   0  0  0  0  0  0  0  0  0  0  0  0
  -23.6861   -9.9715   22.0899 C   0  0  0  0  0  0  0  0  0  0  0  0
  -22.8075  -12.1623   21.5747 C   0  0  0  0  0  0  0  0  0  0  0  0
  -23.1133  -36.3455   16.7523 C   0  0  0  0  0  0  0  0  0  0  0  0
  -24.4807  -33.9225   16.8283 C   0  0  0  0  0  0  0  0  0  0  0  0
  -25.1734  -28.2590   19.0533 C   0  0  0  0  0  0  0  0  0  0  0  0
  -27.6336  -19.6605   19.5055 C   0  0  0  0  0  0  0  0  0  0  0  0
  -27.6667  -18.2796   19.3111 C   0  0  0  0  0  0  0  0  0  0  0  0
  -22.7457   -9.8345   23.1110 C   0  0  0  0  0  0  0  0  0  0  0  0
  -21.8672  -12.0253   22.5958 C   0  0  0  0  0  0  0  0  0  0  0  0
  -26.2126  -27.3345   18.9582 C   0  0  0  0  0  0  0  0  0  0  0  0
  -19.4621   -9.0770   23.3881 C   0  0  0  0  0  0  0  0  0  0  0  0
  -18.7797   -7.8642   23.4825 C   0  0  0  0  0  0  0  0  0  0  0  0
  -29.9448  -18.2213   20.1135 C   0  0  0  0  0  0  0  0  0  0  0  0
  -27.0626  -28.0797   21.0892 C   0  0  0  0  0  0  0  0  0  0  0  0
  -19.6572   -7.5438   25.7106 C   0  0  0  0  0  0  0  0  0  0  0  0
  -23.7170  -11.1354   21.3218 C   0  0  0  0  0  0  0  0  0  0  0  0
  -29.9117  -19.6022   20.3078 C   0  0  0  0  0  0  0  0  0  0  0  0
  -24.5407  -10.9016   18.9187 C   0  0  0  0  0  0  0  0  0  0  0  0
  -23.8040  -35.9816   17.9190 C   0  0  0  0  0  0  0  0  0  0  0  0
  -25.0770  -29.1098   20.1638 C   0  0  0  0  0  0  0  0  0  0  0  0
  -24.5049  -34.7611   17.9557 C   0  0  0  0  0  0  0  0  0  0  0  0
  -26.0197  -29.0125   21.1972 C   0  0  0  0  0  0  0  0  0  0  0  0
  -28.7562  -20.3218   20.0038 C   0  0  0  0  0  0  0  0  0  0  0  0
  -28.8223  -17.5600   19.6152 C   0  0  0  0  0  0  0  0  0  0  0  0
  -21.8363  -10.8614   23.3639 C   0  0  0  0  0  0  0  0  0  0  0  0
  -27.1590  -27.2467   19.9749 C   0  0  0  0  0  0  0  0  0  0  0  0
  -20.2421   -9.5232   24.4549 C   0  0  0  0  0  0  0  0  0  0  0  0
  -18.8772   -7.0976   24.6437 C   0  0  0  0  0  0  0  0  0  0  0  0
  -20.3397   -8.7567   25.6162 C   0  0  0  0  0  0  0  0  0  0  0  0
  -24.6885  -11.2778   20.2672 C   0  0  0  0  0  0  0  0  0  0  0  0
  -25.7353  -11.2440   18.3338 C   0  0  0  0  0  0  0  0  0  0  0  0
  -31.0907  -20.2657   20.8265 C   0  0  0  0  0  0  0  0  0  0  0  0
  -23.4234  -10.2968   18.2542 C   0  0  0  0  0  0  0  0  0  0  0  0
  -25.1670  -32.2582   20.5920 C   0  0  0  0  0  0  0  0  0  0  0  0
  -24.4161  -31.4720   23.6482 C   0  0  0  0  0  0  0  0  0  0  0  0
  -24.4525  -29.1293   26.1296 C   0  0  0  0  0  0  0  0  0  0  0  0
  -29.9213  -15.2938   19.6684 C   0  0  0  0  0  0  0  0  0  0  0  0
  -23.8294  -36.9461   19.0782 C   0  0  0  0  0  0  0  0  0  0  0  0
  -23.9348  -30.0833   20.2640 C   0  0  0  0  0  0  0  0  0  0  0  0
  -25.9494  -29.8891   22.4200 C   0  0  0  0  0  0  0  0  0  0  0  0
  -24.2824  -36.3101   20.3899 C   0  0  0  0  0  0  0  0  0  0  0  0
  -30.3848  -11.7781   19.3492 C   0  0  0  0  0  0  0  0  0  0  0  0
  -25.5315  -35.4629   20.1691 C   0  0  0  0  0  0  0  0  0  0  0  0
  -28.9627  -11.2171   19.4195 C   0  0  0  0  0  0  0  0  0  0  0  0
  -28.4769  -23.7882   21.2333 C   0  0  0  0  0  0  0  0  0  0  0  0
  -30.5693  -12.9744   20.2811 C   0  0  0  0  0  0  0  0  0  0  0  0
  -28.8981  -22.3401   21.4814 C   0  0  0  0  0  0  0  0  0  0  0  0
  -28.1622  -13.4894   20.1830 C   0  0  0  0  0  0  0  0  0  0  0  0
  -28.4213  -22.6499   19.1251 C   0  0  0  0  0  0  0  0  0  0  0  0
  -25.2531  -34.3138   19.1927 C   0  0  1  0  0  0  0  0  0  0  0  0
  -24.2275  -31.2539   21.1974 C   0  0  1  0  0  0  0  0  0  0  0  0
  -27.9096  -12.3234   19.2132 C   0  0  2  0  0  0  0  0  0  0  0  0
  -28.7746  -24.0178   19.7444 C   0  0  2  0  0  0  0  0  0  0  0  0
  -30.2600  -24.3510   19.5240 C   0  0  0  0  0  0  0  0  0  0  0  0
  -23.8012  -28.7913   28.5293 C   0  0  0  0  0  0  0  0  0  0  0  0
  -26.8271  -33.1200   24.5322 C   0  0  0  0  0  0  0  0  0  0  0  0
  -26.6920  -31.9922   26.7634 C   0  0  0  0  0  0  0  0  0  0  0  0
  -24.7934  -33.3973   25.9611 C   0  0  0  0  0  0  0  0  0  0  0  0
  -22.5895  -26.9368   25.4360 C   0  0  0  0  0  0  0  0  0  0  0  0
  -27.9120  -25.1408   19.1660 C   0  0  0  0  0  0  0  0  0  1  0  0
  -25.2055  -31.1434   24.8924 C   0  0  1  0  0  0  0  0  0  0  0  0
  -23.3687  -28.6499   27.0782 C   0  0  2  0  0  0  0  0  0  0  0  0
  -25.8822  -32.3979   25.5134 C   0  0  0  0  0  0  0  0  0  0  0  0
  -25.8829  -11.8177   20.5240 N   0  0  0  0  0  0  0  0  0  0  0  0
  -26.4965  -11.7831   19.3288 N   0  0  0  0  0  0  0  0  0  0  0  0
  -28.7053  -21.6874   20.1899 N   0  0  3  0  0  0  0  0  0  0  0  0
  -24.8176  -30.8294   22.4686 N   0  0  0  0  0  0  0  0  0  0  0  0
  -29.5391  -13.9834   20.0254 N   0  0  0  0  0  0  0  0  0  0  0  0
  -26.1984  -11.1335   17.0706 N   0  0  0  0  0  0  0  0  0  0  0  0
  -31.2579  -20.4152   22.1498 N   0  0  0  0  0  0  0  0  0  0  0  0
  -22.2743  -10.0116   19.0043 N   0  0  0  0  0  0  0  0  0  0  0  0
  -28.8554  -16.1573   19.4177 N   0  0  0  0  0  0  0  0  0  0  0  0
  -24.5381  -33.2464   19.8590 N   0  0  0  0  0  0  0  0  0  0  0  0
  -24.2845  -30.4551   25.7903 N   0  0  0  0  0  0  0  0  0  0  0  0
  -32.0282  -20.7359   19.9889 N   0  3  0  0  0  0  0  0  0  0  0  0
  -23.0510  -27.2169   26.8200 N   0  3  0  0  0  0  0  0  0  0  0  0
  -23.4494  -10.0026   17.0351 O   0  0  0  0  0  0  0  0  0  0  0  0
  -26.3731  -32.1457   20.7775 O   0  0  0  0  0  0  0  0  0  0  0  0
  -23.4734  -32.2641   23.7218 O   0  0  0  0  0  0  0  0  0  0  0  0
  -25.3598  -28.4015   25.7324 O   0  0  0  0  0  0  0  0  0  0  0  0
  -31.1070  -15.6184   19.5643 O   0  0  0  0  0  0  0  0  0  0  0  0
  -20.9184  -10.7280   24.3600 O   0  0  0  0  0  0  0  0  0  0  0  0
  -28.1747  -26.3456   19.8843 O   0  0  0  0  0  0  0  0  0  1  0  0
  -18.2206   -5.9336   24.7348 F   0  0  0  0  0  0  0  0  0  0  0  0
  -21.0865   -9.1807   26.6448 F   0  0  0  0  0  0  0  0  0  0  0  0
  1  2  1  0  0  0  0
  1  5  2  0  0  0  0
  2  6  2  0  0  0  0
  3 10  2  0  0  0  0
  3 18  1  0  0  0  0
  4 11  1  0  0  0  0
  4 18  2  0  0  0  0
  5 21  1  0  0  0  0
  6 23  1  0  0  0  0
  7 12  2  0  0  0  0
  7 22  1  0  0  0  0
  8  9  2  0  0  0  0
  8 25  1  0  0  0  0
  9 26  1  0  0  0  0
 10 27  1  0  0  0  0
 11 27  2  0  0  0  0
 12 28  1  0  0  0  0
 13 14  2  0  0  0  0
 13 29  1  0  0  0  0
 14 30  1  0  0  0  0
 15 19  1  0  0  0  0
 15 26  2  0  0  0  0
 16 24  1  0  0  0  0
 16 28  2  0  0  0  0
 17 30  2  0  0  0  0
 17 31  1  0  0  0  0
 18 32  1  0  0  0  0
 19 25  2  0  0  0  0
 19 34  1  0  0  0  0
 20 32  1  0  0  0  0
 20 33  2  0  0  0  0
 20 35  1  0  0  0  0
 21 23  2  0  0  0  0
 21 40  1  0  0  0  0
 22 24  2  0  0  0  0
 22 41  1  0  0  0  0
 23 52  1  0  0  0  0
 24 42  1  0  0  0  0
 25 68  1  0  0  0  0
 26 74  1  0  0  0  0
 27 84  1  0  0  0  0
 28 85  1  0  0  0  0
 29 31  2  0  0  0  0
 29 84  1  0  0  0  0
 30 86  1  0  0  0  0
 31 87  1  0  0  0  0
 32 66  2  0  0  0  0
 33 67  1  0  0  0  0
 33 71  1  0  0  0  0
 34 72  1  0  0  0  0
 34 77  2  0  0  0  0
 35 73  1  0  0  0  0
 35 79  2  0  0  0  0
 36 53  1  0  0  0  0
 36 75  1  0  0  0  0
 36 80  2  0  0  0  0
 37 63  1  0  0  0  0
 37 69  1  0  0  0  0
 37 81  2  0  0  0  0
 38 64  1  0  0  0  0
 38 76  1  0  0  0  0
 38 82  2  0  0  0  0
 39 70  1  0  0  0  0
 39 74  1  0  0  0  0
 39 83  2  0  0  0  0
 40 43  1  0  0  0  0
 41 53  1  0  0  0  0
 42 69  1  0  0  0  0
 43 45  1  0  0  0  0
 44 46  1  0  0  0  0
 44 48  1  0  0  0  0
 45 52  1  0  0  0  0
 46 54  1  0  0  0  0
 47 49  1  0  0  0  0
 47 55  1  0  0  0  0
 48 70  1  0  0  0  0
 49 68  1  0  0  0  0
 50 54  1  0  0  0  0
 50 70  1  0  0  0  0
 51 55  1  0  0  0  0
 51 68  1  0  0  0  0
 52 75  1  0  0  0  0
 53 69  1  0  0  0  0
 54 67  1  0  0  0  0
 55 56  1  0  0  0  0
 55 62  1  0  0  0  0
 57 64  1  0  0  0  0
 58 65  1  0  0  0  0
 59 65  1  0  0  0  0
 60 65  1  0  0  0  0
 61 78  1  0  0  0  0
 62 85  1  0  0  0  0
 63 65  1  0  0  0  0
 63 76  1  0  0  0  0
 64 78  1  0  0  0  0
 66 67  1  0  0  0  0
M  CHG  2  77   1  78   1
M  ISO  4  39 100  62 101  74 100  85 101
M  END
> <Batch ID>
0148

> <Smiles>
CNC(C)C(=O)NC(C(=O)N1Cc2cc([101O:1][101CH2:1]C3(C)CCN(c4ccc([100NH:0][100C:0](=O)N5CCCC(n6nc(-c7ccc(Oc8ccc(F)cc8F)cc7)c(C(N)=O)c6N)C5)cc4C(=N)N)C3)ccc2CC1C(=O)NC1CCCc2ccccc21)C(C)(C)C

> <Shape>
0.271

> <Color>
0.113

> <Negative vol penalty>
0.000

$$$$

  -OEChem-04052303163D

 83 91  0     1  0  0  0  0  0999 V2000
  -22.1319  -20.3790   23.4453 C   0  0  0  0  0  0  0  0  0  0  0  0
  -23.2002  -21.0890   22.9067 C   0  0  0  0  0  0  0  0  0  0  0  0
  -25.5428  -13.0424   21.7774 C   0  0  0  0  0  0  0  0  0  0  0  0
  -25.4249  -13.5591   19.4203 C   0  0  0  0  0  0  0  0  0  0  0  0
  -20.8435  -20.9083   23.3849 C   0  0  0  0  0  0  0  0  0  0  0  0
  -22.9805  -22.3282   22.3063 C   0  0  0  0  0  0  0  0  0  0  0  0
  -26.3938  -25.7975   23.7056 C   0  0  0  0  0  0  0  0  0  0  0  0
  -24.4887  -12.1405   21.6325 C   0  0  0  0  0  0  0  0  0  0  0  0
  -24.3708  -12.6571   19.2753 C   0  0  0  0  0  0  0  0  0  0  0  0
  -27.6489  -25.7356   23.1018 C   0  0  0  0  0  0  0  0  0  0  0  0
  -24.0487   -8.9839   20.5035 C   0  0  0  0  0  0  0  0  0  0  0  0
  -24.1727   -7.7377   21.1177 C   0  0  0  0  0  0  0  0  0  0  0  0
  -29.2083  -22.1661   16.3285 C   0  0  0  0  0  0  0  0  0  0  0  0
  -30.5230  -22.6387   16.5554 C   0  0  0  0  0  0  0  0  0  0  0  0
  -27.0071  -27.5107   21.5997 C   0  0  0  0  0  0  0  0  0  0  0  0
  -22.1922   -8.1859   22.4268 C   0  0  0  0  0  0  0  0  0  0  0  0
  -26.0109  -13.7518   20.6713 C   0  0  0  0  0  0  0  0  0  0  0  0
  -28.4747  -14.4126   20.6920 C   0  0  0  0  0  0  0  0  0  0  0  0
  -20.6092  -22.1590   22.7921 C   0  0  0  0  0  0  0  0  0  0  0  0
  -25.4304  -26.7106   23.2531 C   0  0  0  0  0  0  0  0  0  0  0  0
  -21.6875  -22.8741   22.2367 C   0  0  0  0  0  0  0  0  0  0  0  0
  -25.7414  -27.5840   22.2012 C   0  0  0  0  0  0  0  0  0  0  0  0
  -23.9027  -11.9478   20.3815 C   0  0  0  0  0  0  0  0  0  0  0  0
  -27.9547  -26.5903   22.0468 C   0  0  0  0  0  0  0  0  0  0  0  0
  -22.9964   -9.8311   20.8509 C   0  0  0  0  0  0  0  0  0  0  0  0
  -23.2444   -7.3387   22.0794 C   0  0  0  0  0  0  0  0  0  0  0  0
  -22.0682   -9.4321   21.8126 C   0  0  0  0  0  0  0  0  0  0  0  0
  -27.0994  -14.6840   20.8205 C   0  0  0  0  0  0  0  0  0  0  0  0
  -28.5557  -22.2581   17.5358 C   0  0  0  0  0  0  0  0  0  0  0  0
  -29.0862  -15.6201   20.9252 C   0  0  0  0  0  0  0  0  0  0  0  0
  -30.5799  -22.9860   17.8851 C   0  0  0  0  0  0  0  0  0  0  0  0
  -29.1401  -13.1792   20.3889 C   0  0  0  0  0  0  0  0  0  0  0  0
  -22.5285  -26.4629   21.9798 C   0  0  0  0  0  0  0  0  0  0  0  0
  -30.7168  -25.1268   20.2190 C   0  0  0  0  0  0  0  0  0  0  0  0
  -22.5520  -29.6938   22.2671 C   0  0  0  0  0  0  0  0  0  0  0  0
  -24.3764  -32.5681   22.5058 C   0  0  0  0  0  0  0  0  0  0  0  0
  -27.2557  -21.2933   20.3639 C   0  0  0  0  0  0  0  0  0  0  0  0
  -19.1922  -22.6687   22.7083 C   0  0  0  0  0  0  0  0  0  0  0  0
  -24.0905  -26.7831   23.9326 C   0  0  0  0  0  0  0  0  0  0  0  0
  -24.7494  -28.5961   21.6913 C   0  0  0  0  0  0  0  0  0  0  0  0
  -19.0986  -24.1584   22.3887 C   0  0  0  0  0  0  0  0  0  0  0  0
  -28.4853  -19.7224   23.3129 C   0  0  0  0  0  0  0  0  0  0  0  0
  -20.0306  -24.5166   21.2354 C   0  0  0  0  0  0  0  0  0  0  0  0
  -28.3936  -18.2285   22.9970 C   0  0  0  0  0  0  0  0  0  0  0  0
  -27.3173  -20.4995   22.7096 C   0  0  0  0  0  0  0  0  0  0  0  0
  -27.0283  -18.8022   20.9463 C   0  0  0  0  0  0  0  0  0  0  0  0
  -21.4929  -24.2327   21.5992 C   0  0  1  0  0  0  0  0  0  0  0  0
  -23.0071  -27.3993   23.0530 C   0  0  1  0  0  0  0  0  0  0  0  0
  -28.2142  -17.9848   21.4864 C   0  0  2  0  0  0  0  0  0  0  0  0
  -32.8390  -23.8920   20.7080 C   0  0  0  0  0  0  0  0  0  0  0  0
  -24.1157  -35.0572   22.6903 C   0  0  0  0  0  0  0  0  0  0  0  0
  -21.8478  -29.8375   19.3018 C   0  0  0  0  0  0  0  0  0  0  0  0
  -22.5291  -32.2465   19.3281 C   0  0  0  0  0  0  0  0  0  0  0  0
  -20.6262  -31.4748   20.7446 C   0  0  0  0  0  0  0  0  0  0  0  0
  -25.7624  -32.6360   25.1199 C   0  0  0  0  0  0  0  0  0  0  0  0
  -27.1890  -21.9322   17.9667 C   0  0  0  0  0  0  0  0  0  0  0  0
  -29.8363  -25.2650   21.4474 C   0  0  0  0  0  0  0  0  0  1  0  0
  -31.4631  -23.8085   20.0690 C   0  0  2  0  0  0  0  0  0  0  0  0
  -22.9876  -30.8421   21.3892 C   0  0  1  0  0  0  0  0  0  0  0  0
  -24.2739  -33.7505   23.4523 C   0  0  2  0  0  0  0  0  0  0  0  0
  -22.0159  -31.0799   20.1990 C   0  0  0  0  0  0  0  0  0  0  0  0
  -26.8514  -15.9635   21.1128 N   0  0  0  0  0  0  0  0  0  0  0  0
  -28.0792  -16.5068   21.1700 N   0  0  0  0  0  0  0  0  0  0  0  0
  -23.4507  -28.6241   22.3842 N   0  0  0  0  0  0  0  0  0  0  0  0
  -27.2030  -20.2257   21.2751 N   0  0  0  0  0  0  0  0  0  0  0  0
  -30.3817  -15.9993   20.9428 N   0  0  0  0  0  0  0  0  0  0  0  0
  -28.3604  -12.0339   20.1776 N   0  0  0  0  0  0  0  0  0  0  0  0
  -31.6025  -23.5025   18.6621 N   0  0  0  0  0  0  0  0  0  0  0  0
  -22.0111  -25.2748   22.4595 N   0  0  0  0  0  0  0  0  0  0  0  0
  -23.1451  -31.9934   22.2713 N   0  0  0  0  0  0  0  0  0  0  0  0
  -27.1462  -20.9457   19.0230 N   0  0  0  0  0  0  0  0  0  0  0  0
  -25.4974  -33.8447   24.2979 N   0  3  0  0  0  0  0  0  0  0  0  0
  -30.3897  -13.0918   20.3239 O   0  0  0  0  0  0  0  0  0  0  0  0
  -22.6205  -26.7943   20.8036 O   0  0  0  0  0  0  0  0  0  0  0  0
  -30.8240  -26.0392   19.3991 O   0  0  0  0  0  0  0  0  0  0  0  0
  -21.4577  -29.7474   22.8340 O   0  0  0  0  0  0  0  0  0  0  0  0
  -25.4415  -32.1941   22.0199 O   0  0  0  0  0  0  0  0  0  0  0  0
  -27.3958  -22.4687   20.7186 O   0  0  0  0  0  0  0  0  0  0  0  0
  -29.3847  -22.7571   18.4898 O   0  0  0  0  0  0  0  0  0  0  0  0
  -22.8743  -11.0677   20.2397 O   0  0  0  0  0  0  0  0  0  0  0  0
  -29.1788  -26.5315   21.4552 O   0  0  0  0  0  0  0  0  0  1  0  0
  -23.3628   -6.1414   22.6680 F   0  0  0  0  0  0  0  0  0  0  0  0
  -21.0545  -10.2412   22.1497 F   0  0  0  0  0  0  0  0  0  0  0  0
  1  2  1  0  0  0  0
  1  5  2  0  0  0  0
  2  6  2  0  0  0  0
  3  8  2  0  0  0  0
  3 17  1  0  0  0  0
  4  9  1  0  0  0  0
  4 17  2  0  0  0  0
  5 19  1  0  0  0  0
  6 21  1  0  0  0  0
  7 10  2  0  0  0  0
  7 20  1  0  0  0  0
  8 23  1  0  0  0  0
  9 23  2  0  0  0  0
 10 24  1  0  0  0  0
 11 12  2  0  0  0  0
 11 25  1  0  0  0  0
 12 26  1  0  0  0  0
 13 14  1  0  0  0  0
 13 29  2  0  0  0  0
 14 31  2  0  0  0  0
 15 22  1  0  0  0  0
 15 24  2  0  0  0  0
 16 26  2  0  0  0  0
 16 27  1  0  0  0  0
 17 28  1  0  0  0  0
 18 28  1  0  0  0  0
 18 30  2  0  0  0  0
 18 32  1  0  0  0  0
 19 21  2  0  0  0  0
 19 38  1  0  0  0  0
 20 22  2  0  0  0  0
 20 39  1  0  0  0  0
 21 47  1  0  0  0  0
 22 40  1  0  0  0  0
 23 80  1  0  0  0  0
 24 81  1  0  0  0  0
 25 27  2  0  0  0  0
 25 80  1  0  0  0  0
 26 82  1  0  0  0  0
 27 83  1  0  0  0  0
 28 62  2  0  0  0  0
 29 56  1  0  0  0  0
 29 79  1  0  0  0  0
 30 63  1  0  0  0  0
 30 66  1  0  0  0  0
 31 68  1  0  0  0  0
 31 79  1  0  0  0  0
 32 67  1  0  0  0  0
 32 73  2  0  0  0  0
 33 48  1  0  0  0  0
 33 69  1  0  0  0  0
 33 74  2  0  0  0  0
 34 57  1  0  0  0  0
 34 58  1  0  0  0  0
 34 75  2  0  0  0  0
 35 59  1  0  0  0  0
 35 64  1  0  0  0  0
 35 76  2  0  0  0  0
 36 60  1  0  0  0  0
 36 70  1  0  0  0  0
 36 77  2  0  0  0  0
 37 65  1  0  0  0  0
 37 71  1  0  0  0  0
 37 78  2  0  0  0  0
 38 41  1  0  0  0  0
 39 48  1  0  0  0  0
 40 64  1  0  0  0  0
 41 43  1  0  0  0  0
 42 44  1  0  0  0  0
 42 45  1  0  0  0  0
 43 47  1  0  0  0  0
 44 49  1  0  0  0  0
 45 65  1  0  0  0  0
 46 49  1  0  0  0  0
 46 65  1  0  0  0  0
 47 69  1  0  0  0  0
 48 64  1  0  0  0  0
 49 63  1  0  0  0  0
 50 58  1  0  0  0  0
 51 60  1  0  0  0  0
 52 61  1  0  0  0  0
 53 61  1  0  0  0  0
 54 61  1  0  0  0  0
 55 72  1  0  0  0  0
 56 71  1  0  0  0  0
 57 81  1  0  0  0  0
 58 68  1  0  0  0  0
 59 61  1  0  0  0  0
 59 70  1  0  0  0  0
 60 72  1  0  0  0  0
 62 63  1  0  0  0  0
M  CHG  1  72   1
M  ISO  4  37 100  57 101  71 100  81 101
M  END
> <Batch ID>
0148

> <Smiles>
CNC(C)C(=O)NC(C(=O)N1Cc2cc([101O:1][101CH2:1]C(=O)C(C)Nc3ccc(C[100NH:0][100C:0](=O)N4CCCC(n5nc(-c6ccc(Oc7ccc(F)cc7F)cc6)c(C(N)=O)c5N)C4)o3)ccc2CC1C(=O)NC1CCCc2ccccc21)C(C)(C)C

> <Shape>
0.248

> <Color>
0.074

> <Negative vol penalty>
0.000

$$$$

  -OEChem-04052303163D

 83 91  0     1  0  0  0  0  0999 V2000
  -29.5050  -17.0858   28.6916 C   0  0  0  0  0  0  0  0  0  0  0  0
  -30.0747  -17.7948   27.6389 C   0  0  0  0  0  0  0  0  0  0  0  0
  -23.0020   -9.8923   19.9808 C   0  0  0  0  0  0  0  0  0  0  0  0
  -23.7250   -9.9456   22.2855 C   0  0  0  0  0  0  0  0  0  0  0  0
  -28.1603  -17.2721   29.0091 C   0  0  0  0  0  0  0  0  0  0  0  0
  -29.2995  -18.6897   26.9022 C   0  0  0  0  0  0  0  0  0  0  0  0
  -31.6764  -23.0809   26.0582 C   0  0  0  0  0  0  0  0  0  0  0  0
  -22.2357   -8.7577   20.2474 C   0  0  0  0  0  0  0  0  0  0  0  0
  -22.9587   -8.8110   22.5521 C   0  0  0  0  0  0  0  0  0  0  0  0
  -32.6412  -23.0996   25.0520 C   0  0  0  0  0  0  0  0  0  0  0  0
  -23.2049   -5.4718   22.0833 C   0  0  0  0  0  0  0  0  0  0  0  0
  -23.7922   -4.4555   22.8369 C   0  0  0  0  0  0  0  0  0  0  0  0
  -31.8160  -17.4817   21.6973 C   0  0  0  0  0  0  0  0  0  0  0  0
  -31.0434  -24.1000   23.5468 C   0  0  0  0  0  0  0  0  0  0  0  0
  -22.0666   -4.6991   24.5102 C   0  0  0  0  0  0  0  0  0  0  0  0
  -23.7467  -10.4863   20.9999 C   0  0  0  0  0  0  0  0  0  0  0  0
  -31.9140  -18.7557   22.3278 C   0  0  0  0  0  0  0  0  0  0  0  0
  -24.1310  -13.0019   20.8221 C   0  0  0  0  0  0  0  0  0  0  0  0
  -27.3707  -18.1769   28.2822 C   0  0  0  0  0  0  0  0  0  0  0  0
  -30.3824  -23.5625   25.8126 C   0  0  0  0  0  0  0  0  0  0  0  0
  -27.9426  -18.8872   27.2094 C   0  0  0  0  0  0  0  0  0  0  0  0
  -30.0647  -24.0887   24.5524 C   0  0  0  0  0  0  0  0  0  0  0  0
  -22.2140   -8.2171   21.5331 C   0  0  0  0  0  0  0  0  0  0  0  0
  -32.3240  -23.6065   23.7952 C   0  0  0  0  0  0  0  0  0  0  0  0
  -22.0485   -6.1018   22.5433 C   0  0  0  0  0  0  0  0  0  0  0  0
  -23.2231   -4.0691   24.0503 C   0  0  0  0  0  0  0  0  0  0  0  0
  -21.4794   -5.7154   23.7567 C   0  0  0  0  0  0  0  0  0  0  0  0
  -24.5389  -11.6580   20.7250 C   0  0  0  0  0  0  0  0  0  0  0  0
  -25.2408  -13.7246   20.4581 C   0  0  0  0  0  0  0  0  0  0  0  0
  -30.5914  -16.8896   21.9148 C   0  0  0  0  0  0  0  0  0  0  0  0
  -30.7603  -19.0888   23.0031 C   0  0  0  0  0  0  0  0  0  0  0  0
  -33.1196  -19.6051   22.2546 C   0  0  0  0  0  0  0  0  0  0  0  0
  -22.8624  -13.5480   21.2069 C   0  0  0  0  0  0  0  0  0  0  0  0
  -27.4715  -22.2859   25.8382 C   0  0  0  0  0  0  0  0  0  0  0  0
  -26.5449  -25.3558   25.3486 C   0  0  0  0  0  0  0  0  0  0  0  0
  -27.3352  -28.4738   24.2085 C   0  0  0  0  0  0  0  0  0  0  0  0
  -30.7197  -14.6883   20.6965 C   0  0  0  0  0  0  0  0  0  0  0  0
  -25.9097  -18.3095   28.6323 C   0  0  0  0  0  0  0  0  0  0  0  0
  -29.3609  -23.5600   26.9167 C   0  0  0  0  0  0  0  0  0  0  0  0
  -28.6961  -24.6364   24.2438 C   0  0  0  0  0  0  0  0  0  0  0  0
  -25.2523  -19.5542   28.0416 C   0  0  0  0  0  0  0  0  0  0  0  0
  -29.6046  -12.2331   18.3715 C   0  0  0  0  0  0  0  0  0  0  0  0
  -25.6267  -19.7087   26.5710 C   0  0  0  0  0  0  0  0  0  0  0  0
  -28.1537  -11.9751   18.7845 C   0  0  0  0  0  0  0  0  0  0  0  0
  -30.5039  -12.4778   19.5819 C   0  0  0  0  0  0  0  0  0  0  0  0
  -28.5869  -13.2669   20.9130 C   0  0  0  0  0  0  0  0  0  0  0  0
  -27.1406  -19.8853   26.4027 C   0  0  1  0  0  0  0  0  0  0  0  0
  -27.9252  -23.6025   26.4024 C   0  0  1  0  0  0  0  0  0  0  0  0
  -27.6305  -13.0792   19.7241 C   0  0  2  0  0  0  0  0  0  0  0  0
  -26.3600  -30.7660   23.9049 C   0  0  0  0  0  0  0  0  0  0  0  0
  -35.6343  -23.2303   23.0029 C   0  0  0  0  0  0  0  0  0  0  0  0
  -24.9719  -24.3635   22.9297 C   0  0  0  0  0  0  0  0  0  0  0  0
  -24.8205  -26.7354   22.1427 C   0  0  0  0  0  0  0  0  0  0  0  0
  -23.7861  -26.0753   24.3145 C   0  0  0  0  0  0  0  0  0  0  0  0
  -29.3469  -29.6941   26.0039 C   0  0  0  0  0  0  0  0  0  0  0  0
  -34.1299  -21.7554   21.5819 C   0  0  0  0  0  0  0  0  0  0  0  0
  -26.3038  -26.2189   24.1337 C   0  0  1  0  0  0  0  0  0  0  0  0
  -27.1502  -29.8486   24.8251 C   0  0  2  0  0  0  0  0  0  0  0  0
  -34.2571  -22.6014   22.8420 C   0  0  2  0  0  0  0  0  0  1  0  0
  -24.9959  -25.8362   23.3851 C   0  0  0  0  0  0  0  0  0  0  0  0
  -25.8086  -11.5317   20.3301 N   0  0  0  0  0  0  0  0  0  0  0  0
  -26.2081  -12.8055   20.1758 N   0  0  0  0  0  0  0  0  0  0  0  0
  -27.7299  -24.6063   25.3542 N   0  0  0  0  0  0  0  0  0  0  0  0
  -29.9476  -13.5392   20.4238 N   0  0  0  0  0  0  0  0  0  0  0  0
  -25.4738  -15.0504   20.3551 N   0  0  0  0  0  0  0  0  0  0  0  0
  -30.5252  -20.2265   23.7056 N   0  0  0  0  0  0  0  0  0  0  0  0
  -34.2631  -19.1155   22.7340 N   0  0  0  0  0  0  0  0  0  0  0  0
  -21.8307  -12.6637   21.5503 N   0  0  0  0  0  0  0  0  0  0  0  0
  -30.0742  -15.6438   21.4807 N   0  0  0  0  0  0  0  0  0  0  0  0
  -27.5319  -21.2380   26.7369 N   0  0  0  0  0  0  0  0  0  0  0  0
  -26.3427  -27.6006   24.6004 N   0  0  0  0  0  0  0  0  0  0  0  0
  -33.0063  -20.8238   21.7137 N   0  3  0  0  0  0  0  0  0  0  0  0
  -28.4740  -30.4786   25.0930 N   0  3  0  0  0  0  0  0  0  0  0  0
  -22.6452  -14.7833   21.2294 O   0  0  0  0  0  0  0  0  0  0  0  0
  -27.0932  -22.2255   24.6742 O   0  0  0  0  0  0  0  0  0  0  0  0
  -25.7161  -25.3523   26.2622 O   0  0  0  0  0  0  0  0  0  0  0  0
  -28.2650  -28.2028   23.4517 O   0  0  0  0  0  0  0  0  0  0  0  0
  -31.8587  -14.8273   20.2434 O   0  0  0  0  0  0  0  0  0  0  0  0
  -21.4662   -7.1101   21.7936 O   0  0  0  0  0  0  0  0  0  0  0  0
  -33.2636  -23.6252   22.8110 O   0  0  0  0  0  0  0  0  0  1  0  0
  -23.7863   -3.0921   24.7731 F   0  0  0  0  0  0  0  0  0  0  0  0
  -20.3678   -6.3162   24.2031 F   0  0  0  0  0  0  0  0  0  0  0  0
  -29.5660  -17.8683   22.8756 S   0  0  0  0  0  0  0  0  0  0  0  0
  1  2  1  0  0  0  0
  1  5  2  0  0  0  0
  2  6  2  0  0  0  0
  3  8  2  0  0  0  0
  3 16  1  0  0  0  0
  4  9  1  0  0  0  0
  4 16  2  0  0  0  0
  5 19  1  0  0  0  0
  6 21  1  0  0  0  0
  7 10  2  0  0  0  0
  7 20  1  0  0  0  0
  8 23  1  0  0  0  0
  9 23  2  0  0  0  0
 10 24  1  0  0  0  0
 11 12  2  0  0  0  0
 11 25  1  0  0  0  0
 12 26  1  0  0  0  0
 13 17  1  0  0  0  0
 13 30  2  0  0  0  0
 14 22  1  0  0  0  0
 14 24  2  0  0  0  0
 15 26  2  0  0  0  0
 15 27  1  0  0  0  0
 16 28  1  0  0  0  0
 17 31  2  0  0  0  0
 17 32  1  0  0  0  0
 18 28  1  0  0  0  0
 18 29  2  0  0  0  0
 18 33  1  0  0  0  0
 19 21  2  0  0  0  0
 19 38  1  0  0  0  0
 20 22  2  0  0  0  0
 20 39  1  0  0  0  0
 21 47  1  0  0  0  0
 22 40  1  0  0  0  0
 23 79  1  0  0  0  0
 24 80  1  0  0  0  0
 25 27  2  0  0  0  0
 25 79  1  0  0  0  0
 26 81  1  0  0  0  0
 27 82  1  0  0  0  0
 28 61  2  0  0  0  0
 29 62  1  0  0  0  0
 29 65  1  0  0  0  0
 30 69  1  0  0  0  0
 30 83  1  0  0  0  0
 31 66  1  0  0  0  0
 31 83  1  0  0  0  0
 32 67  1  0  0  0  0
 32 72  2  0  0  0  0
 33 68  1  0  0  0  0
 33 74  2  0  0  0  0
 34 48  1  0  0  0  0
 34 70  1  0  0  0  0
 34 75  2  0  0  0  0
 35 57  1  0  0  0  0
 35 63  1  0  0  0  0
 35 76  2  0  0  0  0
 36 58  1  0  0  0  0
 36 71  1  0  0  0  0
 36 77  2  0  0  0  0
 37 64  1  0  0  0  0
 37 69  1  0  0  0  0
 37 78  2  0  0  0  0
 38 41  1  0  0  0  0
 39 48  1  0  0  0  0
 40 63  1  0  0  0  0
 41 43  1  0  0  0  0
 42 44  1  0  0  0  0
 42 45  1  0  0  0  0
 43 47  1  0  0  0  0
 44 49  1  0  0  0  0
 45 64  1  0  0  0  0
 46 49  1  0  0  0  0
 46 64  1  0  0  0  0
 47 70  1  0  0  0  0
 48 63  1  0  0  0  0
 49 62  1  0  0  0  0
 50 58  1  0  0  0  0
 51 59  1  0  0  0  0
 52 60  1  0  0  0  0
 53 60  1  0  0  0  0
 54 60  1  0  0  0  0
 55 73  1  0  0  0  0
 56 59  1  0  0  0  0
 56 72  1  0  0  0  0
 57 60  1  0  0  0  0
 57 71  1  0  0  0  0
 58 73  1  0  0  0  0
 59 80  1  0  0  0  0
 61 62  1  0  0  0  0
M  CHG  2  72   1  73   1
M  ISO  4  37 100  59 101  69 100  80 101
M  END
> <Batch ID>
0148

> <Smiles>
CNC(C)C(=O)NC(C(=O)N1Cc2cc([101O:1][101CH:1](C)CNC(=N)c3cc([100NH:0][100C:0](=O)N4CCCC(n5nc(-c6ccc(Oc7ccc(F)cc7F)cc6)c(C(N)=O)c5N)C4)sc3N)ccc2CC1C(=O)NC1CCCc2ccccc21)C(C)(C)C

> <Shape>
0.198

> <Color>
0.186

> <Negative vol penalty>
0.000

$$$$

  -OEChem-04052303163D

 87 96  0     1  0  0  0  0  0999 V2000
  -18.2770  -24.7783   23.6372 C   0  0  0  0  0  0  0  0  0  0  0  0
  -19.5380  -24.5574   23.0927 C   0  0  0  0  0  0  0  0  0  0  0  0
  -29.3833  -11.4516   19.3715 C   0  0  0  0  0  0  0  0  0  0  0  0
  -30.6942  -13.4092   19.9069 C   0  0  0  0  0  0  0  0  0  0  0  0
  -17.7200  -26.0561   23.6070 C   0  0  0  0  0  0  0  0  0  0  0  0
  -20.2423  -25.6140   22.5165 C   0  0  0  0  0  0  0  0  0  0  0  0
  -26.3060  -26.4694   22.5877 C   0  0  0  0  0  0  0  0  0  0  0  0
  -30.5303  -10.6618   19.4510 C   0  0  0  0  0  0  0  0  0  0  0  0
  -31.8412  -12.6194   19.9865 C   0  0  0  0  0  0  0  0  0  0  0  0
  -27.3023  -26.2007   21.6501 C   0  0  0  0  0  0  0  0  0  0  0  0
  -32.4367   -9.2753   21.8751 C   0  0  0  0  0  0  0  0  0  0  0  0
  -32.3465   -8.0695   22.5705 C   0  0  0  0  0  0  0  0  0  0  0  0
  -29.8699  -22.2297   14.8106 C   0  0  0  0  0  0  0  0  0  0  0  0
  -29.1727  -20.6274   16.4789 C   0  0  0  0  0  0  0  0  0  0  0  0
  -27.1730  -28.4793   20.8687 C   0  0  0  0  0  0  0  0  0  0  0  0
  -28.1619  -20.6040   14.2847 C   0  0  0  0  0  0  0  0  0  0  0  0
  -32.9604   -6.8678   20.5665 C   0  0  0  0  0  0  0  0  0  0  0  0
  -29.4653  -12.8254   19.5994 C   0  0  0  0  0  0  0  0  0  0  0  0
  -29.9744  -21.7035   16.0981 C   0  0  0  0  0  0  0  0  0  0  0  0
  -27.3891  -13.9539   20.5603 C   0  0  0  0  0  0  0  0  0  0  0  0
  -18.4219  -27.1309   23.0388 C   0  0  0  0  0  0  0  0  0  0  0  0
  -25.7271  -27.7442   22.6657 C   0  0  0  0  0  0  0  0  0  0  0  0
  -19.6936  -26.9071   22.4775 C   0  0  0  0  0  0  0  0  0  0  0  0
  -26.1714  -28.7623   21.8099 C   0  0  0  0  0  0  0  0  0  0  0  0
  -28.9636  -21.6801   13.9039 C   0  0  0  0  0  0  0  0  0  0  0  0
  -28.2664  -20.0777   15.5722 C   0  0  0  0  0  0  0  0  0  0  0  0
  -31.7592  -11.2457   19.7585 C   0  0  0  0  0  0  0  0  0  0  0  0
  -27.7338  -27.2049   20.7885 C   0  0  0  0  0  0  0  0  0  0  0  0
  -32.7886   -9.2773   20.5253 C   0  0  0  0  0  0  0  0  0  0  0  0
  -32.6084   -6.8658   21.9162 C   0  0  0  0  0  0  0  0  0  0  0  0
  -33.0505   -8.0736   19.8710 C   0  0  0  0  0  0  0  0  0  0  0  0
  -28.2810  -13.6418   19.5168 C   0  0  0  0  0  0  0  0  0  0  0  0
  -26.4386  -14.7522   19.9724 C   0  0  0  0  0  0  0  0  0  0  0  0
  -29.2713  -24.9050   18.8681 C   0  0  0  0  0  0  0  0  0  0  0  0
  -30.9319  -22.2842   17.0563 C   0  0  0  0  0  0  0  0  0  0  0  0
  -27.4174  -13.5577   21.9380 C   0  0  0  0  0  0  0  0  0  0  0  0
  -28.4694  -25.9720   18.9420 C   0  0  0  0  0  0  0  0  0  1  0  0
  -22.7950  -28.9045   22.2659 C   0  0  0  0  0  0  0  0  0  0  0  0
  -24.1644  -31.6576   23.2992 C   0  0  0  0  0  0  0  0  0  0  0  0
  -27.0004  -33.5173   23.6808 C   0  0  0  0  0  0  0  0  0  0  0  0
  -26.5019  -18.3226   15.1814 C   0  0  0  0  0  0  0  0  0  0  0  0
  -17.7590  -28.4846   22.9870 C   0  0  0  0  0  0  0  0  0  0  0  0
  -24.6724  -28.0252   23.7005 C   0  0  0  0  0  0  0  0  0  0  0  0
  -25.5964  -30.1532   21.8668 C   0  0  0  0  0  0  0  0  0  0  0  0
  -30.4626  -24.6570   19.7461 C   0  0  0  0  0  0  0  0  0  0  0  0
  -29.1855  -23.8386   17.8193 C   0  0  0  0  0  0  0  0  0  0  0  0
  -18.7284  -29.6267   22.6937 C   0  0  0  0  0  0  0  0  0  0  0  0
  -24.3207  -15.5676   15.7553 C   0  0  0  0  0  0  0  0  0  0  0  0
  -19.6463  -29.2625   21.5311 C   0  0  0  0  0  0  0  0  0  0  0  0
  -25.0045  -14.7928   16.8841 C   0  0  0  0  0  0  0  0  0  0  0  0
  -31.4280  -23.9203   18.8256 C   0  0  0  0  0  0  0  0  0  0  0  0
  -25.3352  -16.1652   14.7820 C   0  0  0  0  0  0  0  0  0  0  0  0
  -27.0683  -16.2085   16.5324 C   0  0  0  0  0  0  0  0  0  0  0  0
  -20.4991  -28.0328   21.8659 C   0  0  1  0  0  0  0  0  0  0  0  0
  -23.7908  -29.2188   23.3463 C   0  0  1  0  0  0  0  0  0  0  0  0
  -26.0894  -15.6427   17.5742 C   0  0  2  0  0  0  0  0  0  0  0  0
  -27.2901  -26.1846   18.0484 C   0  0  0  0  0  0  0  0  0  0  0  0
  -27.7985  -35.7423   24.5233 C   0  0  0  0  0  0  0  0  0  0  0  0
  -23.0652  -32.9996   20.7891 C   0  0  0  0  0  0  0  0  0  0  0  0
  -24.6495  -34.8955   21.1932 C   0  0  0  0  0  0  0  0  0  0  0  0
  -22.8801  -34.3716   22.8718 C   0  0  0  0  0  0  0  0  0  0  0  0
  -28.7352  -32.2538   25.7186 C   0  0  0  0  0  0  0  0  0  0  0  0
  -24.8619  -32.8198   22.6345 C   0  0  1  0  0  0  0  0  0  0  0  0
  -27.5505  -34.2827   24.8707 C   0  0  2  0  0  0  0  0  0  0  0  0
  -23.8739  -33.7450   21.8695 C   0  0  0  0  0  0  0  0  0  0  0  0
  -27.9284  -14.1965   18.3540 N   0  0  0  0  0  0  0  0  0  0  0  0
  -26.8044  -14.8651   18.6634 N   0  0  0  0  0  0  0  0  0  0  0  0
  -30.5443  -23.2720   17.8431 N   0  0  0  0  0  0  0  0  0  0  0  0
  -24.5631  -30.3767   22.8915 N   0  0  0  0  0  0  0  0  0  0  0  0
  -26.3291  -16.9605   15.5063 N   0  0  0  0  0  0  0  0  0  0  0  0
  -28.8575  -22.2126   12.6022 N   0  0  0  0  0  0  0  0  0  0  0  0
  -25.3338  -15.3616   20.4526 N   0  0  0  0  0  0  0  0  0  0  0  0
  -28.4649  -12.7357   22.3754 N   0  0  0  0  0  0  0  0  0  0  0  0
  -27.4516  -18.9848   15.9587 N   0  0  0  0  0  0  0  0  0  0  0  0
  -21.5968  -28.4003   22.7345 N   0  0  0  0  0  0  0  0  0  0  0  0
  -25.6217  -33.4932   23.6821 N   0  0  0  0  0  0  0  0  0  0  0  0
  -32.1704  -21.8036   17.1150 N   0  3  0  0  0  0  0  0  0  0  0  0
  -28.8373  -33.6821   25.3229 N   0  3  0  0  0  0  0  0  0  0  0  0
  -26.5308  -13.9083   22.7531 O   0  0  0  0  0  0  0  0  0  0  0  0
  -23.0912  -29.1061   21.0940 O   0  0  0  0  0  0  0  0  0  0  0  0
  -23.3028  -31.8780   24.1540 O   0  0  0  0  0  0  0  0  0  0  0  0
  -27.7215  -32.9964   22.8327 O   0  0  0  0  0  0  0  0  0  0  0  0
  -25.8357  -18.8687   14.2983 O   0  0  0  0  0  0  0  0  0  0  0  0
  -32.8785  -10.4753   19.8365 O   0  0  0  0  0  0  0  0  0  0  0  0
  -28.7056  -26.9452   19.8719 O   0  0  0  0  0  0  0  0  0  1  0  0
  -32.5232   -5.7081   22.5845 F   0  0  0  0  0  0  0  0  0  0  0  0
  -33.3903   -8.0693   18.5747 F   0  0  0  0  0  0  0  0  0  0  0  0
  1  2  1  0  0  0  0
  1  5  2  0  0  0  0
  2  6  2  0  0  0  0
  3  8  2  0  0  0  0
  3 18  1  0  0  0  0
  4  9  1  0  0  0  0
  4 18  2  0  0  0  0
  5 21  1  0  0  0  0
  6 23  1  0  0  0  0
  7 10  2  0  0  0  0
  7 22  1  0  0  0  0
  8 27  1  0  0  0  0
  9 27  2  0  0  0  0
 10 28  1  0  0  0  0
 11 12  2  0  0  0  0
 11 29  1  0  0  0  0
 12 30  1  0  0  0  0
 13 19  1  0  0  0  0
 13 25  2  0  0  0  0
 14 19  2  0  0  0  0
 14 26  1  0  0  0  0
 15 24  1  0  0  0  0
 15 28  2  0  0  0  0
 16 25  1  0  0  0  0
 16 26  2  0  0  0  0
 17 30  2  0  0  0  0
 17 31  1  0  0  0  0
 18 32  1  0  0  0  0
 19 35  1  0  0  0  0
 20 32  1  0  0  0  0
 20 33  2  0  0  0  0
 20 36  1  0  0  0  0
 21 23  2  0  0  0  0
 21 42  1  0  0  0  0
 22 24  2  0  0  0  0
 22 43  1  0  0  0  0
 23 54  1  0  0  0  0
 24 44  1  0  0  0  0
 25 71  1  0  0  0  0
 26 74  1  0  0  0  0
 27 84  1  0  0  0  0
 28 85  1  0  0  0  0
 29 31  2  0  0  0  0
 29 84  1  0  0  0  0
 30 86  1  0  0  0  0
 31 87  1  0  0  0  0
 32 66  2  0  0  0  0
 33 67  1  0  0  0  0
 33 72  1  0  0  0  0
 34 37  2  0  0  0  0
 34 45  1  0  0  0  0
 34 46  1  0  0  0  0
 35 68  1  0  0  0  0
 35 77  2  0  0  0  0
 36 73  1  0  0  0  0
 36 79  2  0  0  0  0
 37 57  1  0  0  0  0
 37 85  1  0  0  0  0
 38 55  1  0  0  0  0
 38 75  1  0  0  0  0
 38 80  2  0  0  0  0
 39 63  1  0  0  0  0
 39 69  1  0  0  0  0
 39 81  2  0  0  0  0
 40 64  1  0  0  0  0
 40 76  1  0  0  0  0
 40 82  2  0  0  0  0
 41 70  1  0  0  0  0
 41 74  1  0  0  0  0
 41 83  2  0  0  0  0
 42 47  1  0  0  0  0
 43 55  1  0  0  0  0
 44 69  1  0  0  0  0
 45 51  1  0  0  0  0
 46 68  1  0  0  0  0
 47 49  1  0  0  0  0
 48 50  1  0  0  0  0
 48 52  1  0  0  0  0
 49 54  1  0  0  0  0
 50 56  1  0  0  0  0
 51 68  1  0  0  0  0
 52 70  1  0  0  0  0
 53 56  1  0  0  0  0
 53 70  1  0  0  0  0
 54 75  1  0  0  0  0
 55 69  1  0  0  0  0
 56 67  1  0  0  0  0
 58 64  1  0  0  0  0
 59 65  1  0  0  0  0
 60 65  1  0  0  0  0
 61 65  1  0  0  0  0
 62 78  1  0  0  0  0
 63 65  1  0  0  0  0
 63 76  1  0  0  0  0
 64 78  1  0  0  0  0
 66 67  1  0  0  0  0
M  CHG  2  77   1  78   1
M  ISO  4  37 101  41 100  74 100  85 101
M  END
> <Batch ID>
0148

> <Smiles>
CNC(C)C(=O)NC(C(=O)N1Cc2cc([101O:1][101C:1](C)=C3CCN(C(=N)c4cc(N)cc([100NH:0][100C:0](=O)N5CCCC(n6nc(-c7ccc(Oc8ccc(F)cc8F)cc7)c(C(N)=O)c6N)C5)c4)C3)ccc2CC1C(=O)NC1CCCc2ccccc21)C(C)(C)C

> <Shape>
0.236

> <Color>
0.099

> <Negative vol penalty>
0.000

$$$$

  -OEChem-04052303163D

 86 95  0     1  0  0  0  0  0999 V2000
  -25.8308  -35.7890   15.6036 C   0  0  0  0  0  0  0  0  0  0  0  0
  -26.0234  -34.4127   15.6670 C   0  0  0  0  0  0  0  0  0  0  0  0
  -25.7453  -12.0745   19.6996 C   0  0  0  0  0  0  0  0  0  0  0  0
  -26.9982  -11.9189   21.7594 C   0  0  0  0  0  0  0  0  0  0  0  0
  -26.0009  -36.5690   16.7467 C   0  0  0  0  0  0  0  0  0  0  0  0
  -26.3872  -33.8156   16.8735 C   0  0  0  0  0  0  0  0  0  0  0  0
  -24.7094  -28.2842   18.8969 C   0  0  0  0  0  0  0  0  0  0  0  0
  -24.6799  -11.4008   20.2967 C   0  0  0  0  0  0  0  0  0  0  0  0
  -25.9328  -11.2452   22.3566 C   0  0  0  0  0  0  0  0  0  0  0  0
  -25.3512  -27.0466   18.8849 C   0  0  0  0  0  0  0  0  0  0  0  0
  -23.8703   -8.2121   21.0720 C   0  0  0  0  0  0  0  0  0  0  0  0
  -23.2591   -7.1921   20.3429 C   0  0  0  0  0  0  0  0  0  0  0  0
  -27.1286  -22.0342   17.1807 C   0  0  0  0  0  0  0  0  0  0  0  0
  -27.1504  -20.6754   17.5762 C   0  0  0  0  0  0  0  0  0  0  0  0
  -26.1273  -27.4340   21.1358 C   0  0  0  0  0  0  0  0  0  0  0  0
  -21.1585   -8.3816   20.4398 C   0  0  0  0  0  0  0  0  0  0  0  0
  -26.9045  -12.3335   20.4309 C   0  0  0  0  0  0  0  0  0  0  0  0
  -28.7378  -12.6265   18.6814 C   0  0  0  0  0  0  0  0  0  0  0  0
  -26.3575  -35.9800   17.9700 C   0  0  0  0  0  0  0  0  0  0  0  0
  -24.7809  -29.1121   20.0264 C   0  0  0  0  0  0  0  0  0  0  0  0
  -26.5634  -34.5886   18.0337 C   0  0  0  0  0  0  0  0  0  0  0  0
  -25.4833  -28.6805   21.1606 C   0  0  0  0  0  0  0  0  0  0  0  0
  -24.7736  -10.9862   21.6252 C   0  0  0  0  0  0  0  0  0  0  0  0
  -26.0628  -26.6226   20.0034 C   0  0  0  0  0  0  0  0  0  0  0  0
  -23.1256   -9.3168   21.4852 C   0  0  0  0  0  0  0  0  0  0  0  0
  -21.9032   -7.2769   20.0268 C   0  0  0  0  0  0  0  0  0  0  0  0
  -21.7697   -9.4016   21.1690 C   0  0  0  0  0  0  0  0  0  0  0  0
  -28.0057  -13.0289   19.8145 C   0  0  0  0  0  0  0  0  0  0  0  0
  -28.1758  -22.6395   17.8356 C   0  0  0  0  0  0  0  0  0  0  0  0
  -29.6674  -13.6216   18.5020 C   0  0  0  0  0  0  0  0  0  0  0  0
  -28.2096  -20.5472   18.4444 C   0  0  0  0  0  0  0  0  0  0  0  0
  -31.0527  -25.2107   20.7221 C   0  0  0  0  0  0  0  0  0  0  0  0
  -31.5852  -25.8906   21.7470 C   0  0  0  0  0  0  0  0  0  0  0  0
  -28.5907  -11.4578   17.8640 C   0  0  0  0  0  0  0  0  0  0  0  0
  -28.5341  -24.0645   17.7208 C   0  0  0  0  0  0  0  0  0  0  0  0
  -25.9364  -32.0152   20.6101 C   0  0  0  0  0  0  0  0  0  0  0  0
  -24.5635  -31.5530   23.5124 C   0  0  0  0  0  0  0  0  0  0  0  0
  -23.4355  -29.3551   25.8669 C   0  0  0  0  0  0  0  0  0  0  0  0
  -29.8064  -19.3995   20.0190 C   0  0  0  0  0  0  0  0  0  0  0  0
  -26.5760  -36.8699   19.1678 C   0  0  0  0  0  0  0  0  0  0  0  0
  -24.0606  -30.4326   20.0332 C   0  0  0  0  0  0  0  0  0  0  0  0
  -25.5735  -29.5231   22.4057 C   0  0  0  0  0  0  0  0  0  0  0  0
  -31.3408  -25.5454   19.2832 C   0  0  0  0  0  0  0  0  0  0  0  0
  -30.1051  -24.0553   20.9133 C   0  0  0  0  0  0  0  0  0  0  0  0
  -26.5965  -36.1130   20.4933 C   0  0  0  0  0  0  0  0  0  0  0  0
  -32.1647  -16.8977   20.9443 C   0  0  0  0  0  0  0  0  0  0  0  0
  -27.4765  -34.8717   20.3857 C   0  0  0  0  0  0  0  0  0  0  0  0
  -31.4347  -15.5850   20.6507 C   0  0  0  0  0  0  0  0  0  0  0  0
  -30.0433  -25.8028   18.5264 C   0  0  0  0  0  0  0  0  0  0  0  0
  -31.2150  -17.9669   21.4814 C   0  0  0  0  0  0  0  0  0  0  0  0
  -29.2971  -16.9017   20.3607 C   0  0  0  0  0  0  0  0  0  0  0  0
  -26.9343  -33.9009   19.3298 C   0  0  1  0  0  0  0  0  0  0  0  0
  -24.6294  -31.4182   21.0493 C   0  0  1  0  0  0  0  0  0  0  0  0
  -30.2005  -15.8144   19.7564 C   0  0  2  0  0  0  0  0  0  0  0  0
  -28.7940  -24.2595   20.1441 C   0  0  1  0  0  0  0  0  0  0  0  0
  -22.4005  -29.2750   28.1515 C   0  0  0  0  0  0  0  0  0  0  0  0
  -27.2682  -32.2183   24.7584 C   0  0  0  0  0  0  0  0  0  0  0  0
  -26.4494  -31.2152   26.9013 C   0  0  0  0  0  0  0  0  0  0  0  0
  -25.3017  -33.2115   25.9420 C   0  0  0  0  0  0  0  0  0  0  0  0
  -21.0177  -27.9840   24.8504 C   0  0  0  0  0  0  0  0  0  0  0  0
  -27.8714  -25.2913   20.7859 C   0  0  0  0  0  0  0  0  0  1  0  0
  -25.0140  -30.9612   24.8261 C   0  0  1  0  0  0  0  0  0  0  0  0
  -22.1385  -29.2996   26.6537 C   0  0  2  0  0  0  0  0  0  0  0  0
  -26.0084  -31.8863   25.5829 C   0  0  0  0  0  0  0  0  0  0  0  0
  -28.4335  -14.1890   20.3195 N   0  0  0  0  0  0  0  0  0  0  0  0
  -29.4445  -14.5242   19.4999 N   0  0  0  0  0  0  0  0  0  0  0  0
  -29.1037  -24.6788   18.7506 N   0  0  0  0  0  0  0  0  0  0  0  0
  -24.8577  -30.8089   22.3611 N   0  0  0  0  0  0  0  0  0  0  0  0
  -30.0723  -18.1327   20.5805 N   0  0  0  0  0  0  0  0  0  0  0  0
  -30.6456  -13.8038   17.5897 N   0  0  0  0  0  0  0  0  0  0  0  0
  -29.3116  -10.3063   18.2086 N   0  0  0  0  0  0  0  0  0  0  0  0
  -28.7142  -19.4284   19.1524 N   0  0  0  0  0  0  0  0  0  0  0  0
  -25.8042  -33.1640   19.8536 N   0  0  0  0  0  0  0  0  0  0  0  0
  -23.7992  -30.6521   25.5726 N   0  0  0  0  0  0  0  0  0  0  0  0
  -28.2828  -24.7121   16.5869 N   0  3  0  0  0  0  0  0  0  0  0  0
  -21.3649  -28.0783   26.2918 N   0  3  0  0  0  0  0  0  0  0  0  0
  -27.8547  -11.4403   16.8483 O   0  0  0  0  0  0  0  0  0  0  0  0
  -26.9871  -31.4744   20.9347 O   0  0  0  0  0  0  0  0  0  0  0  0
  -23.9661  -32.6322   23.5086 O   0  0  0  0  0  0  0  0  0  0  0  0
  -24.0651  -28.3487   25.5487 O   0  0  0  0  0  0  0  0  0  0  0  0
  -30.5132  -20.3801   20.2659 O   0  0  0  0  0  0  0  0  0  0  0  0
  -28.8398  -21.7399   18.6079 O   0  0  0  0  0  0  0  0  0  0  0  0
  -23.7340  -10.3290   22.2083 O   0  0  0  0  0  0  0  0  0  0  0  0
  -26.6907  -25.4154   19.9941 O   0  0  0  0  0  0  0  0  0  1  0  0
  -21.3168   -6.2981   19.3252 F   0  0  0  0  0  0  0  0  0  0  0  0
  -21.0493  -10.4610   21.5622 F   0  0  0  0  0  0  0  0  0  0  0  0
  1  2  1  0  0  0  0
  1  5  2  0  0  0  0
  2  6  2  0  0  0  0
  3  8  2  0  0  0  0
  3 17  1  0  0  0  0
  4  9  1  0  0  0  0
  4 17  2  0  0  0  0
  5 19  1  0  0  0  0
  6 21  1  0  0  0  0
  7 10  2  0  0  0  0
  7 20  1  0  0  0  0
  8 23  1  0  0  0  0
  9 23  2  0  0  0  0
 10 24  1  0  0  0  0
 11 12  2  0  0  0  0
 11 25  1  0  0  0  0
 12 26  1  0  0  0  0
 13 14  1  0  0  0  0
 13 29  2  0  0  0  0
 14 31  2  0  0  0  0
 15 22  1  0  0  0  0
 15 24  2  0  0  0  0
 16 26  2  0  0  0  0
 16 27  1  0  0  0  0
 17 28  1  0  0  0  0
 18 28  1  0  0  0  0
 18 30  2  0  0  0  0
 18 34  1  0  0  0  0
 19 21  2  0  0  0  0
 19 40  1  0  0  0  0
 20 22  2  0  0  0  0
 20 41  1  0  0  0  0
 21 52  1  0  0  0  0
 22 42  1  0  0  0  0
 23 83  1  0  0  0  0
 24 84  1  0  0  0  0
 25 27  2  0  0  0  0
 25 83  1  0  0  0  0
 26 85  1  0  0  0  0
 27 86  1  0  0  0  0
 28 65  2  0  0  0  0
 29 35  1  0  0  0  0
 29 82  1  0  0  0  0
 30 66  1  0  0  0  0
 30 70  1  0  0  0  0
 31 72  1  0  0  0  0
 31 82  1  0  0  0  0
 32 33  2  0  0  0  0
 32 43  1  0  0  0  0
 32 44  1  0  0  0  0
 34 71  1  0  0  0  0
 34 77  2  0  0  0  0
 35 67  1  0  0  0  0
 35 75  2  0  0  0  0
 36 53  1  0  0  0  0
 36 73  1  0  0  0  0
 36 78  2  0  0  0  0
 37 62  1  0  0  0  0
 37 68  1  0  0  0  0
 37 79  2  0  0  0  0
 38 63  1  0  0  0  0
 38 74  1  0  0  0  0
 38 80  2  0  0  0  0
 39 69  1  0  0  0  0
 39 72  1  0  0  0  0
 39 81  2  0  0  0  0
 40 45  1  0  0  0  0
 41 53  1  0  0  0  0
 42 68  1  0  0  0  0
 43 49  1  0  0  0  0
 44 55  1  0  0  0  0
 45 47  1  0  0  0  0
 46 48  1  0  0  0  0
 46 50  1  0  0  0  0
 47 52  1  0  0  0  0
 48 54  1  0  0  0  0
 49 67  1  0  0  0  0
 50 69  1  0  0  0  0
 51 54  1  0  0  0  0
 51 69  1  0  0  0  0
 52 73  1  0  0  0  0
 53 68  1  0  0  0  0
 54 66  1  0  0  0  0
 55 61  1  0  0  0  0
 55 67  1  0  0  0  0
 56 63  1  0  0  0  0
 57 64  1  0  0  0  0
 58 64  1  0  0  0  0
 59 64  1  0  0  0  0
 60 76  1  0  0  0  0
 61 84  1  0  0  0  0
 62 64  1  0  0  0  0
 62 74  1  0  0  0  0
 63 76  1  0  0  0  0
 65 66  1  0  0  0  0
M  CHG  2  75   1  76   1
M  ISO  4  39 100  61 101  72 100  84 101
M  END
> <Batch ID>
0148

> <Smiles>
C=C1CCN(C(=N)c2ccc([100NH:0][100C:0](=O)N3CCCC(n4nc(-c5ccc(Oc6ccc(F)cc6F)cc5)c(C(N)=O)c4N)C3)o2)C([101CH2:1][101O:1]c2ccc3c(c2)CN(C(=O)C(NC(=O)C(C)NC)C(C)(C)C)C(C(=O)NC2CCCc4ccccc42)C3)C1

> <Shape>
0.297

> <Color>
0.073

> <Negative vol penalty>
0.000

$$$$

  -OEChem-04052303163D

 91100  0     1  0  0  0  0  0999 V2000
  -29.5366  -15.7397   15.1993 C   0  0  0  0  0  0  0  0  0  0  0  0
  -29.3487  -16.4506   16.3803 C   0  0  0  0  0  0  0  0  0  0  0  0
  -23.0718   -9.8747   19.9229 C   0  0  0  0  0  0  0  0  0  0  0  0
  -23.8437   -9.8477   22.2121 C   0  0  0  0  0  0  0  0  0  0  0  0
  -30.4343  -16.2076   14.2406 C   0  0  0  0  0  0  0  0  0  0  0  0
  -30.0593  -17.6295   16.6036 C   0  0  0  0  0  0  0  0  0  0  0  0
  -27.1416  -21.3379   18.4418 C   0  0  0  0  0  0  0  0  0  0  0  0
  -24.7264  -22.9804   24.5299 C   0  0  0  0  0  0  0  0  0  0  0  0
  -24.4950  -22.8120   25.8950 C   0  0  0  0  0  0  0  0  0  0  0  0
  -22.3298   -8.7175   20.1594 C   0  0  0  0  0  0  0  0  0  0  0  0
  -23.1016   -8.6905   22.4486 C   0  0  0  0  0  0  0  0  0  0  0  0
  -26.8207  -21.2830   19.7975 C   0  0  0  0  0  0  0  0  0  0  0  0
  -21.1249   -5.9326   23.7543 C   0  0  0  0  0  0  0  0  0  0  0  0
  -20.3748   -5.8710   24.9286 C   0  0  0  0  0  0  0  0  0  0  0  0
  -28.5411  -22.9082   20.2644 C   0  0  0  0  0  0  0  0  0  0  0  0
  -26.8005  -22.1598   26.2054 C   0  0  0  0  0  0  0  0  0  0  0  0
  -29.5647  -17.9736   22.4114 C   0  0  0  0  0  0  0  0  0  0  0  0
  -19.1255   -7.8184   24.2327 C   0  0  0  0  0  0  0  0  0  0  0  0
  -31.1168  -17.7556   20.6951 C   0  0  0  0  0  0  0  0  0  0  0  0
  -23.8288  -10.4398   20.9492 C   0  0  0  0  0  0  0  0  0  0  0  0
  -24.1689  -12.9666   20.8654 C   0  0  0  0  0  0  0  0  0  0  0  0
  -31.1490  -17.3978   14.4481 C   0  0  0  0  0  0  0  0  0  0  0  0
  -28.1736  -22.1717   17.9879 C   0  0  0  0  0  0  0  0  0  0  0  0
  -30.9684  -18.1130   15.6473 C   0  0  0  0  0  0  0  0  0  0  0  0
  -28.8714  -22.9739   18.9021 C   0  0  0  0  0  0  0  0  0  0  0  0
  -25.9949  -22.7383   24.0024 C   0  0  0  0  0  0  0  0  0  0  0  0
  -27.0319  -22.3281   24.8402 C   0  0  0  0  0  0  0  0  0  0  0  0
  -25.5320  -22.4017   26.7328 C   0  0  0  0  0  0  0  0  0  0  0  0
  -30.2516  -17.0869   21.5328 C   0  0  0  0  0  0  0  0  0  0  0  0
  -22.3447   -8.1254   21.4222 C   0  0  0  0  0  0  0  0  0  0  0  0
  -27.5224  -22.0660   20.7094 C   0  0  0  0  0  0  0  0  0  0  0  0
  -20.8754   -6.9371   22.8192 C   0  0  0  0  0  0  0  0  0  0  0  0
  -19.3751   -6.8139   25.1679 C   0  0  0  0  0  0  0  0  0  0  0  0
  -19.8757   -7.8800   23.0584 C   0  0  0  0  0  0  0  0  0  0  0  0
  -24.5960  -11.6348   20.7054 C   0  0  0  0  0  0  0  0  0  0  0  0
  -25.2588  -13.7221   20.5077 C   0  0  0  0  0  0  0  0  0  0  0  0
  -29.9313  -19.2866   22.2118 C   0  0  0  0  0  0  0  0  0  0  0  0
  -22.9003  -13.4754   21.2986 C   0  0  0  0  0  0  0  0  0  0  0  0
  -30.9532  -21.7038   16.5186 C   0  0  0  0  0  0  0  0  0  0  0  0
  -30.9954  -24.9454   16.4061 C   0  0  0  0  0  0  0  0  0  0  0  0
  -28.5769  -20.5975   23.8816 C   0  0  0  0  0  0  0  0  0  0  0  0
  -29.9194  -27.9043   17.7230 C   0  0  0  0  0  0  0  0  0  0  0  0
  -30.7252  -14.7681   20.6696 C   0  0  0  0  0  0  0  0  0  0  0  0
  -32.1434  -17.8390   13.4035 C   0  0  0  0  0  0  0  0  0  0  0  0
  -28.4896  -22.2395   16.5189 C   0  0  0  0  0  0  0  0  0  0  0  0
  -29.9744  -23.9008   18.4633 C   0  0  0  0  0  0  0  0  0  0  0  0
  -32.5789  -19.2943   13.5532 C   0  0  0  0  0  0  0  0  0  0  0  0
  -29.5997  -12.3892   18.2713 C   0  0  0  0  0  0  0  0  0  0  0  0
  -32.9228  -19.6017   15.0072 C   0  0  0  0  0  0  0  0  0  0  0  0
  -28.1625  -12.0904   18.7040 C   0  0  0  0  0  0  0  0  0  0  0  0
  -30.5210  -12.6006   19.4715 C   0  0  0  0  0  0  0  0  0  0  0  0
  -28.6208  -13.3033   20.8733 C   0  0  0  0  0  0  0  0  0  0  0  0
  -31.7022  -19.4091   15.9154 C   0  0  1  0  0  0  0  0  0  0  0  0
  -29.9025  -22.7396   16.2341 C   0  0  1  0  0  0  0  0  0  0  0  0
  -27.6420  -13.1471   19.6981 C   0  0  2  0  0  0  0  0  0  0  0  0
  -30.1547  -30.3869   17.4421 C   0  0  0  0  0  0  0  0  0  0  0  0
  -24.9377  -22.6434   21.7170 C   0  0  0  0  0  0  0  0  0  0  0  0
  -26.7427  -24.3398   22.1997 C   0  0  0  0  0  0  0  0  0  0  0  0
  -33.7490  -24.8302   17.7155 C   0  0  0  0  0  0  0  0  0  0  0  0
  -33.5116  -27.2608   18.2669 C   0  0  0  0  0  0  0  0  0  0  0  0
  -33.5343  -26.5204   15.8848 C   0  0  0  0  0  0  0  0  0  0  0  0
  -27.0309  -28.2321   17.1684 C   0  0  0  0  0  0  0  0  0  0  0  0
  -28.3978  -22.0616   24.2979 C   0  0  2  0  0  0  0  0  0  0  0  0
  -31.5040  -26.0400   17.3128 C   0  0  1  0  0  0  0  0  0  0  0  0
  -29.3514  -29.1507   17.0686 C   0  0  2  0  0  0  0  0  0  0  0  0
  -26.2231  -22.9284   22.5049 C   0  0  0  0  0  0  0  0  0  1  0  0
  -33.0553  -26.1441   17.3038 C   0  0  0  0  0  0  0  0  0  0  0  0
  -25.8587  -11.5459   20.2792 N   0  0  0  0  0  0  0  0  0  0  0  0
  -26.2343  -12.8315   20.1682 N   0  0  0  0  0  0  0  0  0  0  0  0
  -30.2504  -23.9269   17.0173 N   0  0  0  0  0  0  0  0  0  0  0  0
  -29.9660  -13.6179   20.3671 N   0  0  0  0  0  0  0  0  0  0  0  0
  -25.2978  -22.2326   28.1133 N   0  0  0  0  0  0  0  0  0  0  0  0
  -25.4682  -15.0546   20.4536 N   0  0  0  0  0  0  0  0  0  0  0  0
  -21.8906  -12.5607   21.6274 N   0  0  0  0  0  0  0  0  0  0  0  0
  -30.0817  -15.6804   21.5050 N   0  0  0  0  0  0  0  0  0  0  0  0
  -29.5065  -20.4743   22.8531 N   0  0  0  0  0  0  0  0  0  0  0  0
  -30.8012  -20.5353   15.7967 N   0  0  0  0  0  0  0  0  0  0  0  0
  -30.8208  -27.2615   16.9010 N   0  0  0  0  0  0  0  0  0  0  0  0
  -29.5020  -22.4369   25.2501 N   0  3  0  0  0  0  0  0  0  0  0  0
  -27.9390  -29.3616   17.4948 N   0  3  0  0  0  0  0  0  0  0  0  0
  -22.6638  -14.7049   21.3756 O   0  0  0  0  0  0  0  0  0  0  0  0
  -31.8372  -21.9473   17.3316 O   0  0  0  0  0  0  0  0  0  0  0  0
  -31.2438  -24.9960   15.1989 O   0  0  0  0  0  0  0  0  0  0  0  0
  -27.9329  -19.6970   24.4131 O   0  0  0  0  0  0  0  0  0  0  0  0
  -29.5987  -27.5395   18.8520 O   0  0  0  0  0  0  0  0  0  0  0  0
  -31.8518  -14.9444   20.1987 O   0  0  0  0  0  0  0  0  0  0  0  0
  -21.6205   -6.9964   21.6534 O   0  0  0  0  0  0  0  0  0  0  0  0
  -27.2117  -22.0138   22.0332 O   0  0  0  0  0  0  0  0  0  1  0  0
  -18.6538   -6.7537   26.2949 F   0  0  0  0  0  0  0  0  0  0  0  0
  -19.6306   -8.8466   22.1632 F   0  0  0  0  0  0  0  0  0  0  0  0
  -31.0988  -19.4458   20.9693 S   0  0  0  0  0  0  0  0  0  0  0  0
  1  2  1  0  0  0  0
  1  5  2  0  0  0  0
  2  6  2  0  0  0  0
  3 10  2  0  0  0  0
  3 20  1  0  0  0  0
  4 11  1  0  0  0  0
  4 20  2  0  0  0  0
  5 22  1  0  0  0  0
  6 24  1  0  0  0  0
  7 12  2  0  0  0  0
  7 23  1  0  0  0  0
  8  9  2  0  0  0  0
  8 26  1  0  0  0  0
  9 28  1  0  0  0  0
 10 30  1  0  0  0  0
 11 30  2  0  0  0  0
 12 31  1  0  0  0  0
 13 14  2  0  0  0  0
 13 32  1  0  0  0  0
 14 33  1  0  0  0  0
 15 25  1  0  0  0  0
 15 31  2  0  0  0  0
 16 27  1  0  0  0  0
 16 28  2  0  0  0  0
 17 29  1  0  0  0  0
 17 37  2  0  0  0  0
 18 33  2  0  0  0  0
 18 34  1  0  0  0  0
 19 29  2  0  0  0  0
 19 91  1  0  0  0  0
 20 35  1  0  0  0  0
 21 35  1  0  0  0  0
 21 36  2  0  0  0  0
 21 38  1  0  0  0  0
 22 24  2  0  0  0  0
 22 44  1  0  0  0  0
 23 25  2  0  0  0  0
 23 45  1  0  0  0  0
 24 53  1  0  0  0  0
 25 46  1  0  0  0  0
 26 27  2  0  0  0  0
 26 66  1  0  0  0  0
 27 63  1  0  0  0  0
 28 72  1  0  0  0  0
 29 75  1  0  0  0  0
 30 87  1  0  0  0  0
 31 88  1  0  0  0  0
 32 34  2  0  0  0  0
 32 87  1  0  0  0  0
 33 89  1  0  0  0  0
 34 90  1  0  0  0  0
 35 68  2  0  0  0  0
 36 69  1  0  0  0  0
 36 73  1  0  0  0  0
 37 76  1  0  0  0  0
 37 91  1  0  0  0  0
 38 74  1  0  0  0  0
 38 81  2  0  0  0  0
 39 54  1  0  0  0  0
 39 77  1  0  0  0  0
 39 82  2  0  0  0  0
 40 64  1  0  0  0  0
 40 70  1  0  0  0  0
 40 83  2  0  0  0  0
 41 63  1  0  0  0  0
 41 76  1  0  0  0  0
 41 84  2  0  0  0  0
 42 65  1  0  0  0  0
 42 78  1  0  0  0  0
 42 85  2  0  0  0  0
 43 71  1  0  0  0  0
 43 75  1  0  0  0  0
 43 86  2  0  0  0  0
 44 47  1  0  0  0  0
 45 54  1  0  0  0  0
 46 70  1  0  0  0  0
 47 49  1  0  0  0  0
 48 50  1  0  0  0  0
 48 51  1  0  0  0  0
 49 53  1  0  0  0  0
 50 55  1  0  0  0  0
 51 71  1  0  0  0  0
 52 55  1  0  0  0  0
 52 71  1  0  0  0  0
 53 77  1  0  0  0  0
 54 70  1  0  0  0  0
 55 69  1  0  0  0  0
 56 65  1  0  0  0  0
 57 66  1  0  0  0  0
 58 66  1  0  0  0  0
 59 67  1  0  0  0  0
 60 67  1  0  0  0  0
 61 67  1  0  0  0  0
 62 80  1  0  0  0  0
 63 79  1  0  0  0  0
 64 67  1  0  0  0  0
 64 78  1  0  0  0  0
 65 80  1  0  0  0  0
 66 88  1  0  0  0  0
 68 69  1  0  0  0  0
M  CHG  2  79   1  80   1
M  ISO  4  43 100  66 101  75 100  88 101
M  END
> <Batch ID>
0148

> <Smiles>
CNC(C)C(=O)NC(C(=O)N1Cc2cc([101O:1][101C:1](C)(C)c3ccc(N)cc3C(N)C(=O)Nc3cc([100NH:0][100C:0](=O)N4CCCC(n5nc(-c6ccc(Oc7ccc(F)cc7F)cc6)c(C(N)=O)c5N)C4)cs3)ccc2CC1C(=O)NC1CCCc2ccccc21)C(C)(C)C

> <Shape>
0.224

> <Color>
0.170

> <Negative vol penalty>
0.000

$$$$

  -OEChem-04052303163D

 86 94  0     1  0  0  0  0  0999 V2000
  -18.0040  -32.3780   19.8367 C   0  0  0  0  0  0  0  0  0  0  0  0
  -19.3541  -32.2383   19.5318 C   0  0  0  0  0  0  0  0  0  0  0  0
  -24.2309  -12.3596   20.9599 C   0  0  0  0  0  0  0  0  0  0  0  0
  -26.5997  -12.5602   21.3907 C   0  0  0  0  0  0  0  0  0  0  0  0
  -17.5330  -32.0087   21.0960 C   0  0  0  0  0  0  0  0  0  0  0  0
  -20.2343  -31.7301   20.4865 C   0  0  0  0  0  0  0  0  0  0  0  0
  -25.1333  -28.1991   19.4673 C   0  0  0  0  0  0  0  0  0  0  0  0
  -24.3580  -10.9716   20.9070 C   0  0  0  0  0  0  0  0  0  0  0  0
  -26.7268  -11.1722   21.3379 C   0  0  0  0  0  0  0  0  0  0  0  0
  -26.4938  -28.4879   19.3701 C   0  0  0  0  0  0  0  0  0  0  0  0
  -24.6336   -8.4102   23.0970 C   0  0  0  0  0  0  0  0  0  0  0  0
  -23.6854   -7.6460   23.7771 C   0  0  0  0  0  0  0  0  0  0  0  0
  -26.7786  -27.8987   21.6919 C   0  0  0  0  0  0  0  0  0  0  0  0
  -23.0463   -6.5904   21.7000 C   0  0  0  0  0  0  0  0  0  0  0  0
  -29.6437  -23.3094   22.1936 C   0  0  0  0  0  0  0  0  0  0  0  0
  -25.3517  -13.1539   21.2017 C   0  0  0  0  0  0  0  0  0  0  0  0
  -29.8738  -23.6637   20.8825 C   0  0  0  0  0  0  0  0  0  0  0  0
  -24.9482  -15.3743   22.3912 C   0  0  0  0  0  0  0  0  0  0  0  0
  -18.4062  -31.4867   22.0633 C   0  0  0  0  0  0  0  0  0  0  0  0
  -24.5823  -27.7677   20.6825 C   0  0  0  0  0  0  0  0  0  0  0  0
  -19.7748  -31.3547   21.7603 C   0  0  0  0  0  0  0  0  0  0  0  0
  -25.4113  -27.6027   21.8013 C   0  0  0  0  0  0  0  0  0  0  0  0
  -29.1009  -22.8845   19.9739 C   0  0  0  0  0  0  0  0  0  0  0  0
  -25.6060  -10.3778   21.0960 C   0  0  0  0  0  0  0  0  0  0  0  0
  -27.3161  -28.3405   20.4832 C   0  0  0  0  0  0  0  0  0  0  0  0
  -24.7881   -8.2645   21.7183 C   0  0  0  0  0  0  0  0  0  0  0  0
  -22.8918   -6.7360   23.0786 C   0  0  0  0  0  0  0  0  0  0  0  0
  -23.9945   -7.3546   21.0199 C   0  0  0  0  0  0  0  0  0  0  0  0
  -25.2211  -14.5878   21.2559 C   0  0  0  0  0  0  0  0  0  0  0  0
  -24.9258  -16.6636   21.9184 C   0  0  0  0  0  0  0  0  0  0  0  0
  -28.3094  -21.9641   20.6253 C   0  0  0  0  0  0  0  0  0  0  0  0
  -30.8326  -24.7461   20.5171 C   0  0  0  0  0  0  0  0  0  0  0  0
  -24.7341  -14.9750   23.7515 C   0  0  0  0  0  0  0  0  0  0  0  0
  -22.3831  -28.9032   22.6770 C   0  0  0  0  0  0  0  0  0  0  0  0
  -30.8771  -27.7071   20.5703 C   0  0  0  0  0  0  0  0  0  0  0  0
  -22.8400  -26.0642   24.1783 C   0  0  0  0  0  0  0  0  0  0  0  0
  -24.8939  -23.4085   24.7912 C   0  0  0  0  0  0  0  0  0  0  0  0
  -27.0732  -20.7458   18.7994 C   0  0  0  0  0  0  0  0  0  0  0  0
  -17.8590  -31.1456   23.4267 C   0  0  0  0  0  0  0  0  0  0  0  0
  -23.1177  -27.4347   20.7639 C   0  0  0  0  0  0  0  0  0  0  0  0
  -24.8727  -27.1231   23.1235 C   0  0  0  0  0  0  0  0  0  0  0  0
  -18.7915  -30.2650   24.2544 C   0  0  0  0  0  0  0  0  0  0  0  0
  -24.9067  -18.4332   17.1760 C   0  0  0  0  0  0  0  0  0  0  0  0
  -20.2196  -30.7980   24.1972 C   0  0  0  0  0  0  0  0  0  0  0  0
  -24.7729  -17.2913   18.1861 C   0  0  0  0  0  0  0  0  0  0  0  0
  -26.3145  -19.0263   17.1737 C   0  0  0  0  0  0  0  0  0  0  0  0
  -26.6805  -18.3023   19.4999 C   0  0  0  0  0  0  0  0  0  0  0  0
  -20.7565  -30.7842   22.7608 C   0  0  1  0  0  0  0  0  0  0  0  0
  -22.5693  -27.4953   22.1862 C   0  0  1  0  0  0  0  0  0  0  0  0
  -25.2618  -17.7160   19.5848 C   0  0  2  0  0  0  0  0  0  0  0  0
  -25.6049  -21.1703   25.6756 C   0  0  0  0  0  0  0  0  0  0  0  0
  -32.3150  -27.6723   22.6497 C   0  0  0  0  0  0  0  0  0  0  0  0
  -33.2430  -26.9330   20.4627 C   0  0  0  0  0  0  0  0  0  0  0  0
  -23.3479  -27.6429   26.7395 C   0  0  0  0  0  0  0  0  0  0  0  0
  -24.3638  -25.5789   27.7275 C   0  0  0  0  0  0  0  0  0  0  0  0
  -21.9654  -25.5809   27.0418 C   0  0  0  0  0  0  0  0  0  0  0  0
  -23.9018  -22.0105   22.3787 C   0  0  0  0  0  0  0  0  0  0  0  0
  -31.5724  -25.4730   21.6382 C   0  0  0  0  0  0  0  0  0  0  0  0
  -29.5244  -27.8881   21.2414 C   0  0  0  0  0  0  0  0  0  1  0  0
  -23.7628  -25.5653   25.2639 C   0  0  1  0  0  0  0  0  0  0  0  0
  -24.6411  -21.9120   24.7625 C   0  0  2  0  0  0  0  0  0  0  0  0
  -31.9749  -26.9366   21.3378 C   0  0  0  0  0  0  0  0  0  0  0  0
  -23.3701  -26.1029   26.6689 C   0  0  0  0  0  0  0  0  0  0  0  0
  -25.3619  -15.3166   20.1455 N   0  0  0  0  0  0  0  0  0  0  0  0
  -25.1766  -16.5745   20.5807 N   0  0  0  0  0  0  0  0  0  0  0  0
  -23.4330  -26.8164   23.1544 N   0  0  0  0  0  0  0  0  0  0  0  0
  -26.7084  -19.4095   18.5313 N   0  0  0  0  0  0  0  0  0  0  0  0
  -29.1360  -23.0277   18.6266 N   0  0  0  0  0  0  0  0  0  0  0  0
  -24.7163  -17.8536   22.5205 N   0  0  0  0  0  0  0  0  0  0  0  0
  -24.7921  -13.6101   24.0642 N   0  0  0  0  0  0  0  0  0  0  0  0
  -27.3969  -20.9988   20.1320 N   0  0  0  0  0  0  0  0  0  0  0  0
  -21.1464  -29.4435   22.3800 N   0  0  0  0  0  0  0  0  0  0  0  0
  -23.7657  -24.1101   25.1603 N   0  0  0  0  0  0  0  0  0  0  0  0
  -24.8058  -21.3853   23.3781 N   0  3  0  0  0  0  0  0  0  0  0  0
  -31.0089  -25.0029   19.3291 O   0  0  0  0  0  0  0  0  0  0  0  0
  -24.4822  -15.8028   24.6597 O   0  0  0  0  0  0  0  0  0  0  0  0
  -23.2933  -29.4577   23.2817 O   0  0  0  0  0  0  0  0  0  0  0  0
  -31.0751  -28.1447   19.4342 O   0  0  0  0  0  0  0  0  0  0  0  0
  -21.6385  -25.7905   24.2329 O   0  0  0  0  0  0  0  0  0  0  0  0
  -25.9842  -23.9053   24.5175 O   0  0  0  0  0  0  0  0  0  0  0  0
  -27.0705  -21.6087   17.9177 O   0  0  0  0  0  0  0  0  0  0  0  0
  -25.7304   -9.0234   21.0447 O   0  0  0  0  0  0  0  0  0  0  0  0
  -28.6443  -28.6223   20.3913 O   0  0  0  0  0  0  0  0  0  1  0  0
  -21.9824   -6.0011   23.7321 F   0  0  0  0  0  0  0  0  0  0  0  0
  -24.1392   -7.2095   19.6955 F   0  0  0  0  0  0  0  0  0  0  0  0
  -28.4997  -22.0420   22.3253 S   0  0  0  0  0  0  0  0  0  0  0  0
  1  2  1  0  0  0  0
  1  5  2  0  0  0  0
  2  6  2  0  0  0  0
  3  8  2  0  0  0  0
  3 16  1  0  0  0  0
  4  9  1  0  0  0  0
  4 16  2  0  0  0  0
  5 19  1  0  0  0  0
  6 21  1  0  0  0  0
  7 10  2  0  0  0  0
  7 20  1  0  0  0  0
  8 24  1  0  0  0  0
  9 24  2  0  0  0  0
 10 25  1  0  0  0  0
 11 12  2  0  0  0  0
 11 26  1  0  0  0  0
 12 27  1  0  0  0  0
 13 22  1  0  0  0  0
 13 25  2  0  0  0  0
 14 27  2  0  0  0  0
 14 28  1  0  0  0  0
 15 17  2  0  0  0  0
 15 86  1  0  0  0  0
 16 29  1  0  0  0  0
 17 23  1  0  0  0  0
 17 32  1  0  0  0  0
 18 29  1  0  0  0  0
 18 30  2  0  0  0  0
 18 33  1  0  0  0  0
 19 21  2  0  0  0  0
 19 39  1  0  0  0  0
 20 22  2  0  0  0  0
 20 40  1  0  0  0  0
 21 48  1  0  0  0  0
 22 41  1  0  0  0  0
 23 31  2  0  0  0  0
 23 68  1  0  0  0  0
 24 82  1  0  0  0  0
 25 83  1  0  0  0  0
 26 28  2  0  0  0  0
 26 82  1  0  0  0  0
 27 84  1  0  0  0  0
 28 85  1  0  0  0  0
 29 64  2  0  0  0  0
 30 65  1  0  0  0  0
 30 69  1  0  0  0  0
 31 71  1  0  0  0  0
 31 86  1  0  0  0  0
 32 58  1  0  0  0  0
 32 75  2  0  0  0  0
 33 70  1  0  0  0  0
 33 76  2  0  0  0  0
 34 49  1  0  0  0  0
 34 72  1  0  0  0  0
 34 77  2  0  0  0  0
 35 59  1  0  0  0  0
 35 62  1  0  0  0  0
 35 78  2  0  0  0  0
 36 60  1  0  0  0  0
 36 66  1  0  0  0  0
 36 79  2  0  0  0  0
 37 61  1  0  0  0  0
 37 73  1  0  0  0  0
 37 80  2  0  0  0  0
 38 67  1  0  0  0  0
 38 71  1  0  0  0  0
 38 81  2  0  0  0  0
 39 42  1  0  0  0  0
 40 49  1  0  0  0  0
 41 66  1  0  0  0  0
 42 44  1  0  0  0  0
 43 45  1  0  0  0  0
 43 46  1  0  0  0  0
 44 48  1  0  0  0  0
 45 50  1  0  0  0  0
 46 67  1  0  0  0  0
 47 50  1  0  0  0  0
 47 67  1  0  0  0  0
 48 72  1  0  0  0  0
 49 66  1  0  0  0  0
 50 65  1  0  0  0  0
 51 61  1  0  0  0  0
 52 62  1  0  0  0  0
 53 62  1  0  0  0  0
 54 63  1  0  0  0  0
 55 63  1  0  0  0  0
 56 63  1  0  0  0  0
 57 74  1  0  0  0  0
 58 62  1  0  0  0  0
 59 83  1  0  0  0  0
 60 63  1  0  0  0  0
 60 73  1  0  0  0  0
 61 74  1  0  0  0  0
 64 65  1  0  0  0  0
M  CHG  1  74   1
M  ISO  4  38 100  59 101  71 100  83 101
M  END
> <Batch ID>
0148

> <Smiles>
CNC(C)C(=O)NC(C(=O)N1Cc2cc([101O:1][101CH2:1]C(=O)C(C)(C)CC(=O)c3csc([100NH:0][100C:0](=O)N4CCCC(n5nc(-c6ccc(Oc7ccc(F)cc7F)cc6)c(C(N)=O)c5N)C4)c3N)ccc2CC1C(=O)NC1CCCc2ccccc21)C(C)(C)C

> <Shape>
0.200

> <Color>
0.101

> <Negative vol penalty>
0.000

$$$$

  -OEChem-04052303163D

 86 95  0     1  0  0  0  0  0999 V2000
  -17.0956  -27.8992   20.5019 C   0  0  0  0  0  0  0  0  0  0  0  0
  -18.2883  -27.2468   20.2066 C   0  0  0  0  0  0  0  0  0  0  0  0
  -22.8730  -10.1669   20.2878 C   0  0  0  0  0  0  0  0  0  0  0  0
  -24.3979   -9.2570   21.9260 C   0  0  0  0  0  0  0  0  0  0  0  0
  -17.1200  -29.1947   21.0168 C   0  0  0  0  0  0  0  0  0  0  0  0
  -19.5061  -27.8899   20.4251 C   0  0  0  0  0  0  0  0  0  0  0  0
  -24.7607  -25.3103   22.2255 C   0  0  0  0  0  0  0  0  0  0  0  0
  -22.0954   -9.0118   20.3701 C   0  0  0  0  0  0  0  0  0  0  0  0
  -23.6203   -8.1020   22.0084 C   0  0  0  0  0  0  0  0  0  0  0  0
  -25.8916  -24.8969   21.5229 C   0  0  0  0  0  0  0  0  0  0  0  0
  -20.7423   -7.1396   23.4955 C   0  0  0  0  0  0  0  0  0  0  0  0
  -20.4614   -6.6385   24.7666 C   0  0  0  0  0  0  0  0  0  0  0  0
  -26.9635  -26.9993   22.0230 C   0  0  0  0  0  0  0  0  0  0  0  0
  -28.3672  -20.4128   18.4720 C   0  0  0  0  0  0  0  0  0  0  0  0
  -21.5591   -4.5645   24.1915 C   0  0  0  0  0  0  0  0  0  0  0  0
  -24.0243  -10.2895   21.0657 C   0  0  0  0  0  0  0  0  0  0  0  0
  -24.6976  -12.6522   21.7525 C   0  0  0  0  0  0  0  0  0  0  0  0
  -18.3390  -29.8504   21.2507 C   0  0  0  0  0  0  0  0  0  0  0  0
  -24.7184  -26.5778   22.8239 C   0  0  0  0  0  0  0  0  0  0  0  0
  -19.5468  -29.1958   20.9423 C   0  0  0  0  0  0  0  0  0  0  0  0
  -25.8318  -27.4255   22.7348 C   0  0  0  0  0  0  0  0  0  0  0  0
  -28.2089  -19.0391   18.1994 C   0  0  0  0  0  0  0  0  0  0  0  0
  -22.4690   -7.9794   21.2304 C   0  0  0  0  0  0  0  0  0  0  0  0
  -26.9922  -25.7425   21.4191 C   0  0  0  0  0  0  0  0  0  0  0  0
  -21.4315   -6.3531   22.5724 C   0  0  0  0  0  0  0  0  0  0  0  0
  -20.8698   -5.3510   25.1146 C   0  0  0  0  0  0  0  0  0  0  0  0
  -21.8399   -5.0655   22.9204 C   0  0  0  0  0  0  0  0  0  0  0  0
  -24.8283  -11.4822   20.9807 C   0  0  0  0  0  0  0  0  0  0  0  0
  -28.0995  -18.2954   19.3381 C   0  0  0  0  0  0  0  0  0  0  0  0
  -25.6903  -13.4812   21.2901 C   0  0  0  0  0  0  0  0  0  0  0  0
  -28.3666  -20.6408   19.8392 C   0  0  0  0  0  0  0  0  0  0  0  0
  -23.7626  -12.9621   22.7943 C   0  0  0  0  0  0  0  0  0  0  0  0
  -22.9145  -29.1699   22.4625 C   0  0  0  0  0  0  0  0  0  0  0  0
  -24.5910  -30.2191   25.0336 C   0  0  0  0  0  0  0  0  0  0  0  0
  -27.4298  -30.0230   26.9178 C   0  0  0  0  0  0  0  0  0  0  0  0
  -28.6579  -23.1298   20.0781 C   0  0  0  0  0  0  0  0  0  0  0  0
  -28.2856  -15.7013   16.8116 C   0  0  0  0  0  0  0  0  0  0  0  0
  -18.3137  -31.2683   21.7641 C   0  0  0  0  0  0  0  0  0  0  0  0
  -23.5011  -26.9984   23.6010 C   0  0  0  0  0  0  0  0  0  0  0  0
  -25.8445  -28.7880   23.3764 C   0  0  0  0  0  0  0  0  0  0  0  0
  -28.1393  -18.1892   16.9973 C   0  0  0  0  0  0  0  0  0  0  0  0
  -27.9203  -16.8540   19.0913 C   0  0  0  0  0  0  0  0  0  0  0  0
  -19.6559  -31.7395   22.3181 C   0  0  0  0  0  0  0  0  0  0  0  0
  -29.5935  -12.5653   18.2045 C   0  0  0  0  0  0  0  0  0  0  0  0
  -20.7866  -31.3711   21.3628 C   0  0  0  0  0  0  0  0  0  0  0  0
  -28.4341  -12.0822   19.0787 C   0  0  0  0  0  0  0  0  0  0  0  0
  -29.1084  -13.3814   17.0081 C   0  0  0  0  0  0  0  0  0  0  0  0
  -27.0541  -14.0057   18.2155 C   0  0  0  0  0  0  0  0  0  0  0  0
  -20.8885  -29.8509   21.1887 C   0  0  1  0  0  0  0  0  0  0  0  0
  -23.3709  -28.5126   23.7342 C   0  0  1  0  0  0  0  0  0  0  0  0
  -27.5070  -13.2488   19.4710 C   0  0  1  0  0  0  0  0  0  0  0  0
  -28.5283  -31.0322   28.9357 C   0  0  0  0  0  0  0  0  0  0  0  0
  -25.2849  -32.7067   23.4088 C   0  0  0  0  0  0  0  0  0  0  0  0
  -27.1006  -33.1950   25.0620 C   0  0  0  0  0  0  0  0  0  0  0  0
  -24.7195  -33.1496   25.8044 C   0  0  0  0  0  0  0  0  0  0  0  0
  -30.8832  -23.2358   22.1938 C   0  0  0  0  0  0  0  0  0  0  0  0
  -30.2543  -25.5926   22.7153 C   0  0  0  0  0  0  0  0  0  0  0  0
  -31.0510  -24.9808   20.4193 C   0  0  0  0  0  0  0  0  0  0  0  0
  -27.4935  -27.4217   28.3277 C   0  0  0  0  0  0  0  0  0  0  0  0
  -25.8809  -30.9781   25.2316 C   0  0  1  0  0  0  0  0  0  0  0  0
  -27.6378  -29.9136   28.4175 C   0  0  2  0  0  0  0  0  0  0  0  0
  -28.7583  -24.1646   21.2021 C   0  0  1  0  0  0  0  0  0  1  0  0
  -25.7458  -32.4825   24.8629 C   0  0  0  0  0  0  0  0  0  0  0  0
  -30.2166  -24.5067   21.6225 C   0  0  0  0  0  0  0  0  0  0  0  0
  -25.8253  -11.5573   20.0951 N   0  0  0  0  0  0  0  0  0  0  0  0
  -26.3301  -12.7845   20.3075 N   0  0  0  0  0  0  0  0  0  0  0  0
  -24.6284  -29.1562   24.1200 N   0  0  0  0  0  0  0  0  0  0  0  0
  -28.0143  -16.8273   17.5967 N   0  0  0  0  0  0  0  0  0  0  0  0
  -28.2139  -14.4541   17.4396 N   0  0  0  0  0  0  0  0  0  0  0  0
  -26.0696  -14.7308   21.6321 N   0  0  0  0  0  0  0  0  0  0  0  0
  -22.8088  -11.9968   23.1449 N   0  0  0  0  0  0  0  0  0  0  0  0
  -28.4903  -21.8017   20.5516 N   0  0  0  0  0  0  0  0  0  0  0  0
  -21.5412  -29.2537   22.3340 N   0  0  0  0  0  0  0  0  0  0  0  0
  -26.2898  -30.7353   26.6109 N   0  0  0  0  0  0  0  0  0  0  0  0
  -28.2742  -28.6099   28.7585 N   0  3  0  0  0  0  0  0  0  0  0  0
  -23.7621  -14.0686   23.3852 O   0  0  0  0  0  0  0  0  0  0  0  0
  -23.7466  -29.5728   21.6582 O   0  0  0  0  0  0  0  0  0  0  0  0
  -23.5892  -30.5523   25.6716 O   0  0  0  0  0  0  0  0  0  0  0  0
  -28.2034  -29.5293   26.1002 O   0  0  0  0  0  0  0  0  0  0  0  0
  -28.7033  -23.4678   18.8982 O   0  0  0  0  0  0  0  0  0  0  0  0
  -28.6281  -15.8079   15.6272 O   0  0  0  0  0  0  0  0  0  0  0  0
  -21.7103   -6.8523   21.3111 O   0  0  0  0  0  0  0  0  0  0  0  0
  -28.1036  -25.3393   20.7293 O   0  0  0  0  0  0  0  0  0  1  0  0
  -20.6014   -4.8705   26.3358 F   0  0  0  0  0  0  0  0  0  0  0  0
  -22.5034   -4.3057   22.0382 F   0  0  0  0  0  0  0  0  0  0  0  0
  -28.1770  -19.1824   20.7525 S   0  0  0  0  0  0  0  0  0  0  0  0
  1  2  1  0  0  0  0
  1  5  2  0  0  0  0
  2  6  2  0  0  0  0
  3  8  2  0  0  0  0
  3 16  1  0  0  0  0
  4  9  1  0  0  0  0
  4 16  2  0  0  0  0
  5 18  1  0  0  0  0
  6 20  1  0  0  0  0
  7 10  2  0  0  0  0
  7 19  1  0  0  0  0
  8 23  1  0  0  0  0
  9 23  2  0  0  0  0
 10 24  1  0  0  0  0
 11 12  2  0  0  0  0
 11 25  1  0  0  0  0
 12 26  1  0  0  0  0
 13 21  1  0  0  0  0
 13 24  2  0  0  0  0
 14 22  1  0  0  0  0
 14 31  2  0  0  0  0
 15 26  2  0  0  0  0
 15 27  1  0  0  0  0
 16 28  1  0  0  0  0
 17 28  1  0  0  0  0
 17 30  2  0  0  0  0
 17 32  1  0  0  0  0
 18 20  2  0  0  0  0
 18 38  1  0  0  0  0
 19 21  2  0  0  0  0
 19 39  1  0  0  0  0
 20 49  1  0  0  0  0
 21 40  1  0  0  0  0
 22 29  2  0  0  0  0
 22 41  1  0  0  0  0
 23 82  1  0  0  0  0
 24 83  1  0  0  0  0
 25 27  2  0  0  0  0
 25 82  1  0  0  0  0
 26 84  1  0  0  0  0
 27 85  1  0  0  0  0
 28 65  2  0  0  0  0
 29 42  1  0  0  0  0
 29 86  1  0  0  0  0
 30 66  1  0  0  0  0
 30 70  1  0  0  0  0
 31 72  1  0  0  0  0
 31 86  1  0  0  0  0
 32 71  1  0  0  0  0
 32 76  2  0  0  0  0
 33 50  1  0  0  0  0
 33 73  1  0  0  0  0
 33 77  2  0  0  0  0
 34 60  1  0  0  0  0
 34 67  1  0  0  0  0
 34 78  2  0  0  0  0
 35 61  1  0  0  0  0
 35 74  1  0  0  0  0
 35 79  2  0  0  0  0
 36 62  1  0  0  0  0
 36 72  1  0  0  0  0
 36 80  2  0  0  0  0
 37 68  1  0  0  0  0
 37 69  1  0  0  0  0
 37 81  2  0  0  0  0
 38 43  1  0  0  0  0
 39 50  1  0  0  0  0
 40 67  1  0  0  0  0
 41 68  1  0  0  0  0
 42 68  1  0  0  0  0
 43 45  1  0  0  0  0
 44 46  1  0  0  0  0
 44 47  1  0  0  0  0
 45 49  1  0  0  0  0
 46 51  1  0  0  0  0
 47 69  1  0  0  0  0
 48 51  1  0  0  0  0
 48 69  1  0  0  0  0
 49 73  1  0  0  0  0
 50 67  1  0  0  0  0
 51 66  1  0  0  0  0
 52 61  1  0  0  0  0
 53 63  1  0  0  0  0
 54 63  1  0  0  0  0
 55 63  1  0  0  0  0
 56 64  1  0  0  0  0
 57 64  1  0  0  0  0
 58 64  1  0  0  0  0
 59 75  1  0  0  0  0
 60 63  1  0  0  0  0
 60 74  1  0  0  0  0
 61 75  1  0  0  0  0
 62 64  1  0  0  0  0
 62 83  1  0  0  0  0
 65 66  1  0  0  0  0
M  CHG  1  75   1
M  ISO  4  37 100  62 101  68 100  83 101
M  END
> <Batch ID>
0148

> <Smiles>
CNC(C)C(=O)NC(C(=O)N1Cc2cc([101O:1][101CH:1](C(=O)Nc3cc4c(s3)C[100N:0]([100C:0](=O)N3CCCC(n5nc(-c6ccc(Oc7ccc(F)cc7F)cc6)c(C(N)=O)c5N)C3)C4)C(C)(C)C)ccc2CC1C(=O)NC1CCCc2ccccc21)C(C)(C)C

> <Shape>
0.303

> <Color>
0.125

> <Negative vol penalty>
0.000

$$$$

  -OEChem-04052303163D

 86 95  0     1  0  0  0  0  0999 V2000
  -16.6709  -27.4109   22.1975 C   0  0  0  0  0  0  0  0  0  0  0  0
  -17.8002  -26.8044   21.6569 C   0  0  0  0  0  0  0  0  0  0  0  0
  -28.1734  -18.9365   15.2118 C   0  0  0  0  0  0  0  0  0  0  0  0
  -21.7629  -14.0466   22.3619 C   0  0  0  0  0  0  0  0  0  0  0  0
  -21.6781  -14.6395   20.0214 C   0  0  0  0  0  0  0  0  0  0  0  0
  -28.9965  -20.0506   15.3758 C   0  0  0  0  0  0  0  0  0  0  0  0
  -16.6428  -28.7929   22.3792 C   0  0  0  0  0  0  0  0  0  0  0  0
  -18.9017  -27.5798   21.2967 C   0  0  0  0  0  0  0  0  0  0  0  0
  -24.8046  -25.9947   21.6833 C   0  0  0  0  0  0  0  0  0  0  0  0
  -28.0452  -18.0062   16.2432 C   0  0  0  0  0  0  0  0  0  0  0  0
  -20.4318  -14.4366   22.5090 C   0  0  0  0  0  0  0  0  0  0  0  0
  -20.3469  -15.0294   20.1684 C   0  0  0  0  0  0  0  0  0  0  0  0
  -25.7087  -25.5077   20.7404 C   0  0  0  0  0  0  0  0  0  0  0  0
  -17.3736  -13.1616   21.8345 C   0  0  0  0  0  0  0  0  0  0  0  0
  -16.5261  -12.3168   22.5511 C   0  0  0  0  0  0  0  0  0  0  0  0
  -29.5634  -19.3041   17.6025 C   0  0  0  0  0  0  0  0  0  0  0  0
  -26.5225  -27.7485   20.3723 C   0  0  0  0  0  0  0  0  0  0  0  0
  -16.0983  -14.0900   24.1354 C   0  0  0  0  0  0  0  0  0  0  0  0
  -22.3861  -14.1481   21.1181 C   0  0  0  0  0  0  0  0  0  0  0  0
  -29.6915  -20.2344   16.5711 C   0  0  0  0  0  0  0  0  0  0  0  0
  -24.2401  -12.4670   20.6242 C   0  0  0  0  0  0  0  0  0  0  0  0
  -17.7482  -29.5846   22.0300 C   0  0  0  0  0  0  0  0  0  0  0  0
  -24.7450  -27.3660   21.9704 C   0  0  0  0  0  0  0  0  0  0  0  0
  -18.8878  -28.9739   21.4726 C   0  0  0  0  0  0  0  0  0  0  0  0
  -25.6185  -28.2501   21.3212 C   0  0  0  0  0  0  0  0  0  0  0  0
  -28.7403  -18.1900   17.4386 C   0  0  0  0  0  0  0  0  0  0  0  0
  -19.7238  -14.9279   21.4123 C   0  0  0  0  0  0  0  0  0  0  0  0
  -26.5659  -26.3850   20.0826 C   0  0  0  0  0  0  0  0  0  0  0  0
  -17.5836  -14.4706   22.2683 C   0  0  0  0  0  0  0  0  0  0  0  0
  -15.8884  -12.7810   23.7016 C   0  0  0  0  0  0  0  0  0  0  0  0
  -16.9459  -14.9347   23.4188 C   0  0  0  0  0  0  0  0  0  0  0  0
  -23.7613  -13.7460   20.9657 C   0  0  0  0  0  0  0  0  0  0  0  0
  -25.6066  -12.6049   20.6087 C   0  0  0  0  0  0  0  0  0  0  0  0
  -30.5610  -21.4116   16.7455 C   0  0  0  0  0  0  0  0  0  0  0  0
  -23.5146  -11.2621   20.3457 C   0  0  0  0  0  0  0  0  0  0  0  0
  -22.5188  -29.6190   21.7031 C   0  0  0  0  0  0  0  0  0  0  0  0
  -24.7228  -31.4320   23.2451 C   0  0  0  0  0  0  0  0  0  0  0  0
  -28.0018  -31.9640   24.0275 C   0  0  0  0  0  0  0  0  0  0  0  0
  -29.2287  -17.2763   19.7349 C   0  0  0  0  0  0  0  0  0  0  0  0
  -17.6531  -31.0800   22.2010 C   0  0  0  0  0  0  0  0  0  0  0  0
  -23.7825  -27.8720   23.0096 C   0  0  0  0  0  0  0  0  0  0  0  0
  -25.6083  -29.7286   21.6082 C   0  0  0  0  0  0  0  0  0  0  0  0
  -19.0047  -31.7871   22.1414 C   0  0  0  0  0  0  0  0  0  0  0  0
  -29.1354  -15.1602   22.5967 C   0  0  0  0  0  0  0  0  0  0  0  0
  -19.8217  -31.2781   20.9581 C   0  0  0  0  0  0  0  0  0  0  0  0
  -27.7930  -14.4365   22.4689 C   0  0  0  0  0  0  0  0  0  0  0  0
  -29.8990  -24.6104   18.2906 C   0  0  0  0  0  0  0  0  0  0  0  0
  -29.0460  -16.6093   22.1217 C   0  0  0  0  0  0  0  0  0  0  0  0
  -30.8418  -23.7471   17.4589 C   0  0  0  0  0  0  0  0  0  0  0  0
  -27.1509  -16.0638   20.6451 C   0  0  0  0  0  0  0  0  0  0  0  0
  -28.6437  -22.6628   17.6516 C   0  0  0  0  0  0  0  0  0  0  0  0
  -20.1120  -29.7784   21.0925 C   0  0  1  0  0  0  0  0  0  0  0  0
  -23.4538  -29.3530   22.8489 C   0  0  1  0  0  0  0  0  0  0  0  0
  -27.2071  -14.5820   21.0508 C   0  0  2  0  0  0  0  0  0  0  0  0
  -28.4870  -24.1818   17.8483 C   0  0  2  0  0  0  0  0  0  0  0  0
  -28.0936  -24.8619   16.5271 C   0  0  0  0  0  0  0  0  0  0  0  0
  -29.4979  -33.5478   25.2727 C   0  0  0  0  0  0  0  0  0  0  0  0
  -24.4512  -33.4624   20.9839 C   0  0  0  0  0  0  0  0  0  0  0  0
  -26.5886  -34.5094   21.7608 C   0  0  0  0  0  0  0  0  0  0  0  0
  -24.6037  -34.4624   23.2711 C   0  0  0  0  0  0  0  0  0  0  0  0
  -28.9327  -29.8307   25.8554 C   0  0  0  0  0  0  0  0  0  0  0  0
  -27.4432  -24.5063   18.9178 C   0  0  0  0  0  0  0  0  0  1  0  0
  -25.8661  -32.3196   22.8163 C   0  0  1  0  0  0  0  0  0  0  0  0
  -28.6862  -32.2641   25.3489 C   0  0  2  0  0  0  0  0  0  0  0  0
  -25.3765  -33.6609   22.2010 C   0  0  0  0  0  0  0  0  0  0  0  0
  -24.7437  -14.6312   21.1538 N   0  0  0  0  0  0  0  0  0  0  0  0
  -25.8536  -13.9072   20.9297 N   0  0  0  0  0  0  0  0  0  0  0  0
  -30.0550  -22.5232   17.2477 N   0  0  0  0  0  0  0  0  0  0  0  0
  -24.6449  -30.1756   22.6277 N   0  0  0  0  0  0  0  0  0  0  0  0
  -28.4863  -16.6688   20.7696 N   0  0  0  0  0  0  0  0  0  0  0  0
  -26.6090  -11.7379   20.3520 N   0  0  0  0  0  0  0  0  0  0  0  0
  -22.1148  -11.2961   20.4059 N   0  0  0  0  0  0  0  0  0  0  0  0
  -28.6095  -17.2445   18.4858 N   0  0  0  0  0  0  0  0  0  0  0  0
  -21.1808  -29.5536   22.0421 N   0  0  0  0  0  0  0  0  0  0  0  0
  -26.7224  -32.4766   23.9870 N   0  0  0  0  0  0  0  0  0  0  0  0
  -31.8418  -21.3354   16.3960 N   0  3  0  0  0  0  0  0  0  0  0  0
  -29.6028  -31.1499   25.7222 N   0  3  0  0  0  0  0  0  0  0  0  0
  -24.0912  -10.1832   20.0684 O   0  0  0  0  0  0  0  0  0  0  0  0
  -22.9773  -29.8668   20.5941 O   0  0  0  0  0  0  0  0  0  0  0  0
  -23.9323  -31.8356   24.1017 O   0  0  0  0  0  0  0  0  0  0  0  0
  -28.5489  -31.3407   23.1205 O   0  0  0  0  0  0  0  0  0  0  0  0
  -30.3443  -17.7630   19.9361 O   0  0  0  0  0  0  0  0  0  0  0  0
  -18.4248  -15.3083   21.5553 O   0  0  0  0  0  0  0  0  0  0  0  0
  -27.4489  -25.9124   19.1613 O   0  0  0  0  0  0  0  0  0  1  0  0
  -15.0733  -11.9701   24.3888 F   0  0  0  0  0  0  0  0  0  0  0  0
  -17.1428  -16.1916   23.8398 F   0  0  0  0  0  0  0  0  0  0  0  0
  1  2  1  0  0  0  0
  1  7  2  0  0  0  0
  2  8  2  0  0  0  0
  3  6  2  0  0  0  0
  3 10  1  0  0  0  0
  4 11  2  0  0  0  0
  4 19  1  0  0  0  0
  5 12  1  0  0  0  0
  5 19  2  0  0  0  0
  6 20  1  0  0  0  0
  7 22  1  0  0  0  0
  8 24  1  0  0  0  0
  9 13  2  0  0  0  0
  9 23  1  0  0  0  0
 10 26  2  0  0  0  0
 11 27  1  0  0  0  0
 12 27  2  0  0  0  0
 13 28  1  0  0  0  0
 14 15  2  0  0  0  0
 14 29  1  0  0  0  0
 15 30  1  0  0  0  0
 16 20  2  0  0  0  0
 16 26  1  0  0  0  0
 17 25  1  0  0  0  0
 17 28  2  0  0  0  0
 18 30  2  0  0  0  0
 18 31  1  0  0  0  0
 19 32  1  0  0  0  0
 20 34  1  0  0  0  0
 21 32  1  0  0  0  0
 21 33  2  0  0  0  0
 21 35  1  0  0  0  0
 22 24  2  0  0  0  0
 22 40  1  0  0  0  0
 23 25  2  0  0  0  0
 23 41  1  0  0  0  0
 24 52  1  0  0  0  0
 25 42  1  0  0  0  0
 26 73  1  0  0  0  0
 27 83  1  0  0  0  0
 28 84  1  0  0  0  0
 29 31  2  0  0  0  0
 29 83  1  0  0  0  0
 30 85  1  0  0  0  0
 31 86  1  0  0  0  0
 32 66  2  0  0  0  0
 33 67  1  0  0  0  0
 33 71  1  0  0  0  0
 34 68  1  0  0  0  0
 34 76  2  0  0  0  0
 35 72  1  0  0  0  0
 35 78  2  0  0  0  0
 36 53  1  0  0  0  0
 36 74  1  0  0  0  0
 36 79  2  0  0  0  0
 37 63  1  0  0  0  0
 37 69  1  0  0  0  0
 37 80  2  0  0  0  0
 38 64  1  0  0  0  0
 38 75  1  0  0  0  0
 38 81  2  0  0  0  0
 39 70  1  0  0  0  0
 39 73  1  0  0  0  0
 39 82  2  0  0  0  0
 40 43  1  0  0  0  0
 41 53  1  0  0  0  0
 42 69  1  0  0  0  0
 43 45  1  0  0  0  0
 44 46  1  0  0  0  0
 44 48  1  0  0  0  0
 45 52  1  0  0  0  0
 46 54  1  0  0  0  0
 47 49  1  0  0  0  0
 47 55  1  0  0  0  0
 48 70  1  0  0  0  0
 49 68  1  0  0  0  0
 50 54  1  0  0  0  0
 50 70  1  0  0  0  0
 51 55  1  0  0  0  0
 51 68  1  0  0  0  0
 52 74  1  0  0  0  0
 53 69  1  0  0  0  0
 54 67  1  0  0  0  0
 55 56  1  0  0  0  0
 55 62  1  0  0  0  0
 57 64  1  0  0  0  0
 58 65  1  0  0  0  0
 59 65  1  0  0  0  0
 60 65  1  0  0  0  0
 61 77  1  0  0  0  0
 62 84  1  0  0  0  0
 63 65  1  0  0  0  0
 63 75  1  0  0  0  0
 64 77  1  0  0  0  0
 66 67  1  0  0  0  0
M  CHG  2  76   1  77   1
M  ISO  4  39 100  62 101  73 100  84 101
M  END
> <Batch ID>
0148

> <Smiles>
CNC(C)C(=O)NC(C(=O)N1Cc2cc([101O:1][101CH2:1]C3(C)CCN(C(=N)c4cccc([100NH:0][100C:0](=O)N5CCCC(n6nc(-c7ccc(Oc8ccc(F)cc8F)cc7)c(C(N)=O)c6N)C5)c4)C3)ccc2CC1C(=O)NC1CCCc2ccccc21)C(C)(C)C

> <Shape>
0.257

> <Color>
0.077

> <Negative vol penalty>
0.000

$$$$

  -OEChem-04052303163D

 83 92  0     1  0  0  0  0  0999 V2000
  -38.2312  -34.0563   19.8531 C   0  0  0  0  0  0  0  0  0  0  0  0
  -38.2276  -32.6900   20.1152 C   0  0  0  0  0  0  0  0  0  0  0  0
  -22.9969   -9.9133   20.0114 C   0  0  0  0  0  0  0  0  0  0  0  0
  -23.7000  -10.0202   22.3204 C   0  0  0  0  0  0  0  0  0  0  0  0
  -37.1185  -34.8304   20.1793 C   0  0  0  0  0  0  0  0  0  0  0  0
  -37.1115  -32.0972   20.7046 C   0  0  0  0  0  0  0  0  0  0  0  0
  -34.9404  -26.4699   19.6440 C   0  0  0  0  0  0  0  0  0  0  0  0
  -22.2232   -8.7889   20.2991 C   0  0  0  0  0  0  0  0  0  0  0  0
  -22.9263   -8.8958   22.6081 C   0  0  0  0  0  0  0  0  0  0  0  0
  -35.0843  -25.2644   20.3295 C   0  0  0  0  0  0  0  0  0  0  0  0
  -23.1614   -5.5450   22.2238 C   0  0  0  0  0  0  0  0  0  0  0  0
  -23.7375   -4.5451   23.0072 C   0  0  0  0  0  0  0  0  0  0  0  0
  -32.9897  -25.6627   21.4577 C   0  0  0  0  0  0  0  0  0  0  0  0
  -31.8300  -17.5051   21.6185 C   0  0  0  0  0  0  0  0  0  0  0  0
  -21.9986   -4.8373   24.6588 C   0  0  0  0  0  0  0  0  0  0  0  0
  -23.7354  -10.5289   21.0221 C   0  0  0  0  0  0  0  0  0  0  0  0
  -24.1327  -13.0377   20.7858 C   0  0  0  0  0  0  0  0  0  0  0  0
  -35.9845  -34.2452   20.7642 C   0  0  0  0  0  0  0  0  0  0  0  0
  -33.8235  -27.2875   19.8688 C   0  0  0  0  0  0  0  0  0  0  0  0
  -35.9831  -32.8645   21.0402 C   0  0  0  0  0  0  0  0  0  0  0  0
  -32.8327  -26.8769   20.7720 C   0  0  0  0  0  0  0  0  0  0  0  0
  -31.9266  -18.7946   22.2167 C   0  0  0  0  0  0  0  0  0  0  0  0
  -22.1878   -8.2802   21.5974 C   0  0  0  0  0  0  0  0  0  0  0  0
  -34.1103  -24.8620   21.2386 C   0  0  0  0  0  0  0  0  0  0  0  0
  -22.0039   -6.1912   22.6579 C   0  0  0  0  0  0  0  0  0  0  0  0
  -23.1561   -4.1912   24.2247 C   0  0  0  0  0  0  0  0  0  0  0  0
  -21.4225   -5.8373   23.8754 C   0  0  0  0  0  0  0  0  0  0  0  0
  -24.5353  -11.6901   20.7254 C   0  0  0  0  0  0  0  0  0  0  0  0
  -30.7678  -19.1493   22.8717 C   0  0  0  0  0  0  0  0  0  0  0  0
  -25.2489  -13.7465   20.4140 C   0  0  0  0  0  0  0  0  0  0  0  0
  -30.6010  -16.9231   21.8393 C   0  0  0  0  0  0  0  0  0  0  0  0
  -35.1820  -20.3661   22.3342 C   0  0  0  0  0  0  0  0  0  0  0  0
  -34.4721  -21.3195   21.7204 C   0  0  0  0  0  0  0  0  0  0  0  0
  -22.8633  -13.5987   21.1459 C   0  0  0  0  0  0  0  0  0  0  0  0
  -33.3877  -30.2353   20.9751 C   0  0  0  0  0  0  0  0  0  0  0  0
  -30.3046  -29.6757   20.1362 C   0  0  0  0  0  0  0  0  0  0  0  0
  -27.8362  -27.4002   19.5234 C   0  0  0  0  0  0  0  0  0  0  0  0
  -30.7298  -14.6919   20.6768 C   0  0  0  0  0  0  0  0  0  0  0  0
  -34.8238  -35.1309   21.1424 C   0  0  0  0  0  0  0  0  0  0  0  0
  -33.6699  -28.5721   19.1016 C   0  0  0  0  0  0  0  0  0  0  0  0
  -31.6047  -27.7087   21.0341 C   0  0  0  0  0  0  0  0  0  0  0  0
  -34.3364  -19.1783   22.6579 C   0  0  0  0  0  0  0  0  0  0  0  0
  -33.0438  -20.9046   21.5441 C   0  0  0  0  0  0  0  0  0  0  0  0
  -33.5356  -34.3609   21.4213 C   0  0  0  0  0  0  0  0  0  0  0  0
  -29.6238  -12.1850   18.4031 C   0  0  0  0  0  0  0  0  0  0  0  0
  -33.8140  -33.1641   22.3251 C   0  0  0  0  0  0  0  0  0  0  0  0
  -28.1682  -11.9436   18.8096 C   0  0  0  0  0  0  0  0  0  0  0  0
  -30.5136  -12.4556   19.6150 C   0  0  0  0  0  0  0  0  0  0  0  0
  -28.5888  -13.2856   20.9094 C   0  0  0  0  0  0  0  0  0  0  0  0
  -34.7817  -32.1807   21.6558 C   0  0  1  0  0  0  0  0  0  0  0  0
  -32.7457  -29.5720   19.7896 C   0  0  1  0  0  0  0  0  0  0  0  0
  -27.6419  -13.0728   19.7171 C   0  0  2  0  0  0  0  0  0  0  0  0
  -30.4600  -20.3930   23.6147 C   0  0  0  0  0  0  0  0  0  0  0  0
  -25.4115  -27.2452   18.8953 C   0  0  0  0  0  0  0  0  0  0  0  0
  -29.5206  -30.4544   22.9803 C   0  0  0  0  0  0  0  0  0  0  0  0
  -27.2899  -29.3895   22.5825 C   0  0  0  0  0  0  0  0  0  0  0  0
  -28.0032  -31.3398   21.2004 C   0  0  0  0  0  0  0  0  0  0  0  0
  -28.4560  -25.9275   17.0322 C   0  0  0  0  0  0  0  0  0  0  0  0
  -34.9594  -22.6405   21.2477 C   0  0  0  0  0  0  0  0  0  1  0  0
  -29.0974  -29.0911   20.8290 C   0  0  1  0  0  0  0  0  0  0  0  0
  -26.8429  -27.2743   18.3824 C   0  0  2  0  0  0  0  0  0  0  0  0
  -28.5018  -30.0537   21.8948 C   0  0  0  0  0  0  0  0  0  0  0  0
  -25.8078  -11.5486   20.3450 N   0  0  0  0  0  0  0  0  0  0  0  0
  -26.2144  -12.8165   20.1629 N   0  0  0  0  0  0  0  0  0  0  0  0
  -33.0228  -19.5698   22.1459 N   0  0  3  0  0  0  0  0  0  0  0  0
  -31.5032  -28.9594   20.2641 N   0  0  0  0  0  0  0  0  0  0  0  0
  -29.9549  -13.5398   20.4257 N   0  0  0  0  0  0  0  0  0  0  0  0
  -25.4888  -15.0682   20.2804 N   0  0  0  0  0  0  0  0  0  0  0  0
  -21.8247  -12.7276   21.5018 N   0  0  0  0  0  0  0  0  0  0  0  0
  -30.0819  -15.6693   21.4315 N   0  0  0  0  0  0  0  0  0  0  0  0
  -34.0888  -31.3850   20.6652 N   0  0  0  0  0  0  0  0  0  0  0  0
  -28.1627  -28.7163   19.7734 N   0  0  0  0  0  0  0  0  0  0  0  0
  -27.0924  -26.0218   17.6142 N   0  3  0  0  0  0  0  0  0  0  0  0
  -22.6515  -14.8350   21.1361 O   0  0  0  0  0  0  0  0  0  0  0  0
  -33.2556  -29.7414   22.0888 O   0  0  0  0  0  0  0  0  0  0  0  0
  -30.1869  -30.7253   19.4990 O   0  0  0  0  0  0  0  0  0  0  0  0
  -28.2754  -26.4285   20.1345 O   0  0  0  0  0  0  0  0  0  0  0  0
  -31.8733  -14.8148   20.2304 O   0  0  0  0  0  0  0  0  0  0  0  0
  -21.4328   -7.1832   21.8785 O   0  0  0  0  0  0  0  0  0  0  0  0
  -34.2487  -23.6861   21.9095 O   0  0  0  0  0  0  0  0  0  1  0  0
  -23.7086   -3.2299   24.9762 F   0  0  0  0  0  0  0  0  0  0  0  0
  -20.3099   -6.4537   24.2971 F   0  0  0  0  0  0  0  0  0  0  0  0
  -29.5701  -17.9302   22.7641 S   0  0  0  0  0  0  0  0  0  0  0  0
  1  2  1  0  0  0  0
  1  5  2  0  0  0  0
  2  6  2  0  0  0  0
  3  8  2  0  0  0  0
  3 16  1  0  0  0  0
  4  9  1  0  0  0  0
  4 16  2  0  0  0  0
  5 18  1  0  0  0  0
  6 20  1  0  0  0  0
  7 10  2  0  0  0  0
  7 19  1  0  0  0  0
  8 23  1  0  0  0  0
  9 23  2  0  0  0  0
 10 24  1  0  0  0  0
 11 12  2  0  0  0  0
 11 25  1  0  0  0  0
 12 26  1  0  0  0  0
 13 21  1  0  0  0  0
 13 24  2  0  0  0  0
 14 22  1  0  0  0  0
 14 31  2  0  0  0  0
 15 26  2  0  0  0  0
 15 27  1  0  0  0  0
 16 28  1  0  0  0  0
 17 28  1  0  0  0  0
 17 30  2  0  0  0  0
 17 34  1  0  0  0  0
 18 20  2  0  0  0  0
 18 39  1  0  0  0  0
 19 21  2  0  0  0  0
 19 40  1  0  0  0  0
 20 50  1  0  0  0  0
 21 41  1  0  0  0  0
 22 29  2  0  0  0  0
 22 65  1  0  0  0  0
 23 79  1  0  0  0  0
 24 80  1  0  0  0  0
 25 27  2  0  0  0  0
 25 79  1  0  0  0  0
 26 81  1  0  0  0  0
 27 82  1  0  0  0  0
 28 63  2  0  0  0  0
 29 53  1  0  0  0  0
 29 83  1  0  0  0  0
 30 64  1  0  0  0  0
 30 68  1  0  0  0  0
 31 70  1  0  0  0  0
 31 83  1  0  0  0  0
 32 33  2  0  0  0  0
 32 42  1  0  0  0  0
 33 43  1  0  0  0  0
 33 59  1  0  0  0  0
 34 69  1  0  0  0  0
 34 74  2  0  0  0  0
 35 51  1  0  0  0  0
 35 71  1  0  0  0  0
 35 75  2  0  0  0  0
 36 60  1  0  0  0  0
 36 66  1  0  0  0  0
 36 76  2  0  0  0  0
 37 61  1  0  0  0  0
 37 72  1  0  0  0  0
 37 77  2  0  0  0  0
 38 67  1  0  0  0  0
 38 70  1  0  0  0  0
 38 78  2  0  0  0  0
 39 44  1  0  0  0  0
 40 51  1  0  0  0  0
 41 66  1  0  0  0  0
 42 65  1  0  0  0  0
 43 65  1  0  0  0  0
 44 46  1  0  0  0  0
 45 47  1  0  0  0  0
 45 48  1  0  0  0  0
 46 50  1  0  0  0  0
 47 52  1  0  0  0  0
 48 67  1  0  0  0  0
 49 52  1  0  0  0  0
 49 67  1  0  0  0  0
 50 71  1  0  0  0  0
 51 66  1  0  0  0  0
 52 64  1  0  0  0  0
 54 61  1  0  0  0  0
 55 62  1  0  0  0  0
 56 62  1  0  0  0  0
 57 62  1  0  0  0  0
 58 73  1  0  0  0  0
 59 80  1  0  0  0  0
 60 62  1  0  0  0  0
 60 72  1  0  0  0  0
 61 73  1  0  0  0  0
 63 64  1  0  0  0  0
M  CHG  1  73   1
M  ISO  4  38 100  59 101  70 100  80 101
M  END
> <Batch ID>
0148

> <Smiles>
CNC(C)C(=O)NC(C(=O)N1Cc2cc([101O:1][101CH2:1]C3=CCN(c4cc([100NH:0][100C:0](=O)N5CCCC(n6nc(-c7ccc(Oc8ccc(F)cc8F)cc7)c(C(N)=O)c6N)C5)sc4C)C3)ccc2CC1C(=O)NC1CCCc2ccccc21)C(C)(C)C

> <Shape>
0.224

> <Color>
0.224

> <Negative vol penalty>
0.000

$$$$

  -OEChem-04052303163D

 86 95  0     1  0  0  0  0  0999 V2000
  -30.0218  -11.1248   18.4263 C   0  0  0  0  0  0  0  0  0  0  0  0
  -29.9583  -12.5139   18.3869 C   0  0  0  0  0  0  0  0  0  0  0  0
  -19.8385  -25.0328   19.1667 C   0  0  0  0  0  0  0  0  0  0  0  0
  -22.0721  -24.2666   19.6774 C   0  0  0  0  0  0  0  0  0  0  0  0
  -28.9025  -10.3876   18.8107 C   0  0  0  0  0  0  0  0  0  0  0  0
  -28.7751  -13.1667   18.7310 C   0  0  0  0  0  0  0  0  0  0  0  0
  -29.5624  -17.1438   21.7655 C   0  0  0  0  0  0  0  0  0  0  0  0
  -19.5736  -23.8275   18.5167 C   0  0  0  0  0  0  0  0  0  0  0  0
  -21.8073  -23.0613   19.0274 C   0  0  0  0  0  0  0  0  0  0  0  0
  -30.0277  -18.3160   21.1711 C   0  0  0  0  0  0  0  0  0  0  0  0
  -21.6615  -21.9260   15.8461 C   0  0  0  0  0  0  0  0  0  0  0  0
  -22.6338  -21.4311   14.9770 C   0  0  0  0  0  0  0  0  0  0  0  0
  -30.9135  -27.5477   19.6167 C   0  0  0  0  0  0  0  0  0  0  0  0
  -29.9576  -28.5895   19.6820 C   0  0  0  0  0  0  0  0  0  0  0  0
  -27.7875  -19.2104   21.1949 C   0  0  0  0  0  0  0  0  0  0  0  0
  -22.8145  -19.4300   16.3186 C   0  0  0  0  0  0  0  0  0  0  0  0
  -21.0878  -25.2525   19.7471 C   0  0  0  0  0  0  0  0  0  0  0  0
  -20.6842  -27.0311   21.5307 C   0  0  0  0  0  0  0  0  0  0  0  0
  -27.7080  -11.0321   19.1690 C   0  0  0  0  0  0  0  0  0  0  0  0
  -28.2019  -16.9916   22.0696 C   0  0  0  0  0  0  0  0  0  0  0  0
  -27.6385  -12.4374   19.1193 C   0  0  0  0  0  0  0  0  0  0  0  0
  -27.3078  -18.0363   21.7955 C   0  0  0  0  0  0  0  0  0  0  0  0
  -20.5580  -22.8417   18.4470 C   0  0  0  0  0  0  0  0  0  0  0  0
  -29.1398  -19.3483   20.8831 C   0  0  0  0  0  0  0  0  0  0  0  0
  -21.2658  -21.1730   16.9515 C   0  0  0  0  0  0  0  0  0  0  0  0
  -23.2103  -20.1831   15.2132 C   0  0  0  0  0  0  0  0  0  0  0  0
  -21.8422  -19.9250   17.1878 C   0  0  0  0  0  0  0  0  0  0  0  0
  -21.3622  -26.4976   20.4183 C   0  0  0  0  0  0  0  0  0  0  0  0
  -21.3219  -28.2211   21.7831 C   0  0  0  0  0  0  0  0  0  0  0  0
  -30.2031  -26.3722   19.6910 C   0  0  0  0  0  0  0  0  0  0  0  0
  -28.7312  -27.9763   19.7914 C   0  0  0  0  0  0  0  0  0  0  0  0
  -29.8444  -22.8703   20.5883 C   0  0  0  0  0  0  0  0  0  0  0  0
  -29.7023  -23.9432   19.7644 C   0  0  0  0  0  0  0  0  0  0  0  0
  -32.4399  -24.7445   21.2583 C   0  0  0  0  0  0  0  0  0  0  0  0
  -19.5771  -26.4985   22.2699 C   0  0  0  0  0  0  0  0  0  0  0  0
  -25.9066  -14.9961   21.1458 C   0  0  0  0  0  0  0  0  0  0  0  0
  -24.1863  -16.5398   23.4218 C   0  0  0  0  0  0  0  0  0  0  0  0
  -21.9278  -18.0395   25.4946 C   0  0  0  0  0  0  0  0  0  0  0  0
  -27.0440  -29.8524   19.9065 C   0  0  0  0  0  0  0  0  0  0  0  0
  -26.5101  -10.1909   19.5324 C   0  0  0  0  0  0  0  0  0  0  0  0
  -27.7202  -15.7316   22.7351 C   0  0  0  0  0  0  0  0  0  0  0  0
  -25.8410  -17.9307   22.1208 C   0  0  0  0  0  0  0  0  0  0  0  0
  -30.9573  -22.7170   21.6199 C   0  0  0  0  0  0  0  0  0  0  0  0
  -31.5342  -24.0011   22.2153 C   0  0  0  0  0  0  0  0  0  0  0  0
  -32.0604  -24.7695   19.7979 C   0  0  0  0  0  0  0  0  0  0  0  0
  -25.4087  -10.9740   20.2424 C   0  0  0  0  0  0  0  0  0  0  0  0
  -23.8131  -31.5279   19.2637 C   0  0  0  0  0  0  0  0  0  0  0  0
  -25.1355  -12.2878   19.5172 C   0  0  0  0  0  0  0  0  0  0  0  0
  -22.7340  -30.5908   19.8083 C   0  0  0  0  0  0  0  0  0  0  0  0
  -25.1265  -31.4255   20.0269 C   0  0  0  0  0  0  0  0  0  0  0  0
  -24.6624  -28.9681   20.1552 C   0  0  0  0  0  0  0  0  0  0  0  0
  -26.3805  -13.1829   19.5092 C   0  0  1  0  0  0  0  0  0  0  0  0
  -26.2294  -15.4805   22.5310 C   0  0  1  0  0  0  0  0  0  0  0  0
  -23.3022  -29.4565   20.6775 C   0  0  2  0  0  0  0  0  0  0  0  0
  -28.5445  -24.0123   18.7847 C   0  0  0  0  0  0  0  0  0  0  0  0
  -19.4597  -18.3579   25.8183 C   0  0  0  0  0  0  0  0  0  0  0  0
  -24.1536  -18.5767   21.1503 C   0  0  0  0  0  0  0  0  0  0  0  0
  -22.0414  -19.5136   22.1141 C   0  0  0  0  0  0  0  0  0  0  0  0
  -22.1024  -17.1545   21.3057 C   0  0  0  0  0  0  0  0  0  0  0  0
  -21.9847  -16.7064   28.1363 C   0  0  0  0  0  0  0  0  0  0  0  0
  -28.8892  -21.6973   20.6082 C   0  0  0  0  0  0  0  0  0  1  0  0
  -23.3010  -17.7623   23.4472 C   0  0  1  0  0  0  0  0  0  0  0  0
  -20.6740  -17.5120   26.1686 C   0  0  2  0  0  0  0  0  0  0  0  0
  -22.9233  -18.2502   22.0201 C   0  0  0  0  0  0  0  0  0  0  0  0
  -22.3544  -27.2842   19.9932 N   0  0  0  0  0  0  0  0  0  0  0  0
  -22.3045  -28.3242   20.8429 N   0  0  0  0  0  0  0  0  0  0  0  0
  -30.6169  -25.0097   19.6746 N   0  0  0  0  0  0  0  0  0  0  0  0
  -25.4175  -16.6765   22.7651 N   0  0  0  0  0  0  0  0  0  0  0  0
  -25.6469  -30.0553   20.0194 N   0  0  0  0  0  0  0  0  0  0  0  0
  -21.1322  -29.1789   22.7153 N   0  0  0  0  0  0  0  0  0  0  0  0
  -19.8438  -25.6710   23.3691 N   0  0  0  0  0  0  0  0  0  0  0  0
  -27.4213  -28.5072   19.8928 N   0  0  0  0  0  0  0  0  0  0  0  0
  -26.5500  -13.8245   20.7953 N   0  0  0  0  0  0  0  0  0  0  0  0
  -22.1562  -17.4199   24.2842 N   0  0  0  0  0  0  0  0  0  0  0  0
  -20.8401  -17.5188   27.6496 N   0  3  0  0  0  0  0  0  0  0  0  0
  -33.4516  -25.3205   21.6607 O   0  0  0  0  0  0  0  0  0  0  0  0
  -18.3863  -26.7358   21.9547 O   0  0  0  0  0  0  0  0  0  0  0  0
  -25.1301  -15.6371   20.4472 O   0  0  0  0  0  0  0  0  0  0  0  0
  -23.8027  -15.5038   23.9708 O   0  0  0  0  0  0  0  0  0  0  0  0
  -22.6319  -18.9164   25.9904 O   0  0  0  0  0  0  0  0  0  0  0  0
  -27.8302  -30.7977   19.8148 O   0  0  0  0  0  0  0  0  0  0  0  0
  -28.8722  -26.6247   19.7975 O   0  0  0  0  0  0  0  0  0  0  0  0
  -20.2998  -21.6653   17.8130 O   0  0  0  0  0  0  0  0  0  0  0  0
  -29.5913  -20.4932   20.3023 O   0  0  0  0  0  0  0  0  0  1  0  0
  -24.1429  -19.7073   14.3777 F   0  0  0  0  0  0  0  0  0  0  0  0
  -21.4652  -19.1964   18.2474 F   0  0  0  0  0  0  0  0  0  0  0  0
  1  2  1  0  0  0  0
  1  5  2  0  0  0  0
  2  6  2  0  0  0  0
  3  8  2  0  0  0  0
  3 17  1  0  0  0  0
  4  9  1  0  0  0  0
  4 17  2  0  0  0  0
  5 19  1  0  0  0  0
  6 21  1  0  0  0  0
  7 10  2  0  0  0  0
  7 20  1  0  0  0  0
  8 23  1  0  0  0  0
  9 23  2  0  0  0  0
 10 24  1  0  0  0  0
 11 12  2  0  0  0  0
 11 25  1  0  0  0  0
 12 26  1  0  0  0  0
 13 14  1  0  0  0  0
 13 30  2  0  0  0  0
 14 31  2  0  0  0  0
 15 22  1  0  0  0  0
 15 24  2  0  0  0  0
 16 26  2  0  0  0  0
 16 27  1  0  0  0  0
 17 28  1  0  0  0  0
 18 28  1  0  0  0  0
 18 29  2  0  0  0  0
 18 35  1  0  0  0  0
 19 21  2  0  0  0  0
 19 40  1  0  0  0  0
 20 22  2  0  0  0  0
 20 41  1  0  0  0  0
 21 52  1  0  0  0  0
 22 42  1  0  0  0  0
 23 83  1  0  0  0  0
 24 84  1  0  0  0  0
 25 27  2  0  0  0  0
 25 83  1  0  0  0  0
 26 85  1  0  0  0  0
 27 86  1  0  0  0  0
 28 65  2  0  0  0  0
 29 66  1  0  0  0  0
 29 70  1  0  0  0  0
 30 67  1  0  0  0  0
 30 82  1  0  0  0  0
 31 72  1  0  0  0  0
 31 82  1  0  0  0  0
 32 33  2  0  0  0  0
 32 43  1  0  0  0  0
 32 61  1  0  0  0  0
 33 55  1  0  0  0  0
 33 67  1  0  0  0  0
 34 44  1  0  0  0  0
 34 45  1  0  0  0  0
 34 76  2  0  0  0  0
 35 71  1  0  0  0  0
 35 77  2  0  0  0  0
 36 53  1  0  0  0  0
 36 73  1  0  0  0  0
 36 78  2  0  0  0  0
 37 62  1  0  0  0  0
 37 68  1  0  0  0  0
 37 79  2  0  0  0  0
 38 63  1  0  0  0  0
 38 74  1  0  0  0  0
 38 80  2  0  0  0  0
 39 69  1  0  0  0  0
 39 72  1  0  0  0  0
 39 81  2  0  0  0  0
 40 46  1  0  0  0  0
 41 53  1  0  0  0  0
 42 68  1  0  0  0  0
 43 44  1  0  0  0  0
 45 67  1  0  0  0  0
 46 48  1  0  0  0  0
 47 49  1  0  0  0  0
 47 50  1  0  0  0  0
 48 52  1  0  0  0  0
 49 54  1  0  0  0  0
 50 69  1  0  0  0  0
 51 54  1  0  0  0  0
 51 69  1  0  0  0  0
 52 73  1  0  0  0  0
 53 68  1  0  0  0  0
 54 66  1  0  0  0  0
 56 63  1  0  0  0  0
 57 64  1  0  0  0  0
 58 64  1  0  0  0  0
 59 64  1  0  0  0  0
 60 75  1  0  0  0  0
 61 84  1  0  0  0  0
 62 64  1  0  0  0  0
 62 74  1  0  0  0  0
 63 75  1  0  0  0  0
 65 66  1  0  0  0  0
M  CHG  1  75   1
M  ISO  4  39 100  61 101  72 100  84 101
M  END
> <Batch ID>
0148

> <Smiles>
CNC(C)C(=O)NC(C(=O)N1Cc2cc([101O:1][101CH2:1]C3=C(C)N(c4ccc([100NH:0][100C:0](=O)N5CCCC(n6nc(-c7ccc(Oc8ccc(F)cc8F)cc7)c(C(N)=O)c6N)C5)o4)CC(=O)CC3)ccc2CC1C(=O)NC1CCCc2ccccc21)C(C)(C)C

> <Shape>
0.226

> <Color>
0.068

> <Negative vol penalty>
0.000

$$$$

  -OEChem-04052303163D

 85 94  0     1  0  0  0  0  0999 V2000
  -27.1209  -18.5316   13.1384 C   0  0  0  0  0  0  0  0  0  0  0  0
  -27.3859  -17.4835   14.0124 C   0  0  0  0  0  0  0  0  0  0  0  0
  -26.5924  -28.1995   19.4947 C   0  0  0  0  0  0  0  0  0  0  0  0
  -25.7974  -26.3315   20.8045 C   0  0  0  0  0  0  0  0  0  0  0  0
  -26.1287  -19.4592   13.4491 C   0  0  0  0  0  0  0  0  0  0  0  0
  -26.6510  -17.3556   15.1916 C   0  0  0  0  0  0  0  0  0  0  0  0
  -27.3995  -13.2924   17.8623 C   0  0  0  0  0  0  0  0  0  0  0  0
  -25.4472  -28.9219   19.8298 C   0  0  0  0  0  0  0  0  0  0  0  0
  -24.6521  -27.0539   21.1396 C   0  0  0  0  0  0  0  0  0  0  0  0
  -28.5679  -13.0740   18.5910 C   0  0  0  0  0  0  0  0  0  0  0  0
  -21.7082  -27.8693   19.6907 C   0  0  0  0  0  0  0  0  0  0  0  0
  -20.4811  -27.2105   19.6150 C   0  0  0  0  0  0  0  0  0  0  0  0
  -27.3964  -13.6309   20.6249 C   0  0  0  0  0  0  0  0  0  0  0  0
  -20.1203  -27.6117   21.9700 C   0  0  0  0  0  0  0  0  0  0  0  0
  -29.1955  -18.7569   21.9230 C   0  0  0  0  0  0  0  0  0  0  0  0
  -26.7675  -26.9043   19.9821 C   0  0  0  0  0  0  0  0  0  0  0  0
  -29.2861  -26.5060   19.9096 C   0  0  0  0  0  0  0  0  0  0  0  0
  -25.3902  -19.3491   14.6388 C   0  0  0  0  0  0  0  0  0  0  0  0
  -26.2216  -13.6929   18.5093 C   0  0  0  0  0  0  0  0  0  0  0  0
  -25.6292  -18.2680   15.5114 C   0  0  0  0  0  0  0  0  0  0  0  0
  -26.2137  -13.8513   19.9025 C   0  0  0  0  0  0  0  0  0  0  0  0
  -24.4771  -28.3491   20.6522 C   0  0  0  0  0  0  0  0  0  0  0  0
  -28.5672  -13.2460   19.9721 C   0  0  0  0  0  0  0  0  0  0  0  0
  -22.1414  -28.3993   20.9061 C   0  0  0  0  0  0  0  0  0  0  0  0
  -19.6872  -27.0817   20.7546 C   0  0  0  0  0  0  0  0  0  0  0  0
  -21.3475  -28.2705   22.0457 C   0  0  0  0  0  0  0  0  0  0  0  0
  -30.0516  -17.6941   22.2983 C   0  0  0  0  0  0  0  0  0  0  0  0
  -27.9500  -26.1574   19.6358 C   0  0  0  0  0  0  0  0  0  0  0  0
  -30.0250  -25.4766   19.3797 C   0  0  0  0  0  0  0  0  0  0  0  0
  -30.5980  -17.2135   21.1311 C   0  0  0  0  0  0  0  0  0  0  0  0
  -29.2800  -18.8501   20.5533 C   0  0  0  0  0  0  0  0  0  0  0  0
  -29.8123  -27.6574   20.5828 C   0  0  0  0  0  0  0  0  0  0  0  0
  -24.3433  -16.2533   18.3662 C   0  0  0  0  0  0  0  0  0  0  0  0
  -22.4755  -14.5128   20.3673 C   0  0  0  0  0  0  0  0  0  0  0  0
  -22.9651  -12.3632   23.2234 C   0  0  0  0  0  0  0  0  0  0  0  0
  -28.8045  -19.7384   18.2444 C   0  0  0  0  0  0  0  0  0  0  0  0
  -24.3226  -20.3765   14.9216 C   0  0  0  0  0  0  0  0  0  0  0  0
  -24.9627  -13.8986   17.7122 C   0  0  0  0  0  0  0  0  0  0  0  0
  -24.9702  -14.2605   20.6471 C   0  0  0  0  0  0  0  0  0  0  0  0
  -23.9077  -20.4142   16.3888 C   0  0  0  0  0  0  0  0  0  0  0  0
  -29.9067  -22.1845   15.9037 C   0  0  0  0  0  0  0  0  0  0  0  0
  -33.3189  -15.2528   19.4916 C   0  0  0  0  0  0  0  0  0  0  0  0
  -23.6086  -19.0059   16.8807 C   0  0  0  0  0  0  0  0  0  0  0  0
  -29.6573  -23.5124   16.6225 C   0  0  0  0  0  0  0  0  0  0  0  0
  -33.3487  -14.0218   20.3922 C   0  0  0  0  0  0  0  0  0  0  0  0
  -32.7797  -16.4835   20.2167 C   0  0  0  0  0  0  0  0  0  0  0  0
  -28.8137  -21.1613   16.2071 C   0  0  0  0  0  0  0  0  0  0  0  0
  -28.3077  -22.2597   18.3535 C   0  0  0  0  0  0  0  0  0  0  0  0
  -31.4931  -15.0220   21.7803 C   0  0  0  0  0  0  0  0  0  0  0  0
  -24.8635  -18.1263   16.8145 C   0  0  1  0  0  0  0  0  0  0  0  0
  -23.9532  -14.8030   18.4124 C   0  0  1  0  0  0  0  0  0  0  0  0
  -29.4168  -23.3007   18.1301 C   0  0  2  0  0  0  0  0  0  0  0  0
  -31.9860  -13.7464   21.0617 C   0  0  2  0  0  0  0  0  0  0  0  0
  -32.1590  -12.6197   22.0970 C   0  0  0  0  0  0  0  0  0  0  0  0
  -21.5773  -10.4607   24.0904 C   0  0  0  0  0  0  0  0  0  0  0  0
  -21.2012  -16.6357   22.1504 C   0  0  0  0  0  0  0  0  0  0  0  0
  -21.1285  -14.9437   23.9943 C   0  0  0  0  0  0  0  0  0  0  0  0
  -19.8518  -14.5465   21.8883 C   0  0  0  0  0  0  0  0  0  0  0  0
  -25.2617  -10.4983   23.1421 C   0  0  0  0  0  0  0  0  0  0  0  0
  -30.9446  -13.2866   20.0225 C   0  0  0  0  0  0  0  0  0  1  0  0
  -22.3725  -14.3526   21.8649 C   0  0  1  0  0  0  0  0  0  0  0  0
  -22.7928  -10.8556   23.2662 C   0  0  2  0  0  0  0  0  0  0  0  0
  -21.1631  -15.1263   22.4619 C   0  0  0  0  0  0  0  0  0  0  0  0
  -27.8432  -24.9972   18.9826 N   0  0  0  0  0  0  0  0  0  0  0  0
  -29.1217  -24.6079   18.8414 N   0  0  0  0  0  0  0  0  0  0  0  0
  -31.5058  -16.1804   20.8740 N   0  0  1  0  0  0  0  0  0  0  0  0
  -23.7662  -14.4558   19.8226 N   0  0  0  0  0  0  0  0  0  0  0  0
  -28.6447  -21.0099   17.6540 N   0  0  0  0  0  0  0  0  0  0  0  0
  -31.3528  -25.2387   19.3262 N   0  0  0  0  0  0  0  0  0  0  0  0
  -29.9937  -27.5948   21.9711 N   0  0  0  0  0  0  0  0  0  0  0  0
  -28.6523  -19.7230   19.6304 N   0  0  0  0  0  0  0  0  0  0  0  0
  -24.4937  -16.7550   17.0875 N   0  0  0  0  0  0  0  0  0  0  0  0
  -22.3485  -12.9166   22.1212 N   0  0  0  0  0  0  0  0  0  0  0  0
  -23.9963  -10.2135   23.8664 N   0  3  0  0  0  0  0  0  0  0  0  0
  -30.0974  -28.7162   19.9735 O   0  0  0  0  0  0  0  0  0  0  0  0
  -24.4950  -16.8717   19.4132 O   0  0  0  0  0  0  0  0  0  0  0  0
  -21.4479  -14.6751   19.7044 O   0  0  0  0  0  0  0  0  0  0  0  0
  -23.5816  -12.9879   24.0837 O   0  0  0  0  0  0  0  0  0  0  0  0
  -29.0845  -18.7418   17.5732 O   0  0  0  0  0  0  0  0  0  0  0  0
  -30.1329  -17.9128   20.0628 O   0  0  0  0  0  0  0  0  0  0  0  0
  -23.3596  -29.0538   20.9795 O   0  0  0  0  0  0  0  0  0  0  0  0
  -29.7064  -13.0341   20.6856 O   0  0  0  0  0  0  0  0  0  1  0  0
  -18.5081  -26.4503   20.6813 F   0  0  0  0  0  0  0  0  0  0  0  0
  -21.7578  -28.7786   23.2159 F   0  0  0  0  0  0  0  0  0  0  0  0
  -30.3145  -17.1585   23.8849 Cl  0  0  0  0  0  0  0  0  0  0  0  0
  1  2  1  0  0  0  0
  1  5  2  0  0  0  0
  2  6  2  0  0  0  0
  3  8  2  0  0  0  0
  3 16  1  0  0  0  0
  4  9  1  0  0  0  0
  4 16  2  0  0  0  0
  5 18  1  0  0  0  0
  6 20  1  0  0  0  0
  7 10  2  0  0  0  0
  7 19  1  0  0  0  0
  8 22  1  0  0  0  0
  9 22  2  0  0  0  0
 10 23  1  0  0  0  0
 11 12  2  0  0  0  0
 11 24  1  0  0  0  0
 12 25  1  0  0  0  0
 13 21  1  0  0  0  0
 13 23  2  0  0  0  0
 14 25  2  0  0  0  0
 14 26  1  0  0  0  0
 15 27  1  0  0  0  0
 15 31  2  0  0  0  0
 16 28  1  0  0  0  0
 17 28  1  0  0  0  0
 17 29  2  0  0  0  0
 17 32  1  0  0  0  0
 18 20  2  0  0  0  0
 18 37  1  0  0  0  0
 19 21  2  0  0  0  0
 19 38  1  0  0  0  0
 20 50  1  0  0  0  0
 21 39  1  0  0  0  0
 22 81  1  0  0  0  0
 23 82  1  0  0  0  0
 24 26  2  0  0  0  0
 24 81  1  0  0  0  0
 25 83  1  0  0  0  0
 26 84  1  0  0  0  0
 27 30  2  0  0  0  0
 27 85  1  0  0  0  0
 28 64  2  0  0  0  0
 29 65  1  0  0  0  0
 29 69  1  0  0  0  0
 30 66  1  0  0  0  0
 30 80  1  0  0  0  0
 31 71  1  0  0  0  0
 31 80  1  0  0  0  0
 32 70  1  0  0  0  0
 32 75  2  0  0  0  0
 33 51  1  0  0  0  0
 33 72  1  0  0  0  0
 33 76  2  0  0  0  0
 34 61  1  0  0  0  0
 34 67  1  0  0  0  0
 34 77  2  0  0  0  0
 35 62  1  0  0  0  0
 35 73  1  0  0  0  0
 35 78  2  0  0  0  0
 36 68  1  0  0  0  0
 36 71  1  0  0  0  0
 36 79  2  0  0  0  0
 37 40  1  0  0  0  0
 38 51  1  0  0  0  0
 39 67  1  0  0  0  0
 40 43  1  0  0  0  0
 41 44  1  0  0  0  0
 41 47  1  0  0  0  0
 42 45  1  0  0  0  0
 42 46  1  0  0  0  0
 43 50  1  0  0  0  0
 44 52  1  0  0  0  0
 45 53  1  0  0  0  0
 46 66  1  0  0  0  0
 47 68  1  0  0  0  0
 48 52  1  0  0  0  0
 48 68  1  0  0  0  0
 49 53  1  0  0  0  0
 49 66  1  0  0  0  0
 50 72  1  0  0  0  0
 51 67  1  0  0  0  0
 52 65  1  0  0  0  0
 53 54  1  0  0  0  0
 53 60  1  0  0  0  0
 55 62  1  0  0  0  0
 56 63  1  0  0  0  0
 57 63  1  0  0  0  0
 58 63  1  0  0  0  0
 59 74  1  0  0  0  0
 60 82  1  0  0  0  0
 61 63  1  0  0  0  0
 61 73  1  0  0  0  0
 62 74  1  0  0  0  0
 64 65  1  0  0  0  0
M  CHG  1  74   1
M  ISO  4  36 100  60 101  71 100  82 101
M  END
> <Batch ID>
0148

> <Smiles>
CNC(C)C(=O)NC(C(=O)N1Cc2cc([101O:1][101CH2:1]C3(C)CCCN(c4oc([100NH:0][100C:0](=O)N5CCCC(n6nc(-c7ccc(Oc8ccc(F)cc8F)cc7)c(C(N)=O)c6N)C5)cc4Cl)C3)ccc2CC1C(=O)NC1CCCc2ccccc21)C(C)(C)C

> <Shape>
0.261

> <Color>
0.063

> <Negative vol penalty>
0.000

$$$$

  -OEChem-04052303163D

 86 95  0     1  0  0  0  0  0999 V2000
  -27.9140  -24.1829   17.1519 C   0  0  0  0  0  0  0  0  0  0  0  0
  -26.7075  -24.4995   17.7681 C   0  0  0  0  0  0  0  0  0  0  0  0
  -25.5162  -14.5934   19.0161 C   0  0  0  0  0  0  0  0  0  0  0  0
  -24.5891  -14.6081   21.2471 C   0  0  0  0  0  0  0  0  0  0  0  0
  -29.1159  -24.6116   17.7137 C   0  0  0  0  0  0  0  0  0  0  0  0
  -26.7024  -25.2441   18.9471 C   0  0  0  0  0  0  0  0  0  0  0  0
  -23.2084  -28.9097   18.9144 C   0  0  0  0  0  0  0  0  0  0  0  0
  -25.7363  -13.2197   19.1166 C   0  0  0  0  0  0  0  0  0  0  0  0
  -24.8092  -13.2344   21.3476 C   0  0  0  0  0  0  0  0  0  0  0  0
  -21.8879  -28.5328   19.1552 C   0  0  0  0  0  0  0  0  0  0  0  0
  -24.7953   -9.6682   22.0547 C   0  0  0  0  0  0  0  0  0  0  0  0
  -23.7690   -8.8829   22.5796 C   0  0  0  0  0  0  0  0  0  0  0  0
  -22.1021  -29.2663   21.4433 C   0  0  0  0  0  0  0  0  0  0  0  0
  -21.3946  -24.5351   24.0410 C   0  0  0  0  0  0  0  0  0  0  0  0
  -22.3060   -9.6035   20.7970 C   0  0  0  0  0  0  0  0  0  0  0  0
  -24.9426  -15.2876   20.0814 C   0  0  0  0  0  0  0  0  0  0  0  0
  -23.5606  -17.3499   19.4944 C   0  0  0  0  0  0  0  0  0  0  0  0
  -29.1250  -25.3701   18.8949 C   0  0  0  0  0  0  0  0  0  0  0  0
  -23.9904  -29.4586   19.9409 C   0  0  0  0  0  0  0  0  0  0  0  0
  -27.9056  -25.6822   19.5259 C   0  0  0  0  0  0  0  0  0  0  0  0
  -23.4315  -29.6517   21.2123 C   0  0  0  0  0  0  0  0  0  0  0  0
  -22.3757  -23.8428   24.8080 C   0  0  0  0  0  0  0  0  0  0  0  0
  -25.3828  -12.5402   20.2823 C   0  0  0  0  0  0  0  0  0  0  0  0
  -21.3355  -28.7084   20.4205 C   0  0  0  0  0  0  0  0  0  0  0  0
  -24.5770  -10.4212   20.9009 C   0  0  0  0  0  0  0  0  0  0  0  0
  -22.5243   -8.8505   21.9508 C   0  0  0  0  0  0  0  0  0  0  0  0
  -23.3323  -10.3888   20.2721 C   0  0  0  0  0  0  0  0  0  0  0  0
  -24.7155  -16.7068   19.9784 C   0  0  0  0  0  0  0  0  0  0  0  0
  -23.6067  -23.8374   24.1898 C   0  0  0  0  0  0  0  0  0  0  0  0
  -23.8424  -18.6898   19.6036 C   0  0  0  0  0  0  0  0  0  0  0  0
  -21.9133  -25.0329   22.8658 C   0  0  0  0  0  0  0  0  0  0  0  0
  -22.3419  -16.7867   18.9912 C   0  0  0  0  0  0  0  0  0  0  0  0
  -26.6693  -28.6024   21.4223 C   0  0  0  0  0  0  0  0  0  0  0  0
  -26.3576  -31.5075   22.8315 C   0  0  0  0  0  0  0  0  0  0  0  0
  -24.3059  -34.0704   23.7634 C   0  0  0  0  0  0  0  0  0  0  0  0
  -19.9797  -26.1931   21.7459 C   0  0  0  0  0  0  0  0  0  0  0  0
  -26.6063  -22.4070   23.0760 C   0  0  0  0  0  0  0  0  0  0  0  0
  -30.4515  -25.7708   19.4901 C   0  0  0  0  0  0  0  0  0  0  0  0
  -25.4049  -29.8847   19.6579 C   0  0  0  0  0  0  0  0  0  0  0  0
  -24.2225  -30.2554   22.3429 C   0  0  0  0  0  0  0  0  0  0  0  0
  -30.3402  -26.8748   20.5384 C   0  0  0  0  0  0  0  0  0  0  0  0
  -27.9874  -21.3600   19.9659 C   0  0  0  0  0  0  0  0  0  0  0  0
  -29.2086  -26.5713   21.5152 C   0  0  0  0  0  0  0  0  0  0  0  0
  -27.1771  -20.1132   19.6071 C   0  0  0  0  0  0  0  0  0  0  0  0
  -22.3166  -21.6801   26.2731 C   0  0  0  0  0  0  0  0  0  0  0  0
  -20.9152  -22.2034   26.2242 C   0  0  0  0  0  0  0  0  0  0  0  0
  -28.2358  -21.4583   21.4694 C   0  0  0  0  0  0  0  0  0  0  0  0
  -26.2118  -20.1350   21.9451 C   0  0  0  0  0  0  0  0  0  0  0  0
  -27.8576  -26.5092   20.7923 C   0  0  1  0  0  0  0  0  0  0  0  0
  -26.2692  -29.9582   20.9129 C   0  0  1  0  0  0  0  0  0  0  0  0
  -25.8880  -20.0217   20.4456 C   0  0  2  0  0  0  0  0  0  0  0  0
  -22.0839  -23.1866   26.1575 C   0  0  0  0  0  0  0  0  0  0  0  0
  -22.3500  -24.0189   27.3901 C   0  0  0  0  0  0  0  0  0  0  0  0
  -24.3339  -36.2911   24.9318 C   0  0  0  0  0  0  0  0  0  0  0  0
  -18.2609  -26.8590   20.0249 C   0  0  0  0  0  0  0  0  0  0  0  0
  -26.5741  -30.0861   25.5228 C   0  0  0  0  0  0  0  0  0  0  0  0
  -25.6604  -32.1493   26.6073 C   0  0  0  0  0  0  0  0  0  0  0  0
  -27.8295  -32.2443   25.3789 C   0  0  0  0  0  0  0  0  0  0  0  0
  -23.3431  -35.4840   21.3481 C   0  0  0  0  0  0  0  0  0  0  0  0
  -24.8754  -23.2313   24.6520 C   0  0  0  0  0  0  0  0  0  0  0  0
  -25.6748  -32.0251   24.0745 C   0  0  1  0  0  0  0  0  0  0  0  0
  -24.4316  -35.5738   23.5944 C   0  0  2  0  0  0  0  0  0  0  0  0
  -19.7157  -26.9674   20.4571 C   0  0  1  0  0  0  0  0  0  1  0  0
  -26.4202  -31.6130   25.3753 C   0  0  0  0  0  0  0  0  0  0  0  0
  -25.6608  -17.5672   20.3660 N   0  0  0  0  0  0  0  0  0  0  0  0
  -25.1002  -18.7647   20.1257 N   0  0  0  0  0  0  0  0  0  0  0  0
  -25.6031  -30.6502   22.0181 N   0  0  0  0  0  0  0  0  0  0  0  0
  -26.9734  -21.3664   22.2068 N   0  0  0  0  0  0  0  0  0  0  0  0
  -23.1346  -19.7993   19.3030 N   0  0  0  0  0  0  0  0  0  0  0  0
  -22.2185  -15.3912   18.9483 N   0  0  0  0  0  0  0  0  0  0  0  0
  -21.3031  -25.7721   21.8245 N   0  0  0  0  0  0  0  0  0  0  0  0
  -27.3746  -27.8435   20.5081 N   0  0  0  0  0  0  0  0  0  0  0  0
  -25.5384  -33.4665   23.8951 N   0  0  0  0  0  0  0  0  0  0  0  0
  -25.3917  -22.2436   23.7308 N   0  0  0  0  0  0  0  0  0  0  0  0
  -23.3511  -36.0873   22.7057 N   0  3  0  0  0  0  0  0  0  0  0  0
  -21.3969  -17.4996   18.5762 O   0  0  0  0  0  0  0  0  0  0  0  0
  -26.3620  -28.2701   22.5611 O   0  0  0  0  0  0  0  0  0  0  0  0
  -27.5152  -31.8568   22.5875 O   0  0  0  0  0  0  0  0  0  0  0  0
  -23.2225  -33.4904   23.7808 O   0  0  0  0  0  0  0  0  0  0  0  0
  -19.0917  -26.0154   22.5748 O   0  0  0  0  0  0  0  0  0  0  0  0
  -27.3064  -23.4101   23.2512 O   0  0  0  0  0  0  0  0  0  0  0  0
  -25.5972  -11.1997   20.3806 O   0  0  0  0  0  0  0  0  0  0  0  0
  -20.0470  -28.3408   20.6584 O   0  0  0  0  0  0  0  0  0  1  0  0
  -21.5393   -8.0951   22.4541 F   0  0  0  0  0  0  0  0  0  0  0  0
  -23.1170  -11.1091   19.1628 F   0  0  0  0  0  0  0  0  0  0  0  0
  -23.5765  -24.6649   22.6909 S   0  0  0  0  0  0  0  0  0  0  0  0
  1  2  1  0  0  0  0
  1  5  2  0  0  0  0
  2  6  2  0  0  0  0
  3  8  2  0  0  0  0
  3 16  1  0  0  0  0
  4  9  1  0  0  0  0
  4 16  2  0  0  0  0
  5 18  1  0  0  0  0
  6 20  1  0  0  0  0
  7 10  2  0  0  0  0
  7 19  1  0  0  0  0
  8 23  1  0  0  0  0
  9 23  2  0  0  0  0
 10 24  1  0  0  0  0
 11 12  2  0  0  0  0
 11 25  1  0  0  0  0
 12 26  1  0  0  0  0
 13 21  1  0  0  0  0
 13 24  2  0  0  0  0
 14 22  1  0  0  0  0
 14 31  2  0  0  0  0
 15 26  2  0  0  0  0
 15 27  1  0  0  0  0
 16 28  1  0  0  0  0
 17 28  1  0  0  0  0
 17 30  2  0  0  0  0
 17 32  1  0  0  0  0
 18 20  2  0  0  0  0
 18 38  1  0  0  0  0
 19 21  2  0  0  0  0
 19 39  1  0  0  0  0
 20 49  1  0  0  0  0
 21 40  1  0  0  0  0
 22 29  2  0  0  0  0
 22 52  1  0  0  0  0
 23 82  1  0  0  0  0
 24 83  1  0  0  0  0
 25 27  2  0  0  0  0
 25 82  1  0  0  0  0
 26 84  1  0  0  0  0
 27 85  1  0  0  0  0
 28 65  2  0  0  0  0
 29 60  1  0  0  0  0
 29 86  1  0  0  0  0
 30 66  1  0  0  0  0
 30 69  1  0  0  0  0
 31 71  1  0  0  0  0
 31 86  1  0  0  0  0
 32 70  1  0  0  0  0
 32 76  2  0  0  0  0
 33 50  1  0  0  0  0
 33 72  1  0  0  0  0
 33 77  2  0  0  0  0
 34 61  1  0  0  0  0
 34 67  1  0  0  0  0
 34 78  2  0  0  0  0
 35 62  1  0  0  0  0
 35 73  1  0  0  0  0
 35 79  2  0  0  0  0
 36 63  1  0  0  0  0
 36 71  1  0  0  0  0
 36 80  2  0  0  0  0
 37 68  1  0  0  0  0
 37 74  1  0  0  0  0
 37 81  2  0  0  0  0
 38 41  1  0  0  0  0
 39 50  1  0  0  0  0
 40 67  1  0  0  0  0
 41 43  1  0  0  0  0
 42 44  1  0  0  0  0
 42 47  1  0  0  0  0
 43 49  1  0  0  0  0
 44 51  1  0  0  0  0
 45 46  1  0  0  0  0
 45 52  1  0  0  0  0
 46 52  1  0  0  0  0
 47 68  1  0  0  0  0
 48 51  1  0  0  0  0
 48 68  1  0  0  0  0
 49 72  1  0  0  0  0
 50 67  1  0  0  0  0
 51 66  1  0  0  0  0
 52 53  1  0  0  0  0
 54 62  1  0  0  0  0
 55 63  1  0  0  0  0
 56 64  1  0  0  0  0
 57 64  1  0  0  0  0
 58 64  1  0  0  0  0
 59 75  1  0  0  0  0
 60 74  1  0  0  0  0
 61 64  1  0  0  0  0
 61 73  1  0  0  0  0
 62 75  1  0  0  0  0
 63 83  1  0  0  0  0
 65 66  1  0  0  0  0
M  CHG  1  75   1
M  ISO  4  37 100  63 101  74 100  83 101
M  END
> <Batch ID>
0148

> <Smiles>
CNC(C)C(=O)NC(C(=O)N1Cc2cc([101O:1][101CH:1](C)C(=O)Nc3cc(C4(C)CC4)c(C[100NH:0][100C:0](=O)N4CCCC(n5nc(-c6ccc(Oc7ccc(F)cc7F)cc6)c(C(N)=O)c5N)C4)s3)ccc2CC1C(=O)NC1CCCc2ccccc21)C(C)(C)C

> <Shape>
0.298

> <Color>
0.083

> <Negative vol penalty>
0.000

$$$$

  -OEChem-04052303163D

 86 95  0     1  0  0  0  0  0999 V2000
  -28.1025  -37.6380   22.9083 C   0  0  0  0  0  0  0  0  0  0  0  0
  -28.5756  -36.4414   22.3794 C   0  0  0  0  0  0  0  0  0  0  0  0
  -22.4119  -10.5677   20.9192 C   0  0  0  0  0  0  0  0  0  0  0  0
  -22.1790  -12.0557   19.0301 C   0  0  0  0  0  0  0  0  0  0  0  0
  -27.0904  -37.6233   23.8671 C   0  0  0  0  0  0  0  0  0  0  0  0
  -28.0375  -35.2292   22.8100 C   0  0  0  0  0  0  0  0  0  0  0  0
  -27.1892  -30.1784   19.4519 C   0  0  0  0  0  0  0  0  0  0  0  0
  -21.1696  -10.0040   20.6284 C   0  0  0  0  0  0  0  0  0  0  0  0
  -20.9367  -11.4920   18.7392 C   0  0  0  0  0  0  0  0  0  0  0  0
  -27.9342  -29.0082   19.3132 C   0  0  0  0  0  0  0  0  0  0  0  0
  -19.9044   -7.7569   18.4414 C   0  0  0  0  0  0  0  0  0  0  0  0
  -19.7999   -6.3664   18.4740 C   0  0  0  0  0  0  0  0  0  0  0  0
  -31.0444  -19.8779   18.4543 C   0  0  0  0  0  0  0  0  0  0  0  0
  -29.5641  -19.5978   20.3430 C   0  0  0  0  0  0  0  0  0  0  0  0
  -26.5362  -27.9303   20.9572 C   0  0  0  0  0  0  0  0  0  0  0  0
  -30.1106  -17.7044   18.9453 C   0  0  0  0  0  0  0  0  0  0  0  0
  -18.1176   -6.5333   20.2001 C   0  0  0  0  0  0  0  0  0  0  0  0
  -22.9166  -11.5936   20.1201 C   0  0  0  0  0  0  0  0  0  0  0  0
  -30.3688  -20.4157   19.5497 C   0  0  0  0  0  0  0  0  0  0  0  0
  -25.4556  -11.7618   19.9386 C   0  0  0  0  0  0  0  0  0  0  0  0
  -26.5330  -36.4107   24.3026 C   0  0  0  0  0  0  0  0  0  0  0  0
  -26.1170  -30.2369   20.3539 C   0  0  0  0  0  0  0  0  0  0  0  0
  -27.0179  -35.1981   23.7765 C   0  0  0  0  0  0  0  0  0  0  0  0
  -25.7775  -29.1017   21.1037 C   0  0  0  0  0  0  0  0  0  0  0  0
  -30.9153  -18.5223   18.1521 C   0  0  0  0  0  0  0  0  0  0  0  0
  -29.4350  -18.2422   20.0408 C   0  0  0  0  0  0  0  0  0  0  0  0
  -20.4320  -10.4661   19.5384 C   0  0  0  0  0  0  0  0  0  0  0  0
  -27.6096  -27.8848   20.0680 C   0  0  0  0  0  0  0  0  0  0  0  0
  -19.1155   -8.5357   19.2882 C   0  0  0  0  0  0  0  0  0  0  0  0
  -18.9065   -5.7546   19.3533 C   0  0  0  0  0  0  0  0  0  0  0  0
  -18.2221   -7.9238   20.1675 C   0  0  0  0  0  0  0  0  0  0  0  0
  -24.1995  -12.1767   20.4204 C   0  0  0  0  0  0  0  0  0  0  0  0
  -26.3485  -12.6328   20.5134 C   0  0  0  0  0  0  0  0  0  0  0  0
  -28.5711  -24.6745   18.7830 C   0  0  0  0  0  0  0  0  0  0  0  0
  -27.9343  -25.8298   18.9993 C   0  0  0  0  0  0  0  0  0  1  0  0
  -30.5050  -21.8480   19.8692 C   0  0  0  0  0  0  0  0  0  0  0  0
  -25.7856  -10.6855   19.0507 C   0  0  0  0  0  0  0  0  0  0  0  0
  -25.4586  -31.9524   22.9475 C   0  0  0  0  0  0  0  0  0  0  0  0
  -22.5930  -30.4466   22.7403 C   0  0  0  0  0  0  0  0  0  0  0  0
  -20.8060  -27.7587   21.6316 C   0  0  0  0  0  0  0  0  0  0  0  0
  -27.8787  -17.7850   21.9683 C   0  0  0  0  0  0  0  0  0  0  0  0
  -25.4736  -36.4426   25.3756 C   0  0  0  0  0  0  0  0  0  0  0  0
  -25.3065  -31.4984   20.4723 C   0  0  0  0  0  0  0  0  0  0  0  0
  -24.6231  -29.1064   22.0710 C   0  0  0  0  0  0  0  0  0  0  0  0
  -28.1698  -23.6433   17.7694 C   0  0  0  0  0  0  0  0  0  0  0  0
  -29.7198  -24.1626   19.5973 C   0  0  0  0  0  0  0  0  0  0  0  0
  -24.6968  -35.1348   25.5037 C   0  0  0  0  0  0  0  0  0  0  0  0
  -25.7146  -16.0458   24.1974 C   0  0  0  0  0  0  0  0  0  0  0  0
  -25.6517  -33.9453   25.5114 C   0  0  0  0  0  0  0  0  0  0  0  0
  -25.2308  -14.8500   23.3738 C   0  0  0  0  0  0  0  0  0  0  0  0
  -28.5679  -22.3295   18.4308 C   0  0  0  0  0  0  0  0  0  0  0  0
  -25.8640  -17.3015   23.3403 C   0  0  0  0  0  0  0  0  0  0  0  0
  -26.2078  -15.9421   21.3147 C   0  0  0  0  0  0  0  0  0  0  0  0
  -26.4424  -33.8641   24.2000 C   0  0  1  0  0  0  0  0  0  0  0  0
  -24.5571  -31.6049   21.7968 C   0  0  1  0  0  0  0  0  0  0  0  0
  -26.1043  -14.6376   22.1219 C   0  0  2  0  0  0  0  0  0  0  0  0
  -18.4914  -26.7895   21.6484 C   0  0  0  0  0  0  0  0  0  0  0  0
  -22.9791  -29.5812   25.6406 C   0  0  0  0  0  0  0  0  0  0  0  0
  -21.1724  -27.8816   25.3010 C   0  0  0  0  0  0  0  0  0  0  0  0
  -20.6561  -30.3111   25.0701 C   0  0  0  0  0  0  0  0  0  0  0  0
  -20.6188  -27.8554   18.6796 C   0  0  0  0  0  0  0  0  0  0  0  0
  -22.0206  -29.1585   23.2808 C   0  0  1  0  0  0  0  0  0  0  0  0
  -19.4819  -27.6638   20.8953 C   0  0  2  0  0  0  0  0  0  0  0  0
  -21.7300  -29.2333   24.8064 C   0  0  0  0  0  0  0  0  0  0  0  0
  -24.2830  -13.2292   21.2385 N   0  0  0  0  0  0  0  0  0  0  0  0
  -25.6022  -13.4830   21.2752 N   0  0  0  0  0  0  0  0  0  0  0  0
  -29.6619  -22.7146   19.3370 N   0  0  0  0  0  0  0  0  0  0  0  0
  -23.8649  -30.3655   22.1559 N   0  0  0  0  0  0  0  0  0  0  0  0
  -26.7075  -17.0259   22.1752 N   0  0  0  0  0  0  0  0  0  0  0  0
  -31.5980  -17.9786   17.0441 N   0  0  0  0  0  0  0  0  0  0  0  0
  -27.6915  -12.7466   20.4366 N   0  0  0  0  0  0  0  0  0  0  0  0
  -24.7463   -9.8884   18.5519 N   0  0  0  0  0  0  0  0  0  0  0  0
  -28.6174  -17.4111   20.8462 N   0  0  0  0  0  0  0  0  0  0  0  0
  -25.6187  -33.3104   23.1467 N   0  0  0  0  0  0  0  0  0  0  0  0
  -20.8501  -28.8573   22.4637 N   0  0  0  0  0  0  0  0  0  0  0  0
  -31.4733  -22.2452   20.6895 N   0  3  0  0  0  0  0  0  0  0  0  0
  -19.6844  -27.0827   19.5380 N   0  3  0  0  0  0  0  0  0  0  0  0
  -26.9686  -10.4278   18.7228 O   0  0  0  0  0  0  0  0  0  0  0  0
  -25.9699  -31.0549   23.6069 O   0  0  0  0  0  0  0  0  0  0  0  0
  -21.9328  -31.4850   22.8267 O   0  0  0  0  0  0  0  0  0  0  0  0
  -21.7094  -26.9382   21.4862 O   0  0  0  0  0  0  0  0  0  0  0  0
  -28.2168  -18.6814   22.7456 O   0  0  0  0  0  0  0  0  0  0  0  0
  -19.2199   -9.9161   19.2542 O   0  0  0  0  0  0  0  0  0  0  0  0
  -28.3356  -26.7415   19.9349 O   0  0  0  0  0  0  0  0  0  1  0  0
  -18.8051   -4.4193   19.3833 F   0  0  0  0  0  0  0  0  0  0  0  0
  -17.4608   -8.6667   20.9826 F   0  0  0  0  0  0  0  0  0  0  0  0
  1  2  1  0  0  0  0
  1  5  2  0  0  0  0
  2  6  2  0  0  0  0
  3  8  2  0  0  0  0
  3 18  1  0  0  0  0
  4  9  1  0  0  0  0
  4 18  2  0  0  0  0
  5 21  1  0  0  0  0
  6 23  1  0  0  0  0
  7 10  2  0  0  0  0
  7 22  1  0  0  0  0
  8 27  1  0  0  0  0
  9 27  2  0  0  0  0
 10 28  1  0  0  0  0
 11 12  2  0  0  0  0
 11 29  1  0  0  0  0
 12 30  1  0  0  0  0
 13 19  1  0  0  0  0
 13 25  2  0  0  0  0
 14 19  2  0  0  0  0
 14 26  1  0  0  0  0
 15 24  1  0  0  0  0
 15 28  2  0  0  0  0
 16 25  1  0  0  0  0
 16 26  2  0  0  0  0
 17 30  2  0  0  0  0
 17 31  1  0  0  0  0
 18 32  1  0  0  0  0
 19 36  1  0  0  0  0
 20 32  1  0  0  0  0
 20 33  2  0  0  0  0
 20 37  1  0  0  0  0
 21 23  2  0  0  0  0
 21 42  1  0  0  0  0
 22 24  2  0  0  0  0
 22 43  1  0  0  0  0
 23 54  1  0  0  0  0
 24 44  1  0  0  0  0
 25 70  1  0  0  0  0
 26 73  1  0  0  0  0
 27 83  1  0  0  0  0
 28 84  1  0  0  0  0
 29 31  2  0  0  0  0
 29 83  1  0  0  0  0
 30 85  1  0  0  0  0
 31 86  1  0  0  0  0
 32 65  2  0  0  0  0
 33 66  1  0  0  0  0
 33 71  1  0  0  0  0
 34 35  2  0  0  0  0
 34 45  1  0  0  0  0
 34 46  1  0  0  0  0
 35 84  1  0  0  0  0
 36 67  1  0  0  0  0
 36 76  2  0  0  0  0
 37 72  1  0  0  0  0
 37 78  2  0  0  0  0
 38 55  1  0  0  0  0
 38 74  1  0  0  0  0
 38 79  2  0  0  0  0
 39 62  1  0  0  0  0
 39 68  1  0  0  0  0
 39 80  2  0  0  0  0
 40 63  1  0  0  0  0
 40 75  1  0  0  0  0
 40 81  2  0  0  0  0
 41 69  1  0  0  0  0
 41 73  1  0  0  0  0
 41 82  2  0  0  0  0
 42 47  1  0  0  0  0
 43 55  1  0  0  0  0
 44 68  1  0  0  0  0
 45 51  1  0  0  0  0
 46 67  1  0  0  0  0
 47 49  1  0  0  0  0
 48 50  1  0  0  0  0
 48 52  1  0  0  0  0
 49 54  1  0  0  0  0
 50 56  1  0  0  0  0
 51 67  1  0  0  0  0
 52 69  1  0  0  0  0
 53 56  1  0  0  0  0
 53 69  1  0  0  0  0
 54 74  1  0  0  0  0
 55 68  1  0  0  0  0
 56 66  1  0  0  0  0
 57 63  1  0  0  0  0
 58 64  1  0  0  0  0
 59 64  1  0  0  0  0
 60 64  1  0  0  0  0
 61 77  1  0  0  0  0
 62 64  1  0  0  0  0
 62 75  1  0  0  0  0
 63 77  1  0  0  0  0
 65 66  1  0  0  0  0
M  CHG  2  76   1  77   1
M  ISO  4  35 101  41 100  73 100  84 101
M  END
> <Batch ID>
0148

> <Smiles>
CNC(C)C(=O)NC(C(=O)N1Cc2cc([101O:1][101CH:1]=C3CCN(C(=N)c4cc(N)cc([100NH:0][100C:0](=O)N5CCCC(n6nc(-c7ccc(Oc8ccc(F)cc8F)cc7)c(C(N)=O)c6N)C5)c4)C3)ccc2CC1C(=O)NC1CCCc2ccccc21)C(C)(C)C

> <Shape>
0.286

> <Color>
0.070

> <Negative vol penalty>
0.000

$$$$

  -OEChem-04052303163D

 86 95  0     1  0  0  0  0  0999 V2000
  -28.5643  -37.5543   24.9201 C   0  0  0  0  0  0  0  0  0  0  0  0
  -29.0491  -36.3866   24.3396 C   0  0  0  0  0  0  0  0  0  0  0  0
  -24.3326   -9.0003   21.5001 C   0  0  0  0  0  0  0  0  0  0  0  0
  -24.6547  -10.5503   23.3252 C   0  0  0  0  0  0  0  0  0  0  0  0
  -29.3413  -20.4968   19.2835 C   0  0  0  0  0  0  0  0  0  0  0  0
  -26.9376  -20.5142   19.5264 C   0  0  0  0  0  0  0  0  0  0  0  0
  -27.3870  -37.5237   25.6663 C   0  0  0  0  0  0  0  0  0  0  0  0
  -28.3573  -35.1874   24.5060 C   0  0  0  0  0  0  0  0  0  0  0  0
  -27.8371  -30.6419   20.4349 C   0  0  0  0  0  0  0  0  0  0  0  0
  -29.3103  -19.1180   19.0751 C   0  0  0  0  0  0  0  0  0  0  0  0
  -26.9065  -19.1354   19.3180 C   0  0  0  0  0  0  0  0  0  0  0  0
  -24.0872   -7.9754   22.4138 C   0  0  0  0  0  0  0  0  0  0  0  0
  -24.4092   -9.5254   24.2389 C   0  0  0  0  0  0  0  0  0  0  0  0
  -28.5143  -29.4321   20.2881 C   0  0  0  0  0  0  0  0  0  0  0  0
  -21.5217   -6.9264   24.3505 C   0  0  0  0  0  0  0  0  0  0  0  0
  -20.4382   -6.0835   24.1035 C   0  0  0  0  0  0  0  0  0  0  0  0
  -26.7549  -28.3076   21.4960 C   0  0  0  0  0  0  0  0  0  0  0  0
  -21.9334   -4.1878   24.0137 C   0  0  0  0  0  0  0  0  0  0  0  0
  -24.6164  -10.2878   21.9558 C   0  0  0  0  0  0  0  0  0  0  0  0
  -28.1549  -21.1950   19.5093 C   0  0  0  0  0  0  0  0  0  0  0  0
  -23.9262  -12.2190   20.4386 C   0  0  0  0  0  0  0  0  0  0  0  0
  -26.6753  -36.3254   25.8339 C   0  0  0  0  0  0  0  0  0  0  0  0
  -26.6170  -30.6956   21.1240 C   0  0  0  0  0  0  0  0  0  0  0  0
  -27.1701  -35.1405   25.2563 C   0  0  0  0  0  0  0  0  0  0  0  0
  -26.0629  -29.5189   21.6479 C   0  0  0  0  0  0  0  0  0  0  0  0
  -28.0929  -18.4373   19.0923 C   0  0  0  0  0  0  0  0  0  0  0  0
  -24.1254   -8.2379   23.7832 C   0  0  0  0  0  0  0  0  0  0  0  0
  -27.9746  -28.2652   20.8212 C   0  0  0  0  0  0  0  0  0  0  0  0
  -22.8111   -6.4001   24.4290 C   0  0  0  0  0  0  0  0  0  0  0  0
  -20.6440   -4.7142   23.9351 C   0  0  0  0  0  0  0  0  0  0  0  0
  -23.0169   -5.0308   24.2607 C   0  0  0  0  0  0  0  0  0  0  0  0
  -24.8706  -11.3468   21.0124 C   0  0  0  0  0  0  0  0  0  0  0  0
  -24.6662  -13.0339   19.6171 C   0  0  0  0  0  0  0  0  0  0  0  0
  -28.1876  -22.6519   19.7296 C   0  0  0  0  0  0  0  0  0  0  0  0
  -22.5071  -12.2865   20.6311 C   0  0  0  0  0  0  0  0  0  0  0  0
  -25.5857  -32.1623   23.7486 C   0  0  0  0  0  0  0  0  0  0  0  0
  -22.7197  -30.9542   22.8275 C   0  0  0  0  0  0  0  0  0  0  0  0
  -21.0043  -28.5799   21.0762 C   0  0  0  0  0  0  0  0  0  0  0  0
  -29.1462  -16.1934   18.6428 C   0  0  0  0  0  0  0  0  0  0  0  0
  -25.4327  -36.3325   26.6886 C   0  0  0  0  0  0  0  0  0  0  0  0
  -25.8858  -32.0039   21.2505 C   0  0  0  0  0  0  0  0  0  0  0  0
  -24.7459  -29.5195   22.3787 C   0  0  0  0  0  0  0  0  0  0  0  0
  -24.5594  -35.0941   26.5042 C   0  0  0  0  0  0  0  0  0  0  0  0
  -29.4859  -12.6895   18.1094 C   0  0  0  0  0  0  0  0  0  0  0  0
  -28.1015  -24.2643   16.4885 C   0  0  0  0  0  0  0  0  0  0  0  0
  -25.4124  -33.8298   26.5364 C   0  0  0  0  0  0  0  0  0  0  0  0
  -28.2378  -12.0996   18.7699 C   0  0  0  0  0  0  0  0  0  0  0  0
  -27.5717  -25.3563   17.4121 C   0  0  0  0  0  0  0  0  0  0  0  0
  -27.9453  -22.9897   17.3082 C   0  0  0  0  0  0  0  0  0  0  0  0
  -30.0301  -13.8842   18.8906 C   0  0  0  0  0  0  0  0  0  0  0  0
  -27.8017  -14.3511   19.8318 C   0  0  0  0  0  0  0  0  0  0  0  0
  -26.4348  -33.8249   25.3935 C   0  0  1  0  0  0  0  0  0  0  0  0
  -24.9029  -32.0287   22.4169 C   0  0  1  0  0  0  0  0  0  0  0  0
  -27.1794  -13.1856   19.0457 C   0  0  2  0  0  0  0  0  0  0  0  0
  -28.0614  -24.9408   18.8026 C   0  0  2  0  0  0  0  0  0  0  0  0
  -18.6703  -27.8279   20.5431 C   0  0  0  0  0  0  0  0  0  0  0  0
  -22.4773  -29.7381   25.6154 C   0  0  0  0  0  0  0  0  0  0  0  0
  -20.6603  -28.2574   24.7356 C   0  0  0  0  0  0  0  0  0  0  0  0
  -20.3635  -30.7341   24.7243 C   0  0  0  0  0  0  0  0  0  0  0  0
  -21.3995  -29.0231   18.1768 C   0  0  0  0  0  0  0  0  0  0  0  0
  -29.4569  -25.4558   19.1218 C   0  0  0  0  0  0  0  0  0  0  0  0
  -29.4417  -26.9253   19.5142 C   0  0  0  0  0  0  0  0  0  1  0  0
  -21.9679  -29.6707   23.0852 C   0  0  1  0  0  0  0  0  0  0  0  0
  -19.8446  -28.6880   20.1026 C   0  0  2  0  0  0  0  0  0  0  0  0
  -21.3930  -29.6000   24.5281 C   0  0  0  0  0  0  0  0  0  0  0  0
  -26.1155  -11.5852   20.5910 N   0  0  0  0  0  0  0  0  0  0  0  0
  -25.9584  -12.6164   19.7436 N   0  0  0  0  0  0  0  0  0  0  0  0
  -28.0888  -23.4675   18.6943 N   0  0  0  0  0  0  0  0  0  0  0  0
  -24.0723  -30.8245   22.4818 N   0  0  0  0  0  0  0  0  0  0  0  0
  -28.9729  -14.8736   19.1106 N   0  0  0  0  0  0  0  0  0  0  0  0
  -24.3310  -14.0597   18.8060 N   0  0  0  0  0  0  0  0  0  0  0  0
  -21.9079  -11.3744   21.5105 N   0  0  0  0  0  0  0  0  0  0  0  0
  -28.0613  -17.0366   18.8805 N   0  0  0  0  0  0  0  0  0  0  0  0
  -25.7954  -33.4694   24.1448 N   0  0  0  0  0  0  0  0  0  0  0  0
  -20.9603  -29.5699   22.0350 N   0  0  0  0  0  0  0  0  0  0  0  0
  -28.3141  -23.1228   20.9667 N   0  3  0  0  0  0  0  0  0  0  0  0
  -20.2666  -28.2467   18.7432 N   0  3  0  0  0  0  0  0  0  0  0  0
  -21.7893  -13.1201   20.0282 O   0  0  0  0  0  0  0  0  0  0  0  0
  -25.8979  -31.1541   24.3714 O   0  0  0  0  0  0  0  0  0  0  0  0
  -22.1268  -32.0317   22.9222 O   0  0  0  0  0  0  0  0  0  0  0  0
  -21.8613  -27.7025   20.9965 O   0  0  0  0  0  0  0  0  0  0  0  0
  -30.1698  -16.5423   18.0490 O   0  0  0  0  0  0  0  0  0  0  0  0
  -23.8857   -7.2381   24.6751 O   0  0  0  0  0  0  0  0  0  0  0  0
  -28.6339  -27.0831   20.6799 O   0  0  0  0  0  0  0  0  0  1  0  0
  -19.6032   -3.9046   23.6994 F   0  0  0  0  0  0  0  0  0  0  0  0
  -24.2532   -4.5192   24.3362 F   0  0  0  0  0  0  0  0  0  0  0  0
  1  2  1  0  0  0  0
  1  7  2  0  0  0  0
  2  8  2  0  0  0  0
  3 12  2  0  0  0  0
  3 19  1  0  0  0  0
  4 13  1  0  0  0  0
  4 19  2  0  0  0  0
  5 10  2  0  0  0  0
  5 20  1  0  0  0  0
  6 11  1  0  0  0  0
  6 20  2  0  0  0  0
  7 22  1  0  0  0  0
  8 24  1  0  0  0  0
  9 14  2  0  0  0  0
  9 23  1  0  0  0  0
 10 26  1  0  0  0  0
 11 26  2  0  0  0  0
 12 27  1  0  0  0  0
 13 27  2  0  0  0  0
 14 28  1  0  0  0  0
 15 16  2  0  0  0  0
 15 29  1  0  0  0  0
 16 30  1  0  0  0  0
 17 25  1  0  0  0  0
 17 28  2  0  0  0  0
 18 30  2  0  0  0  0
 18 31  1  0  0  0  0
 19 32  1  0  0  0  0
 20 34  1  0  0  0  0
 21 32  1  0  0  0  0
 21 33  2  0  0  0  0
 21 35  1  0  0  0  0
 22 24  2  0  0  0  0
 22 40  1  0  0  0  0
 23 25  2  0  0  0  0
 23 41  1  0  0  0  0
 24 52  1  0  0  0  0
 25 42  1  0  0  0  0
 26 73  1  0  0  0  0
 27 83  1  0  0  0  0
 28 84  1  0  0  0  0
 29 31  2  0  0  0  0
 29 83  1  0  0  0  0
 30 85  1  0  0  0  0
 31 86  1  0  0  0  0
 32 66  2  0  0  0  0
 33 67  1  0  0  0  0
 33 71  1  0  0  0  0
 34 68  1  0  0  0  0
 34 76  2  0  0  0  0
 35 72  1  0  0  0  0
 35 78  2  0  0  0  0
 36 53  1  0  0  0  0
 36 74  1  0  0  0  0
 36 79  2  0  0  0  0
 37 63  1  0  0  0  0
 37 69  1  0  0  0  0
 37 80  2  0  0  0  0
 38 64  1  0  0  0  0
 38 75  1  0  0  0  0
 38 81  2  0  0  0  0
 39 70  1  0  0  0  0
 39 73  1  0  0  0  0
 39 82  2  0  0  0  0
 40 43  1  0  0  0  0
 41 53  1  0  0  0  0
 42 69  1  0  0  0  0
 43 46  1  0  0  0  0
 44 47  1  0  0  0  0
 44 50  1  0  0  0  0
 45 48  1  0  0  0  0
 45 49  1  0  0  0  0
 46 52  1  0  0  0  0
 47 54  1  0  0  0  0
 48 55  1  0  0  0  0
 49 68  1  0  0  0  0
 50 70  1  0  0  0  0
 51 54  1  0  0  0  0
 51 70  1  0  0  0  0
 52 74  1  0  0  0  0
 53 69  1  0  0  0  0
 54 67  1  0  0  0  0
 55 61  1  0  0  0  0
 55 68  1  0  0  0  0
 56 64  1  0  0  0  0
 57 65  1  0  0  0  0
 58 65  1  0  0  0  0
 59 65  1  0  0  0  0
 60 77  1  0  0  0  0
 61 62  1  0  0  0  0
 62 84  1  0  0  0  0
 63 65  1  0  0  0  0
 63 75  1  0  0  0  0
 64 77  1  0  0  0  0
 66 67  1  0  0  0  0
M  CHG  2  76   1  77   1
M  ISO  4  39 100  62 101  73 100  84 101
M  END
> <Batch ID>
0148

> <Smiles>
CNC(C)C(=O)NC(C(=O)N1Cc2cc([101O:1][101CH2:1]CC3CCCN3C(=N)c3ccc([100NH:0][100C:0](=O)N4CCCC(n5nc(-c6ccc(Oc7ccc(F)cc7F)cc6)c(C(N)=O)c5N)C4)cc3)ccc2CC1C(=O)NC1CCCc2ccccc21)C(C)(C)C

> <Shape>
0.340

> <Color>
0.098

> <Negative vol penalty>
0.000

$$$$

  -OEChem-04052303163D

 85 94  0     1  0  0  0  0  0999 V2000
  -29.0951   -8.6204   17.4350 C   0  0  0  0  0  0  0  0  0  0  0  0
  -28.0670   -9.2723   18.1085 C   0  0  0  0  0  0  0  0  0  0  0  0
  -24.8131  -30.3357   20.3503 C   0  0  0  0  0  0  0  0  0  0  0  0
  -24.1791  -28.6898   22.0013 C   0  0  0  0  0  0  0  0  0  0  0  0
  -30.4132   -9.0440   17.5995 C   0  0  0  0  0  0  0  0  0  0  0  0
  -28.3567  -10.3475   18.9479 C   0  0  0  0  0  0  0  0  0  0  0  0
  -25.1817  -14.2372   18.2886 C   0  0  0  0  0  0  0  0  0  0  0  0
  -24.5054  -31.3565   21.2497 C   0  0  0  0  0  0  0  0  0  0  0  0
  -23.8714  -29.7105   22.9008 C   0  0  0  0  0  0  0  0  0  0  0  0
  -23.9185  -14.1335   18.8694 C   0  0  0  0  0  0  0  0  0  0  0  0
  -25.9447  -32.8327   23.9296 C   0  0  0  0  0  0  0  0  0  0  0  0
  -26.8524  -33.8848   24.0513 C   0  0  0  0  0  0  0  0  0  0  0  0
  -20.9439  -20.2308   17.7533 C   0  0  0  0  0  0  0  0  0  0  0  0
  -24.6527  -15.5227   20.6998 C   0  0  0  0  0  0  0  0  0  0  0  0
  -22.8223  -20.2861   19.3245 C   0  0  0  0  0  0  0  0  0  0  0  0
  -25.1399  -35.4421   23.3590 C   0  0  0  0  0  0  0  0  0  0  0  0
  -24.6498  -29.0023   20.7260 C   0  0  0  0  0  0  0  0  0  0  0  0
  -26.2083  -27.3042   19.6328 C   0  0  0  0  0  0  0  0  0  0  0  0
  -30.7182  -10.1310   18.4337 C   0  0  0  0  0  0  0  0  0  0  0  0
  -26.1948  -14.9767   18.9156 C   0  0  0  0  0  0  0  0  0  0  0  0
  -29.6803  -10.7851   19.1247 C   0  0  0  0  0  0  0  0  0  0  0  0
  -20.6058  -19.0303   18.3174 C   0  0  0  0  0  0  0  0  0  0  0  0
  -25.9271  -15.6363   20.1236 C   0  0  0  0  0  0  0  0  0  0  0  0
  -21.3514  -18.4725   19.3297 C   0  0  0  0  0  0  0  0  0  0  0  0
  -22.0806  -20.8645   18.2680 C   0  0  0  0  0  0  0  0  0  0  0  0
  -22.4491  -19.0584   19.8790 C   0  0  0  0  0  0  0  0  0  0  0  0
  -24.0346  -31.0439   22.5250 C   0  0  0  0  0  0  0  0  0  0  0  0
  -23.6547  -14.7739   20.0766 C   0  0  0  0  0  0  0  0  0  0  0  0
  -24.6347  -33.0852   23.5225 C   0  0  0  0  0  0  0  0  0  0  0  0
  -26.4500  -35.1895   23.7660 C   0  0  0  0  0  0  0  0  0  0  0  0
  -24.2323  -34.3900   23.2373 C   0  0  0  0  0  0  0  0  0  0  0  0
  -24.9669  -27.9475   19.7972 C   0  0  0  0  0  0  0  0  0  0  0  0
  -25.9898  -26.3861   18.6349 C   0  0  0  0  0  0  0  0  0  0  0  0
  -27.4480  -27.5174   20.3208 C   0  0  0  0  0  0  0  0  0  0  0  0
  -29.0613  -14.2929   20.1070 C   0  0  0  0  0  0  0  0  0  0  0  0
  -29.2421  -17.5099   20.4823 C   0  0  0  0  0  0  0  0  0  0  0  0
  -27.6028  -20.4822   20.8358 C   0  0  0  0  0  0  0  0  0  0  0  0
  -21.9113  -22.8014   16.6660 C   0  0  0  0  0  0  0  0  0  0  0  0
  -32.1631  -10.5225   18.6169 C   0  0  0  0  0  0  0  0  0  0  0  0
  -27.5442  -15.1009   18.2627 C   0  0  0  0  0  0  0  0  0  0  0  0
  -19.6442  -17.8939   18.4123 C   0  0  0  0  0  0  0  0  0  0  0  0
  -26.9743  -16.4593   20.8268 C   0  0  0  0  0  0  0  0  0  0  0  0
  -32.3456  -11.9075   19.2324 C   0  0  0  0  0  0  0  0  0  0  0  0
  -22.6314  -25.8838   15.0359 C   0  0  0  0  0  0  0  0  0  0  0  0
  -31.4249  -12.0823   20.4361 C   0  0  0  0  0  0  0  0  0  0  0  0
  -23.4287  -26.6686   16.0803 C   0  0  0  0  0  0  0  0  0  0  0  0
  -21.5250  -25.0482   15.6773 C   0  0  0  0  0  0  0  0  0  0  0  0
  -22.7637  -24.9446   17.8043 C   0  0  0  0  0  0  0  0  0  0  0  0
  -29.9519  -11.9711   20.0246 C   0  0  1  0  0  0  0  0  0  0  0  0
  -28.6540  -15.4560   19.2473 C   0  0  1  0  0  0  0  0  0  0  0  0
  -23.9310  -25.7510   17.2122 C   0  0  2  0  0  0  0  0  0  0  0  0
  -28.0198  -22.9354   21.1605 C   0  0  0  0  0  0  0  0  0  0  0  0
  -29.9208  -17.0041   23.4138 C   0  0  0  0  0  0  0  0  0  0  0  0
  -29.3910  -19.4065   23.8787 C   0  0  0  0  0  0  0  0  0  0  0  0
  -31.2578  -18.8195   22.3317 C   0  0  0  0  0  0  0  0  0  0  0  0
  -19.7062  -14.5055   21.7062 C   0  0  0  0  0  0  0  0  0  0  0  0
  -18.8641  -14.9222   19.3898 C   0  0  0  0  0  0  0  0  0  0  0  0
  -26.2530  -21.1665   18.2925 C   0  0  0  0  0  0  0  0  0  0  0  0
  -20.2351  -16.6819   20.6020 C   0  0  0  0  0  0  0  0  0  0  0  0
  -21.3114  -14.5123   19.7655 C   0  0  0  0  0  0  0  0  0  1  0  0
  -28.8690  -18.4813   21.5759 C   0  0  1  0  0  0  0  0  0  0  0  0
  -27.7892  -21.8232   20.1492 C   0  0  2  0  0  0  0  0  0  0  0  0
  -29.8403  -18.4108   22.7880 C   0  0  0  0  0  0  0  0  0  0  0  0
  -20.0407  -15.1664   20.3528 C   0  0  0  0  0  0  0  0  0  0  0  0
  -24.0294  -27.4780   18.9698 N   0  0  0  0  0  0  0  0  0  0  0  0
  -24.6819  -26.5299   18.2759 N   0  0  0  0  0  0  0  0  0  0  0  0
  -20.5720  -17.3863   19.3977 N   0  0  2  0  0  0  0  0  0  0  0  0
  -28.2799  -16.5452   20.1518 N   0  0  0  0  0  0  0  0  0  0  0  0
  -22.0757  -24.2009   16.7374 N   0  0  0  0  0  0  0  0  0  0  0  0
  -23.1568  -18.4896   20.9427 N   0  0  0  0  0  0  0  0  0  0  0  0
  -26.7908  -25.4779   18.0382 N   0  0  0  0  0  0  0  0  0  0  0  0
  -27.4980  -28.5002   21.3187 N   0  0  0  0  0  0  0  0  0  0  0  0
  -22.5054  -22.0970   17.7127 N   0  0  0  0  0  0  0  0  0  0  0  0
  -29.5091  -13.1966   19.3949 N   0  0  0  0  0  0  0  0  0  0  0  0
  -28.7933  -19.7953   20.9465 N   0  0  0  0  0  0  0  0  0  0  0  0
  -26.5834  -22.1641   19.3425 N   0  3  0  0  0  0  0  0  0  0  0  0
  -28.4853  -26.8672   20.0470 O   0  0  0  0  0  0  0  0  0  0  0  0
  -28.9770  -14.3840   21.3261 O   0  0  0  0  0  0  0  0  0  0  0  0
  -30.3439  -17.6081   19.9363 O   0  0  0  0  0  0  0  0  0  0  0  0
  -26.5111  -20.0855   21.2374 O   0  0  0  0  0  0  0  0  0  0  0  0
  -21.3128  -22.2652   15.7300 O   0  0  0  0  0  0  0  0  0  0  0  0
  -23.7346  -32.0397   23.4030 O   0  0  0  0  0  0  0  0  0  0  0  0
  -22.4227  -14.6737   20.6460 O   0  0  0  0  0  0  0  0  0  1  0  0
  -27.3212  -36.2000   23.8844 F   0  0  0  0  0  0  0  0  0  0  0  0
  -22.9747  -34.6389   22.8469 F   0  0  0  0  0  0  0  0  0  0  0  0
  1  2  1  0  0  0  0
  1  5  2  0  0  0  0
  2  6  2  0  0  0  0
  3  8  2  0  0  0  0
  3 17  1  0  0  0  0
  4  9  1  0  0  0  0
  4 17  2  0  0  0  0
  5 19  1  0  0  0  0
  6 21  1  0  0  0  0
  7 10  2  0  0  0  0
  7 20  1  0  0  0  0
  8 27  1  0  0  0  0
  9 27  2  0  0  0  0
 10 28  1  0  0  0  0
 11 12  2  0  0  0  0
 11 29  1  0  0  0  0
 12 30  1  0  0  0  0
 13 22  1  0  0  0  0
 13 25  2  0  0  0  0
 14 23  1  0  0  0  0
 14 28  2  0  0  0  0
 15 25  1  0  0  0  0
 15 26  2  0  0  0  0
 16 30  2  0  0  0  0
 16 31  1  0  0  0  0
 17 32  1  0  0  0  0
 18 32  1  0  0  0  0
 18 33  2  0  0  0  0
 18 34  1  0  0  0  0
 19 21  2  0  0  0  0
 19 39  1  0  0  0  0
 20 23  2  0  0  0  0
 20 40  1  0  0  0  0
 21 49  1  0  0  0  0
 22 24  2  0  0  0  0
 22 41  1  0  0  0  0
 23 42  1  0  0  0  0
 24 26  1  0  0  0  0
 24 67  1  0  0  0  0
 25 73  1  0  0  0  0
 26 70  1  0  0  0  0
 27 82  1  0  0  0  0
 28 83  1  0  0  0  0
 29 31  2  0  0  0  0
 29 82  1  0  0  0  0
 30 84  1  0  0  0  0
 31 85  1  0  0  0  0
 32 65  2  0  0  0  0
 33 66  1  0  0  0  0
 33 71  1  0  0  0  0
 34 72  1  0  0  0  0
 34 77  2  0  0  0  0
 35 50  1  0  0  0  0
 35 74  1  0  0  0  0
 35 78  2  0  0  0  0
 36 61  1  0  0  0  0
 36 68  1  0  0  0  0
 36 79  2  0  0  0  0
 37 62  1  0  0  0  0
 37 75  1  0  0  0  0
 37 80  2  0  0  0  0
 38 69  1  0  0  0  0
 38 73  1  0  0  0  0
 38 81  2  0  0  0  0
 39 43  1  0  0  0  0
 40 50  1  0  0  0  0
 41 67  1  0  0  0  0
 42 68  1  0  0  0  0
 43 45  1  0  0  0  0
 44 46  1  0  0  0  0
 44 47  1  0  0  0  0
 45 49  1  0  0  0  0
 46 51  1  0  0  0  0
 47 69  1  0  0  0  0
 48 51  1  0  0  0  0
 48 69  1  0  0  0  0
 49 74  1  0  0  0  0
 50 68  1  0  0  0  0
 51 66  1  0  0  0  0
 52 62  1  0  0  0  0
 53 63  1  0  0  0  0
 54 63  1  0  0  0  0
 55 63  1  0  0  0  0
 56 64  1  0  0  0  0
 57 64  1  0  0  0  0
 58 76  1  0  0  0  0
 59 64  1  0  0  0  0
 59 67  1  0  0  0  0
 60 64  1  0  0  0  0
 60 83  1  0  0  0  0
 61 63  1  0  0  0  0
 61 75  1  0  0  0  0
 62 76  1  0  0  0  0
 65 66  1  0  0  0  0
M  CHG  1  76   1
M  ISO  4  38 100  60 101  73 100  83 101
M  END
> <Batch ID>
0148

> <Smiles>
CNC(C)C(=O)NC(C(=O)N1Cc2cc([101O:1][101CH2:1]C(C)(C)CN3Cc4cc([100NH:0][100C:0](=O)N5CCCC(n6nc(-c7ccc(Oc8ccc(F)cc8F)cc7)c(C(N)=O)c6N)C5)cc(N)c43)ccc2CC1C(=O)NC1CCCc2ccccc21)C(C)(C)C

> <Shape>
0.222

> <Color>
0.082

> <Negative vol penalty>
0.000

$$$$

  -OEChem-04052303163D

 90 99  0     1  0  0  0  0  0999 V2000
  -17.5886  -14.6115   23.4063 C   0  0  0  0  0  0  0  0  0  0  0  0
  -18.6371  -15.4676   23.0855 C   0  0  0  0  0  0  0  0  0  0  0  0
  -23.0239  -30.8948   21.1857 C   0  0  0  0  0  0  0  0  0  0  0  0
  -22.7800  -28.8495   22.4483 C   0  0  0  0  0  0  0  0  0  0  0  0
  -17.8548  -13.2962   23.7846 C   0  0  0  0  0  0  0  0  0  0  0  0
  -19.9528  -15.0092   23.1439 C   0  0  0  0  0  0  0  0  0  0  0  0
  -22.6802  -16.4146   19.1151 C   0  0  0  0  0  0  0  0  0  0  0  0
  -21.6529  -30.9000   20.9290 C   0  0  0  0  0  0  0  0  0  0  0  0
  -21.4089  -28.8546   22.1916 C   0  0  0  0  0  0  0  0  0  0  0  0
  -23.1467  -17.7281   19.0888 C   0  0  0  0  0  0  0  0  0  0  0  0
  -18.6624  -30.4343   23.3671 C   0  0  0  0  0  0  0  0  0  0  0  0
  -17.8042  -30.1629   24.4326 C   0  0  0  0  0  0  0  0  0  0  0  0
  -29.0273  -20.8365   21.3353 C   0  0  0  0  0  0  0  0  0  0  0  0
  -28.4297  -23.0017   22.2250 C   0  0  0  0  0  0  0  0  0  0  0  0
  -25.3135  -16.9671   19.8271 C   0  0  0  0  0  0  0  0  0  0  0  0
  -29.7656  -22.8474   20.2179 C   0  0  0  0  0  0  0  0  0  0  0  0
  -16.9297  -28.2515   23.2414 C   0  0  0  0  0  0  0  0  0  0  0  0
  -23.5875  -29.8696   21.9453 C   0  0  0  0  0  0  0  0  0  0  0  0
  -25.6672  -30.4572   23.3007 C   0  0  0  0  0  0  0  0  0  0  0  0
  -19.1738  -12.8186   23.8383 C   0  0  0  0  0  0  0  0  0  0  0  0
  -23.5252  -15.3669   19.5088 C   0  0  0  0  0  0  0  0  0  0  0  0
  -20.2370  -13.6867   23.5245 C   0  0  0  0  0  0  0  0  0  0  0  0
  -28.3829  -21.6097   22.3009 C   0  0  0  0  0  0  0  0  0  0  0  0
  -24.8560  -15.6408   19.8551 C   0  0  0  0  0  0  0  0  0  0  0  0
  -29.7188  -21.4553   20.2938 C   0  0  0  0  0  0  0  0  0  0  0  0
  -29.1211  -23.6206   21.1835 C   0  0  0  0  0  0  0  0  0  0  0  0
  -20.8454  -29.8799   21.4320 C   0  0  0  0  0  0  0  0  0  0  0  0
  -24.4626  -18.0049   19.4476 C   0  0  0  0  0  0  0  0  0  0  0  0
  -18.6543  -29.6144   22.2387 C   0  0  0  0  0  0  0  0  0  0  0  0
  -16.9378  -29.0715   24.3698 C   0  0  0  0  0  0  0  0  0  0  0  0
  -17.7880  -28.5230   22.1758 C   0  0  0  0  0  0  0  0  0  0  0  0
  -25.0038  -29.8634   22.2102 C   0  0  0  0  0  0  0  0  0  0  0  0
  -26.9941  -30.1698   23.0932 C   0  0  0  0  0  0  0  0  0  0  0  0
  -25.9750  -19.5774   18.6045 C   0  0  0  0  0  0  0  0  0  1  0  0
  -25.1318  -31.2019   24.4027 C   0  0  0  0  0  0  0  0  0  0  0  0
  -26.5150  -20.7937   18.4912 C   0  0  0  0  0  0  0  0  0  0  0  0
  -27.6667  -21.1542   17.6112 C   0  0  0  0  0  0  0  0  0  0  0  0
  -23.5127  -13.2430   21.8736 C   0  0  0  0  0  0  0  0  0  0  0  0
  -26.0724  -12.0402   20.2849 C   0  0  0  0  0  0  0  0  0  0  0  0
  -28.6502  -12.5794   18.1144 C   0  0  0  0  0  0  0  0  0  0  0  0
  -29.8125  -25.8065   20.1396 C   0  0  0  0  0  0  0  0  0  0  0  0
  -19.4150  -11.4028   24.2985 C   0  0  0  0  0  0  0  0  0  0  0  0
  -23.0144  -13.9522   19.5062 C   0  0  0  0  0  0  0  0  0  0  0  0
  -25.8093  -14.5494   20.2656 C   0  0  0  0  0  0  0  0  0  0  0  0
  -20.8143  -10.8866   23.9731 C   0  0  0  0  0  0  0  0  0  0  0  0
  -30.1344  -29.3083   19.5816 C   0  0  0  0  0  0  0  0  0  0  0  0
  -26.5633  -19.9519   23.0852 C   0  0  0  0  0  0  0  0  0  0  0  0
  -26.1936  -21.2932   23.6370 C   0  0  0  0  0  0  0  0  0  0  0  0
  -21.8671  -11.9241   24.3504 C   0  0  0  0  0  0  0  0  0  0  0  0
  -28.9189  -29.9026   20.2968 C   0  0  0  0  0  0  0  0  0  0  0  0
  -29.8053  -27.9714   18.9196 C   0  0  0  0  0  0  0  0  0  0  0  0
  -27.9775  -27.5680   20.5214 C   0  0  0  0  0  0  0  0  0  0  0  0
  -27.6437  -20.9497   23.4136 C   0  0  0  0  0  0  0  0  0  0  0  0
  -21.6761  -13.2193   23.5520 C   0  0  1  0  0  0  0  0  0  0  0  0
  -23.8143  -13.0265   20.4176 C   0  0  1  0  0  0  0  0  0  0  0  0
  -28.2770  -28.8835   21.2586 C   0  0  2  0  0  0  0  0  0  0  0  0
  -30.5962  -11.4157   17.0392 C   0  0  0  0  0  0  0  0  0  0  0  0
  -27.6266  -12.2243   22.9042 C   0  0  0  0  0  0  0  0  0  0  0  0
  -29.7406  -11.9725   21.5867 C   0  0  0  0  0  0  0  0  0  0  0  0
  -28.0470  -10.1411   21.5859 C   0  0  0  0  0  0  0  0  0  0  0  0
  -27.5669  -13.0292   15.3972 C   0  0  0  0  0  0  0  0  0  0  0  0
  -29.5177  -19.5969   18.5180 C   0  0  0  0  0  0  0  0  0  0  0  0
  -30.4193  -20.6173   19.2484 C   0  0  2  0  0  0  0  0  0  0  0  0
  -28.7290  -20.1056   17.2979 C   0  0  2  0  0  0  0  0  0  0  0  0
  -27.5628  -12.2775   20.3237 C   0  0  1  0  0  0  0  0  0  0  0  0
  -29.1299  -11.7962   16.9057 C   0  0  2  0  0  0  0  0  0  0  0  0
  -28.2260  -11.6749   21.5943 C   0  0  0  0  0  0  0  0  0  0  0  0
  -25.8403  -29.2456   21.3721 N   0  0  0  0  0  0  0  0  0  0  0  0
  -27.0430  -29.4497   21.9359 N   0  0  0  0  0  0  0  0  0  0  0  0
  -25.2609  -13.1831   20.2533 N   0  0  0  0  0  0  0  0  0  0  0  0
  -29.2046  -27.0555   19.8918 N   0  0  0  0  0  0  0  0  0  0  0  0
  -28.1123  -30.4654   23.7895 N   0  0  0  0  0  0  0  0  0  0  0  0
  -23.7463  -31.4046   24.4619 N   0  0  0  0  0  0  0  0  0  0  0  0
  -29.1703  -25.0346   21.1072 N   0  0  0  0  0  0  0  0  0  0  0  0
  -22.1836  -13.0627   22.2058 N   0  0  0  0  0  0  0  0  0  0  0  0
  -28.0920  -11.7551   19.0685 N   0  0  0  0  0  0  0  0  0  0  0  0
  -25.9799  -21.8645   19.2477 N   0  3  0  0  0  0  0  0  0  0  0  0
  -31.5627  -19.8481   19.8501 N   0  3  0  0  0  0  0  0  0  0  0  0
  -29.6818  -20.6331   16.2744 N   0  3  0  0  0  0  0  0  0  0  0  0
  -28.9654  -12.6057   15.6653 N   0  3  0  0  0  0  0  0  0  0  0  0
  -25.8622  -31.6876   25.2995 O   0  0  0  0  0  0  0  0  0  0  0  0
  -27.7342  -22.2926   17.1427 O   0  0  0  0  0  0  0  0  0  0  0  0
  -24.4191  -13.5494   22.6393 O   0  0  0  0  0  0  0  0  0  0  0  0
  -25.6443  -10.8834   20.2757 O   0  0  0  0  0  0  0  0  0  0  0  0
  -28.7630  -13.7999   18.2049 O   0  0  0  0  0  0  0  0  0  0  0  0
  -30.8434  -25.4596   19.5574 O   0  0  0  0  0  0  0  0  0  0  0  0
  -19.5075  -29.8847   21.1820 O   0  0  0  0  0  0  0  0  0  0  0  0
  -24.9203  -19.2863   19.4234 O   0  0  0  0  0  0  0  0  0  1  0  0
  -16.1148  -28.8101   25.3937 F   0  0  0  0  0  0  0  0  0  0  0  0
  -17.7765  -27.7310   21.0949 F   0  0  0  0  0  0  0  0  0  0  0  0
  1  2  1  0  0  0  0
  1  5  2  0  0  0  0
  2  6  2  0  0  0  0
  3  8  2  0  0  0  0
  3 18  1  0  0  0  0
  4  9  1  0  0  0  0
  4 18  2  0  0  0  0
  5 20  1  0  0  0  0
  6 22  1  0  0  0  0
  7 10  2  0  0  0  0
  7 21  1  0  0  0  0
  8 27  1  0  0  0  0
  9 27  2  0  0  0  0
 10 28  1  0  0  0  0
 11 12  2  0  0  0  0
 11 29  1  0  0  0  0
 12 30  1  0  0  0  0
 13 23  1  0  0  0  0
 13 25  2  0  0  0  0
 14 23  2  0  0  0  0
 14 26  1  0  0  0  0
 15 24  1  0  0  0  0
 15 28  2  0  0  0  0
 16 25  1  0  0  0  0
 16 26  2  0  0  0  0
 17 30  2  0  0  0  0
 17 31  1  0  0  0  0
 18 32  1  0  0  0  0
 19 32  1  0  0  0  0
 19 33  2  0  0  0  0
 19 35  1  0  0  0  0
 20 22  2  0  0  0  0
 20 42  1  0  0  0  0
 21 24  2  0  0  0  0
 21 43  1  0  0  0  0
 22 54  1  0  0  0  0
 23 53  1  0  0  0  0
 24 44  1  0  0  0  0
 25 63  1  0  0  0  0
 26 74  1  0  0  0  0
 27 87  1  0  0  0  0
 28 88  1  0  0  0  0
 29 31  2  0  0  0  0
 29 87  1  0  0  0  0
 30 89  1  0  0  0  0
 31 90  1  0  0  0  0
 32 68  2  0  0  0  0
 33 69  1  0  0  0  0
 33 72  1  0  0  0  0
 34 36  2  0  0  0  0
 34 88  1  0  0  0  0
 35 73  1  0  0  0  0
 35 81  2  0  0  0  0
 36 37  1  0  0  0  0
 36 77  1  0  0  0  0
 37 64  1  0  0  0  0
 37 82  2  0  0  0  0
 38 55  1  0  0  0  0
 38 75  1  0  0  0  0
 38 83  2  0  0  0  0
 39 65  1  0  0  0  0
 39 70  1  0  0  0  0
 39 84  2  0  0  0  0
 40 66  1  0  0  0  0
 40 76  1  0  0  0  0
 40 85  2  0  0  0  0
 41 71  1  0  0  0  0
 41 74  1  0  0  0  0
 41 86  2  0  0  0  0
 42 45  1  0  0  0  0
 43 55  1  0  0  0  0
 44 70  1  0  0  0  0
 45 49  1  0  0  0  0
 46 50  1  0  0  0  0
 46 51  1  0  0  0  0
 47 48  1  0  0  0  0
 47 53  1  0  0  0  0
 48 53  1  0  0  0  0
 49 54  1  0  0  0  0
 50 56  1  0  0  0  0
 51 71  1  0  0  0  0
 52 56  1  0  0  0  0
 52 71  1  0  0  0  0
 54 75  1  0  0  0  0
 55 70  1  0  0  0  0
 56 69  1  0  0  0  0
 57 66  1  0  0  0  0
 58 67  1  0  0  0  0
 59 67  1  0  0  0  0
 60 67  1  0  0  0  0
 61 80  1  0  0  0  0
 62 63  1  0  0  0  0
 62 64  1  0  0  0  0
 63 78  1  0  0  0  0
 64 79  1  0  0  0  0
 65 67  1  0  0  0  0
 65 76  1  0  0  0  0
 66 80  1  0  0  0  0
 68 69  1  0  0  0  0
M  CHG  4  77   1  78   1  79   1  80   1
M  ISO  4  34 101  41 100  74 100  88 101
M  END
> <Batch ID>
0148

> <Smiles>
CNC(C)C(=O)NC(C(=O)N1Cc2cc([101O:1][101CH2:1]C(=N)C(=O)C(N)CC(N)c3cc([100NH:0][100C:0](=O)N4CCCC(n5nc(-c6ccc(Oc7ccc(F)cc7F)cc6)c(C(N)=O)c5N)C4)cc(C4CC4)c3)ccc2CC1C(=O)NC1CCCc2ccccc21)C(C)(C)C

> <Shape>
0.283

> <Color>
0.058

> <Negative vol penalty>
0.000

$$$$

  -OEChem-04052303163D

 83 92  0     1  0  0  0  0  0999 V2000
  -26.4409  -38.6832   23.5279 C   0  0  0  0  0  0  0  0  0  0  0  0
  -26.9104  -37.6950   22.6686 C   0  0  0  0  0  0  0  0  0  0  0  0
  -26.5495  -12.6205   21.6586 C   0  0  0  0  0  0  0  0  0  0  0  0
  -26.0457  -13.7333   19.5742 C   0  0  0  0  0  0  0  0  0  0  0  0
  -25.9941  -38.3413   24.8036 C   0  0  0  0  0  0  0  0  0  0  0  0
  -26.9343  -36.3644   23.0849 C   0  0  0  0  0  0  0  0  0  0  0  0
  -25.9640  -31.4061   19.6237 C   0  0  0  0  0  0  0  0  0  0  0  0
  -28.2079  -22.3283   17.2817 C   0  0  0  0  0  0  0  0  0  0  0  0
  -28.5934  -23.7723   19.1799 C   0  0  0  0  0  0  0  0  0  0  0  0
  -28.7266  -21.2491   17.9973 C   0  0  0  0  0  0  0  0  0  0  0  0
  -29.1121  -22.6932   19.8955 C   0  0  0  0  0  0  0  0  0  0  0  0
  -25.2778  -12.0474   21.6601 C   0  0  0  0  0  0  0  0  0  0  0  0
  -24.7740  -13.1602   19.5756 C   0  0  0  0  0  0  0  0  0  0  0  0
  -26.8339  -30.5086   19.0060 C   0  0  0  0  0  0  0  0  0  0  0  0
  -23.7070   -9.4663   20.1425 C   0  0  0  0  0  0  0  0  0  0  0  0
  -23.6075   -8.1101   20.4530 C   0  0  0  0  0  0  0  0  0  0  0  0
  -26.6178  -29.0139   20.8871 C   0  0  0  0  0  0  0  0  0  0  0  0
  -22.1938   -8.6453   22.3377 C   0  0  0  0  0  0  0  0  0  0  0  0
  -26.9334  -13.4635   20.6157 C   0  0  0  0  0  0  0  0  0  0  0  0
  -29.4192  -13.5231   20.0456 C   0  0  0  0  0  0  0  0  0  0  0  0
  -26.0035  -37.0046   25.2322 C   0  0  0  0  0  0  0  0  0  0  0  0
  -25.4222  -31.1188   20.8847 C   0  0  0  0  0  0  0  0  0  0  0  0
  -26.4884  -36.0045   24.3680 C   0  0  0  0  0  0  0  0  0  0  0  0
  -25.7394  -29.9084   21.5175 C   0  0  0  0  0  0  0  0  0  0  0  0
  -28.1414  -23.5899   17.8730 C   0  0  0  0  0  0  0  0  0  0  0  0
  -29.1786  -21.4316   19.3042 C   0  0  0  0  0  0  0  0  0  0  0  0
  -24.3901  -12.3172   20.6186 C   0  0  0  0  0  0  0  0  0  0  0  0
  -27.1632  -29.3136   19.6389 C   0  0  0  0  0  0  0  0  0  0  0  0
  -23.0500  -10.4120   20.9296 C   0  0  0  0  0  0  0  0  0  0  0  0
  -22.8509   -7.6996   21.5506 C   0  0  0  0  0  0  0  0  0  0  0  0
  -22.2934  -10.0016   22.0272 C   0  0  0  0  0  0  0  0  0  0  0  0
  -28.2467  -14.0562   20.6139 C   0  0  0  0  0  0  0  0  0  0  0  0
  -30.3868  -14.4610   20.3115 C   0  0  0  0  0  0  0  0  0  0  0  0
  -29.6161  -12.2904   19.3405 C   0  0  0  0  0  0  0  0  0  0  0  0
  -25.5758  -32.4769   23.7545 C   0  0  0  0  0  0  0  0  0  0  0  0
  -23.3819  -30.2115   24.5140 C   0  0  0  0  0  0  0  0  0  0  0  0
  -22.0122  -27.1609   23.8322 C   0  0  0  0  0  0  0  0  0  0  0  0
  -30.1966  -20.3448   21.3362 C   0  0  0  0  0  0  0  0  0  0  0  0
  -25.5546  -36.6896   26.6372 C   0  0  0  0  0  0  0  0  0  0  0  0
  -24.4645  -32.0853   21.5257 C   0  0  0  0  0  0  0  0  0  0  0  0
  -25.1686  -29.5434   22.8627 C   0  0  0  0  0  0  0  0  0  0  0  0
  -25.2627  -35.2088   26.8658 C   0  0  0  0  0  0  0  0  0  0  0  0
  -31.5433  -17.8506   23.4907 C   0  0  0  0  0  0  0  0  0  0  0  0
  -26.3829  -34.3487   26.2897 C   0  0  0  0  0  0  0  0  0  0  0  0
  -30.9624  -16.5454   22.9421 C   0  0  0  0  0  0  0  0  0  0  0  0
  -26.0578  -25.9205   16.7700 C   0  0  0  0  0  0  0  0  0  0  0  0
  -30.5420  -19.0005   23.3974 C   0  0  0  0  0  0  0  0  0  0  0  0
  -26.6344  -24.6496   16.1390 C   0  0  0  0  0  0  0  0  0  0  0  0
  -29.3854  -17.9105   21.5150 C   0  0  0  0  0  0  0  0  0  0  0  0
  -26.5068  -34.5468   24.7741 C   0  0  1  0  0  0  0  0  0  0  0  0
  -24.3757  -31.9230   23.0400 C   0  0  1  0  0  0  0  0  0  0  0  0
  -30.3799  -16.7382   21.5281 C   0  0  2  0  0  0  0  0  0  0  0  0
  -27.3530  -25.9970   17.5976 C   0  0  2  0  0  0  0  0  0  0  0  0
  -20.2606  -25.5608   24.6500 C   0  0  0  0  0  0  0  0  0  0  0  0
  -25.2075  -29.3945   26.8183 C   0  0  0  0  0  0  0  0  0  0  0  0
  -23.9168  -27.2561   26.9908 C   0  0  0  0  0  0  0  0  0  0  0  0
  -22.7714  -29.4373   27.3822 C   0  0  0  0  0  0  0  0  0  0  0  0
  -20.5246  -27.3024   21.2776 C   0  0  0  0  0  0  0  0  0  0  0  0
  -28.3850  -27.0171   17.1274 C   0  0  0  0  0  0  0  0  0  0  0  0
  -28.0209  -28.4133   17.6117 C   0  0  0  0  0  0  0  0  0  1  0  0
  -23.4434  -28.7945   25.0312 C   0  0  1  0  0  0  0  0  0  0  0  0
  -20.5680  -26.7111   23.7040 C   0  0  2  0  0  0  0  0  0  0  0  0
  -23.8472  -28.7281   26.5311 C   0  0  0  0  0  0  0  0  0  0  0  0
  -28.4488  -15.2408   21.1969 N   0  0  0  0  0  0  0  0  0  0  0  0
  -29.7595  -15.4598   20.9965 N   0  0  0  0  0  0  0  0  0  0  0  0
  -27.6267  -24.6650   17.1598 N   0  0  1  0  0  0  0  0  0  0  0  0
  -24.2418  -30.5241   23.4516 N   0  0  0  0  0  0  0  0  0  0  0  0
  -30.0361  -19.1260   22.0287 N   0  0  0  0  0  0  0  0  0  0  0  0
  -31.7044  -14.5205   20.0240 N   0  0  0  0  0  0  0  0  0  0  0  0
  -28.5150  -11.4433   19.1553 N   0  0  0  0  0  0  0  0  0  0  0  0
  -29.7054  -20.3353   20.0311 N   0  0  0  0  0  0  0  0  0  0  0  0
  -25.4676  -33.8149   24.0821 N   0  0  0  0  0  0  0  0  0  0  0  0
  -22.1469  -28.1950   24.7343 N   0  0  0  0  0  0  0  0  0  0  0  0
  -20.2871  -26.2619   22.3110 N   0  3  0  0  0  0  0  0  0  0  0  0
  -30.7388  -11.9425   18.9023 O   0  0  0  0  0  0  0  0  0  0  0  0
  -26.5289  -31.7442   23.9923 O   0  0  0  0  0  0  0  0  0  0  0  0
  -22.5947  -31.0095   25.0289 O   0  0  0  0  0  0  0  0  0  0  0  0
  -22.9297  -26.6439   23.1985 O   0  0  0  0  0  0  0  0  0  0  0  0
  -30.7547  -21.3162   21.8528 O   0  0  0  0  0  0  0  0  0  0  0  0
  -23.1492  -11.7580   20.6196 O   0  0  0  0  0  0  0  0  0  0  0  0
  -28.0124  -28.4360   19.0385 O   0  0  0  0  0  0  0  0  0  1  0  0
  -22.7542   -6.3971   21.8477 F   0  0  0  0  0  0  0  0  0  0  0  0
  -21.6590  -10.9054   22.7864 F   0  0  0  0  0  0  0  0  0  0  0  0
  1  2  1  0  0  0  0
  1  5  2  0  0  0  0
  2  6  2  0  0  0  0
  3 12  2  0  0  0  0
  3 19  1  0  0  0  0
  4 13  1  0  0  0  0
  4 19  2  0  0  0  0
  5 21  1  0  0  0  0
  6 23  1  0  0  0  0
  7 14  2  0  0  0  0
  7 22  1  0  0  0  0
  8 10  2  0  0  0  0
  8 25  1  0  0  0  0
  9 11  1  0  0  0  0
  9 25  2  0  0  0  0
 10 26  1  0  0  0  0
 11 26  2  0  0  0  0
 12 27  1  0  0  0  0
 13 27  2  0  0  0  0
 14 28  1  0  0  0  0
 15 16  2  0  0  0  0
 15 29  1  0  0  0  0
 16 30  1  0  0  0  0
 17 24  1  0  0  0  0
 17 28  2  0  0  0  0
 18 30  2  0  0  0  0
 18 31  1  0  0  0  0
 19 32  1  0  0  0  0
 20 32  1  0  0  0  0
 20 33  2  0  0  0  0
 20 34  1  0  0  0  0
 21 23  2  0  0  0  0
 21 39  1  0  0  0  0
 22 24  2  0  0  0  0
 22 40  1  0  0  0  0
 23 50  1  0  0  0  0
 24 41  1  0  0  0  0
 25 66  1  0  0  0  0
 26 71  1  0  0  0  0
 27 80  1  0  0  0  0
 28 81  1  0  0  0  0
 29 31  2  0  0  0  0
 29 80  1  0  0  0  0
 30 82  1  0  0  0  0
 31 83  1  0  0  0  0
 32 64  2  0  0  0  0
 33 65  1  0  0  0  0
 33 69  1  0  0  0  0
 34 70  1  0  0  0  0
 34 75  2  0  0  0  0
 35 51  1  0  0  0  0
 35 72  1  0  0  0  0
 35 76  2  0  0  0  0
 36 61  1  0  0  0  0
 36 67  1  0  0  0  0
 36 77  2  0  0  0  0
 37 62  1  0  0  0  0
 37 73  1  0  0  0  0
 37 78  2  0  0  0  0
 38 68  1  0  0  0  0
 38 71  1  0  0  0  0
 38 79  2  0  0  0  0
 39 42  1  0  0  0  0
 40 51  1  0  0  0  0
 41 67  1  0  0  0  0
 42 44  1  0  0  0  0
 43 45  1  0  0  0  0
 43 47  1  0  0  0  0
 44 50  1  0  0  0  0
 45 52  1  0  0  0  0
 46 48  1  0  0  0  0
 46 53  1  0  0  0  0
 47 68  1  0  0  0  0
 48 66  1  0  0  0  0
 49 52  1  0  0  0  0
 49 68  1  0  0  0  0
 50 72  1  0  0  0  0
 51 67  1  0  0  0  0
 52 65  1  0  0  0  0
 53 59  1  0  0  0  0
 53 66  1  0  0  0  0
 54 62  1  0  0  0  0
 55 63  1  0  0  0  0
 56 63  1  0  0  0  0
 57 63  1  0  0  0  0
 58 74  1  0  0  0  0
 59 60  1  0  0  0  0
 60 81  1  0  0  0  0
 61 63  1  0  0  0  0
 61 73  1  0  0  0  0
 62 74  1  0  0  0  0
 64 65  1  0  0  0  0
M  CHG  1  74   1
M  ISO  4  38 100  60 101  71 100  81 101
M  END
> <Batch ID>
0148

> <Smiles>
CNC(C)C(=O)NC(C(=O)N1Cc2cc([101O:1][101CH2:1]CC3CCN3c3ccc([100NH:0][100C:0](=O)N4CCCC(n5nc(-c6ccc(Oc7ccc(F)cc7F)cc6)c(C(N)=O)c5N)C4)cc3)ccc2CC1C(=O)NC1CCCc2ccccc21)C(C)(C)C

> <Shape>
0.318

> <Color>
0.077

> <Negative vol penalty>
0.000

$$$$

  -OEChem-04052303163D

 86 95  0     1  0  0  0  0  0999 V2000
  -27.7766  -39.2376   22.5182 C   0  0  0  0  0  0  0  0  0  0  0  0
  -28.0945  -38.3203   21.5217 C   0  0  0  0  0  0  0  0  0  0  0  0
  -24.3979   -9.0915   21.9669 C   0  0  0  0  0  0  0  0  0  0  0  0
  -22.9888   -9.9145   20.1853 C   0  0  0  0  0  0  0  0  0  0  0  0
  -27.5314  -38.7962   23.8178 C   0  0  0  0  0  0  0  0  0  0  0  0
  -28.1685  -36.9612   21.8246 C   0  0  0  0  0  0  0  0  0  0  0  0
  -26.9705  -30.5218   18.9236 C   0  0  0  0  0  0  0  0  0  0  0  0
  -23.6375   -7.9239   22.0290 C   0  0  0  0  0  0  0  0  0  0  0  0
  -22.2283   -8.7468   20.2473 C   0  0  0  0  0  0  0  0  0  0  0  0
  -27.6080  -29.2999   18.7130 C   0  0  0  0  0  0  0  0  0  0  0  0
  -20.6697   -6.9504   23.3210 C   0  0  0  0  0  0  0  0  0  0  0  0
  -20.2994   -6.4854   24.5828 C   0  0  0  0  0  0  0  0  0  0  0  0
  -27.0870  -28.6449   20.9754 C   0  0  0  0  0  0  0  0  0  0  0  0
  -26.3280  -20.4559   19.7510 C   0  0  0  0  0  0  0  0  0  0  0  0
  -21.4761   -4.4169   24.1658 C   0  0  0  0  0  0  0  0  0  0  0  0
  -24.0735  -10.0869   21.0451 C   0  0  0  0  0  0  0  0  0  0  0  0
  -25.9974  -11.5256   20.1868 C   0  0  0  0  0  0  0  0  0  0  0  0
  -27.5930  -37.4301   24.1347 C   0  0  0  0  0  0  0  0  0  0  0  0
  -26.3950  -30.8193   20.1673 C   0  0  0  0  0  0  0  0  0  0  0  0
  -27.9252  -36.5013   23.1300 C   0  0  0  0  0  0  0  0  0  0  0  0
  -26.4405  -29.8702   21.1985 C   0  0  0  0  0  0  0  0  0  0  0  0
  -26.2354  -19.0937   19.3436 C   0  0  0  0  0  0  0  0  0  0  0  0
  -22.5527   -7.7514   21.1692 C   0  0  0  0  0  0  0  0  0  0  0  0
  -27.6689  -28.3624   19.7398 C   0  0  0  0  0  0  0  0  0  0  0  0
  -21.4432   -6.1486   22.4815 C   0  0  0  0  0  0  0  0  0  0  0  0
  -20.7027   -5.2186   25.0052 C   0  0  0  0  0  0  0  0  0  0  0  0
  -21.8464   -4.8819   22.9039 C   0  0  0  0  0  0  0  0  0  0  0  0
  -24.8583  -11.2936   20.9808 C   0  0  0  0  0  0  0  0  0  0  0  0
  -26.3686  -12.8135   20.4869 C   0  0  0  0  0  0  0  0  0  0  0  0
  -26.9275  -21.2430   18.7925 C   0  0  0  0  0  0  0  0  0  0  0  0
  -26.7675  -18.8916   18.0890 C   0  0  0  0  0  0  0  0  0  0  0  0
  -26.6605  -10.6548   19.2607 C   0  0  0  0  0  0  0  0  0  0  0  0
  -26.8884  -33.0316   22.3957 C   0  0  0  0  0  0  0  0  0  0  0  0
  -24.2520  -31.7055   23.7422 C   0  0  0  0  0  0  0  0  0  0  0  0
  -22.2228  -28.9807   24.0651 C   0  0  0  0  0  0  0  0  0  0  0  0
  -25.1076  -18.1604   21.3938 C   0  0  0  0  0  0  0  0  0  0  0  0
  -27.3664  -37.0054   25.5640 C   0  0  0  0  0  0  0  0  0  0  0  0
  -25.6877  -32.1311   20.3701 C   0  0  0  0  0  0  0  0  0  0  0  0
  -25.8205  -30.1327   22.5458 C   0  0  0  0  0  0  0  0  0  0  0  0
  -27.0974  -35.5109   25.7200 C   0  0  0  0  0  0  0  0  0  0  0  0
  -24.7870  -15.9288   24.1496 C   0  0  0  0  0  0  0  0  0  0  0  0
  -28.1038  -34.6999   24.9100 C   0  0  0  0  0  0  0  0  0  0  0  0
  -24.8707  -14.5430   23.5055 C   0  0  0  0  0  0  0  0  0  0  0  0
  -27.2547  -24.8637   18.1182 C   0  0  0  0  0  0  0  0  0  0  0  0
  -24.0372  -16.9218   23.2633 C   0  0  0  0  0  0  0  0  0  0  0  0
  -27.1791  -23.4169   17.6483 C   0  0  0  0  0  0  0  0  0  0  0  0
  -24.6205  -15.6394   21.2423 C   0  0  0  0  0  0  0  0  0  0  0  0
  -27.9908  -35.0163   23.4138 C   0  0  1  0  0  0  0  0  0  0  0  0
  -25.5850  -32.5340   21.8379 C   0  0  1  0  0  0  0  0  0  0  0  0
  -25.4234  -14.6217   22.0689 C   0  0  2  0  0  0  0  0  0  0  0  0
  -28.0192  -24.7730   19.4476 C   0  0  1  0  0  0  0  0  0  0  0  0
  -27.4066  -23.4516   20.0839 C   0  0  0  0  0  0  0  0  0  0  0  0
  -29.5350  -24.6593   19.1494 C   0  0  0  0  0  0  0  0  0  0  0  0
  -26.0590  -23.7283   20.7858 C   0  0  0  0  0  0  0  0  0  0  0  0
  -28.3942  -22.8233   21.0814 C   0  0  0  0  0  0  0  0  0  0  0  0
  -20.1675  -28.1863   25.2660 C   0  0  0  0  0  0  0  0  0  0  0  0
  -25.8781  -31.3777   26.3031 C   0  0  0  0  0  0  0  0  0  0  0  0
  -24.1424  -29.7671   27.1164 C   0  0  0  0  0  0  0  0  0  0  0  0
  -23.5217  -32.1385   26.6538 C   0  0  0  0  0  0  0  0  0  0  0  0
  -20.7708  -28.5325   21.5254 C   0  0  0  0  0  0  0  0  0  0  0  0
  -27.8042  -26.0492   20.2751 C   0  0  0  0  0  0  0  0  0  1  0  0
  -24.0004  -30.5826   24.7193 C   0  0  1  0  0  0  0  0  0  0  0  0
  -20.7129  -28.8363   24.0039 C   0  0  2  0  0  0  0  0  0  0  0  0
  -24.3991  -30.9620   26.1735 C   0  0  0  0  0  0  0  0  0  0  0  0
  -24.5277  -12.3493   21.7292 N   0  0  0  0  0  0  0  0  0  0  0  0
  -25.4647  -13.2572   21.4069 N   0  0  0  0  0  0  0  0  0  0  0  0
  -27.1678  -22.6059   18.8767 N   0  0  3  0  0  0  0  0  0  0  0  0
  -25.1457  -31.4325   22.6970 N   0  0  0  0  0  0  0  0  0  0  0  0
  -24.6188  -16.9457   21.9194 N   0  0  0  0  0  0  0  0  0  0  0  0
  -27.3768  -13.5983   20.0510 N   0  0  0  0  0  0  0  0  0  0  0  0
  -26.1470   -9.3645   19.0718 N   0  0  0  0  0  0  0  0  0  0  0  0
  -25.6674  -18.0541   20.1210 N   0  0  0  0  0  0  0  0  0  0  0  0
  -26.8478  -34.3397   22.8391 N   0  0  0  0  0  0  0  0  0  0  0  0
  -22.5985  -30.2108   24.5618 N   0  0  0  0  0  0  0  0  0  0  0  0
  -20.3195  -27.9982   22.8361 N   0  3  0  0  0  0  0  0  0  0  0  0
  -27.6880  -11.0048   18.6319 O   0  0  0  0  0  0  0  0  0  0  0  0
  -27.8587  -32.2836   22.4232 O   0  0  0  0  0  0  0  0  0  0  0  0
  -23.6712  -32.7828   23.8964 O   0  0  0  0  0  0  0  0  0  0  0  0
  -22.9920  -28.0898   23.7113 O   0  0  0  0  0  0  0  0  0  0  0  0
  -25.0595  -19.2119   22.0372 O   0  0  0  0  0  0  0  0  0  0  0  0
  -21.8106   -6.6120   21.2294 O   0  0  0  0  0  0  0  0  0  0  0  0
  -28.2911  -27.1692   19.5371 O   0  0  0  0  0  0  0  0  0  1  0  0
  -20.3483   -4.7728   26.2176 F   0  0  0  0  0  0  0  0  0  0  0  0
  -22.5905   -4.1076   22.1024 F   0  0  0  0  0  0  0  0  0  0  0  0
  -26.8085  -17.7065   17.4695 F   0  0  0  0  0  0  0  0  0  0  0  0
  -27.3757  -20.3403   17.4081 S   0  0  0  0  0  0  0  0  0  0  0  0
  1  2  1  0  0  0  0
  1  5  2  0  0  0  0
  2  6  2  0  0  0  0
  3  8  2  0  0  0  0
  3 16  1  0  0  0  0
  4  9  1  0  0  0  0
  4 16  2  0  0  0  0
  5 18  1  0  0  0  0
  6 20  1  0  0  0  0
  7 10  2  0  0  0  0
  7 19  1  0  0  0  0
  8 23  1  0  0  0  0
  9 23  2  0  0  0  0
 10 24  1  0  0  0  0
 11 12  2  0  0  0  0
 11 25  1  0  0  0  0
 12 26  1  0  0  0  0
 13 21  1  0  0  0  0
 13 24  2  0  0  0  0
 14 22  1  0  0  0  0
 14 30  2  0  0  0  0
 15 26  2  0  0  0  0
 15 27  1  0  0  0  0
 16 28  1  0  0  0  0
 17 28  1  0  0  0  0
 17 29  2  0  0  0  0
 17 32  1  0  0  0  0
 18 20  2  0  0  0  0
 18 37  1  0  0  0  0
 19 21  2  0  0  0  0
 19 38  1  0  0  0  0
 20 48  1  0  0  0  0
 21 39  1  0  0  0  0
 22 31  2  0  0  0  0
 22 72  1  0  0  0  0
 23 81  1  0  0  0  0
 24 82  1  0  0  0  0
 25 27  2  0  0  0  0
 25 81  1  0  0  0  0
 26 83  1  0  0  0  0
 27 84  1  0  0  0  0
 28 65  2  0  0  0  0
 29 66  1  0  0  0  0
 29 70  1  0  0  0  0
 30 67  1  0  0  0  0
 30 86  1  0  0  0  0
 31 85  1  0  0  0  0
 31 86  1  0  0  0  0
 32 71  1  0  0  0  0
 32 76  2  0  0  0  0
 33 49  1  0  0  0  0
 33 73  1  0  0  0  0
 33 77  2  0  0  0  0
 34 62  1  0  0  0  0
 34 68  1  0  0  0  0
 34 78  2  0  0  0  0
 35 63  1  0  0  0  0
 35 74  1  0  0  0  0
 35 79  2  0  0  0  0
 36 69  1  0  0  0  0
 36 72  1  0  0  0  0
 36 80  2  0  0  0  0
 37 40  1  0  0  0  0
 38 49  1  0  0  0  0
 39 68  1  0  0  0  0
 40 42  1  0  0  0  0
 41 43  1  0  0  0  0
 41 45  1  0  0  0  0
 42 48  1  0  0  0  0
 43 50  1  0  0  0  0
 44 46  1  0  0  0  0
 44 51  1  0  0  0  0
 45 69  1  0  0  0  0
 46 67  1  0  0  0  0
 47 50  1  0  0  0  0
 47 69  1  0  0  0  0
 48 73  1  0  0  0  0
 49 68  1  0  0  0  0
 50 66  1  0  0  0  0
 51 52  1  0  0  0  0
 51 53  1  0  0  0  0
 51 61  1  0  0  0  0
 52 54  1  0  0  0  0
 52 55  1  0  0  0  0
 52 67  1  0  0  0  0
 56 63  1  0  0  0  0
 57 64  1  0  0  0  0
 58 64  1  0  0  0  0
 59 64  1  0  0  0  0
 60 75  1  0  0  0  0
 61 82  1  0  0  0  0
 62 64  1  0  0  0  0
 62 74  1  0  0  0  0
 63 75  1  0  0  0  0
 65 66  1  0  0  0  0
M  CHG  1  75   1
M  ISO  4  36 100  61 101  72 100  82 101
M  END
> <Batch ID>
0148

> <Smiles>
CNC(C)C(=O)NC(C(=O)N1Cc2cc([101O:1][101CH2:1]C3(C)CCN(c4cc([100NH:0][100C:0](=O)N5CCCC(n6nc(-c7ccc(Oc8ccc(F)cc8F)cc7)c(C(N)=O)c6N)C5)c(F)s4)C3(C)C)ccc2CC1C(=O)NC1CCCc2ccccc21)C(C)(C)C

> <Shape>
0.290

> <Color>
0.098

> <Negative vol penalty>
0.000

$$$$

  -OEChem-04052303163D

 83 92  0     1  0  0  0  0  0999 V2000
  -24.0516  -17.1549   18.8959 C   0  0  0  0  0  0  0  0  0  0  0  0
  -24.6695  -17.9180   19.8814 C   0  0  0  0  0  0  0  0  0  0  0  0
  -26.6233  -12.1058   19.6143 C   0  0  0  0  0  0  0  0  0  0  0  0
  -25.7216  -14.0663   20.7007 C   0  0  0  0  0  0  0  0  0  0  0  0
  -23.7045  -17.7394   17.6785 C   0  0  0  0  0  0  0  0  0  0  0  0
  -24.9418  -19.2658   19.6497 C   0  0  0  0  0  0  0  0  0  0  0  0
  -23.7050  -22.2022   23.5858 C   0  0  0  0  0  0  0  0  0  0  0  0
  -25.3881  -11.4695   19.7373 C   0  0  0  0  0  0  0  0  0  0  0  0
  -24.4864  -13.4301   20.8236 C   0  0  0  0  0  0  0  0  0  0  0  0
  -24.5830  -22.2184   24.6688 C   0  0  0  0  0  0  0  0  0  0  0  0
  -23.6361   -9.8773   22.1497 C   0  0  0  0  0  0  0  0  0  0  0  0
  -23.6306   -8.5543   22.5914 C   0  0  0  0  0  0  0  0  0  0  0  0
  -25.5085  -24.3016   23.8795 C   0  0  0  0  0  0  0  0  0  0  0  0
  -22.5673   -7.8713   20.5322 C   0  0  0  0  0  0  0  0  0  0  0  0
  -29.0265  -21.9699   20.3037 C   0  0  0  0  0  0  0  0  0  0  0  0
  -30.0001  -19.9550   20.7190 C   0  0  0  0  0  0  0  0  0  0  0  0
  -26.7901  -13.4042   20.0961 C   0  0  0  0  0  0  0  0  0  0  0  0
  -29.2968  -13.6394   20.5071 C   0  0  0  0  0  0  0  0  0  0  0  0
  -23.9640  -19.0974   17.4355 C   0  0  0  0  0  0  0  0  0  0  0  0
  -23.7297  -23.2317   22.6341 C   0  0  0  0  0  0  0  0  0  0  0  0
  -24.5991  -19.8686   18.4275 C   0  0  0  0  0  0  0  0  0  0  0  0
  -24.6281  -24.2974   22.7868 C   0  0  0  0  0  0  0  0  0  0  0  0
  -29.4423  -21.9358   21.5978 C   0  0  0  0  0  0  0  0  0  0  0  0
  -30.0342  -20.7090   21.8508 C   0  0  0  0  0  0  0  0  0  0  0  0
  -24.3197  -12.1317   20.3419 C   0  0  0  0  0  0  0  0  0  0  0  0
  -25.4869  -23.2667   24.8142 C   0  0  0  0  0  0  0  0  0  0  0  0
  -23.1072  -10.1974   20.8993 C   0  0  0  0  0  0  0  0  0  0  0  0
  -23.0962   -7.5513   21.7827 C   0  0  0  0  0  0  0  0  0  0  0  0
  -22.5728   -9.1944   20.0905 C   0  0  0  0  0  0  0  0  0  0  0  0
  -28.0659  -14.0617   19.9699 C   0  0  0  0  0  0  0  0  0  0  0  0
  -30.1935  -14.6000   20.1074 C   0  0  0  0  0  0  0  0  0  0  0  0
  -29.6022  -12.4823   21.2967 C   0  0  0  0  0  0  0  0  0  0  0  0
  -24.3192  -23.3890   19.5146 C   0  0  0  0  0  0  0  0  0  0  0  0
  -23.4036  -26.4778   19.8929 C   0  0  0  0  0  0  0  0  0  0  0  0
  -29.1845  -22.6146   25.9428 C   0  0  0  0  0  0  0  0  0  0  0  0
  -23.0229  -29.1521   21.9785 C   0  0  0  0  0  0  0  0  0  0  0  0
  -29.0794  -20.3840   18.4033 C   0  0  0  0  0  0  0  0  0  0  0  0
  -23.6133  -19.6733   16.0863 C   0  0  0  0  0  0  0  0  0  0  0  0
  -22.7579  -23.2132   21.4862 C   0  0  0  0  0  0  0  0  0  0  0  0
  -24.6808  -25.4372   21.8037 C   0  0  0  0  0  0  0  0  0  0  0  0
  -23.5973  -21.1995   16.0610 C   0  0  0  0  0  0  0  0  0  0  0  0
  -30.9935  -17.7786   16.6292 C   0  0  0  0  0  0  0  0  0  0  0  0
  -24.8393  -21.7578   16.7485 C   0  0  0  0  0  0  0  0  0  0  0  0
  -30.5030  -16.4902   17.2886 C   0  0  0  0  0  0  0  0  0  0  0  0
  -29.9366  -18.8778   16.6768 C   0  0  0  0  0  0  0  0  0  0  0  0
  -28.9306  -17.8761   18.6982 C   0  0  0  0  0  0  0  0  0  0  0  0
  -24.8886  -21.3399   18.2231 C   0  0  1  0  0  0  0  0  0  0  0  0
  -23.2208  -24.0504   20.2979 C   0  0  1  0  0  0  0  0  0  0  0  0
  -29.9897  -16.7634   18.7131 C   0  0  1  0  0  0  0  0  0  0  0  0
  -30.1604  -21.9439   23.7502 C   0  0  0  0  0  0  0  0  0  0  0  0
  -22.3388  -31.4512   22.7157 C   0  0  0  0  0  0  0  0  0  0  0  0
  -26.0345  -27.2880   18.5769 C   0  0  0  0  0  0  0  0  0  0  0  0
  -25.6844  -29.6032   19.4632 C   0  0  0  0  0  0  0  0  0  0  0  0
  -24.0499  -28.6260   17.8519 C   0  0  0  0  0  0  0  0  0  0  0  0
  -20.3286  -28.2215   22.7743 C   0  0  0  0  0  0  0  0  0  0  0  0
  -28.1631  -22.1435   26.9662 C   0  0  0  0  0  0  0  0  0  0  0  0
  -26.7594  -22.0241   26.3929 C   0  0  0  0  0  0  0  0  0  1  0  0
  -24.1101  -27.7687   20.2296 C   0  0  1  0  0  0  0  0  0  0  0  0
  -21.8613  -30.1057   22.1919 C   0  0  2  0  0  0  0  0  0  0  0  0
  -24.9703  -28.2992   19.0480 C   0  0  0  0  0  0  0  0  0  0  0  0
  -28.1678  -15.2018   19.2815 N   0  0  0  0  0  0  0  0  0  0  0  0
  -29.3251  -20.7130   19.7489 N   0  0  0  0  0  0  0  0  0  0  0  0
  -29.4732  -15.5042   19.3836 N   0  0  0  0  0  0  0  0  0  0  0  0
  -29.4738  -22.7141   22.6907 N   0  0  0  0  0  0  0  0  0  0  0  0
  -30.4788  -20.6468   23.1155 N   0  0  0  0  0  0  0  0  0  0  0  0
  -23.7147  -25.3706   20.6948 N   0  0  0  0  0  0  0  0  0  0  0  0
  -29.4426  -19.0883   18.0367 N   0  0  0  0  0  0  0  0  0  0  0  0
  -31.5199  -14.7510   20.3080 N   0  0  0  0  0  0  0  0  0  0  0  0
  -29.5160  -12.5838   22.6919 N   0  0  0  0  0  0  0  0  0  0  0  0
  -23.9808  -22.1486   19.0082 N   0  0  0  0  0  0  0  0  0  0  0  0
  -29.2764  -21.7418   24.8590 N   0  0  0  0  0  0  0  0  0  0  0  0
  -23.0761  -28.6947   20.6788 N   0  0  0  0  0  0  0  0  0  0  0  0
  -20.8962  -29.5350   23.1737 N   0  3  0  0  0  0  0  0  0  0  0  0
  -29.9574  -11.3954   20.7809 O   0  0  0  0  0  0  0  0  0  0  0  0
  -25.3937  -23.9622   19.3783 O   0  0  0  0  0  0  0  0  0  0  0  0
  -22.5998  -26.4545   18.9575 O   0  0  0  0  0  0  0  0  0  0  0  0
  -29.8414  -23.6441   26.0715 O   0  0  0  0  0  0  0  0  0  0  0  0
  -23.8071  -28.8466   22.8742 O   0  0  0  0  0  0  0  0  0  0  0  0
  -28.6377  -21.2636   17.6742 O   0  0  0  0  0  0  0  0  0  0  0  0
  -23.1142  -11.5113   20.4618 O   0  0  0  0  0  0  0  0  0  0  0  0
  -26.3514  -23.2848   25.8773 O   0  0  0  0  0  0  0  0  0  1  0  0
  -23.0923   -6.2806   22.2063 F   0  0  0  0  0  0  0  0  0  0  0  0
  -22.0644   -9.4956   18.8878 F   0  0  0  0  0  0  0  0  0  0  0  0
  1  2  1  0  0  0  0
  1  5  2  0  0  0  0
  2  6  2  0  0  0  0
  3  8  2  0  0  0  0
  3 17  1  0  0  0  0
  4  9  1  0  0  0  0
  4 17  2  0  0  0  0
  5 19  1  0  0  0  0
  6 21  1  0  0  0  0
  7 10  2  0  0  0  0
  7 20  1  0  0  0  0
  8 25  1  0  0  0  0
  9 25  2  0  0  0  0
 10 26  1  0  0  0  0
 11 12  2  0  0  0  0
 11 27  1  0  0  0  0
 12 28  1  0  0  0  0
 13 22  1  0  0  0  0
 13 26  2  0  0  0  0
 14 28  2  0  0  0  0
 14 29  1  0  0  0  0
 15 23  2  0  0  0  0
 15 62  1  0  0  0  0
 16 24  2  0  0  0  0
 16 62  1  0  0  0  0
 17 30  1  0  0  0  0
 18 30  1  0  0  0  0
 18 31  2  0  0  0  0
 18 32  1  0  0  0  0
 19 21  2  0  0  0  0
 19 38  1  0  0  0  0
 20 22  2  0  0  0  0
 20 39  1  0  0  0  0
 21 47  1  0  0  0  0
 22 40  1  0  0  0  0
 23 24  1  0  0  0  0
 23 64  1  0  0  0  0
 24 65  1  0  0  0  0
 25 80  1  0  0  0  0
 26 81  1  0  0  0  0
 27 29  2  0  0  0  0
 27 80  1  0  0  0  0
 28 82  1  0  0  0  0
 29 83  1  0  0  0  0
 30 61  2  0  0  0  0
 31 63  1  0  0  0  0
 31 68  1  0  0  0  0
 32 69  1  0  0  0  0
 32 74  2  0  0  0  0
 33 48  1  0  0  0  0
 33 70  1  0  0  0  0
 33 75  2  0  0  0  0
 34 58  1  0  0  0  0
 34 66  1  0  0  0  0
 34 76  2  0  0  0  0
 35 56  1  0  0  0  0
 35 71  1  0  0  0  0
 35 77  2  0  0  0  0
 36 59  1  0  0  0  0
 36 72  1  0  0  0  0
 36 78  2  0  0  0  0
 37 62  1  0  0  0  0
 37 67  1  0  0  0  0
 37 79  2  0  0  0  0
 38 41  1  0  0  0  0
 39 48  1  0  0  0  0
 40 66  1  0  0  0  0
 41 43  1  0  0  0  0
 42 44  1  0  0  0  0
 42 45  1  0  0  0  0
 43 47  1  0  0  0  0
 44 49  1  0  0  0  0
 45 67  1  0  0  0  0
 46 49  1  0  0  0  0
 46 67  1  0  0  0  0
 47 70  1  0  0  0  0
 48 66  1  0  0  0  0
 49 63  1  0  0  0  0
 50 64  1  0  0  0  0
 50 65  1  0  0  0  0
 50 71  1  0  0  0  0
 51 59  1  0  0  0  0
 52 60  1  0  0  0  0
 53 60  1  0  0  0  0
 54 60  1  0  0  0  0
 55 73  1  0  0  0  0
 56 57  1  0  0  0  0
 57 81  1  0  0  0  0
 58 60  1  0  0  0  0
 58 72  1  0  0  0  0
 59 73  1  0  0  0  0
 61 63  1  0  0  0  0
M  CHG  1  73   1
M  ISO  4  37 100  57 101  62 100  81 101
M  END
> <Batch ID>
0148

> <Smiles>
CNC(C)C(=O)NC(C(=O)N1Cc2cc([101O:1][101CH2:1]CC(=O)Nc3nc4c([nH]3)C[100N:0]([100C:0](=O)N3CCCC(n5nc(-c6ccc(Oc7ccc(F)cc7F)cc6)c(C(N)=O)c5N)C3)C4)ccc2CC1C(=O)NC1CCCc2ccccc21)C(C)(C)C

> <Shape>
0.207

> <Color>
0.067

> <Negative vol penalty>
0.000

$$$$

  -OEChem-04052303163D

 85 94  0     1  0  0  0  0  0999 V2000
  -24.3628  -36.9107   16.9151 C   0  0  0  0  0  0  0  0  0  0  0  0
  -24.9276  -35.6542   16.7208 C   0  0  0  0  0  0  0  0  0  0  0  0
  -24.7750   -8.7167   21.1646 C   0  0  0  0  0  0  0  0  0  0  0  0
  -23.1337  -10.2252   20.2331 C   0  0  0  0  0  0  0  0  0  0  0  0
  -24.3170  -37.4627   18.1945 C   0  0  0  0  0  0  0  0  0  0  0  0
  -25.4479  -34.9495   17.8057 C   0  0  0  0  0  0  0  0  0  0  0  0
  -25.3701  -28.8821   18.6339 C   0  0  0  0  0  0  0  0  0  0  0  0
  -23.7581   -7.8324   21.5245 C   0  0  0  0  0  0  0  0  0  0  0  0
  -22.1168   -9.3409   20.5929 C   0  0  0  0  0  0  0  0  0  0  0  0
  -26.3282  -27.8932   18.4152 C   0  0  0  0  0  0  0  0  0  0  0  0
  -21.8246   -5.5097   20.0081 C   0  0  0  0  0  0  0  0  0  0  0  0
  -22.0172   -4.1552   19.7365 C   0  0  0  0  0  0  0  0  0  0  0  0
  -26.9786  -28.0186   20.7347 C   0  0  0  0  0  0  0  0  0  0  0  0
  -28.0275  -20.3768   16.6073 C   0  0  0  0  0  0  0  0  0  0  0  0
  -28.1602  -19.4972   18.8535 C   0  0  0  0  0  0  0  0  0  0  0  0
  -28.0270  -17.9884   16.9713 C   0  0  0  0  0  0  0  0  0  0  0  0
  -21.8170   -3.6545   22.0916 C   0  0  0  0  0  0  0  0  0  0  0  0
  -24.4628   -9.9131   20.5189 C   0  0  0  0  0  0  0  0  0  0  0  0
  -26.2263  -10.8546   18.9342 C   0  0  0  0  0  0  0  0  0  0  0  0
  -24.8283  -36.7604   19.2972 C   0  0  0  0  0  0  0  0  0  0  0  0
  -25.2162  -29.4554   19.9044 C   0  0  0  0  0  0  0  0  0  0  0  0
  -25.4101  -35.4933   19.1009 C   0  0  0  0  0  0  0  0  0  0  0  0
  -26.0161  -29.0128   20.9676 C   0  0  0  0  0  0  0  0  0  0  0  0
  -28.1161  -20.5866   17.9834 C   0  0  0  0  0  0  0  0  0  0  0  0
  -27.9829  -19.0777   16.1012 C   0  0  0  0  0  0  0  0  0  0  0  0
  -28.1157  -18.1981   18.3474 C   0  0  0  0  0  0  0  0  0  0  0  0
  -22.4290   -8.1445   21.2386 C   0  0  0  0  0  0  0  0  0  0  0  0
  -27.1346  -27.4634   19.4649 C   0  0  0  0  0  0  0  0  0  0  0  0
  -21.6283   -5.9367   21.3215 C   0  0  0  0  0  0  0  0  0  0  0  0
  -22.0134   -3.2276   20.7782 C   0  0  0  0  0  0  0  0  0  0  0  0
  -21.6245   -5.0091   22.3632 C   0  0  0  0  0  0  0  0  0  0  0  0
  -25.5128  -10.8273   20.1474 C   0  0  0  0  0  0  0  0  0  0  0  0
  -27.1054  -11.9003   19.0763 C   0  0  0  0  0  0  0  0  0  0  0  0
  -26.1052  -10.0104   17.7817 C   0  0  0  0  0  0  0  0  0  0  0  0
  -25.5296  -32.3855   21.0960 C   0  0  0  0  0  0  0  0  0  0  0  0
  -24.3518  -30.9983   23.7813 C   0  0  0  0  0  0  0  0  0  0  0  0
  -23.8852  -28.1526   25.6063 C   0  0  0  0  0  0  0  0  0  0  0  0
  -28.2504  -17.1253   20.6228 C   0  0  0  0  0  0  0  0  0  0  0  0
  -24.7989  -37.4183   20.6540 C   0  0  0  0  0  0  0  0  0  0  0  0
  -24.1599  -30.5022   20.1302 C   0  0  0  0  0  0  0  0  0  0  0  0
  -25.8767  -29.5819   22.3551 C   0  0  0  0  0  0  0  0  0  0  0  0
  -25.0339  -36.4463   21.8074 C   0  0  0  0  0  0  0  0  0  0  0  0
  -28.3505  -14.6255   23.1562 C   0  0  0  0  0  0  0  0  0  0  0  0
  -26.2214  -35.5376   21.5062 C   0  0  0  0  0  0  0  0  0  0  0  0
  -27.6798  -13.4167   22.4994 C   0  0  0  0  0  0  0  0  0  0  0  0
  -27.9889  -23.6912   19.9710 C   0  0  0  0  0  0  0  0  0  0  0  0
  -27.6930  -15.9380   22.7334 C   0  0  0  0  0  0  0  0  0  0  0  0
  -28.2526  -22.1872   19.9061 C   0  0  0  0  0  0  0  0  0  0  0  0
  -26.9116  -14.9291   20.6261 C   0  0  0  0  0  0  0  0  0  0  0  0
  -28.0880  -23.0760   17.6570 C   0  0  0  0  0  0  0  0  0  0  0  0
  -25.9626  -34.6874   20.2565 C   0  0  1  0  0  0  0  0  0  0  0  0
  -24.4400  -31.3814   21.3451 C   0  0  1  0  0  0  0  0  0  0  0  0
  -27.5808  -13.5886   20.9710 C   0  0  2  0  0  0  0  0  0  0  0  0
  -28.4804  -24.2192   18.6153 C   0  0  2  0  0  0  0  0  0  0  0  0
  -30.0044  -24.4272   18.6241 C   0  0  0  0  0  0  0  0  0  0  0  0
  -22.9237  -27.3401   27.7772 C   0  0  0  0  0  0  0  0  0  0  0  0
  -26.7745  -32.1089   25.2670 C   0  0  0  0  0  0  0  0  0  0  0  0
  -26.2747  -30.5144   27.1314 C   0  0  0  0  0  0  0  0  0  0  0  0
  -24.6163  -32.2746   26.5197 C   0  0  0  0  0  0  0  0  0  0  0  0
  -21.9339  -26.4093   24.2233 C   0  0  0  0  0  0  0  0  0  0  0  0
  -27.7917  -25.5329   18.2413 C   0  0  0  0  0  0  0  0  0  1  0  0
  -24.9546  -30.3007   24.9767 C   0  0  1  0  0  0  0  0  0  0  0  0
  -22.6576  -27.5915   26.3012 C   0  0  2  0  0  0  0  0  0  0  0  0
  -25.6592  -31.2901   25.9472 C   0  0  0  0  0  0  0  0  0  0  0  0
  -25.9049  -11.7797   20.9978 N   0  0  0  0  0  0  0  0  0  0  0  0
  -26.8743  -12.4154   20.3179 N   0  0  0  0  0  0  0  0  0  0  0  0
  -28.1600  -21.8710   18.4838 N   0  0  3  0  0  0  0  0  0  0  0  0
  -24.8340  -30.6074   22.5241 N   0  0  0  0  0  0  0  0  0  0  0  0
  -27.6378  -16.0332   21.2730 N   0  0  0  0  0  0  0  0  0  0  0  0
  -27.8930  -18.8656   14.7097 N   0  0  0  0  0  0  0  0  0  0  0  0
  -28.0459  -12.4202   18.2592 N   0  0  0  0  0  0  0  0  0  0  0  0
  -25.1510   -8.9840   17.8026 N   0  0  0  0  0  0  0  0  0  0  0  0
  -28.1615  -17.0918   19.2315 N   0  0  0  0  0  0  0  0  0  0  0  0
  -25.0821  -33.5826   20.5703 N   0  0  0  0  0  0  0  0  0  0  0  0
  -23.8758  -29.5312   25.5871 N   0  0  0  0  0  0  0  0  0  0  0  0
  -22.2489  -26.3042   25.6713 N   0  3  0  0  0  0  0  0  0  0  0  0
  -26.8331  -10.1514   16.7698 O   0  0  0  0  0  0  0  0  0  0  0  0
  -26.6902  -32.0963   21.3624 O   0  0  0  0  0  0  0  0  0  0  0  0
  -23.4801  -31.8533   23.9561 O   0  0  0  0  0  0  0  0  0  0  0  0
  -24.7662  -27.4392   25.1315 O   0  0  0  0  0  0  0  0  0  0  0  0
  -28.8361  -18.0100   21.2523 O   0  0  0  0  0  0  0  0  0  0  0  0
  -21.4365   -7.2817   21.5894 O   0  0  0  0  0  0  0  0  0  0  0  0
  -28.0709  -26.4987   19.2540 O   0  0  0  0  0  0  0  0  0  1  0  0
  -22.1968   -1.9267   20.5171 F   0  0  0  0  0  0  0  0  0  0  0  0
  -21.4352   -5.4131   23.6268 F   0  0  0  0  0  0  0  0  0  0  0  0
  1  2  1  0  0  0  0
  1  5  2  0  0  0  0
  2  6  2  0  0  0  0
  3  8  2  0  0  0  0
  3 18  1  0  0  0  0
  4  9  1  0  0  0  0
  4 18  2  0  0  0  0
  5 20  1  0  0  0  0
  6 22  1  0  0  0  0
  7 10  2  0  0  0  0
  7 21  1  0  0  0  0
  8 27  1  0  0  0  0
  9 27  2  0  0  0  0
 10 28  1  0  0  0  0
 11 12  2  0  0  0  0
 11 29  1  0  0  0  0
 12 30  1  0  0  0  0
 13 23  1  0  0  0  0
 13 28  2  0  0  0  0
 14 24  1  0  0  0  0
 14 25  2  0  0  0  0
 15 24  2  0  0  0  0
 15 26  1  0  0  0  0
 16 25  1  0  0  0  0
 16 26  2  0  0  0  0
 17 30  2  0  0  0  0
 17 31  1  0  0  0  0
 18 32  1  0  0  0  0
 19 32  1  0  0  0  0
 19 33  2  0  0  0  0
 19 34  1  0  0  0  0
 20 22  2  0  0  0  0
 20 39  1  0  0  0  0
 21 23  2  0  0  0  0
 21 40  1  0  0  0  0
 22 51  1  0  0  0  0
 23 41  1  0  0  0  0
 24 67  1  0  0  0  0
 25 70  1  0  0  0  0
 26 73  1  0  0  0  0
 27 82  1  0  0  0  0
 28 83  1  0  0  0  0
 29 31  2  0  0  0  0
 29 82  1  0  0  0  0
 30 84  1  0  0  0  0
 31 85  1  0  0  0  0
 32 65  2  0  0  0  0
 33 66  1  0  0  0  0
 33 71  1  0  0  0  0
 34 72  1  0  0  0  0
 34 77  2  0  0  0  0
 35 52  1  0  0  0  0
 35 74  1  0  0  0  0
 35 78  2  0  0  0  0
 36 62  1  0  0  0  0
 36 68  1  0  0  0  0
 36 79  2  0  0  0  0
 37 63  1  0  0  0  0
 37 75  1  0  0  0  0
 37 80  2  0  0  0  0
 38 69  1  0  0  0  0
 38 73  1  0  0  0  0
 38 81  2  0  0  0  0
 39 42  1  0  0  0  0
 40 52  1  0  0  0  0
 41 68  1  0  0  0  0
 42 44  1  0  0  0  0
 43 45  1  0  0  0  0
 43 47  1  0  0  0  0
 44 51  1  0  0  0  0
 45 53  1  0  0  0  0
 46 48  1  0  0  0  0
 46 54  1  0  0  0  0
 47 69  1  0  0  0  0
 48 67  1  0  0  0  0
 49 53  1  0  0  0  0
 49 69  1  0  0  0  0
 50 54  1  0  0  0  0
 50 67  1  0  0  0  0
 51 74  1  0  0  0  0
 52 68  1  0  0  0  0
 53 66  1  0  0  0  0
 54 55  1  0  0  0  0
 54 61  1  0  0  0  0
 56 63  1  0  0  0  0
 57 64  1  0  0  0  0
 58 64  1  0  0  0  0
 59 64  1  0  0  0  0
 60 76  1  0  0  0  0
 61 83  1  0  0  0  0
 62 64  1  0  0  0  0
 62 75  1  0  0  0  0
 63 76  1  0  0  0  0
 65 66  1  0  0  0  0
M  CHG  1  76   1
M  ISO  4  38 100  61 101  73 100  83 101
M  END
> <Batch ID>
0148

> <Smiles>
CNC(C)C(=O)NC(C(=O)N1Cc2cc([101O:1][101CH2:1]C3(C)CCN(c4cc(N)cc([100NH:0][100C:0](=O)N5CCCC(n6nc(-c7ccc(Oc8ccc(F)cc8F)cc7)c(C(N)=O)c6N)C5)c4)C3)ccc2CC1C(=O)NC1CCCc2ccccc21)C(C)(C)C

> <Shape>
0.264

> <Color>
0.113

> <Negative vol penalty>
0.000

$$$$

  -OEChem-04052303163D

 87 96  0     1  0  0  0  0  0999 V2000
  -29.0089  -10.4358   16.6973 C   0  0  0  0  0  0  0  0  0  0  0  0
  -27.8224  -11.1432   16.5323 C   0  0  0  0  0  0  0  0  0  0  0  0
  -26.9756  -31.1527   25.7408 C   0  0  0  0  0  0  0  0  0  0  0  0
  -28.4531  -32.4282   24.3171 C   0  0  0  0  0  0  0  0  0  0  0  0
  -29.7797  -10.6272   17.8432 C   0  0  0  0  0  0  0  0  0  0  0  0
  -27.4055  -12.0417   17.5138 C   0  0  0  0  0  0  0  0  0  0  0  0
  -23.9029  -18.2434   18.2803 C   0  0  0  0  0  0  0  0  0  0  0  0
  -27.8131  -31.3972   26.8290 C   0  0  0  0  0  0  0  0  0  0  0  0
  -29.2906  -32.6728   25.4054 C   0  0  0  0  0  0  0  0  0  0  0  0
  -22.8436  -18.8009   18.9950 C   0  0  0  0  0  0  0  0  0  0  0  0
  -31.6303  -33.9359   27.8850 C   0  0  0  0  0  0  0  0  0  0  0  0
  -32.1052  -35.2357   28.0597 C   0  0  0  0  0  0  0  0  0  0  0  0
  -24.2963  -19.1089   20.8961 C   0  0  0  0  0  0  0  0  0  0  0  0
  -21.0204  -23.7871   21.8010 C   0  0  0  0  0  0  0  0  0  0  0  0
  -29.8350  -36.0386   28.2563 C   0  0  0  0  0  0  0  0  0  0  0  0
  -27.2956  -31.6682   24.4847 C   0  0  0  0  0  0  0  0  0  0  0  0
  -25.3426  -32.1986   22.9317 C   0  0  0  0  0  0  0  0  0  0  0  0
  -29.3769  -11.5357   18.8347 C   0  0  0  0  0  0  0  0  0  0  0  0
  -25.1662  -18.1042   18.8728 C   0  0  0  0  0  0  0  0  0  0  0  0
  -28.1710  -12.2445   18.6747 C   0  0  0  0  0  0  0  0  0  0  0  0
  -25.3706  -18.5516   20.1859 C   0  0  0  0  0  0  0  0  0  0  0  0
  -22.1929  -24.5140   21.5126 C   0  0  0  0  0  0  0  0  0  0  0  0
  -28.9706  -32.1572   26.6614 C   0  0  0  0  0  0  0  0  0  0  0  0
  -23.0394  -19.2311   20.3041 C   0  0  0  0  0  0  0  0  0  0  0  0
  -30.2578  -33.6874   27.8959 C   0  0  0  0  0  0  0  0  0  0  0  0
  -31.2076  -36.2871   28.2453 C   0  0  0  0  0  0  0  0  0  0  0  0
  -29.3601  -34.7388   28.0816 C   0  0  0  0  0  0  0  0  0  0  0  0
  -26.4312  -31.4155   23.3600 C   0  0  0  0  0  0  0  0  0  0  0  0
  -21.9814  -25.8619   21.5234 C   0  0  0  0  0  0  0  0  0  0  0  0
  -24.8553  -31.5366   21.8313 C   0  0  0  0  0  0  0  0  0  0  0  0
  -19.9566  -24.6477   22.0229 C   0  0  0  0  0  0  0  0  0  0  0  0
  -18.6300  -21.2578   20.5848 C   0  0  0  0  0  0  0  0  0  0  0  0
  -24.8189  -33.4157   23.4793 C   0  0  0  0  0  0  0  0  0  0  0  0
  -17.9647  -22.3122   21.0955 C   0  0  0  0  0  0  0  0  0  0  0  0
  -19.7152  -20.4940   21.2666 C   0  0  0  0  0  0  0  0  0  0  0  0
  -27.0512  -15.6459   19.5852 C   0  0  0  0  0  0  0  0  0  0  0  0
  -29.1483  -17.9878   20.3852 C   0  0  0  0  0  0  0  0  0  0  0  0
  -29.6486  -21.2203   21.3585 C   0  0  0  0  0  0  0  0  0  0  0  0
  -25.3877  -25.6882   20.2929 C   0  0  0  0  0  0  0  0  0  0  0  0
  -30.2193  -11.6739   20.0781 C   0  0  0  0  0  0  0  0  0  0  0  0
  -26.3053  -17.5253   18.0793 C   0  0  0  0  0  0  0  0  0  0  0  0
  -26.7127  -18.4432   20.8607 C   0  0  0  0  0  0  0  0  0  0  0  0
  -23.5957  -24.1958   21.1912 C   0  0  0  0  0  0  0  0  0  0  0  0
  -23.1896  -26.6552   21.2377 C   0  0  0  0  0  0  0  0  0  0  0  0
  -29.8972  -12.9216   20.8965 C   0  0  0  0  0  0  0  0  0  0  0  0
  -26.2368  -28.6385   18.2779 C   0  0  0  0  0  0  0  0  0  0  0  0
  -28.3889  -13.0756   21.0637 C   0  0  0  0  0  0  0  0  0  0  0  0
  -26.3302  -29.7438   19.3321 C   0  0  0  0  0  0  0  0  0  0  0  0
  -26.6116  -27.2712   18.8458 C   0  0  0  0  0  0  0  0  0  0  0  0
  -25.9851  -27.9969   21.1149 C   0  0  0  0  0  0  0  0  0  0  0  0
  -27.6978  -13.2463   19.7055 C   0  0  1  0  0  0  0  0  0  0  0  0
  -27.4183  -16.9604   18.9566 C   0  0  1  0  0  0  0  0  0  0  0  0
  -25.5398  -29.3726   20.6018 C   0  0  1  0  0  0  0  0  0  0  0  0
  -16.8907  -22.9607   20.2505 C   0  0  0  0  0  0  0  0  0  0  0  0
  -16.9676  -22.8883   23.3458 C   0  0  0  0  0  0  0  0  0  0  0  0
  -31.4705  -22.8336   21.9712 C   0  0  0  0  0  0  0  0  0  0  0  0
  -29.4260  -16.6367   23.1068 C   0  0  0  0  0  0  0  0  0  0  0  0
  -30.4659  -18.7446   23.9693 C   0  0  0  0  0  0  0  0  0  0  0  0
  -31.5729  -17.4708   22.1323 C   0  0  0  0  0  0  0  0  0  0  0  0
  -28.9506  -23.0356   19.1277 C   0  0  0  0  0  0  0  0  0  0  0  0
  -20.7518  -19.8794   20.3500 C   0  0  0  0  0  0  0  0  0  1  0  0
  -18.2151  -22.9170   22.4670 C   0  0  2  0  0  0  0  0  0  0  0  0
  -29.4558  -18.7635   21.6433 C   0  0  1  0  0  0  0  0  0  0  0  0
  -30.5985  -22.2898   20.8502 C   0  0  2  0  0  0  0  0  0  0  0  0
  -30.2042  -17.9043   22.7012 C   0  0  0  0  0  0  0  0  0  0  0  0
  -26.6243  -30.3382   22.5944 N   0  0  0  0  0  0  0  0  0  0  0  0
  -25.6504  -30.4397   21.6739 N   0  0  0  0  0  0  0  0  0  0  0  0
  -27.7935  -17.8645   20.0456 N   0  0  0  0  0  0  0  0  0  0  0  0
  -24.1719  -25.5559   20.9727 N   0  0  0  0  0  0  0  0  0  0  0  0
  -25.8503  -26.9872   20.0611 N   0  0  0  0  0  0  0  0  0  0  0  0
  -23.8285  -31.7915   20.9929 N   0  0  0  0  0  0  0  0  0  0  0  0
  -25.4392  -33.9600   24.6121 N   0  0  0  0  0  0  0  0  0  0  0  0
  -18.6824  -24.2928   22.3252 N   0  0  0  0  0  0  0  0  0  0  0  0
  -27.8717  -14.5971   19.2162 N   0  0  0  0  0  0  0  0  0  0  0  0
  -30.1816  -19.9562   21.2203 N   0  0  0  0  0  0  0  0  0  0  0  0
  -29.8332  -23.4233   20.2580 N   0  3  0  0  0  0  0  0  0  0  0  0
  -23.8199  -33.9944   22.9888 O   0  0  0  0  0  0  0  0  0  0  0  0
  -19.7481  -20.3524   22.4852 O   0  0  0  0  0  0  0  0  0  0  0  0
  -26.0952  -15.5879   20.3497 O   0  0  0  0  0  0  0  0  0  0  0  0
  -30.0763  -17.5151   19.7241 O   0  0  0  0  0  0  0  0  0  0  0  0
  -28.5456  -21.4806   21.8343 O   0  0  0  0  0  0  0  0  0  0  0  0
  -25.9993  -24.7005   19.8667 O   0  0  0  0  0  0  0  0  0  0  0  0
  -29.7880  -32.3963   27.7232 O   0  0  0  0  0  0  0  0  0  0  0  0
  -21.9968  -19.7804   21.0112 O   0  0  0  0  0  0  0  0  0  1  0  0
  -31.6638  -37.5351   28.4146 F   0  0  0  0  0  0  0  0  0  0  0  0
  -28.0405  -34.5061   28.0942 F   0  0  0  0  0  0  0  0  0  0  0  0
  -20.4100  -26.3116   21.8722 S   0  0  0  0  0  0  0  0  0  0  0  0
  1  2  1  0  0  0  0
  1  5  2  0  0  0  0
  2  6  2  0  0  0  0
  3  8  2  0  0  0  0
  3 16  1  0  0  0  0
  4  9  1  0  0  0  0
  4 16  2  0  0  0  0
  5 18  1  0  0  0  0
  6 20  1  0  0  0  0
  7 10  2  0  0  0  0
  7 19  1  0  0  0  0
  8 23  1  0  0  0  0
  9 23  2  0  0  0  0
 10 24  1  0  0  0  0
 11 12  2  0  0  0  0
 11 25  1  0  0  0  0
 12 26  1  0  0  0  0
 13 21  1  0  0  0  0
 13 24  2  0  0  0  0
 14 22  1  0  0  0  0
 14 31  2  0  0  0  0
 15 26  2  0  0  0  0
 15 27  1  0  0  0  0
 16 28  1  0  0  0  0
 17 28  1  0  0  0  0
 17 30  2  0  0  0  0
 17 33  1  0  0  0  0
 18 20  2  0  0  0  0
 18 40  1  0  0  0  0
 19 21  2  0  0  0  0
 19 41  1  0  0  0  0
 20 51  1  0  0  0  0
 21 42  1  0  0  0  0
 22 29  2  0  0  0  0
 22 43  1  0  0  0  0
 23 83  1  0  0  0  0
 24 84  1  0  0  0  0
 25 27  2  0  0  0  0
 25 83  1  0  0  0  0
 26 85  1  0  0  0  0
 27 86  1  0  0  0  0
 28 66  2  0  0  0  0
 29 44  1  0  0  0  0
 29 87  1  0  0  0  0
 30 67  1  0  0  0  0
 30 71  1  0  0  0  0
 31 73  1  0  0  0  0
 31 87  1  0  0  0  0
 32 34  2  0  0  0  0
 32 35  1  0  0  0  0
 33 72  1  0  0  0  0
 33 77  2  0  0  0  0
 34 54  1  0  0  0  0
 34 62  1  0  0  0  0
 35 61  1  0  0  0  0
 35 78  2  0  0  0  0
 36 52  1  0  0  0  0
 36 74  1  0  0  0  0
 36 79  2  0  0  0  0
 37 63  1  0  0  0  0
 37 68  1  0  0  0  0
 37 80  2  0  0  0  0
 38 64  1  0  0  0  0
 38 75  1  0  0  0  0
 38 81  2  0  0  0  0
 39 69  1  0  0  0  0
 39 70  1  0  0  0  0
 39 82  2  0  0  0  0
 40 45  1  0  0  0  0
 41 52  1  0  0  0  0
 42 68  1  0  0  0  0
 43 69  1  0  0  0  0
 44 69  1  0  0  0  0
 45 47  1  0  0  0  0
 46 48  1  0  0  0  0
 46 49  1  0  0  0  0
 47 51  1  0  0  0  0
 48 53  1  0  0  0  0
 49 70  1  0  0  0  0
 50 53  1  0  0  0  0
 50 70  1  0  0  0  0
 51 74  1  0  0  0  0
 52 68  1  0  0  0  0
 53 67  1  0  0  0  0
 55 62  1  0  0  0  0
 56 64  1  0  0  0  0
 57 65  1  0  0  0  0
 58 65  1  0  0  0  0
 59 65  1  0  0  0  0
 60 76  1  0  0  0  0
 61 84  1  0  0  0  0
 62 73  1  0  0  0  0
 63 65  1  0  0  0  0
 63 75  1  0  0  0  0
 64 76  1  0  0  0  0
 66 67  1  0  0  0  0
M  CHG  1  76   1
M  ISO  4  39 100  61 101  69 100  84 101
M  END
> <Batch ID>
0148

> <Smiles>
CNC(C)C(=O)NC(C(=O)N1Cc2cc([101O:1][101CH2:1]C(=O)C=C(C)C(C)Nc3cc4c(s3)C[100N:0]([100C:0](=O)N3CCCC(n5nc(-c6ccc(Oc7ccc(F)cc7F)cc6)c(C(N)=O)c5N)C3)C4)ccc2CC1C(=O)NC1CCCc2ccccc21)C(C)(C)C

> <Shape>
0.234

> <Color>
0.074

> <Negative vol penalty>
0.000

$$$$

  -OEChem-04052303163D

 82 90  0     1  0  0  0  0  0999 V2000
  -24.9281  -21.4807   34.0648 C   0  0  0  0  0  0  0  0  0  0  0  0
  -25.5439  -21.6143   32.8244 C   0  0  0  0  0  0  0  0  0  0  0  0
  -23.0404   -9.9243   19.9970 C   0  0  0  0  0  0  0  0  0  0  0  0
  -23.7772   -9.9892   22.2970 C   0  0  0  0  0  0  0  0  0  0  0  0
  -23.5617  -21.2135   34.1383 C   0  0  0  0  0  0  0  0  0  0  0  0
  -24.7936  -21.4797   31.6568 C   0  0  0  0  0  0  0  0  0  0  0  0
  -25.8440  -25.0739   28.2474 C   0  0  0  0  0  0  0  0  0  0  0  0
  -22.2718   -8.7940   20.2751 C   0  0  0  0  0  0  0  0  0  0  0  0
  -23.0086   -8.8589   22.5751 C   0  0  0  0  0  0  0  0  0  0  0  0
  -27.0141  -24.9241   27.5043 C   0  0  0  0  0  0  0  0  0  0  0  0
  -19.7597   -8.1423   23.1680 C   0  0  0  0  0  0  0  0  0  0  0  0
  -18.9904   -8.1538   24.3315 C   0  0  0  0  0  0  0  0  0  0  0  0
  -31.8841  -17.5051   21.6233 C   0  0  0  0  0  0  0  0  0  0  0  0
  -31.8375  -18.7500   22.2951 C   0  0  0  0  0  0  0  0  0  0  0  0
  -25.7231  -24.0669   25.6556 C   0  0  0  0  0  0  0  0  0  0  0  0
  -20.1866   -6.2172   25.1415 C   0  0  0  0  0  0  0  0  0  0  0  0
  -23.7931  -10.5219   21.0079 C   0  0  0  0  0  0  0  0  0  0  0  0
  -24.1851  -13.0350   20.8123 C   0  0  0  0  0  0  0  0  0  0  0  0
  -22.7925  -21.0851   32.9710 C   0  0  0  0  0  0  0  0  0  0  0  0
  -24.6038  -24.7104   27.7032 C   0  0  0  0  0  0  0  0  0  0  0  0
  -23.4159  -21.2092   31.7147 C   0  0  0  0  0  0  0  0  0  0  0  0
  -24.5385  -24.2154   26.3929 C   0  0  0  0  0  0  0  0  0  0  0  0
  -22.2559   -8.2613   21.5642 C   0  0  0  0  0  0  0  0  0  0  0  0
  -26.9541  -24.4179   26.2093 C   0  0  0  0  0  0  0  0  0  0  0  0
  -20.7424   -7.1682   22.9913 C   0  0  0  0  0  0  0  0  0  0  0  0
  -19.2038   -7.1913   25.3183 C   0  0  0  0  0  0  0  0  0  0  0  0
  -20.9558   -6.2057   23.9780 C   0  0  0  0  0  0  0  0  0  0  0  0
  -24.5877  -11.6891   20.7211 C   0  0  0  0  0  0  0  0  0  0  0  0
  -25.2951  -13.7516   20.4374 C   0  0  0  0  0  0  0  0  0  0  0  0
  -30.6652  -16.9068   21.8428 C   0  0  0  0  0  0  0  0  0  0  0  0
  -30.5933  -18.8238   22.8770 C   0  0  0  0  0  0  0  0  0  0  0  0
  -22.9207  -13.5879   21.2013 C   0  0  0  0  0  0  0  0  0  0  0  0
  -22.3633  -22.5829   28.4501 C   0  0  0  0  0  0  0  0  0  0  0  0
  -29.6980  -21.8807   24.8687 C   0  0  0  0  0  0  0  0  0  0  0  0
  -20.7331  -24.0383   26.0529 C   0  0  0  0  0  0  0  0  0  0  0  0
  -20.8339  -25.8930   23.1899 C   0  0  0  0  0  0  0  0  0  0  0  0
  -30.7786  -14.6977   20.6373 C   0  0  0  0  0  0  0  0  0  0  0  0
  -21.3278  -20.7493   33.1001 C   0  0  0  0  0  0  0  0  0  0  0  0
  -23.3478  -24.9031   28.5081 C   0  0  0  0  0  0  0  0  0  0  0  0
  -23.2297  -23.8295   25.7553 C   0  0  0  0  0  0  0  0  0  0  0  0
  -20.5320  -20.9926   31.8204 C   0  0  0  0  0  0  0  0  0  0  0  0
  -29.6413  -12.2321   18.3341 C   0  0  0  0  0  0  0  0  0  0  0  0
  -21.2690  -20.4162   30.6157 C   0  0  0  0  0  0  0  0  0  0  0  0
  -28.1920  -11.9818   18.7573 C   0  0  0  0  0  0  0  0  0  0  0  0
  -30.5486  -12.4812   19.5377 C   0  0  0  0  0  0  0  0  0  0  0  0
  -28.6423  -13.2851   20.8752 C   0  0  0  0  0  0  0  0  0  0  0  0
  -22.6311  -21.0945   30.4258 C   0  0  1  0  0  0  0  0  0  0  0  0
  -22.1964  -24.0187   28.0398 C   0  0  1  0  0  0  0  0  0  0  0  0
  -27.6782  -13.0934   19.6932 C   0  0  2  0  0  0  0  0  0  0  0  0
  -19.3423  -26.8933   21.4372 C   0  0  0  0  0  0  0  0  0  0  0  0
  -20.3545  -21.2801   24.8044 C   0  0  0  0  0  0  0  0  0  0  0  0
  -19.7282  -22.4129   22.6613 C   0  0  0  0  0  0  0  0  0  0  0  0
  -18.3382  -22.7562   24.7040 C   0  0  0  0  0  0  0  0  0  0  0  0
  -21.7274  -28.6405   23.8320 C   0  0  0  0  0  0  0  0  0  0  0  0
  -30.2565  -23.2237   25.3201 C   0  0  0  0  0  0  0  0  0  0  0  0
  -30.6319  -21.0413   24.0200 C   0  0  0  0  0  0  0  0  0  0  0  0
  -29.2960  -24.0035   26.2048 C   0  0  0  0  0  0  0  0  0  1  0  0
  -20.6195  -23.8368   24.5611 C   0  0  1  0  0  0  0  0  0  0  0  0
  -20.0572  -27.1242   22.7594 C   0  0  2  0  0  0  0  0  0  0  0  0
  -19.7851  -22.5768   24.1951 C   0  0  0  0  0  0  0  0  0  0  0  0
  -25.8546  -11.5560   20.3195 N   0  0  0  0  0  0  0  0  0  0  0  0
  -26.2576  -12.8275   20.1550 N   0  0  0  0  0  0  0  0  0  0  0  0
  -22.0302  -24.0305   26.5850 N   0  0  0  0  0  0  0  0  0  0  0  0
  -30.0010  -13.5496   20.3763 N   0  0  0  0  0  0  0  0  0  0  0  0
  -25.5321  -15.0759   20.3248 N   0  0  0  0  0  0  0  0  0  0  0  0
  -21.8880  -12.7093   21.5562 N   0  0  0  0  0  0  0  0  0  0  0  0
  -30.1412  -15.6602   21.4194 N   0  0  0  0  0  0  0  0  0  0  0  0
  -29.9913  -19.8038   23.6525 N   0  0  0  0  0  0  0  0  0  0  0  0
  -22.4667  -22.3963   29.8153 N   0  0  0  0  0  0  0  0  0  0  0  0
  -20.0882  -25.0831   24.0201 N   0  0  0  0  0  0  0  0  0  0  0  0
  -20.9759  -28.2868   22.6002 N   0  3  0  0  0  0  0  0  0  0  0  0
  -22.7078  -14.8240   21.2175 O   0  0  0  0  0  0  0  0  0  0  0  0
  -22.3944  -21.7089   27.5916 O   0  0  0  0  0  0  0  0  0  0  0  0
  -28.5661  -21.5050   25.1708 O   0  0  0  0  0  0  0  0  0  0  0  0
  -19.7091  -24.2039   26.7204 O   0  0  0  0  0  0  0  0  0  0  0  0
  -21.9856  -25.6700   22.8232 O   0  0  0  0  0  0  0  0  0  0  0  0
  -31.9154  -14.8300   20.1767 O   0  0  0  0  0  0  0  0  0  0  0  0
  -29.8725  -17.7042   22.6060 O   0  0  0  0  0  0  0  0  0  0  0  0
  -21.5058   -7.1586   21.8360 O   0  0  0  0  0  0  0  0  0  0  0  0
  -28.0948  -24.2701   25.4820 O   0  0  0  0  0  0  0  0  0  1  0  0
  -18.4661   -7.2034   26.4362 F   0  0  0  0  0  0  0  0  0  0  0  0
  -21.8992   -5.2681   23.8144 F   0  0  0  0  0  0  0  0  0  0  0  0
  1  2  1  0  0  0  0
  1  5  2  0  0  0  0
  2  6  2  0  0  0  0
  3  8  2  0  0  0  0
  3 17  1  0  0  0  0
  4  9  1  0  0  0  0
  4 17  2  0  0  0  0
  5 19  1  0  0  0  0
  6 21  1  0  0  0  0
  7 10  2  0  0  0  0
  7 20  1  0  0  0  0
  8 23  1  0  0  0  0
  9 23  2  0  0  0  0
 10 24  1  0  0  0  0
 11 12  2  0  0  0  0
 11 25  1  0  0  0  0
 12 26  1  0  0  0  0
 13 14  1  0  0  0  0
 13 30  2  0  0  0  0
 14 31  2  0  0  0  0
 15 22  1  0  0  0  0
 15 24  2  0  0  0  0
 16 26  2  0  0  0  0
 16 27  1  0  0  0  0
 17 28  1  0  0  0  0
 18 28  1  0  0  0  0
 18 29  2  0  0  0  0
 18 32  1  0  0  0  0
 19 21  2  0  0  0  0
 19 38  1  0  0  0  0
 20 22  2  0  0  0  0
 20 39  1  0  0  0  0
 21 47  1  0  0  0  0
 22 40  1  0  0  0  0
 23 79  1  0  0  0  0
 24 80  1  0  0  0  0
 25 27  2  0  0  0  0
 25 79  1  0  0  0  0
 26 81  1  0  0  0  0
 27 82  1  0  0  0  0
 28 61  2  0  0  0  0
 29 62  1  0  0  0  0
 29 65  1  0  0  0  0
 30 67  1  0  0  0  0
 30 78  1  0  0  0  0
 31 68  1  0  0  0  0
 31 78  1  0  0  0  0
 32 66  1  0  0  0  0
 32 72  2  0  0  0  0
 33 48  1  0  0  0  0
 33 69  1  0  0  0  0
 33 73  2  0  0  0  0
 34 55  1  0  0  0  0
 34 56  1  0  0  0  0
 34 74  2  0  0  0  0
 35 58  1  0  0  0  0
 35 63  1  0  0  0  0
 35 75  2  0  0  0  0
 36 59  1  0  0  0  0
 36 70  1  0  0  0  0
 36 76  2  0  0  0  0
 37 64  1  0  0  0  0
 37 67  1  0  0  0  0
 37 77  2  0  0  0  0
 38 41  1  0  0  0  0
 39 48  1  0  0  0  0
 40 63  1  0  0  0  0
 41 43  1  0  0  0  0
 42 44  1  0  0  0  0
 42 45  1  0  0  0  0
 43 47  1  0  0  0  0
 44 49  1  0  0  0  0
 45 64  1  0  0  0  0
 46 49  1  0  0  0  0
 46 64  1  0  0  0  0
 47 69  1  0  0  0  0
 48 63  1  0  0  0  0
 49 62  1  0  0  0  0
 50 59  1  0  0  0  0
 51 60  1  0  0  0  0
 52 60  1  0  0  0  0
 53 60  1  0  0  0  0
 54 71  1  0  0  0  0
 55 57  1  0  0  0  0
 56 68  1  0  0  0  0
 57 80  1  0  0  0  0
 58 60  1  0  0  0  0
 58 70  1  0  0  0  0
 59 71  1  0  0  0  0
 61 62  1  0  0  0  0
M  CHG  1  71   1
M  ISO  4  37 100  57 101  67 100  80 101
M  END
> <Batch ID>
0148

> <Smiles>
CNC(C)C(=O)NC(C(=O)N1Cc2cc([101O:1][101CH2:1]CC(=O)CNc3ccc([100NH:0][100C:0](=O)N4CCCC(n5nc(-c6ccc(Oc7ccc(F)cc7F)cc6)c(C(N)=O)c5N)C4)o3)ccc2CC1C(=O)NC1CCCc2ccccc21)C(C)(C)C

> <Shape>
0.205

> <Color>
0.191

> <Negative vol penalty>
0.000

$$$$

  -OEChem-04052303163D

 84 93  0     1  0  0  0  0  0999 V2000
  -17.1561  -30.7571   23.6681 C   0  0  0  0  0  0  0  0  0  0  0  0
  -18.3600  -30.9156   24.3471 C   0  0  0  0  0  0  0  0  0  0  0  0
  -26.8301  -14.8575   22.0961 C   0  0  0  0  0  0  0  0  0  0  0  0
  -25.7373  -15.1809   19.9658 C   0  0  0  0  0  0  0  0  0  0  0  0
  -16.9671  -29.6557   22.8344 C   0  0  0  0  0  0  0  0  0  0  0  0
  -19.3752  -29.9722   24.1936 C   0  0  0  0  0  0  0  0  0  0  0  0
  -23.2523  -25.6602   28.1504 C   0  0  0  0  0  0  0  0  0  0  0  0
  -25.4081  -31.0256   24.1769 C   0  0  0  0  0  0  0  0  0  0  0  0
  -24.2935  -26.5857   28.3114 C   0  0  0  0  0  0  0  0  0  0  0  0
  -26.7414  -13.4752   21.9318 C   0  0  0  0  0  0  0  0  0  0  0  0
  -25.6487  -13.7986   19.8014 C   0  0  0  0  0  0  0  0  0  0  0  0
  -26.3848  -30.9007   25.1639 C   0  0  0  0  0  0  0  0  0  0  0  0
  -28.3751  -11.0606   20.2191 C   0  0  0  0  0  0  0  0  0  0  0  0
  -29.5065  -10.2991   20.5118 C   0  0  0  0  0  0  0  0  0  0  0  0
  -26.9486  -28.7121   24.3205 C   0  0  0  0  0  0  0  0  0  0  0  0
  -25.7502  -25.3465   26.7818 C   0  0  0  0  0  0  0  0  0  0  0  0
  -28.2615   -9.0977   22.1982 C   0  0  0  0  0  0  0  0  0  0  0  0
  -26.3279  -15.7104   21.1131 C   0  0  0  0  0  0  0  0  0  0  0  0
  -27.4706  -17.9782   20.8703 C   0  0  0  0  0  0  0  0  0  0  0  0
  -17.9841  -28.7033   22.6631 C   0  0  0  0  0  0  0  0  0  0  0  0
  -25.1865  -29.9885   23.2595 C   0  0  0  0  0  0  0  0  0  0  0  0
  -19.1992  -28.8563   23.3578 C   0  0  0  0  0  0  0  0  0  0  0  0
  -23.4900  -24.6080   27.3085 C   0  0  0  0  0  0  0  0  0  0  0  0
  -25.9702  -28.8274   23.3213 C   0  0  0  0  0  0  0  0  0  0  0  0
  -24.6942  -24.4892   26.6593 C   0  0  0  0  0  0  0  0  0  0  0  0
  -25.5288  -26.4290   27.6351 C   0  0  0  0  0  0  0  0  0  0  0  0
  -26.1508  -12.9458   20.7844 C   0  0  0  0  0  0  0  0  0  0  0  0
  -27.1533  -29.7426   25.2377 C   0  0  0  0  0  0  0  0  0  0  0  0
  -27.1869  -10.8407   20.9159 C   0  0  0  0  0  0  0  0  0  0  0  0
  -29.4497   -9.3177   21.5014 C   0  0  0  0  0  0  0  0  0  0  0  0
  -27.1301   -9.8593   21.9055 C   0  0  0  0  0  0  0  0  0  0  0  0
  -26.4187  -17.1384   21.2826 C   0  0  0  0  0  0  0  0  0  0  0  0
  -27.0793  -19.2355   21.2609 C   0  0  0  0  0  0  0  0  0  0  0  0
  -28.6921  -17.6511   20.1945 C   0  0  0  0  0  0  0  0  0  0  0  0
  -22.7268  -28.1009   22.5590 C   0  0  0  0  0  0  0  0  0  0  0  0
  -24.6722  -27.1101   20.1598 C   0  0  0  0  0  0  0  0  0  0  0  0
  -26.5155  -28.5157   28.6433 C   0  0  0  0  0  0  0  0  0  0  0  0
  -27.8493  -26.7566   18.9648 C   0  0  0  0  0  0  0  0  0  0  0  0
  -25.1236  -22.4476   25.3237 C   0  0  0  0  0  0  0  0  0  0  0  0
  -17.7161  -27.5044   21.7882 C   0  0  0  0  0  0  0  0  0  0  0  0
  -24.1473  -30.1498   22.1842 C   0  0  0  0  0  0  0  0  0  0  0  0
  -22.9955  -23.3428   26.6690 C   0  0  0  0  0  0  0  0  0  0  0  0
  -25.7855  -27.6933   22.3475 C   0  0  0  0  0  0  0  0  0  0  0  0
  -18.9799  -26.7476   21.3879 C   0  0  0  0  0  0  0  0  0  0  0  0
  -22.6657  -20.9625   22.9325 C   0  0  0  0  0  0  0  0  0  0  0  0
  -19.8786  -26.5300   22.6012 C   0  0  0  0  0  0  0  0  0  0  0  0
  -23.5013  -19.8391   22.3335 C   0  0  0  0  0  0  0  0  0  0  0  0
  -23.0567  -21.2777   24.3763 C   0  0  0  0  0  0  0  0  0  0  0  0
  -25.3474  -20.4191   23.9414 C   0  0  0  0  0  0  0  0  0  0  0  0
  -20.3335  -27.8674   23.1978 C   0  0  1  0  0  0  0  0  0  0  0  0
  -23.6571  -28.8188   21.6225 C   0  0  1  0  0  0  0  0  0  0  0  0
  -24.9944  -20.1624   22.4704 C   0  0  1  0  0  0  0  0  0  0  0  0
  -29.1250  -25.8773   16.9907 C   0  0  0  0  0  0  0  0  0  0  0  0
  -28.9881  -31.3160   27.6493 C   0  0  0  0  0  0  0  0  0  0  0  0
  -24.2289  -24.2573   21.1470 C   0  0  0  0  0  0  0  0  0  0  0  0
  -26.2140  -23.5544   19.7928 C   0  0  0  0  0  0  0  0  0  0  0  0
  -24.2101  -24.5152   18.6595 C   0  0  0  0  0  0  0  0  0  0  0  0
  -28.9700  -29.4265   18.3529 C   0  0  0  0  0  0  0  0  0  0  0  0
  -27.8376  -29.2731   28.5655 C   0  0  0  0  0  0  0  0  0  0  0  0
  -25.7180  -26.0321   20.0075 C   0  0  1  0  0  0  0  0  0  0  0  0
  -28.4622  -27.0941   17.6176 C   0  0  2  0  0  0  0  0  0  0  0  0
  -27.8733  -30.3010   27.4344 C   0  0  2  0  0  0  0  0  0  1  0  0
  -25.0952  -24.6101   19.9214 C   0  0  0  0  0  0  0  0  0  0  0  0
  -25.4333  -17.8058   21.8888 N   0  0  0  0  0  0  0  0  0  0  0  0
  -25.8644  -19.0784   21.8604 N   0  0  0  0  0  0  0  0  0  0  0  0
  -24.3310  -23.3124   26.0380 N   0  0  0  0  0  0  0  0  0  0  0  0
  -24.7525  -27.8959   21.3182 N   0  0  0  0  0  0  0  0  0  0  0  0
  -24.5023  -21.4571   24.5489 N   0  0  0  0  0  0  0  0  0  0  0  0
  -27.6595  -20.4491   21.1467 N   0  0  0  0  0  0  0  0  0  0  0  0
  -28.9359  -16.3104   19.8668 N   0  0  0  0  0  0  0  0  0  0  0  0
  -26.5402  -27.3714   27.8299 N   0  0  0  0  0  0  0  0  0  0  0  0
  -21.3968  -28.4407   22.4009 N   0  0  0  0  0  0  0  0  0  0  0  0
  -26.5215  -26.4037   18.8479 N   0  0  0  0  0  0  0  0  0  0  0  0
  -29.4894  -28.1630   17.7691 N   0  3  0  0  0  0  0  0  0  0  0  0
  -29.5496  -18.5196   19.9050 O   0  0  0  0  0  0  0  0  0  0  0  0
  -23.1819  -27.2971   23.3643 O   0  0  0  0  0  0  0  0  0  0  0  0
  -23.8199  -27.2545   19.2798 O   0  0  0  0  0  0  0  0  0  0  0  0
  -25.5830  -28.8987   29.3418 O   0  0  0  0  0  0  0  0  0  0  0  0
  -28.4859  -26.7979   20.0153 O   0  0  0  0  0  0  0  0  0  0  0  0
  -26.3584  -22.5151   25.4053 O   0  0  0  0  0  0  0  0  0  0  0  0
  -26.0643  -11.5970   20.6236 O   0  0  0  0  0  0  0  0  0  0  0  0
  -28.1122  -29.6171   26.2059 O   0  0  0  0  0  0  0  0  0  1  0  0
  -30.5358   -8.5854   21.7813 F   0  0  0  0  0  0  0  0  0  0  0  0
  -25.9912   -9.6426   22.5775 F   0  0  0  0  0  0  0  0  0  0  0  0
  1  2  1  0  0  0  0
  1  5  2  0  0  0  0
  2  6  2  0  0  0  0
  3 10  2  0  0  0  0
  3 18  1  0  0  0  0
  4 11  1  0  0  0  0
  4 18  2  0  0  0  0
  5 20  1  0  0  0  0
  6 22  1  0  0  0  0
  7  9  2  0  0  0  0
  7 23  1  0  0  0  0
  8 12  2  0  0  0  0
  8 21  1  0  0  0  0
  9 26  1  0  0  0  0
 10 27  1  0  0  0  0
 11 27  2  0  0  0  0
 12 28  1  0  0  0  0
 13 14  2  0  0  0  0
 13 29  1  0  0  0  0
 14 30  1  0  0  0  0
 15 24  1  0  0  0  0
 15 28  2  0  0  0  0
 16 25  1  0  0  0  0
 16 26  2  0  0  0  0
 17 30  2  0  0  0  0
 17 31  1  0  0  0  0
 18 32  1  0  0  0  0
 19 32  1  0  0  0  0
 19 33  2  0  0  0  0
 19 34  1  0  0  0  0
 20 22  2  0  0  0  0
 20 40  1  0  0  0  0
 21 24  2  0  0  0  0
 21 41  1  0  0  0  0
 22 50  1  0  0  0  0
 23 25  2  0  0  0  0
 23 42  1  0  0  0  0
 24 43  1  0  0  0  0
 25 66  1  0  0  0  0
 26 71  1  0  0  0  0
 27 81  1  0  0  0  0
 28 82  1  0  0  0  0
 29 31  2  0  0  0  0
 29 81  1  0  0  0  0
 30 83  1  0  0  0  0
 31 84  1  0  0  0  0
 32 64  2  0  0  0  0
 33 65  1  0  0  0  0
 33 69  1  0  0  0  0
 34 70  1  0  0  0  0
 34 75  2  0  0  0  0
 35 51  1  0  0  0  0
 35 72  1  0  0  0  0
 35 76  2  0  0  0  0
 36 60  1  0  0  0  0
 36 67  1  0  0  0  0
 36 77  2  0  0  0  0
 37 59  1  0  0  0  0
 37 71  1  0  0  0  0
 37 78  2  0  0  0  0
 38 61  1  0  0  0  0
 38 73  1  0  0  0  0
 38 79  2  0  0  0  0
 39 66  1  0  0  0  0
 39 68  1  0  0  0  0
 39 80  2  0  0  0  0
 40 44  1  0  0  0  0
 41 51  1  0  0  0  0
 42 66  1  0  0  0  0
 43 67  1  0  0  0  0
 44 46  1  0  0  0  0
 45 47  1  0  0  0  0
 45 48  1  0  0  0  0
 46 50  1  0  0  0  0
 47 52  1  0  0  0  0
 48 68  1  0  0  0  0
 49 52  1  0  0  0  0
 49 68  1  0  0  0  0
 50 72  1  0  0  0  0
 51 67  1  0  0  0  0
 52 65  1  0  0  0  0
 53 61  1  0  0  0  0
 54 62  1  0  0  0  0
 55 63  1  0  0  0  0
 56 63  1  0  0  0  0
 57 63  1  0  0  0  0
 58 74  1  0  0  0  0
 59 62  1  0  0  0  0
 60 63  1  0  0  0  0
 60 73  1  0  0  0  0
 61 74  1  0  0  0  0
 62 82  1  0  0  0  0
 64 65  1  0  0  0  0
M  CHG  1  74   1
M  ISO  4  39 100  62 101  66 100  82 101
M  END
> <Batch ID>
0148

> <Smiles>
CNC(C)C(=O)NC(C(=O)N1Cc2cc([101O:1][101CH:1](C)CC(=O)Nc3ccc4c(c3)[100N:0]([100C:0](=O)N3CCCC(n5nc(-c6ccc(Oc7ccc(F)cc7F)cc6)c(C(N)=O)c5N)C3)C4)ccc2CC1C(=O)NC1CCCc2ccccc21)C(C)(C)C

> <Shape>
0.206

> <Color>
0.087

> <Negative vol penalty>
0.000

$$$$

  -OEChem-04052303163D

 83 92  0     1  0  0  0  0  0999 V2000
  -27.7215  -23.6345   18.0789 C   0  0  0  0  0  0  0  0  0  0  0  0
  -26.5529  -23.9962   18.7414 C   0  0  0  0  0  0  0  0  0  0  0  0
  -26.5831  -13.1231   19.6567 C   0  0  0  0  0  0  0  0  0  0  0  0
  -24.5355  -13.6829   20.8103 C   0  0  0  0  0  0  0  0  0  0  0  0
  -28.9448  -24.1662   18.4849 C   0  0  0  0  0  0  0  0  0  0  0  0
  -26.6071  -24.8892   19.8111 C   0  0  0  0  0  0  0  0  0  0  0  0
  -22.2051  -22.2718   23.8237 C   0  0  0  0  0  0  0  0  0  0  0  0
  -23.7572  -24.0692   23.3794 C   0  0  0  0  0  0  0  0  0  0  0  0
  -22.9857  -28.4214   19.5783 C   0  0  0  0  0  0  0  0  0  0  0  0
  -23.2224  -21.3411   23.6129 C   0  0  0  0  0  0  0  0  0  0  0  0
  -24.7746  -23.1385   23.1686 C   0  0  0  0  0  0  0  0  0  0  0  0
  -26.4842  -11.8105   20.1180 C   0  0  0  0  0  0  0  0  0  0  0  0
  -24.4365  -12.3703   21.2716 C   0  0  0  0  0  0  0  0  0  0  0  0
  -21.7016  -28.0434   19.9683 C   0  0  0  0  0  0  0  0  0  0  0  0
  -23.4584   -9.3722   20.0570 C   0  0  0  0  0  0  0  0  0  0  0  0
  -22.2124   -8.7506   19.9758 C   0  0  0  0  0  0  0  0  0  0  0  0
  -22.0568  -29.0774   22.1186 C   0  0  0  0  0  0  0  0  0  0  0  0
  -22.2036   -8.4551   22.3737 C   0  0  0  0  0  0  0  0  0  0  0  0
  -25.6088  -14.0594   20.0029 C   0  0  0  0  0  0  0  0  0  0  0  0
  -25.1810  -15.9397   18.3328 C   0  0  0  0  0  0  0  0  0  0  0  0
  -22.4724  -23.6359   23.7069 C   0  0  0  0  0  0  0  0  0  0  0  0
  -29.0128  -25.0736   19.5538 C   0  0  0  0  0  0  0  0  0  0  0  0
  -23.8204  -29.1219   20.4610 C   0  0  0  0  0  0  0  0  0  0  0  0
  -27.8326  -25.4325   20.2326 C   0  0  0  0  0  0  0  0  0  0  0  0
  -23.3501  -29.4654   21.7365 C   0  0  0  0  0  0  0  0  0  0  0  0
  -24.5072  -21.7745   23.2854 C   0  0  0  0  0  0  0  0  0  0  0  0
  -25.4109  -11.4341   20.9254 C   0  0  0  0  0  0  0  0  0  0  0  0
  -21.2380  -28.3689   21.2396 C   0  0  0  0  0  0  0  0  0  0  0  0
  -24.0771   -9.5352   21.2965 C   0  0  0  0  0  0  0  0  0  0  0  0
  -21.5850   -8.2921   21.1342 C   0  0  0  0  0  0  0  0  0  0  0  0
  -23.4497   -9.0767   22.4548 C   0  0  0  0  0  0  0  0  0  0  0  0
  -25.7108  -15.4156   19.5272 C   0  0  0  0  0  0  0  0  0  0  0  0
  -25.5489  -17.2629   18.3455 C   0  0  0  0  0  0  0  0  0  0  0  0
  -24.4239  -15.2886   17.3040 C   0  0  0  0  0  0  0  0  0  0  0  0
  -26.6315  -28.5421   21.8266 C   0  0  0  0  0  0  0  0  0  0  0  0
  -26.3165  -31.5977   22.8687 C   0  0  0  0  0  0  0  0  0  0  0  0
  -24.2448  -34.2038   23.6192 C   0  0  0  0  0  0  0  0  0  0  0  0
  -26.8696  -21.0908   22.7396 C   0  0  0  0  0  0  0  0  0  0  0  0
  -30.3638  -25.5854   19.9868 C   0  0  0  0  0  0  0  0  0  0  0  0
  -25.1931  -29.5457   20.0156 C   0  0  0  0  0  0  0  0  0  0  0  0
  -24.1994  -30.2341   22.7144 C   0  0  0  0  0  0  0  0  0  0  0  0
  -30.2891  -26.8144   20.8891 C   0  0  0  0  0  0  0  0  0  0  0  0
  -28.9611  -20.1853   20.0041 C   0  0  0  0  0  0  0  0  0  0  0  0
  -29.2449  -26.6113   21.9824 C   0  0  0  0  0  0  0  0  0  0  0  0
  -28.3132  -18.9104   19.4589 C   0  0  0  0  0  0  0  0  0  0  0  0
  -21.4726  -26.1535   23.4793 C   0  0  0  0  0  0  0  0  0  0  0  0
  -28.8732  -20.2593   21.5275 C   0  0  0  0  0  0  0  0  0  0  0  0
  -26.8750  -18.8182   21.5350 C   0  0  0  0  0  0  0  0  0  0  0  0
  -27.8475  -26.4174   21.3814 C   0  0  1  0  0  0  0  0  0  0  0  0
  -21.3221  -24.6881   23.9452 C   0  0  1  0  0  0  0  0  0  0  0  0
  -26.1445  -29.8074   21.1791 C   0  0  1  0  0  0  0  0  0  0  0  0
  -26.8814  -18.7301   20.0001 C   0  0  2  0  0  0  0  0  0  0  0  0
  -20.0211  -26.0226   22.9849 C   0  0  1  0  0  0  0  0  0  0  0  0
  -24.2761  -36.5589   24.4851 C   0  0  0  0  0  0  0  0  0  0  0  0
  -18.2122  -26.4283   21.3177 C   0  0  0  0  0  0  0  0  0  0  0  0
  -26.7843  -30.5495   25.6958 C   0  0  0  0  0  0  0  0  0  0  0  0
  -25.8768  -32.7118   26.5728 C   0  0  0  0  0  0  0  0  0  0  0  0
  -27.9440  -32.7036   25.1767 C   0  0  0  0  0  0  0  0  0  0  0  0
  -23.0539  -35.2602   21.1242 C   0  0  0  0  0  0  0  0  0  0  0  0
  -25.7086  -32.2555   24.0839 C   0  0  1  0  0  0  0  0  0  0  0  0
  -24.3014  -35.6747   23.2481 C   0  0  2  0  0  0  0  0  0  0  0  0
  -19.6916  -26.6042   21.6274 C   0  0  1  0  0  0  0  0  0  1  0  0
  -26.5629  -32.0389   25.3648 C   0  0  0  0  0  0  0  0  0  0  0  0
  -26.3656  -16.3312   20.2462 N   0  0  0  0  0  0  0  0  0  0  0  0
  -26.2497  -17.4439   19.5015 N   0  0  0  0  0  0  0  0  0  0  0  0
  -25.5365  -30.6205   22.2344 N   0  0  0  0  0  0  0  0  0  0  0  0
  -27.4872  -20.0845   21.9671 N   0  0  0  0  0  0  0  0  0  0  0  0
  -25.3381  -18.2776   17.4805 N   0  0  0  0  0  0  0  0  0  0  0  0
  -24.1338  -13.9251   17.4492 N   0  0  0  0  0  0  0  0  0  0  0  0
  -25.5406  -20.8290   23.0712 N   0  0  0  0  0  0  0  0  0  0  0  0
  -27.2953  -27.6889   20.9658 N   0  0  0  0  0  0  0  0  0  0  0  0
  -25.5054  -33.6565   23.7310 N   0  0  0  0  0  0  0  0  0  0  0  0
  -20.2331  -24.5604   22.9397 N   0  3  0  0  0  0  0  0  0  0  0  0
  -23.1397  -36.0369   22.3876 N   0  3  0  0  0  0  0  0  0  0  0  0
  -24.0307  -15.8940   16.2781 O   0  0  0  0  0  0  0  0  0  0  0  0
  -26.4219  -28.3543   23.0193 O   0  0  0  0  0  0  0  0  0  0  0  0
  -27.4390  -31.9435   22.4919 O   0  0  0  0  0  0  0  0  0  0  0  0
  -23.1881  -33.6016   23.7961 O   0  0  0  0  0  0  0  0  0  0  0  0
  -27.4666  -22.1222   23.0587 O   0  0  0  0  0  0  0  0  0  0  0  0
  -25.3138  -10.1532   21.3755 O   0  0  0  0  0  0  0  0  0  0  0  0
  -19.9853  -28.0006   21.6230 O   0  0  0  0  0  0  0  0  0  1  0  0
  -20.3877   -7.6966   21.0562 F   0  0  0  0  0  0  0  0  0  0  0  0
  -24.0386   -9.2315   23.6486 F   0  0  0  0  0  0  0  0  0  0  0  0
  1  2  1  0  0  0  0
  1  5  2  0  0  0  0
  2  6  2  0  0  0  0
  3 12  2  0  0  0  0
  3 19  1  0  0  0  0
  4 13  1  0  0  0  0
  4 19  2  0  0  0  0
  5 22  1  0  0  0  0
  6 24  1  0  0  0  0
  7 10  2  0  0  0  0
  7 21  1  0  0  0  0
  8 11  1  0  0  0  0
  8 21  2  0  0  0  0
  9 14  2  0  0  0  0
  9 23  1  0  0  0  0
 10 26  1  0  0  0  0
 11 26  2  0  0  0  0
 12 27  1  0  0  0  0
 13 27  2  0  0  0  0
 14 28  1  0  0  0  0
 15 16  2  0  0  0  0
 15 29  1  0  0  0  0
 16 30  1  0  0  0  0
 17 25  1  0  0  0  0
 17 28  2  0  0  0  0
 18 30  2  0  0  0  0
 18 31  1  0  0  0  0
 19 32  1  0  0  0  0
 20 32  1  0  0  0  0
 20 33  2  0  0  0  0
 20 34  1  0  0  0  0
 21 50  1  0  0  0  0
 22 24  2  0  0  0  0
 22 39  1  0  0  0  0
 23 25  2  0  0  0  0
 23 40  1  0  0  0  0
 24 49  1  0  0  0  0
 25 41  1  0  0  0  0
 26 70  1  0  0  0  0
 27 80  1  0  0  0  0
 28 81  1  0  0  0  0
 29 31  2  0  0  0  0
 29 80  1  0  0  0  0
 30 82  1  0  0  0  0
 31 83  1  0  0  0  0
 32 64  2  0  0  0  0
 33 65  1  0  0  0  0
 33 68  1  0  0  0  0
 34 69  1  0  0  0  0
 34 75  2  0  0  0  0
 35 51  1  0  0  0  0
 35 71  1  0  0  0  0
 35 76  2  0  0  0  0
 36 60  1  0  0  0  0
 36 66  1  0  0  0  0
 36 77  2  0  0  0  0
 37 61  1  0  0  0  0
 37 72  1  0  0  0  0
 37 78  2  0  0  0  0
 38 67  1  0  0  0  0
 38 70  1  0  0  0  0
 38 79  2  0  0  0  0
 39 42  1  0  0  0  0
 40 51  1  0  0  0  0
 41 66  1  0  0  0  0
 42 44  1  0  0  0  0
 43 45  1  0  0  0  0
 43 47  1  0  0  0  0
 44 49  1  0  0  0  0
 45 52  1  0  0  0  0
 46 50  1  0  0  0  0
 46 53  1  0  0  0  0
 47 67  1  0  0  0  0
 48 52  1  0  0  0  0
 48 67  1  0  0  0  0
 49 71  1  0  0  0  0
 50 73  1  0  0  0  0
 51 66  1  0  0  0  0
 52 65  1  0  0  0  0
 53 62  1  0  0  0  0
 53 73  1  0  0  0  0
 54 61  1  0  0  0  0
 55 62  1  0  0  0  0
 56 63  1  0  0  0  0
 57 63  1  0  0  0  0
 58 63  1  0  0  0  0
 59 74  1  0  0  0  0
 60 63  1  0  0  0  0
 60 72  1  0  0  0  0
 61 74  1  0  0  0  0
 62 81  1  0  0  0  0
 64 65  1  0  0  0  0
M  CHG  2  73   1  74   1
M  ISO  4  38 100  62 101  70 100  81 101
M  END
> <Batch ID>
0148

> <Smiles>
CNC(C)C(=O)NC(C(=O)N1Cc2cc([101O:1][101CH:1](C)C3CC(c4ccc([100NH:0][100C:0](=O)N5CCCC(n6nc(-c7ccc(Oc8ccc(F)cc8F)cc7)c(C(N)=O)c6N)C5)cc4)N3)ccc2CC1C(=O)NC1CCCc2ccccc21)C(C)(C)C

> <Shape>
0.308

> <Color>
0.077

> <Negative vol penalty>
0.000

$$$$

  -OEChem-04052303163D

 84 93  0     1  0  0  0  0  0999 V2000
  -27.1320  -33.4144   26.6731 C   0  0  0  0  0  0  0  0  0  0  0  0
  -27.4933  -32.3332   25.8758 C   0  0  0  0  0  0  0  0  0  0  0  0
  -23.5810  -14.4375   21.6859 C   0  0  0  0  0  0  0  0  0  0  0  0
  -25.6715  -14.4431   22.8970 C   0  0  0  0  0  0  0  0  0  0  0  0
  -25.8019  -33.5833   27.0557 C   0  0  0  0  0  0  0  0  0  0  0  0
  -26.5248  -31.4195   25.4614 C   0  0  0  0  0  0  0  0  0  0  0  0
  -26.9526  -30.2246   20.5589 C   0  0  0  0  0  0  0  0  0  0  0  0
  -23.8864  -13.1804   21.1645 C   0  0  0  0  0  0  0  0  0  0  0  0
  -25.9769  -13.1859   22.3756 C   0  0  0  0  0  0  0  0  0  0  0  0
  -27.9498  -29.3149   20.2099 C   0  0  0  0  0  0  0  0  0  0  0  0
  -23.9511   -9.8119   19.7990 C   0  0  0  0  0  0  0  0  0  0  0  0
  -22.9433   -8.8476   19.7989 C   0  0  0  0  0  0  0  0  0  0  0  0
  -31.9608  -22.4965   23.1161 C   0  0  0  0  0  0  0  0  0  0  0  0
  -29.7936  -22.9418   22.1458 C   0  0  0  0  0  0  0  0  0  0  0  0
  -26.3026  -27.5551   20.1145 C   0  0  0  0  0  0  0  0  0  0  0  0
  -30.0284  -21.2462   23.8507 C   0  0  0  0  0  0  0  0  0  0  0  0
  -22.7979   -8.9993   22.2057 C   0  0  0  0  0  0  0  0  0  0  0  0
  -24.4736  -15.0689   22.5521 C   0  0  0  0  0  0  0  0  0  0  0  0
  -23.4671  -16.6484   24.2840 C   0  0  0  0  0  0  0  0  0  0  0  0
  -24.8151  -32.6766   26.6378 C   0  0  0  0  0  0  0  0  0  0  0  0
  -25.6224  -29.8035   20.6992 C   0  0  0  0  0  0  0  0  0  0  0  0
  -25.1805  -31.5757   25.8398 C   0  0  0  0  0  0  0  0  0  0  0  0
  -31.1601  -23.2101   22.2243 C   0  0  0  0  0  0  0  0  0  0  0  0
  -25.2900  -28.4620   20.4628 C   0  0  0  0  0  0  0  0  0  0  0  0
  -31.3950  -21.5145   23.9292 C   0  0  0  0  0  0  0  0  0  0  0  0
  -29.2277  -21.9599   22.9590 C   0  0  0  0  0  0  0  0  0  0  0  0
  -25.0844  -12.5545   21.5093 C   0  0  0  0  0  0  0  0  0  0  0  0
  -27.6254  -27.9793   19.9905 C   0  0  0  0  0  0  0  0  0  0  0  0
  -24.3824  -10.3699   21.0025 C   0  0  0  0  0  0  0  0  0  0  0  0
  -22.3667   -8.4413   21.0022 C   0  0  0  0  0  0  0  0  0  0  0  0
  -23.8058   -9.9636   22.2059 C   0  0  0  0  0  0  0  0  0  0  0  0
  -24.1590  -16.3678   23.0906 C   0  0  0  0  0  0  0  0  0  0  0  0
  -23.4293  -18.0201   24.3446 C   0  0  0  0  0  0  0  0  0  0  0  0
  -31.1082  -25.5975   21.5351 C   0  0  0  0  0  0  0  0  0  0  0  0
  -30.6209  -26.0584   20.3765 C   0  0  0  0  0  0  0  0  0  0  0  0
  -22.9085  -15.7496   25.2514 C   0  0  0  0  0  0  0  0  0  0  0  0
  -23.5317  -29.7354   23.0925 C   0  0  0  0  0  0  0  0  0  0  0  0
  -21.4895  -28.7678   20.7653 C   0  0  0  0  0  0  0  0  0  0  0  0
  -21.0600  -27.3052   17.7120 C   0  0  0  0  0  0  0  0  0  0  0  0
  -26.9042  -22.3049   22.0487 C   0  0  0  0  0  0  0  0  0  0  0  0
  -23.3983  -32.8744   27.1157 C   0  0  0  0  0  0  0  0  0  0  0  0
  -24.5542  -30.8026   21.0500 C   0  0  0  0  0  0  0  0  0  0  0  0
  -23.8737  -27.9633   20.5807 C   0  0  0  0  0  0  0  0  0  0  0  0
  -30.8817  -25.0980   19.2628 C   0  0  0  0  0  0  0  0  0  0  0  0
  -22.3705  -32.0697   26.3243 C   0  0  0  0  0  0  0  0  0  0  0  0
  -23.4059  -21.8936   21.5287 C   0  0  0  0  0  0  0  0  0  0  0  0
  -22.8436  -30.6309   26.1432 C   0  0  0  0  0  0  0  0  0  0  0  0
  -23.1380  -20.4575   21.9845 C   0  0  0  0  0  0  0  0  0  0  0  0
  -24.7576  -22.0237   20.8288 C   0  0  0  0  0  0  0  0  0  0  0  0
  -25.6344  -20.0681   22.0438 C   0  0  0  0  0  0  0  0  0  0  0  0
  -31.7646  -24.2588   21.3559 C   0  0  2  0  0  0  0  0  0  0  0  0
  -24.1547  -30.5770   25.3496 C   0  0  1  0  0  0  0  0  0  0  0  0
  -23.3156  -30.1609   21.6677 C   0  0  1  0  0  0  0  0  0  0  0  0
  -24.3131  -19.9003   22.8117 C   0  0  2  0  0  0  0  0  0  0  0  0
  -19.2720  -26.6185   16.0907 C   0  0  0  0  0  0  0  0  0  0  0  0
  -20.8174  -26.3685   22.5265 C   0  0  0  0  0  0  0  0  0  0  0  0
  -19.8029  -25.2679   20.5196 C   0  0  0  0  0  0  0  0  0  0  0  0
  -18.8506  -27.4061   21.3820 C   0  0  0  0  0  0  0  0  0  0  0  0
  -22.1170  -29.0982   15.6080 C   0  0  0  0  0  0  0  0  0  0  0  0
  -29.9115  -27.3424   20.1442 C   0  0  0  0  0  0  0  0  0  1  0  0
  -21.0797  -27.4339   20.1894 C   0  0  1  0  0  0  0  0  0  0  0  0
  -20.2382  -27.7177   16.5041 C   0  0  2  0  0  0  0  0  0  0  0  0
  -20.1648  -26.6278   21.1539 C   0  0  0  0  0  0  0  0  0  0  0  0
  -24.5336  -17.4724   22.4398 N   0  0  0  0  0  0  0  0  0  0  0  0
  -24.0754  -18.4605   23.2271 N   0  0  0  0  0  0  0  0  0  0  0  0
  -22.8658  -28.9773   20.9322 N   0  0  0  0  0  0  0  0  0  0  0  0
  -25.8232  -21.4794   21.6732 N   0  0  0  0  0  0  0  0  0  0  0  0
  -32.2051  -20.7928   24.8309 N   0  0  0  0  0  0  0  0  0  0  0  0
  -22.9067  -18.8804   25.2442 N   0  0  0  0  0  0  0  0  0  0  0  0
  -23.0368  -14.3709   25.0347 N   0  0  0  0  0  0  0  0  0  0  0  0
  -27.8393  -21.6880   22.8791 N   0  0  0  0  0  0  0  0  0  0  0  0
  -23.8989  -30.7651   23.9376 N   0  0  0  0  0  0  0  0  0  0  0  0
  -20.4769  -27.7175   18.8914 N   0  0  0  0  0  0  0  0  0  0  0  0
  -31.6241  -23.9374   19.8754 N   0  3  0  0  0  0  0  0  0  0  0  0
  -21.1303  -28.0183   15.3488 N   0  3  0  0  0  0  0  0  0  0  0  0
  -22.2989  -16.1570   26.2692 O   0  0  0  0  0  0  0  0  0  0  0  0
  -23.3754  -28.5602   23.4024 O   0  0  0  0  0  0  0  0  0  0  0  0
  -20.6209  -29.5962   21.0498 O   0  0  0  0  0  0  0  0  0  0  0  0
  -22.1120  -26.6765   17.6187 O   0  0  0  0  0  0  0  0  0  0  0  0
  -26.9796  -23.4811   21.6844 O   0  0  0  0  0  0  0  0  0  0  0  0
  -25.3826  -11.3277   21.0009 O   0  0  0  0  0  0  0  0  0  0  0  0
  -28.5968  -27.0892   19.6504 O   0  0  0  0  0  0  0  0  0  1  0  0
  -21.3978   -7.5164   21.0018 F   0  0  0  0  0  0  0  0  0  0  0  0
  -24.2151  -10.4968   23.3651 F   0  0  0  0  0  0  0  0  0  0  0  0
  1  2  1  0  0  0  0
  1  5  2  0  0  0  0
  2  6  2  0  0  0  0
  3  8  2  0  0  0  0
  3 18  1  0  0  0  0
  4  9  1  0  0  0  0
  4 18  2  0  0  0  0
  5 20  1  0  0  0  0
  6 22  1  0  0  0  0
  7 10  2  0  0  0  0
  7 21  1  0  0  0  0
  8 27  1  0  0  0  0
  9 27  2  0  0  0  0
 10 28  1  0  0  0  0
 11 12  2  0  0  0  0
 11 29  1  0  0  0  0
 12 30  1  0  0  0  0
 13 23  1  0  0  0  0
 13 25  2  0  0  0  0
 14 23  2  0  0  0  0
 14 26  1  0  0  0  0
 15 24  1  0  0  0  0
 15 28  2  0  0  0  0
 16 25  1  0  0  0  0
 16 26  2  0  0  0  0
 17 30  2  0  0  0  0
 17 31  1  0  0  0  0
 18 32  1  0  0  0  0
 19 32  1  0  0  0  0
 19 33  2  0  0  0  0
 19 36  1  0  0  0  0
 20 22  2  0  0  0  0
 20 41  1  0  0  0  0
 21 24  2  0  0  0  0
 21 42  1  0  0  0  0
 22 52  1  0  0  0  0
 23 51  1  0  0  0  0
 24 43  1  0  0  0  0
 25 68  1  0  0  0  0
 26 71  1  0  0  0  0
 27 81  1  0  0  0  0
 28 82  1  0  0  0  0
 29 31  2  0  0  0  0
 29 81  1  0  0  0  0
 30 83  1  0  0  0  0
 31 84  1  0  0  0  0
 32 64  2  0  0  0  0
 33 65  1  0  0  0  0
 33 69  1  0  0  0  0
 34 35  2  0  0  0  0
 34 51  1  0  0  0  0
 35 44  1  0  0  0  0
 35 60  1  0  0  0  0
 36 70  1  0  0  0  0
 36 76  2  0  0  0  0
 37 53  1  0  0  0  0
 37 72  1  0  0  0  0
 37 77  2  0  0  0  0
 38 61  1  0  0  0  0
 38 66  1  0  0  0  0
 38 78  2  0  0  0  0
 39 62  1  0  0  0  0
 39 73  1  0  0  0  0
 39 79  2  0  0  0  0
 40 67  1  0  0  0  0
 40 71  1  0  0  0  0
 40 80  2  0  0  0  0
 41 45  1  0  0  0  0
 42 53  1  0  0  0  0
 43 66  1  0  0  0  0
 44 74  1  0  0  0  0
 45 47  1  0  0  0  0
 46 48  1  0  0  0  0
 46 49  1  0  0  0  0
 47 52  1  0  0  0  0
 48 54  1  0  0  0  0
 49 67  1  0  0  0  0
 50 54  1  0  0  0  0
 50 67  1  0  0  0  0
 51 74  1  0  0  0  0
 52 72  1  0  0  0  0
 53 66  1  0  0  0  0
 54 65  1  0  0  0  0
 55 62  1  0  0  0  0
 56 63  1  0  0  0  0
 57 63  1  0  0  0  0
 58 63  1  0  0  0  0
 59 75  1  0  0  0  0
 60 82  1  0  0  0  0
 61 63  1  0  0  0  0
 61 73  1  0  0  0  0
 62 75  1  0  0  0  0
 64 65  1  0  0  0  0
M  CHG  2  74   1  75   1
M  ISO  4  40 100  60 101  71 100  82 101
M  END
> <Batch ID>
0148

> <Smiles>
CNC(C)C(=O)NC(C(=O)N1Cc2cc([101O:1][101CH2:1]C3=CC(c4cc(N)cc([100NH:0][100C:0](=O)N5CCCC(n6nc(-c7ccc(Oc8ccc(F)cc8F)cc7)c(C(N)=O)c6N)C5)c4)NC3)ccc2CC1C(=O)NC1CCCc2ccccc21)C(C)(C)C

> <Shape>
0.219

> <Color>
0.074

> <Negative vol penalty>
0.000

$$$$

  -OEChem-04052303163D

 84 93  0     1  0  0  0  0  0999 V2000
  -27.7708  -35.1448   15.2504 C   0  0  0  0  0  0  0  0  0  0  0  0
  -27.4415  -33.7965   15.3460 C   0  0  0  0  0  0  0  0  0  0  0  0
  -24.6445   -8.7304   21.8518 C   0  0  0  0  0  0  0  0  0  0  0  0
  -23.0707   -9.8160   20.3749 C   0  0  0  0  0  0  0  0  0  0  0  0
  -28.2065  -35.8365   16.3799 C   0  0  0  0  0  0  0  0  0  0  0  0
  -27.5489  -33.1389   16.5709 C   0  0  0  0  0  0  0  0  0  0  0  0
  -23.9315  -28.6693   18.6790 C   0  0  0  0  0  0  0  0  0  0  0  0
  -23.5931   -8.0684   22.4857 C   0  0  0  0  0  0  0  0  0  0  0  0
  -22.0192   -9.1540   21.0087 C   0  0  0  0  0  0  0  0  0  0  0  0
  -24.0718  -27.2825   18.7042 C   0  0  0  0  0  0  0  0  0  0  0  0
  -21.6162   -5.3905   21.8910 C   0  0  0  0  0  0  0  0  0  0  0  0
  -21.7706   -4.0290   22.1517 C   0  0  0  0  0  0  0  0  0  0  0  0
  -24.9162  -27.4148   20.9600 C   0  0  0  0  0  0  0  0  0  0  0  0
  -25.2413  -19.0336   19.3891 C   0  0  0  0  0  0  0  0  0  0  0  0
  -21.5089   -4.4520   24.5160 C   0  0  0  0  0  0  0  0  0  0  0  0
  -24.1007  -17.5845   17.9744 C   0  0  0  0  0  0  0  0  0  0  0  0
  -24.3833   -9.6042   20.7964 C   0  0  0  0  0  0  0  0  0  0  0  0
  -26.2065   -9.8436   19.0282 C   0  0  0  0  0  0  0  0  0  0  0  0
  -28.3099  -35.1894   17.6213 C   0  0  0  0  0  0  0  0  0  0  0  0
  -24.2934  -29.4416   19.7921 C   0  0  0  0  0  0  0  0  0  0  0  0
  -27.9876  -33.8222   17.7177 C   0  0  0  0  0  0  0  0  0  0  0  0
  -24.7772  -28.8111   20.9473 C   0  0  0  0  0  0  0  0  0  0  0  0
  -25.1589  -17.7189   18.8460 C   0  0  0  0  0  0  0  0  0  0  0  0
  -22.2804   -8.2801   22.0641 C   0  0  0  0  0  0  0  0  0  0  0  0
  -24.5669  -26.6552   19.8437 C   0  0  0  0  0  0  0  0  0  0  0  0
  -21.4081   -6.2828   22.9428 C   0  0  0  0  0  0  0  0  0  0  0  0
  -21.7170   -3.5597   23.4642 C   0  0  0  0  0  0  0  0  0  0  0  0
  -21.3544   -5.8135   24.2552 C   0  0  0  0  0  0  0  0  0  0  0  0
  -25.4690  -10.2888   20.1417 C   0  0  0  0  0  0  0  0  0  0  0  0
  -27.1156  -10.8464   18.7952 C   0  0  0  0  0  0  0  0  0  0  0  0
  -24.2429  -19.8541   18.9116 C   0  0  0  0  0  0  0  0  0  0  0  0
  -26.0809   -8.6319   18.2721 C   0  0  0  0  0  0  0  0  0  0  0  0
  -26.4331  -31.7286   20.3356 C   0  0  0  0  0  0  0  0  0  0  0  0
  -24.9611  -31.8802   23.2222 C   0  0  0  0  0  0  0  0  0  0  0  0
  -23.0813  -30.3144   25.6015 C   0  0  0  0  0  0  0  0  0  0  0  0
  -27.1428  -16.6960   20.0141 C   0  0  0  0  0  0  0  0  0  0  0  0
  -28.8307  -35.9670   18.8041 C   0  0  0  0  0  0  0  0  0  0  0  0
  -24.1110  -30.9343   19.7587 C   0  0  0  0  0  0  0  0  0  0  0  0
  -25.1609  -29.5931   22.1760 C   0  0  0  0  0  0  0  0  0  0  0  0
  -28.5590  -35.2904   20.1452 C   0  0  0  0  0  0  0  0  0  0  0  0
  -29.5524  -14.2921   21.0589 C   0  0  0  0  0  0  0  0  0  0  0  0
  -28.9200  -33.8098   20.0791 C   0  0  0  0  0  0  0  0  0  0  0  0
  -28.8481  -12.9519   20.8352 C   0  0  0  0  0  0  0  0  0  0  0  0
  -28.5827  -15.3684   21.5435 C   0  0  0  0  0  0  0  0  0  0  0  0
  -26.6840  -14.2094   20.4848 C   0  0  0  0  0  0  0  0  0  0  0  0
  -23.0229  -22.1036   18.7814 C   0  0  0  0  0  0  0  0  0  0  0  0
  -28.0673  -33.0801   19.0342 C   0  0  1  0  0  0  0  0  0  0  0  0
  -24.9942  -31.6669   20.7639 C   0  0  1  0  0  0  0  0  0  0  0  0
  -27.6077  -13.1106   19.9341 C   0  0  2  0  0  0  0  0  0  0  0  0
  -23.5837  -23.1747   19.7403 C   0  0  2  0  0  0  0  0  0  0  0  0
  -24.8494  -22.2279   19.8623 C   0  0  0  0  0  0  0  0  0  0  0  0
  -22.7010  -23.3344   20.9876 C   0  0  0  0  0  0  0  0  0  0  0  0
  -26.0605  -22.5821   18.9946 C   0  0  0  0  0  0  0  0  0  0  0  0
  -25.2645  -21.8881   21.2935 C   0  0  0  0  0  0  0  0  0  0  0  0
  -22.0697  -30.6805   27.8687 C   0  0  0  0  0  0  0  0  0  0  0  0
  -27.7093  -31.5340   24.5017 C   0  0  0  0  0  0  0  0  0  0  0  0
  -26.5596  -30.9591   26.6502 C   0  0  0  0  0  0  0  0  0  0  0  0
  -26.2375  -33.2123   25.6293 C   0  0  0  0  0  0  0  0  0  0  0  0
  -20.3372  -29.9050   24.5712 C   0  0  0  0  0  0  0  0  0  0  0  0
  -23.7930  -24.5396   19.0814 C   0  0  0  0  0  0  0  0  0  1  0  0
  -25.1499  -31.1983   24.5557 C   0  0  1  0  0  0  0  0  0  0  0  0
  -21.8484  -30.7612   26.3663 C   0  0  2  0  0  0  0  0  0  0  0  0
  -26.4088  -31.7111   25.3105 C   0  0  0  0  0  0  0  0  0  0  0  0
  -25.8747  -11.4816   20.5853 N   0  0  0  0  0  0  0  0  0  0  0  0
  -26.8770  -11.7943   19.7464 N   0  0  0  0  0  0  0  0  0  0  0  0
  -24.0394  -21.2078   19.2458 N   0  0  3  0  0  0  0  0  0  0  0  0
  -24.9702  -31.0505   22.0920 N   0  0  0  0  0  0  0  0  0  0  0  0
  -27.4350  -15.4652   20.6388 N   0  0  0  0  0  0  0  0  0  0  0  0
  -28.0879  -11.0010   17.8716 N   0  0  0  0  0  0  0  0  0  0  0  0
  -25.0942   -7.7097   18.6469 N   0  0  0  0  0  0  0  0  0  0  0  0
  -26.0484  -16.6588   19.1506 N   0  0  0  0  0  0  0  0  0  0  0  0
  -26.7406  -32.8253   19.5531 N   0  0  0  0  0  0  0  0  0  0  0  0
  -23.9003  -31.3781   25.2867 N   0  0  0  0  0  0  0  0  0  0  0  0
  -20.6821  -29.9019   26.0162 N   0  3  0  0  0  0  0  0  0  0  0  0
  -26.8324   -8.3671   17.3034 O   0  0  0  0  0  0  0  0  0  0  0  0
  -27.2073  -30.8474   20.6899 O   0  0  0  0  0  0  0  0  0  0  0  0
  -24.8039  -33.1032   23.1852 O   0  0  0  0  0  0  0  0  0  0  0  0
  -23.2981  -29.1389   25.3155 O   0  0  0  0  0  0  0  0  0  0  0  0
  -27.8304  -17.7018   20.2083 O   0  0  0  0  0  0  0  0  0  0  0  0
  -21.2542   -7.6341   22.6822 O   0  0  0  0  0  0  0  0  0  0  0  0
  -24.7054  -25.3017   19.8707 O   0  0  0  0  0  0  0  0  0  1  0  0
  -21.8637   -2.2520   23.7142 F   0  0  0  0  0  0  0  0  0  0  0  0
  -21.1536   -6.6658   25.2697 F   0  0  0  0  0  0  0  0  0  0  0  0
  -23.2121  -19.0394   17.8134 S   0  0  0  0  0  0  0  0  0  0  0  0
  1  2  1  0  0  0  0
  1  5  2  0  0  0  0
  2  6  2  0  0  0  0
  3  8  2  0  0  0  0
  3 17  1  0  0  0  0
  4  9  1  0  0  0  0
  4 17  2  0  0  0  0
  5 19  1  0  0  0  0
  6 21  1  0  0  0  0
  7 10  2  0  0  0  0
  7 20  1  0  0  0  0
  8 24  1  0  0  0  0
  9 24  2  0  0  0  0
 10 25  1  0  0  0  0
 11 12  2  0  0  0  0
 11 26  1  0  0  0  0
 12 27  1  0  0  0  0
 13 22  1  0  0  0  0
 13 25  2  0  0  0  0
 14 23  1  0  0  0  0
 14 31  2  0  0  0  0
 15 27  2  0  0  0  0
 15 28  1  0  0  0  0
 16 23  2  0  0  0  0
 16 84  1  0  0  0  0
 17 29  1  0  0  0  0
 18 29  1  0  0  0  0
 18 30  2  0  0  0  0
 18 32  1  0  0  0  0
 19 21  2  0  0  0  0
 19 37  1  0  0  0  0
 20 22  2  0  0  0  0
 20 38  1  0  0  0  0
 21 47  1  0  0  0  0
 22 39  1  0  0  0  0
 23 71  1  0  0  0  0
 24 80  1  0  0  0  0
 25 81  1  0  0  0  0
 26 28  2  0  0  0  0
 26 80  1  0  0  0  0
 27 82  1  0  0  0  0
 28 83  1  0  0  0  0
 29 64  2  0  0  0  0
 30 65  1  0  0  0  0
 30 69  1  0  0  0  0
 31 66  1  0  0  0  0
 31 84  1  0  0  0  0
 32 70  1  0  0  0  0
 32 75  2  0  0  0  0
 33 48  1  0  0  0  0
 33 72  1  0  0  0  0
 33 76  2  0  0  0  0
 34 61  1  0  0  0  0
 34 67  1  0  0  0  0
 34 77  2  0  0  0  0
 35 62  1  0  0  0  0
 35 73  1  0  0  0  0
 35 78  2  0  0  0  0
 36 68  1  0  0  0  0
 36 71  1  0  0  0  0
 36 79  2  0  0  0  0
 37 40  1  0  0  0  0
 38 48  1  0  0  0  0
 39 67  1  0  0  0  0
 40 42  1  0  0  0  0
 41 43  1  0  0  0  0
 41 44  1  0  0  0  0
 42 47  1  0  0  0  0
 43 49  1  0  0  0  0
 44 68  1  0  0  0  0
 45 49  1  0  0  0  0
 45 68  1  0  0  0  0
 46 50  1  0  0  0  0
 46 66  1  0  0  0  0
 47 72  1  0  0  0  0
 48 67  1  0  0  0  0
 49 65  1  0  0  0  0
 50 51  1  0  0  0  0
 50 52  1  0  0  0  0
 50 60  1  0  0  0  0
 51 53  1  0  0  0  0
 51 54  1  0  0  0  0
 51 66  1  0  0  0  0
 55 62  1  0  0  0  0
 56 63  1  0  0  0  0
 57 63  1  0  0  0  0
 58 63  1  0  0  0  0
 59 74  1  0  0  0  0
 60 81  1  0  0  0  0
 61 63  1  0  0  0  0
 61 73  1  0  0  0  0
 62 74  1  0  0  0  0
 64 65  1  0  0  0  0
M  CHG  1  74   1
M  ISO  4  36 100  60 101  71 100  81 101
M  END
> <Batch ID>
0148

> <Smiles>
CNC(C)C(=O)NC(C(=O)N1Cc2cc([101O:1][101CH2:1]C3(C)CN(c4cc([100NH:0][100C:0](=O)N5CCCC(n6nc(-c7ccc(Oc8ccc(F)cc8F)cc7)c(C(N)=O)c6N)C5)cs4)C3(C)C)ccc2CC1C(=O)NC1CCCc2ccccc21)C(C)(C)C

> <Shape>
0.235

> <Color>
0.091

> <Negative vol penalty>
0.000

$$$$

  -OEChem-04052303163D

 82 90  0     1  0  0  0  0  0999 V2000
  -33.4199  -26.9138   18.1838 C   0  0  0  0  0  0  0  0  0  0  0  0
  -32.0938  -26.5706   18.4267 C   0  0  0  0  0  0  0  0  0  0  0  0
  -24.7526   -9.0029   21.4704 C   0  0  0  0  0  0  0  0  0  0  0  0
  -23.1271  -10.0245   20.0038 C   0  0  0  0  0  0  0  0  0  0  0  0
  -34.1131  -27.7044   19.0995 C   0  0  0  0  0  0  0  0  0  0  0  0
  -31.4604  -27.0168   19.5860 C   0  0  0  0  0  0  0  0  0  0  0  0
  -26.8003  -28.7875   18.6951 C   0  0  0  0  0  0  0  0  0  0  0  0
  -23.8190   -8.0302   21.8277 C   0  0  0  0  0  0  0  0  0  0  0  0
  -22.1934   -9.0517   20.3610 C   0  0  0  0  0  0  0  0  0  0  0  0
  -25.7866  -27.8481   18.5114 C   0  0  0  0  0  0  0  0  0  0  0  0
  -21.1455   -7.7791   23.8804 C   0  0  0  0  0  0  0  0  0  0  0  0
  -21.0241   -7.4646   25.2339 C   0  0  0  0  0  0  0  0  0  0  0  0
  -25.0755  -28.1783   20.7928 C   0  0  0  0  0  0  0  0  0  0  0  0
  -24.0294  -19.8642   19.9752 C   0  0  0  0  0  0  0  0  0  0  0  0
  -21.6264   -5.1743   24.7556 C   0  0  0  0  0  0  0  0  0  0  0  0
  -22.4104  -19.7508   18.3113 C   0  0  0  0  0  0  0  0  0  0  0  0
  -24.4067  -10.0001   20.5585 C   0  0  0  0  0  0  0  0  0  0  0  0
  -26.2931  -10.9497   19.1277 C   0  0  0  0  0  0  0  0  0  0  0  0
  -33.4849  -28.1685   20.2660 C   0  0  0  0  0  0  0  0  0  0  0  0
  -26.9664  -29.4224   19.9343 C   0  0  0  0  0  0  0  0  0  0  0  0
  -32.1462  -27.8132   20.5189 C   0  0  0  0  0  0  0  0  0  0  0  0
  -26.0905  -29.1273   20.9888 C   0  0  0  0  0  0  0  0  0  0  0  0
  -23.1492  -20.5871   19.1190 C   0  0  0  0  0  0  0  0  0  0  0  0
  -22.5394   -8.0545   21.2730 C   0  0  0  0  0  0  0  0  0  0  0  0
  -24.9258  -27.5413   19.5612 C   0  0  0  0  0  0  0  0  0  0  0  0
  -21.5073   -6.7912   22.9645 C   0  0  0  0  0  0  0  0  0  0  0  0
  -21.2646   -6.1622   25.6715 C   0  0  0  0  0  0  0  0  0  0  0  0
  -21.7478   -5.4888   23.4021 C   0  0  0  0  0  0  0  0  0  0  0  0
  -25.3705  -11.0056   20.1895 C   0  0  0  0  0  0  0  0  0  0  0  0
  -26.9737  -12.1404   19.2012 C   0  0  0  0  0  0  0  0  0  0  0  0
  -23.9294  -18.5028   19.7894 C   0  0  0  0  0  0  0  0  0  0  0  0
  -24.2156  -25.3149   19.6585 C   0  0  0  0  0  0  0  0  0  1  0  0
  -26.5149   -9.9141   18.1612 C   0  0  0  0  0  0  0  0  0  0  0  0
  -23.3186  -24.3310   19.5205 C   0  0  0  0  0  0  0  0  0  0  0  0
  -23.7246  -22.9253   19.8483 C   0  0  0  0  0  0  0  0  0  0  0  0
  -29.2872  -29.5362   22.1033 C   0  0  0  0  0  0  0  0  0  0  0  0
  -27.3440  -31.7268   23.4987 C   0  0  0  0  0  0  0  0  0  0  0  0
  -24.1873  -32.9596   23.9024 C   0  0  0  0  0  0  0  0  0  0  0  0
  -25.5766  -17.5110   21.4171 C   0  0  0  0  0  0  0  0  0  0  0  0
  -34.2893  -28.9812   21.2494 C   0  0  0  0  0  0  0  0  0  0  0  0
  -28.0481  -30.4530   20.1083 C   0  0  0  0  0  0  0  0  0  0  0  0
  -26.2138  -29.7959   22.3328 C   0  0  0  0  0  0  0  0  0  0  0  0
  -33.4319  -29.7246   22.2705 C   0  0  0  0  0  0  0  0  0  0  0  0
  -28.3492  -15.4796   22.3464 C   0  0  0  0  0  0  0  0  0  0  0  0
  -32.3666  -28.7983   22.8484 C   0  0  0  0  0  0  0  0  0  0  0  0
  -27.9867  -14.0981   21.7968 C   0  0  0  0  0  0  0  0  0  0  0  0
  -27.1215  -16.2201   22.8738 C   0  0  0  0  0  0  0  0  0  0  0  0
  -25.6410  -14.9401   21.3776 C   0  0  0  0  0  0  0  0  0  0  0  0
  -31.4170  -28.2985   21.7529 C   0  0  1  0  0  0  0  0  0  0  0  0
  -28.4471  -30.6602   21.5661 C   0  0  1  0  0  0  0  0  0  0  0  0
  -26.8354  -14.1821   20.7755 C   0  0  2  0  0  0  0  0  0  0  0  0
  -22.9071  -34.7310   25.1355 C   0  0  0  0  0  0  0  0  0  0  0  0
  -27.5261  -30.0742   26.0571 C   0  0  0  0  0  0  0  0  0  0  0  0
  -25.5341  -31.3204   26.9212 C   0  0  0  0  0  0  0  0  0  0  0  0
  -27.6427  -32.5483   26.4029 C   0  0  0  0  0  0  0  0  0  0  0  0
  -23.3040  -34.2382   21.3837 C   0  0  0  0  0  0  0  0  0  0  0  0
  -26.2203  -31.6719   24.5053 C   0  0  1  0  0  0  0  0  0  0  0  0
  -23.6456  -34.3768   23.8541 C   0  0  2  0  0  0  0  0  0  0  0  0
  -26.7294  -31.3895   25.9470 C   0  0  0  0  0  0  0  0  0  0  0  0
  -25.4548  -12.1418   20.8866 N   0  0  0  0  0  0  0  0  0  0  0  0
  -26.4385  -12.8109   20.2615 N   0  0  0  0  0  0  0  0  0  0  0  0
  -27.2911  -30.7918   22.4553 N   0  0  0  0  0  0  0  0  0  0  0  0
  -26.0743  -16.2641   21.8510 N   0  0  0  0  0  0  0  0  0  0  0  0
  -27.9719  -12.6689   18.4617 N   0  0  0  0  0  0  0  0  0  0  0  0
  -25.7273   -8.7568   18.2293 N   0  0  0  0  0  0  0  0  0  0  0  0
  -23.0304  -21.9974   19.0841 N   0  0  0  0  0  0  0  0  0  0  0  0
  -24.6070  -17.4289   20.4182 N   0  0  0  0  0  0  0  0  0  0  0  0
  -30.4610  -29.3276   21.4046 N   0  0  0  0  0  0  0  0  0  0  0  0
  -25.4856  -32.9245   24.3657 N   0  0  0  0  0  0  0  0  0  0  0  0
  -22.7032  -34.5325   22.7102 N   0  3  0  0  0  0  0  0  0  0  0  0
  -27.3969  -10.0052   17.2739 O   0  0  0  0  0  0  0  0  0  0  0  0
  -24.5755  -22.6980   20.7016 O   0  0  0  0  0  0  0  0  0  0  0  0
  -28.9000  -28.9060   23.0803 O   0  0  0  0  0  0  0  0  0  0  0  0
  -28.2320  -32.5730   23.6293 O   0  0  0  0  0  0  0  0  0  0  0  0
  -23.5239  -31.9810   23.5665 O   0  0  0  0  0  0  0  0  0  0  0  0
  -26.0003  -18.5744   21.8771 O   0  0  0  0  0  0  0  0  0  0  0  0
  -22.0280  -24.5586   19.0878 O   0  0  0  0  0  0  0  0  0  0  0  0
  -21.6282   -7.1053   21.6212 O   0  0  0  0  0  0  0  0  0  0  0  0
  -23.9359  -26.6243   19.3848 O   0  0  0  0  0  0  0  0  0  1  0  0
  -21.1494   -5.8606   26.9715 F   0  0  0  0  0  0  0  0  0  0  0  0
  -22.0969   -4.5358   22.5271 F   0  0  0  0  0  0  0  0  0  0  0  0
  -22.7785  -18.1012   18.5867 S   0  0  0  0  0  0  0  0  0  0  0  0
  1  2  1  0  0  0  0
  1  5  2  0  0  0  0
  2  6  2  0  0  0  0
  3  8  2  0  0  0  0
  3 17  1  0  0  0  0
  4  9  1  0  0  0  0
  4 17  2  0  0  0  0
  5 19  1  0  0  0  0
  6 21  1  0  0  0  0
  7 10  2  0  0  0  0
  7 20  1  0  0  0  0
  8 24  1  0  0  0  0
  9 24  2  0  0  0  0
 10 25  1  0  0  0  0
 11 12  2  0  0  0  0
 11 26  1  0  0  0  0
 12 27  1  0  0  0  0
 13 22  1  0  0  0  0
 13 25  2  0  0  0  0
 14 23  1  0  0  0  0
 14 31  2  0  0  0  0
 15 27  2  0  0  0  0
 15 28  1  0  0  0  0
 16 23  2  0  0  0  0
 16 82  1  0  0  0  0
 17 29  1  0  0  0  0
 18 29  1  0  0  0  0
 18 30  2  0  0  0  0
 18 33  1  0  0  0  0
 19 21  2  0  0  0  0
 19 40  1  0  0  0  0
 20 22  2  0  0  0  0
 20 41  1  0  0  0  0
 21 49  1  0  0  0  0
 22 42  1  0  0  0  0
 23 66  1  0  0  0  0
 24 78  1  0  0  0  0
 25 79  1  0  0  0  0
 26 28  2  0  0  0  0
 26 78  1  0  0  0  0
 27 80  1  0  0  0  0
 28 81  1  0  0  0  0
 29 60  2  0  0  0  0
 30 61  1  0  0  0  0
 30 64  1  0  0  0  0
 31 67  1  0  0  0  0
 31 82  1  0  0  0  0
 32 34  2  0  0  0  0
 32 79  1  0  0  0  0
 33 65  1  0  0  0  0
 33 71  2  0  0  0  0
 34 35  1  0  0  0  0
 34 77  1  0  0  0  0
 35 66  1  0  0  0  0
 35 72  2  0  0  0  0
 36 50  1  0  0  0  0
 36 68  1  0  0  0  0
 36 73  2  0  0  0  0
 37 57  1  0  0  0  0
 37 62  1  0  0  0  0
 37 74  2  0  0  0  0
 38 58  1  0  0  0  0
 38 69  1  0  0  0  0
 38 75  2  0  0  0  0
 39 63  1  0  0  0  0
 39 67  1  0  0  0  0
 39 76  2  0  0  0  0
 40 43  1  0  0  0  0
 41 50  1  0  0  0  0
 42 62  1  0  0  0  0
 43 45  1  0  0  0  0
 44 46  1  0  0  0  0
 44 47  1  0  0  0  0
 45 49  1  0  0  0  0
 46 51  1  0  0  0  0
 47 63  1  0  0  0  0
 48 51  1  0  0  0  0
 48 63  1  0  0  0  0
 49 68  1  0  0  0  0
 50 62  1  0  0  0  0
 51 61  1  0  0  0  0
 52 58  1  0  0  0  0
 53 59  1  0  0  0  0
 54 59  1  0  0  0  0
 55 59  1  0  0  0  0
 56 70  1  0  0  0  0
 57 59  1  0  0  0  0
 57 69  1  0  0  0  0
 58 70  1  0  0  0  0
 60 61  1  0  0  0  0
M  CHG  1  70   1
M  ISO  4  32 101  39 100  67 100  79 101
M  END
> <Batch ID>
0148

> <Smiles>
CNC(C)C(=O)NC(C(=O)N1Cc2cc([101O:1][101CH2:1]C(=O)C(=O)Nc3csc([100NH:0][100C:0](=O)N4CCCC(n5nc(-c6ccc(Oc7ccc(F)cc7F)cc6)c(C(N)=O)c5N)C4)c3)ccc2CC1C(=O)NC1CCCc2ccccc21)C(C)(C)C

> <Shape>
0.239

> <Color>
0.099

> <Negative vol penalty>
0.000

$$$$

  -OEChem-04052303163D

 90100  0     1  0  0  0  0  0999 V2000
  -16.8339  -28.2699   23.7703 C   0  0  0  0  0  0  0  0  0  0  0  0
  -17.3271  -28.1003   22.4806 C   0  0  0  0  0  0  0  0  0  0  0  0
  -22.3188  -11.9433   22.4774 C   0  0  0  0  0  0  0  0  0  0  0  0
  -22.6136  -14.3409   22.5150 C   0  0  0  0  0  0  0  0  0  0  0  0
  -17.4800  -29.1327   24.6547 C   0  0  0  0  0  0  0  0  0  0  0  0
  -18.4662  -28.7943   22.0741 C   0  0  0  0  0  0  0  0  0  0  0  0
  -24.3219  -25.2859   19.7732 C   0  0  0  0  0  0  0  0  0  0  0  0
  -31.1558  -20.0785   19.8316 C   0  0  0  0  0  0  0  0  0  0  0  0
  -30.8005  -18.8259   20.3320 C   0  0  0  0  0  0  0  0  0  0  0  0
  -21.1805  -12.0707   23.2734 C   0  0  0  0  0  0  0  0  0  0  0  0
  -21.4752  -14.4684   23.3110 C   0  0  0  0  0  0  0  0  0  0  0  0
  -25.4047  -24.6946   19.1221 C   0  0  0  0  0  0  0  0  0  0  0  0
  -20.4686  -12.5570   26.5416 C   0  0  0  0  0  0  0  0  0  0  0  0
  -20.3277  -11.6778   27.6152 C   0  0  0  0  0  0  0  0  0  0  0  0
  -28.8554  -20.4848   19.2153 C   0  0  0  0  0  0  0  0  0  0  0  0
  -26.4769  -26.8530   18.9224 C   0  0  0  0  0  0  0  0  0  0  0  0
  -18.2619  -10.8550   26.6705 C   0  0  0  0  0  0  0  0  0  0  0  0
  -23.0354  -13.0784   22.0983 C   0  0  0  0  0  0  0  0  0  0  0  0
  -24.2888  -12.3930   19.9848 C   0  0  0  0  0  0  0  0  0  0  0  0
  -18.6332  -29.8302   24.2619 C   0  0  0  0  0  0  0  0  0  0  0  0
  -24.3194  -26.6624   20.0154 C   0  0  0  0  0  0  0  0  0  0  0  0
  -19.1276  -29.6682   22.9536 C   0  0  0  0  0  0  0  0  0  0  0  0
  -28.5001  -19.2322   19.7156 C   0  0  0  0  0  0  0  0  0  0  0  0
  -25.4007  -27.4489   19.5852 C   0  0  0  0  0  0  0  0  0  0  0  0
  -30.1832  -20.9080   19.2732 C   0  0  0  0  0  0  0  0  0  0  0  0
  -29.4727  -18.4028   20.2740 C   0  0  0  0  0  0  0  0  0  0  0  0
  -20.7586  -13.3333   23.6901 C   0  0  0  0  0  0  0  0  0  0  0  0
  -26.4794  -25.4763   18.6976 C   0  0  0  0  0  0  0  0  0  0  0  0
  -19.5061  -12.5852   25.5323 C   0  0  0  0  0  0  0  0  0  0  0  0
  -19.2244  -10.8268   27.6797 C   0  0  0  0  0  0  0  0  0  0  0  0
  -18.4028  -11.7342   25.5968 C   0  0  0  0  0  0  0  0  0  0  0  0
  -24.2117  -12.9474   21.2765 C   0  0  0  0  0  0  0  0  0  0  0  0
  -25.6145  -12.5029   19.6426 C   0  0  0  0  0  0  0  0  0  0  0  0
  -30.8624  -24.5215   17.2708 C   0  0  0  0  0  0  0  0  0  0  0  0
  -29.8938  -24.4626   18.1945 C   0  0  0  0  0  0  0  0  0  0  0  0
  -31.9272  -23.4983   17.2455 C   0  0  0  0  0  0  0  0  0  0  0  0
  -23.2547  -11.8292   19.1673 C   0  0  0  0  0  0  0  0  0  0  0  0
  -22.5143  -29.6087   21.4771 C   0  0  0  0  0  0  0  0  0  0  0  0
  -25.4853  -29.9567   22.1573 C   0  0  0  0  0  0  0  0  0  0  0  0
  -28.4805  -30.7428   23.5884 C   0  0  0  0  0  0  0  0  0  0  0  0
  -29.9843  -16.1936   21.3714 C   0  0  0  0  0  0  0  0  0  0  0  0
  -19.2700  -30.7879   25.2377 C   0  0  0  0  0  0  0  0  0  0  0  0
  -23.1464  -27.3510   20.6584 C   0  0  0  0  0  0  0  0  0  0  0  0
  -25.3391  -28.9308   19.8364 C   0  0  0  0  0  0  0  0  0  0  0  0
  -31.8849  -22.3519   18.2249 C   0  0  0  0  0  0  0  0  0  0  0  0
  -20.6878  -31.1998   24.8497 C   0  0  0  0  0  0  0  0  0  0  0  0
  -24.9305  -19.0972   20.1535 C   0  0  0  0  0  0  0  0  0  0  0  0
  -29.9864  -12.6400   21.5926 C   0  0  0  0  0  0  0  0  0  0  0  0
  -26.1660  -18.6514   20.9584 C   0  0  0  0  0  0  0  0  0  0  0  0
  -25.9068  -19.8127   19.2001 C   0  0  0  0  0  0  0  0  0  0  0  0
  -20.7489  -31.5764   23.3728 C   0  0  0  0  0  0  0  0  0  0  0  0
  -28.5136  -12.2647   21.4130 C   0  0  0  0  0  0  0  0  0  0  0  0
  -30.1490  -13.9329   22.3898 C   0  0  0  0  0  0  0  0  0  0  0  0
  -27.9136  -14.7031   21.6978 C   0  0  0  0  0  0  0  0  0  0  0  0
  -26.9852  -18.7761   19.6382 C   0  0  0  0  0  0  0  0  0  0  0  0
  -20.3751  -30.3844   22.4835 C   0  0  1  0  0  0  0  0  0  0  0  0
  -29.7978  -23.3570   19.2252 C   0  0  2  0  0  0  0  0  0  0  0  0
  -23.5575  -28.5330   21.5546 C   0  0  1  0  0  0  0  0  0  0  0  0
  -27.6972  -13.4423   20.8451 C   0  0  2  0  0  0  0  0  0  0  0  0
  -30.3212  -23.8197   20.5893 C   0  0  0  0  0  0  0  0  0  0  0  0
  -30.2306  -32.1576   24.6987 C   0  0  0  0  0  0  0  0  0  0  0  0
  -26.1043  -30.7967   19.2911 C   0  0  0  0  0  0  0  0  0  0  0  0
  -28.0848  -32.0559   20.1631 C   0  0  0  0  0  0  0  0  0  0  0  0
  -25.7851  -32.6941   20.8888 C   0  0  0  0  0  0  0  0  0  0  0  0
  -27.4143  -30.1506   26.2850 C   0  0  0  0  0  0  0  0  0  0  0  0
  -28.8120  -25.5074   18.2332 C   0  0  0  0  0  0  0  0  0  1  0  0
  -26.8117  -30.5552   21.7624 C   0  0  1  0  0  0  0  0  0  0  0  0
  -28.8265  -31.5831   24.8044 C   0  0  2  0  0  0  0  0  0  0  0  0
  -26.6936  -31.4976   20.5315 C   0  0  0  0  0  0  0  0  0  0  0  0
  -25.3942  -13.3773   21.7246 N   0  0  0  0  0  0  0  0  0  0  0  0
  -26.2270  -13.0931   20.7088 N   0  0  0  0  0  0  0  0  0  0  0  0
  -30.5409  -22.1669   18.7700 N   0  0  2  0  0  0  0  0  0  0  0  0
  -24.8242  -29.1899   21.1901 N   0  0  0  0  0  0  0  0  0  0  0  0
  -29.3507  -15.0048   21.7910 N   0  0  0  0  0  0  0  0  0  0  0  0
  -26.3043  -12.1512   18.5368 N   0  0  0  0  0  0  0  0  0  0  0  0
  -22.9909  -10.4570   19.2755 N   0  0  0  0  0  0  0  0  0  0  0  0
  -29.1291  -17.1275   20.7873 N   0  0  0  0  0  0  0  0  0  0  0  0
  -21.4838  -29.4595   22.3856 N   0  0  0  0  0  0  0  0  0  0  0  0
  -27.3415  -31.1992   22.9595 N   0  0  0  0  0  0  0  0  0  0  0  0
  -28.7480  -30.7585   26.0433 N   0  3  0  0  0  0  0  0  0  0  0  0
  -32.8563  -23.6176   16.4467 O   0  0  0  0  0  0  0  0  0  0  0  0
  -22.5955  -12.5187   18.3527 O   0  0  0  0  0  0  0  0  0  0  0  0
  -22.6350  -30.5093   20.6550 O   0  0  0  0  0  0  0  0  0  0  0  0
  -25.0422  -30.1666   23.2900 O   0  0  0  0  0  0  0  0  0  0  0  0
  -29.1554  -29.7802   23.2301 O   0  0  0  0  0  0  0  0  0  0  0  0
  -31.2006  -16.3591   21.4946 O   0  0  0  0  0  0  0  0  0  0  0  0
  -19.6478  -13.4580   24.4666 O   0  0  0  0  0  0  0  0  0  0  0  0
  -27.5354  -24.8919   18.0665 O   0  0  0  0  0  0  0  0  0  1  0  0
  -19.0901   -9.9815   28.7101 F   0  0  0  0  0  0  0  0  0  0  0  0
  -17.4755  -11.7559   24.6296 F   0  0  0  0  0  0  0  0  0  0  0  0
  1  2  1  0  0  0  0
  1  5  2  0  0  0  0
  2  6  2  0  0  0  0
  3 10  2  0  0  0  0
  3 18  1  0  0  0  0
  4 11  1  0  0  0  0
  4 18  2  0  0  0  0
  5 20  1  0  0  0  0
  6 22  1  0  0  0  0
  7 12  2  0  0  0  0
  7 21  1  0  0  0  0
  8  9  2  0  0  0  0
  8 25  1  0  0  0  0
  9 26  1  0  0  0  0
 10 27  1  0  0  0  0
 11 27  2  0  0  0  0
 12 28  1  0  0  0  0
 13 14  2  0  0  0  0
 13 29  1  0  0  0  0
 14 30  1  0  0  0  0
 15 23  1  0  0  0  0
 15 25  2  0  0  0  0
 16 24  1  0  0  0  0
 16 28  2  0  0  0  0
 17 30  2  0  0  0  0
 17 31  1  0  0  0  0
 18 32  1  0  0  0  0
 19 32  1  0  0  0  0
 19 33  2  0  0  0  0
 19 37  1  0  0  0  0
 20 22  2  0  0  0  0
 20 42  1  0  0  0  0
 21 24  2  0  0  0  0
 21 43  1  0  0  0  0
 22 56  1  0  0  0  0
 23 26  2  0  0  0  0
 23 55  1  0  0  0  0
 24 44  1  0  0  0  0
 25 72  1  0  0  0  0
 26 77  1  0  0  0  0
 27 87  1  0  0  0  0
 28 88  1  0  0  0  0
 29 31  2  0  0  0  0
 29 87  1  0  0  0  0
 30 89  1  0  0  0  0
 31 90  1  0  0  0  0
 32 70  2  0  0  0  0
 33 71  1  0  0  0  0
 33 75  1  0  0  0  0
 34 35  2  0  0  0  0
 34 36  1  0  0  0  0
 35 57  1  0  0  0  0
 35 66  1  0  0  0  0
 36 45  1  0  0  0  0
 36 81  2  0  0  0  0
 37 76  1  0  0  0  0
 37 82  2  0  0  0  0
 38 58  1  0  0  0  0
 38 78  1  0  0  0  0
 38 83  2  0  0  0  0
 39 67  1  0  0  0  0
 39 73  1  0  0  0  0
 39 84  2  0  0  0  0
 40 68  1  0  0  0  0
 40 79  1  0  0  0  0
 40 85  2  0  0  0  0
 41 74  1  0  0  0  0
 41 77  1  0  0  0  0
 41 86  2  0  0  0  0
 42 46  1  0  0  0  0
 43 58  1  0  0  0  0
 44 73  1  0  0  0  0
 45 72  1  0  0  0  0
 46 51  1  0  0  0  0
 47 49  1  0  0  0  0
 47 50  1  0  0  0  0
 48 52  1  0  0  0  0
 48 53  1  0  0  0  0
 49 55  1  0  0  0  0
 50 55  1  0  0  0  0
 51 56  1  0  0  0  0
 52 59  1  0  0  0  0
 53 74  1  0  0  0  0
 54 59  1  0  0  0  0
 54 74  1  0  0  0  0
 56 78  1  0  0  0  0
 57 60  1  0  0  0  0
 57 72  1  0  0  0  0
 58 73  1  0  0  0  0
 59 71  1  0  0  0  0
 61 68  1  0  0  0  0
 62 69  1  0  0  0  0
 63 69  1  0  0  0  0
 64 69  1  0  0  0  0
 65 80  1  0  0  0  0
 66 88  1  0  0  0  0
 67 69  1  0  0  0  0
 67 79  1  0  0  0  0
 68 80  1  0  0  0  0
 70 71  1  0  0  0  0
M  CHG  1  80   1
M  ISO  4  41 100  66 101  77 100  88 101
M  END
> <Batch ID>
0148

> <Smiles>
CNC(C)C(=O)NC(C(=O)N1Cc2cc([101O:1][101CH2:1]C3=C(C)N(c4ccc([100NH:0][100C:0](=O)N5CCCC(n6nc(-c7ccc(Oc8ccc(F)cc8F)cc7)c(C(N)=O)c6N)C5)c(C5CCC5)c4)CC(=O)C3)ccc2CC1C(=O)NC1CCCc2ccccc21)C(C)(C)C

> <Shape>
0.300

> <Color>
0.053

> <Negative vol penalty>
0.000

$$$$

  -OEChem-04052303163D

 90 98  0     1  0  0  0  0  0999 V2000
  -31.5873  -24.9182   21.0942 C   0  0  0  0  0  0  0  0  0  0  0  0
  -30.3819  -24.8519   20.4027 C   0  0  0  0  0  0  0  0  0  0  0  0
  -20.6227  -21.2673   19.0490 C   0  0  0  0  0  0  0  0  0  0  0  0
  -26.7651  -12.9275   20.7745 C   0  0  0  0  0  0  0  0  0  0  0  0
  -25.9135  -13.8390   18.7054 C   0  0  0  0  0  0  0  0  0  0  0  0
  -31.6345  -25.5110   22.3552 C   0  0  0  0  0  0  0  0  0  0  0  0
  -29.2228  -25.3774   20.9724 C   0  0  0  0  0  0  0  0  0  0  0  0
  -23.0933  -28.6198   19.1744 C   0  0  0  0  0  0  0  0  0  0  0  0
  -22.0155  -21.2751   18.9747 C   0  0  0  0  0  0  0  0  0  0  0  0
  -19.9540  -22.2941   19.7157 C   0  0  0  0  0  0  0  0  0  0  0  0
  -26.0920  -11.7317   20.5248 C   0  0  0  0  0  0  0  0  0  0  0  0
  -25.2405  -12.6430   18.4556 C   0  0  0  0  0  0  0  0  0  0  0  0
  -21.7172  -28.5047   19.3666 C   0  0  0  0  0  0  0  0  0  0  0  0
  -24.3057   -8.5653   20.6068 C   0  0  0  0  0  0  0  0  0  0  0  0
  -23.6008   -7.9837   21.6606 C   0  0  0  0  0  0  0  0  0  0  0  0
  -21.9340  -29.5761   21.5170 C   0  0  0  0  0  0  0  0  0  0  0  0
  -22.0712  -23.3364   20.2337 C   0  0  0  0  0  0  0  0  0  0  0  0
  -22.2298   -9.9653   21.8369 C   0  0  0  0  0  0  0  0  0  0  0  0
  -26.6758  -13.9812   19.8648 C   0  0  0  0  0  0  0  0  0  0  0  0
  -28.6802  -15.5536   19.7315 C   0  0  0  0  0  0  0  0  0  0  0  0
  -30.4772  -26.0527   22.9365 C   0  0  0  0  0  0  0  0  0  0  0  0
  -23.9029  -29.2052   20.1584 C   0  0  0  0  0  0  0  0  0  0  0  0
  -29.2542  -25.9768   22.2430 C   0  0  0  0  0  0  0  0  0  0  0  0
  -23.3197  -29.6998   21.3337 C   0  0  0  0  0  0  0  0  0  0  0  0
  -22.7398  -22.3096   19.5670 C   0  0  0  0  0  0  0  0  0  0  0  0
  -20.6783  -23.3286   20.3080 C   0  0  0  0  0  0  0  0  0  0  0  0
  -25.3297  -11.5894   19.3653 C   0  0  0  0  0  0  0  0  0  0  0  0
  -21.1378  -28.9802   20.5393 C   0  0  0  0  0  0  0  0  0  0  0  0
  -23.9727   -9.8468   20.1680 C   0  0  0  0  0  0  0  0  0  0  0  0
  -22.5628   -8.6837   22.2756 C   0  0  0  0  0  0  0  0  0  0  0  0
  -22.9347  -10.5468   20.7831 C   0  0  0  0  0  0  0  0  0  0  0  0
  -27.3704  -15.2171   20.1225 C   0  0  0  0  0  0  0  0  0  0  0  0
  -28.8665  -16.8258   20.2142 C   0  0  0  0  0  0  0  0  0  0  0  0
  -29.6425  -14.7848   18.9974 C   0  0  0  0  0  0  0  0  0  0  0  0
  -26.3165  -28.2008   21.9666 C   0  0  0  0  0  0  0  0  0  0  0  0
  -26.4309  -31.3165   22.8620 C   0  0  0  0  0  0  0  0  0  0  0  0
  -20.5595  -25.4736   21.6222 C   0  0  0  0  0  0  0  0  0  0  0  0
  -24.7994  -34.2944   23.2041 C   0  0  0  0  0  0  0  0  0  0  0  0
  -25.0864  -21.2681   21.5663 C   0  0  0  0  0  0  0  0  0  0  0  0
  -30.5682  -26.6412   24.3222 C   0  0  0  0  0  0  0  0  0  0  0  0
  -25.3820  -29.3460   19.9243 C   0  0  0  0  0  0  0  0  0  0  0  0
  -24.1421  -30.3549   22.4122 C   0  0  0  0  0  0  0  0  0  0  0  0
  -29.3691  -27.5092   24.6952 C   0  0  0  0  0  0  0  0  0  0  0  0
  -27.4556  -19.7373   23.7389 C   0  0  0  0  0  0  0  0  0  0  0  0
  -28.0662  -26.8061   24.3278 C   0  0  0  0  0  0  0  0  0  0  0  0
  -27.8206  -18.4356   23.0232 C   0  0  0  0  0  0  0  0  0  0  0  0
  -25.9813  -20.0894   23.5528 C   0  0  0  0  0  0  0  0  0  0  0  0
  -25.8927  -18.8332   21.4344 C   0  0  0  0  0  0  0  0  0  0  0  0
  -27.9803  -26.5578   22.8171 C   0  0  1  0  0  0  0  0  0  0  0  0
  -26.1799  -29.4952   21.2160 C   0  0  1  0  0  0  0  0  0  0  0  0
  -27.3823  -18.4657   21.5466 C   0  0  2  0  0  0  0  0  0  0  0  0
  -25.1441  -36.6494   23.9994 C   0  0  0  0  0  0  0  0  0  0  0  0
  -18.1088  -28.2900   19.1236 C   0  0  0  0  0  0  0  0  0  0  0  0
  -26.4672  -24.2326   18.2056 C   0  0  0  0  0  0  0  0  0  0  0  0
  -27.1326  -21.8556   18.5654 C   0  0  0  0  0  0  0  0  0  0  0  0
  -26.5692  -22.6486   16.2667 C   0  0  0  0  0  0  0  0  0  0  0  0
  -26.2625  -30.3615   25.7550 C   0  0  0  0  0  0  0  0  0  0  0  0
  -25.6580  -32.6988   26.4182 C   0  0  0  0  0  0  0  0  0  0  0  0
  -27.8724  -32.2356   25.3671 C   0  0  0  0  0  0  0  0  0  0  0  0
  -24.2178  -35.4078   20.5243 C   0  0  0  0  0  0  0  0  0  0  0  0
  -19.4710  -26.3539   22.2241 C   0  0  0  0  0  0  0  0  0  0  0  0
  -18.4788  -26.9001   21.1938 C   0  0  0  0  0  0  0  0  0  0  0  0
  -24.7369  -22.3419   18.0177 C   0  0  0  0  0  0  0  0  0  0  0  0
  -24.2288  -22.3174   19.4872 C   0  0  2  0  0  0  0  0  0  0  0  0
  -25.7825  -32.1414   23.9474 C   0  0  1  0  0  0  0  0  0  0  0  0
  -25.1876  -35.7071   22.8066 C   0  0  2  0  0  0  0  0  0  0  0  0
  -19.1412  -27.7611   20.1112 C   0  0  2  0  0  0  0  0  0  1  0  0
  -26.2062  -22.7874   17.7556 C   0  0  0  0  0  0  0  0  0  0  0  0
  -26.3783  -31.8453   25.3527 C   0  0  0  0  0  0  0  0  0  0  0  0
  -26.7673  -16.1965   20.8015 N   0  0  0  0  0  0  0  0  0  0  0  0
  -27.7024  -17.1609   20.8410 N   0  0  0  0  0  0  0  0  0  0  0  0
  -25.5848  -30.4635   22.1393 N   0  0  0  0  0  0  0  0  0  0  0  0
  -25.6308  -20.1026   22.1306 N   0  0  0  0  0  0  0  0  0  0  0  0
  -29.9109  -17.6795   20.1596 N   0  0  0  0  0  0  0  0  0  0  0  0
  -29.2874  -13.4960   18.5767 N   0  0  0  0  0  0  0  0  0  0  0  0
  -19.9996  -24.3705   20.9838 N   0  0  0  0  0  0  0  0  0  0  0  0
  -27.6222  -27.7769   22.1241 N   0  0  0  0  0  0  0  0  0  0  0  0
  -25.9027  -33.5338   23.5287 N   0  0  0  0  0  0  0  0  0  0  0  0
  -24.7883  -21.1976   20.2110 N   0  0  0  0  0  0  0  0  0  0  0  0
  -24.2578  -36.2258   21.7638 N   0  3  0  0  0  0  0  0  0  0  0  0
  -30.7892  -15.2215   18.7369 O   0  0  0  0  0  0  0  0  0  0  0  0
  -25.3117  -27.6298   22.3741 O   0  0  0  0  0  0  0  0  0  0  0  0
  -27.6421  -31.4302   22.6580 O   0  0  0  0  0  0  0  0  0  0  0  0
  -21.7490  -25.7624   21.7012 O   0  0  0  0  0  0  0  0  0  0  0  0
  -23.6337  -33.9057   23.2281 O   0  0  0  0  0  0  0  0  0  0  0  0
  -24.8861  -22.2970   22.2206 O   0  0  0  0  0  0  0  0  0  0  0  0
  -24.6730  -10.4225   19.1212 O   0  0  0  0  0  0  0  0  0  0  0  0
  -19.7950  -28.8685   20.7297 O   0  0  0  0  0  0  0  0  0  1  0  0
  -21.8850   -8.1245   23.2866 F   0  0  0  0  0  0  0  0  0  0  0  0
  -22.6095  -11.7778   20.3652 F   0  0  0  0  0  0  0  0  0  0  0  0
  1  2  1  0  0  0  0
  1  6  2  0  0  0  0
  2  7  2  0  0  0  0
  3  9  1  0  0  0  0
  3 10  2  0  0  0  0
  4 11  2  0  0  0  0
  4 19  1  0  0  0  0
  5 12  1  0  0  0  0
  5 19  2  0  0  0  0
  6 21  1  0  0  0  0
  7 23  1  0  0  0  0
  8 13  2  0  0  0  0
  8 22  1  0  0  0  0
  9 25  2  0  0  0  0
 10 26  1  0  0  0  0
 11 27  1  0  0  0  0
 12 27  2  0  0  0  0
 13 28  1  0  0  0  0
 14 15  2  0  0  0  0
 14 29  1  0  0  0  0
 15 30  1  0  0  0  0
 16 24  1  0  0  0  0
 16 28  2  0  0  0  0
 17 25  1  0  0  0  0
 17 26  2  0  0  0  0
 18 30  2  0  0  0  0
 18 31  1  0  0  0  0
 19 32  1  0  0  0  0
 20 32  1  0  0  0  0
 20 33  2  0  0  0  0
 20 34  1  0  0  0  0
 21 23  2  0  0  0  0
 21 40  1  0  0  0  0
 22 24  2  0  0  0  0
 22 41  1  0  0  0  0
 23 49  1  0  0  0  0
 24 42  1  0  0  0  0
 25 64  1  0  0  0  0
 26 76  1  0  0  0  0
 27 87  1  0  0  0  0
 28 88  1  0  0  0  0
 29 31  2  0  0  0  0
 29 87  1  0  0  0  0
 30 89  1  0  0  0  0
 31 90  1  0  0  0  0
 32 70  2  0  0  0  0
 33 71  1  0  0  0  0
 33 74  1  0  0  0  0
 34 75  1  0  0  0  0
 34 81  2  0  0  0  0
 35 50  1  0  0  0  0
 35 77  1  0  0  0  0
 35 82  2  0  0  0  0
 36 65  1  0  0  0  0
 36 72  1  0  0  0  0
 36 83  2  0  0  0  0
 37 61  1  0  0  0  0
 37 76  1  0  0  0  0
 37 84  2  0  0  0  0
 38 66  1  0  0  0  0
 38 78  1  0  0  0  0
 38 85  2  0  0  0  0
 39 73  1  0  0  0  0
 39 79  1  0  0  0  0
 39 86  2  0  0  0  0
 40 43  1  0  0  0  0
 41 50  1  0  0  0  0
 42 72  1  0  0  0  0
 43 45  1  0  0  0  0
 44 46  1  0  0  0  0
 44 47  1  0  0  0  0
 45 49  1  0  0  0  0
 46 51  1  0  0  0  0
 47 73  1  0  0  0  0
 48 51  1  0  0  0  0
 48 73  1  0  0  0  0
 49 77  1  0  0  0  0
 50 72  1  0  0  0  0
 51 71  1  0  0  0  0
 52 66  1  0  0  0  0
 53 67  1  0  0  0  0
 54 68  1  0  0  0  0
 55 68  1  0  0  0  0
 56 68  1  0  0  0  0
 57 69  1  0  0  0  0
 58 69  1  0  0  0  0
 59 69  1  0  0  0  0
 60 80  1  0  0  0  0
 61 62  1  0  0  0  0
 62 67  1  0  0  0  0
 63 64  1  0  0  0  0
 63 68  1  0  0  0  0
 64 79  1  0  0  0  0
 65 69  1  0  0  0  0
 65 78  1  0  0  0  0
 66 80  1  0  0  0  0
 67 88  1  0  0  0  0
 70 71  1  0  0  0  0
M  CHG  1  80   1
M  ISO  4  39 100  67 101  79 100  88 101
M  END
> <Batch ID>
0148

> <Smiles>
CNC(C)C(=O)NC(C(=O)N1Cc2cc([101O:1][101CH:1](C)CCC(=O)Nc3cccc(C(CC(C)(C)C)[100NH:0][100C:0](=O)N4CCCC(n5nc(-c6ccc(Oc7ccc(F)cc7F)cc6)c(C(N)=O)c5N)C4)c3)ccc2CC1C(=O)NC1CCCc2ccccc21)C(C)(C)C

> <Shape>
0.257

> <Color>
0.080

> <Negative vol penalty>
0.000

$$$$

  -OEChem-04052303163D

 86 95  0     1  0  0  0  0  0999 V2000
  -30.3037  -32.7042   24.9658 C   0  0  0  0  0  0  0  0  0  0  0  0
  -29.9553  -31.5239   24.3169 C   0  0  0  0  0  0  0  0  0  0  0  0
  -24.5000   -8.5544   21.2966 C   0  0  0  0  0  0  0  0  0  0  0  0
  -23.4427  -10.6245   21.9549 C   0  0  0  0  0  0  0  0  0  0  0  0
  -29.3373  -33.4242   25.6670 C   0  0  0  0  0  0  0  0  0  0  0  0
  -28.6405  -31.0624   24.3697 C   0  0  0  0  0  0  0  0  0  0  0  0
  -26.9455  -29.5051   19.8590 C   0  0  0  0  0  0  0  0  0  0  0  0
  -29.1856  -19.3474   19.5033 C   0  0  0  0  0  0  0  0  0  0  0  0
  -27.0503  -19.1974   20.6236 C   0  0  0  0  0  0  0  0  0  0  0  0
  -29.4323  -18.0056   19.7939 C   0  0  0  0  0  0  0  0  0  0  0  0
  -27.2969  -17.8556   20.9141 C   0  0  0  0  0  0  0  0  0  0  0  0
  -23.7986   -7.8786   22.2950 C   0  0  0  0  0  0  0  0  0  0  0  0
  -22.7411   -9.9487   22.9533 C   0  0  0  0  0  0  0  0  0  0  0  0
  -27.3615  -28.2483   19.4218 C   0  0  0  0  0  0  0  0  0  0  0  0
  -20.6786   -6.6605   22.7584 C   0  0  0  0  0  0  0  0  0  0  0  0
  -20.0821   -5.4452   22.4224 C   0  0  0  0  0  0  0  0  0  0  0  0
  -25.2519  -27.3125   20.1240 C   0  0  0  0  0  0  0  0  0  0  0  0
  -21.4154   -4.3273   24.0986 C   0  0  0  0  0  0  0  0  0  0  0  0
  -24.3221   -9.9274   21.1266 C   0  0  0  0  0  0  0  0  0  0  0  0
  -24.6385  -10.8407   18.7658 C   0  0  0  0  0  0  0  0  0  0  0  0
  -28.0080  -32.9764   25.7204 C   0  0  0  0  0  0  0  0  0  0  0  0
  -25.6817  -29.6733   20.4430 C   0  0  0  0  0  0  0  0  0  0  0  0
  -27.6558  -31.7764   25.0734 C   0  0  0  0  0  0  0  0  0  0  0  0
  -24.8212  -28.5729   20.5655 C   0  0  0  0  0  0  0  0  0  0  0  0
  -27.9946  -19.9433   19.9183 C   0  0  0  0  0  0  0  0  0  0  0  0
  -28.4880  -17.2597   20.4992 C   0  0  0  0  0  0  0  0  0  0  0  0
  -22.9191   -8.5757   23.1233 C   0  0  0  0  0  0  0  0  0  0  0  0
  -26.5157  -27.1512   19.5569 C   0  0  0  0  0  0  0  0  0  0  0  0
  -21.6435   -6.7091   23.7645 C   0  0  0  0  0  0  0  0  0  0  0  0
  -20.4504   -4.2786   23.0924 C   0  0  0  0  0  0  0  0  0  0  0  0
  -22.0119   -5.5425   24.4346 C   0  0  0  0  0  0  0  0  0  0  0  0
  -25.0469  -10.6262   20.0958 C   0  0  0  0  0  0  0  0  0  0  0  0
  -25.6703  -11.5487   18.1997 C   0  0  0  0  0  0  0  0  0  0  0  0
  -23.4340  -10.4363   18.1015 C   0  0  0  0  0  0  0  0  0  0  0  0
  -24.6349  -30.6088   23.2947 C   0  0  0  0  0  0  0  0  0  0  0  0
  -21.7327  -30.4218   21.8580 C   0  0  0  0  0  0  0  0  0  0  0  0
  -19.8082  -29.0817   19.3785 C   0  0  0  0  0  0  0  0  0  0  0  0
  -29.8686  -15.1530   20.4557 C   0  0  0  0  0  0  0  0  0  0  0  0
  -27.0087  -33.7638   26.5303 C   0  0  0  0  0  0  0  0  0  0  0  0
  -25.2375  -31.0406   20.8851 C   0  0  0  0  0  0  0  0  0  0  0  0
  -23.4467  -28.7043   21.1670 C   0  0  0  0  0  0  0  0  0  0  0  0
  -25.5572  -33.4031   26.2244 C   0  0  0  0  0  0  0  0  0  0  0  0
  -30.4028  -12.1946   18.5479 C   0  0  0  0  0  0  0  0  0  0  0  0
  -25.3791  -31.8885   26.1914 C   0  0  0  0  0  0  0  0  0  0  0  0
  -29.0510  -11.4791   18.6022 C   0  0  0  0  0  0  0  0  0  0  0  0
  -27.6940  -23.2556   18.3029 C   0  0  0  0  0  0  0  0  0  0  0  0
  -30.7262  -12.8966   19.8656 C   0  0  0  0  0  0  0  0  0  0  0  0
  -28.3261  -21.8744   18.4152 C   0  0  0  0  0  0  0  0  0  0  0  0
  -28.3317  -13.0911   20.4109 C   0  0  0  0  0  0  0  0  0  0  0  0
  -26.2347  -31.2563   25.0870 C   0  0  1  0  0  0  0  0  0  0  0  0
  -24.1307  -30.9991   21.9342 C   0  0  1  0  0  0  0  0  0  0  0  0
  -27.9325  -12.4235   19.0847 C   0  0  2  0  0  0  0  0  0  0  0  0
  -27.4208  -23.6484   19.7626 C   0  0  1  0  0  0  0  0  0  0  0  0
  -26.9253  -22.2708   20.3813 C   0  0  0  0  0  0  0  0  0  0  0  0
  -28.7353  -24.1643   20.3991 C   0  0  0  0  0  0  0  0  0  0  0  0
  -25.4307  -22.0176   20.0860 C   0  0  0  0  0  0  0  0  0  0  0  0
  -27.1687  -22.2410   21.8996 C   0  0  0  0  0  0  0  0  0  0  0  0
  -17.4643  -29.0893   18.4823 C   0  0  0  0  0  0  0  0  0  0  0  0
  -20.8512  -28.6168   24.1547 C   0  0  0  0  0  0  0  0  0  0  0  0
  -18.8992  -27.9081   22.7564 C   0  0  0  0  0  0  0  0  0  0  0  0
  -19.1443  -30.2964   23.4337 C   0  0  0  0  0  0  0  0  0  0  0  0
  -20.6872  -30.1569   16.7650 C   0  0  0  0  0  0  0  0  0  0  0  0
  -26.3960  -24.7911   19.8250 C   0  0  0  0  0  0  0  0  0  1  0  0
  -20.6951  -29.3397   21.6810 C   0  0  1  0  0  0  0  0  0  0  0  0
  -18.8451  -29.7206   18.3944 C   0  0  2  0  0  0  0  0  0  0  0  0
  -19.9240  -29.0371   22.9969 C   0  0  0  0  0  0  0  0  0  0  0  0
  -26.2449  -11.1549   20.3590 N   0  0  0  0  0  0  0  0  0  0  0  0
  -26.5981  -11.7087   19.1865 N   0  0  0  0  0  0  0  0  0  0  0  0
  -27.7500  -21.2775   19.6312 N   0  0  3  0  0  0  0  0  0  0  0  0
  -23.0606  -30.0606   21.5900 N   0  0  0  0  0  0  0  0  0  0  0  0
  -29.6240  -13.7776   20.2577 N   0  0  0  0  0  0  0  0  0  0  0  0
  -25.8655  -12.0438   16.9591 N   0  0  0  0  0  0  0  0  0  0  0  0
  -22.4785   -9.7155   18.8307 N   0  0  0  0  0  0  0  0  0  0  0  0
  -28.7386  -15.8967   20.7943 N   0  0  0  0  0  0  0  0  0  0  0  0
  -25.6130  -31.4475   23.7941 N   0  0  0  0  0  0  0  0  0  0  0  0
  -19.8448  -29.7663   20.5749 N   0  0  0  0  0  0  0  0  0  0  0  0
  -19.3470  -29.5607   17.0003 N   0  3  0  0  0  0  0  0  0  0  0  0
  -23.2189  -10.6918   16.8924 O   0  0  0  0  0  0  0  0  0  0  0  0
  -24.1699  -29.6208   23.8509 O   0  0  0  0  0  0  0  0  0  0  0  0
  -21.3771  -31.5482   22.2137 O   0  0  0  0  0  0  0  0  0  0  0  0
  -20.4600  -28.0739   19.1139 O   0  0  0  0  0  0  0  0  0  0  0  0
  -30.9922  -15.6402   20.3073 O   0  0  0  0  0  0  0  0  0  0  0  0
  -22.2343   -7.9165   24.0975 O   0  0  0  0  0  0  0  0  0  0  0  0
  -26.9195  -25.9232   19.1316 O   0  0  0  0  0  0  0  0  0  1  0  0
  -19.8764   -3.1120   22.7707 F   0  0  0  0  0  0  0  0  0  0  0  0
  -22.9375   -5.5832   25.4028 F   0  0  0  0  0  0  0  0  0  0  0  0
  1  2  1  0  0  0  0
  1  5  2  0  0  0  0
  2  6  2  0  0  0  0
  3 12  2  0  0  0  0
  3 19  1  0  0  0  0
  4 13  1  0  0  0  0
  4 19  2  0  0  0  0
  5 21  1  0  0  0  0
  6 23  1  0  0  0  0
  7 14  2  0  0  0  0
  7 22  1  0  0  0  0
  8 10  2  0  0  0  0
  8 25  1  0  0  0  0
  9 11  1  0  0  0  0
  9 25  2  0  0  0  0
 10 26  1  0  0  0  0
 11 26  2  0  0  0  0
 12 27  1  0  0  0  0
 13 27  2  0  0  0  0
 14 28  1  0  0  0  0
 15 16  2  0  0  0  0
 15 29  1  0  0  0  0
 16 30  1  0  0  0  0
 17 24  1  0  0  0  0
 17 28  2  0  0  0  0
 18 30  2  0  0  0  0
 18 31  1  0  0  0  0
 19 32  1  0  0  0  0
 20 32  1  0  0  0  0
 20 33  2  0  0  0  0
 20 34  1  0  0  0  0
 21 23  2  0  0  0  0
 21 39  1  0  0  0  0
 22 24  2  0  0  0  0
 22 40  1  0  0  0  0
 23 50  1  0  0  0  0
 24 41  1  0  0  0  0
 25 69  1  0  0  0  0
 26 74  1  0  0  0  0
 27 83  1  0  0  0  0
 28 84  1  0  0  0  0
 29 31  2  0  0  0  0
 29 83  1  0  0  0  0
 30 85  1  0  0  0  0
 31 86  1  0  0  0  0
 32 67  2  0  0  0  0
 33 68  1  0  0  0  0
 33 72  1  0  0  0  0
 34 73  1  0  0  0  0
 34 78  2  0  0  0  0
 35 51  1  0  0  0  0
 35 75  1  0  0  0  0
 35 79  2  0  0  0  0
 36 64  1  0  0  0  0
 36 70  1  0  0  0  0
 36 80  2  0  0  0  0
 37 65  1  0  0  0  0
 37 76  1  0  0  0  0
 37 81  2  0  0  0  0
 38 71  1  0  0  0  0
 38 74  1  0  0  0  0
 38 82  2  0  0  0  0
 39 42  1  0  0  0  0
 40 51  1  0  0  0  0
 41 70  1  0  0  0  0
 42 44  1  0  0  0  0
 43 45  1  0  0  0  0
 43 47  1  0  0  0  0
 44 50  1  0  0  0  0
 45 52  1  0  0  0  0
 46 48  1  0  0  0  0
 46 53  1  0  0  0  0
 47 71  1  0  0  0  0
 48 69  1  0  0  0  0
 49 52  1  0  0  0  0
 49 71  1  0  0  0  0
 50 75  1  0  0  0  0
 51 70  1  0  0  0  0
 52 68  1  0  0  0  0
 53 54  1  0  0  0  0
 53 55  1  0  0  0  0
 53 63  1  0  0  0  0
 54 56  1  0  0  0  0
 54 57  1  0  0  0  0
 54 69  1  0  0  0  0
 58 65  1  0  0  0  0
 59 66  1  0  0  0  0
 60 66  1  0  0  0  0
 61 66  1  0  0  0  0
 62 77  1  0  0  0  0
 63 84  1  0  0  0  0
 64 66  1  0  0  0  0
 64 76  1  0  0  0  0
 65 77  1  0  0  0  0
 67 68  1  0  0  0  0
M  CHG  1  77   1
M  ISO  4  38 100  63 101  74 100  84 101
M  END
> <Batch ID>
0148

> <Smiles>
CNC(C)C(=O)NC(C(=O)N1Cc2cc([101O:1][101CH2:1]C3(C)CCN(c4ccc([100NH:0][100C:0](=O)N5CCCC(n6nc(-c7ccc(Oc8ccc(F)cc8F)cc7)c(C(N)=O)c6N)C5)cc4)C3(C)C)ccc2CC1C(=O)NC1CCCc2ccccc21)C(C)(C)C

> <Shape>
0.342

> <Color>
0.093

> <Negative vol penalty>
0.000

$$$$
