
  -OEChem-04052303193D

 85 94  0     1  0  0  0  0  0999 V2000
  -37.2359  -12.9646   23.8511 C   0  0  0  0  0  0  0  0  0  0  0  0
  -36.6548  -14.1896   23.5394 C   0  0  0  0  0  0  0  0  0  0  0  0
  -19.3932  -28.9064   23.0606 C   0  0  0  0  0  0  0  0  0  0  0  0
  -20.3421  -26.7261   22.6329 C   0  0  0  0  0  0  0  0  0  0  0  0
  -36.7759  -11.8000   23.2381 C   0  0  0  0  0  0  0  0  0  0  0  0
  -35.6139  -14.2507   22.6136 C   0  0  0  0  0  0  0  0  0  0  0  0
  -30.8167  -18.0563   22.7134 C   0  0  0  0  0  0  0  0  0  0  0  0
  -18.1105  -28.3666   22.9670 C   0  0  0  0  0  0  0  0  0  0  0  0
  -19.0593  -26.1862   22.5392 C   0  0  0  0  0  0  0  0  0  0  0  0
  -30.5563  -19.2549   22.0505 C   0  0  0  0  0  0  0  0  0  0  0  0
  -16.0135  -26.5739   24.9220 C   0  0  0  0  0  0  0  0  0  0  0  0
  -15.0820  -26.9443   25.8919 C   0  0  0  0  0  0  0  0  0  0  0  0
  -28.5743  -27.4163   17.2118 C   0  0  0  0  0  0  0  0  0  0  0  0
  -29.3314  -18.0467   20.3596 C   0  0  0  0  0  0  0  0  0  0  0  0
  -13.6562  -27.8633   24.1715 C   0  0  0  0  0  0  0  0  0  0  0  0
  -20.5090  -28.0861   22.8935 C   0  0  0  0  0  0  0  0  0  0  0  0
  -29.2549  -26.1992   16.9192 C   0  0  0  0  0  0  0  0  0  0  0  0
  -22.6255  -28.7601   24.1481 C   0  0  0  0  0  0  0  0  0  0  0  0
  -35.7223  -11.8456   22.3115 C   0  0  0  0  0  0  0  0  0  0  0  0
  -30.3449  -16.8407   22.1976 C   0  0  0  0  0  0  0  0  0  0  0  0
  -35.1402  -13.0857   21.9865 C   0  0  0  0  0  0  0  0  0  0  0  0
  -29.5850  -16.8344   21.0192 C   0  0  0  0  0  0  0  0  0  0  0  0
  -17.9435  -27.0065   22.7063 C   0  0  0  0  0  0  0  0  0  0  0  0
  -29.8160  -19.2500   20.8719 C   0  0  0  0  0  0  0  0  0  0  0  0
  -15.7665  -26.8483   23.5769 C   0  0  0  0  0  0  0  0  0  0  0  0
  -13.9033  -27.5890   25.5166 C   0  0  0  0  0  0  0  0  0  0  0  0
  -14.5879  -27.4930   23.2016 C   0  0  0  0  0  0  0  0  0  0  0  0
  -21.8343  -28.6433   22.9896 C   0  0  0  0  0  0  0  0  0  0  0  0
  -23.7869  -29.3500   23.7128 C   0  0  0  0  0  0  0  0  0  0  0  0
  -28.7105  -25.1273   17.5917 C   0  0  0  0  0  0  0  0  0  0  0  0
  -27.5353  -27.2282   18.0966 C   0  0  0  0  0  0  0  0  0  0  0  0
  -30.3770  -26.1188   16.0243 C   0  0  0  0  0  0  0  0  0  0  0  0
  -22.3364  -28.3701   25.4972 C   0  0  0  0  0  0  0  0  0  0  0  0
  -31.7098  -14.1702   21.1443 C   0  0  0  0  0  0  0  0  0  0  0  0
  -28.6423  -13.1279   20.9836 C   0  0  0  0  0  0  0  0  0  0  0  0
  -25.3293  -13.9025   20.7170 C   0  0  0  0  0  0  0  0  0  0  0  0
  -26.5406  -29.5210   18.4125 C   0  0  0  0  0  0  0  0  0  0  0  0
  -35.2908  -10.5662   21.6394 C   0  0  0  0  0  0  0  0  0  0  0  0
  -30.6116  -15.5593   22.9388 C   0  0  0  0  0  0  0  0  0  0  0  0
  -29.0385  -15.5584   20.4348 C   0  0  0  0  0  0  0  0  0  0  0  0
  -33.9332  -10.6688   20.9491 C   0  0  0  0  0  0  0  0  0  0  0  0
  -25.4448  -32.3111   20.3338 C   0  0  0  0  0  0  0  0  0  0  0  0
  -33.8512  -11.9462   20.1195 C   0  0  0  0  0  0  0  0  0  0  0  0
  -24.4712  -31.6969   21.3423 C   0  0  0  0  0  0  0  0  0  0  0  0
  -29.7557  -21.7115   16.6809 C   0  0  0  0  0  0  0  0  0  0  0  0
  -25.3518  -31.6310   18.9691 C   0  0  0  0  0  0  0  0  0  0  0  0
  -29.7549  -23.2056   16.3645 C   0  0  0  0  0  0  0  0  0  0  0  0
  -28.9871  -22.8615   18.6337 C   0  0  0  0  0  0  0  0  0  0  0  0
  -24.5184  -29.5552   20.0015 C   0  0  0  0  0  0  0  0  0  0  0  0
  -33.9924  -13.1896   21.0058 C   0  0  1  0  0  0  0  0  0  0  0  0
  -30.5197  -14.3238   22.0486 C   0  0  1  0  0  0  0  0  0  0  0  0
  -29.8602  -21.6775   18.2029 C   0  0  1  0  0  0  0  0  0  0  0  0
  -24.6215  -30.1644   21.4093 C   0  0  2  0  0  0  0  0  0  0  0  0
  -23.0623  -12.8361   20.5733 C   0  0  0  0  0  0  0  0  0  0  0  0
  -29.1793  -12.3843   18.0735 C   0  0  0  0  0  0  0  0  0  0  0  0
  -26.7042  -12.2316   17.7285 C   0  0  0  0  0  0  0  0  0  0  0  0
  -27.8326  -10.7058   19.3476 C   0  0  0  0  0  0  0  0  0  0  0  0
  -24.4254  -15.2160   23.2104 C   0  0  0  0  0  0  0  0  0  0  0  0
  -29.4173  -20.3552   18.8043 C   0  0  0  0  0  0  0  0  0  1  0  0
  -27.5592  -13.1503   19.9321 C   0  0  1  0  0  0  0  0  0  0  0  0
  -24.1173  -13.4252   21.4966 C   0  0  2  0  0  0  0  0  0  0  0  0
  -27.8306  -12.1420   18.7802 C   0  0  0  0  0  0  0  0  0  0  0  0
  -22.4418  -29.1209   21.9001 N   0  0  0  0  0  0  0  0  0  0  0  0
  -23.6269  -29.5435   22.3722 N   0  0  0  0  0  0  0  0  0  0  0  0
  -29.1272  -23.8143   17.5346 N   0  0  3  0  0  0  0  0  0  0  0  0
  -29.3314  -14.3308   21.1930 N   0  0  0  0  0  0  0  0  0  0  0  0
  -25.5075  -30.1816   19.1103 N   0  0  0  0  0  0  0  0  0  0  0  0
  -24.9192  -29.7170   24.3497 N   0  0  0  0  0  0  0  0  0  0  0  0
  -30.1946  -25.8901   14.7084 N   0  0  0  0  0  0  0  0  0  0  0  0
  -21.0960  -27.7775   25.7702 N   0  0  0  0  0  0  0  0  0  0  0  0
  -26.6111  -28.1487   18.6500 N   0  0  0  0  0  0  0  0  0  0  0  0
  -32.7527  -13.4565   21.7033 N   0  0  0  0  0  0  0  0  0  0  0  0
  -26.3014  -12.9279   20.6370 N   0  0  0  0  0  0  0  0  0  0  0  0
  -31.6359  -26.2722   16.4812 N   0  3  0  0  0  0  0  0  0  0  0  0
  -23.5054  -14.5578   22.2474 N   0  3  0  0  0  0  0  0  0  0  0  0
  -23.1474  -28.5569   26.4358 O   0  0  0  0  0  0  0  0  0  0  0  0
  -31.6833  -14.6616   20.0220 O   0  0  0  0  0  0  0  0  0  0  0  0
  -28.8637  -12.0834   21.6015 O   0  0  0  0  0  0  0  0  0  0  0  0
  -25.4045  -15.0262   20.2249 O   0  0  0  0  0  0  0  0  0  0  0  0
  -27.3235  -30.1324   17.6808 O   0  0  0  0  0  0  0  0  0  0  0  0
  -16.6920  -26.4793   22.6151 O   0  0  0  0  0  0  0  0  0  0  0  0
  -29.5610  -20.4184   20.2226 O   0  0  0  0  0  0  0  0  0  1  0  0
  -13.0081  -27.9432   26.4479 F   0  0  0  0  0  0  0  0  0  0  0  0
  -14.3444  -27.7582   21.9108 F   0  0  0  0  0  0  0  0  0  0  0  0
  -27.3840  -25.5897   18.5710 S   0  0  0  0  0  0  0  0  0  0  0  0
  1  2  1  0  0  0  0
  1  5  2  0  0  0  0
  2  6  2  0  0  0  0
  3  8  2  0  0  0  0
  3 16  1  0  0  0  0
  4  9  1  0  0  0  0
  4 16  2  0  0  0  0
  5 19  1  0  0  0  0
  6 21  1  0  0  0  0
  7 10  2  0  0  0  0
  7 20  1  0  0  0  0
  8 23  1  0  0  0  0
  9 23  2  0  0  0  0
 10 24  1  0  0  0  0
 11 12  2  0  0  0  0
 11 25  1  0  0  0  0
 12 26  1  0  0  0  0
 13 17  1  0  0  0  0
 13 31  2  0  0  0  0
 14 22  1  0  0  0  0
 14 24  2  0  0  0  0
 15 26  2  0  0  0  0
 15 27  1  0  0  0  0
 16 28  1  0  0  0  0
 17 30  2  0  0  0  0
 17 32  1  0  0  0  0
 18 28  1  0  0  0  0
 18 29  2  0  0  0  0
 18 33  1  0  0  0  0
 19 21  2  0  0  0  0
 19 38  1  0  0  0  0
 20 22  2  0  0  0  0
 20 39  1  0  0  0  0
 21 50  1  0  0  0  0
 22 40  1  0  0  0  0
 23 81  1  0  0  0  0
 24 82  1  0  0  0  0
 25 27  2  0  0  0  0
 25 81  1  0  0  0  0
 26 83  1  0  0  0  0
 27 84  1  0  0  0  0
 28 63  2  0  0  0  0
 29 64  1  0  0  0  0
 29 68  1  0  0  0  0
 30 65  1  0  0  0  0
 30 85  1  0  0  0  0
 31 71  1  0  0  0  0
 31 85  1  0  0  0  0
 32 69  1  0  0  0  0
 32 74  2  0  0  0  0
 33 70  1  0  0  0  0
 33 76  2  0  0  0  0
 34 51  1  0  0  0  0
 34 72  1  0  0  0  0
 34 77  2  0  0  0  0
 35 60  1  0  0  0  0
 35 66  1  0  0  0  0
 35 78  2  0  0  0  0
 36 61  1  0  0  0  0
 36 73  1  0  0  0  0
 36 79  2  0  0  0  0
 37 67  1  0  0  0  0
 37 71  1  0  0  0  0
 37 80  2  0  0  0  0
 38 41  1  0  0  0  0
 39 51  1  0  0  0  0
 40 66  1  0  0  0  0
 41 43  1  0  0  0  0
 42 44  1  0  0  0  0
 42 46  1  0  0  0  0
 43 50  1  0  0  0  0
 44 53  1  0  0  0  0
 45 47  1  0  0  0  0
 45 52  1  0  0  0  0
 46 67  1  0  0  0  0
 47 65  1  0  0  0  0
 48 52  1  0  0  0  0
 48 65  1  0  0  0  0
 49 53  1  0  0  0  0
 49 67  1  0  0  0  0
 50 72  1  0  0  0  0
 51 66  1  0  0  0  0
 52 59  1  0  0  0  0
 53 64  1  0  0  0  0
 54 61  1  0  0  0  0
 55 62  1  0  0  0  0
 56 62  1  0  0  0  0
 57 62  1  0  0  0  0
 58 75  1  0  0  0  0
 59 82  1  0  0  0  0
 60 62  1  0  0  0  0
 60 73  1  0  0  0  0
 61 75  1  0  0  0  0
 63 64  1  0  0  0  0
M  CHG  2  74   1  75   1
M  ISO  4  37 100  59 101  71 100  82 101
M  END
> <Batch ID>
0149

> <Smiles>
CNC(C)C(=O)NC(C(=O)N1Cc2cc([101O:1][101CH2:1]C3CCN(c4sc([100NH:0][100C:0](=O)N5CCCC(n6nc(-c7ccc(Oc8ccc(F)cc8F)cc7)c(C(N)=O)c6N)C5)cc4C(=N)N)C3)ccc2CC1C(=O)NC1CCCc2ccccc21)C(C)(C)C

> <Shape>
0.265

> <Color>
0.076

> <Negative vol penalty>
0.000

$$$$

  -OEChem-04052303193D

 86 95  0     1  0  0  0  0  0999 V2000
  -27.6365  -37.7373   22.6061 C   0  0  0  0  0  0  0  0  0  0  0  0
  -28.1539  -36.5592   22.0772 C   0  0  0  0  0  0  0  0  0  0  0  0
  -23.8758   -9.5067   22.3966 C   0  0  0  0  0  0  0  0  0  0  0  0
  -23.2349  -10.0268   20.1260 C   0  0  0  0  0  0  0  0  0  0  0  0
  -26.6647  -37.6842   23.6044 C   0  0  0  0  0  0  0  0  0  0  0  0
  -27.7005  -35.3271   22.5472 C   0  0  0  0  0  0  0  0  0  0  0  0
  -27.0020  -30.1799   19.3032 C   0  0  0  0  0  0  0  0  0  0  0  0
  -23.0456   -8.3861   22.3743 C   0  0  0  0  0  0  0  0  0  0  0  0
  -22.4047   -8.9062   20.1036 C   0  0  0  0  0  0  0  0  0  0  0  0
  -27.8044  -29.0497   19.1529 C   0  0  0  0  0  0  0  0  0  0  0  0
  -23.1448   -5.2366   21.1481 C   0  0  0  0  0  0  0  0  0  0  0  0
  -23.6539   -4.0424   21.6585 C   0  0  0  0  0  0  0  0  0  0  0  0
  -26.5326  -27.9262   20.8674 C   0  0  0  0  0  0  0  0  0  0  0  0
  -21.8824   -3.9891   23.3005 C   0  0  0  0  0  0  0  0  0  0  0  0
  -23.9704  -10.3271   21.2725 C   0  0  0  0  0  0  0  0  0  0  0  0
  -26.1845  -11.5459   20.9258 C   0  0  0  0  0  0  0  0  0  0  0  0
  -26.1922  -36.4509   24.0801 C   0  0  0  0  0  0  0  0  0  0  0  0
  -25.9640  -30.1956   20.2460 C   0  0  0  0  0  0  0  0  0  0  0  0
  -26.7224  -35.2575   23.5538 C   0  0  0  0  0  0  0  0  0  0  0  0
  -25.7169  -29.0569   21.0259 C   0  0  0  0  0  0  0  0  0  0  0  0
  -22.3100   -8.0858   21.2278 C   0  0  0  0  0  0  0  0  0  0  0  0
  -27.5716  -27.9237   19.9371 C   0  0  0  0  0  0  0  0  0  0  0  0
  -22.0046   -5.8070   21.7139 C   0  0  0  0  0  0  0  0  0  0  0  0
  -23.0226   -3.4187   22.7347 C   0  0  0  0  0  0  0  0  0  0  0  0
  -21.3734   -5.1833   22.7901 C   0  0  0  0  0  0  0  0  0  0  0  0
  -24.8274  -11.4852   21.2951 C   0  0  0  0  0  0  0  0  0  0  0  0
  -28.2617  -18.4090   18.0950 C   0  0  0  0  0  0  0  0  0  0  0  0
  -27.3465  -18.8282   19.0377 C   0  0  0  0  0  0  0  0  0  0  0  0
  -26.5365  -12.8583   21.1261 C   0  0  0  0  0  0  0  0  0  0  0  0
  -28.2667  -20.7672   18.5865 C   0  0  0  0  0  0  0  0  0  0  0  0
  -27.0495  -10.5086   20.4445 C   0  0  0  0  0  0  0  0  0  0  0  0
  -25.3132  -31.9178   22.8371 C   0  0  0  0  0  0  0  0  0  0  0  0
  -28.3971  -24.4597   19.2424 C   0  0  0  0  0  0  0  0  0  0  0  0
  -22.5290  -30.2548   22.7668 C   0  0  0  0  0  0  0  0  0  0  0  0
  -20.8511  -27.4548   21.7712 C   0  0  0  0  0  0  0  0  0  0  0  0
  -25.4913  -18.3074   20.6605 C   0  0  0  0  0  0  0  0  0  0  0  0
  -25.1751  -36.4438   25.1937 C   0  0  0  0  0  0  0  0  0  0  0  0
  -25.0905  -31.4130   20.3772 C   0  0  0  0  0  0  0  0  0  0  0  0
  -24.6023  -29.0156   22.0381 C   0  0  0  0  0  0  0  0  0  0  0  0
  -24.4770  -35.0981   25.3725 C   0  0  0  0  0  0  0  0  0  0  0  0
  -30.3368  -15.7339   16.5732 C   0  0  0  0  0  0  0  0  0  0  0  0
  -29.6693  -16.5023   15.4467 C   0  0  0  0  0  0  0  0  0  0  0  0
  -24.0627  -16.6147   23.4481 C   0  0  0  0  0  0  0  0  0  0  0  0
  -25.4956  -33.9626   25.3605 C   0  0  0  0  0  0  0  0  0  0  0  0
  -29.9759  -16.5488   17.8060 C   0  0  0  0  0  0  0  0  0  0  0  0
  -28.3164  -16.8966   16.0282 C   0  0  0  0  0  0  0  0  0  0  0  0
  -24.2459  -15.1343   23.1061 C   0  0  0  0  0  0  0  0  0  0  0  0
  -23.7468  -17.4484   22.2077 C   0  0  0  0  0  0  0  0  0  0  0  0
  -24.8773  -15.8115   20.7546 C   0  0  0  0  0  0  0  0  0  0  0  0
  -26.2380  -33.9017   24.0202 C   0  0  1  0  0  0  0  0  0  0  0  0
  -28.5372  -17.0317   17.5486 C   0  0  0  0  0  0  0  0  0  0  0  0
  -24.3882  -31.5017   21.7286 C   0  0  1  0  0  0  0  0  0  0  0  0
  -25.2612  -14.9415   21.9626 C   0  0  2  0  0  0  0  0  0  0  0  0
  -18.5957  -26.3614   21.8947 C   0  0  0  0  0  0  0  0  0  0  0  0
  -23.0743  -29.4625   25.6625 C   0  0  0  0  0  0  0  0  0  0  0  0
  -21.3522  -27.6614   25.4208 C   0  0  0  0  0  0  0  0  0  0  0  0
  -20.6943  -30.0548   25.1735 C   0  0  0  0  0  0  0  0  0  0  0  0
  -20.5445  -27.4896   18.8278 C   0  0  0  0  0  0  0  0  0  0  0  0
  -27.8462  -23.0664   19.4597 C   0  0  0  0  0  0  0  0  0  0  0  0
  -27.7502  -25.5557   20.0668 C   0  0  0  0  0  0  0  0  0  1  0  0
  -22.0498  -28.9471   23.3493 C   0  0  1  0  0  0  0  0  0  0  0  0
  -19.5066  -27.2751   21.0896 C   0  0  2  0  0  0  0  0  0  0  0  0
  -21.8149  -29.0326   24.8839 C   0  0  0  0  0  0  0  0  0  0  0  0
  -24.3499  -12.6652   21.6997 N   0  0  0  0  0  0  0  0  0  0  0  0
  -27.3481  -20.1800   19.3212 N   0  0  0  0  0  0  0  0  0  0  0  0
  -25.4128  -13.4797   21.5858 N   0  0  0  0  0  0  0  0  0  0  0  0
  -23.7798  -30.2329   22.1337 N   0  0  0  0  0  0  0  0  0  0  0  0
  -24.7528  -17.2178   21.1687 N   0  0  0  0  0  0  0  0  0  0  0  0
  -27.6947  -13.5298   20.9523 N   0  0  0  0  0  0  0  0  0  0  0  0
  -26.5260   -9.2169   20.2971 N   0  0  0  0  0  0  0  0  0  0  0  0
  -26.4418  -17.9621   19.7004 N   0  0  0  0  0  0  0  0  0  0  0  0
  -28.5398  -22.1272   18.6159 N   0  0  0  0  0  0  0  0  0  0  0  0
  -25.4059  -33.2858   23.0090 N   0  0  0  0  0  0  0  0  0  0  0  0
  -20.8668  -28.5685   22.5840 N   0  0  0  0  0  0  0  0  0  0  0  0
  -19.6881  -26.6823   19.7344 N   0  3  0  0  0  0  0  0  0  0  0  0
  -28.2554  -10.7175   20.1693 O   0  0  0  0  0  0  0  0  0  0  0  0
  -25.8983  -31.0611   23.4894 O   0  0  0  0  0  0  0  0  0  0  0  0
  -29.3089  -24.6988   18.4517 O   0  0  0  0  0  0  0  0  0  0  0  0
  -21.8165  -31.2571   22.8635 O   0  0  0  0  0  0  0  0  0  0  0  0
  -21.7920  -26.6822   21.6026 O   0  0  0  0  0  0  0  0  0  0  0  0
  -25.3138  -19.4582   21.0681 O   0  0  0  0  0  0  0  0  0  0  0  0
  -21.5000   -6.9922   21.2056 O   0  0  0  0  0  0  0  0  0  0  0  0
  -28.3538  -26.8194   19.7928 O   0  0  0  0  0  0  0  0  0  1  0  0
  -23.5107   -2.2712   23.2237 F   0  0  0  0  0  0  0  0  0  0  0  0
  -20.2769   -5.7259   23.3371 F   0  0  0  0  0  0  0  0  0  0  0  0
  -29.1652  -19.7539   17.5325 S   0  0  0  0  0  0  0  0  0  0  0  0
  1  2  1  0  0  0  0
  1  5  2  0  0  0  0
  2  6  2  0  0  0  0
  3  8  2  0  0  0  0
  3 15  1  0  0  0  0
  4  9  1  0  0  0  0
  4 15  2  0  0  0  0
  5 17  1  0  0  0  0
  6 19  1  0  0  0  0
  7 10  2  0  0  0  0
  7 18  1  0  0  0  0
  8 21  1  0  0  0  0
  9 21  2  0  0  0  0
 10 22  1  0  0  0  0
 11 12  2  0  0  0  0
 11 23  1  0  0  0  0
 12 24  1  0  0  0  0
 13 20  1  0  0  0  0
 13 22  2  0  0  0  0
 14 24  2  0  0  0  0
 14 25  1  0  0  0  0
 15 26  1  0  0  0  0
 16 26  1  0  0  0  0
 16 29  2  0  0  0  0
 16 31  1  0  0  0  0
 17 19  2  0  0  0  0
 17 37  1  0  0  0  0
 18 20  2  0  0  0  0
 18 38  1  0  0  0  0
 19 50  1  0  0  0  0
 20 39  1  0  0  0  0
 21 82  1  0  0  0  0
 22 83  1  0  0  0  0
 23 25  2  0  0  0  0
 23 82  1  0  0  0  0
 24 84  1  0  0  0  0
 25 85  1  0  0  0  0
 26 64  2  0  0  0  0
 27 28  2  0  0  0  0
 27 51  1  0  0  0  0
 27 86  1  0  0  0  0
 28 65  1  0  0  0  0
 28 71  1  0  0  0  0
 29 66  1  0  0  0  0
 29 69  1  0  0  0  0
 30 65  2  0  0  0  0
 30 72  1  0  0  0  0
 30 86  1  0  0  0  0
 31 70  1  0  0  0  0
 31 76  2  0  0  0  0
 32 52  1  0  0  0  0
 32 73  1  0  0  0  0
 32 77  2  0  0  0  0
 33 59  1  0  0  0  0
 33 60  1  0  0  0  0
 33 78  2  0  0  0  0
 34 61  1  0  0  0  0
 34 67  1  0  0  0  0
 34 79  2  0  0  0  0
 35 62  1  0  0  0  0
 35 74  1  0  0  0  0
 35 80  2  0  0  0  0
 36 68  1  0  0  0  0
 36 71  1  0  0  0  0
 36 81  2  0  0  0  0
 37 40  1  0  0  0  0
 38 52  1  0  0  0  0
 39 67  1  0  0  0  0
 40 44  1  0  0  0  0
 41 42  1  0  0  0  0
 41 45  1  0  0  0  0
 42 46  1  0  0  0  0
 43 47  1  0  0  0  0
 43 48  1  0  0  0  0
 44 50  1  0  0  0  0
 45 51  1  0  0  0  0
 46 51  1  0  0  0  0
 47 53  1  0  0  0  0
 48 68  1  0  0  0  0
 49 53  1  0  0  0  0
 49 68  1  0  0  0  0
 50 73  1  0  0  0  0
 52 67  1  0  0  0  0
 53 66  1  0  0  0  0
 54 62  1  0  0  0  0
 55 63  1  0  0  0  0
 56 63  1  0  0  0  0
 57 63  1  0  0  0  0
 58 75  1  0  0  0  0
 59 72  1  0  0  0  0
 60 83  1  0  0  0  0
 61 63  1  0  0  0  0
 61 74  1  0  0  0  0
 62 75  1  0  0  0  0
 64 66  1  0  0  0  0
M  CHG  1  75   1
M  ISO  4  36 100  60 101  71 100  83 101
M  END
> <Batch ID>
0149

> <Smiles>
CNC(C)C(=O)NC(C(=O)N1Cc2cc([101O:1][101CH2:1]C(=O)CNc3nc([100NH:0][100C:0](=O)N4CCCC(n5nc(-c6ccc(Oc7ccc(F)cc7F)cc6)c(C(N)=O)c5N)C4)c(C4CCCC4)s3)ccc2CC1C(=O)NC1CCCc2ccccc21)C(C)(C)C

> <Shape>
0.322

> <Color>
0.101

> <Negative vol penalty>
0.000

$$$$

  -OEChem-04052303193D

 84 92  0     1  0  0  0  0  0999 V2000
  -22.0285  -29.7707   13.6849 C   0  0  0  0  0  0  0  0  0  0  0  0
  -22.9819  -29.1367   14.4752 C   0  0  0  0  0  0  0  0  0  0  0  0
  -23.5906   -9.6385   20.9507 C   0  0  0  0  0  0  0  0  0  0  0  0
  -24.2037  -10.4208   23.1528 C   0  0  0  0  0  0  0  0  0  0  0  0
  -21.8595  -31.1520   13.7719 C   0  0  0  0  0  0  0  0  0  0  0  0
  -23.7675  -29.8837   15.3522 C   0  0  0  0  0  0  0  0  0  0  0  0
  -24.1678  -27.7294   19.9177 C   0  0  0  0  0  0  0  0  0  0  0  0
  -23.0140   -8.5009   21.5153 C   0  0  0  0  0  0  0  0  0  0  0  0
  -23.6270   -9.2832   23.7174 C   0  0  0  0  0  0  0  0  0  0  0  0
  -25.0562  -26.6621   20.0424 C   0  0  0  0  0  0  0  0  0  0  0  0
  -24.0576   -5.5396   22.7666 C   0  0  0  0  0  0  0  0  0  0  0  0
  -24.3330   -4.3097   22.1691 C   0  0  0  0  0  0  0  0  0  0  0  0
  -30.8049  -20.1942   20.7893 C   0  0  0  0  0  0  0  0  0  0  0  0
  -30.9450  -18.8017   20.5219 C   0  0  0  0  0  0  0  0  0  0  0  0
  -26.6945  -28.1464   21.0078 C   0  0  0  0  0  0  0  0  0  0  0  0
  -21.9756   -3.9841   21.7525 C   0  0  0  0  0  0  0  0  0  0  0  0
  -24.1856  -10.5985   21.7694 C   0  0  0  0  0  0  0  0  0  0  0  0
  -24.1527  -13.0053   20.9245 C   0  0  0  0  0  0  0  0  0  0  0  0
  -22.6368  -31.9150   14.6574 C   0  0  0  0  0  0  0  0  0  0  0  0
  -24.5408  -29.0175   20.3277 C   0  0  0  0  0  0  0  0  0  0  0  0
  -23.6096  -31.2766   15.4501 C   0  0  0  0  0  0  0  0  0  0  0  0
  -25.8081  -29.2278   20.8896 C   0  0  0  0  0  0  0  0  0  0  0  0
  -23.0321   -8.3232   22.8987 C   0  0  0  0  0  0  0  0  0  0  0  0
  -26.3208  -26.8711   20.5849 C   0  0  0  0  0  0  0  0  0  0  0  0
  -22.7411   -5.9917   22.8572 C   0  0  0  0  0  0  0  0  0  0  0  0
  -23.2921   -3.5319   21.6620 C   0  0  0  0  0  0  0  0  0  0  0  0
  -21.7001   -5.2140   22.3501 C   0  0  0  0  0  0  0  0  0  0  0  0
  -24.7819  -11.7736   21.1867 C   0  0  0  0  0  0  0  0  0  0  0  0
  -25.1402  -13.7850   20.3736 C   0  0  0  0  0  0  0  0  0  0  0  0
  -29.5864  -20.4916   21.3590 C   0  0  0  0  0  0  0  0  0  0  0  0
  -29.8283  -18.0878   20.8977 C   0  0  0  0  0  0  0  0  0  0  0  0
  -31.0335  -22.6988   22.8375 C   0  0  0  0  0  0  0  0  0  0  0  0
  -22.7968  -13.4087   21.1582 C   0  0  0  0  0  0  0  0  0  0  0  0
  -29.8733  -22.8258   22.1729 C   0  0  0  0  0  0  0  0  0  0  0  0
  -24.8955  -31.8204   18.8712 C   0  0  0  0  0  0  0  0  0  0  0  0
  -25.3705  -32.8917   21.8960 C   0  0  0  0  0  0  0  0  0  0  0  0
  -26.2939  -32.1916   25.1059 C   0  0  0  0  0  0  0  0  0  0  0  0
  -30.3687  -15.6985   20.3098 C   0  0  0  0  0  0  0  0  0  0  0  0
  -22.4506  -33.4115   14.6821 C   0  0  0  0  0  0  0  0  0  0  0  0
  -23.5612  -30.1529   20.2111 C   0  0  0  0  0  0  0  0  0  0  0  0
  -26.2496  -30.5875   21.3638 C   0  0  0  0  0  0  0  0  0  0  0  0
  -23.0646  -34.0815   15.9086 C   0  0  0  0  0  0  0  0  0  0  0  0
  -29.7697  -12.5637   18.7313 C   0  0  0  0  0  0  0  0  0  0  0  0
  -24.4761  -33.5573   16.1529 C   0  0  0  0  0  0  0  0  0  0  0  0
  -28.3669  -12.1800   19.2078 C   0  0  0  0  0  0  0  0  0  0  0  0
  -30.5676  -13.2691   19.8266 C   0  0  0  0  0  0  0  0  0  0  0  0
  -28.4954  -14.0420   20.9118 C   0  0  0  0  0  0  0  0  0  0  0  0
  -24.4640  -32.0494   16.4315 C   0  0  1  0  0  0  0  0  0  0  0  0
  -24.2337  -31.5221   20.1868 C   0  0  1  0  0  0  0  0  0  0  0  0
  -27.6308  -13.3867   19.8223 C   0  0  2  0  0  0  0  0  0  0  0  0
  -26.6194  -33.2794   27.3439 C   0  0  0  0  0  0  0  0  0  0  0  0
  -27.9888  -34.1155   20.9176 C   0  0  0  0  0  0  0  0  0  0  0  0
  -28.6973  -34.3380   23.3086 C   0  0  0  0  0  0  0  0  0  0  0  0
  -26.6841  -35.5607   22.4872 C   0  0  0  0  0  0  0  0  0  0  0  0
  -28.2988  -25.9152   18.5379 C   0  0  0  0  0  0  0  0  0  0  0  0
  -24.2360  -30.4791   26.3673 C   0  0  0  0  0  0  0  0  0  0  0  0
  -29.3015  -24.1984   21.8888 C   0  0  0  0  0  0  0  0  0  0  0  0
  -29.0966  -24.4356   20.3812 C   0  0  0  0  0  0  0  0  0  0  0  0
  -26.5713  -33.0540   22.7964 C   0  0  1  0  0  0  0  0  0  0  0  0
  -25.6507  -32.5364   26.4371 C   0  0  2  0  0  0  0  0  0  0  0  0
  -27.4781  -34.2417   22.3668 C   0  0  0  0  0  0  0  0  0  0  0  0
  -28.4750  -25.8168   20.0588 C   0  0  1  0  0  0  0  0  0  1  0  0
  -26.0695  -11.7664   20.8313 N   0  0  0  0  0  0  0  0  0  0  0  0
  -26.2572  -13.0032   20.3402 N   0  0  0  0  0  0  0  0  0  0  0  0
  -25.2584  -31.6669   21.2228 N   0  0  0  0  0  0  0  0  0  0  0  0
  -29.8099  -14.4038   20.3586 N   0  0  0  0  0  0  0  0  0  0  0  0
  -25.1532  -15.0561   19.9192 N   0  0  0  0  0  0  0  0  0  0  0  0
  -21.9140  -12.4835   21.7318 N   0  0  0  0  0  0  0  0  0  0  0  0
  -29.1350  -21.7578   21.7417 N   0  0  0  0  0  0  0  0  0  0  0  0
  -29.5430  -16.7023   20.8150 N   0  0  0  0  0  0  0  0  0  0  0  0
  -24.0362  -31.7898   17.7895 N   0  0  0  0  0  0  0  0  0  0  0  0
  -26.0511  -33.1604   24.1553 N   0  0  0  0  0  0  0  0  0  0  0  0
  -25.2099  -31.2961   27.1360 N   0  3  0  0  0  0  0  0  0  0  0  0
  -22.3763  -14.5501   20.8519 O   0  0  0  0  0  0  0  0  0  0  0  0
  -26.0965  -32.0620   18.8401 O   0  0  0  0  0  0  0  0  0  0  0  0
  -24.5581  -33.8149   21.7991 O   0  0  0  0  0  0  0  0  0  0  0  0
  -26.9496  -31.1674   24.9284 O   0  0  0  0  0  0  0  0  0  0  0  0
  -31.4856  -15.9055   19.8284 O   0  0  0  0  0  0  0  0  0  0  0  0
  -29.4036  -26.7923   20.5327 O   0  0  0  0  0  0  0  0  0  0  0  0
  -22.4693   -7.2134   23.4500 O   0  0  0  0  0  0  0  0  0  0  0  0
  -27.1900  -25.8312   20.7072 O   0  0  0  0  0  0  0  0  0  1  0  0
  -23.5569   -2.3516   21.0869 F   0  0  0  0  0  0  0  0  0  0  0  0
  -20.4335   -5.6436   22.4331 F   0  0  0  0  0  0  0  0  0  0  0  0
  -28.6176  -19.0954   21.5695 S   0  0  0  0  0  0  0  0  0  0  0  0
  1  2  1  0  0  0  0
  1  5  2  0  0  0  0
  2  6  2  0  0  0  0
  3  8  2  0  0  0  0
  3 17  1  0  0  0  0
  4  9  1  0  0  0  0
  4 17  2  0  0  0  0
  5 19  1  0  0  0  0
  6 21  1  0  0  0  0
  7 10  2  0  0  0  0
  7 20  1  0  0  0  0
  8 23  1  0  0  0  0
  9 23  2  0  0  0  0
 10 24  1  0  0  0  0
 11 12  2  0  0  0  0
 11 25  1  0  0  0  0
 12 26  1  0  0  0  0
 13 14  1  0  0  0  0
 13 30  2  0  0  0  0
 14 31  2  0  0  0  0
 15 22  1  0  0  0  0
 15 24  2  0  0  0  0
 16 26  2  0  0  0  0
 16 27  1  0  0  0  0
 17 28  1  0  0  0  0
 18 28  1  0  0  0  0
 18 29  2  0  0  0  0
 18 33  1  0  0  0  0
 19 21  2  0  0  0  0
 19 39  1  0  0  0  0
 20 22  2  0  0  0  0
 20 40  1  0  0  0  0
 21 48  1  0  0  0  0
 22 41  1  0  0  0  0
 23 80  1  0  0  0  0
 24 81  1  0  0  0  0
 25 27  2  0  0  0  0
 25 80  1  0  0  0  0
 26 82  1  0  0  0  0
 27 83  1  0  0  0  0
 28 63  2  0  0  0  0
 29 64  1  0  0  0  0
 29 67  1  0  0  0  0
 30 69  1  0  0  0  0
 30 84  1  0  0  0  0
 31 70  1  0  0  0  0
 31 84  1  0  0  0  0
 32 34  2  0  0  0  0
 33 68  1  0  0  0  0
 33 74  2  0  0  0  0
 34 57  1  0  0  0  0
 34 69  1  0  0  0  0
 35 49  1  0  0  0  0
 35 71  1  0  0  0  0
 35 75  2  0  0  0  0
 36 59  1  0  0  0  0
 36 65  1  0  0  0  0
 36 76  2  0  0  0  0
 37 60  1  0  0  0  0
 37 72  1  0  0  0  0
 37 77  2  0  0  0  0
 38 66  1  0  0  0  0
 38 70  1  0  0  0  0
 38 78  2  0  0  0  0
 39 42  1  0  0  0  0
 40 49  1  0  0  0  0
 41 65  1  0  0  0  0
 42 44  1  0  0  0  0
 43 45  1  0  0  0  0
 43 46  1  0  0  0  0
 44 48  1  0  0  0  0
 45 50  1  0  0  0  0
 46 66  1  0  0  0  0
 47 50  1  0  0  0  0
 47 66  1  0  0  0  0
 48 71  1  0  0  0  0
 49 65  1  0  0  0  0
 50 64  1  0  0  0  0
 51 60  1  0  0  0  0
 52 61  1  0  0  0  0
 53 61  1  0  0  0  0
 54 61  1  0  0  0  0
 55 62  1  0  0  0  0
 56 73  1  0  0  0  0
 57 58  1  0  0  0  0
 58 62  1  0  0  0  0
 59 61  1  0  0  0  0
 59 72  1  0  0  0  0
 60 73  1  0  0  0  0
 62 79  1  0  0  0  0
 62 81  1  0  0  0  0
 63 64  1  0  0  0  0
M  CHG  1  73   1
M  ISO  4  38 100  62 101  70 100  81 101
M  END
> <Batch ID>
0149

> <Smiles>
C=C(CC[101C:1](C)(O)[101O:1]c1ccc2c(c1)CN(C(=O)C(NC(=O)C(C)NC)C(C)(C)C)C(C(=O)NC1CCCc3ccccc31)C2)Nc1ccc([100NH:0][100C:0](=O)N2CCCC(n3nc(-c4ccc(Oc5ccc(F)cc5F)cc4)c(C(N)=O)c3N)C2)s1

> <Shape>
0.324

> <Color>
0.175

> <Negative vol penalty>
0.000

$$$$

  -OEChem-04052303193D

 83 91  0     1  0  0  0  0  0999 V2000
  -25.6032  -30.2971   16.8119 C   0  0  0  0  0  0  0  0  0  0  0  0
  -25.3411  -28.9581   16.5399 C   0  0  0  0  0  0  0  0  0  0  0  0
  -27.7339  -23.1052   20.4390 C   0  0  0  0  0  0  0  0  0  0  0  0
  -29.3396  -23.3340   18.6484 C   0  0  0  0  0  0  0  0  0  0  0  0
  -25.7140  -30.7303   18.1325 C   0  0  0  0  0  0  0  0  0  0  0  0
  -25.1909  -28.0513   17.5885 C   0  0  0  0  0  0  0  0  0  0  0  0
  -21.4455  -23.2090   17.7599 C   0  0  0  0  0  0  0  0  0  0  0  0
  -27.7442  -24.4875   20.6249 C   0  0  0  0  0  0  0  0  0  0  0  0
  -29.3499  -24.7164   18.8342 C   0  0  0  0  0  0  0  0  0  0  0  0
  -21.6576  -21.8505   17.5291 C   0  0  0  0  0  0  0  0  0  0  0  0
  -30.0715  -28.2704   19.0751 C   0  0  0  0  0  0  0  0  0  0  0  0
  -31.3090  -28.9138   19.0869 C   0  0  0  0  0  0  0  0  0  0  0  0
  -25.2971  -12.3023   20.7073 C   0  0  0  0  0  0  0  0  0  0  0  0
  -24.0976  -12.9029   20.2559 C   0  0  0  0  0  0  0  0  0  0  0  0
  -21.9282  -21.4960   19.8998 C   0  0  0  0  0  0  0  0  0  0  0  0
  -31.9858  -27.5773   20.9824 C   0  0  0  0  0  0  0  0  0  0  0  0
  -28.5316  -22.5284   19.4508 C   0  0  0  0  0  0  0  0  0  0  0  0
  -27.6776  -20.3630   18.4070 C   0  0  0  0  0  0  0  0  0  0  0  0
  -25.5555  -29.8302   19.1980 C   0  0  0  0  0  0  0  0  0  0  0  0
  -21.4840  -23.7239   19.0637 C   0  0  0  0  0  0  0  0  0  0  0  0
  -25.3011  -28.4726   18.9246 C   0  0  0  0  0  0  0  0  0  0  0  0
  -21.7137  -22.8610   20.1447 C   0  0  0  0  0  0  0  0  0  0  0  0
  -28.5521  -25.2932   19.8225 C   0  0  0  0  0  0  0  0  0  0  0  0
  -21.9018  -20.9943   18.5988 C   0  0  0  0  0  0  0  0  0  0  0  0
  -29.7910  -27.2805   20.0170 C   0  0  0  0  0  0  0  0  0  0  0  0
  -32.2662  -28.5672   20.0405 C   0  0  0  0  0  0  0  0  0  0  0  0
  -30.7482  -26.9339   20.9706 C   0  0  0  0  0  0  0  0  0  0  0  0
  -28.5219  -21.1004   19.2586 C   0  0  0  0  0  0  0  0  0  0  0  0
  -26.1968  -13.3284   20.8792 C   0  0  0  0  0  0  0  0  0  0  0  0
  -28.0647  -19.0574   18.5862 C   0  0  0  0  0  0  0  0  0  0  0  0
  -24.3498  -14.2532   20.1844 C   0  0  0  0  0  0  0  0  0  0  0  0
  -26.6365  -20.8176   17.5322 C   0  0  0  0  0  0  0  0  0  0  0  0
  -27.6119  -13.3308   21.3313 C   0  0  0  0  0  0  0  0  0  0  0  0
  -23.2920  -25.8519   20.5824 C   0  0  0  0  0  0  0  0  0  0  0  0
  -23.1100  -17.5239   18.9014 C   0  0  0  0  0  0  0  0  0  0  0  0
  -21.1655  -25.3653   22.9831 C   0  0  0  0  0  0  0  0  0  0  0  0
  -18.8670  -23.3094   24.4451 C   0  0  0  0  0  0  0  0  0  0  0  0
  -29.5333  -14.8096   21.8262 C   0  0  0  0  0  0  0  0  0  0  0  0
  -25.7310  -30.3361   20.6079 C   0  0  0  0  0  0  0  0  0  0  0  0
  -21.2267  -25.1872   19.2983 C   0  0  0  0  0  0  0  0  0  0  0  0
  -21.7451  -23.3605   21.5653 C   0  0  0  0  0  0  0  0  0  0  0  0
  -25.1867  -29.3833   21.6691 C   0  0  0  0  0  0  0  0  0  0  0  0
  -32.0817  -17.1079   20.9771 C   0  0  0  0  0  0  0  0  0  0  0  0
  -25.6402  -27.9545   21.3868 C   0  0  0  0  0  0  0  0  0  0  0  0
  -31.3163  -18.2899   20.3761 C   0  0  0  0  0  0  0  0  0  0  0  0
  -31.3311  -16.4850   22.1534 C   0  0  0  0  0  0  0  0  0  0  0  0
  -29.1771  -17.2939   21.2792 C   0  0  0  0  0  0  0  0  0  0  0  0
  -25.1071  -27.4634   20.0354 C   0  0  1  0  0  0  0  0  0  0  0  0
  -21.7987  -25.6899   20.6203 C   0  0  1  0  0  0  0  0  0  0  0  0
  -29.8583  -17.9113   20.0472 C   0  0  1  0  0  0  0  0  0  0  0  0
  -17.3222  -23.1693   26.4178 C   0  0  0  0  0  0  0  0  0  0  0  0
  -23.5431  -24.7669   24.7994 C   0  0  0  0  0  0  0  0  0  0  0  0
  -21.9486  -23.7330   26.4295 C   0  0  0  0  0  0  0  0  0  0  0  0
  -21.7474  -26.1519   25.8538 C   0  0  0  0  0  0  0  0  0  0  0  0
  -16.4786  -23.1162   22.7081 C   0  0  0  0  0  0  0  0  0  0  0  0
  -24.0033  -16.6938   19.7986 C   0  0  0  0  0  0  0  0  0  0  0  0
  -22.9585  -18.9805   19.2946 C   0  0  0  0  0  0  0  0  0  1  0  0
  -21.0697  -24.4117   24.1495 C   0  0  1  0  0  0  0  0  0  0  0  0
  -17.4626  -23.5722   24.9581 C   0  0  2  0  0  0  0  0  0  0  0  0
  -22.0786  -24.7565   25.2812 C   0  0  0  0  0  0  0  0  0  0  0  0
  -29.3804  -20.3275   19.9291 N   0  0  0  0  0  0  0  0  0  0  0  0
  -29.0776  -19.0909   19.4989 N   0  0  0  0  0  0  0  0  0  0  0  0
  -21.4940  -24.8003   21.7427 N   0  0  0  0  0  0  0  0  0  0  0  0
  -29.9629  -16.1464   21.7574 N   0  0  0  0  0  0  0  0  0  0  0  0
  -27.6340  -17.8956   18.0505 N   0  0  0  0  0  0  0  0  0  0  0  0
  -26.3693  -22.1920   17.4693 N   0  0  0  0  0  0  0  0  0  0  0  0
  -23.5532  -15.3254   19.8089 N   0  0  0  0  0  0  0  0  0  0  0  0
  -28.2246  -14.5830   21.3858 N   0  0  0  0  0  0  0  0  0  0  0  0
  -23.7123  -27.0940   20.1464 N   0  0  0  0  0  0  0  0  0  0  0  0
  -19.6730  -24.4211   24.5709 N   0  0  0  0  0  0  0  0  0  0  0  0
  -16.4671  -22.8021   24.1601 N   0  3  0  0  0  0  0  0  0  0  0  0
  -25.9522  -20.0267   16.8395 O   0  0  0  0  0  0  0  0  0  0  0  0
  -28.1365  -12.2703   21.6600 O   0  0  0  0  0  0  0  0  0  0  0  0
  -24.0097  -24.9196   20.9249 O   0  0  0  0  0  0  0  0  0  0  0  0
  -22.5393  -17.0580   17.9160 O   0  0  0  0  0  0  0  0  0  0  0  0
  -20.9495  -26.5661   23.1645 O   0  0  0  0  0  0  0  0  0  0  0  0
  -19.2152  -22.2252   23.9827 O   0  0  0  0  0  0  0  0  0  0  0  0
  -30.2641  -13.8910   22.2102 O   0  0  0  0  0  0  0  0  0  0  0  0
  -25.6272  -14.5208   20.5627 O   0  0  0  0  0  0  0  0  0  0  0  0
  -28.5622  -26.6421   20.0035 O   0  0  0  0  0  0  0  0  0  0  0  0
  -22.1098  -19.6680   18.3762 O   0  0  0  0  0  0  0  0  0  1  0  0
  -33.4551  -29.1841   20.0507 F   0  0  0  0  0  0  0  0  0  0  0  0
  -30.4850  -25.9828   21.8773 F   0  0  0  0  0  0  0  0  0  0  0  0
  1  2  1  0  0  0  0
  1  5  2  0  0  0  0
  2  6  2  0  0  0  0
  3  8  2  0  0  0  0
  3 17  1  0  0  0  0
  4  9  1  0  0  0  0
  4 17  2  0  0  0  0
  5 19  1  0  0  0  0
  6 21  1  0  0  0  0
  7 10  2  0  0  0  0
  7 20  1  0  0  0  0
  8 23  1  0  0  0  0
  9 23  2  0  0  0  0
 10 24  1  0  0  0  0
 11 12  2  0  0  0  0
 11 25  1  0  0  0  0
 12 26  1  0  0  0  0
 13 14  1  0  0  0  0
 13 29  2  0  0  0  0
 14 31  2  0  0  0  0
 15 22  1  0  0  0  0
 15 24  2  0  0  0  0
 16 26  2  0  0  0  0
 16 27  1  0  0  0  0
 17 28  1  0  0  0  0
 18 28  1  0  0  0  0
 18 30  2  0  0  0  0
 18 32  1  0  0  0  0
 19 21  2  0  0  0  0
 19 39  1  0  0  0  0
 20 22  2  0  0  0  0
 20 40  1  0  0  0  0
 21 48  1  0  0  0  0
 22 41  1  0  0  0  0
 23 80  1  0  0  0  0
 24 81  1  0  0  0  0
 25 27  2  0  0  0  0
 25 80  1  0  0  0  0
 26 82  1  0  0  0  0
 27 83  1  0  0  0  0
 28 61  2  0  0  0  0
 29 33  1  0  0  0  0
 29 79  1  0  0  0  0
 30 62  1  0  0  0  0
 30 65  1  0  0  0  0
 31 67  1  0  0  0  0
 31 79  1  0  0  0  0
 32 66  1  0  0  0  0
 32 72  2  0  0  0  0
 33 68  1  0  0  0  0
 33 73  2  0  0  0  0
 34 49  1  0  0  0  0
 34 69  1  0  0  0  0
 34 74  2  0  0  0  0
 35 56  1  0  0  0  0
 35 57  1  0  0  0  0
 35 75  2  0  0  0  0
 36 58  1  0  0  0  0
 36 63  1  0  0  0  0
 36 76  2  0  0  0  0
 37 59  1  0  0  0  0
 37 70  1  0  0  0  0
 37 77  2  0  0  0  0
 38 64  1  0  0  0  0
 38 68  1  0  0  0  0
 38 78  2  0  0  0  0
 39 42  1  0  0  0  0
 40 49  1  0  0  0  0
 41 63  1  0  0  0  0
 42 44  1  0  0  0  0
 43 45  1  0  0  0  0
 43 46  1  0  0  0  0
 44 48  1  0  0  0  0
 45 50  1  0  0  0  0
 46 64  1  0  0  0  0
 47 50  1  0  0  0  0
 47 64  1  0  0  0  0
 48 69  1  0  0  0  0
 49 63  1  0  0  0  0
 50 62  1  0  0  0  0
 51 59  1  0  0  0  0
 52 60  1  0  0  0  0
 53 60  1  0  0  0  0
 54 60  1  0  0  0  0
 55 71  1  0  0  0  0
 56 67  1  0  0  0  0
 57 81  1  0  0  0  0
 58 60  1  0  0  0  0
 58 70  1  0  0  0  0
 59 71  1  0  0  0  0
 61 62  1  0  0  0  0
M  CHG  1  71   1
M  ISO  4  38 100  57 101  68 100  81 101
M  END
> <Batch ID>
0149

> <Smiles>
CNC(C)C(=O)NC(C(=O)N1Cc2cc([101O:1][101CH2:1]C(=O)CNc3ccc(C(=O)[100NH:0][100C:0](=O)N4CCCC(n5nc(-c6ccc(Oc7ccc(F)cc7F)cc6)c(C(N)=O)c5N)C4)o3)ccc2CC1C(=O)NC1CCCc2ccccc21)C(C)(C)C

> <Shape>
0.200

> <Color>
0.066

> <Negative vol penalty>
0.000

$$$$

  -OEChem-04052303193D

 85 94  0     1  0  0  0  0  0999 V2000
  -31.8997  -25.1001   16.6214 C   0  0  0  0  0  0  0  0  0  0  0  0
  -30.6420  -24.7820   17.1239 C   0  0  0  0  0  0  0  0  0  0  0  0
  -26.8873  -18.2440   21.6905 C   0  0  0  0  0  0  0  0  0  0  0  0
  -25.0835  -18.8763   20.2128 C   0  0  0  0  0  0  0  0  0  0  0  0
  -32.7166  -25.9977   17.3075 C   0  0  0  0  0  0  0  0  0  0  0  0
  -30.2009  -25.3607   18.3134 C   0  0  0  0  0  0  0  0  0  0  0  0
  -25.4148  -26.9899   18.0234 C   0  0  0  0  0  0  0  0  0  0  0  0
  -26.6920  -16.9041   21.3556 C   0  0  0  0  0  0  0  0  0  0  0  0
  -24.8883  -17.5364   19.8778 C   0  0  0  0  0  0  0  0  0  0  0  0
  -24.4084  -26.0305   18.1254 C   0  0  0  0  0  0  0  0  0  0  0  0
  -24.5523  -14.4189   22.1738 C   0  0  0  0  0  0  0  0  0  0  0  0
  -24.5447  -13.4867   23.2114 C   0  0  0  0  0  0  0  0  0  0  0  0
  -24.0817  -26.6279   20.4396 C   0  0  0  0  0  0  0  0  0  0  0  0
  -18.9520  -26.4974   22.2254 C   0  0  0  0  0  0  0  0  0  0  0  0
  -26.4229  -12.3494   22.2034 C   0  0  0  0  0  0  0  0  0  0  0  0
  -26.0830  -19.2301   21.1192 C   0  0  0  0  0  0  0  0  0  0  0  0
  -27.1324  -21.5364   20.8238 C   0  0  0  0  0  0  0  0  0  0  0  0
  -32.2814  -26.5951   18.5010 C   0  0  0  0  0  0  0  0  0  0  0  0
  -25.7703  -27.7693   19.1337 C   0  0  0  0  0  0  0  0  0  0  0  0
  -31.0133  -26.2662   19.0168 C   0  0  0  0  0  0  0  0  0  0  0  0
  -25.0912  -27.5983   20.3485 C   0  0  0  0  0  0  0  0  0  0  0  0
  -19.9853  -25.5471   22.0452 C   0  0  0  0  0  0  0  0  0  0  0  0
  -25.6925  -16.5503   20.4492 C   0  0  0  0  0  0  0  0  0  0  0  0
  -23.7436  -25.8474   19.3344 C   0  0  0  0  0  0  0  0  0  0  0  0
  -25.4951  -14.3163   21.1510 C   0  0  0  0  0  0  0  0  0  0  0  0
  -25.4800  -12.4520   23.2262 C   0  0  0  0  0  0  0  0  0  0  0  0
  -26.4304  -13.2816   21.1658 C   0  0  0  0  0  0  0  0  0  0  0  0
  -26.2839  -20.6143   21.4652 C   0  0  0  0  0  0  0  0  0  0  0  0
  -26.9645  -22.7042   21.5270 C   0  0  0  0  0  0  0  0  0  0  0  0
  -19.1110  -26.9981   23.4966 C   0  0  0  0  0  0  0  0  0  0  0  0
  -20.7022  -25.5350   23.2190 C   0  0  0  0  0  0  0  0  0  0  0  0
  -27.9951  -21.3537   19.6933 C   0  0  0  0  0  0  0  0  0  0  0  0
  -28.4183  -28.1528   20.8498 C   0  0  0  0  0  0  0  0  0  0  0  0
  -26.6824  -30.4853   22.2879 C   0  0  0  0  0  0  0  0  0  0  0  0
  -23.2913  -30.9108   23.4442 C   0  0  0  0  0  0  0  0  0  0  0  0
  -22.4940  -24.8584   24.8555 C   0  0  0  0  0  0  0  0  0  0  0  0
  -33.2188  -27.5234   19.2320 C   0  0  0  0  0  0  0  0  0  0  0  0
  -26.8399  -28.8184   19.0001 C   0  0  0  0  0  0  0  0  0  0  0  0
  -25.4212  -28.4234   21.5645 C   0  0  0  0  0  0  0  0  0  0  0  0
  -32.5264  -28.3794   20.2894 C   0  0  0  0  0  0  0  0  0  0  0  0
  -25.8553  -24.3173   25.8975 C   0  0  0  0  0  0  0  0  0  0  0  0
  -31.5964  -27.5239   21.1438 C   0  0  0  0  0  0  0  0  0  0  0  0
  -26.4257  -23.3951   24.8176 C   0  0  0  0  0  0  0  0  0  0  0  0
  -20.6109  -22.9310   19.5260 C   0  0  0  0  0  0  0  0  0  0  0  0
  -24.3940  -23.9951   26.2046 C   0  0  0  0  0  0  0  0  0  0  0  0
  -20.8211  -23.4567   20.9432 C   0  0  0  0  0  0  0  0  0  0  0  0
  -24.0766  -23.0417   23.9552 C   0  0  0  0  0  0  0  0  0  0  0  0
  -19.9008  -25.2193   19.5589 C   0  0  0  0  0  0  0  0  0  0  0  0
  -30.4894  -26.8921   20.2912 C   0  0  1  0  0  0  0  0  0  0  0  0
  -27.4722  -29.2004   20.3348 C   0  0  1  0  0  0  0  0  0  0  0  0
  -25.5270  -23.3703   23.5656 C   0  0  2  0  0  0  0  0  0  0  0  0
  -20.6008  -24.1901   18.6593 C   0  0  1  0  0  0  0  0  0  0  0  0
  -21.9101  -32.9877   23.7198 C   0  0  0  0  0  0  0  0  0  0  0  0
  -27.6848  -30.4209   25.1691 C   0  0  0  0  0  0  0  0  0  0  0  0
  -25.4153  -31.1825   25.9022 C   0  0  0  0  0  0  0  0  0  0  0  0
  -26.7993  -32.6372   24.4219 C   0  0  0  0  0  0  0  0  0  0  0  0
  -21.1279  -29.8387   21.7328 C   0  0  0  0  0  0  0  0  0  0  0  0
  -20.3847  -22.8818   16.7265 C   0  0  0  0  0  0  0  0  0  0  0  0
  -22.0089  -24.6276   18.2579 C   0  0  0  0  0  0  0  0  0  1  0  0
  -25.7450  -30.5458   23.4697 C   0  0  1  0  0  0  0  0  0  0  0  0
  -22.2252  -31.7977   22.8268 C   0  0  2  0  0  0  0  0  0  0  0  0
  -26.4141  -31.1729   24.7253 C   0  0  0  0  0  0  0  0  0  0  0  0
  -25.6259  -21.1501   22.4968 N   0  0  0  0  0  0  0  0  0  0  0  0
  -26.0611  -22.4215   22.5089 N   0  0  0  0  0  0  0  0  0  0  0  0
  -20.2214  -24.7878   20.9184 N   0  0  3  0  0  0  0  0  0  0  0  0
  -26.4787  -29.4319   21.3853 N   0  0  0  0  0  0  0  0  0  0  0  0
  -23.6026  -23.9935   24.9722 N   0  0  0  0  0  0  0  0  0  0  0  0
  -27.5031  -23.9351   21.3951 N   0  0  0  0  0  0  0  0  0  0  0  0
  -18.4187  -27.9222   24.1936 N   0  0  0  0  0  0  0  0  0  0  0  0
  -28.0472  -20.0898   19.0900 N   0  0  0  0  0  0  0  0  0  0  0  0
  -21.8380  -24.7924   23.6267 N   0  0  0  0  0  0  0  0  0  0  0  0
  -29.4632  -27.8676   19.9917 N   0  0  0  0  0  0  0  0  0  0  0  0
  -24.5546  -31.2534   23.0107 N   0  0  0  0  0  0  0  0  0  0  0  0
  -20.9690  -31.0251   22.6127 N   0  3  0  0  0  0  0  0  0  0  0  0
  -28.7113  -22.2794   19.2419 O   0  0  0  0  0  0  0  0  0  0  0  0
  -28.2161  -27.6421   21.9452 O   0  0  0  0  0  0  0  0  0  0  0  0
  -27.5584  -31.3452   22.1662 O   0  0  0  0  0  0  0  0  0  0  0  0
  -23.0300  -30.0070   24.2351 O   0  0  0  0  0  0  0  0  0  0  0  0
  -22.1682  -25.6225   25.7677 O   0  0  0  0  0  0  0  0  0  0  0  0
  -20.1758  -26.4167   24.1090 O   0  0  0  0  0  0  0  0  0  0  0  0
  -25.5018  -15.2430   20.1220 O   0  0  0  0  0  0  0  0  0  0  0  0
  -22.7613  -24.9112   19.4368 O   0  0  0  0  0  0  0  0  0  1  0  0
  -19.8383  -23.9488   17.4853 O   0  0  0  0  0  0  0  0  0  0  0  0
  -25.4735  -11.5578   24.2235 F   0  0  0  0  0  0  0  0  0  0  0  0
  -27.3394  -13.1786   20.1865 F   0  0  0  0  0  0  0  0  0  0  0  0
  1  2  1  0  0  0  0
  1  5  2  0  0  0  0
  2  6  2  0  0  0  0
  3  8  2  0  0  0  0
  3 16  1  0  0  0  0
  4  9  1  0  0  0  0
  4 16  2  0  0  0  0
  5 18  1  0  0  0  0
  6 20  1  0  0  0  0
  7 10  2  0  0  0  0
  7 19  1  0  0  0  0
  8 23  1  0  0  0  0
  9 23  2  0  0  0  0
 10 24  1  0  0  0  0
 11 12  2  0  0  0  0
 11 25  1  0  0  0  0
 12 26  1  0  0  0  0
 13 21  1  0  0  0  0
 13 24  2  0  0  0  0
 14 22  1  0  0  0  0
 14 30  2  0  0  0  0
 15 26  2  0  0  0  0
 15 27  1  0  0  0  0
 16 28  1  0  0  0  0
 17 28  1  0  0  0  0
 17 29  2  0  0  0  0
 17 32  1  0  0  0  0
 18 20  2  0  0  0  0
 18 37  1  0  0  0  0
 19 21  2  0  0  0  0
 19 38  1  0  0  0  0
 20 49  1  0  0  0  0
 21 39  1  0  0  0  0
 22 31  2  0  0  0  0
 22 65  1  0  0  0  0
 23 81  1  0  0  0  0
 24 82  1  0  0  0  0
 25 27  2  0  0  0  0
 25 81  1  0  0  0  0
 26 84  1  0  0  0  0
 27 85  1  0  0  0  0
 28 63  2  0  0  0  0
 29 64  1  0  0  0  0
 29 68  1  0  0  0  0
 30 69  1  0  0  0  0
 30 80  1  0  0  0  0
 31 71  1  0  0  0  0
 31 80  1  0  0  0  0
 32 70  1  0  0  0  0
 32 75  2  0  0  0  0
 33 50  1  0  0  0  0
 33 72  1  0  0  0  0
 33 76  2  0  0  0  0
 34 60  1  0  0  0  0
 34 66  1  0  0  0  0
 34 77  2  0  0  0  0
 35 61  1  0  0  0  0
 35 73  1  0  0  0  0
 35 78  2  0  0  0  0
 36 67  1  0  0  0  0
 36 71  1  0  0  0  0
 36 79  2  0  0  0  0
 37 40  1  0  0  0  0
 38 50  1  0  0  0  0
 39 66  1  0  0  0  0
 40 42  1  0  0  0  0
 41 43  1  0  0  0  0
 41 45  1  0  0  0  0
 42 49  1  0  0  0  0
 43 51  1  0  0  0  0
 44 46  1  0  0  0  0
 44 52  1  0  0  0  0
 45 67  1  0  0  0  0
 46 65  1  0  0  0  0
 47 51  1  0  0  0  0
 47 67  1  0  0  0  0
 48 52  1  0  0  0  0
 48 65  1  0  0  0  0
 49 72  1  0  0  0  0
 50 66  1  0  0  0  0
 51 64  1  0  0  0  0
 52 59  1  0  0  0  0
 52 83  1  0  0  0  0
 53 61  1  0  0  0  0
 54 62  1  0  0  0  0
 55 62  1  0  0  0  0
 56 62  1  0  0  0  0
 57 74  1  0  0  0  0
 58 83  1  0  0  0  0
 59 82  1  0  0  0  0
 60 62  1  0  0  0  0
 60 73  1  0  0  0  0
 61 74  1  0  0  0  0
 63 64  1  0  0  0  0
M  CHG  1  74   1
M  ISO  4  36 100  59 101  71 100  82 101
M  END
> <Batch ID>
0149

> <Smiles>
CNC(C)C(=O)NC(C(=O)N1Cc2cc([101O:1][101CH2:1]C3(OC)CCN(c4cc(N)oc4[100NH:0][100C:0](=O)N4CCCC(n5nc(-c6ccc(Oc7ccc(F)cc7F)cc6)c(C(N)=O)c5N)C4)C3)ccc2CC1C(=O)NC1CCCc2ccccc21)C(C)(C)C

> <Shape>
0.229

> <Color>
0.063

> <Negative vol penalty>
0.000

$$$$

  -OEChem-04052303193D

 82 91  0     1  0  0  0  0  0999 V2000
  -28.1493  -37.1342   21.1660 C   0  0  0  0  0  0  0  0  0  0  0  0
  -28.5916  -35.8337   20.9458 C   0  0  0  0  0  0  0  0  0  0  0  0
  -24.7711   -9.0506   21.4052 C   0  0  0  0  0  0  0  0  0  0  0  0
  -23.1894  -10.8764   21.4450 C   0  0  0  0  0  0  0  0  0  0  0  0
  -27.0741  -37.3680   22.0222 C   0  0  0  0  0  0  0  0  0  0  0  0
  -27.9596  -34.7663   21.5826 C   0  0  0  0  0  0  0  0  0  0  0  0
  -27.0703  -29.1406   19.3315 C   0  0  0  0  0  0  0  0  0  0  0  0
  -24.0478   -8.4022   22.4063 C   0  0  0  0  0  0  0  0  0  0  0  0
  -22.4661  -10.2280   22.4460 C   0  0  0  0  0  0  0  0  0  0  0  0
  -27.7580  -27.9406   19.5070 C   0  0  0  0  0  0  0  0  0  0  0  0
  -22.4176   -6.0982   24.6973 C   0  0  0  0  0  0  0  0  0  0  0  0
  -22.1741   -4.7337   24.5411 C   0  0  0  0  0  0  0  0  0  0  0  0
  -25.9157  -20.3448   19.8846 C   0  0  0  0  0  0  0  0  0  0  0  0
  -25.7048  -18.9469   19.9513 C   0  0  0  0  0  0  0  0  0  0  0  0
  -26.1928  -27.3022   21.2279 C   0  0  0  0  0  0  0  0  0  0  0  0
  -20.9873   -5.1808   22.4847 C   0  0  0  0  0  0  0  0  0  0  0  0
  -24.3419  -10.2878   20.9246 C   0  0  0  0  0  0  0  0  0  0  0  0
  -24.9129  -10.8363   18.4996 C   0  0  0  0  0  0  0  0  0  0  0  0
  -26.4223  -36.3021   22.6623 C   0  0  0  0  0  0  0  0  0  0  0  0
  -25.9432  -29.4357   20.1119 C   0  0  0  0  0  0  0  0  0  0  0  0
  -26.8754  -34.9862   22.4492 C   0  0  0  0  0  0  0  0  0  0  0  0
  -25.4911  -28.5055   21.0587 C   0  0  0  0  0  0  0  0  0  0  0  0
  -22.8953   -8.9909   22.9266 C   0  0  0  0  0  0  0  0  0  0  0  0
  -27.3210  -27.0225   20.4573 C   0  0  0  0  0  0  0  0  0  0  0  0
  -21.9459   -7.0041   23.7472 C   0  0  0  0  0  0  0  0  0  0  0  0
  -21.4590   -4.2750   23.4349 C   0  0  0  0  0  0  0  0  0  0  0  0
  -21.2308   -6.5453   22.6409 C   0  0  0  0  0  0  0  0  0  0  0  0
  -25.0890  -10.9583   19.8910 C   0  0  0  0  0  0  0  0  0  0  0  0
  -25.8609  -11.6704   17.9591 C   0  0  0  0  0  0  0  0  0  0  0  0
  -27.2791  -20.5244   19.8540 C   0  0  0  0  0  0  0  0  0  0  0  0
  -26.9543  -18.3718   19.9563 C   0  0  0  0  0  0  0  0  0  0  0  0
  -29.8315  -23.0721   19.6484 C   0  0  0  0  0  0  0  0  0  0  0  0
  -28.7279  -23.8272   19.6070 C   0  0  0  0  0  0  0  0  0  0  0  0
  -23.9762  -10.0403   17.7617 C   0  0  0  0  0  0  0  0  0  0  0  0
  -25.2019  -31.7002   22.2158 C   0  0  0  0  0  0  0  0  0  0  0  0
  -22.2794  -30.2966   22.1102 C   0  0  0  0  0  0  0  0  0  0  0  0
  -20.4290  -27.5022   21.4666 C   0  0  0  0  0  0  0  0  0  0  0  0
  -28.6706  -16.5285   20.0110 C   0  0  0  0  0  0  0  0  0  0  0  0
  -25.2947  -36.6082   23.6158 C   0  0  0  0  0  0  0  0  0  0  0  0
  -25.1967  -30.7229   19.8918 C   0  0  0  0  0  0  0  0  0  0  0  0
  -24.2745  -28.7657   21.9077 C   0  0  0  0  0  0  0  0  0  0  0  0
  -29.4969  -21.6214   19.7678 C   0  0  0  0  0  0  0  0  0  0  0  0
  -27.4913  -22.9866   19.6928 C   0  0  0  0  0  0  0  0  0  0  0  0
  -24.4405  -35.3907   23.9599 C   0  0  0  0  0  0  0  0  0  0  0  0
  -30.1853  -13.5140   18.8727 C   0  0  0  0  0  0  0  0  0  0  0  0
  -25.3261  -34.1958   24.2987 C   0  0  0  0  0  0  0  0  0  0  0  0
  -29.0330  -12.5070   18.8723 C   0  0  0  0  0  0  0  0  0  0  0  0
  -30.0874  -14.4874   20.0461 C   0  0  0  0  0  0  0  0  0  0  0  0
  -27.6470  -14.1743   20.1707 C   0  0  0  0  0  0  0  0  0  0  0  0
  -26.1999  -33.7999   23.1023 C   0  0  1  0  0  0  0  0  0  0  0  0
  -24.3644  -31.1447   21.0988 C   0  0  1  0  0  0  0  0  0  0  0  0
  -27.6668  -13.2138   18.9705 C   0  0  2  0  0  0  0  0  0  0  0  0
  -18.0691  -26.6497   21.5075 C   0  0  0  0  0  0  0  0  0  0  0  0
  -22.4161  -30.0712   25.1500 C   0  0  0  0  0  0  0  0  0  0  0  0
  -20.5470  -28.4091   25.0411 C   0  0  0  0  0  0  0  0  0  0  0  0
  -20.1816  -30.7476   24.2535 C   0  0  0  0  0  0  0  0  0  0  0  0
  -20.4518  -26.9591   18.5574 C   0  0  0  0  0  0  0  0  0  0  0  0
  -28.6532  -25.3059   19.4905 C   0  0  0  0  0  0  0  0  0  1  0  0
  -21.6014  -29.1806   22.8677 C   0  0  1  0  0  0  0  0  0  0  0  0
  -19.1557  -27.2998   20.6652 C   0  0  2  0  0  0  0  0  0  0  0  0
  -21.2106  -29.5978   24.3136 C   0  0  0  0  0  0  0  0  0  0  0  0
  -26.0716  -11.8032   20.2143 N   0  0  0  0  0  0  0  0  0  0  0  0
  -26.5216  -12.2196   19.0184 N   0  0  0  0  0  0  0  0  0  0  0  0
  -28.0338  -21.6300   19.7916 N   0  0  3  0  0  0  0  0  0  0  0  0
  -23.5823  -30.0411   21.6596 N   0  0  0  0  0  0  0  0  0  0  0  0
  -28.7680  -15.1223   20.0729 N   0  0  0  0  0  0  0  0  0  0  0  0
  -26.1855  -11.9802   16.6859 N   0  0  0  0  0  0  0  0  0  0  0  0
  -23.0721   -9.2405   18.4739 N   0  0  0  0  0  0  0  0  0  0  0  0
  -27.3643  -17.0166   20.0108 N   0  0  0  0  0  0  0  0  0  0  0  0
  -25.4219  -33.0617   22.1306 N   0  0  0  0  0  0  0  0  0  0  0  0
  -20.4755  -28.7535   22.0441 N   0  0  0  0  0  0  0  0  0  0  0  0
  -19.4195  -26.4290   19.4849 N   0  3  0  0  0  0  0  0  0  0  0  0
  -23.9528  -10.0257   16.5076 O   0  0  0  0  0  0  0  0  0  0  0  0
  -25.6166  -30.9493   23.0910 O   0  0  0  0  0  0  0  0  0  0  0  0
  -21.6726  -31.3534   21.9189 O   0  0  0  0  0  0  0  0  0  0  0  0
  -21.2940  -26.6356   21.5730 O   0  0  0  0  0  0  0  0  0  0  0  0
  -29.6715  -17.2456   19.9342 O   0  0  0  0  0  0  0  0  0  0  0  0
  -27.9194  -19.3266   19.8973 O   0  0  0  0  0  0  0  0  0  0  0  0
  -22.1891   -8.3584   23.9032 O   0  0  0  0  0  0  0  0  0  0  0  0
  -27.9908  -25.8507   20.6310 O   0  0  0  0  0  0  0  0  0  1  0  0
  -21.2265   -2.9644   23.2843 F   0  0  0  0  0  0  0  0  0  0  0  0
  -20.7761   -7.4107   21.7242 F   0  0  0  0  0  0  0  0  0  0  0  0
  1  2  1  0  0  0  0
  1  5  2  0  0  0  0
  2  6  2  0  0  0  0
  3  8  2  0  0  0  0
  3 17  1  0  0  0  0
  4  9  1  0  0  0  0
  4 17  2  0  0  0  0
  5 19  1  0  0  0  0
  6 21  1  0  0  0  0
  7 10  2  0  0  0  0
  7 20  1  0  0  0  0
  8 23  1  0  0  0  0
  9 23  2  0  0  0  0
 10 24  1  0  0  0  0
 11 12  2  0  0  0  0
 11 25  1  0  0  0  0
 12 26  1  0  0  0  0
 13 14  1  0  0  0  0
 13 30  2  0  0  0  0
 14 31  2  0  0  0  0
 15 22  1  0  0  0  0
 15 24  2  0  0  0  0
 16 26  2  0  0  0  0
 16 27  1  0  0  0  0
 17 28  1  0  0  0  0
 18 28  1  0  0  0  0
 18 29  2  0  0  0  0
 18 34  1  0  0  0  0
 19 21  2  0  0  0  0
 19 39  1  0  0  0  0
 20 22  2  0  0  0  0
 20 40  1  0  0  0  0
 21 50  1  0  0  0  0
 22 41  1  0  0  0  0
 23 79  1  0  0  0  0
 24 80  1  0  0  0  0
 25 27  2  0  0  0  0
 25 79  1  0  0  0  0
 26 81  1  0  0  0  0
 27 82  1  0  0  0  0
 28 62  2  0  0  0  0
 29 63  1  0  0  0  0
 29 67  1  0  0  0  0
 30 64  1  0  0  0  0
 30 78  1  0  0  0  0
 31 69  1  0  0  0  0
 31 78  1  0  0  0  0
 32 33  2  0  0  0  0
 32 42  1  0  0  0  0
 33 43  1  0  0  0  0
 33 58  1  0  0  0  0
 34 68  1  0  0  0  0
 34 73  2  0  0  0  0
 35 51  1  0  0  0  0
 35 70  1  0  0  0  0
 35 74  2  0  0  0  0
 36 59  1  0  0  0  0
 36 65  1  0  0  0  0
 36 75  2  0  0  0  0
 37 60  1  0  0  0  0
 37 71  1  0  0  0  0
 37 76  2  0  0  0  0
 38 66  1  0  0  0  0
 38 69  1  0  0  0  0
 38 77  2  0  0  0  0
 39 44  1  0  0  0  0
 40 51  1  0  0  0  0
 41 65  1  0  0  0  0
 42 64  1  0  0  0  0
 43 64  1  0  0  0  0
 44 46  1  0  0  0  0
 45 47  1  0  0  0  0
 45 48  1  0  0  0  0
 46 50  1  0  0  0  0
 47 52  1  0  0  0  0
 48 66  1  0  0  0  0
 49 52  1  0  0  0  0
 49 66  1  0  0  0  0
 50 70  1  0  0  0  0
 51 65  1  0  0  0  0
 52 63  1  0  0  0  0
 53 60  1  0  0  0  0
 54 61  1  0  0  0  0
 55 61  1  0  0  0  0
 56 61  1  0  0  0  0
 57 72  1  0  0  0  0
 58 80  1  0  0  0  0
 59 61  1  0  0  0  0
 59 71  1  0  0  0  0
 60 72  1  0  0  0  0
 62 63  1  0  0  0  0
M  CHG  1  72   1
M  ISO  4  38 100  58 101  69 100  80 101
M  END
> <Batch ID>
0149

> <Smiles>
CNC(C)C(=O)NC(C(=O)N1Cc2cc([101O:1][101CH2:1]C3=CCN(c4ccc([100NH:0][100C:0](=O)N5CCCC(n6nc(-c7ccc(Oc8ccc(F)cc8F)cc7)c(C(N)=O)c6N)C5)o4)C3)ccc2CC1C(=O)NC1CCCc2ccccc21)C(C)(C)C

> <Shape>
0.346

> <Color>
0.099

> <Negative vol penalty>
0.000

$$$$

  -OEChem-04052303193D

 85 93  0     1  0  0  0  0  0999 V2000
  -27.1515  -23.9639   17.1307 C   0  0  0  0  0  0  0  0  0  0  0  0
  -26.1084  -24.8234   17.4567 C   0  0  0  0  0  0  0  0  0  0  0  0
  -27.0648  -13.0273   21.0235 C   0  0  0  0  0  0  0  0  0  0  0  0
  -24.8441  -13.6630   20.3153 C   0  0  0  0  0  0  0  0  0  0  0  0
  -28.2883  -23.9173   17.9349 C   0  0  0  0  0  0  0  0  0  0  0  0
  -26.2068  -25.6450   18.5801 C   0  0  0  0  0  0  0  0  0  0  0  0
  -22.6388  -28.9676   19.2384 C   0  0  0  0  0  0  0  0  0  0  0  0
  -22.5081  -21.4721   20.0733 C   0  0  0  0  0  0  0  0  0  0  0  0
  -26.5403  -11.9006   21.6567 C   0  0  0  0  0  0  0  0  0  0  0  0
  -24.3196  -12.5362   20.9485 C   0  0  0  0  0  0  0  0  0  0  0  0
  -21.3475  -28.6190   19.6317 C   0  0  0  0  0  0  0  0  0  0  0  0
  -24.0564   -9.2257   20.3227 C   0  0  0  0  0  0  0  0  0  0  0  0
  -23.1133   -8.4718   19.6243 C   0  0  0  0  0  0  0  0  0  0  0  0
  -21.3133  -22.1425   20.3104 C   0  0  0  0  0  0  0  0  0  0  0  0
  -21.8291  -29.3828   21.8686 C   0  0  0  0  0  0  0  0  0  0  0  0
  -21.4940   -8.8801   21.3703 C   0  0  0  0  0  0  0  0  0  0  0  0
  -23.5849  -22.9667   21.5777 C   0  0  0  0  0  0  0  0  0  0  0  0
  -26.2166  -13.9086   20.3528 C   0  0  0  0  0  0  0  0  0  0  0  0
  -27.2090  -15.1684   18.3690 C   0  0  0  0  0  0  0  0  0  0  0  0
  -28.3945  -24.7300   19.0755 C   0  0  0  0  0  0  0  0  0  0  0  0
  -23.5400  -29.5173   20.1615 C   0  0  0  0  0  0  0  0  0  0  0  0
  -27.3561  -25.6299   19.3909 C   0  0  0  0  0  0  0  0  0  0  0  0
  -23.1304  -29.7400   21.4839 C   0  0  0  0  0  0  0  0  0  0  0  0
  -23.6701  -21.8858   20.7151 C   0  0  0  0  0  0  0  0  0  0  0  0
  -25.1677  -11.6550   21.6192 C   0  0  0  0  0  0  0  0  0  0  0  0
  -20.9433  -28.8239   20.9477 C   0  0  0  0  0  0  0  0  0  0  0  0
  -23.7184   -9.8067   21.5450 C   0  0  0  0  0  0  0  0  0  0  0  0
  -21.8321   -8.2990   20.1481 C   0  0  0  0  0  0  0  0  0  0  0  0
  -22.4372   -9.6339   22.0687 C   0  0  0  0  0  0  0  0  0  0  0  0
  -26.7577  -15.0730   19.6990 C   0  0  0  0  0  0  0  0  0  0  0  0
  -21.3335  -23.2118   21.1913 C   0  0  0  0  0  0  0  0  0  0  0  0
  -27.6226  -16.4717   18.2394 C   0  0  0  0  0  0  0  0  0  0  0  0
  -27.2506  -14.1683   17.3424 C   0  0  0  0  0  0  0  0  0  0  0  0
  -26.3533  -28.6340   21.3485 C   0  0  0  0  0  0  0  0  0  0  0  0
  -18.7279  -25.7684   21.9671 C   0  0  0  0  0  0  0  0  0  0  0  0
  -26.2503  -31.5653   22.7339 C   0  0  0  0  0  0  0  0  0  0  0  0
  -24.3592  -34.1796   23.8455 C   0  0  0  0  0  0  0  0  0  0  0  0
  -26.1391  -21.5251   21.0621 C   0  0  0  0  0  0  0  0  0  0  0  0
  -29.6507  -24.6448   19.9062 C   0  0  0  0  0  0  0  0  0  0  0  0
  -24.9208  -29.9128   19.7148 C   0  0  0  0  0  0  0  0  0  0  0  0
  -24.0532  -30.3458   22.5085 C   0  0  0  0  0  0  0  0  0  0  0  0
  -29.4765  -25.2197   21.3081 C   0  0  0  0  0  0  0  0  0  0  0  0
  -29.3957  -20.1101   20.7992 C   0  0  0  0  0  0  0  0  0  0  0  0
  -28.8353  -26.5972   21.2291 C   0  0  0  0  0  0  0  0  0  0  0  0
  -29.1302  -18.6682   20.3603 C   0  0  0  0  0  0  0  0  0  0  0  0
  -28.3351  -20.6092   21.7788 C   0  0  0  0  0  0  0  0  0  0  0  0
  -26.6822  -19.0174   20.8824 C   0  0  0  0  0  0  0  0  0  0  0  0
  -27.4279  -26.5106   20.6252 C   0  0  1  0  0  0  0  0  0  0  0  0
  -25.9214  -29.9891   20.8639 C   0  0  1  0  0  0  0  0  0  0  0  0
  -27.6882  -18.4924   19.8451 C   0  0  2  0  0  0  0  0  0  0  0  0
  -24.5553  -36.4168   24.9654 C   0  0  0  0  0  0  0  0  0  0  0  0
  -18.2233  -26.6178   24.2830 C   0  0  0  0  0  0  0  0  0  0  0  0
  -17.0699  -27.6103   22.3002 C   0  0  0  0  0  0  0  0  0  0  0  0
  -26.7433  -30.1808   25.4079 C   0  0  0  0  0  0  0  0  0  0  0  0
  -25.9917  -32.2768   26.5525 C   0  0  0  0  0  0  0  0  0  0  0  0
  -28.0106  -32.3129   25.0878 C   0  0  0  0  0  0  0  0  0  0  0  0
  -23.1556  -35.5743   21.5292 C   0  0  0  0  0  0  0  0  0  0  0  0
  -19.9954  -24.9999   22.3040 C   0  0  0  0  0  0  0  0  0  0  0  0
  -19.5066  -28.0860   22.6933 C   0  0  0  0  0  0  0  0  0  1  0  0
  -25.7200  -32.1141   24.0364 C   0  0  1  0  0  0  0  0  0  0  0  0
  -24.4904  -35.6777   23.6379 C   0  0  2  0  0  0  0  0  0  0  0  0
  -18.3966  -27.0250   22.8065 C   0  0  0  0  0  0  0  0  0  0  0  0
  -26.5994  -31.7079   25.2526 C   0  0  0  0  0  0  0  0  0  0  0  0
  -22.4425  -23.6428   21.8333 N   0  0  0  0  0  0  0  0  0  0  0  0
  -26.8737  -16.2240   20.3667 N   0  0  0  0  0  0  0  0  0  0  0  0
  -27.4027  -17.0549   19.4525 N   0  0  0  0  0  0  0  0  0  0  0  0
  -25.3951  -30.7100   22.0247 N   0  0  0  0  0  0  0  0  0  0  0  0
  -26.9947  -20.4146   21.2216 N   0  0  0  0  0  0  0  0  0  0  0  0
  -28.1492  -17.1643   17.2072 N   0  0  0  0  0  0  0  0  0  0  0  0
  -26.7865  -12.8809   17.6447 N   0  0  0  0  0  0  0  0  0  0  0  0
  -24.9026  -21.2231   20.4925 N   0  0  0  0  0  0  0  0  0  0  0  0
  -20.1350  -23.8710   21.4162 N   0  0  0  0  0  0  0  0  0  0  0  0
  -26.9389  -27.8484   20.3741 N   0  0  0  0  0  0  0  0  0  0  0  0
  -25.5884  -33.5549   23.8488 N   0  0  0  0  0  0  0  0  0  0  0  0
  -23.3258  -36.1977   22.8669 N   0  3  0  0  0  0  0  0  0  0  0  0
  -27.7017  -14.4049   16.1961 O   0  0  0  0  0  0  0  0  0  0  0  0
  -26.1701  -28.3247   22.5200 O   0  0  0  0  0  0  0  0  0  0  0  0
  -17.9948  -25.4087   21.0421 O   0  0  0  0  0  0  0  0  0  0  0  0
  -27.3790  -31.8893   22.3560 O   0  0  0  0  0  0  0  0  0  0  0  0
  -23.2750  -33.6201   23.9939 O   0  0  0  0  0  0  0  0  0  0  0  0
  -26.4885  -22.6646   21.3804 O   0  0  0  0  0  0  0  0  0  0  0  0
  -24.6556  -10.5555   22.2368 O   0  0  0  0  0  0  0  0  0  0  0  0
  -19.6837  -28.4839   21.3344 O   0  0  0  0  0  0  0  0  0  1  0  0
  -20.9260   -7.5764   19.4765 F   0  0  0  0  0  0  0  0  0  0  0  0
  -22.1063  -10.1907   23.2419 F   0  0  0  0  0  0  0  0  0  0  0  0
  1  2  1  0  0  0  0
  1  5  2  0  0  0  0
  2  6  2  0  0  0  0
  3  9  2  0  0  0  0
  3 18  1  0  0  0  0
  4 10  1  0  0  0  0
  4 18  2  0  0  0  0
  5 20  1  0  0  0  0
  6 22  1  0  0  0  0
  7 11  2  0  0  0  0
  7 21  1  0  0  0  0
  8 14  2  0  0  0  0
  8 24  1  0  0  0  0
  9 25  1  0  0  0  0
 10 25  2  0  0  0  0
 11 26  1  0  0  0  0
 12 13  2  0  0  0  0
 12 27  1  0  0  0  0
 13 28  1  0  0  0  0
 14 31  1  0  0  0  0
 15 23  1  0  0  0  0
 15 26  2  0  0  0  0
 16 28  2  0  0  0  0
 16 29  1  0  0  0  0
 17 24  2  0  0  0  0
 17 64  1  0  0  0  0
 18 30  1  0  0  0  0
 19 30  1  0  0  0  0
 19 32  2  0  0  0  0
 19 33  1  0  0  0  0
 20 22  2  0  0  0  0
 20 39  1  0  0  0  0
 21 23  2  0  0  0  0
 21 40  1  0  0  0  0
 22 48  1  0  0  0  0
 23 41  1  0  0  0  0
 24 71  1  0  0  0  0
 25 82  1  0  0  0  0
 26 83  1  0  0  0  0
 27 29  2  0  0  0  0
 27 82  1  0  0  0  0
 28 84  1  0  0  0  0
 29 85  1  0  0  0  0
 30 65  2  0  0  0  0
 31 64  2  0  0  0  0
 31 72  1  0  0  0  0
 32 66  1  0  0  0  0
 32 69  1  0  0  0  0
 33 70  1  0  0  0  0
 33 76  2  0  0  0  0
 34 49  1  0  0  0  0
 34 73  1  0  0  0  0
 34 77  2  0  0  0  0
 35 58  1  0  0  0  0
 35 62  1  0  0  0  0
 35 78  2  0  0  0  0
 36 60  1  0  0  0  0
 36 67  1  0  0  0  0
 36 79  2  0  0  0  0
 37 61  1  0  0  0  0
 37 74  1  0  0  0  0
 37 80  2  0  0  0  0
 38 68  1  0  0  0  0
 38 71  1  0  0  0  0
 38 81  2  0  0  0  0
 39 42  1  0  0  0  0
 40 49  1  0  0  0  0
 41 67  1  0  0  0  0
 42 44  1  0  0  0  0
 43 45  1  0  0  0  0
 43 46  1  0  0  0  0
 44 48  1  0  0  0  0
 45 50  1  0  0  0  0
 46 68  1  0  0  0  0
 47 50  1  0  0  0  0
 47 68  1  0  0  0  0
 48 73  1  0  0  0  0
 49 67  1  0  0  0  0
 50 66  1  0  0  0  0
 51 61  1  0  0  0  0
 52 62  1  0  0  0  0
 53 62  1  0  0  0  0
 54 63  1  0  0  0  0
 55 63  1  0  0  0  0
 56 63  1  0  0  0  0
 57 75  1  0  0  0  0
 58 72  1  0  0  0  0
 59 62  1  0  0  0  0
 59 83  1  0  0  0  0
 60 63  1  0  0  0  0
 60 74  1  0  0  0  0
 61 75  1  0  0  0  0
 65 66  1  0  0  0  0
M  CHG  1  75   1
M  ISO  4  38 100  59 101  71 100  83 101
M  END
> <Batch ID>
0149

> <Smiles>
CNC(C)C(=O)NC(C(=O)N1Cc2cc([101O:1][101CH2:1]C(C)(C)C(=O)CNc3ccc([100NH:0][100C:0](=O)N4CCCC(n5nc(-c6ccc(Oc7ccc(F)cc7F)cc6)c(C(N)=O)c5N)C4)cn3)ccc2CC1C(=O)NC1CCCc2ccccc21)C(C)(C)C

> <Shape>
0.320

> <Color>
0.078

> <Negative vol penalty>
0.000

$$$$

  -OEChem-04052303193D

 83 91  0     1  0  0  0  0  0999 V2000
  -27.5817  -34.7608   25.5171 C   0  0  0  0  0  0  0  0  0  0  0  0
  -28.0167  -34.4553   24.2315 C   0  0  0  0  0  0  0  0  0  0  0  0
  -24.0339   -9.1005   20.1039 C   0  0  0  0  0  0  0  0  0  0  0  0
  -23.0194  -10.6540   21.6513 C   0  0  0  0  0  0  0  0  0  0  0  0
  -27.2170  -33.7367   26.3902 C   0  0  0  0  0  0  0  0  0  0  0  0
  -28.0883  -33.1253   23.8185 C   0  0  0  0  0  0  0  0  0  0  0  0
  -27.3205  -29.0429   17.9823 C   0  0  0  0  0  0  0  0  0  0  0  0
  -23.1796   -8.0940   20.5543 C   0  0  0  0  0  0  0  0  0  0  0  0
  -22.1651   -9.6476   22.1017 C   0  0  0  0  0  0  0  0  0  0  0  0
  -28.0011  -28.0704   17.2510 C   0  0  0  0  0  0  0  0  0  0  0  0
  -21.5080   -5.0222   21.5510 C   0  0  0  0  0  0  0  0  0  0  0  0
  -22.0606   -3.7678   21.8090 C   0  0  0  0  0  0  0  0  0  0  0  0
  -29.8738  -20.4690   20.4841 C   0  0  0  0  0  0  0  0  0  0  0  0
  -30.0994  -19.1377   20.9389 C   0  0  0  0  0  0  0  0  0  0  0  0
  -27.2701  -26.3887   18.8184 C   0  0  0  0  0  0  0  0  0  0  0  0
  -23.5200   -4.7511   23.4643 C   0  0  0  0  0  0  0  0  0  0  0  0
  -23.9538  -10.3805   20.6524 C   0  0  0  0  0  0  0  0  0  0  0  0
  -24.6059  -12.3222   19.1318 C   0  0  0  0  0  0  0  0  0  0  0  0
  -27.2750  -32.3941   25.9844 C   0  0  0  0  0  0  0  0  0  0  0  0
  -26.6174  -28.6968   19.1452 C   0  0  0  0  0  0  0  0  0  0  0  0
  -27.7253  -32.0823   24.6874 C   0  0  0  0  0  0  0  0  0  0  0  0
  -26.5793  -27.3583   19.5613 C   0  0  0  0  0  0  0  0  0  0  0  0
  -22.2452   -8.3676   21.5532 C   0  0  0  0  0  0  0  0  0  0  0  0
  -27.9784  -26.7436   17.6706 C   0  0  0  0  0  0  0  0  0  0  0  0
  -21.9615   -6.1412   22.2495 C   0  0  0  0  0  0  0  0  0  0  0  0
  -23.0666   -3.6322   22.7656 C   0  0  0  0  0  0  0  0  0  0  0  0
  -22.9675   -6.0056   23.2062 C   0  0  0  0  0  0  0  0  0  0  0  0
  -24.8364  -11.4204   20.1880 C   0  0  0  0  0  0  0  0  0  0  0  0
  -28.6068  -20.6320   19.9687 C   0  0  0  0  0  0  0  0  0  0  0  0
  -25.7365  -13.1010   19.0924 C   0  0  0  0  0  0  0  0  0  0  0  0
  -28.9960  -18.3338   20.7539 C   0  0  0  0  0  0  0  0  0  0  0  0
  -28.6249  -22.2927   18.3988 C   0  0  0  0  0  0  0  0  0  0  0  0
  -23.4712  -12.4449   18.2640 C   0  0  0  0  0  0  0  0  0  0  0  0
  -26.8394  -29.4806   22.2177 C   0  0  0  0  0  0  0  0  0  0  0  0
  -24.1097  -27.7446   22.4561 C   0  0  0  0  0  0  0  0  0  0  0  0
  -22.1154  -25.2906   21.1725 C   0  0  0  0  0  0  0  0  0  0  0  0
  -29.6901  -16.0805   21.6410 C   0  0  0  0  0  0  0  0  0  0  0  0
  -26.9155  -31.3190   26.9792 C   0  0  0  0  0  0  0  0  0  0  0  0
  -25.8662  -29.7533   19.9080 C   0  0  0  0  0  0  0  0  0  0  0  0
  -25.8223  -26.9315   20.7915 C   0  0  0  0  0  0  0  0  0  0  0  0
  -26.6633  -29.9564   26.3389 C   0  0  0  0  0  0  0  0  0  0  0  0
  -30.1914  -12.5615   21.4343 C   0  0  0  0  0  0  0  0  0  0  0  0
  -27.7624  -29.6273   25.3336 C   0  0  0  0  0  0  0  0  0  0  0  0
  -28.8239  -12.0251   21.0047 C   0  0  0  0  0  0  0  0  0  0  0  0
  -30.0612  -13.7420   22.3952 C   0  0  0  0  0  0  0  0  0  0  0  0
  -27.8389  -14.3011   21.4909 C   0  0  0  0  0  0  0  0  0  0  0  0
  -27.7930  -30.6532   24.1942 C   0  0  1  0  0  0  0  0  0  0  0  0
  -25.6090  -29.3710   21.3624 C   0  0  1  0  0  0  0  0  0  0  0  0
  -27.9183  -13.1527   20.4719 C   0  0  2  0  0  0  0  0  0  0  0  0
  -19.9673  -24.0687   21.6085 C   0  0  0  0  0  0  0  0  0  0  0  0
  -25.4780  -26.1275   24.6522 C   0  0  0  0  0  0  0  0  0  0  0  0
  -23.7034  -24.3830   24.3769 C   0  0  0  0  0  0  0  0  0  0  0  0
  -23.0830  -26.6863   25.1065 C   0  0  0  0  0  0  0  0  0  0  0  0
  -30.4042  -24.1980   16.9403 C   0  0  0  0  0  0  0  0  0  0  0  0
  -29.5602  -25.1582   19.0821 C   0  0  0  0  0  0  0  0  0  0  0  0
  -20.9343  -26.2198   18.6229 C   0  0  0  0  0  0  0  0  0  0  0  0
  -28.0935  -23.5436   17.7389 C   0  0  1  0  0  0  0  0  0  0  0  0
  -23.7850  -26.2922   22.7098 C   0  0  1  0  0  0  0  0  0  0  0  0
  -20.6225  -25.2449   20.9013 C   0  0  2  0  0  0  0  0  0  0  0  0
  -24.0283  -25.8803   24.1892 C   0  0  0  0  0  0  0  0  0  0  0  0
  -29.1486  -24.6732   17.6852 C   0  0  0  0  0  0  0  0  0  1  0  0
  -26.0205  -11.6079   20.7769 N   0  0  0  0  0  0  0  0  0  0  0  0
  -28.0251  -21.7913   19.4291 N   0  0  0  0  0  0  0  0  0  0  0  0
  -26.5442  -12.6363   20.0883 N   0  0  0  0  0  0  0  0  0  0  0  0
  -25.1089  -28.0023   21.5070 N   0  0  0  0  0  0  0  0  0  0  0  0
  -29.1928  -14.7725   21.8218 N   0  0  0  0  0  0  0  0  0  0  0  0
  -26.1087  -14.1311   18.3032 N   0  0  0  0  0  0  0  0  0  0  0  0
  -22.3956  -11.5641   18.4420 N   0  0  0  0  0  0  0  0  0  0  0  0
  -28.7846  -16.9660   21.0576 N   0  0  0  0  0  0  0  0  0  0  0  0
  -26.7275  -30.3920   23.2502 N   0  0  0  0  0  0  0  0  0  0  0  0
  -22.4139  -26.0945   22.2523 N   0  0  0  0  0  0  0  0  0  0  0  0
  -27.6328  -23.1726   16.3702 N   0  3  0  0  0  0  0  0  0  0  0  0
  -20.3654  -25.1165   19.4389 N   0  3  0  0  0  0  0  0  0  0  0  0
  -23.4198  -13.2993   17.3470 O   0  0  0  0  0  0  0  0  0  0  0  0
  -27.8174  -28.7883   21.9608 O   0  0  0  0  0  0  0  0  0  0  0  0
  -23.4941  -28.6183   23.0720 O   0  0  0  0  0  0  0  0  0  0  0  0
  -22.9344  -24.6718   20.4966 O   0  0  0  0  0  0  0  0  0  0  0  0
  -30.8439  -16.3850   21.9538 O   0  0  0  0  0  0  0  0  0  0  0  0
  -21.4113   -7.3858   21.9928 O   0  0  0  0  0  0  0  0  0  0  0  0
  -28.6424  -25.7925   16.9590 O   0  0  0  0  0  0  0  0  0  1  0  0
  -23.5960   -2.4272   23.0144 F   0  0  0  0  0  0  0  0  0  0  0  0
  -23.4064   -7.0767   23.8814 F   0  0  0  0  0  0  0  0  0  0  0  0
  -27.6952  -19.1839   20.0344 S   0  0  0  0  0  0  0  0  0  0  0  0
  1  2  1  0  0  0  0
  1  5  2  0  0  0  0
  2  6  2  0  0  0  0
  3  8  2  0  0  0  0
  3 17  1  0  0  0  0
  4  9  1  0  0  0  0
  4 17  2  0  0  0  0
  5 19  1  0  0  0  0
  6 21  1  0  0  0  0
  7 10  2  0  0  0  0
  7 20  1  0  0  0  0
  8 23  1  0  0  0  0
  9 23  2  0  0  0  0
 10 24  1  0  0  0  0
 11 12  2  0  0  0  0
 11 25  1  0  0  0  0
 12 26  1  0  0  0  0
 13 14  1  0  0  0  0
 13 29  2  0  0  0  0
 14 31  2  0  0  0  0
 15 22  1  0  0  0  0
 15 24  2  0  0  0  0
 16 26  2  0  0  0  0
 16 27  1  0  0  0  0
 17 28  1  0  0  0  0
 18 28  1  0  0  0  0
 18 30  2  0  0  0  0
 18 33  1  0  0  0  0
 19 21  2  0  0  0  0
 19 38  1  0  0  0  0
 20 22  2  0  0  0  0
 20 39  1  0  0  0  0
 21 47  1  0  0  0  0
 22 40  1  0  0  0  0
 23 79  1  0  0  0  0
 24 80  1  0  0  0  0
 25 27  2  0  0  0  0
 25 79  1  0  0  0  0
 26 81  1  0  0  0  0
 27 82  1  0  0  0  0
 28 62  2  0  0  0  0
 29 63  1  0  0  0  0
 29 83  1  0  0  0  0
 30 64  1  0  0  0  0
 30 67  1  0  0  0  0
 31 69  1  0  0  0  0
 31 83  1  0  0  0  0
 32 57  1  0  0  0  0
 32 63  2  0  0  0  0
 33 68  1  0  0  0  0
 33 74  2  0  0  0  0
 34 48  1  0  0  0  0
 34 70  1  0  0  0  0
 34 75  2  0  0  0  0
 35 58  1  0  0  0  0
 35 65  1  0  0  0  0
 35 76  2  0  0  0  0
 36 59  1  0  0  0  0
 36 71  1  0  0  0  0
 36 77  2  0  0  0  0
 37 66  1  0  0  0  0
 37 69  1  0  0  0  0
 37 78  2  0  0  0  0
 38 41  1  0  0  0  0
 39 48  1  0  0  0  0
 40 65  1  0  0  0  0
 41 43  1  0  0  0  0
 42 44  1  0  0  0  0
 42 45  1  0  0  0  0
 43 47  1  0  0  0  0
 44 49  1  0  0  0  0
 45 66  1  0  0  0  0
 46 49  1  0  0  0  0
 46 66  1  0  0  0  0
 47 70  1  0  0  0  0
 48 65  1  0  0  0  0
 49 64  1  0  0  0  0
 50 59  1  0  0  0  0
 51 60  1  0  0  0  0
 52 60  1  0  0  0  0
 53 60  1  0  0  0  0
 54 61  1  0  0  0  0
 55 61  1  0  0  0  0
 56 73  1  0  0  0  0
 57 61  1  0  0  0  0
 57 72  1  0  0  0  0
 58 60  1  0  0  0  0
 58 71  1  0  0  0  0
 59 73  1  0  0  0  0
 61 80  1  0  0  0  0
 62 64  1  0  0  0  0
M  CHG  2  72   1  73   1
M  ISO  4  37 100  61 101  69 100  80 101
M  END
> <Batch ID>
0149

> <Smiles>
CNC(C)C(=O)NC(C(=O)N1Cc2cc([101O:1][101C:1](C)(C)C(=N)CNc3ccc([100NH:0][100C:0](=O)N4CCCC(n5nc(-c6ccc(Oc7ccc(F)cc7F)cc6)c(C(N)=O)c5N)C4)s3)ccc2CC1C(=O)NC1CCCc2ccccc21)C(C)(C)C

> <Shape>
0.288

> <Color>
0.093

> <Negative vol penalty>
0.000

$$$$

  -OEChem-04052303193D

 86 94  0     1  0  0  0  0  0999 V2000
  -32.5772  -25.4195   19.1064 C   0  0  0  0  0  0  0  0  0  0  0  0
  -31.2494  -25.0445   19.2842 C   0  0  0  0  0  0  0  0  0  0  0  0
  -25.3990   -9.0912   21.0423 C   0  0  0  0  0  0  0  0  0  0  0  0
  -25.9112  -10.2110   23.1210 C   0  0  0  0  0  0  0  0  0  0  0  0
  -33.1551  -26.3593   19.9588 C   0  0  0  0  0  0  0  0  0  0  0  0
  -30.4989  -25.6083   20.3153 C   0  0  0  0  0  0  0  0  0  0  0  0
  -24.5223  -26.9409   20.2153 C   0  0  0  0  0  0  0  0  0  0  0  0
  -25.6759   -7.8603   21.6371 C   0  0  0  0  0  0  0  0  0  0  0  0
  -26.1881   -8.9801   23.7158 C   0  0  0  0  0  0  0  0  0  0  0  0
  -23.4025  -26.2655   20.6986 C   0  0  0  0  0  0  0  0  0  0  0  0
  -24.1199   -5.6896   23.7107 C   0  0  0  0  0  0  0  0  0  0  0  0
  -23.2266   -4.6432   23.4812 C   0  0  0  0  0  0  0  0  0  0  0  0
  -26.2297  -21.6879   21.5571 C   0  0  0  0  0  0  0  0  0  0  0  0
  -23.4789  -27.5921   22.7120 C   0  0  0  0  0  0  0  0  0  0  0  0
  -25.0029   -3.3461   22.4815 C   0  0  0  0  0  0  0  0  0  0  0  0
  -25.5167  -10.2666   21.7842 C   0  0  0  0  0  0  0  0  0  0  0  0
  -26.8539  -20.6367   20.8253 C   0  0  0  0  0  0  0  0  0  0  0  0
  -23.9891  -12.1989   21.1207 C   0  0  0  0  0  0  0  0  0  0  0  0
  -32.4085  -26.9422   20.9949 C   0  0  0  0  0  0  0  0  0  0  0  0
  -25.1364  -27.9411   20.9826 C   0  0  0  0  0  0  0  0  0  0  0  0
  -31.0677  -26.5559   21.1833 C   0  0  0  0  0  0  0  0  0  0  0  0
  -24.6049  -28.2804   22.2350 C   0  0  0  0  0  0  0  0  0  0  0  0
  -26.0704   -7.8047   22.9739 C   0  0  0  0  0  0  0  0  0  0  0  0
  -22.8824  -26.5890   21.9484 C   0  0  0  0  0  0  0  0  0  0  0  0
  -25.4547   -5.5643   23.3255 C   0  0  0  0  0  0  0  0  0  0  0  0
  -23.6681   -3.4714   22.8667 C   0  0  0  0  0  0  0  0  0  0  0  0
  -25.8962   -4.3925   22.7110 C   0  0  0  0  0  0  0  0  0  0  0  0
  -25.2314  -11.5384   21.1701 C   0  0  0  0  0  0  0  0  0  0  0  0
  -24.2448  -13.3601   20.4331 C   0  0  0  0  0  0  0  0  0  0  0  0
  -24.9910  -21.3210   22.0352 C   0  0  0  0  0  0  0  0  0  0  0  0
  -26.0684  -19.5062   20.7722 C   0  0  0  0  0  0  0  0  0  0  0  0
  -28.1512  -20.7202   20.2051 C   0  0  0  0  0  0  0  0  0  0  0  0
  -22.7178  -11.7986   21.6490 C   0  0  0  0  0  0  0  0  0  0  0  0
  -28.0143  -28.3267   22.2759 C   0  0  0  0  0  0  0  0  0  0  0  0
  -26.8625  -31.2696   23.0074 C   0  0  0  0  0  0  0  0  0  0  0  0
  -24.1451  -23.3512   23.2620 C   0  0  0  0  0  0  0  0  0  0  0  0
  -24.1488  -33.2602   23.5733 C   0  0  0  0  0  0  0  0  0  0  0  0
  -27.4025  -17.8369   19.4379 C   0  0  0  0  0  0  0  0  0  0  0  0
  -33.0902  -27.9187   21.9203 C   0  0  0  0  0  0  0  0  0  0  0  0
  -26.3276  -28.6787   20.4355 C   0  0  0  0  0  0  0  0  0  0  0  0
  -25.2150  -29.3605   23.0892 C   0  0  0  0  0  0  0  0  0  0  0  0
  -32.1174  -28.7468   22.7558 C   0  0  0  0  0  0  0  0  0  0  0  0
  -28.3276  -14.8064   17.8139 C   0  0  0  0  0  0  0  0  0  0  0  0
  -31.0425  -27.8527   23.3658 C   0  0  0  0  0  0  0  0  0  0  0  0
  -27.5024  -13.7404   18.5382 C   0  0  0  0  0  0  0  0  0  0  0  0
  -28.8063  -15.8988   18.7686 C   0  0  0  0  0  0  0  0  0  0  0  0
  -26.9251  -15.4603   20.2977 C   0  0  0  0  0  0  0  0  0  0  0  0
  -30.2139  -27.1635   22.2749 C   0  0  1  0  0  0  0  0  0  0  0  0
  -27.1813  -29.3247   21.5224 C   0  0  1  0  0  0  0  0  0  0  0  0
  -26.3661  -14.3730   19.3654 C   0  0  2  0  0  0  0  0  0  0  0  0
  -28.6158  -22.0683   19.7156 C   0  0  0  0  0  0  0  0  0  0  0  0
  -23.5247  -35.6120   24.1874 C   0  0  0  0  0  0  0  0  0  0  0  0
  -20.2980  -24.4760   21.2333 C   0  0  0  0  0  0  0  0  0  0  0  0
  -27.6441  -30.7179   25.9048 C   0  0  0  0  0  0  0  0  0  0  0  0
  -26.1741  -32.6248   26.5913 C   0  0  0  0  0  0  0  0  0  0  0  0
  -28.1411  -33.0378   25.1138 C   0  0  0  0  0  0  0  0  0  0  0  0
  -22.6758  -33.6549   21.0369 C   0  0  0  0  0  0  0  0  0  0  0  0
  -22.8983  -23.7410   24.0466 C   0  0  0  0  0  0  0  0  0  0  0  0
  -21.6057  -23.6643   23.2297 C   0  0  0  0  0  0  0  0  0  0  0  0
  -26.1093  -31.8634   24.1732 C   0  0  1  0  0  0  0  0  0  0  0  0
  -23.7827  -34.6370   23.0491 C   0  0  2  0  0  0  0  0  0  0  0  0
  -21.6107  -24.5800   21.9994 C   0  0  2  0  0  0  0  0  0  1  0  0
  -27.0066  -32.0392   25.4307 C   0  0  0  0  0  0  0  0  0  0  0  0
  -26.2039  -12.2230   20.5623 N   0  0  0  0  0  0  0  0  0  0  0  0
  -25.5728  -13.3257   20.1243 N   0  0  0  0  0  0  0  0  0  0  0  0
  -26.3822  -30.0486   22.5132 N   0  0  0  0  0  0  0  0  0  0  0  0
  -27.6755  -16.4548   19.5149 N   0  0  0  0  0  0  0  0  0  0  0  0
  -23.4609  -14.3969   20.0685 N   0  0  0  0  0  0  0  0  0  0  0  0
  -22.6316  -10.5756   22.3282 N   0  0  0  0  0  0  0  0  0  0  0  0
  -24.0428  -22.0424   22.7990 N   0  0  0  0  0  0  0  0  0  0  0  0
  -26.2836  -18.2449   20.1633 N   0  0  0  0  0  0  0  0  0  0  0  0
  -29.2526  -28.0869   21.7113 N   0  0  0  0  0  0  0  0  0  0  0  0
  -25.5141  -33.1030   23.6858 N   0  0  0  0  0  0  0  0  0  0  0  0
  -22.5550  -34.5613   22.2077 N   0  3  0  0  0  0  0  0  0  0  0  0
  -28.9290  -19.7692   20.0309 O   0  0  0  0  0  0  0  0  0  0  0  0
  -21.6852  -12.4968   21.5084 O   0  0  0  0  0  0  0  0  0  0  0  0
  -27.5674  -27.8134   23.2949 O   0  0  0  0  0  0  0  0  0  0  0  0
  -27.8366  -31.8706   22.5475 O   0  0  0  0  0  0  0  0  0  0  0  0
  -25.0698  -24.1353   23.0763 O   0  0  0  0  0  0  0  0  0  0  0  0
  -23.3077  -32.4106   23.8583 O   0  0  0  0  0  0  0  0  0  0  0  0
  -28.0931  -18.5978   18.7552 O   0  0  0  0  0  0  0  0  0  0  0  0
  -26.3405   -6.6038   23.5547 O   0  0  0  0  0  0  0  0  0  0  0  0
  -21.7898  -25.9309   22.4229 O   0  0  0  0  0  0  0  0  0  1  0  0
  -22.8106   -2.4660   22.6478 F   0  0  0  0  0  0  0  0  0  0  0  0
  -27.1776   -4.2659   22.3398 F   0  0  0  0  0  0  0  0  0  0  0  0
  -24.5851  -19.7148   21.6019 S   0  0  0  0  0  0  0  0  0  0  0  0
  1  2  1  0  0  0  0
  1  5  2  0  0  0  0
  2  6  2  0  0  0  0
  3  8  2  0  0  0  0
  3 16  1  0  0  0  0
  4  9  1  0  0  0  0
  4 16  2  0  0  0  0
  5 19  1  0  0  0  0
  6 21  1  0  0  0  0
  7 10  2  0  0  0  0
  7 20  1  0  0  0  0
  8 23  1  0  0  0  0
  9 23  2  0  0  0  0
 10 24  1  0  0  0  0
 11 12  2  0  0  0  0
 11 25  1  0  0  0  0
 12 26  1  0  0  0  0
 13 17  1  0  0  0  0
 13 30  2  0  0  0  0
 14 22  1  0  0  0  0
 14 24  2  0  0  0  0
 15 26  2  0  0  0  0
 15 27  1  0  0  0  0
 16 28  1  0  0  0  0
 17 31  2  0  0  0  0
 17 32  1  0  0  0  0
 18 28  1  0  0  0  0
 18 29  2  0  0  0  0
 18 33  1  0  0  0  0
 19 21  2  0  0  0  0
 19 39  1  0  0  0  0
 20 22  2  0  0  0  0
 20 40  1  0  0  0  0
 21 48  1  0  0  0  0
 22 41  1  0  0  0  0
 23 82  1  0  0  0  0
 24 83  1  0  0  0  0
 25 27  2  0  0  0  0
 25 82  1  0  0  0  0
 26 84  1  0  0  0  0
 27 85  1  0  0  0  0
 28 64  2  0  0  0  0
 29 65  1  0  0  0  0
 29 68  1  0  0  0  0
 30 70  1  0  0  0  0
 30 86  1  0  0  0  0
 31 71  1  0  0  0  0
 31 86  1  0  0  0  0
 32 51  1  0  0  0  0
 32 75  2  0  0  0  0
 33 69  1  0  0  0  0
 33 76  2  0  0  0  0
 34 49  1  0  0  0  0
 34 72  1  0  0  0  0
 34 77  2  0  0  0  0
 35 60  1  0  0  0  0
 35 66  1  0  0  0  0
 35 78  2  0  0  0  0
 36 58  1  0  0  0  0
 36 70  1  0  0  0  0
 36 79  2  0  0  0  0
 37 61  1  0  0  0  0
 37 73  1  0  0  0  0
 37 80  2  0  0  0  0
 38 67  1  0  0  0  0
 38 71  1  0  0  0  0
 38 81  2  0  0  0  0
 39 42  1  0  0  0  0
 40 49  1  0  0  0  0
 41 66  1  0  0  0  0
 42 44  1  0  0  0  0
 43 45  1  0  0  0  0
 43 46  1  0  0  0  0
 44 48  1  0  0  0  0
 45 50  1  0  0  0  0
 46 67  1  0  0  0  0
 47 50  1  0  0  0  0
 47 67  1  0  0  0  0
 48 72  1  0  0  0  0
 49 66  1  0  0  0  0
 50 65  1  0  0  0  0
 52 61  1  0  0  0  0
 53 62  1  0  0  0  0
 54 63  1  0  0  0  0
 55 63  1  0  0  0  0
 56 63  1  0  0  0  0
 57 74  1  0  0  0  0
 58 59  1  0  0  0  0
 59 62  1  0  0  0  0
 60 63  1  0  0  0  0
 60 73  1  0  0  0  0
 61 74  1  0  0  0  0
 62 83  1  0  0  0  0
 64 65  1  0  0  0  0
M  CHG  1  74   1
M  ISO  4  38 100  62 101  71 100  83 101
M  END
> <Batch ID>
0149

> <Smiles>
CNC(C)C(=O)NC(C(=O)N1Cc2cc([101O:1][101CH:1](C)CCC(=O)Nc3cc(C(C)=O)c([100NH:0][100C:0](=O)N4CCCC(n5nc(-c6ccc(Oc7ccc(F)cc7F)cc6)c(C(N)=O)c5N)C4)s3)ccc2CC1C(=O)NC1CCCc2ccccc21)C(C)(C)C

> <Shape>
0.236

> <Color>
0.079

> <Negative vol penalty>
0.000

$$$$

  -OEChem-04052303193D

 93103  0     1  0  0  0  0  0999 V2000
  -31.5932  -35.5209   18.4877 C   0  0  0  0  0  0  0  0  0  0  0  0
  -30.4506  -34.9533   17.9331 C   0  0  0  0  0  0  0  0  0  0  0  0
  -22.7871  -10.1199   20.1478 C   0  0  0  0  0  0  0  0  0  0  0  0
  -24.6325   -8.8086   20.9917 C   0  0  0  0  0  0  0  0  0  0  0  0
  -32.6031  -34.7019   18.9911 C   0  0  0  0  0  0  0  0  0  0  0  0
  -30.3176  -33.5662   17.8806 C   0  0  0  0  0  0  0  0  0  0  0  0
  -25.3548  -31.2592   21.6712 C   0  0  0  0  0  0  0  0  0  0  0  0
  -21.9049   -9.0914   20.4785 C   0  0  0  0  0  0  0  0  0  0  0  0
  -23.7502   -7.7800   21.3225 C   0  0  0  0  0  0  0  0  0  0  0  0
  -24.0172  -30.9760   21.9487 C   0  0  0  0  0  0  0  0  0  0  0  0
  -21.5466   -7.0878   23.7894 C   0  0  0  0  0  0  0  0  0  0  0  0
  -21.6920   -6.4887   25.0406 C   0  0  0  0  0  0  0  0  0  0  0  0
  -24.1285  -29.0164   20.5364 C   0  0  0  0  0  0  0  0  0  0  0  0
  -20.9768  -24.4898   24.1397 C   0  0  0  0  0  0  0  0  0  0  0  0
  -22.0837   -4.3565   23.9741 C   0  0  0  0  0  0  0  0  0  0  0  0
  -24.5387  -17.9550   23.7494 C   0  0  0  0  0  0  0  0  0  0  0  0
  -19.0887  -23.4871   24.7770 C   0  0  0  0  0  0  0  0  0  0  0  0
  -24.1509   -9.9785   20.4043 C   0  0  0  0  0  0  0  0  0  0  0  0
  -25.2976  -11.5805   18.7837 C   0  0  0  0  0  0  0  0  0  0  0  0
  -32.4781  -33.3042   18.9535 C   0  0  0  0  0  0  0  0  0  0  0  0
  -26.0900  -30.4126   20.8362 C   0  0  0  0  0  0  0  0  0  0  0  0
  -31.3273  -32.7277   18.3828 C   0  0  0  0  0  0  0  0  0  0  0  0
  -25.4721  -29.2879   20.2653 C   0  0  0  0  0  0  0  0  0  0  0  0
  -20.4159  -23.2441   24.5097 C   0  0  0  0  0  0  0  0  0  0  0  0
  -22.3865   -7.9214   21.0659 C   0  0  0  0  0  0  0  0  0  0  0  0
  -23.4055  -29.8576   21.3824 C   0  0  0  0  0  0  0  0  0  0  0  0
  -21.6697   -6.3212   22.6305 C   0  0  0  0  0  0  0  0  0  0  0  0
  -21.9605   -5.1230   25.1329 C   0  0  0  0  0  0  0  0  0  0  0  0
  -21.9382   -4.9556   22.7228 C   0  0  0  0  0  0  0  0  0  0  0  0
  -25.0628  -11.0404   20.0624 C   0  0  0  0  0  0  0  0  0  0  0  0
  -25.8725  -17.5608   23.9666 C   0  0  0  0  0  0  0  0  0  0  0  0
  -24.4584  -19.2116   24.2982 C   0  0  0  0  0  0  0  0  0  0  0  0
  -26.2427  -12.5554   18.9910 C   0  0  0  0  0  0  0  0  0  0  0  0
  -19.9523  -25.4051   24.2070 C   0  0  0  0  0  0  0  0  0  0  0  0
  -24.7136  -11.2321   17.5215 C   0  0  0  0  0  0  0  0  0  0  0  0
  -29.3321  -29.7069   19.1220 C   0  0  0  0  0  0  0  0  0  0  0  0
  -28.1103  -26.9354   20.1112 C   0  0  0  0  0  0  0  0  0  0  0  0
  -20.9730  -27.6101   23.5435 C   0  0  0  0  0  0  0  0  0  0  0  0
  -31.1648  -25.6898   19.2361 C   0  0  0  0  0  0  0  0  0  0  0  0
  -27.7207  -15.8636   23.7424 C   0  0  0  0  0  0  0  0  0  0  0  0
  -33.6172  -32.4595   19.4670 C   0  0  0  0  0  0  0  0  0  0  0  0
  -27.5152  -30.7179   20.4604 C   0  0  0  0  0  0  0  0  0  0  0  0
  -26.2906  -28.4239   19.3475 C   0  0  0  0  0  0  0  0  0  0  0  0
  -33.2324  -31.0030   19.7134 C   0  0  0  0  0  0  0  0  0  0  0  0
  -29.8676  -13.6977   21.9047 C   0  0  0  0  0  0  0  0  0  0  0  0
  -32.4429  -30.4519   18.5303 C   0  0  0  0  0  0  0  0  0  0  0  0
  -28.9006  -12.8237   21.1027 C   0  0  0  0  0  0  0  0  0  0  0  0
  -22.2610  -21.9253   25.6374 C   0  0  0  0  0  0  0  0  0  0  0  0
  -21.6942  -21.4664   23.2368 C   0  0  0  0  0  0  0  0  0  0  0  0
  -29.3227  -14.0172   23.2957 C   0  0  0  0  0  0  0  0  0  0  0  0
  -22.9566  -20.5661   25.7272 C   0  0  0  0  0  0  0  0  0  0  0  0
  -22.3865  -20.1077   23.3409 C   0  0  0  0  0  0  0  0  0  0  0  0
  -27.0054  -13.7199   22.5142 C   0  0  0  0  0  0  0  0  0  0  0  0
  -21.1322  -21.9095   24.5961 C   0  0  0  0  0  0  0  0  0  0  0  0
  -31.1353  -31.2276   18.3303 C   0  0  1  0  0  0  0  0  0  0  0  0
  -28.3820  -29.4592   20.2566 C   0  0  1  0  0  0  0  0  0  0  0  0
  -27.4817  -13.4254   21.0824 C   0  0  2  0  0  0  0  0  0  0  0  0
  -32.6767  -23.7254   19.6269 C   0  0  0  0  0  0  0  0  0  0  0  0
  -28.8324  -28.0415   22.8618 C   0  0  0  0  0  0  0  0  0  0  0  0
  -30.9288  -26.6749   22.7840 C   0  0  0  0  0  0  0  0  0  0  0  0
  -28.7043  -25.5468   22.7413 C   0  0  0  0  0  0  0  0  0  0  0  0
  -26.1287  -20.6880   25.4650 C   0  0  0  0  0  0  0  0  0  0  0  0
  -31.1387  -24.9518   16.3702 C   0  0  0  0  0  0  0  0  0  0  0  0
  -20.5023  -29.0507   23.3792 C   0  0  0  0  0  0  0  0  0  0  0  0
  -21.6100  -29.9945   22.9365 C   0  0  0  0  0  0  0  0  0  1  0  0
  -29.4961  -26.8035   20.6954 C   0  0  1  0  0  0  0  0  0  0  0  0
  -31.5898  -24.3182   18.7437 C   0  0  2  0  0  0  0  0  0  0  0  0
  -29.4847  -26.7855   22.2501 C   0  0  0  0  0  0  0  0  0  0  0  0
  -25.7995  -11.6236   21.0117 N   0  0  0  0  0  0  0  0  0  0  0  0
  -26.5881  -18.4915   24.6035 N   0  0  0  0  0  0  0  0  0  0  0  0
  -25.7007  -19.4831   24.7912 N   0  0  0  0  0  0  0  0  0  0  0  0
  -26.5065  -12.5403   20.3291 N   0  0  0  0  0  0  0  0  0  0  0  0
  -23.4042  -20.1272   24.4008 N   0  0  0  0  0  0  0  0  0  0  0  0
  -27.6356  -28.2364   19.9031 N   0  0  0  0  0  0  0  0  0  0  0  0
  -27.9774  -14.5877   23.1975 N   0  0  0  0  0  0  0  0  0  0  0  0
  -26.8655  -13.4154   18.1574 N   0  0  0  0  0  0  0  0  0  0  0  0
  -25.3354  -10.2425   16.7479 N   0  0  0  0  0  0  0  0  0  0  0  0
  -26.4144  -16.3162   23.5601 N   0  0  0  0  0  0  0  0  0  0  0  0
  -19.9186  -26.7961   23.9488 N   0  0  0  0  0  0  0  0  0  0  0  0
  -30.1461  -30.8092   19.3002 N   0  0  0  0  0  0  0  0  0  0  0  0
  -30.0835  -25.6141   20.0884 N   0  0  0  0  0  0  0  0  0  0  0  0
  -32.1124  -24.4069   17.3509 N   0  3  0  0  0  0  0  0  0  0  0  0
  -23.6805  -11.7938   17.0848 O   0  0  0  0  0  0  0  0  0  0  0  0
  -29.3291  -28.9530   18.1559 O   0  0  0  0  0  0  0  0  0  0  0  0
  -27.4668  -25.9140   19.8563 O   0  0  0  0  0  0  0  0  0  0  0  0
  -22.1340  -27.2747   23.3336 O   0  0  0  0  0  0  0  0  0  0  0  0
  -31.7372  -26.7246   18.9013 O   0  0  0  0  0  0  0  0  0  0  0  0
  -28.6024  -16.5188   24.3039 O   0  0  0  0  0  0  0  0  0  0  0  0
  -18.7980  -24.8019   24.5947 O   0  0  0  0  0  0  0  0  0  0  0  0
  -21.5259   -6.9177   21.3890 O   0  0  0  0  0  0  0  0  0  0  0  0
  -22.1007  -29.5844   21.6608 O   0  0  0  0  0  0  0  0  0  1  0  0
  -22.1016   -4.5482   26.3345 F   0  0  0  0  0  0  0  0  0  0  0  0
  -22.0588   -4.2142   21.6130 F   0  0  0  0  0  0  0  0  0  0  0  0
  1  2  1  0  0  0  0
  1  5  2  0  0  0  0
  2  6  2  0  0  0  0
  3  8  2  0  0  0  0
  3 18  1  0  0  0  0
  4  9  1  0  0  0  0
  4 18  2  0  0  0  0
  5 20  1  0  0  0  0
  6 22  1  0  0  0  0
  7 10  2  0  0  0  0
  7 21  1  0  0  0  0
  8 25  1  0  0  0  0
  9 25  2  0  0  0  0
 10 26  1  0  0  0  0
 11 12  2  0  0  0  0
 11 27  1  0  0  0  0
 12 28  1  0  0  0  0
 13 23  1  0  0  0  0
 13 26  2  0  0  0  0
 14 24  1  0  0  0  0
 14 34  2  0  0  0  0
 15 28  2  0  0  0  0
 15 29  1  0  0  0  0
 16 31  1  0  0  0  0
 16 32  2  0  0  0  0
 17 24  2  0  0  0  0
 17 89  1  0  0  0  0
 18 30  1  0  0  0  0
 19 30  1  0  0  0  0
 19 33  2  0  0  0  0
 19 35  1  0  0  0  0
 20 22  2  0  0  0  0
 20 41  1  0  0  0  0
 21 23  2  0  0  0  0
 21 42  1  0  0  0  0
 22 55  1  0  0  0  0
 23 43  1  0  0  0  0
 24 54  1  0  0  0  0
 25 90  1  0  0  0  0
 26 91  1  0  0  0  0
 27 29  2  0  0  0  0
 27 90  1  0  0  0  0
 28 92  1  0  0  0  0
 29 93  1  0  0  0  0
 30 69  2  0  0  0  0
 31 70  2  0  0  0  0
 31 78  1  0  0  0  0
 32 71  1  0  0  0  0
 32 73  1  0  0  0  0
 33 72  1  0  0  0  0
 33 76  1  0  0  0  0
 34 79  1  0  0  0  0
 34 89  1  0  0  0  0
 35 77  1  0  0  0  0
 35 83  2  0  0  0  0
 36 56  1  0  0  0  0
 36 80  1  0  0  0  0
 36 84  2  0  0  0  0
 37 66  1  0  0  0  0
 37 74  1  0  0  0  0
 37 85  2  0  0  0  0
 38 64  1  0  0  0  0
 38 79  1  0  0  0  0
 38 86  2  0  0  0  0
 39 67  1  0  0  0  0
 39 81  1  0  0  0  0
 39 87  2  0  0  0  0
 40 75  1  0  0  0  0
 40 78  1  0  0  0  0
 40 88  2  0  0  0  0
 41 44  1  0  0  0  0
 42 56  1  0  0  0  0
 43 74  1  0  0  0  0
 44 46  1  0  0  0  0
 45 47  1  0  0  0  0
 45 50  1  0  0  0  0
 46 55  1  0  0  0  0
 47 57  1  0  0  0  0
 48 51  1  0  0  0  0
 48 54  1  0  0  0  0
 49 52  1  0  0  0  0
 49 54  1  0  0  0  0
 50 75  1  0  0  0  0
 51 73  1  0  0  0  0
 52 73  1  0  0  0  0
 53 57  1  0  0  0  0
 53 75  1  0  0  0  0
 55 80  1  0  0  0  0
 56 74  1  0  0  0  0
 57 72  1  0  0  0  0
 58 67  1  0  0  0  0
 59 68  1  0  0  0  0
 60 68  1  0  0  0  0
 61 68  1  0  0  0  0
 62 71  1  0  0  0  0
 63 82  1  0  0  0  0
 64 65  1  0  0  0  0
 65 91  1  0  0  0  0
 66 68  1  0  0  0  0
 66 81  1  0  0  0  0
 67 82  1  0  0  0  0
 69 72  1  0  0  0  0
 70 71  1  0  0  0  0
M  CHG  1  82   1
M  ISO  4  40 100  65 101  78 100  91 101
M  END
> <Batch ID>
0149

> <Smiles>
CNC(C)C(=O)NC(C(=O)N1Cc2cc([101O:1][101CH2:1]CC(=O)Nc3cc(C4CCN(c5cc([100NH:0][100C:0](=O)N6CCCC(n7nc(-c8ccc(Oc9ccc(F)cc9F)cc8)c(C(N)=O)c7N)C6)nn5C)CC4)co3)ccc2CC1C(=O)NC1CCCc2ccccc21)C(C)(C)C

> <Shape>
0.240

> <Color>
0.087

> <Negative vol penalty>
0.000

$$$$

  -OEChem-04052303193D

 85 94  0     1  0  0  0  0  0999 V2000
  -19.4216  -33.7594   17.8199 C   0  0  0  0  0  0  0  0  0  0  0  0
  -20.4272  -32.8812   17.4287 C   0  0  0  0  0  0  0  0  0  0  0  0
  -24.5544   -9.0291   20.6086 C   0  0  0  0  0  0  0  0  0  0  0  0
  -22.7714  -10.5973   21.0545 C   0  0  0  0  0  0  0  0  0  0  0  0
  -19.5600  -34.4968   18.9951 C   0  0  0  0  0  0  0  0  0  0  0  0
  -21.5723  -32.7407   18.2119 C   0  0  0  0  0  0  0  0  0  0  0  0
  -24.8266  -27.6278   19.0912 C   0  0  0  0  0  0  0  0  0  0  0  0
  -23.6984   -7.9700   20.9103 C   0  0  0  0  0  0  0  0  0  0  0  0
  -21.9154   -9.5381   21.3562 C   0  0  0  0  0  0  0  0  0  0  0  0
  -26.0019  -27.1525   18.5108 C   0  0  0  0  0  0  0  0  0  0  0  0
  -20.0877   -7.2548   19.6630 C   0  0  0  0  0  0  0  0  0  0  0  0
  -18.8011   -7.2902   19.1255 C   0  0  0  0  0  0  0  0  0  0  0  0
  -27.2704  -28.0595   20.3513 C   0  0  0  0  0  0  0  0  0  0  0  0
  -28.4588  -20.1134   21.1632 C   0  0  0  0  0  0  0  0  0  0  0  0
  -17.8693   -7.2669   21.3545 C   0  0  0  0  0  0  0  0  0  0  0  0
  -27.0079  -19.5594   19.5618 C   0  0  0  0  0  0  0  0  0  0  0  0
  -24.0910  -10.3428   20.6807 C   0  0  0  0  0  0  0  0  0  0  0  0
  -25.1820  -12.0313   19.1104 C   0  0  0  0  0  0  0  0  0  0  0  0
  -20.7030  -34.3581   19.7981 C   0  0  0  0  0  0  0  0  0  0  0  0
  -24.8657  -28.3332   20.3025 C   0  0  0  0  0  0  0  0  0  0  0  0
  -21.7267  -33.4779   19.3982 C   0  0  0  0  0  0  0  0  0  0  0  0
  -26.0940  -28.5405   20.9463 C   0  0  0  0  0  0  0  0  0  0  0  0
  -27.6231  -19.0729   20.6918 C   0  0  0  0  0  0  0  0  0  0  0  0
  -22.3789   -8.2244   21.2841 C   0  0  0  0  0  0  0  0  0  0  0  0
  -27.2243  -27.3709   19.1395 C   0  0  0  0  0  0  0  0  0  0  0  0
  -20.2652   -7.2254   21.0462 C   0  0  0  0  0  0  0  0  0  0  0  0
  -17.6919   -7.2962   19.9712 C   0  0  0  0  0  0  0  0  0  0  0  0
  -19.1560   -7.2315   21.8920 C   0  0  0  0  0  0  0  0  0  0  0  0
  -24.9749  -11.4373   20.3698 C   0  0  0  0  0  0  0  0  0  0  0  0
  -28.2950  -21.1614   20.2876 C   0  0  0  0  0  0  0  0  0  0  0  0
  -26.1077  -13.0186   19.3444 C   0  0  0  0  0  0  0  0  0  0  0  0
  -24.5905  -11.7186   17.8423 C   0  0  0  0  0  0  0  0  0  0  0  0
  -28.9791  -22.4628   20.3904 C   0  0  0  0  0  0  0  0  0  0  0  0
  -24.0723  -31.2736   21.2126 C   0  0  0  0  0  0  0  0  0  0  0  0
  -24.7750  -30.1296   24.1655 C   0  0  0  0  0  0  0  0  0  0  0  0
  -26.4658  -27.8524   26.0635 C   0  0  0  0  0  0  0  0  0  0  0  0
  -28.0413  -17.2599   22.3901 C   0  0  0  0  0  0  0  0  0  0  0  0
  -20.8290  -35.2115   21.0353 C   0  0  0  0  0  0  0  0  0  0  0  0
  -23.5863  -28.8161   20.9290 C   0  0  0  0  0  0  0  0  0  0  0  0
  -26.1879  -29.2743   22.2582 C   0  0  0  0  0  0  0  0  0  0  0  0
  -21.9053  -34.7263   22.0029 C   0  0  0  0  0  0  0  0  0  0  0  0
  -28.9422  -13.9752   23.4276 C   0  0  0  0  0  0  0  0  0  0  0  0
  -23.1934  -34.4054   21.2514 C   0  0  0  0  0  0  0  0  0  0  0  0
  -28.0074  -13.0710   22.6210 C   0  0  0  0  0  0  0  0  0  0  0  0
  -29.5441  -23.6867   17.0261 C   0  0  0  0  0  0  0  0  0  0  0  0
  -28.2493  -15.2665   23.8592 C   0  0  0  0  0  0  0  0  0  0  0  0
  -28.8849  -22.6649   17.9456 C   0  0  0  0  0  0  0  0  0  0  0  0
  -26.6798  -15.1193   21.9660 C   0  0  0  0  0  0  0  0  0  0  0  0
  -22.9726  -33.2796   20.2340 C   0  0  1  0  0  0  0  0  0  0  0  0
  -23.7972  -29.9691   21.9055 C   0  0  1  0  0  0  0  0  0  0  0  0
  -29.5917  -24.9780   17.8522 C   0  0  2  0  0  0  0  0  0  0  0  0
  -27.3527  -13.8354   21.4537 C   0  0  2  0  0  0  0  0  0  0  0  0
  -29.8803  -24.4813   19.2818 C   0  0  2  0  0  0  0  0  0  0  0  0
  -31.3692  -24.3246   19.5632 C   0  0  0  0  0  0  0  0  0  0  0  0
  -26.8725  -27.1912   28.4499 C   0  0  0  0  0  0  0  0  0  0  0  0
  -26.6634  -32.5030   24.4987 C   0  0  0  0  0  0  0  0  0  0  0  0
  -27.7180  -31.3040   26.4270 C   0  0  0  0  0  0  0  0  0  0  0  0
  -25.3114  -31.9525   26.5293 C   0  0  0  0  0  0  0  0  0  0  0  0
  -25.3025  -25.1644   25.6386 C   0  0  0  0  0  0  0  0  0  0  0  0
  -28.2770  -25.7251   17.7833 C   0  0  0  0  0  0  0  0  0  1  0  0
  -26.0208  -30.0563   25.0150 C   0  0  1  0  0  0  0  0  0  0  0  0
  -26.0173  -26.9674   27.2125 C   0  0  2  0  0  0  0  0  0  0  0  0
  -26.4272  -31.4418   25.5918 C   0  0  0  0  0  0  0  0  0  0  0  0
  -25.7100  -12.0002   21.3325 N   0  0  0  0  0  0  0  0  0  0  0  0
  -26.3882  -12.9581   20.6778 N   0  0  0  0  0  0  0  0  0  0  0  0
  -29.2441  -23.1458   19.2901 N   0  0  0  0  0  0  0  0  0  0  0  0
  -24.9098  -29.7324   22.8276 N   0  0  0  0  0  0  0  0  0  0  0  0
  -27.6564  -15.9384   22.7008 N   0  0  0  0  0  0  0  0  0  0  0  0
  -26.7012  -13.9238   18.5377 N   0  0  0  0  0  0  0  0  0  0  0  0
  -23.6576  -10.6746   17.7795 N   0  0  0  0  0  0  0  0  0  0  0  0
  -27.4358  -17.7833   21.2482 N   0  0  0  0  0  0  0  0  0  0  0  0
  -22.9361  -31.9957   20.9008 N   0  0  0  0  0  0  0  0  0  0  0  0
  -25.7643  -29.0389   26.0287 N   0  0  0  0  0  0  0  0  0  0  0  0
  -29.3174  -22.9303   21.5884 N   0  3  0  0  0  0  0  0  0  0  0  0
  -26.1137  -25.5308   26.8280 N   0  3  0  0  0  0  0  0  0  0  0  0
  -24.8929  -12.3357   16.7929 O   0  0  0  0  0  0  0  0  0  0  0  0
  -25.2298  -31.6016   20.9794 O   0  0  0  0  0  0  0  0  0  0  0  0
  -23.7195  -30.5180   24.6722 O   0  0  0  0  0  0  0  0  0  0  0  0
  -27.3526  -27.5255   25.2778 O   0  0  0  0  0  0  0  0  0  0  0  0
  -28.8690  -17.8716   23.0702 O   0  0  0  0  0  0  0  0  0  0  0  0
  -27.4122  -20.8318   19.3085 O   0  0  0  0  0  0  0  0  0  0  0  0
  -21.5432   -7.1912   21.5783 O   0  0  0  0  0  0  0  0  0  0  0  0
  -28.3729  -26.9086   18.5749 O   0  0  0  0  0  0  0  0  0  1  0  0
  -16.4564   -7.3317   19.4550 F   0  0  0  0  0  0  0  0  0  0  0  0
  -19.3202   -7.2046   23.2217 F   0  0  0  0  0  0  0  0  0  0  0  0
  1  2  1  0  0  0  0
  1  5  2  0  0  0  0
  2  6  2  0  0  0  0
  3  8  2  0  0  0  0
  3 17  1  0  0  0  0
  4  9  1  0  0  0  0
  4 17  2  0  0  0  0
  5 19  1  0  0  0  0
  6 21  1  0  0  0  0
  7 10  2  0  0  0  0
  7 20  1  0  0  0  0
  8 24  1  0  0  0  0
  9 24  2  0  0  0  0
 10 25  1  0  0  0  0
 11 12  2  0  0  0  0
 11 26  1  0  0  0  0
 12 27  1  0  0  0  0
 13 22  1  0  0  0  0
 13 25  2  0  0  0  0
 14 23  1  0  0  0  0
 14 30  2  0  0  0  0
 15 27  2  0  0  0  0
 15 28  1  0  0  0  0
 16 23  2  0  0  0  0
 16 81  1  0  0  0  0
 17 29  1  0  0  0  0
 18 29  1  0  0  0  0
 18 31  2  0  0  0  0
 18 32  1  0  0  0  0
 19 21  2  0  0  0  0
 19 38  1  0  0  0  0
 20 22  2  0  0  0  0
 20 39  1  0  0  0  0
 21 49  1  0  0  0  0
 22 40  1  0  0  0  0
 23 71  1  0  0  0  0
 24 82  1  0  0  0  0
 25 83  1  0  0  0  0
 26 28  2  0  0  0  0
 26 82  1  0  0  0  0
 27 84  1  0  0  0  0
 28 85  1  0  0  0  0
 29 64  2  0  0  0  0
 30 33  1  0  0  0  0
 30 81  1  0  0  0  0
 31 65  1  0  0  0  0
 31 69  1  0  0  0  0
 32 70  1  0  0  0  0
 32 76  2  0  0  0  0
 33 66  1  0  0  0  0
 33 74  2  0  0  0  0
 34 50  1  0  0  0  0
 34 72  1  0  0  0  0
 34 77  2  0  0  0  0
 35 61  1  0  0  0  0
 35 67  1  0  0  0  0
 35 78  2  0  0  0  0
 36 62  1  0  0  0  0
 36 73  1  0  0  0  0
 36 79  2  0  0  0  0
 37 68  1  0  0  0  0
 37 71  1  0  0  0  0
 37 80  2  0  0  0  0
 38 41  1  0  0  0  0
 39 50  1  0  0  0  0
 40 67  1  0  0  0  0
 41 43  1  0  0  0  0
 42 44  1  0  0  0  0
 42 46  1  0  0  0  0
 43 49  1  0  0  0  0
 44 52  1  0  0  0  0
 45 47  1  0  0  0  0
 45 51  1  0  0  0  0
 46 68  1  0  0  0  0
 47 66  1  0  0  0  0
 48 52  1  0  0  0  0
 48 68  1  0  0  0  0
 49 72  1  0  0  0  0
 50 67  1  0  0  0  0
 51 53  1  0  0  0  0
 51 60  1  0  0  0  0
 52 65  1  0  0  0  0
 53 54  1  0  0  0  0
 53 66  1  0  0  0  0
 55 62  1  0  0  0  0
 56 63  1  0  0  0  0
 57 63  1  0  0  0  0
 58 63  1  0  0  0  0
 59 75  1  0  0  0  0
 60 83  1  0  0  0  0
 61 63  1  0  0  0  0
 61 73  1  0  0  0  0
 62 75  1  0  0  0  0
 64 65  1  0  0  0  0
M  CHG  2  74   1  75   1
M  ISO  4  37 100  60 101  71 100  83 101
M  END
> <Batch ID>
0149

> <Smiles>
CNC(C)C(=O)NC(C(=O)N1Cc2cc([101O:1][101CH2:1]C3CCN(C(=N)c4cc([100NH:0][100C:0](=O)N5CCCC(n6nc(-c7ccc(Oc8ccc(F)cc8F)cc7)c(C(N)=O)c6N)C5)co4)C3C)ccc2CC1C(=O)NC1CCCc2ccccc21)C(C)(C)C

> <Shape>
0.251

> <Color>
0.091

> <Negative vol penalty>
0.000

$$$$

  -OEChem-04052303193D

 83 92  0     1  0  0  0  0  0999 V2000
  -21.5175  -11.9436   20.8729 C   0  0  0  0  0  0  0  0  0  0  0  0
  -21.5616  -13.2605   21.3194 C   0  0  0  0  0  0  0  0  0  0  0  0
  -25.9209  -28.7810   21.7477 C   0  0  0  0  0  0  0  0  0  0  0  0
  -25.1221  -28.6932   19.4693 C   0  0  0  0  0  0  0  0  0  0  0  0
  -22.7012  -11.2699   20.5745 C   0  0  0  0  0  0  0  0  0  0  0  0
  -22.7895  -13.9041   21.4688 C   0  0  0  0  0  0  0  0  0  0  0  0
  -22.7582  -18.6080   19.5932 C   0  0  0  0  0  0  0  0  0  0  0  0
  -27.1717  -28.3298   21.3266 C   0  0  0  0  0  0  0  0  0  0  0  0
  -26.3730  -28.2421   19.0481 C   0  0  0  0  0  0  0  0  0  0  0  0
  -22.1534  -19.5978   20.3667 C   0  0  0  0  0  0  0  0  0  0  0  0
  -28.5982  -25.3888   20.4662 C   0  0  0  0  0  0  0  0  0  0  0  0
  -29.2102  -24.3844   21.2160 C   0  0  0  0  0  0  0  0  0  0  0  0
  -24.3245  -20.3154   21.1352 C   0  0  0  0  0  0  0  0  0  0  0  0
  -31.0807  -25.8499   21.6526 C   0  0  0  0  0  0  0  0  0  0  0  0
  -21.1975  -22.2806   27.5189 C   0  0  0  0  0  0  0  0  0  0  0  0
  -24.8960  -28.9627   20.8191 C   0  0  0  0  0  0  0  0  0  0  0  0
  -23.1706  -30.7640   21.3537 C   0  0  0  0  0  0  0  0  0  0  0  0
  -23.9437  -11.9088   20.7111 C   0  0  0  0  0  0  0  0  0  0  0  0
  -24.1523  -18.4571   19.5934 C   0  0  0  0  0  0  0  0  0  0  0  0
  -23.9910  -13.2379   21.1732 C   0  0  0  0  0  0  0  0  0  0  0  0
  -24.9447  -19.3245   20.3589 C   0  0  0  0  0  0  0  0  0  0  0  0
  -27.3978  -28.0603   19.9769 C   0  0  0  0  0  0  0  0  0  0  0  0
  -22.9364  -20.4498   21.1401 C   0  0  0  0  0  0  0  0  0  0  0  0
  -29.2276  -26.6238   20.3096 C   0  0  0  0  0  0  0  0  0  0  0  0
  -30.4514  -24.6149   21.8092 C   0  0  0  0  0  0  0  0  0  0  0  0
  -30.4688  -26.8543   20.9028 C   0  0  0  0  0  0  0  0  0  0  0  0
  -23.6035  -29.4282   21.2535 C   0  0  0  0  0  0  0  0  0  0  0  0
  -20.1038  -24.0920   27.6245 C   0  0  0  0  0  0  0  0  0  0  0  0
  -20.9086  -24.2107   26.5152 C   0  0  0  0  0  0  0  0  0  0  0  0
  -21.8781  -30.6728   21.8094 C   0  0  0  0  0  0  0  0  0  0  0  0
  -23.8739  -31.9786   21.0608 C   0  0  0  0  0  0  0  0  0  0  0  0
  -26.1575  -16.1383   20.4337 C   0  0  0  0  0  0  0  0  0  0  0  0
  -22.0064  -22.2541   24.1436 C   0  0  0  0  0  0  0  0  0  0  0  0
  -28.3803  -18.1352   19.1712 C   0  0  0  0  0  0  0  0  0  0  0  0
  -29.2696  -21.3216   18.3329 C   0  0  0  0  0  0  0  0  0  0  0  0
  -18.8992  -26.6671   24.9412 C   0  0  0  0  0  0  0  0  0  0  0  0
  -25.1989  -11.1245   20.4215 C   0  0  0  0  0  0  0  0  0  0  0  0
  -24.7910  -17.4017   18.7329 C   0  0  0  0  0  0  0  0  0  0  0  0
  -26.4469  -19.2172   20.3781 C   0  0  0  0  0  0  0  0  0  0  0  0
  -19.1638  -25.1553   28.0459 C   0  0  0  0  0  0  0  0  0  0  0  0
  -20.9952  -25.3726   25.6002 C   0  0  0  0  0  0  0  0  0  0  0  0
  -26.4377  -11.9996   20.2487 C   0  0  0  0  0  0  0  0  0  0  0  0
  -18.0752  -27.7845   21.7594 C   0  0  0  0  0  0  0  0  0  0  0  0
  -26.5152  -13.0408   21.3607 C   0  0  0  0  0  0  0  0  0  0  0  0
  -19.3527  -28.4618   21.2655 C   0  0  0  0  0  0  0  0  0  0  0  0
  -19.5338  -26.4756   27.3369 C   0  0  0  0  0  0  0  0  0  0  0  0
  -18.3973  -26.5055   22.5230 C   0  0  0  0  0  0  0  0  0  0  0  0
  -20.6042  -27.3918   23.2061 C   0  0  0  0  0  0  0  0  0  0  0  0
  -25.3022  -13.9782   21.3243 C   0  0  1  0  0  0  0  0  0  0  0  0
  -26.1860  -17.0069   19.2080 C   0  0  1  0  0  0  0  0  0  0  0  0
  -20.3366  -28.6947   22.4252 C   0  0  1  0  0  0  0  0  0  0  0  0
  -31.1632  -22.6452   17.3534 C   0  0  0  0  0  0  0  0  0  0  0  0
  -29.8988  -17.9095   21.8081 C   0  0  0  0  0  0  0  0  0  0  0  0
  -31.2161  -19.9318   21.1423 C   0  0  0  0  0  0  0  0  0  0  0  0
  -31.3411  -17.8552   19.7658 C   0  0  0  0  0  0  0  0  0  0  0  0
  -27.6074  -22.2387   16.0624 C   0  0  0  0  0  0  0  0  0  0  0  0
  -22.6017  -22.6700   25.4766 C   0  0  0  0  0  0  0  0  0  0  0  0
  -23.0035  -21.8056   23.0929 C   0  0  0  0  0  0  0  0  0  1  0  0
  -29.2375  -19.2564   19.7070 C   0  0  1  0  0  0  0  0  0  0  0  0
  -29.8702  -21.8990   17.0639 C   0  0  2  0  0  0  0  0  0  0  0  0
  -30.3950  -18.7393   20.6072 C   0  0  0  0  0  0  0  0  0  0  0  0
  -20.2820  -22.8889   28.2468 N   0  0  0  0  0  0  0  0  0  0  0  0
  -22.6625  -28.5526   21.6166 N   0  0  0  0  0  0  0  0  0  0  0  0
  -21.6105  -23.0443   26.4556 N   0  0  0  0  0  0  0  0  0  0  0  0
  -21.6254  -29.3399   21.9494 N   0  0  0  0  0  0  0  0  0  0  0  0
  -27.0239  -18.1652   19.5249 N   0  0  0  0  0  0  0  0  0  0  0  0
  -19.8431  -26.2672   25.9016 N   0  0  0  0  0  0  0  0  0  0  0  0
  -19.3391  -26.7618   23.6129 N   0  0  0  0  0  0  0  0  0  0  0  0
  -20.9445  -31.6036   22.1001 N   0  0  0  0  0  0  0  0  0  0  0  0
  -25.1952  -31.8915   20.6018 N   0  0  0  0  0  0  0  0  0  0  0  0
  -25.4537  -14.9601   20.2720 N   0  0  0  0  0  0  0  0  0  0  0  0
  -29.6795  -20.0226   18.5468 N   0  0  0  0  0  0  0  0  0  0  0  0
  -28.9145  -22.8458   16.4227 N   0  3  0  0  0  0  0  0  0  0  0  0
  -23.3517  -33.1083   21.2177 O   0  0  0  0  0  0  0  0  0  0  0  0
  -26.7328  -16.5088   21.4503 O   0  0  0  0  0  0  0  0  0  0  0  0
  -20.7971  -22.2759   23.9181 O   0  0  0  0  0  0  0  0  0  0  0  0
  -28.8938  -17.2687   18.4591 O   0  0  0  0  0  0  0  0  0  0  0  0
  -28.5154  -21.9605   19.0634 O   0  0  0  0  0  0  0  0  0  0  0  0
  -17.7276  -26.9160   25.2529 O   0  0  0  0  0  0  0  0  0  0  0  0
  -28.6184  -27.6203   19.5655 O   0  0  0  0  0  0  0  0  0  0  0  0
  -22.3425  -21.4264   21.9043 O   0  0  0  0  0  0  0  0  0  1  0  0
  -31.0382  -23.6507   22.5305 F   0  0  0  0  0  0  0  0  0  0  0  0
  -31.0777  -28.0391   20.7568 F   0  0  0  0  0  0  0  0  0  0  0  0
  1  2  1  0  0  0  0
  1  5  2  0  0  0  0
  2  6  2  0  0  0  0
  3  8  2  0  0  0  0
  3 16  1  0  0  0  0
  4  9  1  0  0  0  0
  4 16  2  0  0  0  0
  5 18  1  0  0  0  0
  6 20  1  0  0  0  0
  7 10  2  0  0  0  0
  7 19  1  0  0  0  0
  8 22  1  0  0  0  0
  9 22  2  0  0  0  0
 10 23  1  0  0  0  0
 11 12  2  0  0  0  0
 11 24  1  0  0  0  0
 12 25  1  0  0  0  0
 13 21  1  0  0  0  0
 13 23  2  0  0  0  0
 14 25  2  0  0  0  0
 14 26  1  0  0  0  0
 15 62  2  0  0  0  0
 15 64  1  0  0  0  0
 16 27  1  0  0  0  0
 17 27  1  0  0  0  0
 17 30  2  0  0  0  0
 17 31  1  0  0  0  0
 18 20  2  0  0  0  0
 18 37  1  0  0  0  0
 19 21  2  0  0  0  0
 19 38  1  0  0  0  0
 20 49  1  0  0  0  0
 21 39  1  0  0  0  0
 22 80  1  0  0  0  0
 23 81  1  0  0  0  0
 24 26  2  0  0  0  0
 24 80  1  0  0  0  0
 25 82  1  0  0  0  0
 26 83  1  0  0  0  0
 27 63  2  0  0  0  0
 28 29  2  0  0  0  0
 28 40  1  0  0  0  0
 28 62  1  0  0  0  0
 29 41  1  0  0  0  0
 29 64  1  0  0  0  0
 30 65  1  0  0  0  0
 30 69  1  0  0  0  0
 31 70  1  0  0  0  0
 31 74  2  0  0  0  0
 32 50  1  0  0  0  0
 32 71  1  0  0  0  0
 32 75  2  0  0  0  0
 33 57  1  0  0  0  0
 33 58  1  0  0  0  0
 33 76  2  0  0  0  0
 34 59  1  0  0  0  0
 34 66  1  0  0  0  0
 34 77  2  0  0  0  0
 35 60  1  0  0  0  0
 35 72  1  0  0  0  0
 35 78  2  0  0  0  0
 36 67  1  0  0  0  0
 36 68  1  0  0  0  0
 36 79  2  0  0  0  0
 37 42  1  0  0  0  0
 38 50  1  0  0  0  0
 39 66  1  0  0  0  0
 40 46  1  0  0  0  0
 41 67  1  0  0  0  0
 42 44  1  0  0  0  0
 43 45  1  0  0  0  0
 43 47  1  0  0  0  0
 44 49  1  0  0  0  0
 45 51  1  0  0  0  0
 46 67  1  0  0  0  0
 47 68  1  0  0  0  0
 48 51  1  0  0  0  0
 48 68  1  0  0  0  0
 49 71  1  0  0  0  0
 50 66  1  0  0  0  0
 51 65  1  0  0  0  0
 52 60  1  0  0  0  0
 53 61  1  0  0  0  0
 54 61  1  0  0  0  0
 55 61  1  0  0  0  0
 56 73  1  0  0  0  0
 57 64  1  0  0  0  0
 58 81  1  0  0  0  0
 59 61  1  0  0  0  0
 59 72  1  0  0  0  0
 60 73  1  0  0  0  0
 63 65  1  0  0  0  0
M  CHG  1  73   1
M  ISO  4  36 100  58 101  67 100  81 101
M  END
> <Batch ID>
0149

> <Smiles>
CNC(C)C(=O)NC(C(=O)N1Cc2cc([101O:1][101CH2:1]C(=O)Cn3cnc4c3C[100N:0]([100C:0](=O)N3CCCC(n5nc(-c6ccc(Oc7ccc(F)cc7F)cc6)c(C(N)=O)c5N)C3)CC4)ccc2CC1C(=O)NC1CCCc2ccccc21)C(C)(C)C

> <Shape>
0.245

> <Color>
0.084

> <Negative vol penalty>
0.000

$$$$

  -OEChem-04052303193D

 87 96  0     1  0  0  0  0  0999 V2000
  -28.5046  -23.6756   17.8419 C   0  0  0  0  0  0  0  0  0  0  0  0
  -27.3102  -23.9148   18.5139 C   0  0  0  0  0  0  0  0  0  0  0  0
  -27.9847  -14.5048   19.2908 C   0  0  0  0  0  0  0  0  0  0  0  0
  -26.0937  -15.3933   20.5039 C   0  0  0  0  0  0  0  0  0  0  0  0
  -29.6755  -24.3088   18.2567 C   0  0  0  0  0  0  0  0  0  0  0  0
  -27.2863  -24.7866   19.6019 C   0  0  0  0  0  0  0  0  0  0  0  0
  -23.3555  -27.9758   19.4496 C   0  0  0  0  0  0  0  0  0  0  0  0
  -24.3068  -23.9135   25.5609 C   0  0  0  0  0  0  0  0  0  0  0  0
  -25.4060  -23.4155   24.8557 C   0  0  0  0  0  0  0  0  0  0  0  0
  -27.5308  -13.2083   19.5329 C   0  0  0  0  0  0  0  0  0  0  0  0
  -25.6398  -14.0968   20.7460 C   0  0  0  0  0  0  0  0  0  0  0  0
  -22.1129  -27.4736   19.8338 C   0  0  0  0  0  0  0  0  0  0  0  0
  -23.7895  -11.0310   21.3750 C   0  0  0  0  0  0  0  0  0  0  0  0
  -22.4316  -10.7729   21.1876 C   0  0  0  0  0  0  0  0  0  0  0  0
  -23.9655  -22.5702   23.0929 C   0  0  0  0  0  0  0  0  0  0  0  0
  -22.3797  -28.4911   22.0047 C   0  0  0  0  0  0  0  0  0  0  0  0
  -22.6285  -11.4210   18.8685 C   0  0  0  0  0  0  0  0  0  0  0  0
  -22.8422  -23.0636   23.7859 C   0  0  0  0  0  0  0  0  0  0  0  0
  -27.2662  -15.5974   19.7764 C   0  0  0  0  0  0  0  0  0  0  0  0
  -27.9352  -17.5482   18.2749 C   0  0  0  0  0  0  0  0  0  0  0  0
  -29.6640  -25.1962   19.3444 C   0  0  0  0  0  0  0  0  0  0  0  0
  -24.1256  -28.7315   20.3453 C   0  0  0  0  0  0  0  0  0  0  0  0
  -28.4583  -25.4313   20.0325 C   0  0  0  0  0  0  0  0  0  0  0  0
  -23.6305  -29.0039   21.6286 C   0  0  0  0  0  0  0  0  0  0  0  0
  -23.0384  -23.7225   25.0015 C   0  0  0  0  0  0  0  0  0  0  0  0
  -25.2403  -22.7539   23.6405 C   0  0  0  0  0  0  0  0  0  0  0  0
  -21.4414  -23.0575   23.5355 C   0  0  0  0  0  0  0  0  0  0  0  0
  -26.3584  -13.0043   20.2605 C   0  0  0  0  0  0  0  0  0  0  0  0
  -21.6261  -27.7288   21.1125 C   0  0  0  0  0  0  0  0  0  0  0  0
  -24.5669  -11.4842   20.3092 C   0  0  0  0  0  0  0  0  0  0  0  0
  -21.8511  -10.9679   19.9343 C   0  0  0  0  0  0  0  0  0  0  0  0
  -23.9864  -11.6791   19.0559 C   0  0  0  0  0  0  0  0  0  0  0  0
  -27.7348  -16.9369   19.5271 C   0  0  0  0  0  0  0  0  0  0  0  0
  -20.8257  -23.7006   24.5845 C   0  0  0  0  0  0  0  0  0  0  0  0
  -28.3832  -18.8109   18.5770 C   0  0  0  0  0  0  0  0  0  0  0  0
  -27.7344  -17.0216   16.9565 C   0  0  0  0  0  0  0  0  0  0  0  0
  -26.9831  -28.3838   21.6936 C   0  0  0  0  0  0  0  0  0  0  0  0
  -19.2343  -25.8164   23.0567 C   0  0  0  0  0  0  0  0  0  0  0  0
  -26.3931  -31.3755   22.8000 C   0  0  0  0  0  0  0  0  0  0  0  0
  -24.0940  -33.7645   23.6085 C   0  0  0  0  0  0  0  0  0  0  0  0
  -27.7092  -22.3495   23.3446 C   0  0  0  0  0  0  0  0  0  0  0  0
  -30.9640  -25.8207   19.7856 C   0  0  0  0  0  0  0  0  0  0  0  0
  -25.4521  -29.2885   19.9065 C   0  0  0  0  0  0  0  0  0  0  0  0
  -24.4093  -29.8269   22.6208 C   0  0  0  0  0  0  0  0  0  0  0  0
  -30.7802  -27.0187   20.7136 C   0  0  0  0  0  0  0  0  0  0  0  0
  -30.7840  -21.2269   21.9436 C   0  0  0  0  0  0  0  0  0  0  0  0
  -29.7630  -26.6981   21.8042 C   0  0  0  0  0  0  0  0  0  0  0  0
  -30.3685  -20.0589   21.0462 C   0  0  0  0  0  0  0  0  0  0  0  0
  -29.9507  -21.2837   23.2227 C   0  0  0  0  0  0  0  0  0  0  0  0
  -28.0812  -20.1187   22.1195 C   0  0  0  0  0  0  0  0  0  0  0  0
  -28.3871  -26.3894   21.2018 C   0  0  1  0  0  0  0  0  0  0  0  0
  -26.3797  -29.6123   21.0736 C   0  0  1  0  0  0  0  0  0  0  0  0
  -28.8488  -20.0589   20.7888 C   0  0  2  0  0  0  0  0  0  0  0  0
  -23.2158  -36.0076   24.3117 C   0  0  0  0  0  0  0  0  0  0  0  0
  -26.9655  -30.3163   25.6037 C   0  0  0  0  0  0  0  0  0  0  0  0
  -25.8667  -32.3676   26.5274 C   0  0  0  0  0  0  0  0  0  0  0  0
  -27.9209  -32.5779   25.1277 C   0  0  0  0  0  0  0  0  0  0  0  0
  -21.5561  -24.8121   26.7008 C   0  0  0  0  0  0  0  0  0  0  0  0
  -24.0545  -34.7527   20.8192 C   0  0  0  0  0  0  0  0  0  0  0  0
  -19.3626  -23.9792   24.8329 C   0  0  0  0  0  0  0  0  0  0  0  0
  -18.9506  -25.4137   24.4967 C   0  0  0  0  0  0  0  0  0  0  0  0
  -20.2375  -26.9384   22.8740 C   0  0  0  0  0  0  0  0  0  1  0  0
  -25.7319  -31.9495   24.0298 C   0  0  1  0  0  0  0  0  0  0  0  0
  -24.0141  -35.2417   23.2682 C   0  0  2  0  0  0  0  0  0  0  0  0
  -26.6072  -31.7856   25.3043 C   0  0  0  0  0  0  0  0  0  0  0  0
  -28.0313  -17.7447   20.5486 N   0  0  0  0  0  0  0  0  0  0  0  0
  -21.7971  -24.0983   25.4635 N   0  0  0  0  0  0  0  0  0  0  0  0
  -28.4226  -18.8765   19.9388 N   0  0  0  0  0  0  0  0  0  0  0  0
  -25.7037  -30.3441   22.1467 N   0  0  0  0  0  0  0  0  0  0  0  0
  -28.5220  -21.2850   22.9007 N   0  0  0  0  0  0  0  0  0  0  0  0
  -20.8213  -22.5173   22.4636 N   0  0  0  0  0  0  0  0  0  0  0  0
  -28.7434  -19.8604   17.8081 N   0  0  0  0  0  0  0  0  0  0  0  0
  -26.4787  -17.1853   16.3558 N   0  0  0  0  0  0  0  0  0  0  0  0
  -26.3746  -22.2591   22.9504 N   0  0  0  0  0  0  0  0  0  0  0  0
  -27.7191  -27.6132   20.8138 N   0  0  0  0  0  0  0  0  0  0  0  0
  -25.3999  -33.3328   23.7067 N   0  0  0  0  0  0  0  0  0  0  0  0
  -23.3606  -35.4333   21.9427 N   0  3  0  0  0  0  0  0  0  0  0  0
  -28.6365  -16.4093   16.3363 O   0  0  0  0  0  0  0  0  0  0  0  0
  -26.7960  -28.1530   22.8824 O   0  0  0  0  0  0  0  0  0  0  0  0
  -18.7156  -25.2506   22.0958 O   0  0  0  0  0  0  0  0  0  0  0  0
  -27.4778  -31.8305   22.4285 O   0  0  0  0  0  0  0  0  0  0  0  0
  -23.0976  -33.0643   23.7746 O   0  0  0  0  0  0  0  0  0  0  0  0
  -28.1692  -23.2871   24.0013 O   0  0  0  0  0  0  0  0  0  0  0  0
  -25.9150  -11.7393   20.4967 O   0  0  0  0  0  0  0  0  0  0  0  0
  -20.4138  -27.2393   21.4903 O   0  0  0  0  0  0  0  0  0  1  0  0
  -20.5475  -10.7185   19.7541 F   0  0  0  0  0  0  0  0  0  0  0  0
  -24.7284  -12.1132   18.0279 F   0  0  0  0  0  0  0  0  0  0  0  0
  1  2  1  0  0  0  0
  1  5  2  0  0  0  0
  2  6  2  0  0  0  0
  3 10  2  0  0  0  0
  3 19  1  0  0  0  0
  4 11  1  0  0  0  0
  4 19  2  0  0  0  0
  5 21  1  0  0  0  0
  6 23  1  0  0  0  0
  7 12  2  0  0  0  0
  7 22  1  0  0  0  0
  8  9  2  0  0  0  0
  8 25  1  0  0  0  0
  9 26  1  0  0  0  0
 10 28  1  0  0  0  0
 11 28  2  0  0  0  0
 12 29  1  0  0  0  0
 13 14  2  0  0  0  0
 13 30  1  0  0  0  0
 14 31  1  0  0  0  0
 15 18  1  0  0  0  0
 15 26  2  0  0  0  0
 16 24  1  0  0  0  0
 16 29  2  0  0  0  0
 17 31  2  0  0  0  0
 17 32  1  0  0  0  0
 18 25  2  0  0  0  0
 18 27  1  0  0  0  0
 19 33  1  0  0  0  0
 20 33  1  0  0  0  0
 20 35  2  0  0  0  0
 20 36  1  0  0  0  0
 21 23  2  0  0  0  0
 21 42  1  0  0  0  0
 22 24  2  0  0  0  0
 22 43  1  0  0  0  0
 23 51  1  0  0  0  0
 24 44  1  0  0  0  0
 25 67  1  0  0  0  0
 26 74  1  0  0  0  0
 27 34  2  0  0  0  0
 27 71  1  0  0  0  0
 28 84  1  0  0  0  0
 29 85  1  0  0  0  0
 30 32  2  0  0  0  0
 30 84  1  0  0  0  0
 31 86  1  0  0  0  0
 32 87  1  0  0  0  0
 33 66  2  0  0  0  0
 34 60  1  0  0  0  0
 34 67  1  0  0  0  0
 35 68  1  0  0  0  0
 35 72  1  0  0  0  0
 36 73  1  0  0  0  0
 36 78  2  0  0  0  0
 37 52  1  0  0  0  0
 37 75  1  0  0  0  0
 37 79  2  0  0  0  0
 38 61  1  0  0  0  0
 38 62  1  0  0  0  0
 38 80  2  0  0  0  0
 39 63  1  0  0  0  0
 39 69  1  0  0  0  0
 39 81  2  0  0  0  0
 40 64  1  0  0  0  0
 40 76  1  0  0  0  0
 40 82  2  0  0  0  0
 41 70  1  0  0  0  0
 41 74  1  0  0  0  0
 41 83  2  0  0  0  0
 42 45  1  0  0  0  0
 43 52  1  0  0  0  0
 44 69  1  0  0  0  0
 45 47  1  0  0  0  0
 46 48  1  0  0  0  0
 46 49  1  0  0  0  0
 47 51  1  0  0  0  0
 48 53  1  0  0  0  0
 49 70  1  0  0  0  0
 50 53  1  0  0  0  0
 50 70  1  0  0  0  0
 51 75  1  0  0  0  0
 52 69  1  0  0  0  0
 53 68  1  0  0  0  0
 54 64  1  0  0  0  0
 55 65  1  0  0  0  0
 56 65  1  0  0  0  0
 57 65  1  0  0  0  0
 58 67  1  0  0  0  0
 59 77  1  0  0  0  0
 60 61  1  0  0  0  0
 62 85  1  0  0  0  0
 63 65  1  0  0  0  0
 63 76  1  0  0  0  0
 64 77  1  0  0  0  0
 66 68  1  0  0  0  0
M  CHG  1  77   1
M  ISO  4  41 100  62 101  74 100  85 101
M  END
> <Batch ID>
0149

> <Smiles>
CNC(C)C(=O)NC(C(=O)N1Cc2cc([101O:1][101CH2:1]C(=O)CCC3C(=N)c4cc([100NH:0][100C:0](=O)N5CCCC(n6nc(-c7ccc(Oc8ccc(F)cc8F)cc7)c(C(N)=O)c6N)C5)ccc4N3C)ccc2CC1C(=O)NC1CCCc2ccccc21)C(C)(C)C

> <Shape>
0.289

> <Color>
0.060

> <Negative vol penalty>
0.000

$$$$

  -OEChem-04052303193D

 83 92  0     1  0  0  0  0  0999 V2000
  -28.2696  -24.7775   17.0855 C   0  0  0  0  0  0  0  0  0  0  0  0
  -27.0885  -24.9691   17.7953 C   0  0  0  0  0  0  0  0  0  0  0  0
  -25.3403  -13.6331   18.5863 C   0  0  0  0  0  0  0  0  0  0  0  0
  -23.1790  -13.5733   19.6643 C   0  0  0  0  0  0  0  0  0  0  0  0
  -29.4585  -25.3403   17.5478 C   0  0  0  0  0  0  0  0  0  0  0  0
  -27.0960  -25.7226   18.9686 C   0  0  0  0  0  0  0  0  0  0  0  0
  -23.2327  -28.9883   19.2044 C   0  0  0  0  0  0  0  0  0  0  0  0
  -25.7328  -12.5076   19.3108 C   0  0  0  0  0  0  0  0  0  0  0  0
  -23.5715  -12.4478   20.3888 C   0  0  0  0  0  0  0  0  0  0  0  0
  -21.9842  -28.4737   19.5514 C   0  0  0  0  0  0  0  0  0  0  0  0
  -23.8922   -9.1273   19.8490 C   0  0  0  0  0  0  0  0  0  0  0  0
  -22.9893   -8.0678   19.9371 C   0  0  0  0  0  0  0  0  0  0  0  0
  -22.2982  -29.2531   21.8126 C   0  0  0  0  0  0  0  0  0  0  0  0
  -22.9719   -8.2826   22.3434 C   0  0  0  0  0  0  0  0  0  0  0  0
  -18.8949  -20.8451   21.4309 C   0  0  0  0  0  0  0  0  0  0  0  0
  -24.0634  -14.1660   18.7631 C   0  0  0  0  0  0  0  0  0  0  0  0
  -23.0286  -15.3531   16.7562 C   0  0  0  0  0  0  0  0  0  0  0  0
  -29.4787  -26.1092   18.7221 C   0  0  0  0  0  0  0  0  0  0  0  0
  -24.0293  -29.6306   20.1632 C   0  0  0  0  0  0  0  0  0  0  0  0
  -28.2865  -26.2951   19.4477 C   0  0  0  0  0  0  0  0  0  0  0  0
  -23.5552  -29.7772   21.4747 C   0  0  0  0  0  0  0  0  0  0  0  0
  -24.8484  -11.9150   20.2120 C   0  0  0  0  0  0  0  0  0  0  0  0
  -21.5180  -28.6035   20.8563 C   0  0  0  0  0  0  0  0  0  0  0  0
  -24.3351   -9.7644   21.0081 C   0  0  0  0  0  0  0  0  0  0  0  0
  -22.5291   -7.6455   21.1843 C   0  0  0  0  0  0  0  0  0  0  0  0
  -23.8749   -9.3421   22.2553 C   0  0  0  0  0  0  0  0  0  0  0  0
  -23.6576  -15.3289   18.0154 C   0  0  0  0  0  0  0  0  0  0  0  0
  -22.8553  -16.6883   16.4846 C   0  0  0  0  0  0  0  0  0  0  0  0
  -20.0679  -21.3946   20.9761 C   0  0  0  0  0  0  0  0  0  0  0  0
  -18.7927  -22.9184   21.7687 C   0  0  0  0  0  0  0  0  0  0  0  0
  -17.9752  -26.7050   23.3209 C   0  0  0  0  0  0  0  0  0  0  0  0
  -19.1029  -26.5717   22.6031 C   0  0  0  0  0  0  0  0  0  0  0  0
  -22.6361  -14.2659   15.9080 C   0  0  0  0  0  0  0  0  0  0  0  0
  -26.8943  -29.0867   21.4280 C   0  0  0  0  0  0  0  0  0  0  0  0
  -26.3814  -31.9575   22.8485 C   0  0  0  0  0  0  0  0  0  0  0  0
  -24.1435  -34.2944   23.9337 C   0  0  0  0  0  0  0  0  0  0  0  0
  -22.3658  -21.5296   19.9527 C   0  0  0  0  0  0  0  0  0  0  0  0
  -30.7968  -26.6580   19.2079 C   0  0  0  0  0  0  0  0  0  0  0  0
  -25.3621  -30.2038   19.7665 C   0  0  0  0  0  0  0  0  0  0  0  0
  -24.3630  -30.4762   22.5364 C   0  0  0  0  0  0  0  0  0  0  0  0
  -16.9191  -25.6460   23.3712 C   0  0  0  0  0  0  0  0  0  0  0  0
  -19.4224  -25.3185   21.8202 C   0  0  0  0  0  0  0  0  0  0  0  0
  -30.6496  -27.7559   20.2583 C   0  0  0  0  0  0  0  0  0  0  0  0
  -24.7824  -20.9764   17.3970 C   0  0  0  0  0  0  0  0  0  0  0  0
  -29.6387  -27.3433   21.3235 C   0  0  0  0  0  0  0  0  0  0  0  0
  -24.7067  -19.4685   17.1467 C   0  0  0  0  0  0  0  0  0  0  0  0
  -17.0623  -24.6201   22.2482 C   0  0  0  0  0  0  0  0  0  0  0  0
  -24.5945  -21.3161   18.8745 C   0  0  0  0  0  0  0  0  0  0  0  0
  -23.3112  -19.2456   19.2420 C   0  0  0  0  0  0  0  0  0  0  0  0
  -28.2494  -27.1269   20.7114 C   0  0  1  0  0  0  0  0  0  0  0  0
  -26.3101  -30.3852   20.9480 C   0  0  1  0  0  0  0  0  0  0  0  0
  -23.4301  -18.8591   17.7587 C   0  0  2  0  0  0  0  0  0  0  0  0
  -24.0224  -36.5187   25.0892 C   0  0  0  0  0  0  0  0  0  0  0  0
  -26.9638  -30.5997   25.5182 C   0  0  0  0  0  0  0  0  0  0  0  0
  -25.9201  -32.5647   26.6660 C   0  0  0  0  0  0  0  0  0  0  0  0
  -27.9617  -32.8791   25.2675 C   0  0  0  0  0  0  0  0  0  0  0  0
  -22.8442  -35.5670   21.5989 C   0  0  0  0  0  0  0  0  0  0  0  0
  -20.1337  -27.6611   22.5449 C   0  0  0  0  0  0  0  0  0  1  0  0
  -25.7471  -32.4128   24.1406 C   0  0  1  0  0  0  0  0  0  0  0  0
  -24.0912  -35.8004   23.7505 C   0  0  2  0  0  0  0  0  0  0  0  0
  -26.6335  -32.0992   25.3788 C   0  0  0  0  0  0  0  0  0  0  0  0
  -18.0819  -21.8264   21.9378 N   0  0  0  0  0  0  0  0  0  0  0  0
  -23.8696  -16.5516   18.5095 N   0  0  0  0  0  0  0  0  0  0  0  0
  -23.3712  -17.3566   17.5557 N   0  0  0  0  0  0  0  0  0  0  0  0
  -18.4690  -24.2360   22.1008 N   0  0  1  0  0  0  0  0  0  0  0  0
  -25.6624  -31.0141   22.1009 N   0  0  0  0  0  0  0  0  0  0  0  0
  -23.3632  -20.7090   19.3846 N   0  0  0  0  0  0  0  0  0  0  0  0
  -22.3135  -17.3440   15.4363 N   0  0  0  0  0  0  0  0  0  0  0  0
  -22.8885  -12.9567   16.3398 N   0  0  0  0  0  0  0  0  0  0  0  0
  -21.2262  -20.8447   20.3731 N   0  0  0  0  0  0  0  0  0  0  0  0
  -27.6033  -28.3978   20.4625 N   0  0  0  0  0  0  0  0  0  0  0  0
  -25.4409  -33.8288   23.9682 N   0  0  0  0  0  0  0  0  0  0  0  0
  -22.8942  -36.1835   22.9496 N   0  3  0  0  0  0  0  0  0  0  0  0
  -22.0928  -14.4503   14.7924 O   0  0  0  0  0  0  0  0  0  0  0  0
  -26.7163  -28.7366   22.5888 O   0  0  0  0  0  0  0  0  0  0  0  0
  -27.4711  -32.4270   22.5115 O   0  0  0  0  0  0  0  0  0  0  0  0
  -23.1344  -33.6008   24.0397 O   0  0  0  0  0  0  0  0  0  0  0  0
  -22.5005  -22.7532   20.0335 O   0  0  0  0  0  0  0  0  0  0  0  0
  -20.0119  -22.7386   21.1905 O   0  0  0  0  0  0  0  0  0  0  0  0
  -25.2310  -10.8166   20.9190 O   0  0  0  0  0  0  0  0  0  0  0  0
  -20.3001  -28.1015   21.1978 O   0  0  0  0  0  0  0  0  0  1  0  0
  -21.6608   -6.6291   21.2686 F   0  0  0  0  0  0  0  0  0  0  0  0
  -24.2959   -9.9511   23.3724 F   0  0  0  0  0  0  0  0  0  0  0  0
  1  2  1  0  0  0  0
  1  5  2  0  0  0  0
  2  6  2  0  0  0  0
  3  8  2  0  0  0  0
  3 16  1  0  0  0  0
  4  9  1  0  0  0  0
  4 16  2  0  0  0  0
  5 18  1  0  0  0  0
  6 20  1  0  0  0  0
  7 10  2  0  0  0  0
  7 19  1  0  0  0  0
  8 22  1  0  0  0  0
  9 22  2  0  0  0  0
 10 23  1  0  0  0  0
 11 12  2  0  0  0  0
 11 24  1  0  0  0  0
 12 25  1  0  0  0  0
 13 21  1  0  0  0  0
 13 23  2  0  0  0  0
 14 25  2  0  0  0  0
 14 26  1  0  0  0  0
 15 29  2  0  0  0  0
 15 62  1  0  0  0  0
 16 27  1  0  0  0  0
 17 27  1  0  0  0  0
 17 28  2  0  0  0  0
 17 33  1  0  0  0  0
 18 20  2  0  0  0  0
 18 38  1  0  0  0  0
 19 21  2  0  0  0  0
 19 39  1  0  0  0  0
 20 50  1  0  0  0  0
 21 40  1  0  0  0  0
 22 80  1  0  0  0  0
 23 81  1  0  0  0  0
 24 26  2  0  0  0  0
 24 80  1  0  0  0  0
 25 82  1  0  0  0  0
 26 83  1  0  0  0  0
 27 63  2  0  0  0  0
 28 64  1  0  0  0  0
 28 68  1  0  0  0  0
 29 70  1  0  0  0  0
 29 79  1  0  0  0  0
 30 62  2  0  0  0  0
 30 65  1  0  0  0  0
 30 79  1  0  0  0  0
 31 32  2  0  0  0  0
 31 41  1  0  0  0  0
 32 42  1  0  0  0  0
 32 58  1  0  0  0  0
 33 69  1  0  0  0  0
 33 74  2  0  0  0  0
 34 51  1  0  0  0  0
 34 71  1  0  0  0  0
 34 75  2  0  0  0  0
 35 59  1  0  0  0  0
 35 66  1  0  0  0  0
 35 76  2  0  0  0  0
 36 60  1  0  0  0  0
 36 72  1  0  0  0  0
 36 77  2  0  0  0  0
 37 67  1  0  0  0  0
 37 70  1  0  0  0  0
 37 78  2  0  0  0  0
 38 43  1  0  0  0  0
 39 51  1  0  0  0  0
 40 66  1  0  0  0  0
 41 47  1  0  0  0  0
 42 65  1  0  0  0  0
 43 45  1  0  0  0  0
 44 46  1  0  0  0  0
 44 48  1  0  0  0  0
 45 50  1  0  0  0  0
 46 52  1  0  0  0  0
 47 65  1  0  0  0  0
 48 67  1  0  0  0  0
 49 52  1  0  0  0  0
 49 67  1  0  0  0  0
 50 71  1  0  0  0  0
 51 66  1  0  0  0  0
 52 64  1  0  0  0  0
 53 60  1  0  0  0  0
 54 61  1  0  0  0  0
 55 61  1  0  0  0  0
 56 61  1  0  0  0  0
 57 73  1  0  0  0  0
 58 81  1  0  0  0  0
 59 61  1  0  0  0  0
 59 72  1  0  0  0  0
 60 73  1  0  0  0  0
 63 64  1  0  0  0  0
M  CHG  1  73   1
M  ISO  4  37 100  58 101  70 100  81 101
M  END
> <Batch ID>
0149

> <Smiles>
CNC(C)C(=O)NC(C(=O)N1Cc2cc([101O:1][101CH2:1]C3=CCCN(c4ncc([100NH:0][100C:0](=O)N5CCCC(n6nc(-c7ccc(Oc8ccc(F)cc8F)cc7)c(C(N)=O)c6N)C5)o4)C3)ccc2CC1C(=O)NC1CCCc2ccccc21)C(C)(C)C

> <Shape>
0.268

> <Color>
0.069

> <Negative vol penalty>
0.000

$$$$

  -OEChem-04052303193D

 84 92  0     1  0  0  0  0  0999 V2000
  -30.0129  -34.3843   25.5665 C   0  0  0  0  0  0  0  0  0  0  0  0
  -29.5255  -33.1551   25.1340 C   0  0  0  0  0  0  0  0  0  0  0  0
  -24.5114   -8.7537   20.2489 C   0  0  0  0  0  0  0  0  0  0  0  0
  -22.9153  -10.5276   20.6270 C   0  0  0  0  0  0  0  0  0  0  0  0
  -29.1254  -35.4065   25.9000 C   0  0  0  0  0  0  0  0  0  0  0  0
  -28.1502  -32.9471   25.0359 C   0  0  0  0  0  0  0  0  0  0  0  0
  -26.8387  -30.6246   20.7312 C   0  0  0  0  0  0  0  0  0  0  0  0
  -23.6323   -7.8391   20.8289 C   0  0  0  0  0  0  0  0  0  0  0  0
  -22.0362   -9.6130   21.2069 C   0  0  0  0  0  0  0  0  0  0  0  0
  -27.0446  -29.2474   20.6624 C   0  0  0  0  0  0  0  0  0  0  0  0
  -22.6818   -6.9287   23.9421 C   0  0  0  0  0  0  0  0  0  0  0  0
  -23.2071   -6.0173   24.8580 C   0  0  0  0  0  0  0  0  0  0  0  0
  -24.7084  -28.8805   21.1387 C   0  0  0  0  0  0  0  0  0  0  0  0
  -22.4827   -4.1892   23.4543 C   0  0  0  0  0  0  0  0  0  0  0  0
  -26.9743  -20.3861   17.1936 C   0  0  0  0  0  0  0  0  0  0  0  0
  -24.1529  -10.0980   20.1480 C   0  0  0  0  0  0  0  0  0  0  0  0
  -25.1392  -11.4036   18.1909 C   0  0  0  0  0  0  0  0  0  0  0  0
  -27.7387  -35.2141   25.7968 C   0  0  0  0  0  0  0  0  0  0  0  0
  -25.5662  -31.1407   21.0154 C   0  0  0  0  0  0  0  0  0  0  0  0
  -27.2432  -33.9673   25.3697 C   0  0  0  0  0  0  0  0  0  0  0  0
  -24.4885  -30.2646   21.2079 C   0  0  0  0  0  0  0  0  0  0  0  0
  -27.6876  -20.8242   18.2876 C   0  0  0  0  0  0  0  0  0  0  0  0
  -28.1644  -19.7429   19.0836 C   0  0  0  0  0  0  0  0  0  0  0  0
  -22.3947   -8.2688   21.3078 C   0  0  0  0  0  0  0  0  0  0  0  0
  -25.9800  -28.3750   20.8691 C   0  0  0  0  0  0  0  0  0  0  0  0
  -22.0568   -6.4704   22.7823 C   0  0  0  0  0  0  0  0  0  0  0  0
  -23.1076   -4.6475   24.6141 C   0  0  0  0  0  0  0  0  0  0  0  0
  -21.9573   -5.1007   22.5384 C   0  0  0  0  0  0  0  0  0  0  0  0
  -25.0608  -11.0433   19.5496 C   0  0  0  0  0  0  0  0  0  0  0  0
  -26.1535  -12.3284   18.1390 C   0  0  0  0  0  0  0  0  0  0  0  0
  -27.7971  -18.5194   18.5677 C   0  0  0  0  0  0  0  0  0  0  0  0
  -24.3645  -10.9436   17.0757 C   0  0  0  0  0  0  0  0  0  0  0  0
  -24.3351  -32.9156   23.3474 C   0  0  0  0  0  0  0  0  0  0  0  0
  -26.8649  -25.2017   19.3713 C   0  0  0  0  0  0  0  0  0  0  0  0
  -21.6952  -32.8648   21.4631 C   0  0  0  0  0  0  0  0  0  0  0  0
  -27.4481  -23.2819   17.8128 C   0  0  0  0  0  0  0  0  0  0  0  0
  -19.9137  -31.2918   19.0139 C   0  0  0  0  0  0  0  0  0  0  0  0
  -28.7609  -16.8165   20.1543 C   0  0  0  0  0  0  0  0  0  0  0  0
  -26.8175  -36.3332   26.2137 C   0  0  0  0  0  0  0  0  0  0  0  0
  -25.3551  -32.6293   21.0597 C   0  0  0  0  0  0  0  0  0  0  0  0
  -23.0987  -30.7685   21.4960 C   0  0  0  0  0  0  0  0  0  0  0  0
  -25.3825  -36.1552   25.7243 C   0  0  0  0  0  0  0  0  0  0  0  0
  -29.5641  -13.6763   21.6278 C   0  0  0  0  0  0  0  0  0  0  0  0
  -24.9019  -34.7314   25.9863 C   0  0  0  0  0  0  0  0  0  0  0  0
  -28.4706  -12.7410   21.1067 C   0  0  0  0  0  0  0  0  0  0  0  0
  -29.0250  -15.0776   21.9097 C   0  0  0  0  0  0  0  0  0  0  0  0
  -27.2115  -14.7668   20.2715 C   0  0  0  0  0  0  0  0  0  0  0  0
  -25.7586  -33.7114   25.2266 C   0  0  1  0  0  0  0  0  0  0  0  0
  -24.1241  -33.0346   21.8645 C   0  0  1  0  0  0  0  0  0  0  0  0
  -27.7206  -13.3615   19.9117 C   0  0  2  0  0  0  0  0  0  0  0  0
  -17.7762  -31.4676   17.7109 C   0  0  0  0  0  0  0  0  0  0  0  0
  -20.1379  -31.8591   23.8866 C   0  0  0  0  0  0  0  0  0  0  0  0
  -18.3041  -31.1615   22.3314 C   0  0  0  0  0  0  0  0  0  0  0  0
  -18.9371  -33.5677   22.5106 C   0  0  0  0  0  0  0  0  0  0  0  0
  -21.3635  -31.5228   16.4441 C   0  0  0  0  0  0  0  0  0  0  0  0
  -27.8779  -24.6052   18.4164 C   0  0  0  0  0  0  0  0  0  0  0  0
  -27.2082  -26.5677   19.9305 C   0  0  0  0  0  0  0  0  0  1  0  0
  -20.4930  -31.9613   21.3313 C   0  0  1  0  0  0  0  0  0  0  0  0
  -19.2556  -31.8179   17.7511 C   0  0  2  0  0  0  0  0  0  0  0  0
  -19.4945  -32.1276   22.5115 C   0  0  0  0  0  0  0  0  0  0  0  0
  -25.9542  -11.6865   20.3060 N   0  0  0  0  0  0  0  0  0  0  0  0
  -26.6036  -12.4603   19.4196 N   0  0  0  0  0  0  0  0  0  0  0  0
  -22.9443  -32.2321   21.5354 N   0  0  0  0  0  0  0  0  0  0  0  0
  -28.3310  -15.6031   20.7320 N   0  0  0  0  0  0  0  0  0  0  0  0
  -28.8938  -19.8932   20.2163 N   0  0  0  0  0  0  0  0  0  0  0  0
  -26.6953  -13.0333   17.1231 N   0  0  0  0  0  0  0  0  0  0  0  0
  -23.3620   -9.9916   17.3058 N   0  0  0  0  0  0  0  0  0  0  0  0
  -27.8997  -22.1981   18.5542 N   0  0  0  0  0  0  0  0  0  0  0  0
  -28.0464  -17.1999   19.0198 N   0  0  0  0  0  0  0  0  0  0  0  0
  -25.3829  -33.6767   23.8294 N   0  0  0  0  0  0  0  0  0  0  0  0
  -19.9180  -32.2358   20.0189 N   0  0  0  0  0  0  0  0  0  0  0  0
  -19.9094  -31.2357   16.5451 N   0  3  0  0  0  0  0  0  0  0  0  0
  -24.5665  -11.3522   15.9070 O   0  0  0  0  0  0  0  0  0  0  0  0
  -23.6007  -32.1883   24.0057 O   0  0  0  0  0  0  0  0  0  0  0  0
  -25.8303  -24.6129   19.6814 O   0  0  0  0  0  0  0  0  0  0  0  0
  -21.5326  -34.0872   21.4934 O   0  0  0  0  0  0  0  0  0  0  0  0
  -26.7558  -23.2607   16.7986 O   0  0  0  0  0  0  0  0  0  0  0  0
  -20.3743  -30.1557   19.1013 O   0  0  0  0  0  0  0  0  0  0  0  0
  -29.7117  -17.4535   20.6149 O   0  0  0  0  0  0  0  0  0  0  0  0
  -21.5365   -7.3766   21.8736 O   0  0  0  0  0  0  0  0  0  0  0  0
  -26.1783  -27.0304   20.8032 O   0  0  0  0  0  0  0  0  0  1  0  0
  -23.6135   -3.7724   25.4930 F   0  0  0  0  0  0  0  0  0  0  0  0
  -21.3591   -4.6544   21.4254 F   0  0  0  0  0  0  0  0  0  0  0  0
  -26.8815  -18.6774   17.1293 S   0  0  0  0  0  0  0  0  0  0  0  0
  1  2  1  0  0  0  0
  1  5  2  0  0  0  0
  2  6  2  0  0  0  0
  3  8  2  0  0  0  0
  3 16  1  0  0  0  0
  4  9  1  0  0  0  0
  4 16  2  0  0  0  0
  5 18  1  0  0  0  0
  6 20  1  0  0  0  0
  7 10  2  0  0  0  0
  7 19  1  0  0  0  0
  8 24  1  0  0  0  0
  9 24  2  0  0  0  0
 10 25  1  0  0  0  0
 11 12  2  0  0  0  0
 11 26  1  0  0  0  0
 12 27  1  0  0  0  0
 13 21  1  0  0  0  0
 13 25  2  0  0  0  0
 14 27  2  0  0  0  0
 14 28  1  0  0  0  0
 15 22  2  0  0  0  0
 15 84  1  0  0  0  0
 16 29  1  0  0  0  0
 17 29  1  0  0  0  0
 17 30  2  0  0  0  0
 17 32  1  0  0  0  0
 18 20  2  0  0  0  0
 18 39  1  0  0  0  0
 19 21  2  0  0  0  0
 19 40  1  0  0  0  0
 20 48  1  0  0  0  0
 21 41  1  0  0  0  0
 22 23  1  0  0  0  0
 22 68  1  0  0  0  0
 23 31  2  0  0  0  0
 23 65  1  0  0  0  0
 24 80  1  0  0  0  0
 25 81  1  0  0  0  0
 26 28  2  0  0  0  0
 26 80  1  0  0  0  0
 27 82  1  0  0  0  0
 28 83  1  0  0  0  0
 29 61  2  0  0  0  0
 30 62  1  0  0  0  0
 30 66  1  0  0  0  0
 31 69  1  0  0  0  0
 31 84  1  0  0  0  0
 32 67  1  0  0  0  0
 32 73  2  0  0  0  0
 33 49  1  0  0  0  0
 33 70  1  0  0  0  0
 33 74  2  0  0  0  0
 34 56  1  0  0  0  0
 34 57  1  0  0  0  0
 34 75  2  0  0  0  0
 35 58  1  0  0  0  0
 35 63  1  0  0  0  0
 35 76  2  0  0  0  0
 36 56  1  0  0  0  0
 36 68  1  0  0  0  0
 36 77  2  0  0  0  0
 37 59  1  0  0  0  0
 37 71  1  0  0  0  0
 37 78  2  0  0  0  0
 38 64  1  0  0  0  0
 38 69  1  0  0  0  0
 38 79  2  0  0  0  0
 39 42  1  0  0  0  0
 40 49  1  0  0  0  0
 41 63  1  0  0  0  0
 42 44  1  0  0  0  0
 43 45  1  0  0  0  0
 43 46  1  0  0  0  0
 44 48  1  0  0  0  0
 45 50  1  0  0  0  0
 46 64  1  0  0  0  0
 47 50  1  0  0  0  0
 47 64  1  0  0  0  0
 48 70  1  0  0  0  0
 49 63  1  0  0  0  0
 50 62  1  0  0  0  0
 51 59  1  0  0  0  0
 52 60  1  0  0  0  0
 53 60  1  0  0  0  0
 54 60  1  0  0  0  0
 55 72  1  0  0  0  0
 57 81  1  0  0  0  0
 58 60  1  0  0  0  0
 58 71  1  0  0  0  0
 59 72  1  0  0  0  0
 61 62  1  0  0  0  0
M  CHG  1  72   1
M  ISO  4  38 100  57 101  69 100  81 101
M  END
> <Batch ID>
0149

> <Smiles>
CNC(C)C(=O)NC(C(=O)N1Cc2cc([101O:1][101CH2:1]C(=O)CC(=O)Nc3csc([100NH:0][100C:0](=O)N4CCCC(n5nc(-c6ccc(Oc7ccc(F)cc7F)cc6)c(C(N)=O)c5N)C4)c3N)ccc2CC1C(=O)NC1CCCc2ccccc21)C(C)(C)C

> <Shape>
0.254

> <Color>
0.109

> <Negative vol penalty>
0.000

$$$$

  -OEChem-04052303193D

 86 95  0     1  0  0  0  0  0999 V2000
  -31.7237  -12.7722   21.5092 C   0  0  0  0  0  0  0  0  0  0  0  0
  -31.1378  -13.9028   22.0694 C   0  0  0  0  0  0  0  0  0  0  0  0
  -22.6373  -30.6442   20.5627 C   0  0  0  0  0  0  0  0  0  0  0  0
  -22.5401  -28.8674   22.1970 C   0  0  0  0  0  0  0  0  0  0  0  0
  -31.1026  -12.1219   20.4437 C   0  0  0  0  0  0  0  0  0  0  0  0
  -29.9309  -14.3845   21.5635 C   0  0  0  0  0  0  0  0  0  0  0  0
  -26.6438  -15.6082   25.2163 C   0  0  0  0  0  0  0  0  0  0  0  0
  -21.2509  -30.5886   20.4198 C   0  0  0  0  0  0  0  0  0  0  0  0
  -21.1536  -28.8119   22.0541 C   0  0  0  0  0  0  0  0  0  0  0  0
  -26.8445  -16.8215   25.8731 C   0  0  0  0  0  0  0  0  0  0  0  0
  -18.4682  -30.5571   23.1328 C   0  0  0  0  0  0  0  0  0  0  0  0
  -17.7010  -30.4807   24.2952 C   0  0  0  0  0  0  0  0  0  0  0  0
  -28.8719  -20.8457   22.0875 C   0  0  0  0  0  0  0  0  0  0  0  0
  -28.2948  -23.1332   22.6081 C   0  0  0  0  0  0  0  0  0  0  0  0
  -25.1359  -17.8372   24.5062 C   0  0  0  0  0  0  0  0  0  0  0  0
  -29.4750  -22.6205   20.5632 C   0  0  0  0  0  0  0  0  0  0  0  0
  -16.7839  -28.3729   23.5514 C   0  0  0  0  0  0  0  0  0  0  0  0
  -23.2819  -29.7835   21.4513 C   0  0  0  0  0  0  0  0  0  0  0  0
  -28.2862  -21.7791   22.9427 C   0  0  0  0  0  0  0  0  0  0  0  0
  -25.4447  -30.6326   22.5043 C   0  0  0  0  0  0  0  0  0  0  0  0
  -29.8826  -12.5902   19.9309 C   0  0  0  0  0  0  0  0  0  0  0  0
  -25.6937  -15.5029   24.1903 C   0  0  0  0  0  0  0  0  0  0  0  0
  -29.2936  -13.7407   20.4893 C   0  0  0  0  0  0  0  0  0  0  0  0
  -24.9234  -16.6208   23.8396 C   0  0  0  0  0  0  0  0  0  0  0  0
  -29.4663  -21.2663   20.8978 C   0  0  0  0  0  0  0  0  0  0  0  0
  -28.8892  -23.5539   21.4184 C   0  0  0  0  0  0  0  0  0  0  0  0
  -20.5091  -29.6725   21.1655 C   0  0  0  0  0  0  0  0  0  0  0  0
  -26.0925  -17.9369   25.5161 C   0  0  0  0  0  0  0  0  0  0  0  0
  -18.3933  -29.5414   22.1797 C   0  0  0  0  0  0  0  0  0  0  0  0
  -16.8589  -29.3887   24.5045 C   0  0  0  0  0  0  0  0  0  0  0  0
  -17.5511  -28.4493   22.3890 C   0  0  0  0  0  0  0  0  0  0  0  0
  -24.7141  -29.8400   21.5989 C   0  0  0  0  0  0  0  0  0  0  0  0
  -26.7584  -30.3240   22.2482 C   0  0  0  0  0  0  0  0  0  0  0  0
  -27.6582  -21.3347   24.1998 C   0  0  0  0  0  0  0  0  0  0  0  0
  -24.9777  -31.5644   23.4889 C   0  0  0  0  0  0  0  0  0  0  0  0
  -25.8072  -14.8064   21.0910 C   0  0  0  0  0  0  0  0  0  0  0  0
  -22.5753  -14.9195   21.3454 C   0  0  0  0  0  0  0  0  0  0  0  0
  -19.8400  -16.0879   23.0187 C   0  0  0  0  0  0  0  0  0  0  0  0
  -29.4458  -25.5137   19.9366 C   0  0  0  0  0  0  0  0  0  0  0  0
  -29.2728  -11.8816   18.7473 C   0  0  0  0  0  0  0  0  0  0  0  0
  -25.4706  -14.1802   23.5098 C   0  0  0  0  0  0  0  0  0  0  0  0
  -23.8766  -16.5550   22.7587 C   0  0  0  0  0  0  0  0  0  0  0  0
  -27.8066  -12.2367   18.5140 C   0  0  0  0  0  0  0  0  0  0  0  0
  -29.6398  -28.8533   18.7172 C   0  0  0  0  0  0  0  0  0  0  0  0
  -30.2426  -21.1692   26.7307 C   0  0  0  0  0  0  0  0  0  0  0  0
  -27.6036  -13.7463   18.5947 C   0  0  0  0  0  0  0  0  0  0  0  0
  -28.4688  -29.5589   19.4049 C   0  0  0  0  0  0  0  0  0  0  0  0
  -28.9755  -21.3227   27.5656 C   0  0  0  0  0  0  0  0  0  0  0  0
  -29.8161  -21.6197   25.3393 C   0  0  0  0  0  0  0  0  0  0  0  0
  -29.2931  -27.4135   18.3421 C   0  0  0  0  0  0  0  0  0  0  0  0
  -27.6038  -27.2982   20.1315 C   0  0  0  0  0  0  0  0  0  0  0  0
  -27.9725  -14.2791   19.9845 C   0  0  1  0  0  0  0  0  0  0  0  0
  -24.8367  -14.3181   22.1290 C   0  0  1  0  0  0  0  0  0  0  0  0
  -27.9272  -28.7307   20.5865 C   0  0  2  0  0  0  0  0  0  0  0  0
  -27.8508  -20.8833   26.6233 C   0  0  2  0  0  0  0  0  0  0  0  0
  -17.3315  -16.0418   22.9680 C   0  0  0  0  0  0  0  0  0  0  0  0
  -22.5880  -16.9095   19.0325 C   0  0  0  0  0  0  0  0  0  0  0  0
  -20.2426  -17.5331   19.6478 C   0  0  0  0  0  0  0  0  0  0  0  0
  -20.7638  -15.2018   18.9294 C   0  0  0  0  0  0  0  0  0  0  0  0
  -19.6942  -14.8008   25.6797 C   0  0  0  0  0  0  0  0  0  0  0  0
  -27.5975  -19.3835   26.6557 C   0  0  0  0  0  0  0  0  0  1  0  0
  -21.5289  -15.9983   21.2037 C   0  0  1  0  0  0  0  0  0  0  0  0
  -18.5893  -15.3872   23.5178 C   0  0  2  0  0  0  0  0  0  0  0  0
  -21.3018  -16.4128   19.7225 C   0  0  0  0  0  0  0  0  0  0  0  0
  -25.4984  -29.0848   20.8253 N   0  0  0  0  0  0  0  0  0  0  0  0
  -26.7356  -29.4015   21.2439 N   0  0  0  0  0  0  0  0  0  0  0  0
  -28.3861  -21.2678   25.3010 N   0  0  0  0  0  0  0  0  0  0  0  0
  -23.7000  -15.2411   22.1185 N   0  0  0  0  0  0  0  0  0  0  0  0
  -28.7909  -26.6889   19.5115 N   0  0  0  0  0  0  0  0  0  0  0  0
  -30.0590  -20.3226   20.0334 N   0  0  0  0  0  0  0  0  0  0  0  0
  -27.9192  -30.7545   22.7864 N   0  0  0  0  0  0  0  0  0  0  0  0
  -23.5963  -31.7616   23.6200 N   0  0  0  0  0  0  0  0  0  0  0  0
  -28.8985  -24.9294   21.0783 N   0  0  0  0  0  0  0  0  0  0  0  0
  -26.9151  -13.9962   20.9313 N   0  0  0  0  0  0  0  0  0  0  0  0
  -20.3336  -15.4982   21.8742 N   0  0  0  0  0  0  0  0  0  0  0  0
  -26.3687  -21.0099   24.2068 N   0  3  0  0  0  0  0  0  0  0  0  0
  -18.5298  -15.4313   25.0062 N   0  3  0  0  0  0  0  0  0  0  0  0
  -25.7629  -32.2153   24.2192 O   0  0  0  0  0  0  0  0  0  0  0  0
  -25.5677  -15.8408   20.4791 O   0  0  0  0  0  0  0  0  0  0  0  0
  -22.3980  -13.8291   20.7966 O   0  0  0  0  0  0  0  0  0  0  0  0
  -20.3281  -17.0633   23.5852 O   0  0  0  0  0  0  0  0  0  0  0  0
  -30.4370  -25.0741   19.3481 O   0  0  0  0  0  0  0  0  0  0  0  0
  -19.1562  -29.6182   21.0265 O   0  0  0  0  0  0  0  0  0  0  0  0
  -26.2868  -19.1226   26.1552 O   0  0  0  0  0  0  0  0  0  1  0  0
  -16.1233  -29.3147   25.6215 F   0  0  0  0  0  0  0  0  0  0  0  0
  -17.4758  -27.4698   21.4775 F   0  0  0  0  0  0  0  0  0  0  0  0
  1  2  1  0  0  0  0
  1  5  2  0  0  0  0
  2  6  2  0  0  0  0
  3  8  2  0  0  0  0
  3 18  1  0  0  0  0
  4  9  1  0  0  0  0
  4 18  2  0  0  0  0
  5 21  1  0  0  0  0
  6 23  1  0  0  0  0
  7 10  2  0  0  0  0
  7 22  1  0  0  0  0
  8 27  1  0  0  0  0
  9 27  2  0  0  0  0
 10 28  1  0  0  0  0
 11 12  2  0  0  0  0
 11 29  1  0  0  0  0
 12 30  1  0  0  0  0
 13 19  1  0  0  0  0
 13 25  2  0  0  0  0
 14 19  2  0  0  0  0
 14 26  1  0  0  0  0
 15 24  1  0  0  0  0
 15 28  2  0  0  0  0
 16 25  1  0  0  0  0
 16 26  2  0  0  0  0
 17 30  2  0  0  0  0
 17 31  1  0  0  0  0
 18 32  1  0  0  0  0
 19 34  1  0  0  0  0
 20 32  1  0  0  0  0
 20 33  2  0  0  0  0
 20 35  1  0  0  0  0
 21 23  2  0  0  0  0
 21 40  1  0  0  0  0
 22 24  2  0  0  0  0
 22 41  1  0  0  0  0
 23 52  1  0  0  0  0
 24 42  1  0  0  0  0
 25 70  1  0  0  0  0
 26 73  1  0  0  0  0
 27 83  1  0  0  0  0
 28 84  1  0  0  0  0
 29 31  2  0  0  0  0
 29 83  1  0  0  0  0
 30 85  1  0  0  0  0
 31 86  1  0  0  0  0
 32 65  2  0  0  0  0
 33 66  1  0  0  0  0
 33 71  1  0  0  0  0
 34 67  1  0  0  0  0
 34 76  2  0  0  0  0
 35 72  1  0  0  0  0
 35 78  2  0  0  0  0
 36 53  1  0  0  0  0
 36 74  1  0  0  0  0
 36 79  2  0  0  0  0
 37 62  1  0  0  0  0
 37 68  1  0  0  0  0
 37 80  2  0  0  0  0
 38 63  1  0  0  0  0
 38 75  1  0  0  0  0
 38 81  2  0  0  0  0
 39 69  1  0  0  0  0
 39 73  1  0  0  0  0
 39 82  2  0  0  0  0
 40 43  1  0  0  0  0
 41 53  1  0  0  0  0
 42 68  1  0  0  0  0
 43 46  1  0  0  0  0
 44 47  1  0  0  0  0
 44 50  1  0  0  0  0
 45 48  1  0  0  0  0
 45 49  1  0  0  0  0
 46 52  1  0  0  0  0
 47 54  1  0  0  0  0
 48 55  1  0  0  0  0
 49 67  1  0  0  0  0
 50 69  1  0  0  0  0
 51 54  1  0  0  0  0
 51 69  1  0  0  0  0
 52 74  1  0  0  0  0
 53 68  1  0  0  0  0
 54 66  1  0  0  0  0
 55 61  1  0  0  0  0
 55 67  1  0  0  0  0
 56 63  1  0  0  0  0
 57 64  1  0  0  0  0
 58 64  1  0  0  0  0
 59 64  1  0  0  0  0
 60 77  1  0  0  0  0
 61 84  1  0  0  0  0
 62 64  1  0  0  0  0
 62 75  1  0  0  0  0
 63 77  1  0  0  0  0
 65 66  1  0  0  0  0
M  CHG  2  76   1  77   1
M  ISO  4  39 100  61 101  73 100  84 101
M  END
> <Batch ID>
0149

> <Smiles>
CNC(C)C(=O)NC(C(=O)N1Cc2cc([101O:1][101CH2:1]C3CCCN3C(=N)c3cc(N)cc([100NH:0][100C:0](=O)N4CCCC(n5nc(-c6ccc(Oc7ccc(F)cc7F)cc6)c(C(N)=O)c5N)C4)c3)ccc2CC1C(=O)NC1CCCc2ccccc21)C(C)(C)C

> <Shape>
0.250

> <Color>
0.083

> <Negative vol penalty>
0.000

$$$$

  -OEChem-04052303193D

 83 91  0     1  0  0  0  0  0999 V2000
  -21.1048  -31.1941   24.7855 C   0  0  0  0  0  0  0  0  0  0  0  0
  -22.2536  -30.4962   24.4268 C   0  0  0  0  0  0  0  0  0  0  0  0
  -24.2301   -9.2499   21.9990 C   0  0  0  0  0  0  0  0  0  0  0  0
  -23.5921   -9.0148   19.6806 C   0  0  0  0  0  0  0  0  0  0  0  0
  -19.8615  -30.7790   24.3103 C   0  0  0  0  0  0  0  0  0  0  0  0
  -22.1596  -29.3821   23.5936 C   0  0  0  0  0  0  0  0  0  0  0  0
  -25.6811  -29.3753   19.9544 C   0  0  0  0  0  0  0  0  0  0  0  0
  -23.2202   -8.3610   22.3671 C   0  0  0  0  0  0  0  0  0  0  0  0
  -22.5822   -8.1258   20.0487 C   0  0  0  0  0  0  0  0  0  0  0  0
  -26.9702  -28.9867   20.3165 C   0  0  0  0  0  0  0  0  0  0  0  0
  -22.7273   -5.0158   22.3751 C   0  0  0  0  0  0  0  0  0  0  0  0
  -23.0457   -4.0188   23.2971 C   0  0  0  0  0  0  0  0  0  0  0  0
  -26.5569  -26.7906   19.4080 C   0  0  0  0  0  0  0  0  0  0  0  0
  -30.4840  -22.1857   19.7552 C   0  0  0  0  0  0  0  0  0  0  0  0
  -21.3623   -4.8747   24.8040 C   0  0  0  0  0  0  0  0  0  0  0  0
  -24.4160   -9.5769   20.6557 C   0  0  0  0  0  0  0  0  0  0  0  0
  -26.7892  -10.1802   19.9405 C   0  0  0  0  0  0  0  0  0  0  0  0
  -19.7533  -29.6649   23.4631 C   0  0  0  0  0  0  0  0  0  0  0  0
  -24.8151  -28.4695   19.3251 C   0  0  0  0  0  0  0  0  0  0  0  0
  -20.9136  -28.9509   23.1077 C   0  0  0  0  0  0  0  0  0  0  0  0
  -25.2583  -27.1709   19.0366 C   0  0  0  0  0  0  0  0  0  0  0  0
  -30.6002  -20.7700   19.6438 C   0  0  0  0  0  0  0  0  0  0  0  0
  -22.3963   -7.7989   21.3920 C   0  0  0  0  0  0  0  0  0  0  0  0
  -27.4073  -27.6934   20.0459 C   0  0  0  0  0  0  0  0  0  0  0  0
  -21.7265   -5.9424   22.6675 C   0  0  0  0  0  0  0  0  0  0  0  0
  -22.3632   -3.9482   24.5115 C   0  0  0  0  0  0  0  0  0  0  0  0
  -21.0439   -5.8718   23.8819 C   0  0  0  0  0  0  0  0  0  0  0  0
  -25.4586  -10.4956   20.2749 C   0  0  0  0  0  0  0  0  0  0  0  0
  -29.7017  -20.1116   20.4542 C   0  0  0  0  0  0  0  0  0  0  0  0
  -27.3687  -11.3928   19.6572 C   0  0  0  0  0  0  0  0  0  0  0  0
  -29.5007  -22.5555   20.6465 C   0  0  0  0  0  0  0  0  0  0  0  0
  -29.5018  -18.7232   20.6284 C   0  0  0  0  0  0  0  0  0  0  0  0
  -28.3188  -18.0922   20.9299 C   0  0  0  0  0  0  0  0  0  0  0  0
  -27.4429   -8.9051   19.8904 C   0  0  0  0  0  0  0  0  0  0  0  0
  -28.2695  -16.6231   21.0707 C   0  0  0  0  0  0  0  0  0  0  0  0
  -22.0038  -27.1780   20.0546 C   0  0  0  0  0  0  0  0  0  0  0  0
  -22.2172  -25.9723   17.0508 C   0  0  0  0  0  0  0  0  0  0  0  0
  -24.2032  -25.0554   14.4313 C   0  0  0  0  0  0  0  0  0  0  0  0
  -29.5240  -25.0730   20.6265 C   0  0  0  0  0  0  0  0  0  0  0  0
  -18.3825  -29.2258   23.0128 C   0  0  0  0  0  0  0  0  0  0  0  0
  -23.4368  -28.9123   18.9168 C   0  0  0  0  0  0  0  0  0  0  0  0
  -24.3744  -26.1667   18.3447 C   0  0  0  0  0  0  0  0  0  0  0  0
  -18.4100  -28.2591   21.8317 C   0  0  0  0  0  0  0  0  0  0  0  0
  -25.3287  -15.9557   18.9879 C   0  0  0  0  0  0  0  0  0  0  0  0
  -19.4449  -27.1627   22.0632 C   0  0  0  0  0  0  0  0  0  0  0  0
  -25.1875  -14.4451   19.1545 C   0  0  0  0  0  0  0  0  0  0  0  0
  -25.8493  -16.6250   20.2590 C   0  0  0  0  0  0  0  0  0  0  0  0
  -26.9829  -14.5260   20.9294 C   0  0  0  0  0  0  0  0  0  0  0  0
  -20.8552  -27.7522   22.1858 C   0  0  1  0  0  0  0  0  0  0  0  0
  -22.4629  -27.7509   18.7437 C   0  0  1  0  0  0  0  0  0  0  0  0
  -26.5052  -13.8263   19.6473 C   0  0  1  0  0  0  0  0  0  0  0  0
  -24.0929  -24.0675   12.1271 C   0  0  0  0  0  0  0  0  0  0  0  0
  -29.4989  -26.6842   22.5664 C   0  0  0  0  0  0  0  0  0  0  0  0
  -21.7419  -23.2114   18.2599 C   0  0  0  0  0  0  0  0  0  0  0  0
  -22.5754  -22.2087   16.1226 C   0  0  0  0  0  0  0  0  0  0  0  0
  -20.5280  -23.6338   16.1145 C   0  0  0  0  0  0  0  0  0  0  0  0
  -25.3964  -27.4735   13.2116 C   0  0  0  0  0  0  0  0  0  0  0  0
  -22.7897  -24.7153   16.4415 C   0  0  1  0  0  0  0  0  0  0  0  0
  -24.1094  -25.3495   12.9450 C   0  0  2  0  0  0  0  0  0  0  0  0
  -28.7802  -26.2182   21.3089 C   0  0  1  0  0  0  0  0  0  1  0  0
  -21.9250  -23.4604   16.7494 C   0  0  0  0  0  0  0  0  0  0  0  0
  -25.2075  -11.8059   20.2106 N   0  0  0  0  0  0  0  0  0  0  0  0
  -26.3883  -12.3245   19.8326 N   0  0  0  0  0  0  0  0  0  0  0  0
  -27.0781  -15.9782   20.7432 N   0  0  0  0  0  0  0  0  0  0  0  0
  -23.0332  -26.6455   17.9710 N   0  0  0  0  0  0  0  0  0  0  0  0
  -31.4955  -20.1585   18.8309 N   0  0  0  0  0  0  0  0  0  0  0  0
  -28.6162  -11.7422   19.2777 N   0  0  0  0  0  0  0  0  0  0  0  0
  -26.7004   -7.7606   20.2116 N   0  0  0  0  0  0  0  0  0  0  0  0
  -29.0557  -23.8353   21.0551 N   0  0  0  0  0  0  0  0  0  0  0  0
  -21.3762  -28.0923   20.8792 N   0  0  0  0  0  0  0  0  0  0  0  0
  -22.9574  -24.9911   15.0188 N   0  0  0  0  0  0  0  0  0  0  0  0
  -25.2716  -26.1724   12.5055 N   0  3  0  0  0  0  0  0  0  0  0  0
  -28.6540   -8.7858   19.5862 O   0  0  0  0  0  0  0  0  0  0  0  0
  -29.2862  -16.0561   21.4750 O   0  0  0  0  0  0  0  0  0  0  0  0
  -22.2027  -25.9939   20.2994 O   0  0  0  0  0  0  0  0  0  0  0  0
  -21.0903  -26.3471   16.7171 O   0  0  0  0  0  0  0  0  0  0  0  0
  -25.2742  -24.8947   15.0123 O   0  0  0  0  0  0  0  0  0  0  0  0
  -30.4044  -25.2897   19.7989 O   0  0  0  0  0  0  0  0  0  0  0  0
  -21.4110   -6.9312   21.7508 O   0  0  0  0  0  0  0  0  0  0  0  0
  -28.6648  -27.3113   20.3989 O   0  0  0  0  0  0  0  0  0  1  0  0
  -22.6680   -2.9898   25.3962 F   0  0  0  0  0  0  0  0  0  0  0  0
  -20.0806   -6.7584   24.1680 F   0  0  0  0  0  0  0  0  0  0  0  0
  -28.7231  -21.1989   21.3445 S   0  0  0  0  0  0  0  0  0  0  0  0
  1  2  1  0  0  0  0
  1  5  2  0  0  0  0
  2  6  2  0  0  0  0
  3  8  2  0  0  0  0
  3 16  1  0  0  0  0
  4  9  1  0  0  0  0
  4 16  2  0  0  0  0
  5 18  1  0  0  0  0
  6 20  1  0  0  0  0
  7 10  2  0  0  0  0
  7 19  1  0  0  0  0
  8 23  1  0  0  0  0
  9 23  2  0  0  0  0
 10 24  1  0  0  0  0
 11 12  2  0  0  0  0
 11 25  1  0  0  0  0
 12 26  1  0  0  0  0
 13 21  1  0  0  0  0
 13 24  2  0  0  0  0
 14 22  1  0  0  0  0
 14 31  2  0  0  0  0
 15 26  2  0  0  0  0
 15 27  1  0  0  0  0
 16 28  1  0  0  0  0
 17 28  1  0  0  0  0
 17 30  2  0  0  0  0
 17 34  1  0  0  0  0
 18 20  2  0  0  0  0
 18 40  1  0  0  0  0
 19 21  2  0  0  0  0
 19 41  1  0  0  0  0
 20 49  1  0  0  0  0
 21 42  1  0  0  0  0
 22 29  2  0  0  0  0
 22 66  1  0  0  0  0
 23 79  1  0  0  0  0
 24 80  1  0  0  0  0
 25 27  2  0  0  0  0
 25 79  1  0  0  0  0
 26 81  1  0  0  0  0
 27 82  1  0  0  0  0
 28 62  2  0  0  0  0
 29 32  1  0  0  0  0
 29 83  1  0  0  0  0
 30 63  1  0  0  0  0
 30 67  1  0  0  0  0
 31 69  1  0  0  0  0
 31 83  1  0  0  0  0
 32 33  2  0  0  0  0
 33 35  1  0  0  0  0
 34 68  1  0  0  0  0
 34 73  2  0  0  0  0
 35 64  1  0  0  0  0
 35 74  2  0  0  0  0
 36 50  1  0  0  0  0
 36 70  1  0  0  0  0
 36 75  2  0  0  0  0
 37 58  1  0  0  0  0
 37 65  1  0  0  0  0
 37 76  2  0  0  0  0
 38 59  1  0  0  0  0
 38 71  1  0  0  0  0
 38 77  2  0  0  0  0
 39 60  1  0  0  0  0
 39 69  1  0  0  0  0
 39 78  2  0  0  0  0
 40 43  1  0  0  0  0
 41 50  1  0  0  0  0
 42 65  1  0  0  0  0
 43 45  1  0  0  0  0
 44 46  1  0  0  0  0
 44 47  1  0  0  0  0
 45 49  1  0  0  0  0
 46 51  1  0  0  0  0
 47 64  1  0  0  0  0
 48 51  1  0  0  0  0
 48 64  1  0  0  0  0
 49 70  1  0  0  0  0
 50 65  1  0  0  0  0
 51 63  1  0  0  0  0
 52 59  1  0  0  0  0
 53 60  1  0  0  0  0
 54 61  1  0  0  0  0
 55 61  1  0  0  0  0
 56 61  1  0  0  0  0
 57 72  1  0  0  0  0
 58 61  1  0  0  0  0
 58 71  1  0  0  0  0
 59 72  1  0  0  0  0
 60 80  1  0  0  0  0
 62 63  1  0  0  0  0
M  CHG  1  72   1
M  ISO  4  33 100  35 100  60 101  80 101
M  END
> <Batch ID>
0149

> <Smiles>
CNC(C)C(=O)NC(C(=O)N1Cc2cc([101O:1][101CH:1](C)C(=O)Nc3cc(N)c(C=[100CH:0][100C:0](=O)N4CCCC(n5nc(-c6ccc(Oc7ccc(F)cc7F)cc6)c(C(N)=O)c5N)C4)s3)ccc2CC1C(=O)NC1CCCc2ccccc21)C(C)(C)C

> <Shape>
0.279

> <Color>
0.107

> <Negative vol penalty>
0.000

$$$$

  -OEChem-04052303193D

 83 92  0     1  0  0  0  0  0999 V2000
  -18.8071  -30.3243   24.7313 C   0  0  0  0  0  0  0  0  0  0  0  0
  -20.1831  -30.1321   24.6595 C   0  0  0  0  0  0  0  0  0  0  0  0
  -24.6242  -14.8175   21.2629 C   0  0  0  0  0  0  0  0  0  0  0  0
  -27.0214  -14.6011   21.4727 C   0  0  0  0  0  0  0  0  0  0  0  0
  -17.9503  -29.4993   24.0039 C   0  0  0  0  0  0  0  0  0  0  0  0
  -20.7030  -29.1141   23.8610 C   0  0  0  0  0  0  0  0  0  0  0  0
  -25.9456  -29.2302   20.6975 C   0  0  0  0  0  0  0  0  0  0  0  0
  -24.5377  -13.4810   20.8732 C   0  0  0  0  0  0  0  0  0  0  0  0
  -26.9348  -13.2646   21.0829 C   0  0  0  0  0  0  0  0  0  0  0  0
  -27.2164  -28.7252   20.9691 C   0  0  0  0  0  0  0  0  0  0  0  0
  -24.5850  -10.4446   22.3600 C   0  0  0  0  0  0  0  0  0  0  0  0
  -23.5852   -9.6637   22.9397 C   0  0  0  0  0  0  0  0  0  0  0  0
  -31.1131  -23.2991   19.8415 C   0  0  0  0  0  0  0  0  0  0  0  0
  -26.6982  -26.7485   19.6872 C   0  0  0  0  0  0  0  0  0  0  0  0
  -22.6453   -9.2444   20.7539 C   0  0  0  0  0  0  0  0  0  0  0  0
  -33.3076  -22.9445   20.6870 C   0  0  0  0  0  0  0  0  0  0  0  0
  -31.9807  -21.1218   20.2452 C   0  0  0  0  0  0  0  0  0  0  0  0
  -25.8661  -15.3775   21.5627 C   0  0  0  0  0  0  0  0  0  0  0  0
  -25.8878  -17.2682   23.2752 C   0  0  0  0  0  0  0  0  0  0  0  0
  -18.4604  -28.4768   23.1885 C   0  0  0  0  0  0  0  0  0  0  0  0
  -25.0361  -28.4920   19.9265 C   0  0  0  0  0  0  0  0  0  0  0  0
  -19.8521  -28.2738   23.1230 C   0  0  0  0  0  0  0  0  0  0  0  0
  -32.3208  -23.8288   20.2820 C   0  0  0  0  0  0  0  0  0  0  0  0
  -25.4174  -27.2475   19.4051 C   0  0  0  0  0  0  0  0  0  0  0  0
  -30.9316  -21.9207   19.8197 C   0  0  0  0  0  0  0  0  0  0  0  0
  -25.6929  -12.7045   20.7832 C   0  0  0  0  0  0  0  0  0  0  0  0
  -27.5919  -27.4829   20.4664 C   0  0  0  0  0  0  0  0  0  0  0  0
  -24.6150  -10.6254   20.9772 C   0  0  0  0  0  0  0  0  0  0  0  0
  -22.6153   -9.0636   22.1367 C   0  0  0  0  0  0  0  0  0  0  0  0
  -23.6452  -10.0253   20.1742 C   0  0  0  0  0  0  0  0  0  0  0  0
  -25.9562  -16.7582   21.9648 C   0  0  0  0  0  0  0  0  0  0  0  0
  -26.0246  -18.6263   23.1226 C   0  0  0  0  0  0  0  0  0  0  0  0
  -25.7160  -16.5761   24.5190 C   0  0  0  0  0  0  0  0  0  0  0  0
  -22.1702  -27.2191   20.4460 C   0  0  0  0  0  0  0  0  0  0  0  0
  -22.3171  -26.5631   17.2726 C   0  0  0  0  0  0  0  0  0  0  0  0
  -24.2493  -26.0419   14.5082 C   0  0  0  0  0  0  0  0  0  0  0  0
  -28.5791  -22.0259   18.9247 C   0  0  0  0  0  0  0  0  0  0  0  0
  -17.4926  -27.5802   22.4577 C   0  0  0  0  0  0  0  0  0  0  0  0
  -23.6786  -29.0627   19.6202 C   0  0  0  0  0  0  0  0  0  0  0  0
  -24.4854  -26.4246   18.5550 C   0  0  0  0  0  0  0  0  0  0  0  0
  -18.1415  -26.7640   21.3427 C   0  0  0  0  0  0  0  0  0  0  0  0
  -25.1826  -22.1460   19.9862 C   0  0  0  0  0  0  0  0  0  0  0  0
  -32.3964  -25.9435   18.9214 C   0  0  0  0  0  0  0  0  0  0  0  0
  -19.4379  -26.1268   21.8328 C   0  0  0  0  0  0  0  0  0  0  0  0
  -31.1912  -26.8735   19.0184 C   0  0  0  0  0  0  0  0  0  0  0  0
  -24.9911  -20.8271   20.7385 C   0  0  0  0  0  0  0  0  0  0  0  0
  -31.5083  -26.0051   21.2123 C   0  0  0  0  0  0  0  0  0  0  0  0
  -26.0991  -21.9802   18.7752 C   0  0  0  0  0  0  0  0  0  0  0  0
  -27.2071  -20.0399   19.8129 C   0  0  0  0  0  0  0  0  0  0  0  0
  -32.5463  -25.3027   20.3171 C   0  0  1  0  0  0  0  0  0  0  0  0
  -20.4554  -27.1960   22.2487 C   0  0  1  0  0  0  0  0  0  0  0  0
  -22.6511  -27.9963   19.2534 C   0  0  1  0  0  0  0  0  0  0  0  0
  -31.1914  -27.3076   20.4801 C   0  0  2  0  0  0  0  0  0  0  0  0
  -26.3435  -20.1705   21.0782 C   0  0  2  0  0  0  0  0  0  0  0  0
  -24.0853  -25.4892   12.0659 C   0  0  0  0  0  0  0  0  0  0  0  0
  -21.7179  -23.6545   17.9735 C   0  0  0  0  0  0  0  0  0  0  0  0
  -22.4965  -23.0146   15.6816 C   0  0  0  0  0  0  0  0  0  0  0  0
  -20.5177  -24.5091   15.9527 C   0  0  0  0  0  0  0  0  0  0  0  0
  -25.5497  -28.5831   13.7270 C   0  0  0  0  0  0  0  0  0  0  0  0
  -29.8835  -27.9336   20.9147 C   0  0  0  0  0  0  0  0  0  1  0  0
  -22.8284  -25.4112   16.4415 C   0  0  1  0  0  0  0  0  0  0  0  0
  -24.1643  -26.6017   13.0997 C   0  0  2  0  0  0  0  0  0  0  0  0
  -21.9072  -24.1617   16.5299 C   0  0  0  0  0  0  0  0  0  0  0  0
  -33.1682  -21.5998   20.6799 N   0  0  0  0  0  0  0  0  0  0  0  0
  -26.1233  -17.7145   21.0474 N   0  0  0  0  0  0  0  0  0  0  0  0
  -26.1610  -18.8390   21.7823 N   0  0  0  0  0  0  0  0  0  0  0  0
  -23.1667  -27.0228   18.2887 N   0  0  0  0  0  0  0  0  0  0  0  0
  -27.3626  -21.3560   19.1739 N   0  0  0  0  0  0  0  0  0  0  0  0
  -26.0402  -19.6474   24.0055 N   0  0  0  0  0  0  0  0  0  0  0  0
  -25.5914  -15.1803   24.4953 N   0  0  0  0  0  0  0  0  0  0  0  0
  -29.7123  -21.3506   19.3771 N   0  0  0  0  0  0  0  0  0  0  0  0
  -21.0794  -27.7811   21.0813 N   0  0  0  0  0  0  0  0  0  0  0  0
  -23.0039  -25.9297   15.0892 N   0  0  0  0  0  0  0  0  0  0  0  0
  -25.3620  -27.4367   12.8010 N   0  3  0  0  0  0  0  0  0  0  0  0
  -25.6579  -17.1791   25.6174 O   0  0  0  0  0  0  0  0  0  0  0  0
  -22.7454  -26.1851   20.7652 O   0  0  0  0  0  0  0  0  0  0  0  0
  -21.2078  -27.0421   17.0245 O   0  0  0  0  0  0  0  0  0  0  0  0
  -25.3137  -25.7314   15.0385 O   0  0  0  0  0  0  0  0  0  0  0  0
  -28.6112  -23.1307   18.3767 O   0  0  0  0  0  0  0  0  0  0  0  0
  -25.6088  -11.4003   20.4031 O   0  0  0  0  0  0  0  0  0  0  0  0
  -28.8314  -26.9873   20.7306 O   0  0  0  0  0  0  0  0  0  1  0  0
  -21.6561   -8.3125   22.6934 F   0  0  0  0  0  0  0  0  0  0  0  0
  -23.6695  -10.1944   18.8450 F   0  0  0  0  0  0  0  0  0  0  0  0
  1  2  1  0  0  0  0
  1  5  2  0  0  0  0
  2  6  2  0  0  0  0
  3  8  2  0  0  0  0
  3 18  1  0  0  0  0
  4  9  1  0  0  0  0
  4 18  2  0  0  0  0
  5 20  1  0  0  0  0
  6 22  1  0  0  0  0
  7 10  2  0  0  0  0
  7 21  1  0  0  0  0
  8 26  1  0  0  0  0
  9 26  2  0  0  0  0
 10 27  1  0  0  0  0
 11 12  2  0  0  0  0
 11 28  1  0  0  0  0
 12 29  1  0  0  0  0
 13 23  2  0  0  0  0
 13 25  1  0  0  0  0
 14 24  1  0  0  0  0
 14 27  2  0  0  0  0
 15 29  2  0  0  0  0
 15 30  1  0  0  0  0
 16 23  1  0  0  0  0
 16 64  2  0  0  0  0
 17 25  2  0  0  0  0
 17 64  1  0  0  0  0
 18 31  1  0  0  0  0
 19 31  1  0  0  0  0
 19 32  2  0  0  0  0
 19 33  1  0  0  0  0
 20 22  2  0  0  0  0
 20 38  1  0  0  0  0
 21 24  2  0  0  0  0
 21 39  1  0  0  0  0
 22 51  1  0  0  0  0
 23 50  1  0  0  0  0
 24 40  1  0  0  0  0
 25 71  1  0  0  0  0
 26 80  1  0  0  0  0
 27 81  1  0  0  0  0
 28 30  2  0  0  0  0
 28 80  1  0  0  0  0
 29 82  1  0  0  0  0
 30 83  1  0  0  0  0
 31 65  2  0  0  0  0
 32 66  1  0  0  0  0
 32 69  1  0  0  0  0
 33 70  1  0  0  0  0
 33 75  2  0  0  0  0
 34 52  1  0  0  0  0
 34 72  1  0  0  0  0
 34 76  2  0  0  0  0
 35 61  1  0  0  0  0
 35 67  1  0  0  0  0
 35 77  2  0  0  0  0
 36 62  1  0  0  0  0
 36 73  1  0  0  0  0
 36 78  2  0  0  0  0
 37 68  1  0  0  0  0
 37 71  1  0  0  0  0
 37 79  2  0  0  0  0
 38 41  1  0  0  0  0
 39 52  1  0  0  0  0
 40 67  1  0  0  0  0
 41 44  1  0  0  0  0
 42 46  1  0  0  0  0
 42 48  1  0  0  0  0
 43 45  1  0  0  0  0
 43 50  1  0  0  0  0
 44 51  1  0  0  0  0
 45 53  1  0  0  0  0
 46 54  1  0  0  0  0
 47 50  1  0  0  0  0
 47 53  1  0  0  0  0
 48 68  1  0  0  0  0
 49 54  1  0  0  0  0
 49 68  1  0  0  0  0
 51 72  1  0  0  0  0
 52 67  1  0  0  0  0
 53 60  1  0  0  0  0
 54 66  1  0  0  0  0
 55 62  1  0  0  0  0
 56 63  1  0  0  0  0
 57 63  1  0  0  0  0
 58 63  1  0  0  0  0
 59 74  1  0  0  0  0
 60 81  1  0  0  0  0
 61 63  1  0  0  0  0
 61 73  1  0  0  0  0
 62 74  1  0  0  0  0
 65 66  1  0  0  0  0
M  CHG  1  74   1
M  ISO  4  37 100  60 101  71 100  81 101
M  END
> <Batch ID>
0149

> <Smiles>
CNC(C)C(=O)NC(C(=O)N1Cc2cc([101O:1][101CH2:1]C3CCC(c4cncc([100NH:0][100C:0](=O)N5CCCC(n6nc(-c7ccc(Oc8ccc(F)cc8F)cc7)c(C(N)=O)c6N)C5)c4)C3)ccc2CC1C(=O)NC1CCCc2ccccc21)C(C)(C)C

> <Shape>
0.233

> <Color>
0.083

> <Negative vol penalty>
0.000

$$$$

  -OEChem-04052303193D

 83 91  0     1  0  0  0  0  0999 V2000
  -41.9194  -31.8857   27.3868 C   0  0  0  0  0  0  0  0  0  0  0  0
  -41.2084  -30.7706   26.9553 C   0  0  0  0  0  0  0  0  0  0  0  0
  -23.0753   -9.8687   19.9399 C   0  0  0  0  0  0  0  0  0  0  0  0
  -23.8347   -9.8744   22.2335 C   0  0  0  0  0  0  0  0  0  0  0  0
  -41.2645  -33.1043   27.5603 C   0  0  0  0  0  0  0  0  0  0  0  0
  -39.8417  -30.8731   26.6980 C   0  0  0  0  0  0  0  0  0  0  0  0
  -36.6781  -27.9128   22.3697 C   0  0  0  0  0  0  0  0  0  0  0  0
  -22.3309   -8.7157   20.1892 C   0  0  0  0  0  0  0  0  0  0  0  0
  -23.0902   -8.7214   22.4828 C   0  0  0  0  0  0  0  0  0  0  0  0
  -35.8843  -26.7672   22.4062 C   0  0  0  0  0  0  0  0  0  0  0  0
  -19.8616   -7.9246   23.0842 C   0  0  0  0  0  0  0  0  0  0  0  0
  -19.1043   -7.8845   24.2549 C   0  0  0  0  0  0  0  0  0  0  0  0
  -31.7987  -17.5498   21.7124 C   0  0  0  0  0  0  0  0  0  0  0  0
  -33.9183  -28.1444   22.6450 C   0  0  0  0  0  0  0  0  0  0  0  0
  -20.3448   -5.9463   24.9908 C   0  0  0  0  0  0  0  0  0  0  0  0
  -30.7391  -19.1057   23.0757 C   0  0  0  0  0  0  0  0  0  0  0  0
  -23.8272  -10.4480   20.9621 C   0  0  0  0  0  0  0  0  0  0  0  0
  -31.8867  -18.8085   22.3742 C   0  0  0  0  0  0  0  0  0  0  0  0
  -24.1701  -12.9731   20.8432 C   0  0  0  0  0  0  0  0  0  0  0  0
  -39.8911  -33.2242   27.2958 C   0  0  0  0  0  0  0  0  0  0  0  0
  -36.0980  -29.1845   22.4817 C   0  0  0  0  0  0  0  0  0  0  0  0
  -39.1676  -32.0941   26.8694 C   0  0  0  0  0  0  0  0  0  0  0  0
  -34.7066  -29.3047   22.6070 C   0  0  0  0  0  0  0  0  0  0  0  0
  -22.3384   -8.1421   21.4607 C   0  0  0  0  0  0  0  0  0  0  0  0
  -34.5045  -26.8828   22.5468 C   0  0  0  0  0  0  0  0  0  0  0  0
  -20.8604   -6.9755   22.8668 C   0  0  0  0  0  0  0  0  0  0  0  0
  -19.3460   -6.8953   25.2082 C   0  0  0  0  0  0  0  0  0  0  0  0
  -21.1021   -5.9864   23.8201 C   0  0  0  0  0  0  0  0  0  0  0  0
  -24.5969  -11.6387   20.7050 C   0  0  0  0  0  0  0  0  0  0  0  0
  -25.2626  -13.7223   20.4805 C   0  0  0  0  0  0  0  0  0  0  0  0
  -30.5871  -16.9326   21.9336 C   0  0  0  0  0  0  0  0  0  0  0  0
  -33.0700  -19.6899   22.3139 C   0  0  0  0  0  0  0  0  0  0  0  0
  -22.8997  -13.4892   21.2620 C   0  0  0  0  0  0  0  0  0  0  0  0
  -36.3332  -31.5826   24.5548 C   0  0  0  0  0  0  0  0  0  0  0  0
  -33.3947  -23.3676   22.5061 C   0  0  0  0  0  0  0  0  0  0  0  0
  -34.4552  -33.1154   22.3994 C   0  0  0  0  0  0  0  0  0  0  0  0
  -32.1767  -32.8958   19.8682 C   0  0  0  0  0  0  0  0  0  0  0  0
  -30.7292  -14.7655   20.6571 C   0  0  0  0  0  0  0  0  0  0  0  0
  -39.2172  -34.5506   27.5432 C   0  0  0  0  0  0  0  0  0  0  0  0
  -36.9655  -30.4114   22.4137 C   0  0  0  0  0  0  0  0  0  0  0  0
  -34.0328  -30.6476   22.7107 C   0  0  0  0  0  0  0  0  0  0  0  0
  -37.8428  -34.6669   26.8893 C   0  0  0  0  0  0  0  0  0  0  0  0
  -29.6144  -12.3533   18.2874 C   0  0  0  0  0  0  0  0  0  0  0  0
  -37.0169  -33.4124   27.1560 C   0  0  0  0  0  0  0  0  0  0  0  0
  -28.1745  -12.0621   18.7165 C   0  0  0  0  0  0  0  0  0  0  0  0
  -30.5293  -12.5811   19.4893 C   0  0  0  0  0  0  0  0  0  0  0  0
  -28.6223  -13.3057   20.8705 C   0  0  0  0  0  0  0  0  0  0  0  0
  -37.6891  -32.1715   26.5562 C   0  0  1  0  0  0  0  0  0  0  0  0
  -36.3192  -31.6364   23.0533 C   0  0  1  0  0  0  0  0  0  0  0  0
  -27.6497  -13.1334   19.6924 C   0  0  2  0  0  0  0  0  0  0  0  0
  -30.7966  -34.3204   18.3309 C   0  0  0  0  0  0  0  0  0  0  0  0
  -32.5403  -33.7317   24.6936 C   0  0  0  0  0  0  0  0  0  0  0  0
  -30.7905  -34.2875   22.9914 C   0  0  0  0  0  0  0  0  0  0  0  0
  -32.8956  -35.6218   23.0950 C   0  0  0  0  0  0  0  0  0  0  0  0
  -33.4872  -31.7740   17.4633 C   0  0  0  0  0  0  0  0  0  0  0  0
  -33.9788  -21.9848   22.3823 C   0  0  0  0  0  0  0  0  0  0  0  0
  -34.3922  -24.5084   22.4724 C   0  0  0  0  0  0  0  0  0  1  0  0
  -32.9672  -33.2618   22.1910 C   0  0  1  0  0  0  0  0  0  0  0  0
  -32.1094  -33.5742   18.5118 C   0  0  2  0  0  0  0  0  0  0  0  0
  -32.3110  -34.2002   23.2428 C   0  0  0  0  0  0  0  0  0  0  0  0
  -25.8618  -11.5425   20.2870 N   0  0  0  0  0  0  0  0  0  0  0  0
  -26.2392  -12.8260   20.1593 N   0  0  0  0  0  0  0  0  0  0  0  0
  -34.9245  -31.8173   22.6455 N   0  0  0  0  0  0  0  0  0  0  0  0
  -29.9706  -13.6118   20.3671 N   0  0  0  0  0  0  0  0  0  0  0  0
  -25.4736  -15.0537   20.4081 N   0  0  0  0  0  0  0  0  0  0  0  0
  -21.8874  -12.5803   21.5986 N   0  0  0  0  0  0  0  0  0  0  0  0
  -30.0821  -15.6904   21.4758 N   0  0  0  0  0  0  0  0  0  0  0  0
  -32.8928  -21.0196   22.4102 N   0  0  0  0  0  0  0  0  0  0  0  0
  -37.4707  -32.1198   25.1265 N   0  0  0  0  0  0  0  0  0  0  0  0
  -32.7892  -33.6957   20.8095 N   0  0  0  0  0  0  0  0  0  0  0  0
  -34.2678  -19.1242   22.1633 N   0  3  0  0  0  0  0  0  0  0  0  0
  -32.2308  -32.5656   17.4215 N   0  3  0  0  0  0  0  0  0  0  0  0
  -22.6639  -14.7199   21.3198 O   0  0  0  0  0  0  0  0  0  0  0  0
  -35.3816  -31.0914   25.1507 O   0  0  0  0  0  0  0  0  0  0  0  0
  -32.1868  -23.5668   22.6274 O   0  0  0  0  0  0  0  0  0  0  0  0
  -35.1756  -34.1150   22.3387 O   0  0  0  0  0  0  0  0  0  0  0  0
  -31.7274  -31.7703   20.0730 O   0  0  0  0  0  0  0  0  0  0  0  0
  -31.8585  -14.9340   20.1898 O   0  0  0  0  0  0  0  0  0  0  0  0
  -21.6119   -7.0172   21.7043 O   0  0  0  0  0  0  0  0  0  0  0  0
  -33.7275  -25.7662   22.5834 O   0  0  0  0  0  0  0  0  0  1  0  0
  -18.6197   -6.8579   26.3331 F   0  0  0  0  0  0  0  0  0  0  0  0
  -22.0611   -5.0726   23.6173 F   0  0  0  0  0  0  0  0  0  0  0  0
  -29.5620  -17.8699   22.9352 S   0  0  0  0  0  0  0  0  0  0  0  0
  1  2  1  0  0  0  0
  1  5  2  0  0  0  0
  2  6  2  0  0  0  0
  3  8  2  0  0  0  0
  3 17  1  0  0  0  0
  4  9  1  0  0  0  0
  4 17  2  0  0  0  0
  5 20  1  0  0  0  0
  6 22  1  0  0  0  0
  7 10  2  0  0  0  0
  7 21  1  0  0  0  0
  8 24  1  0  0  0  0
  9 24  2  0  0  0  0
 10 25  1  0  0  0  0
 11 12  2  0  0  0  0
 11 26  1  0  0  0  0
 12 27  1  0  0  0  0
 13 18  1  0  0  0  0
 13 31  2  0  0  0  0
 14 23  1  0  0  0  0
 14 25  2  0  0  0  0
 15 27  2  0  0  0  0
 15 28  1  0  0  0  0
 16 18  2  0  0  0  0
 16 83  1  0  0  0  0
 17 29  1  0  0  0  0
 18 32  1  0  0  0  0
 19 29  1  0  0  0  0
 19 30  2  0  0  0  0
 19 33  1  0  0  0  0
 20 22  2  0  0  0  0
 20 39  1  0  0  0  0
 21 23  2  0  0  0  0
 21 40  1  0  0  0  0
 22 48  1  0  0  0  0
 23 41  1  0  0  0  0
 24 79  1  0  0  0  0
 25 80  1  0  0  0  0
 26 28  2  0  0  0  0
 26 79  1  0  0  0  0
 27 81  1  0  0  0  0
 28 82  1  0  0  0  0
 29 61  2  0  0  0  0
 30 62  1  0  0  0  0
 30 65  1  0  0  0  0
 31 67  1  0  0  0  0
 31 83  1  0  0  0  0
 32 68  1  0  0  0  0
 32 71  2  0  0  0  0
 33 66  1  0  0  0  0
 33 73  2  0  0  0  0
 34 49  1  0  0  0  0
 34 69  1  0  0  0  0
 34 74  2  0  0  0  0
 35 56  1  0  0  0  0
 35 57  1  0  0  0  0
 35 75  2  0  0  0  0
 36 58  1  0  0  0  0
 36 63  1  0  0  0  0
 36 76  2  0  0  0  0
 37 59  1  0  0  0  0
 37 70  1  0  0  0  0
 37 77  2  0  0  0  0
 38 64  1  0  0  0  0
 38 67  1  0  0  0  0
 38 78  2  0  0  0  0
 39 42  1  0  0  0  0
 40 49  1  0  0  0  0
 41 63  1  0  0  0  0
 42 44  1  0  0  0  0
 43 45  1  0  0  0  0
 43 46  1  0  0  0  0
 44 48  1  0  0  0  0
 45 50  1  0  0  0  0
 46 64  1  0  0  0  0
 47 50  1  0  0  0  0
 47 64  1  0  0  0  0
 48 69  1  0  0  0  0
 49 63  1  0  0  0  0
 50 62  1  0  0  0  0
 51 59  1  0  0  0  0
 52 60  1  0  0  0  0
 53 60  1  0  0  0  0
 54 60  1  0  0  0  0
 55 72  1  0  0  0  0
 56 68  1  0  0  0  0
 57 80  1  0  0  0  0
 58 60  1  0  0  0  0
 58 70  1  0  0  0  0
 59 72  1  0  0  0  0
 61 62  1  0  0  0  0
M  CHG  2  71   1  72   1
M  ISO  4  38 100  57 101  67 100  80 101
M  END
> <Batch ID>
0149

> <Smiles>
CNC(C)C(=O)NC(C(=O)N1Cc2cc([101O:1][101CH2:1]C(=O)CNC(=N)c3csc([100NH:0][100C:0](=O)N4CCCC(n5nc(-c6ccc(Oc7ccc(F)cc7F)cc6)c(C(N)=O)c5N)C4)c3)ccc2CC1C(=O)NC1CCCc2ccccc21)C(C)(C)C

> <Shape>
0.168

> <Color>
0.184

> <Negative vol penalty>
0.000

$$$$

  -OEChem-04052303193D

 88 96  0     1  0  0  0  0  0999 V2000
  -30.7121  -34.2491   19.1331 C   0  0  0  0  0  0  0  0  0  0  0  0
  -29.4525  -33.6745   19.2696 C   0  0  0  0  0  0  0  0  0  0  0  0
  -23.0023   -9.8189   19.9872 C   0  0  0  0  0  0  0  0  0  0  0  0
  -23.7172   -9.8999   22.2936 C   0  0  0  0  0  0  0  0  0  0  0  0
  -31.7604  -33.5071   18.5905 C   0  0  0  0  0  0  0  0  0  0  0  0
  -29.2402  -32.3578   18.8626 C   0  0  0  0  0  0  0  0  0  0  0  0
  -26.8957  -27.3735   23.5049 C   0  0  0  0  0  0  0  0  0  0  0  0
  -22.2470   -8.6788   20.2614 C   0  0  0  0  0  0  0  0  0  0  0  0
  -22.9618   -8.7598   22.5678 C   0  0  0  0  0  0  0  0  0  0  0  0
  -26.2482  -26.4119   24.2808 C   0  0  0  0  0  0  0  0  0  0  0  0
  -21.5088   -5.6626   23.7949 C   0  0  0  0  0  0  0  0  0  0  0  0
  -22.1026   -4.6605   24.5623 C   0  0  0  0  0  0  0  0  0  0  0  0
  -31.9758  -16.5987   22.5431 C   0  0  0  0  0  0  0  0  0  0  0  0
  -31.7426  -18.4037   24.1319 C   0  0  0  0  0  0  0  0  0  0  0  0
  -26.4510  -24.8085   22.4819 C   0  0  0  0  0  0  0  0  0  0  0  0
  -29.7854  -17.4770   23.0606 C   0  0  0  0  0  0  0  0  0  0  0  0
  -23.8385   -4.4160   22.8998 C   0  0  0  0  0  0  0  0  0  0  0  0
  -23.7375  -10.4295   21.0034 C   0  0  0  0  0  0  0  0  0  0  0  0
  -32.5505  -17.5093   23.4297 C   0  0  0  0  0  0  0  0  0  0  0  0
  -24.0963  -12.9473   20.8046 C   0  0  0  0  0  0  0  0  0  0  0  0
  -31.5633  -32.1775   18.1856 C   0  0  0  0  0  0  0  0  0  0  0  0
  -27.3376  -27.0513   22.2187 C   0  0  0  0  0  0  0  0  0  0  0  0
  -30.2865  -31.5978   18.3128 C   0  0  0  0  0  0  0  0  0  0  0  0
  -27.1113  -25.7639   21.7048 C   0  0  0  0  0  0  0  0  0  0  0  0
  -30.5933  -16.5826   22.3585 C   0  0  0  0  0  0  0  0  0  0  0  0
  -30.3601  -18.3875   23.9474 C   0  0  0  0  0  0  0  0  0  0  0  0
  -22.2267   -8.1492   21.5517 C   0  0  0  0  0  0  0  0  0  0  0  0
  -26.0262  -25.1326   23.7705 C   0  0  0  0  0  0  0  0  0  0  0  0
  -22.0798   -6.0413   22.5799 C   0  0  0  0  0  0  0  0  0  0  0  0
  -23.2675   -4.0372   24.1148 C   0  0  0  0  0  0  0  0  0  0  0  0
  -23.2447   -5.4181   22.1324 C   0  0  0  0  0  0  0  0  0  0  0  0
  -24.5184  -11.6069   20.7207 C   0  0  0  0  0  0  0  0  0  0  0  0
  -25.1997  -13.6783   20.4378 C   0  0  0  0  0  0  0  0  0  0  0  0
  -33.9837  -17.5267   23.6204 C   0  0  0  0  0  0  0  0  0  0  0  0
  -22.8209  -13.4836   21.1806 C   0  0  0  0  0  0  0  0  0  0  0  0
  -29.0778  -28.1955   19.0981 C   0  0  0  0  0  0  0  0  0  0  0  0
  -27.5652  -20.4117   25.4249 C   0  0  0  0  0  0  0  0  0  0  0  0
  -30.0245  -25.3296   19.6465 C   0  0  0  0  0  0  0  0  0  0  0  0
  -31.1306  -22.3289   20.8335 C   0  0  0  0  0  0  0  0  0  0  0  0
  -30.6675  -14.7010   20.6850 C   0  0  0  0  0  0  0  0  0  0  0  0
  -32.7151  -31.4305   17.5610 C   0  0  0  0  0  0  0  0  0  0  0  0
  -27.9848  -28.0738   21.3246 C   0  0  0  0  0  0  0  0  0  0  0  0
  -27.5732  -25.4725   20.3031 C   0  0  0  0  0  0  0  0  0  0  0  0
  -32.5005  -29.9204   17.5006 C   0  0  0  0  0  0  0  0  0  0  0  0
  -29.5856  -12.2138   18.3783 C   0  0  0  0  0  0  0  0  0  0  0  0
  -31.1043  -29.6002   16.9762 C   0  0  0  0  0  0  0  0  0  0  0  0
  -28.1361  -11.9445   18.7890 C   0  0  0  0  0  0  0  0  0  0  0  0
  -30.4783  -12.4786   19.5894 C   0  0  0  0  0  0  0  0  0  0  0  0
  -28.5489  -13.2595   20.9073 C   0  0  0  0  0  0  0  0  0  0  0  0
  -30.0230  -30.1642   17.9058 C   0  0  1  0  0  0  0  0  0  0  0  0
  -29.0742  -27.4772   20.4154 C   0  0  1  0  0  0  0  0  0  0  0  0
  -27.5983  -13.0513   19.7171 C   0  0  2  0  0  0  0  0  0  0  0  0
  -32.7111  -20.4571   20.2897 C   0  0  0  0  0  0  0  0  0  0  0  0
  -24.1205  -22.0659   26.0757 C   0  0  0  0  0  0  0  0  0  0  0  0
  -28.0783  -24.3052   17.5330 C   0  0  0  0  0  0  0  0  0  0  0  0
  -29.1670  -22.0585   17.7215 C   0  0  0  0  0  0  0  0  0  0  0  0
  -30.4942  -24.0249   16.9503 C   0  0  0  0  0  0  0  0  0  0  0  0
  -32.6858  -22.7667   23.3131 C   0  0  0  0  0  0  0  0  0  0  0  0
  -26.0517  -20.5811   25.3852 C   0  0  0  0  0  0  0  0  0  0  0  0
  -28.1226  -19.3322   24.5192 C   0  0  0  0  0  0  0  0  0  0  0  0
  -25.7492  -22.8327   24.3100 C   0  0  0  0  0  0  0  0  0  1  0  0
  -29.8237  -23.8588   19.3824 C   0  0  1  0  0  0  0  0  0  0  0  0
  -32.5312  -21.7757   21.0256 C   0  0  2  0  0  0  0  0  0  0  0  0
  -25.5800  -22.0267   25.6046 C   0  0  1  0  0  0  0  0  0  0  0  0
  -29.3797  -23.5745   17.9197 C   0  0  0  0  0  0  0  0  0  0  0  0
  -25.7906  -11.4904   20.3310 N   0  0  0  0  0  0  0  0  0  0  0  0
  -26.1774  -12.7669   20.1667 N   0  0  0  0  0  0  0  0  0  0  0  0
  -28.9075  -26.0521   20.0832 N   0  0  0  0  0  0  0  0  0  0  0  0
  -29.9083  -13.5416   20.4201 N   0  0  0  0  0  0  0  0  0  0  0  0
  -25.4193  -15.0054   20.3239 N   0  0  0  0  0  0  0  0  0  0  0  0
  -34.7707  -16.6697   22.9481 N   0  0  0  0  0  0  0  0  0  0  0  0
  -21.7973  -12.5916   21.5284 N   0  0  0  0  0  0  0  0  0  0  0  0
  -30.0096  -15.6567   21.4586 N   0  0  0  0  0  0  0  0  0  0  0  0
  -29.5565  -19.2771   24.6461 N   0  0  0  0  0  0  0  0  0  0  0  0
  -29.8738  -29.3249   19.0753 N   0  0  0  0  0  0  0  0  0  0  0  0
  -31.0678  -23.2014   19.7677 N   0  0  0  0  0  0  0  0  0  0  0  0
  -34.5473  -18.4011   24.4708 N   0  3  0  0  0  0  0  0  0  0  0  0
  -32.8039  -21.5473   22.4728 N   0  3  0  0  0  0  0  0  0  0  0  0
  -22.5908  -14.7166   21.1915 O   0  0  0  0  0  0  0  0  0  0  0  0
  -28.4091  -27.7575   18.1693 O   0  0  0  0  0  0  0  0  0  0  0  0
  -28.2869  -21.1277   26.1177 O   0  0  0  0  0  0  0  0  0  0  0  0
  -31.1390  -25.8282   19.4658 O   0  0  0  0  0  0  0  0  0  0  0  0
  -30.1859  -22.0152   21.5544 O   0  0  0  0  0  0  0  0  0  0  0  0
  -31.8065  -14.8479   20.2343 O   0  0  0  0  0  0  0  0  0  0  0  0
  -21.4895   -7.0369   21.8196 O   0  0  0  0  0  0  0  0  0  0  0  0
  -25.3974  -24.1972   24.5350 O   0  0  0  0  0  0  0  0  0  1  0  0
  -23.8384   -3.0761   24.8526 F   0  0  0  0  0  0  0  0  0  0  0  0
  -23.7985   -5.7785   20.9666 F   0  0  0  0  0  0  0  0  0  0  0  0
  1  2  1  0  0  0  0
  1  5  2  0  0  0  0
  2  6  2  0  0  0  0
  3  8  2  0  0  0  0
  3 18  1  0  0  0  0
  4  9  1  0  0  0  0
  4 18  2  0  0  0  0
  5 21  1  0  0  0  0
  6 23  1  0  0  0  0
  7 10  2  0  0  0  0
  7 22  1  0  0  0  0
  8 27  1  0  0  0  0
  9 27  2  0  0  0  0
 10 28  1  0  0  0  0
 11 12  2  0  0  0  0
 11 29  1  0  0  0  0
 12 30  1  0  0  0  0
 13 19  2  0  0  0  0
 13 25  1  0  0  0  0
 14 19  1  0  0  0  0
 14 26  2  0  0  0  0
 15 24  1  0  0  0  0
 15 28  2  0  0  0  0
 16 25  2  0  0  0  0
 16 26  1  0  0  0  0
 17 30  2  0  0  0  0
 17 31  1  0  0  0  0
 18 32  1  0  0  0  0
 19 34  1  0  0  0  0
 20 32  1  0  0  0  0
 20 33  2  0  0  0  0
 20 35  1  0  0  0  0
 21 23  2  0  0  0  0
 21 41  1  0  0  0  0
 22 24  2  0  0  0  0
 22 42  1  0  0  0  0
 23 50  1  0  0  0  0
 24 43  1  0  0  0  0
 25 73  1  0  0  0  0
 26 74  1  0  0  0  0
 27 85  1  0  0  0  0
 28 86  1  0  0  0  0
 29 31  2  0  0  0  0
 29 85  1  0  0  0  0
 30 87  1  0  0  0  0
 31 88  1  0  0  0  0
 32 66  2  0  0  0  0
 33 67  1  0  0  0  0
 33 70  1  0  0  0  0
 34 71  1  0  0  0  0
 34 77  2  0  0  0  0
 35 72  1  0  0  0  0
 35 79  2  0  0  0  0
 36 51  1  0  0  0  0
 36 75  1  0  0  0  0
 36 80  2  0  0  0  0
 37 59  1  0  0  0  0
 37 60  1  0  0  0  0
 37 81  2  0  0  0  0
 38 62  1  0  0  0  0
 38 68  1  0  0  0  0
 38 82  2  0  0  0  0
 39 63  1  0  0  0  0
 39 76  1  0  0  0  0
 39 83  2  0  0  0  0
 40 69  1  0  0  0  0
 40 73  1  0  0  0  0
 40 84  2  0  0  0  0
 41 44  1  0  0  0  0
 42 51  1  0  0  0  0
 43 68  1  0  0  0  0
 44 46  1  0  0  0  0
 45 47  1  0  0  0  0
 45 48  1  0  0  0  0
 46 50  1  0  0  0  0
 47 52  1  0  0  0  0
 48 69  1  0  0  0  0
 49 52  1  0  0  0  0
 49 69  1  0  0  0  0
 50 75  1  0  0  0  0
 51 68  1  0  0  0  0
 52 67  1  0  0  0  0
 53 63  1  0  0  0  0
 54 64  1  0  0  0  0
 55 65  1  0  0  0  0
 56 65  1  0  0  0  0
 57 65  1  0  0  0  0
 58 78  1  0  0  0  0
 59 64  1  0  0  0  0
 60 74  1  0  0  0  0
 61 64  1  0  0  0  0
 61 86  1  0  0  0  0
 62 65  1  0  0  0  0
 62 76  1  0  0  0  0
 63 78  1  0  0  0  0
 66 67  1  0  0  0  0
M  CHG  2  77   1  78   1
M  ISO  4  40 100  61 101  73 100  86 101
M  END
> <Batch ID>
0149

> <Smiles>
CNC(C)C(=O)NC(C(=O)N1Cc2cc([101O:1][101CH2:1]C(C)CC(=O)CNc3cc([100NH:0][100C:0](=O)N4CCCC(n5nc(-c6ccc(Oc7ccc(F)cc7F)cc6)c(C(N)=O)c5N)C4)cc(C(=N)N)c3)ccc2CC1C(=O)NC1CCCc2ccccc21)C(C)(C)C

> <Shape>
0.244

> <Color>
0.197

> <Negative vol penalty>
0.000

$$$$

  -OEChem-04052303193D

 87 95  0     1  0  0  0  0  0999 V2000
  -26.4109  -20.9299   27.3833 C   0  0  0  0  0  0  0  0  0  0  0  0
  -26.2194  -22.1330   26.7115 C   0  0  0  0  0  0  0  0  0  0  0  0
  -25.7348  -13.5053   19.6521 C   0  0  0  0  0  0  0  0  0  0  0  0
  -25.3422  -14.7724   21.6714 C   0  0  0  0  0  0  0  0  0  0  0  0
  -25.9108  -19.7450   26.8449 C   0  0  0  0  0  0  0  0  0  0  0  0
  -25.5285  -22.1517   25.5004 C   0  0  0  0  0  0  0  0  0  0  0  0
  -22.1591  -25.9235   25.2439 C   0  0  0  0  0  0  0  0  0  0  0  0
  -24.6834  -12.6509   19.9838 C   0  0  0  0  0  0  0  0  0  0  0  0
  -24.2907  -13.9180   22.0031 C   0  0  0  0  0  0  0  0  0  0  0  0
  -22.6514  -27.1998   24.9746 C   0  0  0  0  0  0  0  0  0  0  0  0
  -24.1605  -10.0342   22.0584 C   0  0  0  0  0  0  0  0  0  0  0  0
  -24.3711   -8.6628   21.9155 C   0  0  0  0  0  0  0  0  0  0  0  0
  -28.2541  -26.3409   21.4006 C   0  0  0  0  0  0  0  0  0  0  0  0
  -22.0011  -26.9565   22.6644 C   0  0  0  0  0  0  0  0  0  0  0  0
  -22.5457   -8.5470   20.3370 C   0  0  0  0  0  0  0  0  0  0  0  0
  -29.5331  -28.0584   20.3659 C   0  0  0  0  0  0  0  0  0  0  0  0
  -26.0643  -14.5661   20.4959 C   0  0  0  0  0  0  0  0  0  0  0  0
  -29.0950  -25.4025   20.8126 C   0  0  0  0  0  0  0  0  0  0  0  0
  -28.5015  -15.1005   19.9647 C   0  0  0  0  0  0  0  0  0  0  0  0
  -25.2051  -19.7505   25.6314 C   0  0  0  0  0  0  0  0  0  0  0  0
  -21.5931  -25.1485   24.2215 C   0  0  0  0  0  0  0  0  0  0  0  0
  -25.0197  -20.9656   24.9447 C   0  0  0  0  0  0  0  0  0  0  0  0
  -21.5001  -25.6717   22.9239 C   0  0  0  0  0  0  0  0  0  0  0  0
  -28.4705  -27.6962   21.1780 C   0  0  0  0  0  0  0  0  0  0  0  0
  -23.9613  -12.8572   21.1592 C   0  0  0  0  0  0  0  0  0  0  0  0
  -22.5750  -27.7153   23.6840 C   0  0  0  0  0  0  0  0  0  0  0  0
  -23.1424  -10.6621   21.3407 C   0  0  0  0  0  0  0  0  0  0  0  0
  -23.5638   -7.9192   21.0547 C   0  0  0  0  0  0  0  0  0  0  0  0
  -22.3351   -9.9184   20.4800 C   0  0  0  0  0  0  0  0  0  0  0  0
  -27.1507  -15.4487   20.1542 C   0  0  0  0  0  0  0  0  0  0  0  0
  -30.1295  -25.8674   20.0168 C   0  0  0  0  0  0  0  0  0  0  0  0
  -29.1221  -16.2867   19.6582 C   0  0  0  0  0  0  0  0  0  0  0  0
  -28.8559  -23.9869   21.0550 C   0  0  0  0  0  0  0  0  0  0  0  0
  -27.7343  -23.3151   20.7212 C   0  0  0  0  0  0  0  0  0  0  0  0
  -29.1382  -13.8192   20.0575 C   0  0  0  0  0  0  0  0  0  0  0  0
  -27.6466  -21.8729   21.0260 C   0  0  0  0  0  0  0  0  0  0  0  0
  -22.2924  -22.3553   22.8751 C   0  0  0  0  0  0  0  0  0  0  0  0
  -19.4847  -22.8415   21.3249 C   0  0  0  0  0  0  0  0  0  0  0  0
  -26.5379  -28.4663   22.5915 C   0  0  0  0  0  0  0  0  0  0  0  0
  -17.1379  -25.0523   20.2062 C   0  0  0  0  0  0  0  0  0  0  0  0
  -24.7243  -18.4379   25.0653 C   0  0  0  0  0  0  0  0  0  0  0  0
  -21.0424  -23.7842   24.5340 C   0  0  0  0  0  0  0  0  0  0  0  0
  -20.8832  -24.8880   21.7952 C   0  0  0  0  0  0  0  0  0  0  0  0
  -23.6785  -18.5959   23.9645 C   0  0  0  0  0  0  0  0  0  0  0  0
  -28.3072  -20.5473   17.6736 C   0  0  0  0  0  0  0  0  0  0  0  0
  -24.1138  -19.6615   22.9636 C   0  0  0  0  0  0  0  0  0  0  0  0
  -28.1587  -19.0477   17.9163 C   0  0  0  0  0  0  0  0  0  0  0  0
  -27.3516  -21.3644   18.5419 C   0  0  0  0  0  0  0  0  0  0  0  0
  -27.3139  -19.5608   20.2408 C   0  0  0  0  0  0  0  0  0  0  0  0
  -24.2540  -21.0301   23.6409 C   0  0  1  0  0  0  0  0  0  0  0  0
  -20.9529  -22.8807   23.3080 C   0  0  1  0  0  0  0  0  0  0  0  0
  -28.2988  -18.7218   19.4117 C   0  0  1  0  0  0  0  0  0  0  0  0
  -14.9908  -25.8479   19.1794 C   0  0  0  0  0  0  0  0  0  0  0  0
  -20.9974  -22.4097   18.7105 C   0  0  0  0  0  0  0  0  0  0  0  0
  -19.0628  -23.4415   17.5018 C   0  0  0  0  0  0  0  0  0  0  0  0
  -18.7407  -21.3357   18.7996 C   0  0  0  0  0  0  0  0  0  0  0  0
  -24.1724  -31.5599   22.7055 C   0  0  0  0  0  0  0  0  0  0  0  0
  -25.1675  -30.4891   20.6821 C   0  0  0  0  0  0  0  0  0  0  0  0
  -15.7245  -24.9558   22.8046 C   0  0  0  0  0  0  0  0  0  0  0  0
  -25.8861  -29.7744   23.0215 C   0  0  0  0  0  0  0  0  0  0  0  0
  -23.5598  -29.1953   22.1042 C   0  0  0  0  0  0  0  0  0  1  0  0
  -19.0774  -23.5148   20.0366 C   0  0  1  0  0  0  0  0  0  0  0  0
  -15.6235  -25.0526   20.3108 C   0  0  2  0  0  0  0  0  0  0  0  0
  -19.4830  -22.6897   18.7828 C   0  0  0  0  0  0  0  0  0  0  0  0
  -24.7052  -30.2311   22.1270 C   0  0  0  0  0  0  0  0  0  0  0  0
  -30.3712  -27.1758   19.7775 N   0  0  0  0  0  0  0  0  0  0  0  0
  -26.9257  -16.7541   19.9825 N   0  0  0  0  0  0  0  0  0  0  0  0
  -28.1436  -17.2365   19.6821 N   0  0  0  0  0  0  0  0  0  0  0  0
  -27.4628  -20.9933   19.9606 N   0  0  0  0  0  0  0  0  0  0  0  0
  -20.3647  -23.5565   22.1497 N   0  0  0  0  0  0  0  0  0  0  0  0
  -30.9951  -24.9222   19.4105 N   0  0  0  0  0  0  0  0  0  0  0  0
  -30.4041  -16.5997   19.3733 N   0  0  0  0  0  0  0  0  0  0  0  0
  -29.6531  -13.4172   21.2975 N   0  0  0  0  0  0  0  0  0  0  0  0
  -27.6322  -28.6751   21.7624 N   0  0  0  0  0  0  0  0  0  0  0  0
  -22.9522  -21.6278   23.8471 N   0  0  0  0  0  0  0  0  0  0  0  0
  -17.6454  -23.7717   20.1453 N   0  0  0  0  0  0  0  0  0  0  0  0
  -15.1938  -25.6534   21.6051 N   0  3  0  0  0  0  0  0  0  0  0  0
  -29.2620  -13.0605   19.0663 O   0  0  0  0  0  0  0  0  0  0  0  0
  -27.7366  -21.5349   22.2077 O   0  0  0  0  0  0  0  0  0  0  0  0
  -22.6966  -22.5912   21.7426 O   0  0  0  0  0  0  0  0  0  0  0  0
  -19.0329  -21.7254   21.5931 O   0  0  0  0  0  0  0  0  0  0  0  0
  -26.0830  -27.3913   22.9729 O   0  0  0  0  0  0  0  0  0  0  0  0
  -17.8038  -26.0849   20.1773 O   0  0  0  0  0  0  0  0  0  0  0  0
  -22.9351  -12.0238   21.4831 O   0  0  0  0  0  0  0  0  0  0  0  0
  -23.0553  -28.9605   23.4183 O   0  0  0  0  0  0  0  0  0  1  0  0
  -23.7671   -6.6025   20.9164 F   0  0  0  0  0  0  0  0  0  0  0  0
  -21.3562  -10.5162   19.7869 F   0  0  0  0  0  0  0  0  0  0  0  0
  1  2  1  0  0  0  0
  1  5  2  0  0  0  0
  2  6  2  0  0  0  0
  3  8  2  0  0  0  0
  3 17  1  0  0  0  0
  4  9  1  0  0  0  0
  4 17  2  0  0  0  0
  5 20  1  0  0  0  0
  6 22  1  0  0  0  0
  7 10  2  0  0  0  0
  7 21  1  0  0  0  0
  8 25  1  0  0  0  0
  9 25  2  0  0  0  0
 10 26  1  0  0  0  0
 11 12  2  0  0  0  0
 11 27  1  0  0  0  0
 12 28  1  0  0  0  0
 13 18  1  0  0  0  0
 13 24  2  0  0  0  0
 14 23  1  0  0  0  0
 14 26  2  0  0  0  0
 15 28  2  0  0  0  0
 15 29  1  0  0  0  0
 16 24  1  0  0  0  0
 16 66  2  0  0  0  0
 17 30  1  0  0  0  0
 18 31  2  0  0  0  0
 18 33  1  0  0  0  0
 19 30  1  0  0  0  0
 19 32  2  0  0  0  0
 19 35  1  0  0  0  0
 20 22  2  0  0  0  0
 20 41  1  0  0  0  0
 21 23  2  0  0  0  0
 21 42  1  0  0  0  0
 22 50  1  0  0  0  0
 23 43  1  0  0  0  0
 24 74  1  0  0  0  0
 25 84  1  0  0  0  0
 26 85  1  0  0  0  0
 27 29  2  0  0  0  0
 27 84  1  0  0  0  0
 28 86  1  0  0  0  0
 29 87  1  0  0  0  0
 30 67  2  0  0  0  0
 31 66  1  0  0  0  0
 31 71  1  0  0  0  0
 32 68  1  0  0  0  0
 32 72  1  0  0  0  0
 33 34  2  0  0  0  0
 34 36  1  0  0  0  0
 35 73  1  0  0  0  0
 35 78  2  0  0  0  0
 36 69  1  0  0  0  0
 36 79  2  0  0  0  0
 37 51  1  0  0  0  0
 37 75  1  0  0  0  0
 37 80  2  0  0  0  0
 38 62  1  0  0  0  0
 38 70  1  0  0  0  0
 38 81  2  0  0  0  0
 39 60  1  0  0  0  0
 39 74  1  0  0  0  0
 39 82  2  0  0  0  0
 40 63  1  0  0  0  0
 40 76  1  0  0  0  0
 40 83  2  0  0  0  0
 41 44  1  0  0  0  0
 42 51  1  0  0  0  0
 43 70  1  0  0  0  0
 44 46  1  0  0  0  0
 45 47  1  0  0  0  0
 45 48  1  0  0  0  0
 46 50  1  0  0  0  0
 47 52  1  0  0  0  0
 48 69  1  0  0  0  0
 49 52  1  0  0  0  0
 49 69  1  0  0  0  0
 50 75  1  0  0  0  0
 51 70  1  0  0  0  0
 52 68  1  0  0  0  0
 53 63  1  0  0  0  0
 54 64  1  0  0  0  0
 55 64  1  0  0  0  0
 56 64  1  0  0  0  0
 57 65  1  0  0  0  0
 58 65  1  0  0  0  0
 59 77  1  0  0  0  0
 60 65  1  0  0  0  0
 61 65  1  0  0  0  0
 61 85  1  0  0  0  0
 62 64  1  0  0  0  0
 62 76  1  0  0  0  0
 63 77  1  0  0  0  0
 67 68  1  0  0  0  0
M  CHG  1  77   1
M  ISO  4  34 100  36 100  61 101  85 101
M  END
> <Batch ID>
0149

> <Smiles>
CNC(C)C(=O)NC(C(=O)N1Cc2cc([101O:1][101CH2:1]C(C)(C)CC(=O)Nc3cnc(N)c(C=[100CH:0][100C:0](=O)N4CCCC(n5nc(-c6ccc(Oc7ccc(F)cc7F)cc6)c(C(N)=O)c5N)C4)c3)ccc2CC1C(=O)NC1CCCc2ccccc21)C(C)(C)C

> <Shape>
0.224

> <Color>
0.057

> <Negative vol penalty>
0.000

$$$$

  -OEChem-04052303193D

 86 94  0     1  0  0  0  0  0999 V2000
  -26.8953  -37.7381   17.8459 C   0  0  0  0  0  0  0  0  0  0  0  0
  -27.2519  -36.4129   17.6180 C   0  0  0  0  0  0  0  0  0  0  0  0
  -24.7592   -8.3349   21.5384 C   0  0  0  0  0  0  0  0  0  0  0  0
  -23.0720   -9.9334   20.8786 C   0  0  0  0  0  0  0  0  0  0  0  0
  -26.6527  -38.1799   19.1458 C   0  0  0  0  0  0  0  0  0  0  0  0
  -27.3672  -35.5288   18.6902 C   0  0  0  0  0  0  0  0  0  0  0  0
  -25.9968  -29.5599   18.7039 C   0  0  0  0  0  0  0  0  0  0  0  0
  -23.8412   -7.7164   22.3871 C   0  0  0  0  0  0  0  0  0  0  0  0
  -22.1540   -9.3149   21.7274 C   0  0  0  0  0  0  0  0  0  0  0  0
  -26.7834  -28.4166   18.5701 C   0  0  0  0  0  0  0  0  0  0  0  0
  -21.2579   -5.5525   22.1099 C   0  0  0  0  0  0  0  0  0  0  0  0
  -21.1938   -4.1593   22.0905 C   0  0  0  0  0  0  0  0  0  0  0  0
  -26.8851  -28.2129   20.9717 C   0  0  0  0  0  0  0  0  0  0  0  0
  -27.0975  -18.8664   19.3945 C   0  0  0  0  0  0  0  0  0  0  0  0
  -21.7742   -4.1001   24.4351 C   0  0  0  0  0  0  0  0  0  0  0  0
  -24.3746   -9.4435   20.7841 C   0  0  0  0  0  0  0  0  0  0  0  0
  -25.5663   -9.7823   18.5542 C   0  0  0  0  0  0  0  0  0  0  0  0
  -26.7556  -37.2985   20.2335 C   0  0  0  0  0  0  0  0  0  0  0  0
  -25.6569  -30.0454   19.9748 C   0  0  0  0  0  0  0  0  0  0  0  0
  -27.1270  -35.9595   20.0061 C   0  0  0  0  0  0  0  0  0  0  0  0
  -26.0919  -29.3611   21.1188 C   0  0  0  0  0  0  0  0  0  0  0  0
  -26.4002  -17.6348   19.3998 C   0  0  0  0  0  0  0  0  0  0  0  0
  -22.5387   -8.2063   22.4816 C   0  0  0  0  0  0  0  0  0  0  0  0
  -27.2301  -27.7446   19.7041 C   0  0  0  0  0  0  0  0  0  0  0  0
  -21.5802   -6.2196   23.2918 C   0  0  0  0  0  0  0  0  0  0  0  0
  -21.4519   -3.4331   23.2531 C   0  0  0  0  0  0  0  0  0  0  0  0
  -21.8383   -5.4933   24.4544 C   0  0  0  0  0  0  0  0  0  0  0  0
  -25.3225  -10.0832   19.9076 C   0  0  0  0  0  0  0  0  0  0  0  0
  -25.1216  -17.9178   18.9789 C   0  0  0  0  0  0  0  0  0  0  0  0
  -26.5488  -10.6651   18.1777 C   0  0  0  0  0  0  0  0  0  0  0  0
  -26.1953  -19.8143   18.9705 C   0  0  0  0  0  0  0  0  0  0  0  0
  -27.1837  -23.4242   18.6389 C   0  0  0  0  0  0  0  0  0  0  0  0
  -24.9589   -8.7931   17.7125 C   0  0  0  0  0  0  0  0  0  0  0  0
  -23.9792  -17.0891   18.7867 C   0  0  0  0  0  0  0  0  0  0  0  0
  -28.1037  -24.3974   18.7390 C   0  0  0  0  0  0  0  0  0  0  0  0
  -27.4593  -21.9893   18.9646 C   0  0  0  0  0  0  0  0  0  0  0  0
  -26.2101  -32.7393   21.5688 C   0  0  0  0  0  0  0  0  0  0  0  0
  -24.2052  -31.4065   23.7428 C   0  0  0  0  0  0  0  0  0  0  0  0
  -22.8157  -28.5764   25.0493 C   0  0  0  0  0  0  0  0  0  0  0  0
  -28.1900  -16.0472   20.1889 C   0  0  0  0  0  0  0  0  0  0  0  0
  -26.5299  -37.8336   21.6254 C   0  0  0  0  0  0  0  0  0  0  0  0
  -24.7854  -31.2647   20.1019 C   0  0  0  0  0  0  0  0  0  0  0  0
  -25.7378  -29.8297   22.5057 C   0  0  0  0  0  0  0  0  0  0  0  0
  -26.3080  -36.7419   22.6692 C   0  0  0  0  0  0  0  0  0  0  0  0
  -30.2387  -13.1442   19.9592 C   0  0  0  0  0  0  0  0  0  0  0  0
  -27.3476  -35.6364   22.5146 C   0  0  0  0  0  0  0  0  0  0  0  0
  -29.2329  -12.0031   19.7906 C   0  0  0  0  0  0  0  0  0  0  0  0
  -29.7181  -14.2237   20.9065 C   0  0  0  0  0  0  0  0  0  0  0  0
  -27.3847  -13.6139   20.4040 C   0  0  0  0  0  0  0  0  0  0  0  0
  -27.2381  -34.9643   21.1406 C   0  0  1  0  0  0  0  0  0  0  0  0
  -24.9286  -31.9637   21.4503 C   0  0  1  0  0  0  0  0  0  0  0  0
  -27.8374  -12.5338   19.4080 C   0  0  2  0  0  0  0  0  0  0  0  0
  -22.6940  -17.7296   18.3031 C   0  0  0  0  0  0  0  0  0  0  0  0
  -21.2422  -27.8021   26.8443 C   0  0  0  0  0  0  0  0  0  0  0  0
  -26.3736  -31.8678   25.8393 C   0  0  0  0  0  0  0  0  0  0  0  0
  -25.1706  -30.2614   27.3361 C   0  0  0  0  0  0  0  0  0  0  0  0
  -24.0495  -32.3697   26.6144 C   0  0  0  0  0  0  0  0  0  0  0  0
  -20.9586  -27.3926   23.0723 C   0  0  0  0  0  0  0  0  0  0  0  0
  -27.7932  -25.8284   18.4130 C   0  0  0  0  0  0  0  0  0  1  0  0
  -24.3746  -30.5031   24.9404 C   0  0  1  0  0  0  0  0  0  0  0  0
  -21.3788  -28.2243   25.3897 C   0  0  2  0  0  0  0  0  0  0  0  0
  -25.0005  -31.2425   26.1566 C   0  0  0  0  0  0  0  0  0  0  0  0
  -26.0885  -11.0793   20.3604 N   0  0  0  0  0  0  0  0  0  0  0  0
  -26.8233  -11.4119   19.2855 N   0  0  0  0  0  0  0  0  0  0  0  0
  -24.8887  -31.0303   22.5779 N   0  0  0  0  0  0  0  0  0  0  0  0
  -28.3942  -14.6816   20.4791 N   0  0  0  0  0  0  0  0  0  0  0  0
  -27.1961  -10.8677   17.0105 N   0  0  0  0  0  0  0  0  0  0  0  0
  -23.9656   -7.9693   18.2593 N   0  0  0  0  0  0  0  0  0  0  0  0
  -26.8999  -16.3590   19.7608 N   0  0  0  0  0  0  0  0  0  0  0  0
  -26.3249  -21.2107   18.7689 N   0  0  0  0  0  0  0  0  0  0  0  0
  -26.1230  -34.0421   21.1166 N   0  0  0  0  0  0  0  0  0  0  0  0
  -23.0617  -29.9243   25.2041 N   0  0  0  0  0  0  0  0  0  0  0  0
  -20.9018  -27.1054   24.5287 N   0  3  0  0  0  0  0  0  0  0  0  0
  -25.2989   -8.6333   16.5157 O   0  0  0  0  0  0  0  0  0  0  0  0
  -23.9222  -15.8560   18.9848 O   0  0  0  0  0  0  0  0  0  0  0  0
  -28.5615  -21.6170   19.3477 O   0  0  0  0  0  0  0  0  0  0  0  0
  -27.2038  -32.1964   22.0372 O   0  0  0  0  0  0  0  0  0  0  0  0
  -23.4870  -32.4051   23.8354 O   0  0  0  0  0  0  0  0  0  0  0  0
  -23.6387  -27.7389   24.6862 O   0  0  0  0  0  0  0  0  0  0  0  0
  -29.1003  -16.8743   20.2849 O   0  0  0  0  0  0  0  0  0  0  0  0
  -24.9886  -19.2442   18.7150 O   0  0  0  0  0  0  0  0  0  0  0  0
  -29.3933  -24.1524   19.1673 O   0  0  0  0  0  0  0  0  0  0  0  0
  -21.6426   -7.6028   23.3095 O   0  0  0  0  0  0  0  0  0  0  0  0
  -27.9986  -26.6288   19.5764 O   0  0  0  0  0  0  0  0  0  1  0  0
  -21.3889   -2.0952   23.2348 F   0  0  0  0  0  0  0  0  0  0  0  0
  -22.1473   -6.1287   25.5931 F   0  0  0  0  0  0  0  0  0  0  0  0
  1  2  1  0  0  0  0
  1  5  2  0  0  0  0
  2  6  2  0  0  0  0
  3  8  2  0  0  0  0
  3 16  1  0  0  0  0
  4  9  1  0  0  0  0
  4 16  2  0  0  0  0
  5 18  1  0  0  0  0
  6 20  1  0  0  0  0
  7 10  2  0  0  0  0
  7 19  1  0  0  0  0
  8 23  1  0  0  0  0
  9 23  2  0  0  0  0
 10 24  1  0  0  0  0
 11 12  2  0  0  0  0
 11 25  1  0  0  0  0
 12 26  1  0  0  0  0
 13 21  1  0  0  0  0
 13 24  2  0  0  0  0
 14 22  1  0  0  0  0
 14 31  2  0  0  0  0
 15 26  2  0  0  0  0
 15 27  1  0  0  0  0
 16 28  1  0  0  0  0
 17 28  1  0  0  0  0
 17 30  2  0  0  0  0
 17 33  1  0  0  0  0
 18 20  2  0  0  0  0
 18 41  1  0  0  0  0
 19 21  2  0  0  0  0
 19 42  1  0  0  0  0
 20 50  1  0  0  0  0
 21 43  1  0  0  0  0
 22 29  2  0  0  0  0
 22 69  1  0  0  0  0
 23 83  1  0  0  0  0
 24 84  1  0  0  0  0
 25 27  2  0  0  0  0
 25 83  1  0  0  0  0
 26 85  1  0  0  0  0
 27 86  1  0  0  0  0
 28 63  2  0  0  0  0
 29 34  1  0  0  0  0
 29 81  1  0  0  0  0
 30 64  1  0  0  0  0
 30 67  1  0  0  0  0
 31 70  1  0  0  0  0
 31 81  1  0  0  0  0
 32 35  2  0  0  0  0
 32 36  1  0  0  0  0
 33 68  1  0  0  0  0
 33 74  2  0  0  0  0
 34 53  1  0  0  0  0
 34 75  2  0  0  0  0
 35 59  1  0  0  0  0
 35 82  1  0  0  0  0
 36 70  1  0  0  0  0
 36 76  2  0  0  0  0
 37 51  1  0  0  0  0
 37 71  1  0  0  0  0
 37 77  2  0  0  0  0
 38 60  1  0  0  0  0
 38 65  1  0  0  0  0
 38 78  2  0  0  0  0
 39 61  1  0  0  0  0
 39 72  1  0  0  0  0
 39 79  2  0  0  0  0
 40 66  1  0  0  0  0
 40 69  1  0  0  0  0
 40 80  2  0  0  0  0
 41 44  1  0  0  0  0
 42 51  1  0  0  0  0
 43 65  1  0  0  0  0
 44 46  1  0  0  0  0
 45 47  1  0  0  0  0
 45 48  1  0  0  0  0
 46 50  1  0  0  0  0
 47 52  1  0  0  0  0
 48 66  1  0  0  0  0
 49 52  1  0  0  0  0
 49 66  1  0  0  0  0
 50 71  1  0  0  0  0
 51 65  1  0  0  0  0
 52 64  1  0  0  0  0
 54 61  1  0  0  0  0
 55 62  1  0  0  0  0
 56 62  1  0  0  0  0
 57 62  1  0  0  0  0
 58 73  1  0  0  0  0
 59 84  1  0  0  0  0
 60 62  1  0  0  0  0
 60 72  1  0  0  0  0
 61 73  1  0  0  0  0
 63 64  1  0  0  0  0
M  CHG  1  73   1
M  ISO  4  40 100  59 101  69 100  84 101
M  END
> <Batch ID>
0149

> <Smiles>
CNC(C)C(=O)NC(C(=O)N1Cc2cc([101O:1][101CH2:1]C(=O)CC(=O)Nc3cc([100NH:0][100C:0](=O)N4CCCC(n5nc(-c6ccc(Oc7ccc(F)cc7F)cc6)c(C(N)=O)c5N)C4)c(C(C)=O)o3)ccc2CC1C(=O)NC1CCCc2ccccc21)C(C)(C)C

> <Shape>
0.269

> <Color>
0.105

> <Negative vol penalty>
0.000

$$$$

  -OEChem-04052303193D

 85 93  0     1  0  0  0  0  0999 V2000
  -29.6501  -36.1277   21.4138 C   0  0  0  0  0  0  0  0  0  0  0  0
  -29.7098  -34.7388   21.3604 C   0  0  0  0  0  0  0  0  0  0  0  0
  -23.8556   -9.4908   22.4284 C   0  0  0  0  0  0  0  0  0  0  0  0
  -23.2568   -9.9914   20.1419 C   0  0  0  0  0  0  0  0  0  0  0  0
  -28.6446  -36.7532   22.1498 C   0  0  0  0  0  0  0  0  0  0  0  0
  -28.7648  -33.9746   22.0439 C   0  0  0  0  0  0  0  0  0  0  0  0
  -26.9726  -30.1488   19.2516 C   0  0  0  0  0  0  0  0  0  0  0  0
  -23.0293   -8.3674   22.3988 C   0  0  0  0  0  0  0  0  0  0  0  0
  -22.4305   -8.8679   20.1123 C   0  0  0  0  0  0  0  0  0  0  0  0
  -27.7816  -29.0206   19.1234 C   0  0  0  0  0  0  0  0  0  0  0  0
  -23.1617   -5.2088   21.1993 C   0  0  0  0  0  0  0  0  0  0  0  0
  -23.6645   -4.0203   21.7286 C   0  0  0  0  0  0  0  0  0  0  0  0
  -26.4817  -27.9031   20.8206 C   0  0  0  0  0  0  0  0  0  0  0  0
  -21.8619   -3.9739   23.3366 C   0  0  0  0  0  0  0  0  0  0  0  0
  -23.9692  -10.3028   21.3000 C   0  0  0  0  0  0  0  0  0  0  0  0
  -26.1858  -11.5259   20.9863 C   0  0  0  0  0  0  0  0  0  0  0  0
  -27.6810  -35.9963   22.8348 C   0  0  0  0  0  0  0  0  0  0  0  0
  -25.9171  -30.1666   20.1746 C   0  0  0  0  0  0  0  0  0  0  0  0
  -27.7462  -34.5905   22.7908 C   0  0  0  0  0  0  0  0  0  0  0  0
  -25.6592  -29.0318   20.9568 C   0  0  0  0  0  0  0  0  0  0  0  0
  -22.3169   -8.0559   21.2408 C   0  0  0  0  0  0  0  0  0  0  0  0
  -27.5380  -27.8986   19.9100 C   0  0  0  0  0  0  0  0  0  0  0  0
  -22.0091   -5.7800   21.7387 C   0  0  0  0  0  0  0  0  0  0  0  0
  -23.0146   -3.4028   22.7972 C   0  0  0  0  0  0  0  0  0  0  0  0
  -21.3592   -5.1625   22.8073 C   0  0  0  0  0  0  0  0  0  0  0  0
  -24.8221  -11.4638   21.3301 C   0  0  0  0  0  0  0  0  0  0  0  0
  -27.3617  -18.7971   19.0645 C   0  0  0  0  0  0  0  0  0  0  0  0
  -26.5300  -12.8409   21.1832 C   0  0  0  0  0  0  0  0  0  0  0  0
  -28.2966  -18.3748   18.1427 C   0  0  0  0  0  0  0  0  0  0  0  0
  -28.2830  -20.7365   18.6171 C   0  0  0  0  0  0  0  0  0  0  0  0
  -27.0631  -10.4878   20.5298 C   0  0  0  0  0  0  0  0  0  0  0  0
  -25.2117  -31.9023   22.7424 C   0  0  0  0  0  0  0  0  0  0  0  0
  -28.3884  -24.4334   19.2525 C   0  0  0  0  0  0  0  0  0  0  0  0
  -22.4350  -30.2290   22.6300 C   0  0  0  0  0  0  0  0  0  0  0  0
  -29.5892  -16.7950   16.6738 C   0  0  0  0  0  0  0  0  0  0  0  0
  -20.7858  -27.4170   21.6204 C   0  0  0  0  0  0  0  0  0  0  0  0
  -25.4773  -18.2830   20.6554 C   0  0  0  0  0  0  0  0  0  0  0  0
  -26.6411  -36.7169   23.6558 C   0  0  0  0  0  0  0  0  0  0  0  0
  -25.0370  -31.3817   20.2818 C   0  0  0  0  0  0  0  0  0  0  0  0
  -24.5260  -28.9928   21.9481 C   0  0  0  0  0  0  0  0  0  0  0  0
  -25.4557  -35.8374   24.0452 C   0  0  0  0  0  0  0  0  0  0  0  0
  -24.0006  -16.6071   23.4282 C   0  0  0  0  0  0  0  0  0  0  0  0
  -25.9406  -34.4908   24.5728 C   0  0  0  0  0  0  0  0  0  0  0  0
  -24.1949  -15.1247   23.1012 C   0  0  0  0  0  0  0  0  0  0  0  0
  -23.7060  -17.4303   22.1754 C   0  0  0  0  0  0  0  0  0  0  0  0
  -24.8692  -15.7859   20.7570 C   0  0  0  0  0  0  0  0  0  0  0  0
  -26.7245  -33.7272   23.4986 C   0  0  1  0  0  0  0  0  0  0  0  0
  -24.3091  -31.4762   21.6192 C   0  0  1  0  0  0  0  0  0  0  0  0
  -25.2326  -14.9265   21.9789 C   0  0  2  0  0  0  0  0  0  0  0  0
  -29.6068  -15.3179   16.3700 C   0  0  0  0  0  0  0  0  0  0  0  0
  -18.5323  -26.3164   21.7082 C   0  0  0  0  0  0  0  0  0  0  0  0
  -22.9285  -29.4564   25.5403 C   0  0  0  0  0  0  0  0  0  0  0  0
  -21.2174  -27.6477   25.2774 C   0  0  0  0  0  0  0  0  0  0  0  0
  -20.5561  -30.0372   25.0030 C   0  0  0  0  0  0  0  0  0  0  0  0
  -20.5345  -27.4327   18.6715 C   0  0  0  0  0  0  0  0  0  0  0  0
  -27.8383  -23.0395   19.4679 C   0  0  0  0  0  0  0  0  0  0  0  0
  -27.7223  -25.5321   20.0577 C   0  0  0  0  0  0  0  0  0  1  0  0
  -21.9494  -28.9232   23.2115 C   0  0  1  0  0  0  0  0  0  0  0  0
  -19.4551  -27.2283   20.9147 C   0  0  2  0  0  0  0  0  0  0  0  0
  -21.6855  -29.0172   24.7408 C   0  0  0  0  0  0  0  0  0  0  0  0
  -24.3333  -12.6453   21.7162 N   0  0  0  0  0  0  0  0  0  0  0  0
  -27.3527  -20.1510   19.3381 N   0  0  0  0  0  0  0  0  0  0  0  0
  -25.3958  -13.4622   21.6164 N   0  0  0  0  0  0  0  0  0  0  0  0
  -23.6976  -30.2077   22.0207 N   0  0  0  0  0  0  0  0  0  0  0  0
  -24.7326  -17.1950   21.1578 N   0  0  0  0  0  0  0  0  0  0  0  0
  -27.6892  -13.5148   21.0264 N   0  0  0  0  0  0  0  0  0  0  0  0
  -26.5465   -9.1933   20.3824 N   0  0  0  0  0  0  0  0  0  0  0  0
  -26.4471  -17.9332   19.7164 N   0  0  0  0  0  0  0  0  0  0  0  0
  -28.6006  -17.1455   17.6300 N   0  0  0  0  0  0  0  0  0  0  0  0
  -28.5509  -22.0976   18.6432 N   0  0  0  0  0  0  0  0  0  0  0  0
  -25.8187  -33.1275   22.5424 N   0  0  0  0  0  0  0  0  0  0  0  0
  -20.7824  -28.5357   22.4264 N   0  0  0  0  0  0  0  0  0  0  0  0
  -19.6640  -26.6279   19.5669 N   0  3  0  0  0  0  0  0  0  0  0  0
  -28.2734  -10.6983   20.2761 O   0  0  0  0  0  0  0  0  0  0  0  0
  -25.3462  -31.1742   23.7188 O   0  0  0  0  0  0  0  0  0  0  0  0
  -29.3141  -24.6709   18.4776 O   0  0  0  0  0  0  0  0  0  0  0  0
  -21.7174  -31.2293   22.7071 O   0  0  0  0  0  0  0  0  0  0  0  0
  -30.3745  -17.5591   16.1220 O   0  0  0  0  0  0  0  0  0  0  0  0
  -21.7324  -26.6467   21.4742 O   0  0  0  0  0  0  0  0  0  0  0  0
  -25.2885  -19.4363   21.0506 O   0  0  0  0  0  0  0  0  0  0  0  0
  -21.5107   -6.9596   21.2115 O   0  0  0  0  0  0  0  0  0  0  0  0
  -28.3265  -26.7963   19.7873 O   0  0  0  0  0  0  0  0  0  1  0  0
  -23.4967   -2.2607   23.3044 F   0  0  0  0  0  0  0  0  0  0  0  0
  -20.2508   -5.7059   23.3290 F   0  0  0  0  0  0  0  0  0  0  0  0
  -29.2055  -19.7192   17.5879 S   0  0  0  0  0  0  0  0  0  0  0  0
  1  2  1  0  0  0  0
  1  5  2  0  0  0  0
  2  6  2  0  0  0  0
  3  8  2  0  0  0  0
  3 15  1  0  0  0  0
  4  9  1  0  0  0  0
  4 15  2  0  0  0  0
  5 17  1  0  0  0  0
  6 19  1  0  0  0  0
  7 10  2  0  0  0  0
  7 18  1  0  0  0  0
  8 21  1  0  0  0  0
  9 21  2  0  0  0  0
 10 22  1  0  0  0  0
 11 12  2  0  0  0  0
 11 23  1  0  0  0  0
 12 24  1  0  0  0  0
 13 20  1  0  0  0  0
 13 22  2  0  0  0  0
 14 24  2  0  0  0  0
 14 25  1  0  0  0  0
 15 26  1  0  0  0  0
 16 26  1  0  0  0  0
 16 28  2  0  0  0  0
 16 31  1  0  0  0  0
 17 19  2  0  0  0  0
 17 38  1  0  0  0  0
 18 20  2  0  0  0  0
 18 39  1  0  0  0  0
 19 47  1  0  0  0  0
 20 40  1  0  0  0  0
 21 81  1  0  0  0  0
 22 82  1  0  0  0  0
 23 25  2  0  0  0  0
 23 81  1  0  0  0  0
 24 83  1  0  0  0  0
 25 84  1  0  0  0  0
 26 61  2  0  0  0  0
 27 29  2  0  0  0  0
 27 62  1  0  0  0  0
 27 68  1  0  0  0  0
 28 63  1  0  0  0  0
 28 66  1  0  0  0  0
 29 69  1  0  0  0  0
 29 85  1  0  0  0  0
 30 62  2  0  0  0  0
 30 70  1  0  0  0  0
 30 85  1  0  0  0  0
 31 67  1  0  0  0  0
 31 74  2  0  0  0  0
 32 48  1  0  0  0  0
 32 71  1  0  0  0  0
 32 75  2  0  0  0  0
 33 56  1  0  0  0  0
 33 57  1  0  0  0  0
 33 76  2  0  0  0  0
 34 58  1  0  0  0  0
 34 64  1  0  0  0  0
 34 77  2  0  0  0  0
 35 50  1  0  0  0  0
 35 69  1  0  0  0  0
 35 78  2  0  0  0  0
 36 59  1  0  0  0  0
 36 72  1  0  0  0  0
 36 79  2  0  0  0  0
 37 65  1  0  0  0  0
 37 68  1  0  0  0  0
 37 80  2  0  0  0  0
 38 41  1  0  0  0  0
 39 48  1  0  0  0  0
 40 64  1  0  0  0  0
 41 43  1  0  0  0  0
 42 44  1  0  0  0  0
 42 45  1  0  0  0  0
 43 47  1  0  0  0  0
 44 49  1  0  0  0  0
 45 65  1  0  0  0  0
 46 49  1  0  0  0  0
 46 65  1  0  0  0  0
 47 71  1  0  0  0  0
 48 64  1  0  0  0  0
 49 63  1  0  0  0  0
 51 59  1  0  0  0  0
 52 60  1  0  0  0  0
 53 60  1  0  0  0  0
 54 60  1  0  0  0  0
 55 73  1  0  0  0  0
 56 70  1  0  0  0  0
 57 82  1  0  0  0  0
 58 60  1  0  0  0  0
 58 72  1  0  0  0  0
 59 73  1  0  0  0  0
 61 63  1  0  0  0  0
M  CHG  1  73   1
M  ISO  4  37 100  57 101  68 100  82 101
M  END
> <Batch ID>
0149

> <Smiles>
CNC(C)C(=O)NC(C(=O)N1Cc2cc([101O:1][101CH2:1]C(=O)CNc3nc([100NH:0][100C:0](=O)N4CCCC(n5nc(-c6ccc(Oc7ccc(F)cc7F)cc6)c(C(N)=O)c5N)C4)c(NC(C)=O)s3)ccc2CC1C(=O)NC1CCCc2ccccc21)C(C)(C)C

> <Shape>
0.305

> <Color>
0.098

> <Negative vol penalty>
0.000

$$$$

  -OEChem-04052303193D

 83 91  0     1  0  0  0  0  0999 V2000
  -20.6034  -34.2879   23.9821 C   0  0  0  0  0  0  0  0  0  0  0  0
  -21.8554  -33.8211   23.5947 C   0  0  0  0  0  0  0  0  0  0  0  0
  -25.0346  -12.6552   22.0521 C   0  0  0  0  0  0  0  0  0  0  0  0
  -25.1396  -12.1797   19.6856 C   0  0  0  0  0  0  0  0  0  0  0  0
  -19.6088  -33.3849   24.3552 C   0  0  0  0  0  0  0  0  0  0  0  0
  -22.1138  -32.4509   23.5812 C   0  0  0  0  0  0  0  0  0  0  0  0
  -25.6891  -29.4174   19.6416 C   0  0  0  0  0  0  0  0  0  0  0  0
  -24.2769  -11.5010   22.2504 C   0  0  0  0  0  0  0  0  0  0  0  0
  -24.3819  -11.0255   19.8840 C   0  0  0  0  0  0  0  0  0  0  0  0
  -27.0054  -28.9656   19.7259 C   0  0  0  0  0  0  0  0  0  0  0  0
  -24.8233   -8.1725   22.4860 C   0  0  0  0  0  0  0  0  0  0  0  0
  -25.1668   -7.3477   23.5570 C   0  0  0  0  0  0  0  0  0  0  0  0
  -26.2092  -26.7897   20.3972 C   0  0  0  0  0  0  0  0  0  0  0  0
  -22.9662   -7.6607   24.5039 C   0  0  0  0  0  0  0  0  0  0  0  0
  -25.4659  -12.9946   20.7697 C   0  0  0  0  0  0  0  0  0  0  0  0
  -27.6507  -14.3009   20.6033 C   0  0  0  0  0  0  0  0  0  0  0  0
  -19.8521  -32.0025   24.3370 C   0  0  0  0  0  0  0  0  0  0  0  0
  -24.6216  -28.5603   19.9455 C   0  0  0  0  0  0  0  0  0  0  0  0
  -21.1219  -31.5286   23.9557 C   0  0  0  0  0  0  0  0  0  0  0  0
  -24.8802  -27.2323   20.3135 C   0  0  0  0  0  0  0  0  0  0  0  0
  -23.9506  -10.6861   21.1664 C   0  0  0  0  0  0  0  0  0  0  0  0
  -27.2657  -27.6524   20.1065 C   0  0  0  0  0  0  0  0  0  0  0  0
  -23.5512   -8.7416   22.4239 C   0  0  0  0  0  0  0  0  0  0  0  0
  -24.2383   -7.0917   24.5660 C   0  0  0  0  0  0  0  0  0  0  0  0
  -22.6227   -8.4856   23.4329 C   0  0  0  0  0  0  0  0  0  0  0  0
  -26.2481  -14.1871   20.5641 C   0  0  0  0  0  0  0  0  0  0  0  0
  -29.9986  -21.3090   17.1248 C   0  0  0  0  0  0  0  0  0  0  0  0
  -27.8948  -15.6280   20.3466 C   0  0  0  0  0  0  0  0  0  0  0  0
  -31.0689  -20.7663   17.8046 C   0  0  0  0  0  0  0  0  0  0  0  0
  -30.7056  -23.1252   18.1305 C   0  0  0  0  0  0  0  0  0  0  0  0
  -28.6442  -13.2969   20.8495 C   0  0  0  0  0  0  0  0  0  0  0  0
  -22.3061  -28.5466   22.1232 C   0  0  0  0  0  0  0  0  0  0  0  0
  -21.2701  -25.9753   20.4386 C   0  0  0  0  0  0  0  0  0  0  0  0
  -30.0783  -25.5601   18.2777 C   0  0  0  0  0  0  0  0  0  0  0  0
  -22.0190  -23.4060   18.3209 C   0  0  0  0  0  0  0  0  0  0  0  0
  -26.9163  -20.2794   17.4221 C   0  0  0  0  0  0  0  0  0  0  0  0
  -18.7607  -31.0673   24.7941 C   0  0  0  0  0  0  0  0  0  0  0  0
  -23.2064  -29.0553   19.8239 C   0  0  0  0  0  0  0  0  0  0  0  0
  -23.7689  -26.2664   20.6306 C   0  0  0  0  0  0  0  0  0  0  0  0
  -18.9969  -29.6134   24.3932 C   0  0  0  0  0  0  0  0  0  0  0  0
  -24.7409  -19.5779   20.1520 C   0  0  0  0  0  0  0  0  0  0  0  0
  -20.4330  -29.2014   24.7009 C   0  0  0  0  0  0  0  0  0  0  0  0
  -25.0504  -18.1211   20.5013 C   0  0  0  0  0  0  0  0  0  0  0  0
  -24.8115  -19.8245   18.6466 C   0  0  0  0  0  0  0  0  0  0  0  0
  -26.3828  -17.9479   18.3581 C   0  0  0  0  0  0  0  0  0  0  0  0
  -21.4327  -30.0484   23.9043 C   0  0  1  0  0  0  0  0  0  0  0  0
  -22.2163  -28.2442   20.6541 C   0  0  1  0  0  0  0  0  0  0  0  0
  -26.3787  -17.6630   19.8698 C   0  0  2  0  0  0  0  0  0  0  0  0
  -20.9717  -21.4482   17.1513 C   0  0  0  0  0  0  0  0  0  0  0  0
  -21.2505  -24.4205   23.0639 C   0  0  0  0  0  0  0  0  0  0  0  0
  -21.1342  -22.3052   21.7296 C   0  0  0  0  0  0  0  0  0  0  0  0
  -19.2905  -23.9783   21.5749 C   0  0  0  0  0  0  0  0  0  0  0  0
  -22.6837  -24.4971   15.6514 C   0  0  0  0  0  0  0  0  0  0  0  0
  -29.0721  -20.5826   16.2306 C   0  0  0  0  0  0  0  0  0  0  0  0
  -30.5972  -26.8026   18.9924 C   0  0  0  0  0  0  0  0  0  0  0  0
  -29.5022  -27.8087   19.3131 C   0  0  0  0  0  0  0  0  0  1  0  0
  -21.5200  -24.4876   20.4970 C   0  0  1  0  0  0  0  0  0  0  0  0
  -21.3457  -22.9189   17.0505 C   0  0  2  0  0  0  0  0  0  0  0  0
  -20.8200  -23.8164   21.7123 C   0  0  0  0  0  0  0  0  0  0  0  0
  -25.6435  -15.3492   20.3033 N   0  0  0  0  0  0  0  0  0  0  0  0
  -29.7885  -22.6614   17.3108 N   0  0  0  0  0  0  0  0  0  0  0  0
  -26.6712  -16.2059   20.1763 N   0  0  0  0  0  0  0  0  0  0  0  0
  -22.4025  -26.7996   20.5034 N   0  0  0  0  0  0  0  0  0  0  0  0
  -26.0965  -19.3696   18.1101 N   0  0  0  0  0  0  0  0  0  0  0  0
  -29.0345  -16.3452   20.2523 N   0  0  0  0  0  0  0  0  0  0  0  0
  -31.4953  -19.4800   17.8022 N   0  0  0  0  0  0  0  0  0  0  0  0
  -28.2204  -11.9838   21.0953 N   0  0  0  0  0  0  0  0  0  0  0  0
  -30.8628  -24.4537   18.5923 N   0  0  0  0  0  0  0  0  0  0  0  0
  -21.5011  -29.5925   22.5325 N   0  0  0  0  0  0  0  0  0  0  0  0
  -21.1111  -23.9539   19.2023 N   0  0  0  0  0  0  0  0  0  0  0  0
  -28.1197  -19.7681   16.9519 N   0  0  0  0  0  0  0  0  0  0  0  0
  -22.2548  -23.0937   15.8827 N   0  3  0  0  0  0  0  0  0  0  0  0
  -29.8706  -13.5597   20.8678 O   0  0  0  0  0  0  0  0  0  0  0  0
  -23.0495  -27.8793   22.8330 O   0  0  0  0  0  0  0  0  0  0  0  0
  -20.1135  -26.3905   20.3320 O   0  0  0  0  0  0  0  0  0  0  0  0
  -29.0999  -25.5928   17.5388 O   0  0  0  0  0  0  0  0  0  0  0  0
  -23.2287  -23.3067   18.5138 O   0  0  0  0  0  0  0  0  0  0  0  0
  -26.6017  -21.4612   17.2451 O   0  0  0  0  0  0  0  0  0  0  0  0
  -23.2115   -9.5597   21.3595 O   0  0  0  0  0  0  0  0  0  0  0  0
  -28.5496  -27.2091   20.1902 O   0  0  0  0  0  0  0  0  0  1  0  0
  -24.5678   -6.2983   25.5937 F   0  0  0  0  0  0  0  0  0  0  0  0
  -21.3988   -9.0285   23.3781 F   0  0  0  0  0  0  0  0  0  0  0  0
  -31.8523  -21.9903   18.7153 S   0  0  0  0  0  0  0  0  0  0  0  0
  1  2  1  0  0  0  0
  1  5  2  0  0  0  0
  2  6  2  0  0  0  0
  3  8  2  0  0  0  0
  3 15  1  0  0  0  0
  4  9  1  0  0  0  0
  4 15  2  0  0  0  0
  5 17  1  0  0  0  0
  6 19  1  0  0  0  0
  7 10  2  0  0  0  0
  7 18  1  0  0  0  0
  8 21  1  0  0  0  0
  9 21  2  0  0  0  0
 10 22  1  0  0  0  0
 11 12  2  0  0  0  0
 11 23  1  0  0  0  0
 12 24  1  0  0  0  0
 13 20  1  0  0  0  0
 13 22  2  0  0  0  0
 14 24  2  0  0  0  0
 14 25  1  0  0  0  0
 15 26  1  0  0  0  0
 16 26  1  0  0  0  0
 16 28  2  0  0  0  0
 16 31  1  0  0  0  0
 17 19  2  0  0  0  0
 17 37  1  0  0  0  0
 18 20  2  0  0  0  0
 18 38  1  0  0  0  0
 19 46  1  0  0  0  0
 20 39  1  0  0  0  0
 21 79  1  0  0  0  0
 22 80  1  0  0  0  0
 23 25  2  0  0  0  0
 23 79  1  0  0  0  0
 24 81  1  0  0  0  0
 25 82  1  0  0  0  0
 26 60  2  0  0  0  0
 27 29  2  0  0  0  0
 27 54  1  0  0  0  0
 27 61  1  0  0  0  0
 28 62  1  0  0  0  0
 28 65  1  0  0  0  0
 29 66  1  0  0  0  0
 29 83  1  0  0  0  0
 30 61  2  0  0  0  0
 30 68  1  0  0  0  0
 30 83  1  0  0  0  0
 31 67  1  0  0  0  0
 31 73  2  0  0  0  0
 32 47  1  0  0  0  0
 32 69  1  0  0  0  0
 32 74  2  0  0  0  0
 33 57  1  0  0  0  0
 33 63  1  0  0  0  0
 33 75  2  0  0  0  0
 34 55  1  0  0  0  0
 34 68  1  0  0  0  0
 34 76  2  0  0  0  0
 35 58  1  0  0  0  0
 35 70  1  0  0  0  0
 35 77  2  0  0  0  0
 36 64  1  0  0  0  0
 36 71  1  0  0  0  0
 36 78  2  0  0  0  0
 37 40  1  0  0  0  0
 38 47  1  0  0  0  0
 39 63  1  0  0  0  0
 40 42  1  0  0  0  0
 41 43  1  0  0  0  0
 41 44  1  0  0  0  0
 42 46  1  0  0  0  0
 43 48  1  0  0  0  0
 44 64  1  0  0  0  0
 45 48  1  0  0  0  0
 45 64  1  0  0  0  0
 46 69  1  0  0  0  0
 47 63  1  0  0  0  0
 48 62  1  0  0  0  0
 49 58  1  0  0  0  0
 50 59  1  0  0  0  0
 51 59  1  0  0  0  0
 52 59  1  0  0  0  0
 53 72  1  0  0  0  0
 54 71  1  0  0  0  0
 55 56  1  0  0  0  0
 56 80  1  0  0  0  0
 57 59  1  0  0  0  0
 57 70  1  0  0  0  0
 58 72  1  0  0  0  0
 60 62  1  0  0  0  0
M  CHG  1  72   1
M  ISO  4  36 100  56 101  71 100  80 101
M  END
> <Batch ID>
0149

> <Smiles>
CNC(C)C(=O)NC(C(=O)N1Cc2cc([101O:1][101CH2:1]CC(=O)Nc3nc(C[100NH:0][100C:0](=O)N4CCCC(n5nc(-c6ccc(Oc7ccc(F)cc7F)cc6)c(C(N)=O)c5N)C4)c(N)s3)ccc2CC1C(=O)NC1CCCc2ccccc21)C(C)(C)C

> <Shape>
0.222

> <Color>
0.078

> <Negative vol penalty>
0.000

$$$$

  -OEChem-04052303193D

 86 95  0     1  0  0  0  0  0999 V2000
  -34.8993  -31.9595   26.3625 C   0  0  0  0  0  0  0  0  0  0  0  0
  -34.4415  -30.7785   25.7872 C   0  0  0  0  0  0  0  0  0  0  0  0
  -23.0816   -9.8654   19.9420 C   0  0  0  0  0  0  0  0  0  0  0  0
  -23.8385   -9.8787   22.2363 C   0  0  0  0  0  0  0  0  0  0  0  0
  -34.0074  -33.0001   26.6189 C   0  0  0  0  0  0  0  0  0  0  0  0
  -33.0913  -30.6368   25.4690 C   0  0  0  0  0  0  0  0  0  0  0  0
  -30.7304  -27.5882   20.7111 C   0  0  0  0  0  0  0  0  0  0  0  0
  -22.3397   -8.7113   20.1934 C   0  0  0  0  0  0  0  0  0  0  0  0
  -23.0965   -8.7246   22.4878 C   0  0  0  0  0  0  0  0  0  0  0  0
  -30.1825  -26.3116   20.5936 C   0  0  0  0  0  0  0  0  0  0  0  0
  -19.8692   -7.9218   23.0878 C   0  0  0  0  0  0  0  0  0  0  0  0
  -19.1108   -7.8829   24.2578 C   0  0  0  0  0  0  0  0  0  0  0  0
  -30.9023  -19.3026   21.0550 C   0  0  0  0  0  0  0  0  0  0  0  0
  -31.0526  -17.9272   20.7146 C   0  0  0  0  0  0  0  0  0  0  0  0
  -27.9729  -27.2418   20.8609 C   0  0  0  0  0  0  0  0  0  0  0  0
  -20.3550   -5.9494   25.0000 C   0  0  0  0  0  0  0  0  0  0  0  0
  -23.8311  -10.4491   20.9634 C   0  0  0  0  0  0  0  0  0  0  0  0
  -24.1681  -12.9746   20.8385 C   0  0  0  0  0  0  0  0  0  0  0  0
  -32.6473  -32.8748   26.2948 C   0  0  0  0  0  0  0  0  0  0  0  0
  -29.9030  -28.7018   20.9156 C   0  0  0  0  0  0  0  0  0  0  0  0
  -32.1801  -31.6762   25.7226 C   0  0  0  0  0  0  0  0  0  0  0  0
  -28.5125  -28.5318   20.9780 C   0  0  0  0  0  0  0  0  0  0  0  0
  -22.3471   -8.1410   21.4663 C   0  0  0  0  0  0  0  0  0  0  0  0
  -28.8038  -26.1378   20.6714 C   0  0  0  0  0  0  0  0  0  0  0  0
  -20.8704   -6.9745   22.8738 C   0  0  0  0  0  0  0  0  0  0  0  0
  -19.3537   -6.8967   25.2139 C   0  0  0  0  0  0  0  0  0  0  0  0
  -21.1134   -5.9883   23.8299 C   0  0  0  0  0  0  0  0  0  0  0  0
  -24.5982  -11.6409   20.7041 C   0  0  0  0  0  0  0  0  0  0  0  0
  -29.9815  -19.4888   22.0624 C   0  0  0  0  0  0  0  0  0  0  0  0
  -25.2593  -13.7255   20.4750 C   0  0  0  0  0  0  0  0  0  0  0  0
  -30.2409  -17.1144   21.4752 C   0  0  0  0  0  0  0  0  0  0  0  0
  -28.1498  -22.7732   22.5162 C   0  0  0  0  0  0  0  0  0  0  0  0
  -22.8961  -13.4888   21.2547 C   0  0  0  0  0  0  0  0  0  0  0  0
  -29.6181  -20.8029   22.6221 C   0  0  0  0  0  0  0  0  0  0  0  0
  -29.5834  -30.8655   23.2221 C   0  0  0  0  0  0  0  0  0  0  0  0
  -27.5066  -32.2188   21.1297 C   0  0  0  0  0  0  0  0  0  0  0  0
  -25.4025  -31.8249   18.4719 C   0  0  0  0  0  0  0  0  0  0  0  0
  -30.7233  -14.7820   20.6546 C   0  0  0  0  0  0  0  0  0  0  0  0
  -31.7127  -34.0088   26.6343 C   0  0  0  0  0  0  0  0  0  0  0  0
  -30.5077  -30.0755   21.0135 C   0  0  0  0  0  0  0  0  0  0  0  0
  -27.5793  -29.6973   21.1762 C   0  0  0  0  0  0  0  0  0  0  0  0
  -30.3649  -33.9211   25.9228 C   0  0  0  0  0  0  0  0  0  0  0  0
  -29.6166  -12.3612   18.2899 C   0  0  0  0  0  0  0  0  0  0  0  0
  -29.8000  -32.5076   26.0218 C   0  0  0  0  0  0  0  0  0  0  0  0
  -28.1769  -12.0677   18.7182 C   0  0  0  0  0  0  0  0  0  0  0  0
  -27.1988  -22.2598   20.4076 C   0  0  0  0  0  0  0  0  0  0  0  0
  -30.5297  -12.5942   19.4923 C   0  0  0  0  0  0  0  0  0  0  0  0
  -27.8385  -20.9843   20.9460 C   0  0  0  0  0  0  0  0  0  0  0  0
  -28.6196  -13.3178   20.8696 C   0  0  0  0  0  0  0  0  0  0  0  0
  -30.7272  -31.4940   25.3404 C   0  0  1  0  0  0  0  0  0  0  0  0
  -29.6077  -31.0745   21.7343 C   0  0  1  0  0  0  0  0  0  0  0  0
  -27.6486  -13.1403   19.6909 C   0  0  2  0  0  0  0  0  0  0  0  0
  -26.9818  -23.1689   21.6340 C   0  0  1  0  0  0  0  0  0  0  0  0
  -25.6747  -22.8469   22.3598 C   0  0  0  0  0  0  0  0  0  0  0  0
  -23.8147  -33.1050   17.0097 C   0  0  0  0  0  0  0  0  0  0  0  0
  -25.4333  -32.1993   23.3682 C   0  0  0  0  0  0  0  0  0  0  0  0
  -23.6637  -32.5774   21.6380 C   0  0  0  0  0  0  0  0  0  0  0  0
  -25.4529  -34.2811   21.9826 C   0  0  0  0  0  0  0  0  0  0  0  0
  -26.9893  -31.2445   16.0421 C   0  0  0  0  0  0  0  0  0  0  0  0
  -27.0472  -24.6453   21.2567 C   0  0  0  0  0  0  0  0  0  1  0  0
  -26.0272  -32.0908   20.8579 C   0  0  1  0  0  0  0  0  0  0  0  0
  -25.2441  -32.6168   17.1865 C   0  0  2  0  0  0  0  0  0  0  0  0
  -25.1617  -32.7648   21.9599 C   0  0  0  0  0  0  0  0  0  0  0  0
  -25.8638  -11.5467   20.2877 N   0  0  0  0  0  0  0  0  0  0  0  0
  -26.2383  -12.8307   20.1571 N   0  0  0  0  0  0  0  0  0  0  0  0
  -28.6214  -21.4840   22.0849 N   0  0  0  0  0  0  0  0  0  0  0  0
  -28.2191  -31.0197   21.2727 N   0  0  0  0  0  0  0  0  0  0  0  0
  -29.9676  -13.6258   20.3668 N   0  0  0  0  0  0  0  0  0  0  0  0
  -25.4672  -15.0572   20.3994 N   0  0  0  0  0  0  0  0  0  0  0  0
  -21.8855  -12.5784   21.5925 N   0  0  0  0  0  0  0  0  0  0  0  0
  -30.0730  -15.7075   21.4703 N   0  0  0  0  0  0  0  0  0  0  0  0
  -30.5704  -31.5523   23.9029 N   0  0  0  0  0  0  0  0  0  0  0  0
  -25.8106  -32.6253   19.5179 N   0  0  0  0  0  0  0  0  0  0  0  0
  -30.2978  -21.2817   23.6599 N   0  3  0  0  0  0  0  0  0  0  0  0
  -25.6014  -31.7733   16.0110 N   0  3  0  0  0  0  0  0  0  0  0  0
  -28.6247  -23.3793   23.4604 O   0  0  0  0  0  0  0  0  0  0  0  0
  -22.6574  -14.7191   21.3091 O   0  0  0  0  0  0  0  0  0  0  0  0
  -28.7312  -30.1363   23.7159 O   0  0  0  0  0  0  0  0  0  0  0  0
  -28.0128  -33.3412   21.2050 O   0  0  0  0  0  0  0  0  0  0  0  0
  -25.1822  -30.6178   18.5419 O   0  0  0  0  0  0  0  0  0  0  0  0
  -31.8526  -14.9519   20.1881 O   0  0  0  0  0  0  0  0  0  0  0  0
  -21.6230   -7.0150   21.7121 O   0  0  0  0  0  0  0  0  0  0  0  0
  -28.2664  -24.8928   20.5577 O   0  0  0  0  0  0  0  0  0  1  0  0
  -18.6264   -6.8604   26.3381 F   0  0  0  0  0  0  0  0  0  0  0  0
  -22.0747   -5.0763   23.6305 F   0  0  0  0  0  0  0  0  0  0  0  0
  -29.3026  -18.0093   22.5938 S   0  0  0  0  0  0  0  0  0  0  0  0
  1  2  1  0  0  0  0
  1  5  2  0  0  0  0
  2  6  2  0  0  0  0
  3  8  2  0  0  0  0
  3 17  1  0  0  0  0
  4  9  1  0  0  0  0
  4 17  2  0  0  0  0
  5 19  1  0  0  0  0
  6 21  1  0  0  0  0
  7 10  2  0  0  0  0
  7 20  1  0  0  0  0
  8 23  1  0  0  0  0
  9 23  2  0  0  0  0
 10 24  1  0  0  0  0
 11 12  2  0  0  0  0
 11 25  1  0  0  0  0
 12 26  1  0  0  0  0
 13 14  1  0  0  0  0
 13 29  2  0  0  0  0
 14 31  2  0  0  0  0
 15 22  1  0  0  0  0
 15 24  2  0  0  0  0
 16 26  2  0  0  0  0
 16 27  1  0  0  0  0
 17 28  1  0  0  0  0
 18 28  1  0  0  0  0
 18 30  2  0  0  0  0
 18 33  1  0  0  0  0
 19 21  2  0  0  0  0
 19 39  1  0  0  0  0
 20 22  2  0  0  0  0
 20 40  1  0  0  0  0
 21 50  1  0  0  0  0
 22 41  1  0  0  0  0
 23 82  1  0  0  0  0
 24 83  1  0  0  0  0
 25 27  2  0  0  0  0
 25 82  1  0  0  0  0
 26 84  1  0  0  0  0
 27 85  1  0  0  0  0
 28 64  2  0  0  0  0
 29 34  1  0  0  0  0
 29 86  1  0  0  0  0
 30 65  1  0  0  0  0
 30 69  1  0  0  0  0
 31 71  1  0  0  0  0
 31 86  1  0  0  0  0
 32 53  1  0  0  0  0
 32 66  1  0  0  0  0
 32 76  2  0  0  0  0
 33 70  1  0  0  0  0
 33 77  2  0  0  0  0
 34 66  1  0  0  0  0
 34 74  2  0  0  0  0
 35 51  1  0  0  0  0
 35 72  1  0  0  0  0
 35 78  2  0  0  0  0
 36 61  1  0  0  0  0
 36 67  1  0  0  0  0
 36 79  2  0  0  0  0
 37 62  1  0  0  0  0
 37 73  1  0  0  0  0
 37 80  2  0  0  0  0
 38 68  1  0  0  0  0
 38 71  1  0  0  0  0
 38 81  2  0  0  0  0
 39 42  1  0  0  0  0
 40 51  1  0  0  0  0
 41 67  1  0  0  0  0
 42 44  1  0  0  0  0
 43 45  1  0  0  0  0
 43 47  1  0  0  0  0
 44 50  1  0  0  0  0
 45 52  1  0  0  0  0
 46 48  1  0  0  0  0
 46 53  1  0  0  0  0
 47 68  1  0  0  0  0
 48 66  1  0  0  0  0
 49 52  1  0  0  0  0
 49 68  1  0  0  0  0
 50 72  1  0  0  0  0
 51 67  1  0  0  0  0
 52 65  1  0  0  0  0
 53 54  1  0  0  0  0
 53 60  1  0  0  0  0
 55 62  1  0  0  0  0
 56 63  1  0  0  0  0
 57 63  1  0  0  0  0
 58 63  1  0  0  0  0
 59 75  1  0  0  0  0
 60 83  1  0  0  0  0
 61 63  1  0  0  0  0
 61 73  1  0  0  0  0
 62 75  1  0  0  0  0
 64 65  1  0  0  0  0
M  CHG  2  74   1  75   1
M  ISO  4  38 100  60 101  71 100  83 101
M  END
> <Batch ID>
0149

> <Smiles>
CNC(C)C(=O)NC(C(=O)N1Cc2cc([101O:1][101CH2:1]C3(C)CCN(C(=N)c4ccc([100NH:0][100C:0](=O)N5CCCC(n6nc(-c7ccc(Oc8ccc(F)cc8F)cc7)c(C(N)=O)c6N)C5)s4)C3=O)ccc2CC1C(=O)NC1CCCc2ccccc21)C(C)(C)C

> <Shape>
0.272

> <Color>
0.188

> <Negative vol penalty>
0.000

$$$$

  -OEChem-04052303193D

 83 92  0     1  0  0  0  0  0999 V2000
  -29.4809  -36.8165   24.2982 C   0  0  0  0  0  0  0  0  0  0  0  0
  -29.3627  -35.5053   23.8485 C   0  0  0  0  0  0  0  0  0  0  0  0
  -24.6230   -8.7333   21.2368 C   0  0  0  0  0  0  0  0  0  0  0  0
  -22.8449  -10.3101   20.8019 C   0  0  0  0  0  0  0  0  0  0  0  0
  -28.4263  -37.4136   24.9875 C   0  0  0  0  0  0  0  0  0  0  0  0
  -28.1900  -34.7901   24.0888 C   0  0  0  0  0  0  0  0  0  0  0  0
  -25.6022  -30.6234   20.4216 C   0  0  0  0  0  0  0  0  0  0  0  0
  -23.6826   -7.7142   21.3872 C   0  0  0  0  0  0  0  0  0  0  0  0
  -21.9044   -9.2911   20.9523 C   0  0  0  0  0  0  0  0  0  0  0  0
  -25.6343  -29.2296   20.4163 C   0  0  0  0  0  0  0  0  0  0  0  0
  -21.5377   -6.6361   23.7667 C   0  0  0  0  0  0  0  0  0  0  0  0
  -21.6903   -5.7690   24.8485 C   0  0  0  0  0  0  0  0  0  0  0  0
  -23.5531  -29.1830   21.6352 C   0  0  0  0  0  0  0  0  0  0  0  0
  -23.6982  -19.9069   21.3347 C   0  0  0  0  0  0  0  0  0  0  0  0
  -21.8797   -3.9027   23.3258 C   0  0  0  0  0  0  0  0  0  0  0  0
  -22.7557  -18.4511   19.7873 C   0  0  0  0  0  0  0  0  0  0  0  0
  -24.2042  -10.0313   20.9442 C   0  0  0  0  0  0  0  0  0  0  0  0
  -26.2210  -11.1450   19.8488 C   0  0  0  0  0  0  0  0  0  0  0  0
  -27.2364  -36.7086   25.2279 C   0  0  0  0  0  0  0  0  0  0  0  0
  -24.5492  -31.3087   21.0444 C   0  0  0  0  0  0  0  0  0  0  0  0
  -27.1189  -35.3779   24.7831 C   0  0  0  0  0  0  0  0  0  0  0  0
  -23.5087  -30.5856   21.6449 C   0  0  0  0  0  0  0  0  0  0  0  0
  -23.5706  -18.5584   20.8927 C   0  0  0  0  0  0  0  0  0  0  0  0
  -22.3233   -7.9931   21.2449 C   0  0  0  0  0  0  0  0  0  0  0  0
  -24.6111  -28.5092   21.0256 C   0  0  0  0  0  0  0  0  0  0  0  0
  -21.5561   -6.1366   22.4644 C   0  0  0  0  0  0  0  0  0  0  0  0
  -21.8613   -4.4023   24.6281 C   0  0  0  0  0  0  0  0  0  0  0  0
  -21.7271   -4.7699   22.2440 C   0  0  0  0  0  0  0  0  0  0  0  0
  -25.1752  -11.0845   20.7893 C   0  0  0  0  0  0  0  0  0  0  0  0
  -22.9759  -20.7791   20.5501 C   0  0  0  0  0  0  0  0  0  0  0  0
  -26.8518  -12.3361   20.1130 C   0  0  0  0  0  0  0  0  0  0  0  0
  -26.5891  -10.2084   18.8276 C   0  0  0  0  0  0  0  0  0  0  0  0
  -24.3247  -33.3447   23.4751 C   0  0  0  0  0  0  0  0  0  0  0  0
  -21.2264  -33.5240   22.5310 C   0  0  0  0  0  0  0  0  0  0  0  0
  -18.5991  -32.0580   20.9203 C   0  0  0  0  0  0  0  0  0  0  0  0
  -25.0369  -17.4498   22.6152 C   0  0  0  0  0  0  0  0  0  0  0  0
  -26.1418  -37.3803   26.0186 C   0  0  0  0  0  0  0  0  0  0  0  0
  -24.5156  -32.8123   21.0182 C   0  0  0  0  0  0  0  0  0  0  0  0
  -22.3453  -31.2736   22.3094 C   0  0  0  0  0  0  0  0  0  0  0  0
  -24.7904  -36.6796   25.9048 C   0  0  0  0  0  0  0  0  0  0  0  0
  -27.7355  -15.3922   23.6927 C   0  0  0  0  0  0  0  0  0  0  0  0
  -24.9522  -35.1742   26.0906 C   0  0  0  0  0  0  0  0  0  0  0  0
  -23.9429  -23.0322   19.9135 C   0  0  0  0  0  0  0  0  0  0  0  0
  -23.8042  -24.5469   20.0643 C   0  0  0  0  0  0  0  0  0  0  0  0
  -27.4837  -14.0614   22.9801 C   0  0  0  0  0  0  0  0  0  0  0  0
  -26.4314  -16.0574   24.1291 C   0  0  0  0  0  0  0  0  0  0  0  0
  -25.1822  -14.8954   22.3520 C   0  0  0  0  0  0  0  0  0  0  0  0
  -22.6754  -24.2133   22.2950 C   0  0  0  0  0  0  0  0  0  0  0  0
  -25.8534  -34.5778   25.0026 C   0  0  1  0  0  0  0  0  0  0  0  0
  -22.8481  -22.2811   20.6833 C   0  0  2  0  0  0  0  0  0  0  0  0
  -23.6586  -33.4102   22.1298 C   0  0  1  0  0  0  0  0  0  0  0  0
  -23.7684  -24.9666   21.5394 C   0  0  2  0  0  0  0  0  0  0  0  0
  -26.4629  -14.2191   21.8361 C   0  0  2  0  0  0  0  0  0  0  0  0
  -16.1845  -32.4298   20.3466 C   0  0  0  0  0  0  0  0  0  0  0  0
  -20.4431  -32.8507   25.4021 C   0  0  0  0  0  0  0  0  0  0  0  0
  -18.1443  -32.3060   24.5734 C   0  0  0  0  0  0  0  0  0  0  0  0
  -19.0414  -34.6204   24.3260 C   0  0  0  0  0  0  0  0  0  0  0  0
  -19.1556  -31.9693   18.0148 C   0  0  0  0  0  0  0  0  0  0  0  0
  -23.5594  -26.4743   21.6652 C   0  0  0  0  0  0  0  0  0  1  0  0
  -19.9613  -32.7719   22.8668 C   0  0  1  0  0  0  0  0  0  0  0  0
  -17.6248  -32.5943   19.8870 C   0  0  2  0  0  0  0  0  0  0  0  0
  -19.4203  -33.1240   24.2813 C   0  0  0  0  0  0  0  0  0  0  0  0
  -25.1405  -12.1521   21.5912 N   0  0  0  0  0  0  0  0  0  0  0  0
  -26.1723  -12.8946   21.1553 N   0  0  0  0  0  0  0  0  0  0  0  0
  -22.3610  -32.7450   22.2629 N   0  0  0  0  0  0  0  0  0  0  0  0
  -25.5152  -16.1772   22.9928 N   0  0  0  0  0  0  0  0  0  0  0  0
  -27.9161  -12.9496   19.5532 N   0  0  0  0  0  0  0  0  0  0  0  0
  -26.0130  -10.3444   17.5572 N   0  0  0  0  0  0  0  0  0  0  0  0
  -24.1986  -17.4433   21.5009 N   0  0  0  0  0  0  0  0  0  0  0  0
  -25.1218  -34.4364   23.7619 N   0  0  0  0  0  0  0  0  0  0  0  0
  -19.0237  -33.0460   21.7832 N   0  0  0  0  0  0  0  0  0  0  0  0
  -22.8759  -22.7427   22.1191 N   0  3  0  0  0  0  0  0  0  0  0  0
  -17.7911  -31.8719   18.5942 N   0  3  0  0  0  0  0  0  0  0  0  0
  -27.3923   -9.2686   19.0400 O   0  0  0  0  0  0  0  0  0  0  0  0
  -24.1286  -32.3762   24.1998 O   0  0  0  0  0  0  0  0  0  0  0  0
  -21.2070  -34.7570   22.5004 O   0  0  0  0  0  0  0  0  0  0  0  0
  -18.9457  -30.8795   20.9603 O   0  0  0  0  0  0  0  0  0  0  0  0
  -25.3698  -18.4733   23.2182 O   0  0  0  0  0  0  0  0  0  0  0  0
  -21.4053   -6.9989   21.3914 O   0  0  0  0  0  0  0  0  0  0  0  0
  -24.6403  -27.1487   21.0224 O   0  0  0  0  0  0  0  0  0  1  0  0
  -22.0093   -3.5699   25.6670 F   0  0  0  0  0  0  0  0  0  0  0  0
  -21.7468   -4.2843   20.9952 F   0  0  0  0  0  0  0  0  0  0  0  0
  -22.1483  -19.9720   19.2868 S   0  0  0  0  0  0  0  0  0  0  0  0
  1  2  1  0  0  0  0
  1  5  2  0  0  0  0
  2  6  2  0  0  0  0
  3  8  2  0  0  0  0
  3 17  1  0  0  0  0
  4  9  1  0  0  0  0
  4 17  2  0  0  0  0
  5 19  1  0  0  0  0
  6 21  1  0  0  0  0
  7 10  2  0  0  0  0
  7 20  1  0  0  0  0
  8 24  1  0  0  0  0
  9 24  2  0  0  0  0
 10 25  1  0  0  0  0
 11 12  2  0  0  0  0
 11 26  1  0  0  0  0
 12 27  1  0  0  0  0
 13 22  1  0  0  0  0
 13 25  2  0  0  0  0
 14 23  1  0  0  0  0
 14 30  2  0  0  0  0
 15 27  2  0  0  0  0
 15 28  1  0  0  0  0
 16 23  2  0  0  0  0
 16 83  1  0  0  0  0
 17 29  1  0  0  0  0
 18 29  1  0  0  0  0
 18 31  2  0  0  0  0
 18 32  1  0  0  0  0
 19 21  2  0  0  0  0
 19 37  1  0  0  0  0
 20 22  2  0  0  0  0
 20 38  1  0  0  0  0
 21 49  1  0  0  0  0
 22 39  1  0  0  0  0
 23 69  1  0  0  0  0
 24 79  1  0  0  0  0
 25 80  1  0  0  0  0
 26 28  2  0  0  0  0
 26 79  1  0  0  0  0
 27 81  1  0  0  0  0
 28 82  1  0  0  0  0
 29 63  2  0  0  0  0
 30 50  1  0  0  0  0
 30 83  1  0  0  0  0
 31 64  1  0  0  0  0
 31 67  1  0  0  0  0
 32 68  1  0  0  0  0
 32 74  2  0  0  0  0
 33 51  1  0  0  0  0
 33 70  1  0  0  0  0
 33 75  2  0  0  0  0
 34 60  1  0  0  0  0
 34 65  1  0  0  0  0
 34 76  2  0  0  0  0
 35 61  1  0  0  0  0
 35 71  1  0  0  0  0
 35 77  2  0  0  0  0
 36 66  1  0  0  0  0
 36 69  1  0  0  0  0
 36 78  2  0  0  0  0
 37 40  1  0  0  0  0
 38 51  1  0  0  0  0
 39 65  1  0  0  0  0
 40 42  1  0  0  0  0
 41 45  1  0  0  0  0
 41 46  1  0  0  0  0
 42 49  1  0  0  0  0
 43 44  1  0  0  0  0
 43 50  1  0  0  0  0
 44 52  1  0  0  0  0
 45 53  1  0  0  0  0
 46 66  1  0  0  0  0
 47 53  1  0  0  0  0
 47 66  1  0  0  0  0
 48 52  1  0  0  0  0
 48 72  1  0  0  0  0
 49 70  1  0  0  0  0
 50 72  1  0  0  0  0
 51 65  1  0  0  0  0
 52 59  1  0  0  0  0
 53 64  1  0  0  0  0
 54 61  1  0  0  0  0
 55 62  1  0  0  0  0
 56 62  1  0  0  0  0
 57 62  1  0  0  0  0
 58 73  1  0  0  0  0
 59 80  1  0  0  0  0
 60 62  1  0  0  0  0
 60 71  1  0  0  0  0
 61 73  1  0  0  0  0
 63 64  1  0  0  0  0
M  CHG  2  72   1  73   1
M  ISO  4  36 100  59 101  69 100  80 101
M  END
> <Batch ID>
0149

> <Smiles>
CNC(C)C(=O)NC(C(=O)N1Cc2cc([101O:1][101CH2:1]C3CCC(c4cc([100NH:0][100C:0](=O)N5CCCC(n6nc(-c7ccc(Oc8ccc(F)cc8F)cc7)c(C(N)=O)c6N)C5)cs4)NC3)ccc2CC1C(=O)NC1CCCc2ccccc21)C(C)(C)C

> <Shape>
0.204

> <Color>
0.104

> <Negative vol penalty>
0.000

$$$$

  -OEChem-04052303193D

 83 92  0     1  0  0  0  0  0999 V2000
  -17.9514  -30.9934   24.2417 C   0  0  0  0  0  0  0  0  0  0  0  0
  -19.3392  -30.9875   24.3386 C   0  0  0  0  0  0  0  0  0  0  0  0
  -23.0704  -10.1862   20.0027 C   0  0  0  0  0  0  0  0  0  0  0  0
  -24.0889   -9.5345   22.0943 C   0  0  0  0  0  0  0  0  0  0  0  0
  -17.2965  -29.9643   23.5665 C   0  0  0  0  0  0  0  0  0  0  0  0
  -20.0729  -29.9517   23.7612 C   0  0  0  0  0  0  0  0  0  0  0  0
  -26.3550  -28.6659   20.5676 C   0  0  0  0  0  0  0  0  0  0  0  0
  -22.3179   -9.0117   20.0031 C   0  0  0  0  0  0  0  0  0  0  0  0
  -23.3363   -8.3601   22.0948 C   0  0  0  0  0  0  0  0  0  0  0  0
  -27.4503  -27.8075   20.6519 C   0  0  0  0  0  0  0  0  0  0  0  0
  -20.1716   -7.4318   22.8319 C   0  0  0  0  0  0  0  0  0  0  0  0
  -19.5534   -7.0605   24.0258 C   0  0  0  0  0  0  0  0  0  0  0  0
  -26.2167  -26.1244   19.4417 C   0  0  0  0  0  0  0  0  0  0  0  0
  -28.7020  -20.4189   18.5750 C   0  0  0  0  0  0  0  0  0  0  0  0
  -20.7985   -4.9900   24.0265 C   0  0  0  0  0  0  0  0  0  0  0  0
  -23.9559  -10.4476   21.0482 C   0  0  0  0  0  0  0  0  0  0  0  0
  -24.3752  -12.9005   21.6093 C   0  0  0  0  0  0  0  0  0  0  0  0
  -18.0231  -28.9205   22.9722 C   0  0  0  0  0  0  0  0  0  0  0  0
  -25.1764  -28.2554   19.9282 C   0  0  0  0  0  0  0  0  0  0  0  0
  -19.4270  -28.9070   23.0785 C   0  0  0  0  0  0  0  0  0  0  0  0
  -25.1087  -26.9804   19.3485 C   0  0  0  0  0  0  0  0  0  0  0  0
  -28.6466  -19.0177   18.4341 C   0  0  0  0  0  0  0  0  0  0  0  0
  -22.4508   -8.0987   21.0492 C   0  0  0  0  0  0  0  0  0  0  0  0
  -27.3802  -26.5355   20.0914 C   0  0  0  0  0  0  0  0  0  0  0  0
  -21.1031   -6.5822   22.2351 C   0  0  0  0  0  0  0  0  0  0  0  0
  -19.8669   -5.8396   24.6232 C   0  0  0  0  0  0  0  0  0  0  0  0
  -21.4166   -5.3614   22.8325 C   0  0  0  0  0  0  0  0  0  0  0  0
  -24.7339  -11.6603   21.0480 C   0  0  0  0  0  0  0  0  0  0  0  0
  -28.2337  -18.3990   19.5781 C   0  0  0  0  0  0  0  0  0  0  0  0
  -25.4454  -13.7197   21.3444 C   0  0  0  0  0  0  0  0  0  0  0  0
  -28.3153  -20.7952   19.8518 C   0  0  0  0  0  0  0  0  0  0  0  0
  -23.1815  -13.2783   22.3078 C   0  0  0  0  0  0  0  0  0  0  0  0
  -22.1616  -27.8275   20.8403 C   0  0  0  0  0  0  0  0  0  0  0  0
  -21.6862  -27.3108   17.6734 C   0  0  0  0  0  0  0  0  0  0  0  0
  -22.9971  -26.3951   14.6584 C   0  0  0  0  0  0  0  0  0  0  0  0
  -28.4842  -23.3073   19.8622 C   0  0  0  0  0  0  0  0  0  0  0  0
  -29.1578  -15.5551   17.5273 C   0  0  0  0  0  0  0  0  0  0  0  0
  -17.2682  -27.8051   22.2934 C   0  0  0  0  0  0  0  0  0  0  0  0
  -24.0131  -29.2030   19.8224 C   0  0  0  0  0  0  0  0  0  0  0  0
  -23.8736  -26.4990   18.6334 C   0  0  0  0  0  0  0  0  0  0  0  0
  -28.9288  -18.0387   17.3691 C   0  0  0  0  0  0  0  0  0  0  0  0
  -28.1519  -16.9324   19.4640 C   0  0  0  0  0  0  0  0  0  0  0  0
  -18.1419  -26.9418   21.3870 C   0  0  0  0  0  0  0  0  0  0  0  0
  -30.0694  -12.6561   19.5888 C   0  0  0  0  0  0  0  0  0  0  0  0
  -19.4390  -26.5659   22.0963 C   0  0  0  0  0  0  0  0  0  0  0  0
  -28.7188  -12.2176   20.1593 C   0  0  0  0  0  0  0  0  0  0  0  0
  -29.9267  -13.3122   18.2170 C   0  0  0  0  0  0  0  0  0  0  0  0
  -27.6076  -13.9676   18.7268 C   0  0  0  0  0  0  0  0  0  0  0  0
  -20.2593  -27.8139   22.4440 C   0  0  1  0  0  0  0  0  0  0  0  0
  -22.6821  -28.4924   19.5974 C   0  0  1  0  0  0  0  0  0  0  0  0
  -27.7019  -13.3751   20.1390 C   0  0  1  0  0  0  0  0  0  0  0  0
  -22.3548  -26.0305   12.2601 C   0  0  0  0  0  0  0  0  0  0  0  0
  -29.1892  -24.3691   22.0382 C   0  0  0  0  0  0  0  0  0  0  0  0
  -20.3725  -24.6630   18.4303 C   0  0  0  0  0  0  0  0  0  0  0  0
  -20.6187  -23.9393   16.0462 C   0  0  0  0  0  0  0  0  0  0  0  0
  -19.2106  -25.9204   16.6073 C   0  0  0  0  0  0  0  0  0  0  0  0
  -24.8588  -28.4955   13.7196 C   0  0  0  0  0  0  0  0  0  0  0  0
  -21.7271  -26.1025   16.7694 C   0  0  1  0  0  0  0  0  0  0  0  0
  -22.8894  -27.0232   13.2806 C   0  0  2  0  0  0  0  0  0  0  0  0
  -28.2522  -24.4542   20.8425 C   0  0  1  0  0  0  0  0  0  1  0  0
  -20.5050  -25.1644   16.9784 C   0  0  0  0  0  0  0  0  0  0  0  0
  -25.9378  -11.6848   20.4700 N   0  0  0  0  0  0  0  0  0  0  0  0
  -26.3449  -12.9504   20.6666 N   0  0  0  0  0  0  0  0  0  0  0  0
  -22.7605  -27.4600   18.5619 N   0  0  0  0  0  0  0  0  0  0  0  0
  -28.6610  -16.7464   18.0676 N   0  0  0  0  0  0  0  0  0  0  0  0
  -28.9314  -14.3823   18.2542 N   0  0  0  0  0  0  0  0  0  0  0  0
  -25.6953  -15.0158   21.6273 N   0  0  0  0  0  0  0  0  0  0  0  0
  -22.1820  -12.3133   22.4929 N   0  0  0  0  0  0  0  0  0  0  0  0
  -28.2175  -22.0318   20.4279 N   0  0  0  0  0  0  0  0  0  0  0  0
  -20.9415  -28.3137   21.2696 N   0  0  0  0  0  0  0  0  0  0  0  0
  -21.8619  -26.6143   15.4098 N   0  0  0  0  0  0  0  0  0  0  0  0
  -24.2258  -27.4960   12.8210 N   0  3  0  0  0  0  0  0  0  0  0  0
  -22.9993  -14.4417   22.7401 O   0  0  0  0  0  0  0  0  0  0  0  0
  -22.8178  -26.9383   21.3698 O   0  0  0  0  0  0  0  0  0  0  0  0
  -20.7396  -28.0973   17.5892 O   0  0  0  0  0  0  0  0  0  0  0  0
  -23.9875  -25.7692   15.0296 O   0  0  0  0  0  0  0  0  0  0  0  0
  -28.8483  -23.5195   18.7091 O   0  0  0  0  0  0  0  0  0  0  0  0
  -29.8166  -15.5472   16.4798 O   0  0  0  0  0  0  0  0  0  0  0  0
  -21.7165   -6.9527   21.0501 O   0  0  0  0  0  0  0  0  0  0  0  0
  -28.4563  -25.6885   20.1735 O   0  0  0  0  0  0  0  0  0  1  0  0
  -19.2744   -5.4839   25.7706 F   0  0  0  0  0  0  0  0  0  0  0  0
  -22.3116   -4.5415   22.2645 F   0  0  0  0  0  0  0  0  0  0  0  0
  -27.8991  -19.4385   20.8432 S   0  0  0  0  0  0  0  0  0  0  0  0
  1  2  1  0  0  0  0
  1  5  2  0  0  0  0
  2  6  2  0  0  0  0
  3  8  2  0  0  0  0
  3 16  1  0  0  0  0
  4  9  1  0  0  0  0
  4 16  2  0  0  0  0
  5 18  1  0  0  0  0
  6 20  1  0  0  0  0
  7 10  2  0  0  0  0
  7 19  1  0  0  0  0
  8 23  1  0  0  0  0
  9 23  2  0  0  0  0
 10 24  1  0  0  0  0
 11 12  2  0  0  0  0
 11 25  1  0  0  0  0
 12 26  1  0  0  0  0
 13 21  1  0  0  0  0
 13 24  2  0  0  0  0
 14 22  1  0  0  0  0
 14 31  2  0  0  0  0
 15 26  2  0  0  0  0
 15 27  1  0  0  0  0
 16 28  1  0  0  0  0
 17 28  1  0  0  0  0
 17 30  2  0  0  0  0
 17 32  1  0  0  0  0
 18 20  2  0  0  0  0
 18 38  1  0  0  0  0
 19 21  2  0  0  0  0
 19 39  1  0  0  0  0
 20 49  1  0  0  0  0
 21 40  1  0  0  0  0
 22 29  2  0  0  0  0
 22 41  1  0  0  0  0
 23 79  1  0  0  0  0
 24 80  1  0  0  0  0
 25 27  2  0  0  0  0
 25 79  1  0  0  0  0
 26 81  1  0  0  0  0
 27 82  1  0  0  0  0
 28 62  2  0  0  0  0
 29 42  1  0  0  0  0
 29 83  1  0  0  0  0
 30 63  1  0  0  0  0
 30 67  1  0  0  0  0
 31 69  1  0  0  0  0
 31 83  1  0  0  0  0
 32 68  1  0  0  0  0
 32 73  2  0  0  0  0
 33 50  1  0  0  0  0
 33 70  1  0  0  0  0
 33 74  2  0  0  0  0
 34 58  1  0  0  0  0
 34 64  1  0  0  0  0
 34 75  2  0  0  0  0
 35 59  1  0  0  0  0
 35 71  1  0  0  0  0
 35 76  2  0  0  0  0
 36 60  1  0  0  0  0
 36 69  1  0  0  0  0
 36 77  2  0  0  0  0
 37 65  1  0  0  0  0
 37 66  1  0  0  0  0
 37 78  2  0  0  0  0
 38 43  1  0  0  0  0
 39 50  1  0  0  0  0
 40 64  1  0  0  0  0
 41 65  1  0  0  0  0
 42 65  1  0  0  0  0
 43 45  1  0  0  0  0
 44 46  1  0  0  0  0
 44 47  1  0  0  0  0
 45 49  1  0  0  0  0
 46 51  1  0  0  0  0
 47 66  1  0  0  0  0
 48 51  1  0  0  0  0
 48 66  1  0  0  0  0
 49 70  1  0  0  0  0
 50 64  1  0  0  0  0
 51 63  1  0  0  0  0
 52 59  1  0  0  0  0
 53 60  1  0  0  0  0
 54 61  1  0  0  0  0
 55 61  1  0  0  0  0
 56 61  1  0  0  0  0
 57 72  1  0  0  0  0
 58 61  1  0  0  0  0
 58 71  1  0  0  0  0
 59 72  1  0  0  0  0
 60 80  1  0  0  0  0
 62 63  1  0  0  0  0
M  CHG  1  72   1
M  ISO  4  37 100  60 101  65 100  80 101
M  END
> <Batch ID>
0149

> <Smiles>
CNC(C)C(=O)NC(C(=O)N1Cc2cc([101O:1][101CH:1](C)C(=O)Nc3cc4c(s3)C[100N:0]([100C:0](=O)N3CCCC(n5nc(-c6ccc(Oc7ccc(F)cc7F)cc6)c(C(N)=O)c5N)C3)C4)ccc2CC1C(=O)NC1CCCc2ccccc21)C(C)(C)C

> <Shape>
0.329

> <Color>
0.166

> <Negative vol penalty>
0.000

$$$$

  -OEChem-04052303193D

 84 93  0     1  0  0  0  0  0999 V2000
  -27.7552  -25.7664   24.0026 C   0  0  0  0  0  0  0  0  0  0  0  0
  -28.3298  -24.8006   24.8226 C   0  0  0  0  0  0  0  0  0  0  0  0
  -23.2878   -9.7995   19.9148 C   0  0  0  0  0  0  0  0  0  0  0  0
  -23.7417   -9.9410   22.2835 C   0  0  0  0  0  0  0  0  0  0  0  0
  -27.7123  -25.5717   22.6227 C   0  0  0  0  0  0  0  0  0  0  0  0
  -28.8607  -23.6389   24.2632 C   0  0  0  0  0  0  0  0  0  0  0  0
  -33.7623  -20.5241   26.2071 C   0  0  0  0  0  0  0  0  0  0  0  0
  -22.5621   -8.6269   20.1238 C   0  0  0  0  0  0  0  0  0  0  0  0
  -23.0160   -8.7683   22.4926 C   0  0  0  0  0  0  0  0  0  0  0  0
  -33.8958  -19.3814   26.9946 C   0  0  0  0  0  0  0  0  0  0  0  0
  -19.7695   -7.8563   22.7146 C   0  0  0  0  0  0  0  0  0  0  0  0
  -18.8686   -7.8346   23.7792 C   0  0  0  0  0  0  0  0  0  0  0  0
  -33.1692  -13.7017   25.3396 C   0  0  0  0  0  0  0  0  0  0  0  0
  -32.7897  -13.5330   23.9766 C   0  0  0  0  0  0  0  0  0  0  0  0
  -34.0564  -18.0334   25.0005 C   0  0  0  0  0  0  0  0  0  0  0  0
  -20.0763   -5.9881   24.7636 C   0  0  0  0  0  0  0  0  0  0  0  0
  -23.8777  -10.4566   20.9946 C   0  0  0  0  0  0  0  0  0  0  0  0
  -24.1360  -12.9866   20.7949 C   0  0  0  0  0  0  0  0  0  0  0  0
  -28.2516  -24.4115   22.0452 C   0  0  0  0  0  0  0  0  0  0  0  0
  -33.7639  -20.4287   24.8081 C   0  0  0  0  0  0  0  0  0  0  0  0
  -28.8237  -23.4278   22.8744 C   0  0  0  0  0  0  0  0  0  0  0  0
  -33.9253  -19.1768   24.1975 C   0  0  0  0  0  0  0  0  0  0  0  0
  -22.4262   -8.1112   21.4128 C   0  0  0  0  0  0  0  0  0  0  0  0
  -34.0400  -18.1355   26.3913 C   0  0  0  0  0  0  0  0  0  0  0  0
  -20.8238   -6.9438   22.6744 C   0  0  0  0  0  0  0  0  0  0  0  0
  -19.0220   -6.9006   24.8038 C   0  0  0  0  0  0  0  0  0  0  0  0
  -20.9772   -6.0097   23.6990 C   0  0  0  0  0  0  0  0  0  0  0  0
  -24.6280  -11.6677   20.7792 C   0  0  0  0  0  0  0  0  0  0  0  0
  -32.1201  -13.4692   26.2014 C   0  0  0  0  0  0  0  0  0  0  0  0
  -25.2369  -13.7668   20.5382 C   0  0  0  0  0  0  0  0  0  0  0  0
  -31.4648  -13.1777   23.8487 C   0  0  0  0  0  0  0  0  0  0  0  0
  -22.8031  -13.4639   21.0214 C   0  0  0  0  0  0  0  0  0  0  0  0
  -31.6724  -21.1028   22.5114 C   0  0  0  0  0  0  0  0  0  0  0  0
  -34.1576  -20.3536   20.5658 C   0  0  0  0  0  0  0  0  0  0  0  0
  -37.1028  -18.6828   20.1408 C   0  0  0  0  0  0  0  0  0  0  0  0
  -31.0986  -12.9545   21.3663 C   0  0  0  0  0  0  0  0  0  0  0  0
  -28.1395  -24.2238   20.5529 C   0  0  0  0  0  0  0  0  0  0  0  0
  -33.6457  -21.6740   23.9728 C   0  0  0  0  0  0  0  0  0  0  0  0
  -33.9538  -19.0228   22.6996 C   0  0  0  0  0  0  0  0  0  0  0  0
  -29.0602  -23.1364   20.0049 C   0  0  0  0  0  0  0  0  0  0  0  0
  -29.4608  -13.6577   18.2841 C   0  0  0  0  0  0  0  0  0  0  0  0
  -32.8347  -12.7197   29.8158 C   0  0  0  0  0  0  0  0  0  0  0  0
  -28.9756  -21.8809   20.8670 C   0  0  0  0  0  0  0  0  0  0  0  0
  -32.5218  -12.2501   28.4088 C   0  0  0  0  0  0  0  0  0  0  0  0
  -27.9899  -13.3530   18.5773 C   0  0  0  0  0  0  0  0  0  0  0  0
  -30.3952  -12.6829   18.9985 C   0  0  0  0  0  0  0  0  0  0  0  0
  -28.7045  -12.2548   20.7384 C   0  0  0  0  0  0  0  0  0  0  0  0
  -33.6081  -14.0069   29.6032 C   0  0  0  0  0  0  0  0  0  0  0  0
  -29.4325  -22.1657   22.3029 C   0  0  1  0  0  0  0  0  0  0  0  0
  -32.1082  -13.5437   27.7075 C   0  0  1  0  0  0  0  0  0  0  0  0
  -33.1447  -21.3993   22.5583 C   0  0  1  0  0  0  0  0  0  0  0  0
  -27.7270  -13.2502   20.0926 C   0  0  2  0  0  0  0  0  0  0  0  0
  -38.8816  -18.2300   18.4295 C   0  0  0  0  0  0  0  0  0  0  0  0
  -34.5771  -16.8897   29.5301 C   0  0  0  0  0  0  0  0  0  0  0  0
  -32.3003  -18.3825   19.1603 C   0  0  0  0  0  0  0  0  0  0  0  0
  -34.3213  -17.3124   18.1411 C   0  0  0  0  0  0  0  0  0  0  0  0
  -33.7811  -19.6934   17.6297 C   0  0  0  0  0  0  0  0  0  0  0  0
  -39.1951  -19.9419   21.8129 C   0  0  0  0  0  0  0  0  0  0  0  0
  -32.4573  -15.9433   28.4556 C   0  0  0  0  0  0  0  0  0  0  0  0
  -34.6652  -19.0873   19.9194 C   0  0  1  0  0  0  0  0  0  0  0  0
  -38.4402  -19.1265   19.5759 C   0  0  2  0  0  0  0  0  0  0  0  0
  -33.5297  -17.0276   28.4329 C   0  0  2  0  0  0  0  0  0  1  0  0
  -33.7645  -18.6212   18.7409 C   0  0  0  0  0  0  0  0  0  0  0  0
  -25.9393  -11.6094   20.5319 N   0  0  0  0  0  0  0  0  0  0  0  0
  -26.2806  -12.9014   20.3898 N   0  0  0  0  0  0  0  0  0  0  0  0
  -33.8283  -20.2692   21.9260 N   0  0  0  0  0  0  0  0  0  0  0  0
  -30.0903  -12.6413   20.4303 N   0  0  0  0  0  0  0  0  0  0  0  0
  -25.4043  -15.1017   20.4271 N   0  0  0  0  0  0  0  0  0  0  0  0
  -21.7912  -12.5267   21.2705 N   0  0  0  0  0  0  0  0  0  0  0  0
  -30.6832  -12.9131   22.6968 N   0  0  0  0  0  0  0  0  0  0  0  0
  -30.8769  -22.2239   22.3715 N   0  0  0  0  0  0  0  0  0  0  0  0
  -36.0513  -19.3472   19.5457 N   0  0  0  0  0  0  0  0  0  0  0  0
  -33.0648  -14.5818   28.3061 N   0  3  1  0  0  0  0  0  0  0  0  0
  -39.4885  -19.0863   20.6344 N   0  3  0  0  0  0  0  0  0  0  0  0
  -22.5148  -14.6842   20.9871 O   0  0  0  0  0  0  0  0  0  0  0  0
  -31.2869  -19.9425   22.5943 O   0  0  0  0  0  0  0  0  0  0  0  0
  -34.0636  -21.3816   19.8905 O   0  0  0  0  0  0  0  0  0  0  0  0
  -37.0009  -17.8293   21.0192 O   0  0  0  0  0  0  0  0  0  0  0  0
  -32.2389  -13.2650   21.0123 O   0  0  0  0  0  0  0  0  0  0  0  0
  -21.7179   -6.9671   21.6172 O   0  0  0  0  0  0  0  0  0  0  0  0
  -34.1698  -17.0184   27.1575 O   0  0  0  0  0  0  0  0  0  1  0  0
  -18.1576   -6.8809   25.8268 F   0  0  0  0  0  0  0  0  0  0  0  0
  -21.9887   -5.1314   23.6665 F   0  0  0  0  0  0  0  0  0  0  0  0
  -30.6846  -13.0492   25.3676 S   0  0  0  0  0  0  0  0  0  0  0  0
  1  2  1  0  0  0  0
  1  5  2  0  0  0  0
  2  6  2  0  0  0  0
  3  8  2  0  0  0  0
  3 17  1  0  0  0  0
  4  9  1  0  0  0  0
  4 17  2  0  0  0  0
  5 19  1  0  0  0  0
  6 21  1  0  0  0  0
  7 10  2  0  0  0  0
  7 20  1  0  0  0  0
  8 23  1  0  0  0  0
  9 23  2  0  0  0  0
 10 24  1  0  0  0  0
 11 12  2  0  0  0  0
 11 25  1  0  0  0  0
 12 26  1  0  0  0  0
 13 14  1  0  0  0  0
 13 29  2  0  0  0  0
 14 31  2  0  0  0  0
 15 22  1  0  0  0  0
 15 24  2  0  0  0  0
 16 26  2  0  0  0  0
 16 27  1  0  0  0  0
 17 28  1  0  0  0  0
 18 28  1  0  0  0  0
 18 30  2  0  0  0  0
 18 32  1  0  0  0  0
 19 21  2  0  0  0  0
 19 37  1  0  0  0  0
 20 22  2  0  0  0  0
 20 38  1  0  0  0  0
 21 49  1  0  0  0  0
 22 39  1  0  0  0  0
 23 80  1  0  0  0  0
 24 81  1  0  0  0  0
 25 27  2  0  0  0  0
 25 80  1  0  0  0  0
 26 82  1  0  0  0  0
 27 83  1  0  0  0  0
 28 64  2  0  0  0  0
 29 50  1  0  0  0  0
 29 84  1  0  0  0  0
 30 65  1  0  0  0  0
 30 68  1  0  0  0  0
 31 70  1  0  0  0  0
 31 84  1  0  0  0  0
 32 69  1  0  0  0  0
 32 75  2  0  0  0  0
 33 51  1  0  0  0  0
 33 71  1  0  0  0  0
 33 76  2  0  0  0  0
 34 60  1  0  0  0  0
 34 66  1  0  0  0  0
 34 77  2  0  0  0  0
 35 61  1  0  0  0  0
 35 72  1  0  0  0  0
 35 78  2  0  0  0  0
 36 67  1  0  0  0  0
 36 70  1  0  0  0  0
 36 79  2  0  0  0  0
 37 40  1  0  0  0  0
 38 51  1  0  0  0  0
 39 66  1  0  0  0  0
 40 43  1  0  0  0  0
 41 45  1  0  0  0  0
 41 46  1  0  0  0  0
 42 44  1  0  0  0  0
 42 48  1  0  0  0  0
 43 49  1  0  0  0  0
 44 50  1  0  0  0  0
 45 52  1  0  0  0  0
 46 67  1  0  0  0  0
 47 52  1  0  0  0  0
 47 67  1  0  0  0  0
 48 73  1  0  0  0  0
 49 71  1  0  0  0  0
 50 73  1  0  0  0  0
 51 66  1  0  0  0  0
 52 65  1  0  0  0  0
 53 61  1  0  0  0  0
 54 62  1  0  0  0  0
 55 63  1  0  0  0  0
 56 63  1  0  0  0  0
 57 63  1  0  0  0  0
 58 74  1  0  0  0  0
 59 62  1  0  0  0  0
 59 73  1  0  0  0  0
 60 63  1  0  0  0  0
 60 72  1  0  0  0  0
 61 74  1  0  0  0  0
 62 81  1  0  0  0  0
 64 65  1  0  0  0  0
M  CHG  2  73   1  74   1
M  ISO  4  36 100  62 101  70 100  81 101
M  END
> <Batch ID>
0149

> <Smiles>
CNC(C)C(=O)NC(C(=O)N1Cc2cc([101O:1][101CH:1](C)CN3CCCC3c3ccc([100NH:0][100C:0](=O)N4CCCC(n5nc(-c6ccc(Oc7ccc(F)cc7F)cc6)c(C(N)=O)c5N)C4)s3)ccc2CC1C(=O)NC1CCCc2ccccc21)C(C)(C)C

> <Shape>
0.157

> <Color>
0.171

> <Negative vol penalty>
0.000

$$$$

  -OEChem-04052303193D

 85 94  0     1  0  0  0  0  0999 V2000
  -31.5987  -34.2201   22.9516 C   0  0  0  0  0  0  0  0  0  0  0  0
  -31.3856  -33.1598   22.0764 C   0  0  0  0  0  0  0  0  0  0  0  0
  -26.8055  -12.4332   21.9411 C   0  0  0  0  0  0  0  0  0  0  0  0
  -25.9475  -14.2645   20.6192 C   0  0  0  0  0  0  0  0  0  0  0  0
  -30.8711  -34.3000   24.1382 C   0  0  0  0  0  0  0  0  0  0  0  0
  -30.4455  -32.1782   22.3880 C   0  0  0  0  0  0  0  0  0  0  0  0
  -26.8556  -29.1413   18.4643 C   0  0  0  0  0  0  0  0  0  0  0  0
  -25.5315  -11.8668   21.9834 C   0  0  0  0  0  0  0  0  0  0  0  0
  -24.6735  -13.6981   20.6615 C   0  0  0  0  0  0  0  0  0  0  0  0
  -26.9607  -27.8795   17.8807 C   0  0  0  0  0  0  0  0  0  0  0  0
  -23.5438  -10.0504   19.9383 C   0  0  0  0  0  0  0  0  0  0  0  0
  -23.4355   -8.6798   19.7032 C   0  0  0  0  0  0  0  0  0  0  0  0
  -29.6939  -24.1809   21.5563 C   0  0  0  0  0  0  0  0  0  0  0  0
  -29.0810  -21.8662   21.3307 C   0  0  0  0  0  0  0  0  0  0  0  0
  -25.5375  -26.9707   19.6034 C   0  0  0  0  0  0  0  0  0  0  0  0
  -22.4693   -8.3797   21.8972 C   0  0  0  0  0  0  0  0  0  0  0  0
  -30.4758  -23.8125   22.6392 C   0  0  0  0  0  0  0  0  0  0  0  0
  -27.0135  -13.6320   21.2590 C   0  0  0  0  0  0  0  0  0  0  0  0
  -28.9864  -23.1833   20.8950 C   0  0  0  0  0  0  0  0  0  0  0  0
  -29.3294  -13.9907   20.2511 C   0  0  0  0  0  0  0  0  0  0  0  0
  -29.9147  -33.3240   24.4599 C   0  0  0  0  0  0  0  0  0  0  0  0
  -26.0982  -29.3255   19.6300 C   0  0  0  0  0  0  0  0  0  0  0  0
  -29.7054  -32.2444   23.5807 C   0  0  0  0  0  0  0  0  0  0  0  0
  -25.4223  -28.2364   20.1984 C   0  0  0  0  0  0  0  0  0  0  0  0
  -24.4655  -12.4992   21.3436 C   0  0  0  0  0  0  0  0  0  0  0  0
  -26.3040  -26.7934   18.4519 C   0  0  0  0  0  0  0  0  0  0  0  0
  -23.1149  -10.5857   21.1530 C   0  0  0  0  0  0  0  0  0  0  0  0
  -22.8983   -7.8445   20.6826 C   0  0  0  0  0  0  0  0  0  0  0  0
  -22.5776   -9.7504   22.1323 C   0  0  0  0  0  0  0  0  0  0  0  0
  -28.3292  -14.2179   21.2154 C   0  0  0  0  0  0  0  0  0  0  0  0
  -29.8905  -21.6013   22.4235 C   0  0  0  0  0  0  0  0  0  0  0  0
  -30.3809  -14.7763   20.6554 C   0  0  0  0  0  0  0  0  0  0  0  0
  -28.1395  -23.5210   19.7370 C   0  0  0  0  0  0  0  0  0  0  0  0
  -29.3096  -13.1451   19.0933 C   0  0  0  0  0  0  0  0  0  0  0  0
  -26.7400  -30.2723   22.5957 C   0  0  0  0  0  0  0  0  0  0  0  0
  -23.5163  -30.1244   22.9244 C   0  0  0  0  0  0  0  0  0  0  0  0
  -20.5524  -28.8115   21.8572 C   0  0  0  0  0  0  0  0  0  0  0  0
  -30.7284  -19.7632   23.9287 C   0  0  0  0  0  0  0  0  0  0  0  0
  -29.1864  -33.4275   25.7765 C   0  0  0  0  0  0  0  0  0  0  0  0
  -25.9731  -30.6981   20.2321 C   0  0  0  0  0  0  0  0  0  0  0  0
  -24.5801  -28.3852   21.4382 C   0  0  0  0  0  0  0  0  0  0  0  0
  -27.9416  -32.5474   25.8548 C   0  0  0  0  0  0  0  0  0  0  0  0
  -32.3486  -16.6630   24.5927 C   0  0  0  0  0  0  0  0  0  0  0  0
  -30.2368  -23.4917   16.7853 C   0  0  0  0  0  0  0  0  0  0  0  0
  -28.2476  -31.1432   25.3436 C   0  0  0  0  0  0  0  0  0  0  0  0
  -31.5967  -15.6646   23.7097 C   0  0  0  0  0  0  0  0  0  0  0  0
  -28.8462  -23.2651   16.2016 C   0  0  0  0  0  0  0  0  0  0  0  0
  -30.0693  -23.1540   18.2614 C   0  0  0  0  0  0  0  0  0  0  0  0
  -31.4142  -17.7238   25.1719 C   0  0  0  0  0  0  0  0  0  0  0  0
  -29.8384  -17.4332   23.3006 C   0  0  0  0  0  0  0  0  0  0  0  0
  -28.6767  -31.1733   23.8717 C   0  0  1  0  0  0  0  0  0  0  0  0
  -25.5937  -30.6702   21.7095 C   0  0  1  0  0  0  0  0  0  0  0  0
  -30.7486  -16.3836   22.6422 C   0  0  2  0  0  0  0  0  0  0  0  0
  -27.8959  -23.7747   17.2894 C   0  0  2  0  0  0  0  0  0  0  0  0
  -18.0912  -28.8503   22.3453 C   0  0  0  0  0  0  0  0  0  0  0  0
  -23.9713  -28.3292   25.3493 C   0  0  0  0  0  0  0  0  0  0  0  0
  -21.5665  -27.6471   25.2083 C   0  0  0  0  0  0  0  0  0  0  0  0
  -22.1618  -30.0315   25.6364 C   0  0  0  0  0  0  0  0  0  0  0  0
  -19.9185  -29.8771   19.1699 C   0  0  0  0  0  0  0  0  0  0  0  0
  -27.6128  -25.2657   17.1833 C   0  0  0  0  0  0  0  0  0  1  0  0
  -22.5312  -29.0560   23.3333 C   0  0  1  0  0  0  0  0  0  0  0  0
  -19.2207  -29.4636   21.5323 C   0  0  2  0  0  0  0  0  0  0  0  0
  -22.5751  -28.7624   24.8596 C   0  0  0  0  0  0  0  0  0  0  0  0
  -30.5928  -22.5438   23.0915 N   0  0  0  0  0  0  0  0  0  0  0  0
  -28.7112  -15.0802   22.1611 N   0  0  0  0  0  0  0  0  0  0  0  0
  -29.9631  -15.4017   21.7932 N   0  0  0  0  0  0  0  0  0  0  0  0
  -28.6618  -23.5014   18.5230 N   0  0  0  0  0  0  0  0  0  0  0  0
  -24.4939  -29.7460   21.9932 N   0  0  0  0  0  0  0  0  0  0  0  0
  -30.6464  -18.3654   24.1024 N   0  0  0  0  0  0  0  0  0  0  0  0
  -31.6130  -14.9862   20.1452 N   0  0  0  0  0  0  0  0  0  0  0  0
  -28.1490  -12.4067   18.8250 N   0  0  0  0  0  0  0  0  0  0  0  0
  -29.9807  -20.2563   22.8599 N   0  0  0  0  0  0  0  0  0  0  0  0
  -27.5233  -31.3318   23.0121 N   0  0  0  0  0  0  0  0  0  0  0  0
  -21.2278  -29.4946   22.8464 N   0  0  0  0  0  0  0  0  0  0  0  0
  -26.8629  -23.8384   19.9316 N   0  3  0  0  0  0  0  0  0  0  0  0
  -18.9021  -29.2983   20.0859 N   0  3  0  0  0  0  0  0  0  0  0  0
  -30.2979  -13.0348   18.3288 O   0  0  0  0  0  0  0  0  0  0  0  0
  -26.9010  -29.0917   22.8817 O   0  0  0  0  0  0  0  0  0  0  0  0
  -23.4174  -31.2550   23.4077 O   0  0  0  0  0  0  0  0  0  0  0  0
  -20.9519  -27.7954   21.2927 O   0  0  0  0  0  0  0  0  0  0  0  0
  -31.4331  -20.4674   24.6565 O   0  0  0  0  0  0  0  0  0  0  0  0
  -23.2223  -11.9468   21.3846 O   0  0  0  0  0  0  0  0  0  0  0  0
  -26.4055  -25.5606   17.8846 O   0  0  0  0  0  0  0  0  0  1  0  0
  -22.7930   -6.5285   20.4561 F   0  0  0  0  0  0  0  0  0  0  0  0
  -22.1628  -10.2590   23.3007 F   0  0  0  0  0  0  0  0  0  0  0  0
  1  2  1  0  0  0  0
  1  5  2  0  0  0  0
  2  6  2  0  0  0  0
  3  8  2  0  0  0  0
  3 18  1  0  0  0  0
  4  9  1  0  0  0  0
  4 18  2  0  0  0  0
  5 21  1  0  0  0  0
  6 23  1  0  0  0  0
  7 10  2  0  0  0  0
  7 22  1  0  0  0  0
  8 25  1  0  0  0  0
  9 25  2  0  0  0  0
 10 26  1  0  0  0  0
 11 12  2  0  0  0  0
 11 27  1  0  0  0  0
 12 28  1  0  0  0  0
 13 17  2  0  0  0  0
 13 19  1  0  0  0  0
 14 19  2  0  0  0  0
 14 31  1  0  0  0  0
 15 24  1  0  0  0  0
 15 26  2  0  0  0  0
 16 28  2  0  0  0  0
 16 29  1  0  0  0  0
 17 64  1  0  0  0  0
 18 30  1  0  0  0  0
 19 33  1  0  0  0  0
 20 30  1  0  0  0  0
 20 32  2  0  0  0  0
 20 34  1  0  0  0  0
 21 23  2  0  0  0  0
 21 39  1  0  0  0  0
 22 24  2  0  0  0  0
 22 40  1  0  0  0  0
 23 51  1  0  0  0  0
 24 41  1  0  0  0  0
 25 82  1  0  0  0  0
 26 83  1  0  0  0  0
 27 29  2  0  0  0  0
 27 82  1  0  0  0  0
 28 84  1  0  0  0  0
 29 85  1  0  0  0  0
 30 65  2  0  0  0  0
 31 64  2  0  0  0  0
 31 72  1  0  0  0  0
 32 66  1  0  0  0  0
 32 70  1  0  0  0  0
 33 67  1  0  0  0  0
 33 75  2  0  0  0  0
 34 71  1  0  0  0  0
 34 77  2  0  0  0  0
 35 52  1  0  0  0  0
 35 73  1  0  0  0  0
 35 78  2  0  0  0  0
 36 61  1  0  0  0  0
 36 68  1  0  0  0  0
 36 79  2  0  0  0  0
 37 62  1  0  0  0  0
 37 74  1  0  0  0  0
 37 80  2  0  0  0  0
 38 69  1  0  0  0  0
 38 72  1  0  0  0  0
 38 81  2  0  0  0  0
 39 42  1  0  0  0  0
 40 52  1  0  0  0  0
 41 68  1  0  0  0  0
 42 45  1  0  0  0  0
 43 46  1  0  0  0  0
 43 49  1  0  0  0  0
 44 47  1  0  0  0  0
 44 48  1  0  0  0  0
 45 51  1  0  0  0  0
 46 53  1  0  0  0  0
 47 54  1  0  0  0  0
 48 67  1  0  0  0  0
 49 69  1  0  0  0  0
 50 53  1  0  0  0  0
 50 69  1  0  0  0  0
 51 73  1  0  0  0  0
 52 68  1  0  0  0  0
 53 66  1  0  0  0  0
 54 60  1  0  0  0  0
 54 67  1  0  0  0  0
 55 62  1  0  0  0  0
 56 63  1  0  0  0  0
 57 63  1  0  0  0  0
 58 63  1  0  0  0  0
 59 76  1  0  0  0  0
 60 83  1  0  0  0  0
 61 63  1  0  0  0  0
 61 74  1  0  0  0  0
 62 76  1  0  0  0  0
 65 66  1  0  0  0  0
M  CHG  2  75   1  76   1
M  ISO  4  38 100  60 101  72 100  83 101
M  END
> <Batch ID>
0149

> <Smiles>
CNC(C)C(=O)NC(C(=O)N1Cc2cc([101O:1][101CH2:1]C3CCCN3C(=N)c3ccnc([100NH:0][100C:0](=O)N4CCCC(n5nc(-c6ccc(Oc7ccc(F)cc7F)cc6)c(C(N)=O)c5N)C4)c3)ccc2CC1C(=O)NC1CCCc2ccccc21)C(C)(C)C

> <Shape>
0.283

> <Color>
0.078

> <Negative vol penalty>
0.000

$$$$

  -OEChem-04052303193D

 84 92  0     1  0  0  0  0  0999 V2000
  -23.5752  -18.4571   25.2217 C   0  0  0  0  0  0  0  0  0  0  0  0
  -23.8843  -19.1104   24.0330 C   0  0  0  0  0  0  0  0  0  0  0  0
  -25.8329  -15.0786   21.4319 C   0  0  0  0  0  0  0  0  0  0  0  0
  -24.9428  -16.7849   19.9714 C   0  0  0  0  0  0  0  0  0  0  0  0
  -22.4734  -18.8637   25.9731 C   0  0  0  0  0  0  0  0  0  0  0  0
  -23.0910  -20.1699   23.5943 C   0  0  0  0  0  0  0  0  0  0  0  0
  -25.8318  -24.1034   21.9632 C   0  0  0  0  0  0  0  0  0  0  0  0
  -24.5869  -14.4523   21.4597 C   0  0  0  0  0  0  0  0  0  0  0  0
  -23.6967  -16.1586   19.9991 C   0  0  0  0  0  0  0  0  0  0  0  0
  -26.3918  -24.0051   20.6901 C   0  0  0  0  0  0  0  0  0  0  0  0
  -22.7737  -12.4230   19.4529 C   0  0  0  0  0  0  0  0  0  0  0  0
  -22.7409  -11.0374   19.2962 C   0  0  0  0  0  0  0  0  0  0  0  0
  -24.6024  -25.3593   19.8051 C   0  0  0  0  0  0  0  0  0  0  0  0
  -21.7014  -10.8166   21.4659 C   0  0  0  0  0  0  0  0  0  0  0  0
  -26.0108  -16.2449   20.6878 C   0  0  0  0  0  0  0  0  0  0  0  0
  -28.3461  -16.6606   19.7489 C   0  0  0  0  0  0  0  0  0  0  0  0
  -21.6719  -19.9351   25.5484 C   0  0  0  0  0  0  0  0  0  0  0  0
  -24.6450  -24.8225   22.1651 C   0  0  0  0  0  0  0  0  0  0  0  0
  -21.9766  -20.5904   24.3400 C   0  0  0  0  0  0  0  0  0  0  0  0
  -24.0308  -25.4673   21.0821 C   0  0  0  0  0  0  0  0  0  0  0  0
  -23.5188  -14.9923   20.7433 C   0  0  0  0  0  0  0  0  0  0  0  0
  -25.7755  -24.6306   19.6103 C   0  0  0  0  0  0  0  0  0  0  0  0
  -22.2703  -13.0055   20.6162 C   0  0  0  0  0  0  0  0  0  0  0  0
  -22.2048  -10.2342   20.3027 C   0  0  0  0  0  0  0  0  0  0  0  0
  -21.7342  -12.2022   21.6227 C   0  0  0  0  0  0  0  0  0  0  0  0
  -27.2976  -16.8926   20.6592 C   0  0  0  0  0  0  0  0  0  0  0  0
  -31.8267  -24.5157   19.2834 C   0  0  0  0  0  0  0  0  0  0  0  0
  -32.2958  -25.2191   18.2018 C   0  0  0  0  0  0  0  0  0  0  0  0
  -29.3414  -17.5202   20.1451 C   0  0  0  0  0  0  0  0  0  0  0  0
  -30.5059  -26.1186   18.9525 C   0  0  0  0  0  0  0  0  0  0  0  0
  -28.4142  -15.7496   18.6438 C   0  0  0  0  0  0  0  0  0  0  0  0
  -21.7238  -24.0901   23.1819 C   0  0  0  0  0  0  0  0  0  0  0  0
  -28.3580  -26.8270   18.3544 C   0  0  0  0  0  0  0  0  0  0  0  0
  -21.2818  -27.2990   23.0099 C   0  0  0  0  0  0  0  0  0  0  0  0
  -22.2187  -30.2836   21.6457 C   0  0  0  0  0  0  0  0  0  0  0  0
  -31.0256  -22.5595   21.8522 C   0  0  0  0  0  0  0  0  0  0  0  0
  -20.4634  -20.3080   26.3702 C   0  0  0  0  0  0  0  0  0  0  0  0
  -24.0683  -24.9414   23.5492 C   0  0  0  0  0  0  0  0  0  0  0  0
  -22.7663  -26.2684   21.2494 C   0  0  0  0  0  0  0  0  0  0  0  0
  -19.8934  -21.6817   26.0264 C   0  0  0  0  0  0  0  0  0  0  0  0
  -29.7997  -20.3194   24.3333 C   0  0  0  0  0  0  0  0  0  0  0  0
  -19.7786  -21.8490   24.5146 C   0  0  0  0  0  0  0  0  0  0  0  0
  -29.1209  -19.2130   23.5239 C   0  0  0  0  0  0  0  0  0  0  0  0
  -29.6074  -21.6899   23.6877 C   0  0  0  0  0  0  0  0  0  0  0  0
  -29.3365  -20.6642   21.4632 C   0  0  0  0  0  0  0  0  0  0  0  0
  -21.1547  -21.7600   23.8437 C   0  0  1  0  0  0  0  0  0  0  0  0
  -22.5785  -25.2699   23.5495 C   0  0  1  0  0  0  0  0  0  0  0  0
  -29.5502  -19.2563   22.0450 C   0  0  2  0  0  0  0  0  0  0  0  0
  -33.4444  -25.0889   17.2989 C   0  0  0  0  0  0  0  0  0  0  0  0
  -27.1583  -27.7481   18.3394 C   0  0  0  0  0  0  0  0  0  0  0  0
  -21.6475  -32.7271   21.6712 C   0  0  0  0  0  0  0  0  0  0  0  0
  -28.0627  -23.0754   17.6086 C   0  0  0  0  0  0  0  0  0  0  0  0
  -18.8364  -26.7430   21.2720 C   0  0  0  0  0  0  0  0  0  0  0  0
  -18.8804  -29.1440   20.5638 C   0  0  0  0  0  0  0  0  0  0  0  0
  -18.5236  -28.5593   22.9624 C   0  0  0  0  0  0  0  0  0  0  0  0
  -24.9047  -31.0198   22.6469 C   0  0  0  0  0  0  0  0  0  0  0  0
  -32.3851  -23.3132   19.9176 C   0  0  0  0  0  0  0  0  0  0  0  0
  -28.2955  -25.5779   17.4905 C   0  0  0  0  0  0  0  0  0  0  0  0
  -20.8168  -28.2584   21.9411 C   0  0  1  0  0  0  0  0  0  0  0  0
  -22.5116  -31.6324   22.2777 C   0  0  2  0  0  0  0  0  0  0  0  0
  -27.7378  -24.3993   18.2868 C   0  0  1  0  0  0  0  0  0  1  0  0
  -19.2871  -28.1595   21.6810 C   0  0  0  0  0  0  0  0  0  0  0  0
  -27.5989  -17.8263   21.5656 N   0  0  0  0  0  0  0  0  0  0  0  0
  -30.6797  -25.0970   19.7602 N   0  0  0  0  0  0  0  0  0  0  0  0
  -29.4560  -27.0478   19.0142 N   0  0  0  0  0  0  0  0  0  0  0  0
  -28.8479  -18.1885   21.2268 N   0  0  0  0  0  0  0  0  0  0  0  0
  -22.2377  -26.3498   22.6210 N   0  0  0  0  0  0  0  0  0  0  0  0
  -30.0349  -21.6636   22.2868 N   0  0  0  0  0  0  0  0  0  0  0  0
  -30.5818  -17.7619   19.6704 N   0  0  0  0  0  0  0  0  0  0  0  0
  -27.3022  -14.9395   18.3763 N   0  0  0  0  0  0  0  0  0  0  0  0
  -21.8819  -22.9994   24.0156 N   0  0  0  0  0  0  0  0  0  0  0  0
  -21.2680  -29.5821   22.3565 N   0  0  0  0  0  0  0  0  0  0  0  0
  -31.3769  -22.4636   20.5112 N   0  0  0  0  0  0  0  0  0  0  0  0
  -23.9424  -31.9983   22.0782 N   0  3  0  0  0  0  0  0  0  0  0  0
  -29.4371  -15.6450   17.9253 O   0  0  0  0  0  0  0  0  0  0  0  0
  -20.9753  -24.1642   22.2145 O   0  0  0  0  0  0  0  0  0  0  0  0
  -20.8196  -27.3931   24.1497 O   0  0  0  0  0  0  0  0  0  0  0  0
  -22.7748  -29.8931   20.6216 O   0  0  0  0  0  0  0  0  0  0  0  0
  -31.5615  -23.3801   22.6048 O   0  0  0  0  0  0  0  0  0  0  0  0
  -31.4465  -26.2606   17.9789 O   0  0  0  0  0  0  0  0  0  0  0  0
  -22.3028  -14.3813   20.7699 O   0  0  0  0  0  0  0  0  0  0  0  0
  -26.3196  -24.5357   18.3666 O   0  0  0  0  0  0  0  0  0  1  0  0
  -22.1721   -8.9037   20.1514 F   0  0  0  0  0  0  0  0  0  0  0  0
  -21.2481  -12.7561   22.7419 F   0  0  0  0  0  0  0  0  0  0  0  0
  1  2  1  0  0  0  0
  1  5  2  0  0  0  0
  2  6  2  0  0  0  0
  3  8  2  0  0  0  0
  3 15  1  0  0  0  0
  4  9  1  0  0  0  0
  4 15  2  0  0  0  0
  5 17  1  0  0  0  0
  6 19  1  0  0  0  0
  7 10  2  0  0  0  0
  7 18  1  0  0  0  0
  8 21  1  0  0  0  0
  9 21  2  0  0  0  0
 10 22  1  0  0  0  0
 11 12  2  0  0  0  0
 11 23  1  0  0  0  0
 12 24  1  0  0  0  0
 13 20  1  0  0  0  0
 13 22  2  0  0  0  0
 14 24  2  0  0  0  0
 14 25  1  0  0  0  0
 15 26  1  0  0  0  0
 16 26  1  0  0  0  0
 16 29  2  0  0  0  0
 16 31  1  0  0  0  0
 17 19  2  0  0  0  0
 17 37  1  0  0  0  0
 18 20  2  0  0  0  0
 18 38  1  0  0  0  0
 19 46  1  0  0  0  0
 20 39  1  0  0  0  0
 21 81  1  0  0  0  0
 22 82  1  0  0  0  0
 23 25  2  0  0  0  0
 23 81  1  0  0  0  0
 24 83  1  0  0  0  0
 25 84  1  0  0  0  0
 26 63  2  0  0  0  0
 27 28  2  0  0  0  0
 27 57  1  0  0  0  0
 27 64  1  0  0  0  0
 28 49  1  0  0  0  0
 28 80  1  0  0  0  0
 29 66  1  0  0  0  0
 29 69  1  0  0  0  0
 30 64  2  0  0  0  0
 30 65  1  0  0  0  0
 30 80  1  0  0  0  0
 31 70  1  0  0  0  0
 31 75  2  0  0  0  0
 32 47  1  0  0  0  0
 32 71  1  0  0  0  0
 32 76  2  0  0  0  0
 33 50  1  0  0  0  0
 33 58  1  0  0  0  0
 33 65  2  0  0  0  0
 34 59  1  0  0  0  0
 34 67  1  0  0  0  0
 34 77  2  0  0  0  0
 35 60  1  0  0  0  0
 35 72  1  0  0  0  0
 35 78  2  0  0  0  0
 36 68  1  0  0  0  0
 36 73  1  0  0  0  0
 36 79  2  0  0  0  0
 37 40  1  0  0  0  0
 38 47  1  0  0  0  0
 39 67  1  0  0  0  0
 40 42  1  0  0  0  0
 41 43  1  0  0  0  0
 41 44  1  0  0  0  0
 42 46  1  0  0  0  0
 43 48  1  0  0  0  0
 44 68  1  0  0  0  0
 45 48  1  0  0  0  0
 45 68  1  0  0  0  0
 46 71  1  0  0  0  0
 47 67  1  0  0  0  0
 48 66  1  0  0  0  0
 51 60  1  0  0  0  0
 52 61  1  0  0  0  0
 53 62  1  0  0  0  0
 54 62  1  0  0  0  0
 55 62  1  0  0  0  0
 56 74  1  0  0  0  0
 57 73  1  0  0  0  0
 58 61  1  0  0  0  0
 59 62  1  0  0  0  0
 59 72  1  0  0  0  0
 60 74  1  0  0  0  0
 61 82  1  0  0  0  0
 63 66  1  0  0  0  0
M  CHG  1  74   1
M  ISO  4  36 100  61 101  73 100  82 101
M  END
> <Batch ID>
0149

> <Smiles>
CNC(C)C(=O)NC(C(=O)N1Cc2cc([101O:1][101CH:1](C)C=C(C)Nc3nc(C[100NH:0][100C:0](=O)N4CCCC(n5nc(-c6ccc(Oc7ccc(F)cc7F)cc6)c(C(N)=O)c5N)C4)c(C)o3)ccc2CC1C(=O)NC1CCCc2ccccc21)C(C)(C)C

> <Shape>
0.204

> <Color>
0.071

> <Negative vol penalty>
0.000

$$$$

  -OEChem-04052303193D

 85 94  0     1  0  0  0  0  0999 V2000
  -17.7023  -27.6645   20.0024 C   0  0  0  0  0  0  0  0  0  0  0  0
  -18.9590  -27.8768   19.4446 C   0  0  0  0  0  0  0  0  0  0  0  0
  -26.6402  -12.5164   21.7269 C   0  0  0  0  0  0  0  0  0  0  0  0
  -26.0344  -13.9333   19.8662 C   0  0  0  0  0  0  0  0  0  0  0  0
  -17.3653  -28.2733   21.2106 C   0  0  0  0  0  0  0  0  0  0  0  0
  -19.8790  -28.6990   20.0942 C   0  0  0  0  0  0  0  0  0  0  0  0
  -24.5298  -26.6987   20.2094 C   0  0  0  0  0  0  0  0  0  0  0  0
  -25.3622  -11.9576   21.7176 C   0  0  0  0  0  0  0  0  0  0  0  0
  -24.7563  -13.3746   19.8568 C   0  0  0  0  0  0  0  0  0  0  0  0
  -25.2885  -26.7836   19.0428 C   0  0  0  0  0  0  0  0  0  0  0  0
  -23.6681   -9.6442   19.9257 C   0  0  0  0  0  0  0  0  0  0  0  0
  -23.5662   -8.2574   20.0348 C   0  0  0  0  0  0  0  0  0  0  0  0
  -26.4784  -28.6703   19.9611 C   0  0  0  0  0  0  0  0  0  0  0  0
  -30.3074  -22.8208   20.6081 C   0  0  0  0  0  0  0  0  0  0  0  0
  -22.2712   -8.5118   22.0585 C   0  0  0  0  0  0  0  0  0  0  0  0
  -26.9763  -13.5043   20.8013 C   0  0  0  0  0  0  0  0  0  0  0  0
  -29.4259  -13.6334   20.1010 C   0  0  0  0  0  0  0  0  0  0  0  0
  -18.2851  -29.0957   21.8801 C   0  0  0  0  0  0  0  0  0  0  0  0
  -24.7326  -27.6073   21.2580 C   0  0  0  0  0  0  0  0  0  0  0  0
  -19.5534  -29.3205   21.3118 C   0  0  0  0  0  0  0  0  0  0  0  0
  -25.7228  -28.5932   21.1410 C   0  0  0  0  0  0  0  0  0  0  0  0
  -30.0473  -23.7078   19.5441 C   0  0  0  0  0  0  0  0  0  0  0  0
  -24.4203  -12.3867   20.7825 C   0  0  0  0  0  0  0  0  0  0  0  0
  -26.2610  -27.7713   18.9173 C   0  0  0  0  0  0  0  0  0  0  0  0
  -23.0717  -10.4648   20.8830 C   0  0  0  0  0  0  0  0  0  0  0  0
  -22.8677   -7.6911   21.1012 C   0  0  0  0  0  0  0  0  0  0  0  0
  -22.3732   -9.8986   21.9494 C   0  0  0  0  0  0  0  0  0  0  0  0
  -28.2961  -14.0823   20.8108 C   0  0  0  0  0  0  0  0  0  0  0  0
  -29.3648  -23.1069   18.5247 C   0  0  0  0  0  0  0  0  0  0  0  0
  -30.4211  -14.5145   20.4468 C   0  0  0  0  0  0  0  0  0  0  0  0
  -29.7945  -21.5634   20.3297 C   0  0  0  0  0  0  0  0  0  0  0  0
  -29.5634  -12.5196   19.2086 C   0  0  0  0  0  0  0  0  0  0  0  0
  -22.9425  -29.8006   22.7033 C   0  0  0  0  0  0  0  0  0  0  0  0
  -25.5042  -30.0256   24.6806 C   0  0  0  0  0  0  0  0  0  0  0  0
  -29.7271  -26.4720   17.2200 C   0  0  0  0  0  0  0  0  0  0  0  0
  -28.8563  -29.5808   25.1415 C   0  0  0  0  0  0  0  0  0  0  0  0
  -30.3787  -20.1782   22.3511 C   0  0  0  0  0  0  0  0  0  0  0  0
  -17.8584  -29.7700   23.1599 C   0  0  0  0  0  0  0  0  0  0  0  0
  -23.9242  -27.4857   22.5206 C   0  0  0  0  0  0  0  0  0  0  0  0
  -25.9935  -29.5803   22.2460 C   0  0  0  0  0  0  0  0  0  0  0  0
  -30.3224  -25.1244   19.2420 C   0  0  0  0  0  0  0  0  0  0  0  0
  -29.0759  -24.0043   17.3941 C   0  0  0  0  0  0  0  0  0  0  0  0
  -19.0243  -30.3269   23.9730 C   0  0  0  0  0  0  0  0  0  0  0  0
  -31.8093  -17.3797   24.0242 C   0  0  0  0  0  0  0  0  0  0  0  0
  -19.9828  -31.0990   23.0719 C   0  0  0  0  0  0  0  0  0  0  0  0
  -31.1782  -16.1756   23.3214 C   0  0  0  0  0  0  0  0  0  0  0  0
  -30.8217  -18.5369   24.1636 C   0  0  0  0  0  0  0  0  0  0  0  0
  -29.5425  -17.7499   22.2107 C   0  0  0  0  0  0  0  0  0  0  0  0
  -20.5876  -30.1858   21.9987 C   0  0  1  0  0  0  0  0  0  0  0  0
  -23.8630  -28.7846   23.3184 C   0  0  1  0  0  0  0  0  0  0  0  0
  -30.5185  -16.5827   21.9892 C   0  0  2  0  0  0  0  0  0  0  0  0
  -30.6679  -29.8900   26.8502 C   0  0  0  0  0  0  0  0  0  0  0  0
  -28.7275  -28.0870   15.6241 C   0  0  0  0  0  0  0  0  0  0  0  0
  -25.5068  -33.0270   24.1311 C   0  0  0  0  0  0  0  0  0  0  0  0
  -27.8306  -33.1240   25.0579 C   0  0  0  0  0  0  0  0  0  0  0  0
  -25.9381  -32.4023   26.5141 C   0  0  0  0  0  0  0  0  0  0  0  0
  -29.4638  -26.6847   25.1912 C   0  0  0  0  0  0  0  0  0  0  0  0
  -27.2463  -26.6427   17.0704 C   0  0  0  0  0  0  0  0  0  1  0  0
  -26.7697  -30.8484   24.7013 C   0  0  1  0  0  0  0  0  0  0  0  0
  -29.6409  -28.9318   26.2674 C   0  0  2  0  0  0  0  0  0  0  0  0
  -28.5629  -26.7264   16.2965 C   0  0  2  0  0  0  0  0  0  0  0  0
  -26.5051  -32.3332   25.0793 C   0  0  0  0  0  0  0  0  0  0  0  0
  -28.5491  -15.1644   21.5518 N   0  0  0  0  0  0  0  0  0  0  0  0
  -29.8493  -15.4028   21.3095 N   0  0  0  0  0  0  0  0  0  0  0  0
  -29.6994  -25.2623   17.8970 N   0  0  0  0  0  0  0  0  0  0  0  0
  -25.1727  -29.4243   23.4582 N   0  0  0  0  0  0  0  0  0  0  0  0
  -30.2400  -18.8701   22.8615 N   0  0  0  0  0  0  0  0  0  0  0  0
  -31.7208  -14.6083   20.0942 N   0  0  0  0  0  0  0  0  0  0  0  0
  -28.4407  -11.7170   18.9639 N   0  0  0  0  0  0  0  0  0  0  0  0
  -29.8133  -20.3683   21.0907 N   0  0  0  0  0  0  0  0  0  0  0  0
  -21.6378  -29.3670   22.5652 N   0  0  0  0  0  0  0  0  0  0  0  0
  -27.6905  -30.1585   25.5982 N   0  0  0  0  0  0  0  0  0  0  0  0
  -28.5544  -25.6861   15.2238 N   0  3  0  0  0  0  0  0  0  0  0  0
  -30.3556  -27.7221   25.7704 N   0  3  0  0  0  0  0  0  0  0  0  0
  -30.6537  -12.2346   18.6578 O   0  0  0  0  0  0  0  0  0  0  0  0
  -23.3831  -30.8973   22.3795 O   0  0  0  0  0  0  0  0  0  0  0  0
  -24.8382  -29.9145   25.7130 O   0  0  0  0  0  0  0  0  0  0  0  0
  -30.6254  -27.3068   17.3384 O   0  0  0  0  0  0  0  0  0  0  0  0
  -29.2410  -29.5790   23.9742 O   0  0  0  0  0  0  0  0  0  0  0  0
  -30.9802  -21.0572   22.9736 O   0  0  0  0  0  0  0  0  0  0  0  0
  -23.1732  -11.8415   20.7729 O   0  0  0  0  0  0  0  0  0  0  0  0
  -27.0025  -27.8568   17.7795 O   0  0  0  0  0  0  0  0  0  1  0  0
  -22.7685   -6.3594   21.2050 F   0  0  0  0  0  0  0  0  0  0  0  0
  -21.7971  -10.6819   22.8716 F   0  0  0  0  0  0  0  0  0  0  0  0
  -29.0122  -21.4945   18.7870 S   0  0  0  0  0  0  0  0  0  0  0  0
  1  2  1  0  0  0  0
  1  5  2  0  0  0  0
  2  6  2  0  0  0  0
  3  8  2  0  0  0  0
  3 16  1  0  0  0  0
  4  9  1  0  0  0  0
  4 16  2  0  0  0  0
  5 18  1  0  0  0  0
  6 20  1  0  0  0  0
  7 10  2  0  0  0  0
  7 19  1  0  0  0  0
  8 23  1  0  0  0  0
  9 23  2  0  0  0  0
 10 24  1  0  0  0  0
 11 12  2  0  0  0  0
 11 25  1  0  0  0  0
 12 26  1  0  0  0  0
 13 21  1  0  0  0  0
 13 24  2  0  0  0  0
 14 22  1  0  0  0  0
 14 31  2  0  0  0  0
 15 26  2  0  0  0  0
 15 27  1  0  0  0  0
 16 28  1  0  0  0  0
 17 28  1  0  0  0  0
 17 30  2  0  0  0  0
 17 32  1  0  0  0  0
 18 20  2  0  0  0  0
 18 38  1  0  0  0  0
 19 21  2  0  0  0  0
 19 39  1  0  0  0  0
 20 49  1  0  0  0  0
 21 40  1  0  0  0  0
 22 29  2  0  0  0  0
 22 41  1  0  0  0  0
 23 81  1  0  0  0  0
 24 82  1  0  0  0  0
 25 27  2  0  0  0  0
 25 81  1  0  0  0  0
 26 83  1  0  0  0  0
 27 84  1  0  0  0  0
 28 63  2  0  0  0  0
 29 42  1  0  0  0  0
 29 85  1  0  0  0  0
 30 64  1  0  0  0  0
 30 68  1  0  0  0  0
 31 70  1  0  0  0  0
 31 85  1  0  0  0  0
 32 69  1  0  0  0  0
 32 75  2  0  0  0  0
 33 50  1  0  0  0  0
 33 71  1  0  0  0  0
 33 76  2  0  0  0  0
 34 59  1  0  0  0  0
 34 66  1  0  0  0  0
 34 77  2  0  0  0  0
 35 61  1  0  0  0  0
 35 65  1  0  0  0  0
 35 78  2  0  0  0  0
 36 60  1  0  0  0  0
 36 72  1  0  0  0  0
 36 79  2  0  0  0  0
 37 67  1  0  0  0  0
 37 70  1  0  0  0  0
 37 80  2  0  0  0  0
 38 43  1  0  0  0  0
 39 50  1  0  0  0  0
 40 66  1  0  0  0  0
 41 65  1  0  0  0  0
 42 65  1  0  0  0  0
 43 45  1  0  0  0  0
 44 46  1  0  0  0  0
 44 47  1  0  0  0  0
 45 49  1  0  0  0  0
 46 51  1  0  0  0  0
 47 67  1  0  0  0  0
 48 51  1  0  0  0  0
 48 67  1  0  0  0  0
 49 71  1  0  0  0  0
 50 66  1  0  0  0  0
 51 64  1  0  0  0  0
 52 60  1  0  0  0  0
 53 61  1  0  0  0  0
 54 62  1  0  0  0  0
 55 62  1  0  0  0  0
 56 62  1  0  0  0  0
 57 74  1  0  0  0  0
 58 61  1  0  0  0  0
 58 82  1  0  0  0  0
 59 62  1  0  0  0  0
 59 72  1  0  0  0  0
 60 74  1  0  0  0  0
 61 73  1  0  0  0  0
 63 64  1  0  0  0  0
M  CHG  2  73   1  74   1
M  ISO  4  37 100  58 101  70 100  82 101
M  END
> <Batch ID>
0149

> <Smiles>
CNC(C)C(=O)NC(C(=O)N1Cc2cc([101O:1][101CH2:1]C(C)(N)C(=O)N3Cc4cc([100NH:0][100C:0](=O)N5CCCC(n6nc(-c7ccc(Oc8ccc(F)cc8F)cc7)c(C(N)=O)c6N)C5)sc4C3)ccc2CC1C(=O)NC1CCCc2ccccc21)C(C)(C)C

> <Shape>
0.342

> <Color>
0.082

> <Negative vol penalty>
0.000

$$$$

  -OEChem-04052303193D

 79 88  0     1  0  0  0  0  0999 V2000
  -26.2571  -37.4964   21.5445 C   0  0  0  0  0  0  0  0  0  0  0  0
  -26.8831  -36.3437   21.0809 C   0  0  0  0  0  0  0  0  0  0  0  0
  -25.6978  -13.7690   22.0726 C   0  0  0  0  0  0  0  0  0  0  0  0
  -25.5607  -14.6229   19.8166 C   0  0  0  0  0  0  0  0  0  0  0  0
  -25.4098  -37.4316   22.6498 C   0  0  0  0  0  0  0  0  0  0  0  0
  -26.6628  -35.1257   21.7230 C   0  0  0  0  0  0  0  0  0  0  0  0
  -26.3904  -29.5885   19.1208 C   0  0  0  0  0  0  0  0  0  0  0  0
  -24.6597  -12.8786   21.7987 C   0  0  0  0  0  0  0  0  0  0  0  0
  -24.5226  -13.7324   19.5427 C   0  0  0  0  0  0  0  0  0  0  0  0
  -27.3284  -28.5650   18.9930 C   0  0  0  0  0  0  0  0  0  0  0  0
  -24.2725   -9.9136   20.2201 C   0  0  0  0  0  0  0  0  0  0  0  0
  -24.4218   -8.5935   20.6450 C   0  0  0  0  0  0  0  0  0  0  0  0
  -26.4134  -27.4904   20.9493 C   0  0  0  0  0  0  0  0  0  0  0  0
  -22.4388   -8.8082   22.0085 C   0  0  0  0  0  0  0  0  0  0  0  0
  -26.1483  -14.6413   21.0816 C   0  0  0  0  0  0  0  0  0  0  0  0
  -28.5997  -15.3377   21.1952 C   0  0  0  0  0  0  0  0  0  0  0  0
  -25.1714  -36.2105   23.2999 C   0  0  0  0  0  0  0  0  0  0  0  0
  -25.4623  -29.5762   20.1720 C   0  0  0  0  0  0  0  0  0  0  0  0
  -25.8125  -35.0448   22.8389 C   0  0  0  0  0  0  0  0  0  0  0  0
  -25.4630  -28.5136   21.0868 C   0  0  0  0  0  0  0  0  0  0  0  0
  -24.0721  -12.8603   20.5337 C   0  0  0  0  0  0  0  0  0  0  0  0
  -27.3419  -27.5172   19.9090 C   0  0  0  0  0  0  0  0  0  0  0  0
  -23.2065  -10.6811   20.6894 C   0  0  0  0  0  0  0  0  0  0  0  0
  -23.5049   -8.0408   21.5392 C   0  0  0  0  0  0  0  0  0  0  0  0
  -22.2896  -10.1284   21.5836 C   0  0  0  0  0  0  0  0  0  0  0  0
  -27.2202  -15.5617   21.3641 C   0  0  0  0  0  0  0  0  0  0  0  0
  -29.1901  -16.5093   21.6019 C   0  0  0  0  0  0  0  0  0  0  0  0
  -29.2861  -14.1746   20.7138 C   0  0  0  0  0  0  0  0  0  0  0  0
  -24.8358  -31.4871   22.6337 C   0  0  0  0  0  0  0  0  0  0  0  0
  -22.3289  -29.4728   23.0580 C   0  0  0  0  0  0  0  0  0  0  0  0
  -20.9814  -26.3781   22.5540 C   0  0  0  0  0  0  0  0  0  0  0  0
  -29.2069  -22.1601   21.4424 C   0  0  0  0  0  0  0  0  0  0  0  0
  -24.2845  -36.1984   24.5197 C   0  0  0  0  0  0  0  0  0  0  0  0
  -24.4397  -30.6740   20.2804 C   0  0  0  0  0  0  0  0  0  0  0  0
  -24.4748  -28.4431   22.2212 C   0  0  0  0  0  0  0  0  0  0  0  0
  -23.8103  -34.8021   24.9142 C   0  0  0  0  0  0  0  0  0  0  0  0
  -27.3135  -20.4998   24.0261 C   0  0  0  0  0  0  0  0  0  0  0  0
  -24.9759  -33.8182   24.8983 C   0  0  0  0  0  0  0  0  0  0  0  0
  -27.8180  -23.8714   18.7894 C   0  0  0  0  0  0  0  0  0  0  0  0
  -27.1724  -19.0681   23.5211 C   0  0  0  0  0  0  0  0  0  0  0  0
  -27.9032  -22.3987   18.3760 C   0  0  0  0  0  0  0  0  0  0  0  0
  -30.2544  -24.4427   19.3719 C   0  0  0  0  0  0  0  0  0  0  0  0
  -30.5131  -22.0589   18.2812 C   0  0  0  0  0  0  0  0  0  0  0  0
  -27.3117  -21.4854   22.8664 C   0  0  0  0  0  0  0  0  0  0  0  0
  -28.3169  -19.7814   21.3595 C   0  0  0  0  0  0  0  0  0  0  0  0
  -25.5793  -33.7004   23.4935 C   0  0  1  0  0  0  0  0  0  0  0  0
  -23.8730  -30.8257   21.6887 C   0  0  1  0  0  0  0  0  0  0  0  0
  -29.0590  -24.7039   18.4348 C   0  0  2  0  0  0  0  0  0  0  0  0
  -28.2775  -18.7502   22.5049 C   0  0  2  0  0  0  0  0  0  0  0  0
  -29.1407  -21.6493   18.8583 C   0  0  1  0  0  0  0  0  0  0  0  0
  -30.6699  -22.9798   19.5003 C   0  0  2  0  0  0  0  0  0  0  0  0
  -18.9322  -25.0172   23.0503 C   0  0  0  0  0  0  0  0  0  0  0  0
  -23.2745  -29.1028   25.9353 C   0  0  0  0  0  0  0  0  0  0  0  0
  -21.8155  -27.0734   26.0803 C   0  0  0  0  0  0  0  0  0  0  0  0
  -20.7966  -29.3131   25.6704 C   0  0  0  0  0  0  0  0  0  0  0  0
  -20.3754  -26.0285   19.6783 C   0  0  0  0  0  0  0  0  0  0  0  0
  -28.7097  -26.1966   18.4804 C   0  0  0  0  0  0  0  0  0  1  0  0
  -22.1056  -28.1900   23.8219 C   0  0  1  0  0  0  0  0  0  0  0  0
  -19.6148  -25.9434   22.0559 C   0  0  2  0  0  0  0  0  0  0  0  0
  -22.0180  -28.4219   25.3568 C   0  0  0  0  0  0  0  0  0  0  0  0
  -26.9502  -16.7798   21.8410 N   0  0  0  0  0  0  0  0  0  0  0  0
  -28.1682  -17.3316   21.9754 N   0  0  0  0  0  0  0  0  0  0  0  0
  -23.4988  -29.5433   22.2885 N   0  0  0  0  0  0  0  0  0  0  0  0
  -28.3222  -21.1614   21.8566 N   0  0  0  0  0  0  0  0  0  0  0  0
  -29.6481  -22.1356   20.1370 N   0  0  0  0  0  0  0  0  0  0  0  0
  -30.4786  -16.9059   21.6729 N   0  0  0  0  0  0  0  0  0  0  0  0
  -28.5266  -13.0582   20.3382 N   0  0  0  0  0  0  0  0  0  0  0  0
  -24.7466  -32.8659   22.6541 N   0  0  0  0  0  0  0  0  0  0  0  0
  -20.9183  -27.5712   23.2424 N   0  0  0  0  0  0  0  0  0  0  0  0
  -19.7415  -25.2260   20.7558 N   0  3  0  0  0  0  0  0  0  0  0  0
  -30.5369  -14.1209   20.6349 O   0  0  0  0  0  0  0  0  0  0  0  0
  -25.6020  -30.7975   23.2964 O   0  0  0  0  0  0  0  0  0  0  0  0
  -21.4924  -30.3761   23.1353 O   0  0  0  0  0  0  0  0  0  0  0  0
  -22.0020  -25.7228   22.3557 O   0  0  0  0  0  0  0  0  0  0  0  0
  -29.5537  -23.0752   22.2007 O   0  0  0  0  0  0  0  0  0  0  0  0
  -23.0593  -11.9913   20.2660 O   0  0  0  0  0  0  0  0  0  0  0  0
  -28.2658  -26.5074   19.7857 O   0  0  0  0  0  0  0  0  0  1  0  0
  -23.6475   -6.7725   21.9460 F   0  0  0  0  0  0  0  0  0  0  0  0
  -21.2628  -10.8604   22.0370 F   0  0  0  0  0  0  0  0  0  0  0  0
  1  2  1  0  0  0  0
  1  5  2  0  0  0  0
  2  6  2  0  0  0  0
  3  8  2  0  0  0  0
  3 15  1  0  0  0  0
  4  9  1  0  0  0  0
  4 15  2  0  0  0  0
  5 17  1  0  0  0  0
  6 19  1  0  0  0  0
  7 10  2  0  0  0  0
  7 18  1  0  0  0  0
  8 21  1  0  0  0  0
  9 21  2  0  0  0  0
 10 22  1  0  0  0  0
 11 12  2  0  0  0  0
 11 23  1  0  0  0  0
 12 24  1  0  0  0  0
 13 20  1  0  0  0  0
 13 22  2  0  0  0  0
 14 24  2  0  0  0  0
 14 25  1  0  0  0  0
 15 26  1  0  0  0  0
 16 26  1  0  0  0  0
 16 27  2  0  0  0  0
 16 28  1  0  0  0  0
 17 19  2  0  0  0  0
 17 33  1  0  0  0  0
 18 20  2  0  0  0  0
 18 34  1  0  0  0  0
 19 46  1  0  0  0  0
 20 35  1  0  0  0  0
 21 76  1  0  0  0  0
 22 77  1  0  0  0  0
 23 25  2  0  0  0  0
 23 76  1  0  0  0  0
 24 78  1  0  0  0  0
 25 79  1  0  0  0  0
 26 61  2  0  0  0  0
 27 62  1  0  0  0  0
 27 66  1  0  0  0  0
 28 67  1  0  0  0  0
 28 71  2  0  0  0  0
 29 47  1  0  0  0  0
 29 68  1  0  0  0  0
 29 72  2  0  0  0  0
 30 58  1  0  0  0  0
 30 63  1  0  0  0  0
 30 73  2  0  0  0  0
 31 59  1  0  0  0  0
 31 69  1  0  0  0  0
 31 74  2  0  0  0  0
 32 64  1  0  0  0  0
 32 65  1  0  0  0  0
 32 75  2  0  0  0  0
 33 36  1  0  0  0  0
 34 47  1  0  0  0  0
 35 63  1  0  0  0  0
 36 38  1  0  0  0  0
 37 40  1  0  0  0  0
 37 44  1  0  0  0  0
 38 46  1  0  0  0  0
 39 41  1  0  0  0  0
 39 48  1  0  0  0  0
 40 49  1  0  0  0  0
 41 50  1  0  0  0  0
 42 48  1  0  0  0  0
 42 51  1  0  0  0  0
 43 50  1  0  0  0  0
 43 51  1  0  0  0  0
 44 64  1  0  0  0  0
 45 49  1  0  0  0  0
 45 64  1  0  0  0  0
 46 68  1  0  0  0  0
 47 63  1  0  0  0  0
 48 57  1  0  0  0  0
 49 62  1  0  0  0  0
 50 65  1  0  0  0  0
 51 65  1  0  0  0  0
 52 59  1  0  0  0  0
 53 60  1  0  0  0  0
 54 60  1  0  0  0  0
 55 60  1  0  0  0  0
 56 70  1  0  0  0  0
 57 77  1  0  0  0  0
 58 60  1  0  0  0  0
 58 69  1  0  0  0  0
 59 70  1  0  0  0  0
 61 62  1  0  0  0  0
M  CHG  1  70   1
M  ISO  4  32 100  57 101  65 100  77 101
M  END
> <Batch ID>
0149

> <Smiles>
CNC(C)C(=O)NC(C(=O)N1Cc2cc([101O:1][101CH2:1]C3CCC4CC(C3)[100N:0]4[100C:0](=O)N3CCCC(n4nc(-c5ccc(Oc6ccc(F)cc6F)cc5)c(C(N)=O)c4N)C3)ccc2CC1C(=O)NC1CCCc2ccccc21)C(C)(C)C

> <Shape>
0.332

> <Color>
0.070

> <Negative vol penalty>
0.000

$$$$

  -OEChem-04052303193D

 83 91  0     1  0  0  0  0  0999 V2000
  -16.8159  -28.7488   24.4952 C   0  0  0  0  0  0  0  0  0  0  0  0
  -17.8784  -27.8535   24.5649 C   0  0  0  0  0  0  0  0  0  0  0  0
  -22.9830  -10.1384   21.6322 C   0  0  0  0  0  0  0  0  0  0  0  0
  -23.8051  -11.1797   23.6513 C   0  0  0  0  0  0  0  0  0  0  0  0
  -16.8094  -29.7466   23.5214 C   0  0  0  0  0  0  0  0  0  0  0  0
  -18.9345  -27.9547   23.6600 C   0  0  0  0  0  0  0  0  0  0  0  0
  -24.8424  -26.7645   24.7489 C   0  0  0  0  0  0  0  0  0  0  0  0
  -22.2066   -9.2680   22.3971 C   0  0  0  0  0  0  0  0  0  0  0  0
  -23.0287  -10.3093   24.4163 C   0  0  0  0  0  0  0  0  0  0  0  0
  -25.6370  -25.6480   24.4927 C   0  0  0  0  0  0  0  0  0  0  0  0
  -19.2732   -9.3683   24.0759 C   0  0  0  0  0  0  0  0  0  0  0  0
  -17.9527   -9.1583   23.6787 C   0  0  0  0  0  0  0  0  0  0  0  0
  -32.0043  -18.8026   19.6038 C   0  0  0  0  0  0  0  0  0  0  0  0
  -32.0052  -17.3886   19.5433 C   0  0  0  0  0  0  0  0  0  0  0  0
  -26.4078  -26.6728   22.4496 C   0  0  0  0  0  0  0  0  0  0  0  0
  -18.4081   -6.8008   23.4112 C   0  0  0  0  0  0  0  0  0  0  0  0
  -23.7824  -11.0942   22.2592 C   0  0  0  0  0  0  0  0  0  0  0  0
  -24.2085  -13.2552   20.9723 C   0  0  0  0  0  0  0  0  0  0  0  0
  -17.8706  -29.8662   22.6103 C   0  0  0  0  0  0  0  0  0  0  0  0
  -24.8162  -27.8408   23.8504 C   0  0  0  0  0  0  0  0  0  0  0  0
  -18.9415  -28.9542   22.6722 C   0  0  0  0  0  0  0  0  0  0  0  0
  -25.6140  -27.8030   22.6979 C   0  0  0  0  0  0  0  0  0  0  0  0
  -22.2294   -9.3535   23.7892 C   0  0  0  0  0  0  0  0  0  0  0  0
  -26.4177  -25.6007   23.3415 C   0  0  0  0  0  0  0  0  0  0  0  0
  -20.1612   -8.2945   24.1407 C   0  0  0  0  0  0  0  0  0  0  0  0
  -17.5201   -7.8746   23.3464 C   0  0  0  0  0  0  0  0  0  0  0  0
  -19.7286   -7.0108   23.8084 C   0  0  0  0  0  0  0  0  0  0  0  0
  -24.5851  -11.9932   21.4696 C   0  0  0  0  0  0  0  0  0  0  0  0
  -25.3157  -13.7008   20.2927 C   0  0  0  0  0  0  0  0  0  0  0  0
  -30.7839  -19.1618   20.1270 C   0  0  0  0  0  0  0  0  0  0  0  0
  -30.7855  -16.9844   20.0341 C   0  0  0  0  0  0  0  0  0  0  0  0
  -28.7496  -22.1680   21.0976 C   0  0  0  0  0  0  0  0  0  0  0  0
  -22.9686  -13.9615   21.1123 C   0  0  0  0  0  0  0  0  0  0  0  0
  -27.6217  -22.7060   21.5896 C   0  0  0  0  0  0  0  0  0  0  0  0
  -28.9655  -20.6943   20.9474 C   0  0  0  0  0  0  0  0  0  0  0  0
  -22.5765  -29.2166   22.0631 C   0  0  0  0  0  0  0  0  0  0  0  0
  -24.9384  -31.3497   21.4357 C   0  0  0  0  0  0  0  0  0  0  0  0
  -28.2841  -32.0044   21.2778 C   0  0  0  0  0  0  0  0  0  0  0  0
  -30.8177  -14.4682   19.9159 C   0  0  0  0  0  0  0  0  0  0  0  0
  -17.7964  -30.9315   21.5452 C   0  0  0  0  0  0  0  0  0  0  0  0
  -23.9741  -29.0494   24.1546 C   0  0  0  0  0  0  0  0  0  0  0  0
  -25.6370  -28.9411   21.7117 C   0  0  0  0  0  0  0  0  0  0  0  0
  -19.1340  -31.2037   20.8619 C   0  0  0  0  0  0  0  0  0  0  0  0
  -29.5555  -11.2803   18.9560 C   0  0  0  0  0  0  0  0  0  0  0  0
  -19.8156  -29.8932   20.4813 C   0  0  0  0  0  0  0  0  0  0  0  0
  -28.1189  -11.2854   19.4835 C   0  0  0  0  0  0  0  0  0  0  0  0
  -30.5106  -12.0023   19.9049 C   0  0  0  0  0  0  0  0  0  0  0  0
  -28.6686  -13.3690   20.8039 C   0  0  0  0  0  0  0  0  0  0  0  0
  -20.1173  -29.0471   21.7242 C   0  0  1  0  0  0  0  0  0  0  0  0
  -23.6314  -29.8668   22.9129 C   0  0  1  0  0  0  0  0  0  0  0  0
  -27.6584  -12.7097   19.8507 C   0  0  2  0  0  0  0  0  0  0  0  0
  -29.9096  -33.8255   20.6959 C   0  0  0  0  0  0  0  0  0  0  0  0
  -24.4223  -30.8590   18.4688 C   0  0  0  0  0  0  0  0  0  0  0  0
  -26.6332  -31.9268   17.9789 C   0  0  0  0  0  0  0  0  0  0  0  0
  -24.8262  -33.2513   19.0757 C   0  0  0  0  0  0  0  0  0  0  0  0
  -29.4079  -32.0354   24.0155 C   0  0  0  0  0  0  0  0  0  0  0  0
  -27.4330  -24.1885   21.7195 C   0  0  0  0  0  0  0  0  0  1  0  0
  -26.0287  -31.4629   20.3977 C   0  0  1  0  0  0  0  0  0  0  0  0
  -29.1098  -33.1632   21.8069 C   0  0  2  0  0  0  0  0  0  0  0  0
  -25.4759  -31.8525   18.9977 C   0  0  0  0  0  0  0  0  0  0  0  0
  -25.8339  -11.6585   21.1342 N   0  0  0  0  0  0  0  0  0  0  0  0
  -26.2516  -12.7168   20.4189 N   0  0  0  0  0  0  0  0  0  0  0  0
  -24.7919  -30.0980   22.0503 N   0  0  0  0  0  0  0  0  0  0  0  0
  -30.0121  -13.3464   20.2045 N   0  0  0  0  0  0  0  0  0  0  0  0
  -25.5702  -14.8344   19.6052 N   0  0  0  0  0  0  0  0  0  0  0  0
  -21.9353  -13.3591   21.8428 N   0  0  0  0  0  0  0  0  0  0  0  0
  -30.2211  -20.4300   20.4134 N   0  0  0  0  0  0  0  0  0  0  0  0
  -30.2256  -15.6952   20.2135 N   0  0  0  0  0  0  0  0  0  0  0  0
  -21.2837  -29.5577   22.4122 N   0  0  0  0  0  0  0  0  0  0  0  0
  -27.0085  -32.4006   20.9354 N   0  0  0  0  0  0  0  0  0  0  0  0
  -30.0606  -32.6874   22.8511 N   0  3  0  0  0  0  0  0  0  0  0  0
  -22.7770  -15.0862   20.5908 O   0  0  0  0  0  0  0  0  0  0  0  0
  -28.1080  -19.8822   21.2719 O   0  0  0  0  0  0  0  0  0  0  0  0
  -22.9107  -28.4626   21.1568 O   0  0  0  0  0  0  0  0  0  0  0  0
  -24.2472  -32.3374   21.6969 O   0  0  0  0  0  0  0  0  0  0  0  0
  -28.7275  -30.8628   21.1747 O   0  0  0  0  0  0  0  0  0  0  0  0
  -31.9388  -14.3503   19.4146 O   0  0  0  0  0  0  0  0  0  0  0  0
  -30.0351  -18.0593   20.3922 O   0  0  0  0  0  0  0  0  0  0  0  0
  -26.5503  -21.9335   21.9920 O   0  0  0  0  0  0  0  0  0  0  0  0
  -21.4717   -8.5045   24.5360 O   0  0  0  0  0  0  0  0  0  0  0  0
  -27.1937  -24.5118   23.0887 O   0  0  0  0  0  0  0  0  0  1  0  0
  -16.2516   -7.6728   22.9664 F   0  0  0  0  0  0  0  0  0  0  0  0
  -20.5768   -5.9751   23.8699 F   0  0  0  0  0  0  0  0  0  0  0  0
  1  2  1  0  0  0  0
  1  5  2  0  0  0  0
  2  6  2  0  0  0  0
  3  8  2  0  0  0  0
  3 17  1  0  0  0  0
  4  9  1  0  0  0  0
  4 17  2  0  0  0  0
  5 19  1  0  0  0  0
  6 21  1  0  0  0  0
  7 10  2  0  0  0  0
  7 20  1  0  0  0  0
  8 23  1  0  0  0  0
  9 23  2  0  0  0  0
 10 24  1  0  0  0  0
 11 12  2  0  0  0  0
 11 25  1  0  0  0  0
 12 26  1  0  0  0  0
 13 14  1  0  0  0  0
 13 30  2  0  0  0  0
 14 31  2  0  0  0  0
 15 22  1  0  0  0  0
 15 24  2  0  0  0  0
 16 26  2  0  0  0  0
 16 27  1  0  0  0  0
 17 28  1  0  0  0  0
 18 28  1  0  0  0  0
 18 29  2  0  0  0  0
 18 33  1  0  0  0  0
 19 21  2  0  0  0  0
 19 40  1  0  0  0  0
 20 22  2  0  0  0  0
 20 41  1  0  0  0  0
 21 49  1  0  0  0  0
 22 42  1  0  0  0  0
 23 80  1  0  0  0  0
 24 81  1  0  0  0  0
 25 27  2  0  0  0  0
 25 80  1  0  0  0  0
 26 82  1  0  0  0  0
 27 83  1  0  0  0  0
 28 61  2  0  0  0  0
 29 62  1  0  0  0  0
 29 65  1  0  0  0  0
 30 67  1  0  0  0  0
 30 78  1  0  0  0  0
 31 68  1  0  0  0  0
 31 78  1  0  0  0  0
 32 34  2  0  0  0  0
 32 35  1  0  0  0  0
 33 66  1  0  0  0  0
 33 72  2  0  0  0  0
 34 57  1  0  0  0  0
 34 79  1  0  0  0  0
 35 67  1  0  0  0  0
 35 73  2  0  0  0  0
 36 50  1  0  0  0  0
 36 69  1  0  0  0  0
 36 74  2  0  0  0  0
 37 58  1  0  0  0  0
 37 63  1  0  0  0  0
 37 75  2  0  0  0  0
 38 59  1  0  0  0  0
 38 70  1  0  0  0  0
 38 76  2  0  0  0  0
 39 64  1  0  0  0  0
 39 68  1  0  0  0  0
 39 77  2  0  0  0  0
 40 43  1  0  0  0  0
 41 50  1  0  0  0  0
 42 63  1  0  0  0  0
 43 45  1  0  0  0  0
 44 46  1  0  0  0  0
 44 47  1  0  0  0  0
 45 49  1  0  0  0  0
 46 51  1  0  0  0  0
 47 64  1  0  0  0  0
 48 51  1  0  0  0  0
 48 64  1  0  0  0  0
 49 69  1  0  0  0  0
 50 63  1  0  0  0  0
 51 62  1  0  0  0  0
 52 59  1  0  0  0  0
 53 60  1  0  0  0  0
 54 60  1  0  0  0  0
 55 60  1  0  0  0  0
 56 71  1  0  0  0  0
 57 81  1  0  0  0  0
 58 60  1  0  0  0  0
 58 70  1  0  0  0  0
 59 71  1  0  0  0  0
 61 62  1  0  0  0  0
M  CHG  1  71   1
M  ISO  4  39 100  57 101  68 100  81 101
M  END
> <Batch ID>
0149

> <Smiles>
CNC(C)C(=O)NC(C(=O)N1Cc2cc([101O:1][101CH2:1]C(=O)CC(=O)Nc3ccc([100NH:0][100C:0](=O)N4CCCC(n5nc(-c6ccc(Oc7ccc(F)cc7F)cc6)c(C(N)=O)c5N)C4)o3)ccc2CC1C(=O)NC1CCCc2ccccc21)C(C)(C)C

> <Shape>
0.246

> <Color>
0.153

> <Negative vol penalty>
0.000

$$$$

  -OEChem-04052303193D

 87 96  0     1  0  0  0  0  0999 V2000
  -26.9676  -34.2355   25.5607 C   0  0  0  0  0  0  0  0  0  0  0  0
  -27.3447  -33.0440   24.9495 C   0  0  0  0  0  0  0  0  0  0  0  0
  -22.4458   -9.6026   21.0071 C   0  0  0  0  0  0  0  0  0  0  0  0
  -24.7728   -9.6545   21.6545 C   0  0  0  0  0  0  0  0  0  0  0  0
  -29.5277  -19.8649   18.4384 C   0  0  0  0  0  0  0  0  0  0  0  0
  -25.6524  -34.4124   25.9884 C   0  0  0  0  0  0  0  0  0  0  0  0
  -26.4071  -32.0282   24.7666 C   0  0  0  0  0  0  0  0  0  0  0  0
  -26.6393  -29.9796   20.1413 C   0  0  0  0  0  0  0  0  0  0  0  0
  -28.5576  -18.9238   18.0938 C   0  0  0  0  0  0  0  0  0  0  0  0
  -22.4028   -8.2337   21.2713 C   0  0  0  0  0  0  0  0  0  0  0  0
  -24.7299   -8.2856   21.9187 C   0  0  0  0  0  0  0  0  0  0  0  0
  -27.6649  -29.0665   19.9001 C   0  0  0  0  0  0  0  0  0  0  0  0
  -22.1589   -6.2263   23.9813 C   0  0  0  0  0  0  0  0  0  0  0  0
  -21.0656   -5.7382   24.6968 C   0  0  0  0  0  0  0  0  0  0  0  0
  -28.7928  -19.7802   20.7384 C   0  0  0  0  0  0  0  0  0  0  0  0
  -26.1137  -27.2478   20.2244 C   0  0  0  0  0  0  0  0  0  0  0  0
  -20.4885   -4.3063   22.8384 C   0  0  0  0  0  0  0  0  0  0  0  0
  -23.6308  -10.3130   21.1986 C   0  0  0  0  0  0  0  0  0  0  0  0
  -29.6453  -20.2931   19.7608 C   0  0  0  0  0  0  0  0  0  0  0  0
  -23.4028  -12.7757   21.8239 C   0  0  0  0  0  0  0  0  0  0  0  0
  -24.6958  -33.4020   25.8021 C   0  0  0  0  0  0  0  0  0  0  0  0
  -25.3435  -29.5328   20.4371 C   0  0  0  0  0  0  0  0  0  0  0  0
  -25.0782  -32.1912   25.1935 C   0  0  0  0  0  0  0  0  0  0  0  0
  -25.0729  -28.1573   20.4664 C   0  0  0  0  0  0  0  0  0  0  0  0
  -27.7050  -18.4109   19.0715 C   0  0  0  0  0  0  0  0  0  0  0  0
  -27.8226  -18.8391   20.3938 C   0  0  0  0  0  0  0  0  0  0  0  0
  -23.5448   -7.5752   21.7272 C   0  0  0  0  0  0  0  0  0  0  0  0
  -27.4028  -27.7003   19.9445 C   0  0  0  0  0  0  0  0  0  0  0  0
  -22.4170   -5.7545   22.6942 C   0  0  0  0  0  0  0  0  0  0  0  0
  -20.2304   -4.7782   24.1254 C   0  0  0  0  0  0  0  0  0  0  0  0
  -21.5817   -4.7945   22.1228 C   0  0  0  0  0  0  0  0  0  0  0  0
  -23.6760  -11.7270   20.9253 C   0  0  0  0  0  0  0  0  0  0  0  0
  -23.5841  -13.9182   21.0835 C   0  0  0  0  0  0  0  0  0  0  0  0
  -30.6705  -21.2877   20.1240 C   0  0  0  0  0  0  0  0  0  0  0  0
  -23.0194  -12.7218   23.2044 C   0  0  0  0  0  0  0  0  0  0  0  0
  -23.3893  -29.8098   22.9287 C   0  0  0  0  0  0  0  0  0  0  0  0
  -21.2827  -28.3448   20.9442 C   0  0  0  0  0  0  0  0  0  0  0  0
  -20.7728  -26.3324   18.2355 C   0  0  0  0  0  0  0  0  0  0  0  0
  -26.4952  -16.9396   17.4229 C   0  0  0  0  0  0  0  0  0  0  0  0
  -23.2977  -33.6207   26.3237 C   0  0  0  0  0  0  0  0  0  0  0  0
  -24.2422  -30.5308   20.6685 C   0  0  0  0  0  0  0  0  0  0  0  0
  -23.6942  -27.6263   20.7594 C   0  0  0  0  0  0  0  0  0  0  0  0
  -22.2750  -32.6406   25.7548 C   0  0  0  0  0  0  0  0  0  0  0  0
  -24.2113  -14.5495   16.1005 C   0  0  0  0  0  0  0  0  0  0  0  0
  -22.8159  -31.2152   25.8059 C   0  0  0  0  0  0  0  0  0  0  0  0
  -23.8460  -13.6884   17.3118 C   0  0  0  0  0  0  0  0  0  0  0  0
  -30.4390  -24.8769   20.4733 C   0  0  0  0  0  0  0  0  0  0  0  0
  -25.6767  -14.9802   16.1322 C   0  0  0  0  0  0  0  0  0  0  0  0
  -31.3269  -23.6380   20.4192 C   0  0  0  0  0  0  0  0  0  0  0  0
  -25.7393  -14.7738   18.5863 C   0  0  0  0  0  0  0  0  0  0  0  0
  -29.0509  -23.0861   19.6710 C   0  0  0  0  0  0  0  0  0  0  0  0
  -24.0840  -31.0755   24.9551 C   0  0  1  0  0  0  0  0  0  0  0  0
  -23.0751  -29.9584   21.4669 C   0  0  1  0  0  0  0  0  0  0  0  0
  -24.2566  -14.3696   18.6320 C   0  0  2  0  0  0  0  0  0  0  0  0
  -29.3093  -24.5900   19.4661 C   0  0  2  0  0  0  0  0  0  0  0  0
  -29.7705  -24.8698   18.0267 C   0  0  0  0  0  0  0  0  0  0  0  0
  -18.9416  -25.2833   16.8778 C   0  0  0  0  0  0  0  0  0  0  0  0
  -20.8371  -26.2795   23.1455 C   0  0  0  0  0  0  0  0  0  0  0  0
  -19.7795  -24.7876   21.4356 C   0  0  0  0  0  0  0  0  0  0  0  0
  -18.7587  -27.0030   21.9576 C   0  0  0  0  0  0  0  0  0  0  0  0
  -21.6171  -27.7567   15.7824 C   0  0  0  0  0  0  0  0  0  0  0  0
  -28.0631  -25.4221   19.7716 C   0  0  0  0  0  0  0  0  0  1  0  0
  -20.9166  -26.9114   20.6435 C   0  0  1  0  0  0  0  0  0  0  0  0
  -19.8668  -26.4810   17.0265 C   0  0  2  0  0  0  0  0  0  0  0  0
  -20.0995  -26.2551   21.7919 C   0  0  0  0  0  0  0  0  0  0  0  0
  -24.0056  -12.1645   19.7071 N   0  0  0  0  0  0  0  0  0  0  0  0
  -23.9406  -13.5007   19.8350 N   0  0  0  0  0  0  0  0  0  0  0  0
  -30.3729  -22.5734   20.0760 N   0  0  0  0  0  0  0  0  0  0  0  0
  -22.6524  -28.6418   20.9851 N   0  0  0  0  0  0  0  0  0  0  0  0
  -25.9919  -15.6215   17.4105 N   0  0  0  0  0  0  0  0  0  0  0  0
  -26.9688  -18.3332   21.3997 N   0  0  0  0  0  0  0  0  0  0  0  0
  -23.4716  -15.2293   21.3851 N   0  0  0  0  0  0  0  0  0  0  0  0
  -22.8782  -11.4658   23.8101 N   0  0  0  0  0  0  0  0  0  0  0  0
  -26.7271  -17.4563   18.6972 N   0  0  0  0  0  0  0  0  0  0  0  0
  -23.7439  -30.9916   23.5509 N   0  0  0  0  0  0  0  0  0  0  0  0
  -20.2313  -26.9267   19.3556 N   0  0  0  0  0  0  0  0  0  0  0  0
  -31.8785  -20.8747   20.4962 N   0  3  0  0  0  0  0  0  0  0  0  0
  -20.6786  -26.6051   15.7829 N   0  3  0  0  0  0  0  0  0  0  0  0
  -22.7924  -13.7564   23.8763 O   0  0  0  0  0  0  0  0  0  0  0  0
  -23.3142  -28.7050   23.4536 O   0  0  0  0  0  0  0  0  0  0  0  0
  -20.3864  -29.1720   21.1287 O   0  0  0  0  0  0  0  0  0  0  0  0
  -21.8511  -25.7444   18.1915 O   0  0  0  0  0  0  0  0  0  0  0  0
  -26.6793  -17.5737   16.3808 O   0  0  0  0  0  0  0  0  0  0  0  0
  -23.5032   -6.2394   21.9853 O   0  0  0  0  0  0  0  0  0  0  0  0
  -28.4022  -26.8069   19.7101 O   0  0  0  0  0  0  0  0  0  1  0  0
  -19.1814   -4.3085   24.8133 F   0  0  0  0  0  0  0  0  0  0  0  0
  -21.8253   -4.3365   20.8872 F   0  0  0  0  0  0  0  0  0  0  0  0
  1  2  1  0  0  0  0
  1  6  2  0  0  0  0
  2  7  2  0  0  0  0
  3 10  2  0  0  0  0
  3 18  1  0  0  0  0
  4 11  1  0  0  0  0
  4 18  2  0  0  0  0
  5  9  2  0  0  0  0
  5 19  1  0  0  0  0
  6 21  1  0  0  0  0
  7 23  1  0  0  0  0
  8 12  2  0  0  0  0
  8 22  1  0  0  0  0
  9 25  1  0  0  0  0
 10 27  1  0  0  0  0
 11 27  2  0  0  0  0
 12 28  1  0  0  0  0
 13 14  2  0  0  0  0
 13 29  1  0  0  0  0
 14 30  1  0  0  0  0
 15 19  2  0  0  0  0
 15 26  1  0  0  0  0
 16 24  1  0  0  0  0
 16 28  2  0  0  0  0
 17 30  2  0  0  0  0
 17 31  1  0  0  0  0
 18 32  1  0  0  0  0
 19 34  1  0  0  0  0
 20 32  1  0  0  0  0
 20 33  2  0  0  0  0
 20 35  1  0  0  0  0
 21 23  2  0  0  0  0
 21 40  1  0  0  0  0
 22 24  2  0  0  0  0
 22 41  1  0  0  0  0
 23 52  1  0  0  0  0
 24 42  1  0  0  0  0
 25 26  2  0  0  0  0
 25 74  1  0  0  0  0
 26 71  1  0  0  0  0
 27 84  1  0  0  0  0
 28 85  1  0  0  0  0
 29 31  2  0  0  0  0
 29 84  1  0  0  0  0
 30 86  1  0  0  0  0
 31 87  1  0  0  0  0
 32 66  2  0  0  0  0
 33 67  1  0  0  0  0
 33 72  1  0  0  0  0
 34 68  1  0  0  0  0
 34 77  2  0  0  0  0
 35 73  1  0  0  0  0
 35 79  2  0  0  0  0
 36 53  1  0  0  0  0
 36 75  1  0  0  0  0
 36 80  2  0  0  0  0
 37 63  1  0  0  0  0
 37 69  1  0  0  0  0
 37 81  2  0  0  0  0
 38 64  1  0  0  0  0
 38 76  1  0  0  0  0
 38 82  2  0  0  0  0
 39 70  1  0  0  0  0
 39 74  1  0  0  0  0
 39 83  2  0  0  0  0
 40 43  1  0  0  0  0
 41 53  1  0  0  0  0
 42 69  1  0  0  0  0
 43 45  1  0  0  0  0
 44 46  1  0  0  0  0
 44 48  1  0  0  0  0
 45 52  1  0  0  0  0
 46 54  1  0  0  0  0
 47 49  1  0  0  0  0
 47 55  1  0  0  0  0
 48 70  1  0  0  0  0
 49 68  1  0  0  0  0
 50 54  1  0  0  0  0
 50 70  1  0  0  0  0
 51 55  1  0  0  0  0
 51 68  1  0  0  0  0
 52 75  1  0  0  0  0
 53 69  1  0  0  0  0
 54 67  1  0  0  0  0
 55 56  1  0  0  0  0
 55 62  1  0  0  0  0
 57 64  1  0  0  0  0
 58 65  1  0  0  0  0
 59 65  1  0  0  0  0
 60 65  1  0  0  0  0
 61 78  1  0  0  0  0
 62 85  1  0  0  0  0
 63 65  1  0  0  0  0
 63 76  1  0  0  0  0
 64 78  1  0  0  0  0
 66 67  1  0  0  0  0
M  CHG  2  77   1  78   1
M  ISO  4  39 100  62 101  74 100  85 101
M  END
> <Batch ID>
0149

> <Smiles>
CNC(C)C(=O)NC(C(=O)N1Cc2cc([101O:1][101CH2:1]C3(C)CCN(C(=N)c4ccc([100NH:0][100C:0](=O)N5CCCC(n6nc(-c7ccc(Oc8ccc(F)cc8F)cc7)c(C(N)=O)c6N)C5)c(N)c4)C3)ccc2CC1C(=O)NC1CCCc2ccccc21)C(C)(C)C

> <Shape>
0.311

> <Color>
0.086

> <Negative vol penalty>
0.000

$$$$

  -OEChem-04052303193D

 81 89  0     1  0  0  0  0  0999 V2000
  -37.7221  -33.6779   27.6413 C   0  0  0  0  0  0  0  0  0  0  0  0
  -37.3325  -32.3557   27.4533 C   0  0  0  0  0  0  0  0  0  0  0  0
  -23.1033   -9.8094   19.9640 C   0  0  0  0  0  0  0  0  0  0  0  0
  -23.8214   -9.8955   22.2692 C   0  0  0  0  0  0  0  0  0  0  0  0
  -36.7659  -34.6511   27.9287 C   0  0  0  0  0  0  0  0  0  0  0  0
  -35.9865  -32.0057   27.5537 C   0  0  0  0  0  0  0  0  0  0  0  0
  -33.0448  -27.7227   24.3119 C   0  0  0  0  0  0  0  0  0  0  0  0
  -22.3662   -8.6571   20.2366 C   0  0  0  0  0  0  0  0  0  0  0  0
  -23.0843   -8.7431   22.5419 C   0  0  0  0  0  0  0  0  0  0  0  0
  -32.6976  -26.4032   24.5983 C   0  0  0  0  0  0  0  0  0  0  0  0
  -19.4000   -7.8759   21.6594 C   0  0  0  0  0  0  0  0  0  0  0  0
  -18.1026   -7.8012   21.1526 C   0  0  0  0  0  0  0  0  0  0  0  0
  -30.5027  -27.1352   25.2808 C   0  0  0  0  0  0  0  0  0  0  0  0
  -18.7050   -5.8238   19.9019 C   0  0  0  0  0  0  0  0  0  0  0  0
  -31.7096  -18.8241   22.1511 C   0  0  0  0  0  0  0  0  0  0  0  0
  -23.8310  -10.4286   20.9803 C   0  0  0  0  0  0  0  0  0  0  0  0
  -24.1505  -12.9522   20.7875 C   0  0  0  0  0  0  0  0  0  0  0  0
  -35.4063  -34.3145   28.0231 C   0  0  0  0  0  0  0  0  0  0  0  0
  -32.1256  -28.7614   24.5185 C   0  0  0  0  0  0  0  0  0  0  0  0
  -35.0113  -32.9750   27.8439 C   0  0  0  0  0  0  0  0  0  0  0  0
  -30.8398  -28.4667   24.9938 C   0  0  0  0  0  0  0  0  0  0  0  0
  -22.3567   -8.1239   21.5255 C   0  0  0  0  0  0  0  0  0  0  0  0
  -31.4274  -26.1095   25.0856 C   0  0  0  0  0  0  0  0  0  0  0  0
  -20.3499   -6.9246   21.2874 C   0  0  0  0  0  0  0  0  0  0  0  0
  -17.7551   -6.7752   20.2739 C   0  0  0  0  0  0  0  0  0  0  0  0
  -20.0024   -5.8985   20.4087 C   0  0  0  0  0  0  0  0  0  0  0  0
  -24.5931  -11.6187   20.6992 C   0  0  0  0  0  0  0  0  0  0  0  0
  -25.2418  -13.7011   20.4205 C   0  0  0  0  0  0  0  0  0  0  0  0
  -30.5910  -19.2027   22.8635 C   0  0  0  0  0  0  0  0  0  0  0  0
  -30.4954  -17.0245   21.8393 C   0  0  0  0  0  0  0  0  0  0  0  0
  -22.8677  -13.4678   21.1674 C   0  0  0  0  0  0  0  0  0  0  0  0
  -32.0424  -31.3494   26.3621 C   0  0  0  0  0  0  0  0  0  0  0  0
  -30.7931  -22.6058   24.4321 C   0  0  0  0  0  0  0  0  0  0  0  0
  -29.3230  -31.9659   24.7045 C   0  0  0  0  0  0  0  0  0  0  0  0
  -26.7188  -30.7591   22.8583 C   0  0  0  0  0  0  0  0  0  0  0  0
  -30.6936  -14.8074   20.6598 C   0  0  0  0  0  0  0  0  0  0  0  0
  -34.4148  -35.3927   28.3823 C   0  0  0  0  0  0  0  0  0  0  0  0
  -32.5066  -30.1764   24.1794 C   0  0  0  0  0  0  0  0  0  0  0  0
  -29.8096  -29.5432   25.2137 C   0  0  0  0  0  0  0  0  0  0  0  0
  -32.9653  -35.0053   28.1013 C   0  0  0  0  0  0  0  0  0  0  0  0
  -29.6456  -12.3100   18.3486 C   0  0  0  0  0  0  0  0  0  0  0  0
  -32.6773  -33.6009   28.6226 C   0  0  0  0  0  0  0  0  0  0  0  0
  -28.2013  -12.0172   18.7613 C   0  0  0  0  0  0  0  0  0  0  0  0
  -30.5366  -12.5853   19.5586 C   0  0  0  0  0  0  0  0  0  0  0  0
  -28.5980  -13.3328   20.8824 C   0  0  0  0  0  0  0  0  0  0  0  0
  -33.5579  -32.5604   27.9201 C   0  0  1  0  0  0  0  0  0  0  0  0
  -31.6642  -31.2145   24.9142 C   0  0  1  0  0  0  0  0  0  0  0  0
  -27.6484  -13.1131   19.6934 C   0  0  2  0  0  0  0  0  0  0  0  0
  -24.6344  -31.4994   21.6733 C   0  0  0  0  0  0  0  0  0  0  0  0
  -27.8985  -32.2429   27.3885 C   0  0  0  0  0  0  0  0  0  0  0  0
  -25.7190  -32.0299   26.1748 C   0  0  0  0  0  0  0  0  0  0  0  0
  -27.2398  -33.9437   25.6775 C   0  0  0  0  0  0  0  0  0  0  0  0
  -27.7278  -29.8072   20.2440 C   0  0  0  0  0  0  0  0  0  0  0  0
  -31.3473  -21.4590   23.6137 C   0  0  0  0  0  0  0  0  0  0  0  0
  -31.7128  -23.8006   24.5924 C   0  0  0  0  0  0  0  0  0  1  0  0
  -27.8628  -31.6262   24.8816 C   0  0  1  0  0  0  0  0  0  0  0  0
  -26.1224  -31.2157   21.5392 C   0  0  2  0  0  0  0  0  0  0  0  0
  -27.1999  -32.4404   26.0284 C   0  0  0  0  0  0  0  0  0  0  0  0
  -31.6568  -17.5752   21.5634 N   0  0  0  0  0  0  0  0  0  0  0  0
  -25.8662  -11.5229   20.3067 N   0  0  0  0  0  0  0  0  0  0  0  0
  -26.2329  -12.8056   20.1451 N   0  0  0  0  0  0  0  0  0  0  0  0
  -30.2321  -30.9119   24.8734 N   0  0  0  0  0  0  0  0  0  0  0  0
  -29.9519  -13.6371   20.3933 N   0  0  0  0  0  0  0  0  0  0  0  0
  -25.4406  -15.0318   20.3096 N   0  0  0  0  0  0  0  0  0  0  0  0
  -21.8587  -12.5592   21.5149 N   0  0  0  0  0  0  0  0  0  0  0  0
  -30.3812  -20.3926   23.5457 N   0  0  0  0  0  0  0  0  0  0  0  0
  -30.0227  -15.7507   21.4373 N   0  0  0  0  0  0  0  0  0  0  0  0
  -33.0433  -32.2723   26.5986 N   0  0  0  0  0  0  0  0  0  0  0  0
  -27.2386  -31.8151   23.5766 N   0  0  0  0  0  0  0  0  0  0  0  0
  -26.3089  -30.1678   20.4960 N   0  3  0  0  0  0  0  0  0  0  0  0
  -22.6186  -14.6971   21.1820 O   0  0  0  0  0  0  0  0  0  0  0  0
  -31.4675  -30.6678   27.2028 O   0  0  0  0  0  0  0  0  0  0  0  0
  -29.6721  -22.5808   24.9386 O   0  0  0  0  0  0  0  0  0  0  0  0
  -29.6447  -33.1222   24.4196 O   0  0  0  0  0  0  0  0  0  0  0  0
  -26.7199  -29.5837   23.2175 O   0  0  0  0  0  0  0  0  0  0  0  0
  -31.8293  -14.9730   20.2073 O   0  0  0  0  0  0  0  0  0  0  0  0
  -21.6373   -6.9996   21.7920 O   0  0  0  0  0  0  0  0  0  0  0  0
  -31.0862  -24.8225   25.3666 O   0  0  0  0  0  0  0  0  0  1  0  0
  -16.5088   -6.7027   19.7886 F   0  0  0  0  0  0  0  0  0  0  0  0
  -20.9103   -4.9810   20.0486 F   0  0  0  0  0  0  0  0  0  0  0  0
  -29.4184  -17.9528   22.8002 S   0  0  0  0  0  0  0  0  0  0  0  0
  1  2  1  0  0  0  0
  1  5  2  0  0  0  0
  2  6  2  0  0  0  0
  3  8  2  0  0  0  0
  3 16  1  0  0  0  0
  4  9  1  0  0  0  0
  4 16  2  0  0  0  0
  5 18  1  0  0  0  0
  6 20  1  0  0  0  0
  7 10  2  0  0  0  0
  7 19  1  0  0  0  0
  8 22  1  0  0  0  0
  9 22  2  0  0  0  0
 10 23  1  0  0  0  0
 11 12  2  0  0  0  0
 11 24  1  0  0  0  0
 12 25  1  0  0  0  0
 13 21  1  0  0  0  0
 13 23  2  0  0  0  0
 14 25  2  0  0  0  0
 14 26  1  0  0  0  0
 15 29  2  0  0  0  0
 15 59  1  0  0  0  0
 16 27  1  0  0  0  0
 17 27  1  0  0  0  0
 17 28  2  0  0  0  0
 17 31  1  0  0  0  0
 18 20  2  0  0  0  0
 18 37  1  0  0  0  0
 19 21  2  0  0  0  0
 19 38  1  0  0  0  0
 20 46  1  0  0  0  0
 21 39  1  0  0  0  0
 22 77  1  0  0  0  0
 23 78  1  0  0  0  0
 24 26  2  0  0  0  0
 24 77  1  0  0  0  0
 25 79  1  0  0  0  0
 26 80  1  0  0  0  0
 27 60  2  0  0  0  0
 28 61  1  0  0  0  0
 28 64  1  0  0  0  0
 29 66  1  0  0  0  0
 29 81  1  0  0  0  0
 30 59  2  0  0  0  0
 30 67  1  0  0  0  0
 30 81  1  0  0  0  0
 31 65  1  0  0  0  0
 31 71  2  0  0  0  0
 32 47  1  0  0  0  0
 32 68  1  0  0  0  0
 32 72  2  0  0  0  0
 33 54  1  0  0  0  0
 33 55  1  0  0  0  0
 33 73  2  0  0  0  0
 34 56  1  0  0  0  0
 34 62  1  0  0  0  0
 34 74  2  0  0  0  0
 35 57  1  0  0  0  0
 35 69  1  0  0  0  0
 35 75  2  0  0  0  0
 36 63  1  0  0  0  0
 36 67  1  0  0  0  0
 36 76  2  0  0  0  0
 37 40  1  0  0  0  0
 38 47  1  0  0  0  0
 39 62  1  0  0  0  0
 40 42  1  0  0  0  0
 41 43  1  0  0  0  0
 41 44  1  0  0  0  0
 42 46  1  0  0  0  0
 43 48  1  0  0  0  0
 44 63  1  0  0  0  0
 45 48  1  0  0  0  0
 45 63  1  0  0  0  0
 46 68  1  0  0  0  0
 47 62  1  0  0  0  0
 48 61  1  0  0  0  0
 49 57  1  0  0  0  0
 50 58  1  0  0  0  0
 51 58  1  0  0  0  0
 52 58  1  0  0  0  0
 53 70  1  0  0  0  0
 54 66  1  0  0  0  0
 55 78  1  0  0  0  0
 56 58  1  0  0  0  0
 56 69  1  0  0  0  0
 57 70  1  0  0  0  0
 60 61  1  0  0  0  0
M  CHG  1  70   1
M  ISO  4  36 100  55 101  67 100  78 101
M  END
> <Batch ID>
0149

> <Smiles>
CNC(C)C(=O)NC(C(=O)N1Cc2cc([101O:1][101CH2:1]C(=O)CNc3cnc([100NH:0][100C:0](=O)N4CCCC(n5nc(-c6ccc(Oc7ccc(F)cc7F)cc6)c(C(N)=O)c5N)C4)s3)ccc2CC1C(=O)NC1CCCc2ccccc21)C(C)(C)C

> <Shape>
0.228

> <Color>
0.189

> <Negative vol penalty>
0.000

$$$$

  -OEChem-04052303193D

 86 95  0     1  0  0  0  0  0999 V2000
  -18.5044  -28.6691   22.9791 C   0  0  0  0  0  0  0  0  0  0  0  0
  -19.8803  -28.7459   22.7884 C   0  0  0  0  0  0  0  0  0  0  0  0
  -30.2271  -21.5024   15.9291 C   0  0  0  0  0  0  0  0  0  0  0  0
  -26.4674  -12.8926   21.5808 C   0  0  0  0  0  0  0  0  0  0  0  0
  -26.1150  -13.7855   19.3637 C   0  0  0  0  0  0  0  0  0  0  0  0
  -31.2794  -22.4041   16.0872 C   0  0  0  0  0  0  0  0  0  0  0  0
  -17.8571  -27.4374   22.8905 C   0  0  0  0  0  0  0  0  0  0  0  0
  -20.6100  -27.5906   22.5100 C   0  0  0  0  0  0  0  0  0  0  0  0
  -25.5255  -27.1246   18.8871 C   0  0  0  0  0  0  0  0  0  0  0  0
  -29.6825  -20.8637   17.0432 C   0  0  0  0  0  0  0  0  0  0  0  0
  -25.2075  -12.2954   21.5405 C   0  0  0  0  0  0  0  0  0  0  0  0
  -24.8551  -13.1883   19.3234 C   0  0  0  0  0  0  0  0  0  0  0  0
  -26.8923  -27.0929   19.1601 C   0  0  0  0  0  0  0  0  0  0  0  0
  -23.7972   -9.5454   20.1689 C   0  0  0  0  0  0  0  0  0  0  0  0
  -23.6919   -8.2242   20.6036 C   0  0  0  0  0  0  0  0  0  0  0  0
  -31.2428  -22.0283   18.4735 C   0  0  0  0  0  0  0  0  0  0  0  0
  -26.8429  -24.6819   19.0969 C   0  0  0  0  0  0  0  0  0  0  0  0
  -22.1263   -8.9106   22.3109 C   0  0  0  0  0  0  0  0  0  0  0  0
  -26.9211  -13.6377   20.4924 C   0  0  0  0  0  0  0  0  0  0  0  0
  -31.7873  -22.6670   17.3594 C   0  0  0  0  0  0  0  0  0  0  0  0
  -29.4432  -13.6946   20.1134 C   0  0  0  0  0  0  0  0  0  0  0  0
  -18.5778  -26.2679   22.6013 C   0  0  0  0  0  0  0  0  0  0  0  0
  -24.8037  -25.9330   18.7274 C   0  0  0  0  0  0  0  0  0  0  0  0
  -19.9719  -26.3419   22.4188 C   0  0  0  0  0  0  0  0  0  0  0  0
  -25.4675  -24.7013   18.8194 C   0  0  0  0  0  0  0  0  0  0  0  0
  -30.1904  -21.1266   18.3154 C   0  0  0  0  0  0  0  0  0  0  0  0
  -24.4014  -12.4432   20.4118 C   0  0  0  0  0  0  0  0  0  0  0  0
  -27.5507  -25.8714   19.2679 C   0  0  0  0  0  0  0  0  0  0  0  0
  -23.0670  -10.5492   20.8053 C   0  0  0  0  0  0  0  0  0  0  0  0
  -22.8565   -7.9068   21.6745 C   0  0  0  0  0  0  0  0  0  0  0  0
  -22.2316  -10.2318   21.8762 C   0  0  0  0  0  0  0  0  0  0  0  0
  -28.2222  -14.2554   20.5336 C   0  0  0  0  0  0  0  0  0  0  0  0
  -30.3737  -14.6744   20.3592 C   0  0  0  0  0  0  0  0  0  0  0  0
  -32.1235  -27.0117   19.4583 C   0  0  0  0  0  0  0  0  0  0  0  0
  -31.0753  -26.4810   18.8044 C   0  0  0  0  0  0  0  0  0  0  0  0
  -32.8989  -23.6201   17.5276 C   0  0  0  0  0  0  0  0  0  0  0  0
  -29.7121  -12.4033   19.5511 C   0  0  0  0  0  0  0  0  0  0  0  0
  -22.3763  -24.5594   20.2521 C   0  0  0  0  0  0  0  0  0  0  0  0
  -22.5617  -22.4259   17.8157 C   0  0  0  0  0  0  0  0  0  0  0  0
  -24.4545  -20.9691   15.3781 C   0  0  0  0  0  0  0  0  0  0  0  0
  -30.0227  -20.6247   20.7784 C   0  0  0  0  0  0  0  0  0  0  0  0
  -17.8413  -24.9524   22.5623 C   0  0  0  0  0  0  0  0  0  0  0  0
  -23.3351  -25.9848   18.4068 C   0  0  0  0  0  0  0  0  0  0  0  0
  -24.7422  -23.3940   18.6363 C   0  0  0  0  0  0  0  0  0  0  0  0
  -33.5441  -26.6020   19.2089 C   0  0  0  0  0  0  0  0  0  0  0  0
  -31.2339  -25.3863   17.7807 C   0  0  0  0  0  0  0  0  0  0  0  0
  -18.6322  -23.8312   21.8933 C   0  0  0  0  0  0  0  0  0  0  0  0
  -31.2287  -18.3822   23.2671 C   0  0  0  0  0  0  0  0  0  0  0  0
  -20.0657  -23.8048   22.4140 C   0  0  0  0  0  0  0  0  0  0  0  0
  -30.7108  -17.0175   22.8071 C   0  0  0  0  0  0  0  0  0  0  0  0
  -33.7156  -25.8914   17.8733 C   0  0  0  0  0  0  0  0  0  0  0  0
  -30.2223  -19.4958   22.9831 C   0  0  0  0  0  0  0  0  0  0  0  0
  -29.2332  -18.2028   21.1341 C   0  0  0  0  0  0  0  0  0  0  0  0
  -20.7944  -25.1147   22.0906 C   0  0  1  0  0  0  0  0  0  0  0  0
  -22.5980  -24.7002   18.7727 C   0  0  1  0  0  0  0  0  0  0  0  0
  -30.2396  -17.0589   21.3402 C   0  0  2  0  0  0  0  0  0  0  0  0
  -24.3416  -19.2318   13.5708 C   0  0  0  0  0  0  0  0  0  0  0  0
  -22.7468  -20.2261   19.9220 C   0  0  0  0  0  0  0  0  0  0  0  0
  -23.5728  -18.6801   18.1344 C   0  0  0  0  0  0  0  0  0  0  0  0
  -21.2919  -19.6756   17.9638 C   0  0  0  0  0  0  0  0  0  0  0  0
  -25.0371  -22.9601   13.2673 C   0  0  0  0  0  0  0  0  0  0  0  0
  -29.6689  -26.9337   19.0661 C   0  0  0  0  0  0  0  0  0  1  0  0
  -23.3157  -21.1403   17.5754 C   0  0  1  0  0  0  0  0  0  0  0  0
  -24.1760  -20.7051   13.9094 C   0  0  2  0  0  0  0  0  0  0  0  0
  -22.7454  -19.9550   18.4043 C   0  0  0  0  0  0  0  0  0  0  0  0
  -28.3613  -15.4953   21.0103 N   0  0  0  0  0  0  0  0  0  0  0  0
  -29.6807  -15.7217   20.8913 N   0  0  0  0  0  0  0  0  0  0  0  0
  -32.6319  -24.9041   17.7264 N   0  0  0  0  0  0  0  0  0  0  0  0
  -23.3057  -23.4969   18.3306 N   0  0  0  0  0  0  0  0  0  0  0  0
  -29.8247  -19.4763   21.5737 N   0  0  0  0  0  0  0  0  0  0  0  0
  -31.7091  -14.7337   20.1701 N   0  0  0  0  0  0  0  0  0  0  0  0
  -28.6407  -11.5189   19.3660 N   0  0  0  0  0  0  0  0  0  0  0  0
  -29.6366  -20.4773   19.4465 N   0  0  0  0  0  0  0  0  0  0  0  0
  -21.2040  -25.1358   20.7027 N   0  0  0  0  0  0  0  0  0  0  0  0
  -23.3016  -20.9223   16.1330 N   0  0  0  0  0  0  0  0  0  0  0  0
  -34.1519  -23.1775   17.4792 N   0  3  0  0  0  0  0  0  0  0  0  0
  -25.1105  -21.4915   13.0554 N   0  3  0  0  0  0  0  0  0  0  0  0
  -30.8706  -12.0384   19.2378 O   0  0  0  0  0  0  0  0  0  0  0  0
  -23.2066  -23.9701   20.9341 O   0  0  0  0  0  0  0  0  0  0  0  0
  -21.3584  -22.4800   17.5494 O   0  0  0  0  0  0  0  0  0  0  0  0
  -25.5825  -21.1907   15.8128 O   0  0  0  0  0  0  0  0  0  0  0  0
  -30.5249  -21.6536   21.2379 O   0  0  0  0  0  0  0  0  0  0  0  0
  -23.1720  -11.8603   20.3721 O   0  0  0  0  0  0  0  0  0  0  0  0
  -28.8846  -25.8376   19.5350 O   0  0  0  0  0  0  0  0  0  1  0  0
  -22.7543   -6.6377   22.0908 F   0  0  0  0  0  0  0  0  0  0  0  0
  -21.5268  -11.1917   22.4908 F   0  0  0  0  0  0  0  0  0  0  0  0
  1  2  1  0  0  0  0
  1  7  2  0  0  0  0
  2  8  2  0  0  0  0
  3  6  2  0  0  0  0
  3 10  1  0  0  0  0
  4 11  2  0  0  0  0
  4 19  1  0  0  0  0
  5 12  1  0  0  0  0
  5 19  2  0  0  0  0
  6 20  1  0  0  0  0
  7 22  1  0  0  0  0
  8 24  1  0  0  0  0
  9 13  2  0  0  0  0
  9 23  1  0  0  0  0
 10 26  2  0  0  0  0
 11 27  1  0  0  0  0
 12 27  2  0  0  0  0
 13 28  1  0  0  0  0
 14 15  2  0  0  0  0
 14 29  1  0  0  0  0
 15 30  1  0  0  0  0
 16 20  2  0  0  0  0
 16 26  1  0  0  0  0
 17 25  1  0  0  0  0
 17 28  2  0  0  0  0
 18 30  2  0  0  0  0
 18 31  1  0  0  0  0
 19 32  1  0  0  0  0
 20 36  1  0  0  0  0
 21 32  1  0  0  0  0
 21 33  2  0  0  0  0
 21 37  1  0  0  0  0
 22 24  2  0  0  0  0
 22 42  1  0  0  0  0
 23 25  2  0  0  0  0
 23 43  1  0  0  0  0
 24 54  1  0  0  0  0
 25 44  1  0  0  0  0
 26 73  1  0  0  0  0
 27 83  1  0  0  0  0
 28 84  1  0  0  0  0
 29 31  2  0  0  0  0
 29 83  1  0  0  0  0
 30 85  1  0  0  0  0
 31 86  1  0  0  0  0
 32 66  2  0  0  0  0
 33 67  1  0  0  0  0
 33 71  1  0  0  0  0
 34 35  2  0  0  0  0
 34 45  1  0  0  0  0
 35 46  1  0  0  0  0
 35 62  1  0  0  0  0
 36 68  1  0  0  0  0
 36 76  2  0  0  0  0
 37 72  1  0  0  0  0
 37 78  2  0  0  0  0
 38 55  1  0  0  0  0
 38 74  1  0  0  0  0
 38 79  2  0  0  0  0
 39 63  1  0  0  0  0
 39 69  1  0  0  0  0
 39 80  2  0  0  0  0
 40 64  1  0  0  0  0
 40 75  1  0  0  0  0
 40 81  2  0  0  0  0
 41 70  1  0  0  0  0
 41 73  1  0  0  0  0
 41 82  2  0  0  0  0
 42 47  1  0  0  0  0
 43 55  1  0  0  0  0
 44 69  1  0  0  0  0
 45 51  1  0  0  0  0
 46 68  1  0  0  0  0
 47 49  1  0  0  0  0
 48 50  1  0  0  0  0
 48 52  1  0  0  0  0
 49 54  1  0  0  0  0
 50 56  1  0  0  0  0
 51 68  1  0  0  0  0
 52 70  1  0  0  0  0
 53 56  1  0  0  0  0
 53 70  1  0  0  0  0
 54 74  1  0  0  0  0
 55 69  1  0  0  0  0
 56 67  1  0  0  0  0
 57 64  1  0  0  0  0
 58 65  1  0  0  0  0
 59 65  1  0  0  0  0
 60 65  1  0  0  0  0
 61 77  1  0  0  0  0
 62 84  1  0  0  0  0
 63 65  1  0  0  0  0
 63 75  1  0  0  0  0
 64 77  1  0  0  0  0
 66 67  1  0  0  0  0
M  CHG  2  76   1  77   1
M  ISO  4  41 100  62 101  73 100  84 101
M  END
> <Batch ID>
0149

> <Smiles>
CNC(C)C(=O)NC(C(=O)N1Cc2cc([101O:1][101CH2:1]C3=CCCN(C(=N)c4cccc([100NH:0][100C:0](=O)N5CCCC(n6nc(-c7ccc(Oc8ccc(F)cc8F)cc7)c(C(N)=O)c6N)C5)c4)C3)ccc2CC1C(=O)NC1CCCc2ccccc21)C(C)(C)C

> <Shape>
0.241

> <Color>
0.073

> <Negative vol penalty>
0.000

$$$$

  -OEChem-04052303193D

 87 96  0     1  0  0  0  0  0999 V2000
  -17.5445  -26.5768   22.2975 C   0  0  0  0  0  0  0  0  0  0  0  0
  -18.5361  -26.4822   21.3263 C   0  0  0  0  0  0  0  0  0  0  0  0
  -30.7915  -21.4838   16.0408 C   0  0  0  0  0  0  0  0  0  0  0  0
  -25.4939  -13.8794   21.8986 C   0  0  0  0  0  0  0  0  0  0  0  0
  -26.3264  -14.0414   19.6363 C   0  0  0  0  0  0  0  0  0  0  0  0
  -31.4788  -22.6599   16.3409 C   0  0  0  0  0  0  0  0  0  0  0  0
  -17.7092  -27.4419   23.3784 C   0  0  0  0  0  0  0  0  0  0  0  0
  -19.6926  -27.2537   21.4350 C   0  0  0  0  0  0  0  0  0  0  0  0
  -25.3554  -25.6586   19.7336 C   0  0  0  0  0  0  0  0  0  0  0  0
  -29.7961  -21.0190   16.9004 C   0  0  0  0  0  0  0  0  0  0  0  0
  -24.5372  -12.9546   21.4804 C   0  0  0  0  0  0  0  0  0  0  0  0
  -25.3696  -13.1165   19.2181 C   0  0  0  0  0  0  0  0  0  0  0  0
  -26.1052  -25.9372   18.5916 C   0  0  0  0  0  0  0  0  0  0  0  0
  -24.4201   -9.6613   20.7230 C   0  0  0  0  0  0  0  0  0  0  0  0
  -24.2358   -8.5208   21.5046 C   0  0  0  0  0  0  0  0  0  0  0  0
  -30.1755  -22.9063   18.3603 C   0  0  0  0  0  0  0  0  0  0  0  0
  -27.1642  -27.7739   19.7424 C   0  0  0  0  0  0  0  0  0  0  0  0
  -21.9261   -9.1356   21.8572 C   0  0  0  0  0  0  0  0  0  0  0  0
  -26.3885  -14.4228   20.9766 C   0  0  0  0  0  0  0  0  0  0  0  0
  -31.1708  -23.3711   17.5007 C   0  0  0  0  0  0  0  0  0  0  0  0
  -28.6791  -15.1062   21.8674 C   0  0  0  0  0  0  0  0  0  0  0  0
  -18.8725  -28.2172   23.5054 C   0  0  0  0  0  0  0  0  0  0  0  0
  -25.4967  -26.4437   20.8869 C   0  0  0  0  0  0  0  0  0  0  0  0
  -19.8724  -28.1310   22.5179 C   0  0  0  0  0  0  0  0  0  0  0  0
  -26.4169  -27.5016   20.8985 C   0  0  0  0  0  0  0  0  0  0  0  0
  -29.4881  -21.7302   18.0602 C   0  0  0  0  0  0  0  0  0  0  0  0
  -24.4750  -12.5731   20.1401 C   0  0  0  0  0  0  0  0  0  0  0  0
  -27.0076  -26.9967   18.5950 C   0  0  0  0  0  0  0  0  0  0  0  0
  -23.3574  -10.5391   20.5086 C   0  0  0  0  0  0  0  0  0  0  0  0
  -22.9888   -8.2580   22.0717 C   0  0  0  0  0  0  0  0  0  0  0  0
  -22.1104  -10.2762   21.0756 C   0  0  0  0  0  0  0  0  0  0  0  0
  -27.3767  -15.3787   21.4079 C   0  0  0  0  0  0  0  0  0  0  0  0
  -29.2090  -16.3415   22.1499 C   0  0  0  0  0  0  0  0  0  0  0  0
  -31.8961  -24.6142   17.8183 C   0  0  0  0  0  0  0  0  0  0  0  0
  -29.3501  -13.8490   22.0248 C   0  0  0  0  0  0  0  0  0  0  0  0
  -23.5623  -28.3164   22.5764 C   0  0  0  0  0  0  0  0  0  0  0  0
  -26.1047  -28.4715   24.5850 C   0  0  0  0  0  0  0  0  0  0  0  0
  -29.4799  -28.2029   25.0123 C   0  0  0  0  0  0  0  0  0  0  0  0
  -28.0477  -21.8417   20.1239 C   0  0  0  0  0  0  0  0  0  0  0  0
  -18.9846  -29.1732   24.6665 C   0  0  0  0  0  0  0  0  0  0  0  0
  -24.7000  -26.1136   22.1192 C   0  0  0  0  0  0  0  0  0  0  0  0
  -26.6207  -28.3620   22.1177 C   0  0  0  0  0  0  0  0  0  0  0  0
  -20.4053  -29.6783   24.9047 C   0  0  0  0  0  0  0  0  0  0  0  0
  -27.9177  -20.7481   23.5098 C   0  0  0  0  0  0  0  0  0  0  0  0
  -21.0455  -30.1113   23.5895 C   0  0  0  0  0  0  0  0  0  0  0  0
  -27.8889  -19.2221   23.3971 C   0  0  0  0  0  0  0  0  0  0  0  0
  -31.3644  -27.9938   16.6759 C   0  0  0  0  0  0  0  0  0  0  0  0
  -27.1210  -21.4147   22.3897 C   0  0  0  0  0  0  0  0  0  0  0  0
  -32.0811  -27.0598   17.6415 C   0  0  0  0  0  0  0  0  0  0  0  0
  -27.4588  -19.4675   20.9188 C   0  0  0  0  0  0  0  0  0  0  0  0
  -30.2020  -25.8924   16.5724 C   0  0  0  0  0  0  0  0  0  0  0  0
  -21.1521  -28.9332   22.6137 C   0  0  1  0  0  0  0  0  0  0  0  0
  -24.5508  -27.2978   23.0693 C   0  0  1  0  0  0  0  0  0  0  0  0
  -28.3016  -18.7532   21.9880 C   0  0  2  0  0  0  0  0  0  0  0  0
  -29.9539  -27.4047   16.5480 C   0  0  1  0  0  0  0  0  0  0  0  0
  -31.2681  -28.4231   26.7591 C   0  0  0  0  0  0  0  0  0  0  0  0
  -25.9013  -31.5107   24.4065 C   0  0  0  0  0  0  0  0  0  0  0  0
  -28.2140  -31.6516   25.3551 C   0  0  0  0  0  0  0  0  0  0  0  0
  -26.3770  -30.6298   26.6983 C   0  0  0  0  0  0  0  0  0  0  0  0
  -30.2844  -25.3706   24.7121 C   0  0  0  0  0  0  0  0  0  0  0  0
  -29.2845  -29.1891   15.1824 C   0  0  0  0  0  0  0  0  0  0  0  0
  -29.0291  -27.8513   17.6787 C   0  0  0  0  0  0  0  0  0  1  0  0
  -27.3110  -29.3698   24.7153 C   0  0  1  0  0  0  0  0  0  0  0  0
  -30.3084  -27.4758   26.0561 C   0  0  2  0  0  0  0  0  0  0  0  0
  -26.9458  -30.7757   25.2700 C   0  0  0  0  0  0  0  0  0  0  0  0
  -27.0961  -16.6845   21.3976 N   0  0  0  0  0  0  0  0  0  0  0  0
  -28.2297  -17.2436   21.8543 N   0  0  0  0  0  0  0  0  0  0  0  0
  -31.4296  -25.7683   17.3773 N   0  0  0  0  0  0  0  0  0  0  0  0
  -25.8138  -28.0033   23.2958 N   0  0  0  0  0  0  0  0  0  0  0  0
  -27.5695  -20.9253   21.0843 N   0  0  0  0  0  0  0  0  0  0  0  0
  -30.4123  -16.7332   22.6200 N   0  0  0  0  0  0  0  0  0  0  0  0
  -28.6600  -12.6766   21.6877 N   0  0  0  0  0  0  0  0  0  0  0  0
  -28.4769  -21.2573   18.9328 N   0  0  0  0  0  0  0  0  0  0  0  0
  -22.2611  -28.0764   22.9750 N   0  0  0  0  0  0  0  0  0  0  0  0
  -28.2779  -28.6396   25.5278 N   0  0  0  0  0  0  0  0  0  0  0  0
  -33.0078  -24.5543   18.5455 N   0  3  0  0  0  0  0  0  0  0  0  0
  -31.1037  -26.3876   25.4202 N   0  3  0  0  0  0  0  0  0  0  0  0
  -30.5210  -13.7665   22.4672 O   0  0  0  0  0  0  0  0  0  0  0  0
  -23.9515  -29.2518   21.8869 O   0  0  0  0  0  0  0  0  0  0  0  0
  -25.4491  -28.1897   25.5911 O   0  0  0  0  0  0  0  0  0  0  0  0
  -29.8626  -28.3702   23.8564 O   0  0  0  0  0  0  0  0  0  0  0  0
  -28.1000  -23.0529   20.3524 O   0  0  0  0  0  0  0  0  0  0  0  0
  -23.5417  -11.6705   19.7317 O   0  0  0  0  0  0  0  0  0  0  0  0
  -27.7403  -27.2712   17.4815 O   0  0  0  0  0  0  0  0  0  1  0  0
  -29.3802  -27.7785   15.3034 O   0  0  0  0  0  0  0  0  0  0  0  0
  -22.8116   -7.1619   22.8209 F   0  0  0  0  0  0  0  0  0  0  0  0
  -21.0854  -11.1151   20.8721 F   0  0  0  0  0  0  0  0  0  0  0  0
  1  2  1  0  0  0  0
  1  7  2  0  0  0  0
  2  8  2  0  0  0  0
  3  6  2  0  0  0  0
  3 10  1  0  0  0  0
  4 11  2  0  0  0  0
  4 19  1  0  0  0  0
  5 12  1  0  0  0  0
  5 19  2  0  0  0  0
  6 20  1  0  0  0  0
  7 22  1  0  0  0  0
  8 24  1  0  0  0  0
  9 13  2  0  0  0  0
  9 23  1  0  0  0  0
 10 26  2  0  0  0  0
 11 27  1  0  0  0  0
 12 27  2  0  0  0  0
 13 28  1  0  0  0  0
 14 15  2  0  0  0  0
 14 29  1  0  0  0  0
 15 30  1  0  0  0  0
 16 20  2  0  0  0  0
 16 26  1  0  0  0  0
 17 25  1  0  0  0  0
 17 28  2  0  0  0  0
 18 30  2  0  0  0  0
 18 31  1  0  0  0  0
 19 32  1  0  0  0  0
 20 34  1  0  0  0  0
 21 32  1  0  0  0  0
 21 33  2  0  0  0  0
 21 35  1  0  0  0  0
 22 24  2  0  0  0  0
 22 40  1  0  0  0  0
 23 25  2  0  0  0  0
 23 41  1  0  0  0  0
 24 52  1  0  0  0  0
 25 42  1  0  0  0  0
 26 73  1  0  0  0  0
 27 83  1  0  0  0  0
 28 84  1  0  0  0  0
 29 31  2  0  0  0  0
 29 83  1  0  0  0  0
 30 86  1  0  0  0  0
 31 87  1  0  0  0  0
 32 66  2  0  0  0  0
 33 67  1  0  0  0  0
 33 71  1  0  0  0  0
 34 68  1  0  0  0  0
 34 76  2  0  0  0  0
 35 72  1  0  0  0  0
 35 78  2  0  0  0  0
 36 53  1  0  0  0  0
 36 74  1  0  0  0  0
 36 79  2  0  0  0  0
 37 63  1  0  0  0  0
 37 69  1  0  0  0  0
 37 80  2  0  0  0  0
 38 64  1  0  0  0  0
 38 75  1  0  0  0  0
 38 81  2  0  0  0  0
 39 70  1  0  0  0  0
 39 73  1  0  0  0  0
 39 82  2  0  0  0  0
 40 43  1  0  0  0  0
 41 53  1  0  0  0  0
 42 69  1  0  0  0  0
 43 45  1  0  0  0  0
 44 46  1  0  0  0  0
 44 48  1  0  0  0  0
 45 52  1  0  0  0  0
 46 54  1  0  0  0  0
 47 49  1  0  0  0  0
 47 55  1  0  0  0  0
 48 70  1  0  0  0  0
 49 68  1  0  0  0  0
 50 54  1  0  0  0  0
 50 70  1  0  0  0  0
 51 55  1  0  0  0  0
 51 68  1  0  0  0  0
 52 74  1  0  0  0  0
 53 69  1  0  0  0  0
 54 67  1  0  0  0  0
 55 62  1  0  0  0  0
 55 85  1  0  0  0  0
 56 64  1  0  0  0  0
 57 65  1  0  0  0  0
 58 65  1  0  0  0  0
 59 65  1  0  0  0  0
 60 77  1  0  0  0  0
 61 85  1  0  0  0  0
 62 84  1  0  0  0  0
 63 65  1  0  0  0  0
 63 75  1  0  0  0  0
 64 77  1  0  0  0  0
 66 67  1  0  0  0  0
M  CHG  2  76   1  77   1
M  ISO  4  39 100  62 101  73 100  84 101
M  END
> <Batch ID>
0149

> <Smiles>
CNC(C)C(=O)NC(C(=O)N1Cc2cc([101O:1][101CH2:1]C3(OC)CCN(C(=N)c4cccc([100NH:0][100C:0](=O)N5CCCC(n6nc(-c7ccc(Oc8ccc(F)cc8F)cc7)c(C(N)=O)c6N)C5)c4)C3)ccc2CC1C(=O)NC1CCCc2ccccc21)C(C)(C)C

> <Shape>
0.278

> <Color>
0.059

> <Negative vol penalty>
0.000

$$$$

  -OEChem-04052303193D

 85 94  0     1  0  0  0  0  0999 V2000
  -22.7224  -10.6978   18.7495 C   0  0  0  0  0  0  0  0  0  0  0  0
  -22.1777  -11.9702   18.8899 C   0  0  0  0  0  0  0  0  0  0  0  0
  -29.2645  -26.2592   18.3889 C   0  0  0  0  0  0  0  0  0  0  0  0
  -29.7235  -26.2403   20.7609 C   0  0  0  0  0  0  0  0  0  0  0  0
  -23.9537  -10.3997   19.3316 C   0  0  0  0  0  0  0  0  0  0  0  0
  -22.8636  -12.9450   19.6135 C   0  0  0  0  0  0  0  0  0  0  0  0
  -23.0019  -18.9604   18.4727 C   0  0  0  0  0  0  0  0  0  0  0  0
  -30.5927  -25.9213   18.1292 C   0  0  0  0  0  0  0  0  0  0  0  0
  -31.0517  -25.9023   20.5012 C   0  0  0  0  0  0  0  0  0  0  0  0
  -22.2985  -20.0346   19.0161 C   0  0  0  0  0  0  0  0  0  0  0  0
  -33.8753  -27.4768   19.5119 C   0  0  0  0  0  0  0  0  0  0  0  0
  -34.8674  -28.1615   20.2137 C   0  0  0  0  0  0  0  0  0  0  0  0
  -24.1310  -20.4631   20.5253 C   0  0  0  0  0  0  0  0  0  0  0  0
  -35.6434  -26.0749   21.1524 C   0  0  0  0  0  0  0  0  0  0  0  0
  -28.8300  -26.4188   19.7048 C   0  0  0  0  0  0  0  0  0  0  0  0
  -26.3800  -25.8862   20.1755 C   0  0  0  0  0  0  0  0  0  0  0  0
  -24.6596  -11.3743   20.0546 C   0  0  0  0  0  0  0  0  0  0  0  0
  -24.2726  -18.6222   18.9598 C   0  0  0  0  0  0  0  0  0  0  0  0
  -24.1049  -12.6594   20.2070 C   0  0  0  0  0  0  0  0  0  0  0  0
  -24.8494  -19.3858   19.9847 C   0  0  0  0  0  0  0  0  0  0  0  0
  -31.4862  -25.7428   19.1853 C   0  0  0  0  0  0  0  0  0  0  0  0
  -22.8618  -20.7843   20.0445 C   0  0  0  0  0  0  0  0  0  0  0  0
  -33.7672  -26.0912   19.6304 C   0  0  0  0  0  0  0  0  0  0  0  0
  -35.7514  -27.4606   21.0339 C   0  0  0  0  0  0  0  0  0  0  0  0
  -34.6512  -25.3902   20.4506 C   0  0  0  0  0  0  0  0  0  0  0  0
  -27.4583  -26.7685   19.9737 C   0  0  0  0  0  0  0  0  0  0  0  0
  -21.4870  -28.0316   23.2282 C   0  0  0  0  0  0  0  0  0  0  0  0
  -21.4401  -27.8641   24.5976 C   0  0  0  0  0  0  0  0  0  0  0  0
  -25.3004  -26.7073   20.3918 C   0  0  0  0  0  0  0  0  0  0  0  0
  -20.9857  -25.9028   23.3026 C   0  0  0  0  0  0  0  0  0  0  0  0
  -26.3563  -24.4527   20.1682 C   0  0  0  0  0  0  0  0  0  0  0  0
  -25.5255  -16.0662   20.3743 C   0  0  0  0  0  0  0  0  0  0  0  0
  -28.2940  -17.7246   20.0463 C   0  0  0  0  0  0  0  0  0  0  0  0
  -20.5486  -24.0129   21.6948 C   0  0  0  0  0  0  0  0  0  0  0  0
  -29.8345  -20.7482   19.6845 C   0  0  0  0  0  0  0  0  0  0  0  0
  -23.3639  -31.2117   23.2284 C   0  0  0  0  0  0  0  0  0  0  0  0
  -25.9650  -10.9914   20.7057 C   0  0  0  0  0  0  0  0  0  0  0  0
  -25.0295  -17.4772   18.3447 C   0  0  0  0  0  0  0  0  0  0  0  0
  -26.2192  -19.0764   20.5292 C   0  0  0  0  0  0  0  0  0  0  0  0
  -21.7827  -29.3375   22.5873 C   0  0  0  0  0  0  0  0  0  0  0  0
  -21.7210  -28.9355   25.5948 C   0  0  0  0  0  0  0  0  0  0  0  0
  -26.8039  -12.1905   21.1399 C   0  0  0  0  0  0  0  0  0  0  0  0
  -24.7447  -31.6949   19.8185 C   0  0  0  0  0  0  0  0  0  0  0  0
  -25.9386  -13.2095   21.8745 C   0  0  0  0  0  0  0  0  0  0  0  0
  -25.5524  -30.4144   19.6097 C   0  0  0  0  0  0  0  0  0  0  0  0
  -21.7575  -30.3069   24.8944 C   0  0  0  0  0  0  0  0  0  0  0  0
  -24.6413  -32.0676   21.2947 C   0  0  0  0  0  0  0  0  0  0  0  0
  -24.9181  -29.6967   21.9449 C   0  0  0  0  0  0  0  0  0  0  0  0
  -24.8303  -13.7510   20.9635 C   0  0  1  0  0  0  0  0  0  0  0  0
  -26.1006  -16.9045   19.2678 C   0  0  1  0  0  0  0  0  0  0  0  0
  -24.9935  -29.2694   20.4722 C   0  0  2  0  0  0  0  0  0  0  0  0
  -18.6674  -22.3714   21.8184 C   0  0  0  0  0  0  0  0  0  0  0  0
  -32.1093  -21.7884   19.4820 C   0  0  0  0  0  0  0  0  0  0  0  0
  -28.7359  -17.3352   23.0401 C   0  0  0  0  0  0  0  0  0  0  0  0
  -30.4581  -19.1503   22.9512 C   0  0  0  0  0  0  0  0  0  0  0  0
  -30.7875  -17.0553   21.6377 C   0  0  0  0  0  0  0  0  0  0  0  0
  -29.2209  -21.8476   17.0061 C   0  0  0  0  0  0  0  0  0  0  0  0
  -20.7526  -21.7498   20.5689 C   0  0  0  0  0  0  0  0  0  1  0  0
  -29.0457  -18.7274   20.8879 C   0  0  1  0  0  0  0  0  0  0  0  0
  -20.1871  -22.5226   21.7629 C   0  0  1  0  0  0  0  0  0  0  0  0
  -30.9163  -21.2197   18.7296 C   0  0  2  0  0  0  0  0  0  0  0  0
  -29.7302  -18.0719   22.1205 C   0  0  0  0  0  0  0  0  0  0  0  0
  -27.0966  -28.0517   20.0544 N   0  0  0  0  0  0  0  0  0  0  0  0
  -21.2222  -26.9039   22.4808 N   0  0  0  0  0  0  0  0  0  0  0  0
  -25.7789  -27.9818   20.3092 N   0  0  0  0  0  0  0  0  0  0  0  0
  -26.9169  -17.9433   19.8993 N   0  0  0  0  0  0  0  0  0  0  0  0
  -22.4263  -30.2280   23.5809 N   0  0  0  0  0  0  0  0  0  0  0  0
  -24.1585  -30.9462   22.1002 N   0  0  0  0  0  0  0  0  0  0  0  0
  -23.9979  -26.4562   20.6425 N   0  0  0  0  0  0  0  0  0  0  0  0
  -27.5547  -23.7659   19.9301 N   0  0  0  0  0  0  0  0  0  0  0  0
  -20.6836  -24.6065   22.9783 N   0  0  0  0  0  0  0  0  0  0  0  0
  -25.3655  -14.7336   20.0457 N   0  0  0  0  0  0  0  0  0  0  0  0
  -29.9669  -19.4091   19.9851 N   0  0  0  0  0  0  0  0  0  0  0  0
  -30.3836  -22.2775   17.8249 N   0  3  0  0  0  0  0  0  0  0  0  0
  -25.3006  -23.8002   20.3507 O   0  0  0  0  0  0  0  0  0  0  0  0
  -25.2488  -16.5895   21.4473 O   0  0  0  0  0  0  0  0  0  0  0  0
  -28.9073  -16.7859   19.5322 O   0  0  0  0  0  0  0  0  0  0  0  0
  -20.6876  -24.5941   20.6224 O   0  0  0  0  0  0  0  0  0  0  0  0
  -28.9618  -21.4943   20.1231 O   0  0  0  0  0  0  0  0  0  0  0  0
  -23.4879  -32.2560   23.8793 O   0  0  0  0  0  0  0  0  0  0  0  0
  -32.7822  -25.4128   18.9323 O   0  0  0  0  0  0  0  0  0  0  0  0
  -22.1727  -21.8399   20.5807 O   0  0  0  0  0  0  0  0  0  1  0  0
  -36.7051  -28.1180   21.7066 F   0  0  0  0  0  0  0  0  0  0  0  0
  -34.5531  -24.0589   20.5675 F   0  0  0  0  0  0  0  0  0  0  0  0
  -21.0635  -26.2529   24.9855 S   0  0  0  0  0  0  0  0  0  0  0  0
  1  2  1  0  0  0  0
  1  5  2  0  0  0  0
  2  6  2  0  0  0  0
  3  8  2  0  0  0  0
  3 15  1  0  0  0  0
  4  9  1  0  0  0  0
  4 15  2  0  0  0  0
  5 17  1  0  0  0  0
  6 19  1  0  0  0  0
  7 10  2  0  0  0  0
  7 18  1  0  0  0  0
  8 21  1  0  0  0  0
  9 21  2  0  0  0  0
 10 22  1  0  0  0  0
 11 12  2  0  0  0  0
 11 23  1  0  0  0  0
 12 24  1  0  0  0  0
 13 20  1  0  0  0  0
 13 22  2  0  0  0  0
 14 24  2  0  0  0  0
 14 25  1  0  0  0  0
 15 26  1  0  0  0  0
 16 26  1  0  0  0  0
 16 29  2  0  0  0  0
 16 31  1  0  0  0  0
 17 19  2  0  0  0  0
 17 37  1  0  0  0  0
 18 20  2  0  0  0  0
 18 38  1  0  0  0  0
 19 49  1  0  0  0  0
 20 39  1  0  0  0  0
 21 81  1  0  0  0  0
 22 82  1  0  0  0  0
 23 25  2  0  0  0  0
 23 81  1  0  0  0  0
 24 83  1  0  0  0  0
 25 84  1  0  0  0  0
 26 63  2  0  0  0  0
 27 28  2  0  0  0  0
 27 40  1  0  0  0  0
 27 64  1  0  0  0  0
 28 41  1  0  0  0  0
 28 85  1  0  0  0  0
 29 65  1  0  0  0  0
 29 69  1  0  0  0  0
 30 64  2  0  0  0  0
 30 71  1  0  0  0  0
 30 85  1  0  0  0  0
 31 70  1  0  0  0  0
 31 75  2  0  0  0  0
 32 50  1  0  0  0  0
 32 72  1  0  0  0  0
 32 76  2  0  0  0  0
 33 59  1  0  0  0  0
 33 66  1  0  0  0  0
 33 77  2  0  0  0  0
 34 60  1  0  0  0  0
 34 71  1  0  0  0  0
 34 78  2  0  0  0  0
 35 61  1  0  0  0  0
 35 73  1  0  0  0  0
 35 79  2  0  0  0  0
 36 67  1  0  0  0  0
 36 68  1  0  0  0  0
 36 80  2  0  0  0  0
 37 42  1  0  0  0  0
 38 50  1  0  0  0  0
 39 66  1  0  0  0  0
 40 67  1  0  0  0  0
 41 46  1  0  0  0  0
 42 44  1  0  0  0  0
 43 45  1  0  0  0  0
 43 47  1  0  0  0  0
 44 49  1  0  0  0  0
 45 51  1  0  0  0  0
 46 67  1  0  0  0  0
 47 68  1  0  0  0  0
 48 51  1  0  0  0  0
 48 68  1  0  0  0  0
 49 72  1  0  0  0  0
 50 66  1  0  0  0  0
 51 65  1  0  0  0  0
 52 60  1  0  0  0  0
 53 61  1  0  0  0  0
 54 62  1  0  0  0  0
 55 62  1  0  0  0  0
 56 62  1  0  0  0  0
 57 74  1  0  0  0  0
 58 60  1  0  0  0  0
 58 82  1  0  0  0  0
 59 62  1  0  0  0  0
 59 73  1  0  0  0  0
 61 74  1  0  0  0  0
 63 65  1  0  0  0  0
M  CHG  1  74   1
M  ISO  4  36 100  58 101  67 100  82 101
M  END
> <Batch ID>
0149

> <Smiles>
CNC(C)C(=O)NC(C(=O)N1Cc2cc([101O:1][101CH2:1]C(C)C(=O)Nc3nc4c(s3)CC[100N:0]([100C:0](=O)N3CCCC(n5nc(-c6ccc(Oc7ccc(F)cc7F)cc6)c(C(N)=O)c5N)C3)C4)ccc2CC1C(=O)NC1CCCc2ccccc21)C(C)(C)C

> <Shape>
0.231

> <Color>
0.073

> <Negative vol penalty>
0.000

$$$$

  -OEChem-04052303193D

 84 93  0     1  0  0  0  0  0999 V2000
  -40.9337  -16.6185   12.1337 C   0  0  0  0  0  0  0  0  0  0  0  0
  -40.4335  -16.7774   13.4221 C   0  0  0  0  0  0  0  0  0  0  0  0
  -23.0751   -9.8687   19.9398 C   0  0  0  0  0  0  0  0  0  0  0  0
  -23.8348   -9.8740   22.2333 C   0  0  0  0  0  0  0  0  0  0  0  0
  -40.9617  -17.7041   11.2592 C   0  0  0  0  0  0  0  0  0  0  0  0
  -39.9621  -18.0223   13.8372 C   0  0  0  0  0  0  0  0  0  0  0  0
  -35.2928  -19.1069   17.6487 C   0  0  0  0  0  0  0  0  0  0  0  0
  -22.3309   -8.7156   20.1890 C   0  0  0  0  0  0  0  0  0  0  0  0
  -23.0904   -8.7209   22.4825 C   0  0  0  0  0  0  0  0  0  0  0  0
  -35.2428  -19.4035   19.0101 C   0  0  0  0  0  0  0  0  0  0  0  0
  -19.8619   -7.9238   23.0841 C   0  0  0  0  0  0  0  0  0  0  0  0
  -19.1048   -7.8834   24.2549 C   0  0  0  0  0  0  0  0  0  0  0  0
  -35.1246  -21.7554   18.4871 C   0  0  0  0  0  0  0  0  0  0  0  0
  -31.8498  -17.5129   21.6672 C   0  0  0  0  0  0  0  0  0  0  0  0
  -20.3455   -5.9451   24.9903 C   0  0  0  0  0  0  0  0  0  0  0  0
  -29.9206  -17.8237   22.7433 C   0  0  0  0  0  0  0  0  0  0  0  0
  -23.8272  -10.4478   20.9620 C   0  0  0  0  0  0  0  0  0  0  0  0
  -24.1698  -12.9729   20.8436 C   0  0  0  0  0  0  0  0  0  0  0  0
  -40.4815  -18.9606   11.6606 C   0  0  0  0  0  0  0  0  0  0  0  0
  -35.2701  -20.1346   16.6950 C   0  0  0  0  0  0  0  0  0  0  0  0
  -39.9850  -19.1261   12.9677 C   0  0  0  0  0  0  0  0  0  0  0  0
  -35.1719  -21.4691   17.1142 C   0  0  0  0  0  0  0  0  0  0  0  0
  -30.5864  -16.9332   21.9336 C   0  0  0  0  0  0  0  0  0  0  0  0
  -22.3385   -8.1417   21.4603 C   0  0  0  0  0  0  0  0  0  0  0  0
  -35.1615  -20.7281   19.4295 C   0  0  0  0  0  0  0  0  0  0  0  0
  -20.8608   -6.9748   22.8663 C   0  0  0  0  0  0  0  0  0  0  0  0
  -19.3466   -6.8940   25.2080 C   0  0  0  0  0  0  0  0  0  0  0  0
  -21.1026   -5.9855   23.8194 C   0  0  0  0  0  0  0  0  0  0  0  0
  -24.5967  -11.6386   20.7051 C   0  0  0  0  0  0  0  0  0  0  0  0
  -31.8659  -18.7165   22.3328 C   0  0  0  0  0  0  0  0  0  0  0  0
  -25.2623  -13.7223   20.4809 C   0  0  0  0  0  0  0  0  0  0  0  0
  -22.8995  -13.4889   21.2627 C   0  0  0  0  0  0  0  0  0  0  0  0
  -32.9935  -19.6655   22.3350 C   0  0  0  0  0  0  0  0  0  0  0  0
  -37.2734  -21.1536   14.4472 C   0  0  0  0  0  0  0  0  0  0  0  0
  -34.8005  -23.1069   13.6779 C   0  0  0  0  0  0  0  0  0  0  0  0
  -31.9524  -24.7036   14.6707 C   0  0  0  0  0  0  0  0  0  0  0  0
  -30.7287  -14.7661   20.6569 C   0  0  0  0  0  0  0  0  0  0  0  0
  -40.5759  -20.1160   10.6957 C   0  0  0  0  0  0  0  0  0  0  0  0
  -35.2979  -19.7966   15.2296 C   0  0  0  0  0  0  0  0  0  0  0  0
  -35.1239  -22.6080   16.1298 C   0  0  0  0  0  0  0  0  0  0  0  0
  -39.7113  -21.3107   11.0896 C   0  0  0  0  0  0  0  0  0  0  0  0
  -29.6139  -12.3539   18.2872 C   0  0  0  0  0  0  0  0  0  0  0  0
  -31.6227  -23.0140   22.4757 C   0  0  0  0  0  0  0  0  0  0  0  0
  -39.8870  -21.6317   12.5705 C   0  0  0  0  0  0  0  0  0  0  0  0
  -28.1741  -12.0625   18.7164 C   0  0  0  0  0  0  0  0  0  0  0  0
  -33.0304  -23.2127   23.0280 C   0  0  0  0  0  0  0  0  0  0  0  0
  -31.3949  -21.5126   22.5967 C   0  0  0  0  0  0  0  0  0  0  0  0
  -30.5289  -12.5818   19.4891 C   0  0  0  0  0  0  0  0  0  0  0  0
  -28.6220  -13.3061   20.8705 C   0  0  0  0  0  0  0  0  0  0  0  0
  -39.4416  -20.4548   13.4468 C   0  0  1  0  0  0  0  0  0  0  0  0
  -35.7872  -20.9502   14.3595 C   0  0  1  0  0  0  0  0  0  0  0  0
  -27.6493  -13.1338   19.6924 C   0  0  2  0  0  0  0  0  0  0  0  0
  -33.8067  -21.9932   22.5218 C   0  0  2  0  0  0  0  0  0  0  0  0
  -30.1713  -26.2592   13.8309 C   0  0  0  0  0  0  0  0  0  0  0  0
  -36.7446  -25.4482   13.8988 C   0  0  0  0  0  0  0  0  0  0  0  0
  -34.7718  -26.9865   13.9979 C   0  0  0  0  0  0  0  0  0  0  0  0
  -35.1592  -25.5871   11.9696 C   0  0  0  0  0  0  0  0  0  0  0  0
  -29.8212  -22.7050   15.1431 C   0  0  0  0  0  0  0  0  0  0  0  0
  -34.4043  -22.1991   21.1379 C   0  0  0  0  0  0  0  0  0  1  0  0
  -34.3568  -24.4868   14.0998 C   0  0  1  0  0  0  0  0  0  0  0  0
  -30.5804  -24.8080   14.0295 C   0  0  2  0  0  0  0  0  0  0  0  0
  -35.2609  -25.6060   13.5104 C   0  0  0  0  0  0  0  0  0  0  0  0
  -25.8615  -11.5426   20.2869 N   0  0  0  0  0  0  0  0  0  0  0  0
  -26.2389  -12.8261   20.1595 N   0  0  0  0  0  0  0  0  0  0  0  0
  -32.7532  -20.9592   22.4586 N   0  0  0  0  0  0  0  0  0  0  0  0
  -35.1602  -22.2267   14.7083 N   0  0  0  0  0  0  0  0  0  0  0  0
  -29.9702  -13.6123   20.3669 N   0  0  0  0  0  0  0  0  0  0  0  0
  -25.4732  -15.0537   20.4088 N   0  0  0  0  0  0  0  0  0  0  0  0
  -21.8872  -12.5799   21.5993 N   0  0  0  0  0  0  0  0  0  0  0  0
  -30.0815  -15.6909   21.4757 N   0  0  0  0  0  0  0  0  0  0  0  0
  -37.9979  -20.4091   13.5361 N   0  0  0  0  0  0  0  0  0  0  0  0
  -32.9508  -24.5957   13.7259 N   0  0  0  0  0  0  0  0  0  0  0  0
  -34.2352  -19.2050   22.2144 N   0  3  0  0  0  0  0  0  0  0  0  0
  -29.5568  -24.1440   14.8852 N   0  3  0  0  0  0  0  0  0  0  0  0
  -22.6636  -14.7196   21.3208 O   0  0  0  0  0  0  0  0  0  0  0  0
  -37.7289  -21.9298   15.2790 O   0  0  0  0  0  0  0  0  0  0  0  0
  -34.8201  -22.8182   12.4788 O   0  0  0  0  0  0  0  0  0  0  0  0
  -32.1217  -24.7201   15.8879 O   0  0  0  0  0  0  0  0  0  0  0  0
  -31.8580  -14.9347   20.1896 O   0  0  0  0  0  0  0  0  0  0  0  0
  -30.6936  -18.9135   22.9912 O   0  0  0  0  0  0  0  0  0  0  0  0
  -21.6121   -7.0167   21.7038 O   0  0  0  0  0  0  0  0  0  0  0  0
  -35.1132  -21.0204   20.7577 O   0  0  0  0  0  0  0  0  0  1  0  0
  -18.6205   -6.8563   26.3329 F   0  0  0  0  0  0  0  0  0  0  0  0
  -22.0616   -5.0718   23.6164 F   0  0  0  0  0  0  0  0  0  0  0  0
  1  2  1  0  0  0  0
  1  5  2  0  0  0  0
  2  6  2  0  0  0  0
  3  8  2  0  0  0  0
  3 17  1  0  0  0  0
  4  9  1  0  0  0  0
  4 17  2  0  0  0  0
  5 19  1  0  0  0  0
  6 21  1  0  0  0  0
  7 10  2  0  0  0  0
  7 20  1  0  0  0  0
  8 24  1  0  0  0  0
  9 24  2  0  0  0  0
 10 25  1  0  0  0  0
 11 12  2  0  0  0  0
 11 26  1  0  0  0  0
 12 27  1  0  0  0  0
 13 22  1  0  0  0  0
 13 25  2  0  0  0  0
 14 23  1  0  0  0  0
 14 30  2  0  0  0  0
 15 27  2  0  0  0  0
 15 28  1  0  0  0  0
 16 23  2  0  0  0  0
 16 80  1  0  0  0  0
 17 29  1  0  0  0  0
 18 29  1  0  0  0  0
 18 31  2  0  0  0  0
 18 32  1  0  0  0  0
 19 21  2  0  0  0  0
 19 38  1  0  0  0  0
 20 22  2  0  0  0  0
 20 39  1  0  0  0  0
 21 50  1  0  0  0  0
 22 40  1  0  0  0  0
 23 70  1  0  0  0  0
 24 81  1  0  0  0  0
 25 82  1  0  0  0  0
 26 28  2  0  0  0  0
 26 81  1  0  0  0  0
 27 83  1  0  0  0  0
 28 84  1  0  0  0  0
 29 63  2  0  0  0  0
 30 33  1  0  0  0  0
 30 80  1  0  0  0  0
 31 64  1  0  0  0  0
 31 68  1  0  0  0  0
 32 69  1  0  0  0  0
 32 75  2  0  0  0  0
 33 65  1  0  0  0  0
 33 73  2  0  0  0  0
 34 51  1  0  0  0  0
 34 71  1  0  0  0  0
 34 76  2  0  0  0  0
 35 60  1  0  0  0  0
 35 66  1  0  0  0  0
 35 77  2  0  0  0  0
 36 61  1  0  0  0  0
 36 72  1  0  0  0  0
 36 78  2  0  0  0  0
 37 67  1  0  0  0  0
 37 70  1  0  0  0  0
 37 79  2  0  0  0  0
 38 41  1  0  0  0  0
 39 51  1  0  0  0  0
 40 66  1  0  0  0  0
 41 44  1  0  0  0  0
 42 45  1  0  0  0  0
 42 48  1  0  0  0  0
 43 46  1  0  0  0  0
 43 47  1  0  0  0  0
 44 50  1  0  0  0  0
 45 52  1  0  0  0  0
 46 53  1  0  0  0  0
 47 65  1  0  0  0  0
 48 67  1  0  0  0  0
 49 52  1  0  0  0  0
 49 67  1  0  0  0  0
 50 71  1  0  0  0  0
 51 66  1  0  0  0  0
 52 64  1  0  0  0  0
 53 59  1  0  0  0  0
 53 65  1  0  0  0  0
 54 61  1  0  0  0  0
 55 62  1  0  0  0  0
 56 62  1  0  0  0  0
 57 62  1  0  0  0  0
 58 74  1  0  0  0  0
 59 82  1  0  0  0  0
 60 62  1  0  0  0  0
 60 72  1  0  0  0  0
 61 74  1  0  0  0  0
 63 64  1  0  0  0  0
M  CHG  2  73   1  74   1
M  ISO  4  37 100  59 101  70 100  82 101
M  END
> <Batch ID>
0149

> <Smiles>
CNC(C)C(=O)NC(C(=O)N1Cc2cc([101O:1][101CH2:1]C3CCCN3C(=N)c3cc([100NH:0][100C:0](=O)N4CCCC(n5nc(-c6ccc(Oc7ccc(F)cc7F)cc6)c(C(N)=O)c5N)C4)co3)ccc2CC1C(=O)NC1CCCc2ccccc21)C(C)(C)C

> <Shape>
0.170

> <Color>
0.184

> <Negative vol penalty>
0.000

$$$$

  -OEChem-04052303193D

 87 96  0     1  0  0  0  0  0999 V2000
  -16.9540  -29.4787   24.6190 C   0  0  0  0  0  0  0  0  0  0  0  0
  -17.3268  -28.3186   23.9478 C   0  0  0  0  0  0  0  0  0  0  0  0
  -25.4161  -16.3847   21.8776 C   0  0  0  0  0  0  0  0  0  0  0  0
  -25.7060  -15.9801   19.5135 C   0  0  0  0  0  0  0  0  0  0  0  0
  -17.5913  -30.6848   24.3308 C   0  0  0  0  0  0  0  0  0  0  0  0
  -18.3364  -28.3641   22.9871 C   0  0  0  0  0  0  0  0  0  0  0  0
  -22.4556  -23.9999   21.7656 C   0  0  0  0  0  0  0  0  0  0  0  0
  -24.1392  -15.8267   21.8166 C   0  0  0  0  0  0  0  0  0  0  0  0
  -24.4291  -15.4221   19.4524 C   0  0  0  0  0  0  0  0  0  0  0  0
  -22.5132  -23.0133   20.7822 C   0  0  0  0  0  0  0  0  0  0  0  0
  -21.3855  -13.5627   18.7468 C   0  0  0  0  0  0  0  0  0  0  0  0
  -21.2310  -12.3708   18.0389 C   0  0  0  0  0  0  0  0  0  0  0  0
  -23.9034  -24.4493   19.4314 C   0  0  0  0  0  0  0  0  0  0  0  0
  -22.8014  -11.2870   19.5209 C   0  0  0  0  0  0  0  0  0  0  0  0
  -25.3192  -21.4222   15.6964 C   0  0  0  0  0  0  0  0  0  0  0  0
  -26.1995  -16.4614   20.7261 C   0  0  0  0  0  0  0  0  0  0  0  0
  -28.7279  -16.3677   21.0513 C   0  0  0  0  0  0  0  0  0  0  0  0
  -18.6159  -30.7433   23.3730 C   0  0  0  0  0  0  0  0  0  0  0  0
  -23.1135  -25.2249   21.5842 C   0  0  0  0  0  0  0  0  0  0  0  0
  -18.9871  -29.5724   22.6848 C   0  0  0  0  0  0  0  0  0  0  0  0
  -23.8547  -25.4488   20.4151 C   0  0  0  0  0  0  0  0  0  0  0  0
  -23.6457  -15.3454   20.6040 C   0  0  0  0  0  0  0  0  0  0  0  0
  -23.2348  -23.2390   19.6137 C   0  0  0  0  0  0  0  0  0  0  0  0
  -22.2481  -13.6168   19.8418 C   0  0  0  0  0  0  0  0  0  0  0  0
  -21.9389  -11.2330   18.4259 C   0  0  0  0  0  0  0  0  0  0  0  0
  -22.9560  -12.4789   20.2288 C   0  0  0  0  0  0  0  0  0  0  0  0
  -27.5184  -17.0382   20.7884 C   0  0  0  0  0  0  0  0  0  0  0  0
  -26.4281  -20.5777   15.5155 C   0  0  0  0  0  0  0  0  0  0  0  0
  -24.2493  -20.6267   15.3825 C   0  0  0  0  0  0  0  0  0  0  0  0
  -29.6845  -17.3519   20.9993 C   0  0  0  0  0  0  0  0  0  0  0  0
  -28.9656  -14.9792   21.3184 C   0  0  0  0  0  0  0  0  0  0  0  0
  -22.1898  -28.2602   21.3911 C   0  0  0  0  0  0  0  0  0  0  0  0
  -22.1682  -20.7450   16.4551 C   0  0  0  0  0  0  0  0  0  0  0  0
  -25.3841  -28.8239   21.3625 C   0  0  0  0  0  0  0  0  0  0  0  0
  -28.5259  -27.6599   20.7134 C   0  0  0  0  0  0  0  0  0  0  0  0
  -30.0808  -22.5476   18.2775 C   0  0  0  0  0  0  0  0  0  0  0  0
  -19.2431  -32.0791   23.0615 C   0  0  0  0  0  0  0  0  0  0  0  0
  -23.0637  -26.2686   22.6661 C   0  0  0  0  0  0  0  0  0  0  0  0
  -24.5955  -26.7390   20.1807 C   0  0  0  0  0  0  0  0  0  0  0  0
  -20.5605  -31.9703   22.2982 C   0  0  0  0  0  0  0  0  0  0  0  0
  -30.0313  -21.7460   14.6625 C   0  0  0  0  0  0  0  0  0  0  0  0
  -30.2904  -22.0408   21.7019 C   0  0  0  0  0  0  0  0  0  0  0  0
  -20.4279  -30.9835   21.1425 C   0  0  0  0  0  0  0  0  0  0  0  0
  -28.5625  -21.4013   14.4199 C   0  0  0  0  0  0  0  0  0  0  0  0
  -29.7213  -20.6357   21.8978 C   0  0  0  0  0  0  0  0  0  0  0  0
  -30.2008  -22.7283   15.8177 C   0  0  0  0  0  0  0  0  0  0  0  0
  -29.4848  -22.8171   20.6663 C   0  0  0  0  0  0  0  0  0  0  0  0
  -28.0919  -21.9395   16.8417 C   0  0  0  0  0  0  0  0  0  0  0  0
  -28.8255  -20.7269   19.5201 C   0  0  0  0  0  0  0  0  0  0  0  0
  -20.0949  -29.5767   21.6538 C   0  0  1  0  0  0  0  0  0  0  0  0
  -27.8940  -20.9126   15.7166 C   0  0  1  0  0  0  0  0  0  0  0  0
  -23.3468  -27.6766   22.1516 C   0  0  1  0  0  0  0  0  0  0  0  0
  -29.6089  -19.8944   20.5543 C   0  0  2  0  0  0  0  0  0  0  0  0
  -20.6879  -21.0673   16.4695 C   0  0  0  0  0  0  0  0  0  0  0  0
  -22.1029  -18.7615   17.9984 C   0  0  0  0  0  0  0  0  0  0  0  0
  -31.0340  -27.6468   20.6345 C   0  0  0  0  0  0  0  0  0  0  0  0
  -24.9505  -30.4349   18.8078 C   0  0  0  0  0  0  0  0  0  0  0  0
  -27.4147  -30.2991   18.3867 C   0  0  0  0  0  0  0  0  0  0  0  0
  -26.5614  -31.4570   20.4248 C   0  0  0  0  0  0  0  0  0  0  0  0
  -28.7210  -26.5028   23.4304 C   0  0  0  0  0  0  0  0  0  0  0  0
  -22.5895  -21.0621   18.9059 C   0  0  0  0  0  0  0  0  0  1  0  0
  -22.7583  -20.1119   17.7202 C   0  0  2  0  0  0  0  0  0  0  0  0
  -26.4406  -28.9353   20.2899 C   0  0  1  0  0  0  0  0  0  0  0  0
  -29.8055  -27.7056   21.5289 C   0  0  2  0  0  0  0  0  0  0  0  0
  -26.3263  -30.2579   19.4806 C   0  0  0  0  0  0  0  0  0  0  0  0
  -27.6883  -18.3473   20.5847 N   0  0  0  0  0  0  0  0  0  0  0  0
  -26.0731  -19.3520   15.1197 N   0  0  0  0  0  0  0  0  0  0  0  0
  -22.9284  -20.9188   15.3814 N   0  0  0  0  0  0  0  0  0  0  0  0
  -29.0158  -18.5072   20.7197 N   0  0  0  0  0  0  0  0  0  0  0  0
  -24.5113  -27.7310   21.2653 N   0  0  0  0  0  0  0  0  0  0  0  0
  -29.5152  -22.2629   17.0236 N   0  0  0  0  0  0  0  0  0  0  0  0
  -29.3923  -22.0790   19.4066 N   0  0  0  0  0  0  0  0  0  0  0  0
  -31.0240  -17.3332   21.1660 N   0  0  0  0  0  0  0  0  0  0  0  0
  -27.8703  -14.1049   21.3345 N   0  0  0  0  0  0  0  0  0  0  0  0
  -21.2808  -28.9369   22.1818 N   0  0  0  0  0  0  0  0  0  0  0  0
  -27.7236  -28.7538   20.9602 N   0  0  0  0  0  0  0  0  0  0  0  0
  -29.8578  -26.5558   22.4755 N   0  3  0  0  0  0  0  0  0  0  0  0
  -30.1131  -14.5300   21.5527 O   0  0  0  0  0  0  0  0  0  0  0  0
  -22.1273  -28.1092   20.1766 O   0  0  0  0  0  0  0  0  0  0  0  0
  -25.3397  -29.6714   22.2578 O   0  0  0  0  0  0  0  0  0  0  0  0
  -28.2658  -26.7470   19.9326 O   0  0  0  0  0  0  0  0  0  0  0  0
  -31.1397  -23.1797   18.3802 O   0  0  0  0  0  0  0  0  0  0  0  0
  -24.6864  -19.3887   15.0367 O   0  0  0  0  0  0  0  0  0  0  0  0
  -22.3998  -14.8006   20.5440 O   0  0  0  0  0  0  0  0  0  0  0  0
  -23.2925  -22.2714   18.6455 O   0  0  0  0  0  0  0  0  0  1  0  0
  -21.7893  -10.0881   17.7470 F   0  0  0  0  0  0  0  0  0  0  0  0
  -23.7851  -12.5244   21.2806 F   0  0  0  0  0  0  0  0  0  0  0  0
  1  2  1  0  0  0  0
  1  5  2  0  0  0  0
  2  6  2  0  0  0  0
  3  8  2  0  0  0  0
  3 16  1  0  0  0  0
  4  9  1  0  0  0  0
  4 16  2  0  0  0  0
  5 18  1  0  0  0  0
  6 20  1  0  0  0  0
  7 10  2  0  0  0  0
  7 19  1  0  0  0  0
  8 22  1  0  0  0  0
  9 22  2  0  0  0  0
 10 23  1  0  0  0  0
 11 12  2  0  0  0  0
 11 24  1  0  0  0  0
 12 25  1  0  0  0  0
 13 21  1  0  0  0  0
 13 23  2  0  0  0  0
 14 25  2  0  0  0  0
 14 26  1  0  0  0  0
 15 28  1  0  0  0  0
 15 29  2  0  0  0  0
 16 27  1  0  0  0  0
 17 27  1  0  0  0  0
 17 30  2  0  0  0  0
 17 31  1  0  0  0  0
 18 20  2  0  0  0  0
 18 37  1  0  0  0  0
 19 21  2  0  0  0  0
 19 38  1  0  0  0  0
 20 50  1  0  0  0  0
 21 39  1  0  0  0  0
 22 84  1  0  0  0  0
 23 85  1  0  0  0  0
 24 26  2  0  0  0  0
 24 84  1  0  0  0  0
 25 86  1  0  0  0  0
 26 87  1  0  0  0  0
 27 66  2  0  0  0  0
 28 51  1  0  0  0  0
 28 67  2  0  0  0  0
 29 68  1  0  0  0  0
 29 83  1  0  0  0  0
 30 69  1  0  0  0  0
 30 73  1  0  0  0  0
 31 74  1  0  0  0  0
 31 78  2  0  0  0  0
 32 52  1  0  0  0  0
 32 75  1  0  0  0  0
 32 79  2  0  0  0  0
 33 54  1  0  0  0  0
 33 62  1  0  0  0  0
 33 68  2  0  0  0  0
 34 63  1  0  0  0  0
 34 70  1  0  0  0  0
 34 80  2  0  0  0  0
 35 64  1  0  0  0  0
 35 76  1  0  0  0  0
 35 81  2  0  0  0  0
 36 71  1  0  0  0  0
 36 72  1  0  0  0  0
 36 82  2  0  0  0  0
 37 40  1  0  0  0  0
 38 52  1  0  0  0  0
 39 70  1  0  0  0  0
 40 43  1  0  0  0  0
 41 44  1  0  0  0  0
 41 46  1  0  0  0  0
 42 45  1  0  0  0  0
 42 47  1  0  0  0  0
 43 50  1  0  0  0  0
 44 51  1  0  0  0  0
 45 53  1  0  0  0  0
 46 71  1  0  0  0  0
 47 72  1  0  0  0  0
 48 51  1  0  0  0  0
 48 71  1  0  0  0  0
 49 53  1  0  0  0  0
 49 72  1  0  0  0  0
 50 75  1  0  0  0  0
 52 70  1  0  0  0  0
 53 69  1  0  0  0  0
 55 62  1  0  0  0  0
 56 64  1  0  0  0  0
 57 65  1  0  0  0  0
 58 65  1  0  0  0  0
 59 65  1  0  0  0  0
 60 77  1  0  0  0  0
 61 62  1  0  0  0  0
 61 85  1  0  0  0  0
 63 65  1  0  0  0  0
 63 76  1  0  0  0  0
 64 77  1  0  0  0  0
 66 69  1  0  0  0  0
 67 83  1  0  0  0  0
M  CHG  1  77   1
M  ISO  4  36 100  61 101  71 100  85 101
M  END
> <Batch ID>
0149

> <Smiles>
CNC(C)C(=O)NC(C(=O)N1Cc2cc([101O:1][101CH2:1]C(C)=C(C)Nc3cc(C4CCC[100N:0]([100C:0](=O)N5CCCC(n6nc(-c7ccc(Oc8ccc(F)cc8F)cc7)c(C(N)=O)c6N)C5)C4)no3)ccc2CC1C(=O)NC1CCCc2ccccc21)C(C)(C)C

> <Shape>
0.226

> <Color>
0.071

> <Negative vol penalty>
0.000

$$$$

  -OEChem-04052303193D

 85 94  0     1  0  0  0  0  0999 V2000
  -27.9393  -33.4582   26.4737 C   0  0  0  0  0  0  0  0  0  0  0  0
  -28.6809  -32.5586   25.7148 C   0  0  0  0  0  0  0  0  0  0  0  0
  -23.1685   -9.7791   20.1091 C   0  0  0  0  0  0  0  0  0  0  0  0
  -23.7892  -10.0783   22.4247 C   0  0  0  0  0  0  0  0  0  0  0  0
  -26.6130  -33.1711   26.7937 C   0  0  0  0  0  0  0  0  0  0  0  0
  -28.0969  -31.3707   25.2763 C   0  0  0  0  0  0  0  0  0  0  0  0
  -29.1733  -28.4711   19.9905 C   0  0  0  0  0  0  0  0  0  0  0  0
  -22.4301   -8.6470   20.4532 C   0  0  0  0  0  0  0  0  0  0  0  0
  -23.0507   -8.9462   22.7689 C   0  0  0  0  0  0  0  0  0  0  0  0
  -29.9855  -27.3857   19.6645 C   0  0  0  0  0  0  0  0  0  0  0  0
  -19.4136   -7.9605   21.8179 C   0  0  0  0  0  0  0  0  0  0  0  0
  -18.1391   -7.8257   21.2673 C   0  0  0  0  0  0  0  0  0  0  0  0
  -28.0889  -25.9103   19.8778 C   0  0  0  0  0  0  0  0  0  0  0  0
  -18.8091   -5.7521   20.2240 C   0  0  0  0  0  0  0  0  0  0  0  0
  -31.6223  -17.8456   21.4491 C   0  0  0  0  0  0  0  0  0  0  0  0
  -23.8482  -10.4948   21.0948 C   0  0  0  0  0  0  0  0  0  0  0  0
  -24.1549  -12.9948   20.6904 C   0  0  0  0  0  0  0  0  0  0  0  0
  -26.0095  -31.9836   26.3508 C   0  0  0  0  0  0  0  0  0  0  0  0
  -27.8130  -28.2824   20.2738 C   0  0  0  0  0  0  0  0  0  0  0  0
  -26.7617  -31.0668   25.5918 C   0  0  0  0  0  0  0  0  0  0  0  0
  -27.2611  -26.9952   20.2046 C   0  0  0  0  0  0  0  0  0  0  0  0
  -22.3712   -8.2305   21.7832 C   0  0  0  0  0  0  0  0  0  0  0  0
  -29.4439  -26.1047   19.6109 C   0  0  0  0  0  0  0  0  0  0  0  0
  -20.3859   -6.9911   21.5715 C   0  0  0  0  0  0  0  0  0  0  0  0
  -17.8369   -6.7215   20.4704 C   0  0  0  0  0  0  0  0  0  0  0  0
  -20.0836   -5.8869   20.7745 C   0  0  0  0  0  0  0  0  0  0  0  0
  -24.6116  -11.6641   20.7398 C   0  0  0  0  0  0  0  0  0  0  0  0
  -31.4282  -19.1163   22.0177 C   0  0  0  0  0  0  0  0  0  0  0  0
  -25.2544  -13.7210   20.3028 C   0  0  0  0  0  0  0  0  0  0  0  0
  -30.4277  -17.2091   21.6586 C   0  0  0  0  0  0  0  0  0  0  0  0
  -22.8533  -13.5270   20.9701 C   0  0  0  0  0  0  0  0  0  0  0  0
  -32.4128  -20.2119   22.0666 C   0  0  0  0  0  0  0  0  0  0  0  0
  -25.9617  -28.7682   22.8116 C   0  0  0  0  0  0  0  0  0  0  0  0
  -23.5941  -27.9303   20.7586 C   0  0  0  0  0  0  0  0  0  0  0  0
  -22.6730  -26.2819   17.9159 C   0  0  0  0  0  0  0  0  0  0  0  0
  -30.6824  -14.9084   20.6645 C   0  0  0  0  0  0  0  0  0  0  0  0
  -24.5874  -31.6949   26.7617 C   0  0  0  0  0  0  0  0  0  0  0  0
  -26.9446  -29.4671   20.5977 C   0  0  0  0  0  0  0  0  0  0  0  0
  -25.8022  -26.7420   20.4802 C   0  0  0  0  0  0  0  0  0  0  0  0
  -23.9292  -30.5881   25.9418 C   0  0  0  0  0  0  0  0  0  0  0  0
  -29.7519  -12.2031   18.5448 C   0  0  0  0  0  0  0  0  0  0  0  0
  -24.8664  -29.3918   25.8105 C   0  0  0  0  0  0  0  0  0  0  0  0
  -28.2941  -11.9312   18.9228 C   0  0  0  0  0  0  0  0  0  0  0  0
  -32.1643  -23.6421   20.9573 C   0  0  0  0  0  0  0  0  0  0  0  0
  -30.5894  -12.5955   19.7607 C   0  0  0  0  0  0  0  0  0  0  0  0
  -33.0459  -22.5146   21.4844 C   0  0  0  0  0  0  0  0  0  0  0  0
  -28.5913  -13.4348   20.9323 C   0  0  0  0  0  0  0  0  0  0  0  0
  -30.8628  -21.6290   20.7811 C   0  0  0  0  0  0  0  0  0  0  0  0
  -26.1560  -29.7792   25.0768 C   0  0  1  0  0  0  0  0  0  0  0  0
  -25.6843  -29.0906   21.3705 C   0  0  1  0  0  0  0  0  0  0  0  0
  -27.6939  -13.0991   19.7299 C   0  0  2  0  0  0  0  0  0  0  0  0
  -31.1506  -22.9429   20.0319 C   0  0  2  0  0  0  0  0  0  0  0  0
  -31.7687  -22.6570   18.6538 C   0  0  0  0  0  0  0  0  0  0  0  0
  -20.6620  -25.7441   16.5145 C   0  0  0  0  0  0  0  0  0  0  0  0
  -22.7288  -25.8405   22.8065 C   0  0  0  0  0  0  0  0  0  0  0  0
  -21.3817  -24.7370   21.0077 C   0  0  0  0  0  0  0  0  0  0  0  0
  -20.8463  -27.0696   21.7111 C   0  0  0  0  0  0  0  0  0  0  0  0
  -23.7942  -27.6830   15.5625 C   0  0  0  0  0  0  0  0  0  0  0  0
  -29.8830  -23.7804   19.8568 C   0  0  0  0  0  0  0  0  0  1  0  0
  -22.9365  -26.6319   20.3577 C   0  0  1  0  0  0  0  0  0  0  0  0
  -21.8171  -26.7080   16.7369 C   0  0  2  0  0  0  0  0  0  0  0  0
  -22.0013  -26.0739   21.4674 C   0  0  0  0  0  0  0  0  0  0  0  0
  -25.9007  -11.5487   20.4097 N   0  0  0  0  0  0  0  0  0  0  0  0
  -30.2066  -19.2571   22.5399 N   0  0  0  0  0  0  0  0  0  0  0  0
  -26.2634  -12.8163   20.1491 N   0  0  0  0  0  0  0  0  0  0  0  0
  -32.1294  -21.3650   21.4887 N   0  0  0  0  0  0  0  0  0  0  0  0
  -24.9956  -27.9318   20.7987 N   0  0  0  0  0  0  0  0  0  0  0  0
  -29.9619  -13.7104   20.4736 N   0  0  0  0  0  0  0  0  0  0  0  0
  -25.4469  -15.0387   20.0816 N   0  0  0  0  0  0  0  0  0  0  0  0
  -21.8381  -12.6411   21.3559 N   0  0  0  0  0  0  0  0  0  0  0  0
  -29.9719  -15.9092   21.3265 N   0  0  0  0  0  0  0  0  0  0  0  0
  -25.9203  -29.8648   23.6515 N   0  0  0  0  0  0  0  0  0  0  0  0
  -22.2685  -26.8882   19.0864 N   0  0  0  0  0  0  0  0  0  0  0  0
  -33.5702  -20.0227   22.6933 N   0  3  0  0  0  0  0  0  0  0  0  0
  -22.6360  -26.7554   15.4926 N   0  3  0  0  0  0  0  0  0  0  0  0
  -22.5938  -14.7497   20.8646 O   0  0  0  0  0  0  0  0  0  0  0  0
  -26.1946  -27.6102   23.1377 O   0  0  0  0  0  0  0  0  0  0  0  0
  -22.8904  -28.9093   21.0195 O   0  0  0  0  0  0  0  0  0  0  0  0
  -23.6048  -25.4875   17.8100 O   0  0  0  0  0  0  0  0  0  0  0  0
  -31.8346  -15.0465   20.2457 O   0  0  0  0  0  0  0  0  0  0  0  0
  -29.5745  -18.0412   22.3087 O   0  0  0  0  0  0  0  0  0  0  0  0
  -21.6505   -7.1259   22.1194 O   0  0  0  0  0  0  0  0  0  0  0  0
  -30.2345  -25.0435   19.2936 O   0  0  0  0  0  0  0  0  0  1  0  0
  -16.6125   -6.5915   19.9430 F   0  0  0  0  0  0  0  0  0  0  0  0
  -21.0132   -4.9518   20.5352 F   0  0  0  0  0  0  0  0  0  0  0  0
  1  2  1  0  0  0  0
  1  5  2  0  0  0  0
  2  6  2  0  0  0  0
  3  8  2  0  0  0  0
  3 16  1  0  0  0  0
  4  9  1  0  0  0  0
  4 16  2  0  0  0  0
  5 18  1  0  0  0  0
  6 20  1  0  0  0  0
  7 10  2  0  0  0  0
  7 19  1  0  0  0  0
  8 22  1  0  0  0  0
  9 22  2  0  0  0  0
 10 23  1  0  0  0  0
 11 12  2  0  0  0  0
 11 24  1  0  0  0  0
 12 25  1  0  0  0  0
 13 21  1  0  0  0  0
 13 23  2  0  0  0  0
 14 25  2  0  0  0  0
 14 26  1  0  0  0  0
 15 28  1  0  0  0  0
 15 30  2  0  0  0  0
 16 27  1  0  0  0  0
 17 27  1  0  0  0  0
 17 29  2  0  0  0  0
 17 31  1  0  0  0  0
 18 20  2  0  0  0  0
 18 37  1  0  0  0  0
 19 21  2  0  0  0  0
 19 38  1  0  0  0  0
 20 49  1  0  0  0  0
 21 39  1  0  0  0  0
 22 82  1  0  0  0  0
 23 83  1  0  0  0  0
 24 26  2  0  0  0  0
 24 82  1  0  0  0  0
 25 84  1  0  0  0  0
 26 85  1  0  0  0  0
 27 63  2  0  0  0  0
 28 32  1  0  0  0  0
 28 64  2  0  0  0  0
 29 65  1  0  0  0  0
 29 69  1  0  0  0  0
 30 71  1  0  0  0  0
 30 81  1  0  0  0  0
 31 70  1  0  0  0  0
 31 76  2  0  0  0  0
 32 66  1  0  0  0  0
 32 74  2  0  0  0  0
 33 50  1  0  0  0  0
 33 72  1  0  0  0  0
 33 77  2  0  0  0  0
 34 60  1  0  0  0  0
 34 67  1  0  0  0  0
 34 78  2  0  0  0  0
 35 61  1  0  0  0  0
 35 73  1  0  0  0  0
 35 79  2  0  0  0  0
 36 68  1  0  0  0  0
 36 71  1  0  0  0  0
 36 80  2  0  0  0  0
 37 40  1  0  0  0  0
 38 50  1  0  0  0  0
 39 67  1  0  0  0  0
 40 42  1  0  0  0  0
 41 43  1  0  0  0  0
 41 45  1  0  0  0  0
 42 49  1  0  0  0  0
 43 51  1  0  0  0  0
 44 46  1  0  0  0  0
 44 52  1  0  0  0  0
 45 68  1  0  0  0  0
 46 66  1  0  0  0  0
 47 51  1  0  0  0  0
 47 68  1  0  0  0  0
 48 52  1  0  0  0  0
 48 66  1  0  0  0  0
 49 72  1  0  0  0  0
 50 67  1  0  0  0  0
 51 65  1  0  0  0  0
 52 53  1  0  0  0  0
 52 59  1  0  0  0  0
 54 61  1  0  0  0  0
 55 62  1  0  0  0  0
 56 62  1  0  0  0  0
 57 62  1  0  0  0  0
 58 75  1  0  0  0  0
 59 83  1  0  0  0  0
 60 62  1  0  0  0  0
 60 73  1  0  0  0  0
 61 75  1  0  0  0  0
 63 65  1  0  0  0  0
 64 81  1  0  0  0  0
M  CHG  2  74   1  75   1
M  ISO  4  36 100  59 101  71 100  83 101
M  END
> <Batch ID>
0149

> <Smiles>
CNC(C)C(=O)NC(C(=O)N1Cc2cc([101O:1][101CH2:1]C3(C)CCN(C(=N)c4cc([100NH:0][100C:0](=O)N5CCCC(n6nc(-c7ccc(Oc8ccc(F)cc8F)cc7)c(C(N)=O)c6N)C5)on4)C3)ccc2CC1C(=O)NC1CCCc2ccccc21)C(C)(C)C

> <Shape>
0.323

> <Color>
0.204

> <Negative vol penalty>
0.000

$$$$

  -OEChem-04052303193D

 86 94  0     1  0  0  0  0  0999 V2000
  -20.3256  -36.0009   17.5680 C   0  0  0  0  0  0  0  0  0  0  0  0
  -20.7659  -34.7497   17.1484 C   0  0  0  0  0  0  0  0  0  0  0  0
  -24.2493   -8.9463   21.6394 C   0  0  0  0  0  0  0  0  0  0  0  0
  -23.2318  -10.3049   19.9201 C   0  0  0  0  0  0  0  0  0  0  0  0
  -21.0560  -36.7130   18.5183 C   0  0  0  0  0  0  0  0  0  0  0  0
  -21.9376  -34.2103   17.6782 C   0  0  0  0  0  0  0  0  0  0  0  0
  -24.8888  -27.9280   19.4501 C   0  0  0  0  0  0  0  0  0  0  0  0
  -22.9896   -8.6850   22.1784 C   0  0  0  0  0  0  0  0  0  0  0  0
  -21.9721  -10.0435   20.4591 C   0  0  0  0  0  0  0  0  0  0  0  0
  -26.0469  -27.1828   19.2333 C   0  0  0  0  0  0  0  0  0  0  0  0
  -20.0115   -7.3666   23.7932 C   0  0  0  0  0  0  0  0  0  0  0  0
  -19.7208   -6.0511   24.1543 C   0  0  0  0  0  0  0  0  0  0  0  0
  -27.1845  -28.4690   20.9277 C   0  0  0  0  0  0  0  0  0  0  0  0
  -29.0397  -18.0365   17.7584 C   0  0  0  0  0  0  0  0  0  0  0  0
  -20.0725   -5.3464   21.8703 C   0  0  0  0  0  0  0  0  0  0  0  0
  -27.1529  -17.0418   16.8350 C   0  0  0  0  0  0  0  0  0  0  0  0
  -24.3704   -9.7563   20.5102 C   0  0  0  0  0  0  0  0  0  0  0  0
  -26.3452   -9.2830   18.9663 C   0  0  0  0  0  0  0  0  0  0  0  0
  -22.2321  -36.1780   19.0672 C   0  0  0  0  0  0  0  0  0  0  0  0
  -24.8730  -28.9583   20.4013 C   0  0  0  0  0  0  0  0  0  0  0  0
  -22.6852  -34.9166   18.6358 C   0  0  0  0  0  0  0  0  0  0  0  0
  -26.0241  -29.2242   21.1565 C   0  0  0  0  0  0  0  0  0  0  0  0
  -28.1466  -16.9266   17.7820 C   0  0  0  0  0  0  0  0  0  0  0  0
  -21.8510   -9.2336   21.5883 C   0  0  0  0  0  0  0  0  0  0  0  0
  -27.1959  -27.4552   19.9701 C   0  0  0  0  0  0  0  0  0  0  0  0
  -20.3326   -7.6721   22.4706 C   0  0  0  0  0  0  0  0  0  0  0  0
  -19.7513   -5.0410   23.1929 C   0  0  0  0  0  0  0  0  0  0  0  0
  -20.3631   -6.6620   21.5092 C   0  0  0  0  0  0  0  0  0  0  0  0
  -25.6714  -10.0271   19.9533 C   0  0  0  0  0  0  0  0  0  0  0  0
  -27.5337   -9.9476   18.7869 C   0  0  0  0  0  0  0  0  0  0  0  0
  -28.6947  -18.9578   16.7940 C   0  0  0  0  0  0  0  0  0  0  0  0
  -29.6746  -23.9212   17.6250 C   0  0  0  0  0  0  0  0  0  0  0  0
  -25.9336   -8.0972   18.2735 C   0  0  0  0  0  0  0  0  0  0  0  0
  -30.7671  -23.1815   17.3670 C   0  0  0  0  0  0  0  0  0  0  0  0
  -29.6047  -25.0025   18.6522 C   0  0  0  0  0  0  0  0  0  0  0  0
  -24.4078  -32.1010   20.2965 C   0  0  0  0  0  0  0  0  0  0  0  0
  -24.5451  -31.8363   23.5266 C   0  0  0  0  0  0  0  0  0  0  0  0
  -30.4254  -20.7734   16.9866 C   0  0  0  0  0  0  0  0  0  0  0  0
  -25.6223  -30.0786   26.2463 C   0  0  0  0  0  0  0  0  0  0  0  0
  -29.2115  -15.6170   19.6521 C   0  0  0  0  0  0  0  0  0  0  0  0
  -23.0133  -37.0056   20.0568 C   0  0  0  0  0  0  0  0  0  0  0  0
  -23.6077  -29.7353   20.6421 C   0  0  0  0  0  0  0  0  0  0  0  0
  -26.0531  -30.3062   22.2038 C   0  0  0  0  0  0  0  0  0  0  0  0
  -24.0432  -36.2007   20.8453 C   0  0  0  0  0  0  0  0  0  0  0  0
  -30.6644  -12.7183   21.1230 C   0  0  0  0  0  0  0  0  0  0  0  0
  -24.8465  -35.3012   19.9113 C   0  0  0  0  0  0  0  0  0  0  0  0
  -29.6128  -11.6300   20.8947 C   0  0  0  0  0  0  0  0  0  0  0  0
  -30.0236  -14.0725   21.4213 C   0  0  0  0  0  0  0  0  0  0  0  0
  -27.9770  -13.4305   20.2096 C   0  0  0  0  0  0  0  0  0  0  0  0
  -23.9380  -34.2873   19.2055 C   0  0  1  0  0  0  0  0  0  0  0  0
  -23.8566  -31.1015   21.2737 C   0  0  1  0  0  0  0  0  0  0  0  0
  -28.5739  -12.0623   19.8415 C   0  0  2  0  0  0  0  0  0  0  0  0
  -25.6139  -30.1307   28.7552 C   0  0  0  0  0  0  0  0  0  0  0  0
  -26.7015  -33.9946   23.4866 C   0  0  0  0  0  0  0  0  0  0  0  0
  -27.3090  -33.3328   25.8235 C   0  0  0  0  0  0  0  0  0  0  0  0
  -25.0309  -34.2232   25.3335 C   0  0  0  0  0  0  0  0  0  0  0  0
  -24.1427  -27.5207   26.4101 C   0  0  0  0  0  0  0  0  0  0  0  0
  -30.7656  -22.1006   16.3242 C   0  0  0  0  0  0  0  0  0  0  0  0
  -28.2678  -25.7045   18.7692 C   0  0  0  0  0  0  0  0  0  1  0  0
  -25.6455  -31.8965   24.5584 C   0  0  1  0  0  0  0  0  0  0  0  0
  -24.9033  -29.6321   27.5065 C   0  0  2  0  0  0  0  0  0  0  0  0
  -26.1721  -33.3426   24.7795 C   0  0  0  0  0  0  0  0  0  0  0  0
  -26.3735  -11.0834   20.3718 N   0  0  0  0  0  0  0  0  0  0  0  0
  -27.5010  -11.0079   19.6443 N   0  0  0  0  0  0  0  0  0  0  0  0
  -24.7930  -31.0423   22.3979 N   0  0  0  0  0  0  0  0  0  0  0  0
  -29.0541  -14.4183   20.3795 N   0  0  0  0  0  0  0  0  0  0  0  0
  -28.5932   -9.7227   17.9812 N   0  0  0  0  0  0  0  0  0  0  0  0
  -24.6820   -7.5452   18.5791 N   0  0  0  0  0  0  0  0  0  0  0  0
  -28.2479  -15.8234   18.6654 N   0  0  0  0  0  0  0  0  0  0  0  0
  -29.2958  -20.1866   16.4292 N   0  0  0  0  0  0  0  0  0  0  0  0
  -23.5977  -33.2035   20.1022 N   0  0  0  0  0  0  0  0  0  0  0  0
  -25.1129  -31.2642   25.7605 N   0  0  0  0  0  0  0  0  0  0  0  0
  -24.8372  -28.1445   27.5657 N   0  3  0  0  0  0  0  0  0  0  0  0
  -26.6612   -7.5340   17.4209 O   0  0  0  0  0  0  0  0  0  0  0  0
  -30.5661  -25.3014   19.3545 O   0  0  0  0  0  0  0  0  0  0  0  0
  -25.4887  -31.8884   19.7597 O   0  0  0  0  0  0  0  0  0  0  0  0
  -23.5011  -32.4647   23.7185 O   0  0  0  0  0  0  0  0  0  0  0  0
  -31.1126  -20.3418   17.9091 O   0  0  0  0  0  0  0  0  0  0  0  0
  -26.5461  -29.4414   25.7453 O   0  0  0  0  0  0  0  0  0  0  0  0
  -30.1488  -16.3893   19.8688 O   0  0  0  0  0  0  0  0  0  0  0  0
  -31.9725  -23.3120   18.0253 O   0  0  0  0  0  0  0  0  0  0  0  0
  -20.6217   -8.9786   22.1138 O   0  0  0  0  0  0  0  0  0  0  0  0
  -28.3279  -26.7297   19.7600 O   0  0  0  0  0  0  0  0  0  1  0  0
  -19.4737   -3.7774   23.5401 F   0  0  0  0  0  0  0  0  0  0  0  0
  -20.6721   -6.9492   20.2372 F   0  0  0  0  0  0  0  0  0  0  0  0
  -27.2989  -18.4835   15.9226 S   0  0  0  0  0  0  0  0  0  0  0  0
  1  2  1  0  0  0  0
  1  5  2  0  0  0  0
  2  6  2  0  0  0  0
  3  8  2  0  0  0  0
  3 17  1  0  0  0  0
  4  9  1  0  0  0  0
  4 17  2  0  0  0  0
  5 19  1  0  0  0  0
  6 21  1  0  0  0  0
  7 10  2  0  0  0  0
  7 20  1  0  0  0  0
  8 24  1  0  0  0  0
  9 24  2  0  0  0  0
 10 25  1  0  0  0  0
 11 12  2  0  0  0  0
 11 26  1  0  0  0  0
 12 27  1  0  0  0  0
 13 22  1  0  0  0  0
 13 25  2  0  0  0  0
 14 23  1  0  0  0  0
 14 31  2  0  0  0  0
 15 27  2  0  0  0  0
 15 28  1  0  0  0  0
 16 23  2  0  0  0  0
 16 86  1  0  0  0  0
 17 29  1  0  0  0  0
 18 29  1  0  0  0  0
 18 30  2  0  0  0  0
 18 33  1  0  0  0  0
 19 21  2  0  0  0  0
 19 41  1  0  0  0  0
 20 22  2  0  0  0  0
 20 42  1  0  0  0  0
 21 50  1  0  0  0  0
 22 43  1  0  0  0  0
 23 69  1  0  0  0  0
 24 82  1  0  0  0  0
 25 83  1  0  0  0  0
 26 28  2  0  0  0  0
 26 82  1  0  0  0  0
 27 84  1  0  0  0  0
 28 85  1  0  0  0  0
 29 63  2  0  0  0  0
 30 64  1  0  0  0  0
 30 67  1  0  0  0  0
 31 70  1  0  0  0  0
 31 86  1  0  0  0  0
 32 34  2  0  0  0  0
 32 35  1  0  0  0  0
 33 68  1  0  0  0  0
 33 74  2  0  0  0  0
 34 58  1  0  0  0  0
 34 81  1  0  0  0  0
 35 59  1  0  0  0  0
 35 75  2  0  0  0  0
 36 51  1  0  0  0  0
 36 71  1  0  0  0  0
 36 76  2  0  0  0  0
 37 60  1  0  0  0  0
 37 65  1  0  0  0  0
 37 77  2  0  0  0  0
 38 58  1  0  0  0  0
 38 70  1  0  0  0  0
 38 78  2  0  0  0  0
 39 61  1  0  0  0  0
 39 72  1  0  0  0  0
 39 79  2  0  0  0  0
 40 66  1  0  0  0  0
 40 69  1  0  0  0  0
 40 80  2  0  0  0  0
 41 44  1  0  0  0  0
 42 51  1  0  0  0  0
 43 65  1  0  0  0  0
 44 46  1  0  0  0  0
 45 47  1  0  0  0  0
 45 48  1  0  0  0  0
 46 50  1  0  0  0  0
 47 52  1  0  0  0  0
 48 66  1  0  0  0  0
 49 52  1  0  0  0  0
 49 66  1  0  0  0  0
 50 71  1  0  0  0  0
 51 65  1  0  0  0  0
 52 64  1  0  0  0  0
 53 61  1  0  0  0  0
 54 62  1  0  0  0  0
 55 62  1  0  0  0  0
 56 62  1  0  0  0  0
 57 73  1  0  0  0  0
 59 83  1  0  0  0  0
 60 62  1  0  0  0  0
 60 72  1  0  0  0  0
 61 73  1  0  0  0  0
 63 64  1  0  0  0  0
M  CHG  1  73   1
M  ISO  4  40 100  59 101  69 100  83 101
M  END
> <Batch ID>
0149

> <Smiles>
CNC(C)C(=O)NC(C(=O)N1Cc2cc([101O:1][101CH2:1]C(=O)CC(=O)CC(=O)Nc3cc([100NH:0][100C:0](=O)N4CCCC(n5nc(-c6ccc(Oc7ccc(F)cc7F)cc6)c(C(N)=O)c5N)C4)cs3)ccc2CC1C(=O)NC1CCCc2ccccc21)C(C)(C)C

> <Shape>
0.258

> <Color>
0.128

> <Negative vol penalty>
0.000

$$$$

  -OEChem-04052303193D

 84 93  0     1  0  0  0  0  0999 V2000
  -21.6807  -33.0108   15.9701 C   0  0  0  0  0  0  0  0  0  0  0  0
  -22.6756  -32.0558   15.7866 C   0  0  0  0  0  0  0  0  0  0  0  0
  -23.8255   -9.9430   22.1548 C   0  0  0  0  0  0  0  0  0  0  0  0
  -22.3970  -10.3640   20.2523 C   0  0  0  0  0  0  0  0  0  0  0  0
  -21.5251  -33.6237   17.2127 C   0  0  0  0  0  0  0  0  0  0  0  0
  -23.5161  -31.7140   16.8454 C   0  0  0  0  0  0  0  0  0  0  0  0
  -25.8922  -26.1943   18.0256 C   0  0  0  0  0  0  0  0  0  0  0  0
  -23.3612   -8.6290   22.2127 C   0  0  0  0  0  0  0  0  0  0  0  0
  -21.9328   -9.0500   20.3101 C   0  0  0  0  0  0  0  0  0  0  0  0
  -27.1405  -25.6338   17.7584 C   0  0  0  0  0  0  0  0  0  0  0  0
  -20.6218   -7.0031   23.3425 C   0  0  0  0  0  0  0  0  0  0  0  0
  -20.2801   -6.4918   24.5944 C   0  0  0  0  0  0  0  0  0  0  0  0
  -27.8739  -26.2234   19.9796 C   0  0  0  0  0  0  0  0  0  0  0  0
  -28.6354  -20.6509   22.9726 C   0  0  0  0  0  0  0  0  0  0  0  0
  -21.9413   -4.7561   24.3390 C   0  0  0  0  0  0  0  0  0  0  0  0
  -23.3433  -10.8106   21.1747 C   0  0  0  0  0  0  0  0  0  0  0  0
  -24.9292  -12.6481   20.3895 C   0  0  0  0  0  0  0  0  0  0  0  0
  -22.3579  -33.2822   18.2899 C   0  0  0  0  0  0  0  0  0  0  0  0
  -25.6285  -26.7842   19.2701 C   0  0  0  0  0  0  0  0  0  0  0  0
  -23.3723  -32.3239   18.1032 C   0  0  0  0  0  0  0  0  0  0  0  0
  -26.6206  -26.7884   20.2609 C   0  0  0  0  0  0  0  0  0  0  0  0
  -27.5922  -19.7480   23.2607 C   0  0  0  0  0  0  0  0  0  0  0  0
  -22.4149   -8.1824   21.2903 C   0  0  0  0  0  0  0  0  0  0  0  0
  -28.1325  -25.6509   18.7345 C   0  0  0  0  0  0  0  0  0  0  0  0
  -21.6232   -6.3909   22.5887 C   0  0  0  0  0  0  0  0  0  0  0  0
  -20.9399   -5.3683   25.0927 C   0  0  0  0  0  0  0  0  0  0  0  0
  -22.2830   -5.2674   23.0870 C   0  0  0  0  0  0  0  0  0  0  0  0
  -23.8221  -12.1683   21.1148 C   0  0  0  0  0  0  0  0  0  0  0  0
  -27.1925  -19.0510   22.1580 C   0  0  0  0  0  0  0  0  0  0  0  0
  -24.9612  -13.9938   20.6622 C   0  0  0  0  0  0  0  0  0  0  0  0
  -28.9797  -20.5847   21.6316 C   0  0  0  0  0  0  0  0  0  0  0  0
  -25.8465  -11.9405   19.5448 C   0  0  0  0  0  0  0  0  0  0  0  0
  -24.8619  -29.7099   20.2482 C   0  0  0  0  0  0  0  0  0  0  0  0
  -24.5432  -28.2431   23.1239 C   0  0  0  0  0  0  0  0  0  0  0  0
  -30.8380  -22.2627   21.3604 C   0  0  0  0  0  0  0  0  0  0  0  0
  -25.3791  -25.6277   25.1506 C   0  0  0  0  0  0  0  0  0  0  0  0
  -24.7027  -18.0256   24.5864 C   0  0  0  0  0  0  0  0  0  0  0  0
  -22.1821  -34.0061   19.6013 C   0  0  0  0  0  0  0  0  0  0  0  0
  -24.2681  -27.3607   19.5519 C   0  0  0  0  0  0  0  0  0  0  0  0
  -26.3814  -27.3914   21.6202 C   0  0  0  0  0  0  0  0  0  0  0  0
  -26.8086  -19.3642   24.4486 C   0  0  0  0  0  0  0  0  0  0  0  0
  -26.1102  -18.0874   22.4243 C   0  0  0  0  0  0  0  0  0  0  0  0
  -22.8716  -33.3158   20.7753 C   0  0  0  0  0  0  0  0  0  0  0  0
  -21.5838  -16.9858   22.9505 C   0  0  0  0  0  0  0  0  0  0  0  0
  -24.2920  -32.9092   20.3961 C   0  0  0  0  0  0  0  0  0  0  0  0
  -21.9754  -15.6536   22.3072 C   0  0  0  0  0  0  0  0  0  0  0  0
  -22.3818  -17.2650   24.2225 C   0  0  0  0  0  0  0  0  0  0  0  0
  -24.2247  -15.8364   23.4282 C   0  0  0  0  0  0  0  0  0  0  0  0
  -24.2878  -31.9083   19.2343 C   0  0  1  0  0  0  0  0  0  0  0  0
  -24.2776  -28.3931   20.6751 C   0  0  1  0  0  0  0  0  0  0  0  0
  -23.5000  -15.5582   22.1047 C   0  0  1  0  0  0  0  0  0  0  0  0
  -24.9917  -24.7221   27.4587 C   0  0  0  0  0  0  0  0  0  0  0  0
  -26.4468  -30.3381   24.2628 C   0  0  0  0  0  0  0  0  0  0  0  0
  -26.7645  -28.8624   26.2602 C   0  0  0  0  0  0  0  0  0  0  0  0
  -24.5051  -29.7814   25.7374 C   0  0  0  0  0  0  0  0  0  0  0  0
  -24.1639  -23.1432   24.0974 C   0  0  0  0  0  0  0  0  0  0  0  0
  -31.7234  -22.7699   20.2306 C   0  0  0  0  0  0  0  0  0  0  0  0
  -30.9237  -23.3958   19.0933 C   0  0  0  0  0  0  0  0  0  0  0  0
  -30.0663  -24.5548   19.5802 C   0  0  0  0  0  0  0  0  0  1  0  0
  -25.4654  -27.9501   24.2826 C   0  0  1  0  0  0  0  0  0  0  0  0
  -24.5304  -24.7078   26.0096 C   0  0  2  0  0  0  0  0  0  0  0  0
  -25.8009  -29.2233   25.1096 C   0  0  0  0  0  0  0  0  0  0  0  0
  -23.1962  -13.1309   21.7971 N   0  0  0  0  0  0  0  0  0  0  0  0
  -23.9124  -14.2291   21.5018 N   0  0  0  0  0  0  0  0  0  0  0  0
  -25.0371  -27.9481   21.8453 N   0  0  0  0  0  0  0  0  0  0  0  0
  -25.8580  -18.3661   23.8742 N   0  0  0  0  0  0  0  0  0  0  0  0
  -23.8165  -17.1337   23.9746 N   0  0  0  0  0  0  0  0  0  0  0  0
  -25.7839  -14.9871   20.2634 N   0  0  0  0  0  0  0  0  0  0  0  0
  -25.6691  -10.5609   19.3737 N   0  0  0  0  0  0  0  0  0  0  0  0
  -29.9239  -21.2686   20.9166 N   0  0  0  0  0  0  0  0  0  0  0  0
  -23.9398  -30.5858   19.7078 N   0  0  0  0  0  0  0  0  0  0  0  0
  -24.8279  -26.8879   25.0531 N   0  0  0  0  0  0  0  0  0  0  0  0
  -24.6103  -23.3079   25.5048 N   0  3  0  0  0  0  0  0  0  0  0  0
  -26.8052  -12.5119   18.9722 O   0  0  0  0  0  0  0  0  0  0  0  0
  -26.0603  -29.9165   20.3994 O   0  0  0  0  0  0  0  0  0  0  0  0
  -23.4229  -28.7096   23.3455 O   0  0  0  0  0  0  0  0  0  0  0  0
  -30.9352  -22.6901   22.5060 O   0  0  0  0  0  0  0  0  0  0  0  0
  -26.4281  -25.2658   24.6223 O   0  0  0  0  0  0  0  0  0  0  0  0
  -24.4491  -18.5341   25.6856 O   0  0  0  0  0  0  0  0  0  0  0  0
  -21.9618   -6.9002   21.3463 O   0  0  0  0  0  0  0  0  0  0  0  0
  -29.3610  -25.1011   18.4742 O   0  0  0  0  0  0  0  0  0  1  0  0
  -20.6127   -4.8783   26.2956 F   0  0  0  0  0  0  0  0  0  0  0  0
  -23.2466   -4.6757   22.3679 F   0  0  0  0  0  0  0  0  0  0  0  0
  -28.0263  -19.4318   20.7605 S   0  0  0  0  0  0  0  0  0  0  0  0
  1  2  1  0  0  0  0
  1  5  2  0  0  0  0
  2  6  2  0  0  0  0
  3  8  2  0  0  0  0
  3 16  1  0  0  0  0
  4  9  1  0  0  0  0
  4 16  2  0  0  0  0
  5 18  1  0  0  0  0
  6 20  1  0  0  0  0
  7 10  2  0  0  0  0
  7 19  1  0  0  0  0
  8 23  1  0  0  0  0
  9 23  2  0  0  0  0
 10 24  1  0  0  0  0
 11 12  2  0  0  0  0
 11 25  1  0  0  0  0
 12 26  1  0  0  0  0
 13 21  1  0  0  0  0
 13 24  2  0  0  0  0
 14 22  1  0  0  0  0
 14 31  2  0  0  0  0
 15 26  2  0  0  0  0
 15 27  1  0  0  0  0
 16 28  1  0  0  0  0
 17 28  1  0  0  0  0
 17 30  2  0  0  0  0
 17 32  1  0  0  0  0
 18 20  2  0  0  0  0
 18 38  1  0  0  0  0
 19 21  2  0  0  0  0
 19 39  1  0  0  0  0
 20 49  1  0  0  0  0
 21 40  1  0  0  0  0
 22 29  2  0  0  0  0
 22 41  1  0  0  0  0
 23 80  1  0  0  0  0
 24 81  1  0  0  0  0
 25 27  2  0  0  0  0
 25 80  1  0  0  0  0
 26 82  1  0  0  0  0
 27 83  1  0  0  0  0
 28 63  2  0  0  0  0
 29 42  1  0  0  0  0
 29 84  1  0  0  0  0
 30 64  1  0  0  0  0
 30 68  1  0  0  0  0
 31 70  1  0  0  0  0
 31 84  1  0  0  0  0
 32 69  1  0  0  0  0
 32 74  2  0  0  0  0
 33 50  1  0  0  0  0
 33 71  1  0  0  0  0
 33 75  2  0  0  0  0
 34 60  1  0  0  0  0
 34 65  1  0  0  0  0
 34 76  2  0  0  0  0
 35 57  1  0  0  0  0
 35 70  1  0  0  0  0
 35 77  2  0  0  0  0
 36 61  1  0  0  0  0
 36 72  1  0  0  0  0
 36 78  2  0  0  0  0
 37 66  1  0  0  0  0
 37 67  1  0  0  0  0
 37 79  2  0  0  0  0
 38 43  1  0  0  0  0
 39 50  1  0  0  0  0
 40 65  1  0  0  0  0
 41 66  1  0  0  0  0
 42 66  1  0  0  0  0
 43 45  1  0  0  0  0
 44 46  1  0  0  0  0
 44 47  1  0  0  0  0
 45 49  1  0  0  0  0
 46 51  1  0  0  0  0
 47 67  1  0  0  0  0
 48 51  1  0  0  0  0
 48 67  1  0  0  0  0
 49 71  1  0  0  0  0
 50 65  1  0  0  0  0
 51 64  1  0  0  0  0
 52 61  1  0  0  0  0
 53 62  1  0  0  0  0
 54 62  1  0  0  0  0
 55 62  1  0  0  0  0
 56 73  1  0  0  0  0
 57 58  1  0  0  0  0
 58 59  1  0  0  0  0
 59 81  1  0  0  0  0
 60 62  1  0  0  0  0
 60 72  1  0  0  0  0
 61 73  1  0  0  0  0
 63 64  1  0  0  0  0
M  CHG  1  73   1
M  ISO  4  37 100  59 101  66 100  81 101
M  END
> <Batch ID>
0149

> <Smiles>
CNC(C)C(=O)NC(C(=O)N1Cc2cc([101O:1][101CH2:1]CCC(=O)Nc3cc4c(s3)C[100N:0]([100C:0](=O)N3CCCC(n5nc(-c6ccc(Oc7ccc(F)cc7F)cc6)c(C(N)=O)c5N)C3)C4)ccc2CC1C(=O)NC1CCCc2ccccc21)C(C)(C)C

> <Shape>
0.225

> <Color>
0.108

> <Negative vol penalty>
0.000

$$$$

  -OEChem-04052303193D

 84 93  0     1  0  0  0  0  0999 V2000
  -28.7998  -24.1026   24.6106 C   0  0  0  0  0  0  0  0  0  0  0  0
  -27.5896  -23.4648   24.3574 C   0  0  0  0  0  0  0  0  0  0  0  0
  -25.6244  -30.7183   20.4345 C   0  0  0  0  0  0  0  0  0  0  0  0
  -24.0843  -28.9877   21.1202 C   0  0  0  0  0  0  0  0  0  0  0  0
  -29.7704  -24.1752   23.6123 C   0  0  0  0  0  0  0  0  0  0  0  0
  -27.3489  -22.9003   23.1053 C   0  0  0  0  0  0  0  0  0  0  0  0
  -23.9320  -17.4124   20.0192 C   0  0  0  0  0  0  0  0  0  0  0  0
  -25.1911  -31.5218   21.4891 C   0  0  0  0  0  0  0  0  0  0  0  0
  -23.6510  -29.7911   22.1749 C   0  0  0  0  0  0  0  0  0  0  0  0
  -23.0169  -17.1488   19.0009 C   0  0  0  0  0  0  0  0  0  0  0  0
  -24.7475  -33.8850   24.2156 C   0  0  0  0  0  0  0  0  0  0  0  0
  -25.7183  -34.5414   24.9720 C   0  0  0  0  0  0  0  0  0  0  0  0
  -24.7980  -17.2660   17.3782 C   0  0  0  0  0  0  0  0  0  0  0  0
  -26.6853  -32.4121   25.5788 C   0  0  0  0  0  0  0  0  0  0  0  0
  -22.1081  -21.3590   13.1422 C   0  0  0  0  0  0  0  0  0  0  0  0
  -25.0710  -29.4512   20.2500 C   0  0  0  0  0  0  0  0  0  0  0  0
  -26.5728  -27.6892   19.1789 C   0  0  0  0  0  0  0  0  0  0  0  0
  -29.5453  -23.6029   22.3504 C   0  0  0  0  0  0  0  0  0  0  0  0
  -25.2874  -17.6158   19.7230 C   0  0  0  0  0  0  0  0  0  0  0  0
  -28.3169  -22.9665   22.0887 C   0  0  0  0  0  0  0  0  0  0  0  0
  -25.7287  -17.5294   18.3948 C   0  0  0  0  0  0  0  0  0  0  0  0
  -24.2044  -31.0582   22.3593 C   0  0  0  0  0  0  0  0  0  0  0  0
  -23.4493  -17.0785   17.6799 C   0  0  0  0  0  0  0  0  0  0  0  0
  -24.7455  -32.4921   24.1407 C   0  0  0  0  0  0  0  0  0  0  0  0
  -26.6872  -33.8050   25.6536 C   0  0  0  0  0  0  0  0  0  0  0  0
  -25.7144  -31.7557   24.8223 C   0  0  0  0  0  0  0  0  0  0  0  0
  -25.5178  -28.6210   19.1604 C   0  0  0  0  0  0  0  0  0  0  0  0
  -22.2818  -20.8360   14.4065 C   0  0  0  0  0  0  0  0  0  0  0  0
  -26.5924  -27.1673   17.9086 C   0  0  0  0  0  0  0  0  0  0  0  0
  -22.6768  -23.2020   14.1862 C   0  0  0  0  0  0  0  0  0  0  0  0
  -27.4562  -27.3276   20.2488 C   0  0  0  0  0  0  0  0  0  0  0  0
  -22.0987  -19.4219   14.7793 C   0  0  0  0  0  0  0  0  0  0  0  0
  -27.3225  -20.0320   20.0756 C   0  0  0  0  0  0  0  0  0  0  0  0
  -29.4859  -17.8512   19.0337 C   0  0  0  0  0  0  0  0  0  0  0  0
  -30.0970  -14.9786   17.2954 C   0  0  0  0  0  0  0  0  0  0  0  0
  -23.0110  -25.6390   13.6426 C   0  0  0  0  0  0  0  0  0  0  0  0
  -30.6057  -23.7480   21.2878 C   0  0  0  0  0  0  0  0  0  0  0  0
  -26.2664  -17.8727   20.8357 C   0  0  0  0  0  0  0  0  0  0  0  0
  -27.1765  -17.7200   18.0262 C   0  0  0  0  0  0  0  0  0  0  0  0
  -30.4201  -22.7971   20.1081 C   0  0  0  0  0  0  0  0  0  0  0  0
  -24.8988  -28.6546   13.5037 C   0  0  0  0  0  0  0  0  0  0  0  0
  -18.7075  -19.0247   15.9851 C   0  0  0  0  0  0  0  0  0  0  0  0
  -28.9682  -22.8040   19.6402 C   0  0  0  0  0  0  0  0  0  0  0  0
  -25.3549  -28.8637   14.9495 C   0  0  0  0  0  0  0  0  0  0  0  0
  -19.0702  -17.6074   15.5542 C   0  0  0  0  0  0  0  0  0  0  0  0
  -19.7395  -19.8936   15.2775 C   0  0  0  0  0  0  0  0  0  0  0  0
  -23.4899  -28.0683   13.4326 C   0  0  0  0  0  0  0  0  0  0  0  0
  -23.7430  -27.0527   15.6628 C   0  0  0  0  0  0  0  0  0  0  0  0
  -28.0283  -22.3203   20.7511 C   0  0  1  0  0  0  0  0  0  0  0  0
  -27.5369  -18.5731   20.3639 C   0  0  1  0  0  0  0  0  0  0  0  0
  -25.1815  -27.5810   15.7862 C   0  0  2  0  0  0  0  0  0  0  0  0
  -20.6017  -17.6033   15.5319 C   0  0  2  0  0  0  0  0  0  0  0  0
  -31.9694  -13.4657   16.5863 C   0  0  0  0  0  0  0  0  0  0  0  0
  -30.3031  -19.8687   16.8955 C   0  0  0  0  0  0  0  0  0  0  0  0
  -31.4453  -18.0059   15.6734 C   0  0  0  0  0  0  0  0  0  0  0  0
  -32.2083  -18.6476   17.9601 C   0  0  0  0  0  0  0  0  0  0  0  0
  -28.9514  -12.6797   18.7657 C   0  0  0  0  0  0  0  0  0  0  0  0
  -21.2168  -17.2671   16.8821 C   0  0  0  0  0  0  0  0  0  1  0  0
  -30.0114  -17.4274   17.6834 C   0  0  1  0  0  0  0  0  0  0  0  0
  -30.9113  -13.7452   17.6422 C   0  0  2  0  0  0  0  0  0  0  0  0
  -30.9643  -18.4857   17.0595 C   0  0  0  0  0  0  0  0  0  0  0  0
  -22.3337  -22.7156   13.0141 N   0  0  0  0  0  0  0  0  0  0  0  0
  -24.9111  -28.6895   17.9725 N   0  0  0  0  0  0  0  0  0  0  0  0
  -25.5872  -27.7941   17.2326 N   0  0  0  0  0  0  0  0  0  0  0  0
  -20.9105  -19.0049   15.1810 N   0  0  0  0  0  0  0  0  0  0  0  0
  -28.0941  -17.9751   19.1490 N   0  0  0  0  0  0  0  0  0  0  0  0
  -23.4019  -26.8533   14.2455 N   0  0  0  0  0  0  0  0  0  0  0  0
  -27.3712  -26.2381   17.3150 N   0  0  0  0  0  0  0  0  0  0  0  0
  -27.2979  -27.9609   21.4890 N   0  0  0  0  0  0  0  0  0  0  0  0
  -22.9949  -24.5450   14.5071 N   0  0  0  0  0  0  0  0  0  0  0  0
  -28.0788  -20.8784   20.8637 N   0  0  0  0  0  0  0  0  0  0  0  0
  -30.6194  -16.1152   17.8755 N   0  0  0  0  0  0  0  0  0  0  0  0
  -23.1312  -18.5874   14.7040 N   0  3  0  0  0  0  0  0  0  0  0  0
  -30.0249  -12.5518   17.7468 N   0  3  0  0  0  0  0  0  0  0  0  0
  -28.3698  -26.4802   20.1044 O   0  0  0  0  0  0  0  0  0  0  0  0
  -26.5306  -20.3652   19.2017 O   0  0  0  0  0  0  0  0  0  0  0  0
  -30.2806  -18.0575   19.9543 O   0  0  0  0  0  0  0  0  0  0  0  0
  -29.0997  -14.9383   16.5784 O   0  0  0  0  0  0  0  0  0  0  0  0
  -22.7388  -25.5690   12.4414 O   0  0  0  0  0  0  0  0  0  0  0  0
  -23.7815  -31.8419   23.3887 O   0  0  0  0  0  0  0  0  0  0  0  0
  -22.5581  -16.8220   16.6840 O   0  0  0  0  0  0  0  0  0  1  0  0
  -27.6203  -34.4355   26.3788 F   0  0  0  0  0  0  0  0  0  0  0  0
  -25.7184  -30.4174   24.7532 F   0  0  0  0  0  0  0  0  0  0  0  0
  -22.7485  -22.0840   15.4863 S   0  0  0  0  0  0  0  0  0  0  0  0
  1  2  1  0  0  0  0
  1  5  2  0  0  0  0
  2  6  2  0  0  0  0
  3  8  2  0  0  0  0
  3 16  1  0  0  0  0
  4  9  1  0  0  0  0
  4 16  2  0  0  0  0
  5 18  1  0  0  0  0
  6 20  1  0  0  0  0
  7 10  2  0  0  0  0
  7 19  1  0  0  0  0
  8 22  1  0  0  0  0
  9 22  2  0  0  0  0
 10 23  1  0  0  0  0
 11 12  2  0  0  0  0
 11 24  1  0  0  0  0
 12 25  1  0  0  0  0
 13 21  1  0  0  0  0
 13 23  2  0  0  0  0
 14 25  2  0  0  0  0
 14 26  1  0  0  0  0
 15 28  2  0  0  0  0
 15 62  1  0  0  0  0
 16 27  1  0  0  0  0
 17 27  1  0  0  0  0
 17 29  2  0  0  0  0
 17 31  1  0  0  0  0
 18 20  2  0  0  0  0
 18 37  1  0  0  0  0
 19 21  2  0  0  0  0
 19 38  1  0  0  0  0
 20 49  1  0  0  0  0
 21 39  1  0  0  0  0
 22 80  1  0  0  0  0
 23 81  1  0  0  0  0
 24 26  2  0  0  0  0
 24 80  1  0  0  0  0
 25 82  1  0  0  0  0
 26 83  1  0  0  0  0
 27 63  2  0  0  0  0
 28 32  1  0  0  0  0
 28 84  1  0  0  0  0
 29 64  1  0  0  0  0
 29 68  1  0  0  0  0
 30 62  2  0  0  0  0
 30 70  1  0  0  0  0
 30 84  1  0  0  0  0
 31 69  1  0  0  0  0
 31 75  2  0  0  0  0
 32 65  1  0  0  0  0
 32 73  2  0  0  0  0
 33 50  1  0  0  0  0
 33 71  1  0  0  0  0
 33 76  2  0  0  0  0
 34 59  1  0  0  0  0
 34 66  1  0  0  0  0
 34 77  2  0  0  0  0
 35 60  1  0  0  0  0
 35 72  1  0  0  0  0
 35 78  2  0  0  0  0
 36 67  1  0  0  0  0
 36 70  1  0  0  0  0
 36 79  2  0  0  0  0
 37 40  1  0  0  0  0
 38 50  1  0  0  0  0
 39 66  1  0  0  0  0
 40 43  1  0  0  0  0
 41 44  1  0  0  0  0
 41 47  1  0  0  0  0
 42 45  1  0  0  0  0
 42 46  1  0  0  0  0
 43 49  1  0  0  0  0
 44 51  1  0  0  0  0
 45 52  1  0  0  0  0
 46 65  1  0  0  0  0
 47 67  1  0  0  0  0
 48 51  1  0  0  0  0
 48 67  1  0  0  0  0
 49 71  1  0  0  0  0
 50 66  1  0  0  0  0
 51 64  1  0  0  0  0
 52 58  1  0  0  0  0
 52 65  1  0  0  0  0
 53 60  1  0  0  0  0
 54 61  1  0  0  0  0
 55 61  1  0  0  0  0
 56 61  1  0  0  0  0
 57 74  1  0  0  0  0
 58 81  1  0  0  0  0
 59 61  1  0  0  0  0
 59 72  1  0  0  0  0
 60 74  1  0  0  0  0
 63 64  1  0  0  0  0
M  CHG  2  73   1  74   1
M  ISO  4  36 100  58 101  70 100  81 101
M  END
> <Batch ID>
0149

> <Smiles>
CNC(C)C(=O)NC(C(=O)N1Cc2cc([101O:1][101CH2:1]C3CCCN3C(=N)c3cnc([100NH:0][100C:0](=O)N4CCCC(n5nc(-c6ccc(Oc7ccc(F)cc7F)cc6)c(C(N)=O)c5N)C4)s3)ccc2CC1C(=O)NC1CCCc2ccccc21)C(C)(C)C

> <Shape>
0.184

> <Color>
0.063

> <Negative vol penalty>
0.000

$$$$

  -OEChem-04052303193D

 88 96  0     1  0  0  0  0  0999 V2000
  -33.2719  -29.3842   12.8084 C   0  0  0  0  0  0  0  0  0  0  0  0
  -33.7983  -28.4317   13.6750 C   0  0  0  0  0  0  0  0  0  0  0  0
  -23.0495   -9.8804   19.9384 C   0  0  0  0  0  0  0  0  0  0  0  0
  -23.8197   -9.8666   22.2283 C   0  0  0  0  0  0  0  0  0  0  0  0
  -32.1394  -30.1095   13.1762 C   0  0  0  0  0  0  0  0  0  0  0  0
  -33.1929  -28.2046   14.9105 C   0  0  0  0  0  0  0  0  0  0  0  0
  -32.7135  -23.2741   15.9621 C   0  0  0  0  0  0  0  0  0  0  0  0
  -22.2949   -8.7336   20.1852 C   0  0  0  0  0  0  0  0  0  0  0  0
  -23.0650   -8.7198   22.4752 C   0  0  0  0  0  0  0  0  0  0  0  0
  -33.8529  -22.6039   16.4052 C   0  0  0  0  0  0  0  0  0  0  0  0
  -20.4481   -5.6018   20.1174 C   0  0  0  0  0  0  0  0  0  0  0  0
  -20.4965   -4.5761   19.1734 C   0  0  0  0  0  0  0  0  0  0  0  0
  -33.0686  -22.7867   18.6791 C   0  0  0  0  0  0  0  0  0  0  0  0
  -31.7090  -19.2790   22.8189 C   0  0  0  0  0  0  0  0  0  0  0  0
  -31.9261  -17.2371   21.5459 C   0  0  0  0  0  0  0  0  0  0  0  0
  -22.8810   -4.3795   19.5094 C   0  0  0  0  0  0  0  0  0  0  0  0
  -23.8120  -10.4469   20.9599 C   0  0  0  0  0  0  0  0  0  0  0  0
  -29.8888  -17.6914   22.7625 C   0  0  0  0  0  0  0  0  0  0  0  0
  -24.1793  -12.9690   20.8525 C   0  0  0  0  0  0  0  0  0  0  0  0
  -31.5142  -29.8844   14.4128 C   0  0  0  0  0  0  0  0  0  0  0  0
  -31.7468  -23.7160   16.8767 C   0  0  0  0  0  0  0  0  0  0  0  0
  -32.0518  -28.9285   15.2958 C   0  0  0  0  0  0  0  0  0  0  0  0
  -31.9166  -23.4600   18.2448 C   0  0  0  0  0  0  0  0  0  0  0  0
  -32.4605  -18.4470   21.9891 C   0  0  0  0  0  0  0  0  0  0  0  0
  -30.4232  -18.9012   23.2056 C   0  0  0  0  0  0  0  0  0  0  0  0
  -30.6402  -16.8593   21.9326 C   0  0  0  0  0  0  0  0  0  0  0  0
  -22.3026   -8.1533   21.4536 C   0  0  0  0  0  0  0  0  0  0  0  0
  -34.0320  -22.3626   17.7642 C   0  0  0  0  0  0  0  0  0  0  0  0
  -21.6161   -6.0164   20.7574 C   0  0  0  0  0  0  0  0  0  0  0  0
  -21.7129   -3.9649   18.8695 C   0  0  0  0  0  0  0  0  0  0  0  0
  -22.8325   -5.4052   20.4534 C   0  0  0  0  0  0  0  0  0  0  0  0
  -24.5921  -11.6312   20.7054 C   0  0  0  0  0  0  0  0  0  0  0  0
  -25.2775  -13.7093   20.4885 C   0  0  0  0  0  0  0  0  0  0  0  0
  -28.5417  -17.2961   23.1673 C   0  0  0  0  0  0  0  0  0  0  0  0
  -22.9161  -13.4955   21.2801 C   0  0  0  0  0  0  0  0  0  0  0  0
  -30.5814  -26.5524   17.7135 C   0  0  0  0  0  0  0  0  0  0  0  0
  -35.9858  -19.7645   19.3718 C   0  0  0  0  0  0  0  0  0  0  0  0
  -28.5364  -24.7564   19.4784 C   0  0  0  0  0  0  0  0  0  0  0  0
  -34.6411  -18.1303   20.7776 C   0  0  0  0  0  0  0  0  0  0  0  0
  -27.9075  -21.8038   21.0700 C   0  0  0  0  0  0  0  0  0  0  0  0
  -30.7549  -14.6975   20.6443 C   0  0  0  0  0  0  0  0  0  0  0  0
  -30.3199  -30.7263   14.7863 C   0  0  0  0  0  0  0  0  0  0  0  0
  -30.5104  -24.4140   16.3801 C   0  0  0  0  0  0  0  0  0  0  0  0
  -30.8985  -23.8959   19.2655 C   0  0  0  0  0  0  0  0  0  0  0  0
  -29.5179  -30.1609   15.9557 C   0  0  0  0  0  0  0  0  0  0  0  0
  -29.6051  -12.3087   18.2676 C   0  0  0  0  0  0  0  0  0  0  0  0
  -30.4492  -29.7422   17.0889 C   0  0  0  0  0  0  0  0  0  0  0  0
  -28.1644  -12.0296   18.7021 C   0  0  0  0  0  0  0  0  0  0  0  0
  -30.5279  -12.5213   19.4664 C   0  0  0  0  0  0  0  0  0  0  0  0
  -28.6347  -13.2575   20.8603 C   0  0  0  0  0  0  0  0  0  0  0  0
  -31.4089  -28.6360   16.6342 C   0  0  1  0  0  0  0  0  0  0  0  0
  -29.8397  -25.2730   17.4476 C   0  0  1  0  0  0  0  0  0  0  0  0
  -27.6549  -13.1010   19.6859 C   0  0  2  0  0  0  0  0  0  0  0  0
  -28.4101  -16.4969   24.4275 C   0  0  0  0  0  0  0  0  0  0  0  0
  -26.1665  -20.6456   22.4573 C   0  0  0  0  0  0  0  0  0  0  0  0
  -29.3617  -26.4205   21.8990 C   0  0  0  0  0  0  0  0  0  0  0  0
  -28.3592  -24.6566   23.3659 C   0  0  0  0  0  0  0  0  0  0  0  0
  -26.9163  -25.9140   21.7661 C   0  0  0  0  0  0  0  0  0  0  0  0
  -27.5657  -19.6590   19.0595 C   0  0  0  0  0  0  0  0  0  0  0  0
  -35.9554  -18.8632   20.5887 C   0  0  0  0  0  0  0  0  0  0  0  0
  -35.0143  -20.9275   19.3863 C   0  0  0  0  0  0  0  0  0  1  0  0
  -28.5435  -24.1941   20.8793 C   0  0  1  0  0  0  0  0  0  0  0  0
  -26.6969  -20.8881   21.0528 C   0  0  2  0  0  0  0  0  0  0  0  0
  -28.3155  -25.2897   21.9588 C   0  0  0  0  0  0  0  0  0  0  0  0
  -25.8541  -11.5247   20.2808 N   0  0  0  0  0  0  0  0  0  0  0  0
  -26.2436  -12.8051   20.1580 N   0  0  0  0  0  0  0  0  0  0  0  0
  -29.7096  -24.5803   18.7311 N   0  0  0  0  0  0  0  0  0  0  0  0
  -29.9835  -13.5529   20.3520 N   0  0  0  0  0  0  0  0  0  0  0  0
  -29.6807  -19.7607   24.0464 N   0  0  0  0  0  0  0  0  0  0  0  0
  -25.5013  -15.0389   20.4220 N   0  0  0  0  0  0  0  0  0  0  0  0
  -21.8964  -12.5949   21.6168 N   0  0  0  0  0  0  0  0  0  0  0  0
  -33.7663  -18.8294   21.5988 N   0  0  0  0  0  0  0  0  0  0  0  0
  -30.1208  -15.6245   21.4708 N   0  0  0  0  0  0  0  0  0  0  0  0
  -30.7288  -27.3589   16.6012 N   0  0  0  0  0  0  0  0  0  0  0  0
  -27.5516  -23.1244   20.8949 N   0  0  0  0  0  0  0  0  0  0  0  0
  -27.0515  -19.5719   20.4505 N   0  3  0  0  0  0  0  0  0  0  0  0
  -27.5164  -17.5683   22.5468 O   0  0  0  0  0  0  0  0  0  0  0  0
  -22.6928  -14.7282   21.3454 O   0  0  0  0  0  0  0  0  0  0  0  0
  -30.9884  -26.7910   18.8445 O   0  0  0  0  0  0  0  0  0  0  0  0
  -36.7456  -19.5631   18.4255 O   0  0  0  0  0  0  0  0  0  0  0  0
  -27.5246  -25.3246   19.0599 O   0  0  0  0  0  0  0  0  0  0  0  0
  -34.4430  -17.0596   20.2095 O   0  0  0  0  0  0  0  0  0  0  0  0
  -29.0539  -21.3895   21.2271 O   0  0  0  0  0  0  0  0  0  0  0  0
  -31.8836  -14.8572   20.1725 O   0  0  0  0  0  0  0  0  0  0  0  0
  -21.5662   -7.0344   21.6950 O   0  0  0  0  0  0  0  0  0  0  0  0
  -35.1435  -21.7092   18.1995 O   0  0  0  0  0  0  0  0  0  1  0  0
  -21.7591   -2.9789   17.9640 F   0  0  0  0  0  0  0  0  0  0  0  0
  -23.9577   -5.7985   21.0659 F   0  0  0  0  0  0  0  0  0  0  0  0
  1  2  1  0  0  0  0
  1  5  2  0  0  0  0
  2  6  2  0  0  0  0
  3  8  2  0  0  0  0
  3 17  1  0  0  0  0
  4  9  1  0  0  0  0
  4 17  2  0  0  0  0
  5 20  1  0  0  0  0
  6 22  1  0  0  0  0
  7 10  2  0  0  0  0
  7 21  1  0  0  0  0
  8 27  1  0  0  0  0
  9 27  2  0  0  0  0
 10 28  1  0  0  0  0
 11 12  2  0  0  0  0
 11 29  1  0  0  0  0
 12 30  1  0  0  0  0
 13 23  1  0  0  0  0
 13 28  2  0  0  0  0
 14 24  1  0  0  0  0
 14 25  2  0  0  0  0
 15 24  2  0  0  0  0
 15 26  1  0  0  0  0
 16 30  2  0  0  0  0
 16 31  1  0  0  0  0
 17 32  1  0  0  0  0
 18 25  1  0  0  0  0
 18 26  2  0  0  0  0
 18 34  1  0  0  0  0
 19 32  1  0  0  0  0
 19 33  2  0  0  0  0
 19 35  1  0  0  0  0
 20 22  2  0  0  0  0
 20 42  1  0  0  0  0
 21 23  2  0  0  0  0
 21 43  1  0  0  0  0
 22 51  1  0  0  0  0
 23 44  1  0  0  0  0
 24 72  1  0  0  0  0
 25 69  1  0  0  0  0
 26 73  1  0  0  0  0
 27 85  1  0  0  0  0
 28 86  1  0  0  0  0
 29 31  2  0  0  0  0
 29 85  1  0  0  0  0
 30 87  1  0  0  0  0
 31 88  1  0  0  0  0
 32 65  2  0  0  0  0
 33 66  1  0  0  0  0
 33 70  1  0  0  0  0
 34 54  1  0  0  0  0
 34 77  2  0  0  0  0
 35 71  1  0  0  0  0
 35 78  2  0  0  0  0
 36 52  1  0  0  0  0
 36 74  1  0  0  0  0
 36 79  2  0  0  0  0
 37 60  1  0  0  0  0
 37 61  1  0  0  0  0
 37 80  2  0  0  0  0
 38 62  1  0  0  0  0
 38 67  1  0  0  0  0
 38 81  2  0  0  0  0
 39 60  1  0  0  0  0
 39 72  1  0  0  0  0
 39 82  2  0  0  0  0
 40 63  1  0  0  0  0
 40 75  1  0  0  0  0
 40 83  2  0  0  0  0
 41 68  1  0  0  0  0
 41 73  1  0  0  0  0
 41 84  2  0  0  0  0
 42 45  1  0  0  0  0
 43 52  1  0  0  0  0
 44 67  1  0  0  0  0
 45 47  1  0  0  0  0
 46 48  1  0  0  0  0
 46 49  1  0  0  0  0
 47 51  1  0  0  0  0
 48 53  1  0  0  0  0
 49 68  1  0  0  0  0
 50 53  1  0  0  0  0
 50 68  1  0  0  0  0
 51 74  1  0  0  0  0
 52 67  1  0  0  0  0
 53 66  1  0  0  0  0
 55 63  1  0  0  0  0
 56 64  1  0  0  0  0
 57 64  1  0  0  0  0
 58 64  1  0  0  0  0
 59 76  1  0  0  0  0
 61 86  1  0  0  0  0
 62 64  1  0  0  0  0
 62 75  1  0  0  0  0
 63 76  1  0  0  0  0
 65 66  1  0  0  0  0
M  CHG  1  76   1
M  ISO  4  41 100  61 101  73 100  86 101
M  END
> <Batch ID>
0149

> <Smiles>
CNC(C)C(=O)NC(C(=O)N1Cc2cc([101O:1][101CH2:1]C(=O)CC(=O)Nc3cc(N)c(C(C)=O)c([100NH:0][100C:0](=O)N4CCCC(n5nc(-c6ccc(Oc7ccc(F)cc7F)cc6)c(C(N)=O)c5N)C4)c3)ccc2CC1C(=O)NC1CCCc2ccccc21)C(C)(C)C

> <Shape>
0.235

> <Color>
0.177

> <Negative vol penalty>
0.000

$$$$

  -OEChem-04052303193D

 82 90  0     1  0  0  0  0  0999 V2000
  -23.5873   -7.7056   21.6869 C   0  0  0  0  0  0  0  0  0  0  0  0
  -24.2840   -8.6892   20.9922 C   0  0  0  0  0  0  0  0  0  0  0  0
  -25.4283  -31.8357   21.4525 C   0  0  0  0  0  0  0  0  0  0  0  0
  -26.2338  -30.4772   23.2807 C   0  0  0  0  0  0  0  0  0  0  0  0
  -22.3044   -7.9680   22.1655 C   0  0  0  0  0  0  0  0  0  0  0  0
  -23.6976   -9.9355   20.7747 C   0  0  0  0  0  0  0  0  0  0  0  0
  -26.8826  -13.7663   21.6833 C   0  0  0  0  0  0  0  0  0  0  0  0
  -25.1805  -32.8830   22.3398 C   0  0  0  0  0  0  0  0  0  0  0  0
  -25.9861  -31.5245   24.1681 C   0  0  0  0  0  0  0  0  0  0  0  0
  -27.8328  -14.0504   20.7034 C   0  0  0  0  0  0  0  0  0  0  0  0
  -24.6735  -36.0404   24.0686 C   0  0  0  0  0  0  0  0  0  0  0  0
  -25.0743  -37.3212   23.6883 C   0  0  0  0  0  0  0  0  0  0  0  0
  -26.8927  -20.5968   18.3262 C   0  0  0  0  0  0  0  0  0  0  0  0
  -28.0344  -19.7789   18.0862 C   0  0  0  0  0  0  0  0  0  0  0  0
  -26.4601  -15.8675   19.9077 C   0  0  0  0  0  0  0  0  0  0  0  0
  -27.3634  -36.5620   23.5443 C   0  0  0  0  0  0  0  0  0  0  0  0
  -25.9549  -30.6328   21.9229 C   0  0  0  0  0  0  0  0  0  0  0  0
  -27.4003  -29.3003   20.2972 C   0  0  0  0  0  0  0  0  0  0  0  0
  -21.7057   -9.2214   21.9621 C   0  0  0  0  0  0  0  0  0  0  0  0
  -25.7070  -14.5250   21.7760 C   0  0  0  0  0  0  0  0  0  0  0  0
  -22.4049  -10.2145   21.2498 C   0  0  0  0  0  0  0  0  0  0  0  0
  -25.4978  -15.5926   20.8913 C   0  0  0  0  0  0  0  0  0  0  0  0
  -25.4595  -32.7274   23.6976 C   0  0  0  0  0  0  0  0  0  0  0  0
  -27.6203  -15.0993   19.8136 C   0  0  0  0  0  0  0  0  0  0  0  0
  -25.6177  -35.0204   24.1868 C   0  0  0  0  0  0  0  0  0  0  0  0
  -26.4192  -37.5820   23.4261 C   0  0  0  0  0  0  0  0  0  0  0  0
  -26.9626  -35.2813   23.9246 C   0  0  0  0  0  0  0  0  0  0  0  0
  -26.2105  -29.5504   21.0069 C   0  0  0  0  0  0  0  0  0  0  0  0
  -27.1350  -28.1648   19.5714 C   0  0  0  0  0  0  0  0  0  0  0  0
  -27.2355  -21.8208   18.8574 C   0  0  0  0  0  0  0  0  0  0  0  0
  -29.2065  -20.4090   18.4428 C   0  0  0  0  0  0  0  0  0  0  0  0
  -28.6349  -30.0293   20.2943 C   0  0  0  0  0  0  0  0  0  0  0  0
  -22.6035  -13.8956   21.5007 C   0  0  0  0  0  0  0  0  0  0  0  0
  -30.5345  -17.5288   18.8906 C   0  0  0  0  0  0  0  0  0  0  0  0
  -22.2912  -16.9834   22.4442 C   0  0  0  0  0  0  0  0  0  0  0  0
  -23.6725  -20.0953   22.6777 C   0  0  0  0  0  0  0  0  0  0  0  0
  -25.0422  -23.0210   19.1664 C   0  0  0  0  0  0  0  0  0  0  0  0
  -20.2983   -9.4426   22.4570 C   0  0  0  0  0  0  0  0  0  0  0  0
  -24.7042  -14.2227   22.8556 C   0  0  0  0  0  0  0  0  0  0  0  0
  -24.2617  -16.4502   20.9616 C   0  0  0  0  0  0  0  0  0  0  0  0
  -19.8954  -10.9140   22.5100 C   0  0  0  0  0  0  0  0  0  0  0  0
  -22.7751  -25.7325   18.7368 C   0  0  0  0  0  0  0  0  0  0  0  0
  -20.2929  -11.6231   21.2192 C   0  0  0  0  0  0  0  0  0  0  0  0
  -23.5646  -26.9470   19.2307 C   0  0  0  0  0  0  0  0  0  0  0  0
  -23.0749  -24.4854   19.5665 C   0  0  0  0  0  0  0  0  0  0  0  0
  -25.2891  -25.3678   20.1896 C   0  0  0  0  0  0  0  0  0  0  0  0
  -21.8123  -11.5871   21.0153 C   0  0  1  0  0  0  0  0  0  0  0  0
  -23.3043  -14.7349   22.5312 C   0  0  1  0  0  0  0  0  0  0  0  0
  -25.0693  -26.6328   19.3440 C   0  0  2  0  0  0  0  0  0  0  0  0
  -23.8791  -22.5076   23.3377 C   0  0  0  0  0  0  0  0  0  0  0  0
  -20.5557  -17.4314   19.9750 C   0  0  0  0  0  0  0  0  0  0  0  0
  -20.8682  -19.8957   20.2882 C   0  0  0  0  0  0  0  0  0  0  0  0
  -19.7249  -18.5511   22.0511 C   0  0  0  0  0  0  0  0  0  0  0  0
  -24.9433  -19.4007   25.2587 C   0  0  0  0  0  0  0  0  0  0  0  0
  -30.8130  -16.0910   18.4727 C   0  0  0  0  0  0  0  0  0  0  0  0
  -30.7795  -18.5746   17.8215 C   0  0  0  0  0  0  0  0  0  0  0  0
  -29.9077  -15.0820   19.1626 C   0  0  0  0  0  0  0  0  0  1  0  0
  -22.2225  -18.3155   21.7374 C   0  0  1  0  0  0  0  0  0  0  0  0
  -23.7580  -21.0752   23.8340 C   0  0  2  0  0  0  0  0  0  0  0  0
  -20.8653  -18.5312   21.0101 C   0  0  0  0  0  0  0  0  0  0  0  0
  -25.2600  -28.6465   20.7547 N   0  0  0  0  0  0  0  0  0  0  0  0
  -25.8523  -27.8175   19.8783 N   0  0  0  0  0  0  0  0  0  0  0  0
  -23.3078  -16.1110   22.0306 N   0  0  0  0  0  0  0  0  0  0  0  0
  -24.5188  -24.2479   19.6262 N   0  0  0  0  0  0  0  0  0  0  0  0
  -27.8761  -27.4397   18.7070 N   0  0  0  0  0  0  0  0  0  0  0  0
  -28.7375  -31.1730   21.0979 N   0  0  0  0  0  0  0  0  0  0  0  0
  -26.4311  -22.9220   19.2421 N   0  0  0  0  0  0  0  0  0  0  0  0
  -30.4880  -19.8887   18.3364 N   0  0  0  0  0  0  0  0  0  0  0  0
  -22.4590  -12.5689   21.8592 N   0  0  0  0  0  0  0  0  0  0  0  0
  -22.5291  -19.3273   22.7427 N   0  0  0  0  0  0  0  0  0  0  0  0
  -24.9434  -20.7708   24.6844 N   0  3  0  0  0  0  0  0  0  0  0  0
  -29.6125  -29.6862   19.5871 O   0  0  0  0  0  0  0  0  0  0  0  0
  -22.2208  -14.4135   20.4581 O   0  0  0  0  0  0  0  0  0  0  0  0
  -30.1399  -17.8201   20.0189 O   0  0  0  0  0  0  0  0  0  0  0  0
  -21.4773  -16.7291   23.3357 O   0  0  0  0  0  0  0  0  0  0  0  0
  -24.5319  -20.0213   21.8023 O   0  0  0  0  0  0  0  0  0  0  0  0
  -24.3144  -22.1346   18.7117 O   0  0  0  0  0  0  0  0  0  0  0  0
  -25.2181  -33.7493   24.5637 O   0  0  0  0  0  0  0  0  0  0  0  0
  -28.5459  -15.3783   18.8558 O   0  0  0  0  0  0  0  0  0  1  0  0
  -26.8037  -38.8115   23.0594 F   0  0  0  0  0  0  0  0  0  0  0  0
  -27.8741  -34.3052   24.0353 F   0  0  0  0  0  0  0  0  0  0  0  0
  -28.9278  -21.9801   19.0645 S   0  0  0  0  0  0  0  0  0  0  0  0
  1  2  1  0  0  0  0
  1  5  2  0  0  0  0
  2  6  2  0  0  0  0
  3  8  2  0  0  0  0
  3 17  1  0  0  0  0
  4  9  1  0  0  0  0
  4 17  2  0  0  0  0
  5 19  1  0  0  0  0
  6 21  1  0  0  0  0
  7 10  2  0  0  0  0
  7 20  1  0  0  0  0
  8 23  1  0  0  0  0
  9 23  2  0  0  0  0
 10 24  1  0  0  0  0
 11 12  2  0  0  0  0
 11 25  1  0  0  0  0
 12 26  1  0  0  0  0
 13 14  1  0  0  0  0
 13 30  2  0  0  0  0
 14 31  2  0  0  0  0
 15 22  1  0  0  0  0
 15 24  2  0  0  0  0
 16 26  2  0  0  0  0
 16 27  1  0  0  0  0
 17 28  1  0  0  0  0
 18 28  1  0  0  0  0
 18 29  2  0  0  0  0
 18 32  1  0  0  0  0
 19 21  2  0  0  0  0
 19 38  1  0  0  0  0
 20 22  2  0  0  0  0
 20 39  1  0  0  0  0
 21 47  1  0  0  0  0
 22 40  1  0  0  0  0
 23 78  1  0  0  0  0
 24 79  1  0  0  0  0
 25 27  2  0  0  0  0
 25 78  1  0  0  0  0
 26 80  1  0  0  0  0
 27 81  1  0  0  0  0
 28 61  2  0  0  0  0
 29 62  1  0  0  0  0
 29 65  1  0  0  0  0
 30 67  1  0  0  0  0
 30 82  1  0  0  0  0
 31 68  1  0  0  0  0
 31 82  1  0  0  0  0
 32 66  1  0  0  0  0
 32 72  2  0  0  0  0
 33 48  1  0  0  0  0
 33 69  1  0  0  0  0
 33 73  2  0  0  0  0
 34 55  1  0  0  0  0
 34 56  1  0  0  0  0
 34 74  2  0  0  0  0
 35 58  1  0  0  0  0
 35 63  1  0  0  0  0
 35 75  2  0  0  0  0
 36 59  1  0  0  0  0
 36 70  1  0  0  0  0
 36 76  2  0  0  0  0
 37 64  1  0  0  0  0
 37 67  1  0  0  0  0
 37 77  2  0  0  0  0
 38 41  1  0  0  0  0
 39 48  1  0  0  0  0
 40 63  1  0  0  0  0
 41 43  1  0  0  0  0
 42 44  1  0  0  0  0
 42 45  1  0  0  0  0
 43 47  1  0  0  0  0
 44 49  1  0  0  0  0
 45 64  1  0  0  0  0
 46 49  1  0  0  0  0
 46 64  1  0  0  0  0
 47 69  1  0  0  0  0
 48 63  1  0  0  0  0
 49 62  1  0  0  0  0
 50 59  1  0  0  0  0
 51 60  1  0  0  0  0
 52 60  1  0  0  0  0
 53 60  1  0  0  0  0
 54 71  1  0  0  0  0
 55 57  1  0  0  0  0
 56 68  1  0  0  0  0
 57 79  1  0  0  0  0
 58 60  1  0  0  0  0
 58 70  1  0  0  0  0
 59 71  1  0  0  0  0
 61 62  1  0  0  0  0
M  CHG  1  71   1
M  ISO  4  37 100  57 101  67 100  79 101
M  END
> <Batch ID>
0149

> <Smiles>
CNC(C)C(=O)NC(C(=O)N1Cc2cc([101O:1][101CH2:1]CC(=O)CNc3ccc([100NH:0][100C:0](=O)N4CCCC(n5nc(-c6ccc(Oc7ccc(F)cc7F)cc6)c(C(N)=O)c5N)C4)s3)ccc2CC1C(=O)NC1CCCc2ccccc21)C(C)(C)C

> <Shape>
0.232

> <Color>
0.083

> <Negative vol penalty>
0.000

$$$$

  -OEChem-04052303193D

 86 94  0     1  0  0  0  0  0999 V2000
  -28.8305  -36.7747   22.0414 C   0  0  0  0  0  0  0  0  0  0  0  0
  -28.8213  -35.5373   22.6772 C   0  0  0  0  0  0  0  0  0  0  0  0
  -24.3214   -9.5225   20.3409 C   0  0  0  0  0  0  0  0  0  0  0  0
  -24.9138  -10.0465   22.6238 C   0  0  0  0  0  0  0  0  0  0  0  0
  -27.6281  -37.3775   21.6744 C   0  0  0  0  0  0  0  0  0  0  0  0
  -27.6096  -34.9025   22.9473 C   0  0  0  0  0  0  0  0  0  0  0  0
  -27.6958  -29.9751   21.7819 C   0  0  0  0  0  0  0  0  0  0  0  0
  -24.0356   -8.2099   20.7163 C   0  0  0  0  0  0  0  0  0  0  0  0
  -24.6279   -8.7338   22.9993 C   0  0  0  0  0  0  0  0  0  0  0  0
  -28.3353  -29.1199   22.6782 C   0  0  0  0  0  0  0  0  0  0  0  0
  -21.5104   -6.5451   22.2279 C   0  0  0  0  0  0  0  0  0  0  0  0
  -20.3348   -5.9731   21.7416 C   0  0  0  0  0  0  0  0  0  0  0  0
  -26.1946  -28.4874   23.5929 C   0  0  0  0  0  0  0  0  0  0  0  0
  -29.6274  -19.9818   21.2328 C   0  0  0  0  0  0  0  0  0  0  0  0
  -21.6256   -4.2434   20.6557 C   0  0  0  0  0  0  0  0  0  0  0  0
  -24.7606  -10.4408   21.2947 C   0  0  0  0  0  0  0  0  0  0  0  0
  -24.1679  -12.8884   20.8876 C   0  0  0  0  0  0  0  0  0  0  0  0
  -26.4014  -36.7453   21.9315 C   0  0  0  0  0  0  0  0  0  0  0  0
  -26.2992  -30.1013   21.7917 C   0  0  0  0  0  0  0  0  0  0  0  0
  -26.3895  -35.4980   22.5846 C   0  0  0  0  0  0  0  0  0  0  0  0
  -25.5396  -29.3430   22.6939 C   0  0  0  0  0  0  0  0  0  0  0  0
  -28.6458  -19.0156   21.5585 C   0  0  0  0  0  0  0  0  0  0  0  0
  -24.1888   -7.8155   22.0455 C   0  0  0  0  0  0  0  0  0  0  0  0
  -27.5850  -28.3781   23.5859 C   0  0  0  0  0  0  0  0  0  0  0  0
  -22.7436   -5.9663   21.9280 C   0  0  0  0  0  0  0  0  0  0  0  0
  -20.3924   -4.8223   20.9555 C   0  0  0  0  0  0  0  0  0  0  0  0
  -22.8012   -4.8154   21.1420 C   0  0  0  0  0  0  0  0  0  0  0  0
  -25.0565  -11.7967   20.9074 C   0  0  0  0  0  0  0  0  0  0  0  0
  -27.6663  -19.6856   22.2539 C   0  0  0  0  0  0  0  0  0  0  0  0
  -24.9299  -13.9434   20.4486 C   0  0  0  0  0  0  0  0  0  0  0  0
  -29.1776  -21.1734   21.7521 C   0  0  0  0  0  0  0  0  0  0  0  0
  -22.7780  -12.9438   21.2351 C   0  0  0  0  0  0  0  0  0  0  0  0
  -24.2661  -32.4850   22.3280 C   0  0  0  0  0  0  0  0  0  0  0  0
  -22.0581  -30.2877   21.4231 C   0  0  0  0  0  0  0  0  0  0  0  0
  -21.2151  -26.9983   21.0818 C   0  0  0  0  0  0  0  0  0  0  0  0
  -29.6280  -16.9303   20.5420 C   0  0  0  0  0  0  0  0  0  0  0  0
  -25.1253  -37.4577   21.5587 C   0  0  0  0  0  0  0  0  0  0  0  0
  -25.6227  -31.0080   20.8004 C   0  0  0  0  0  0  0  0  0  0  0  0
  -24.0363  -29.4271   22.7314 C   0  0  0  0  0  0  0  0  0  0  0  0
  -23.9008  -36.5463   21.5443 C   0  0  0  0  0  0  0  0  0  0  0  0
  -29.5832  -14.0430   18.4590 C   0  0  0  0  0  0  0  0  0  0  0  0
  -23.8662  -35.6789   22.7985 C   0  0  0  0  0  0  0  0  0  0  0  0
  -28.3285  -13.2910   18.9087 C   0  0  0  0  0  0  0  0  0  0  0  0
  -30.2929  -14.7152   19.6331 C   0  0  0  0  0  0  0  0  0  0  0  0
  -28.1878  -14.8309   20.9077 C   0  0  0  0  0  0  0  0  0  0  0  0
  -25.0964  -34.7664   22.8724 C   0  0  1  0  0  0  0  0  0  0  0  0
  -24.2301  -31.4452   21.2440 C   0  0  1  0  0  0  0  0  0  0  0  0
  -27.4032  -14.1914   19.7505 C   0  0  2  0  0  0  0  0  0  0  0  0
  -26.3942  -19.2709   22.8649 C   0  0  0  0  0  0  0  0  0  0  0  0
  -19.3286  -25.5139   20.3504 C   0  0  0  0  0  0  0  0  0  0  0  0
  -20.5887  -30.8737   24.0322 C   0  0  0  0  0  0  0  0  0  0  0  0
  -19.2984  -28.7540   23.7005 C   0  0  0  0  0  0  0  0  0  0  0  0
  -19.1049  -30.6031   22.0374 C   0  0  0  0  0  0  0  0  0  0  0  0
  -31.2789  -24.7082   22.8044 C   0  0  0  0  0  0  0  0  0  0  0  0
  -30.1321  -25.0924   20.6323 C   0  0  0  0  0  0  0  0  0  0  0  0
  -29.1212  -25.4513   25.1598 C   0  0  0  0  0  0  0  0  0  0  0  0
  -27.0253  -25.5748   23.8200 C   0  0  0  0  0  0  0  0  0  0  0  0
  -22.8491  -25.7848   18.9332 C   0  0  0  0  0  0  0  0  0  0  0  0
  -29.1763  -26.1848   22.6764 C   0  0  0  0  0  0  0  0  0  0  0  0
  -29.0831  -23.5934   22.3523 C   0  0  0  0  0  0  0  0  0  0  0  0
  -21.2341  -29.2435   22.1370 C   0  0  1  0  0  0  0  0  0  0  0  0
  -20.6006  -26.2308   19.9252 C   0  0  2  0  0  0  0  0  0  0  0  0
  -20.0850  -29.8682   22.9776 C   0  0  0  0  0  0  0  0  0  0  0  0
  -29.8966  -24.8977   22.1533 C   0  0  0  0  0  0  0  0  0  0  0  0
  -28.4171  -26.1947   24.0288 C   0  0  0  0  0  0  0  0  0  1  0  0
  -26.2887  -12.1276   20.5122 N   0  0  0  0  0  0  0  0  0  0  0  0
  -26.1798  -13.4391   20.2399 N   0  0  0  0  0  0  0  0  0  0  0  0
  -23.4217  -30.3324   21.7464 N   0  0  0  0  0  0  0  0  0  0  0  0
  -29.3556  -15.5552   20.3819 N   0  0  0  0  0  0  0  0  0  0  0  0
  -24.6459  -15.2440   20.2245 N   0  0  0  0  0  0  0  0  0  0  0  0
  -22.1499  -11.7677   21.6672 N   0  0  0  0  0  0  0  0  0  0  0  0
  -28.6498  -17.6340   21.2437 N   0  0  0  0  0  0  0  0  0  0  0  0
  -29.7181  -22.4486   21.7407 N   0  0  0  0  0  0  0  0  0  0  0  0
  -24.9431  -33.6380   21.9793 N   0  0  0  0  0  0  0  0  0  0  0  0
  -20.7841  -28.3078   21.1121 N   0  0  0  0  0  0  0  0  0  0  0  0
  -21.5617  -25.2158   19.4083 N   0  3  0  0  0  0  0  0  0  0  0  0
  -22.1086  -14.0012   21.1488 O   0  0  0  0  0  0  0  0  0  0  0  0
  -23.7187  -32.2586   23.4008 O   0  0  0  0  0  0  0  0  0  0  0  0
  -21.5135  -31.0313   20.6034 O   0  0  0  0  0  0  0  0  0  0  0  0
  -21.9962  -26.4865   21.8807 O   0  0  0  0  0  0  0  0  0  0  0  0
  -30.6403  -17.4510   20.0664 O   0  0  0  0  0  0  0  0  0  0  0  0
  -27.9827  -21.0014   22.3761 O   0  0  0  0  0  0  0  0  0  0  0  0
  -23.9098   -6.5349   22.4123 O   0  0  0  0  0  0  0  0  0  0  0  0
  -28.2096  -27.5392   24.4664 O   0  0  0  0  0  0  0  0  0  1  0  0
  -19.2634   -4.2723   20.4898 F   0  0  0  0  0  0  0  0  0  0  0  0
  -23.9829   -4.2542   20.8516 F   0  0  0  0  0  0  0  0  0  0  0  0
  1  2  1  0  0  0  0
  1  5  2  0  0  0  0
  2  6  2  0  0  0  0
  3  8  2  0  0  0  0
  3 16  1  0  0  0  0
  4  9  1  0  0  0  0
  4 16  2  0  0  0  0
  5 18  1  0  0  0  0
  6 20  1  0  0  0  0
  7 10  2  0  0  0  0
  7 19  1  0  0  0  0
  8 23  1  0  0  0  0
  9 23  2  0  0  0  0
 10 24  1  0  0  0  0
 11 12  2  0  0  0  0
 11 25  1  0  0  0  0
 12 26  1  0  0  0  0
 13 21  1  0  0  0  0
 13 24  2  0  0  0  0
 14 22  1  0  0  0  0
 14 31  2  0  0  0  0
 15 26  2  0  0  0  0
 15 27  1  0  0  0  0
 16 28  1  0  0  0  0
 17 28  1  0  0  0  0
 17 30  2  0  0  0  0
 17 32  1  0  0  0  0
 18 20  2  0  0  0  0
 18 37  1  0  0  0  0
 19 21  2  0  0  0  0
 19 38  1  0  0  0  0
 20 46  1  0  0  0  0
 21 39  1  0  0  0  0
 22 29  2  0  0  0  0
 22 72  1  0  0  0  0
 23 83  1  0  0  0  0
 24 84  1  0  0  0  0
 25 27  2  0  0  0  0
 25 83  1  0  0  0  0
 26 85  1  0  0  0  0
 27 86  1  0  0  0  0
 28 66  2  0  0  0  0
 29 49  1  0  0  0  0
 29 82  1  0  0  0  0
 30 67  1  0  0  0  0
 30 70  1  0  0  0  0
 31 73  1  0  0  0  0
 31 82  1  0  0  0  0
 32 71  1  0  0  0  0
 32 77  2  0  0  0  0
 33 47  1  0  0  0  0
 33 74  1  0  0  0  0
 33 78  2  0  0  0  0
 34 61  1  0  0  0  0
 34 68  1  0  0  0  0
 34 79  2  0  0  0  0
 35 62  1  0  0  0  0
 35 75  1  0  0  0  0
 35 80  2  0  0  0  0
 36 69  1  0  0  0  0
 36 72  1  0  0  0  0
 36 81  2  0  0  0  0
 37 40  1  0  0  0  0
 38 47  1  0  0  0  0
 39 68  1  0  0  0  0
 40 42  1  0  0  0  0
 41 43  1  0  0  0  0
 41 44  1  0  0  0  0
 42 46  1  0  0  0  0
 43 48  1  0  0  0  0
 44 69  1  0  0  0  0
 45 48  1  0  0  0  0
 45 69  1  0  0  0  0
 46 74  1  0  0  0  0
 47 68  1  0  0  0  0
 48 67  1  0  0  0  0
 50 62  1  0  0  0  0
 51 63  1  0  0  0  0
 52 63  1  0  0  0  0
 53 63  1  0  0  0  0
 54 64  1  0  0  0  0
 55 64  1  0  0  0  0
 56 65  1  0  0  0  0
 57 65  1  0  0  0  0
 58 76  1  0  0  0  0
 59 64  1  0  0  0  0
 59 65  1  0  0  0  0
 60 64  1  0  0  0  0
 60 73  1  0  0  0  0
 61 63  1  0  0  0  0
 61 75  1  0  0  0  0
 62 76  1  0  0  0  0
 65 84  1  0  0  0  0
 66 67  1  0  0  0  0
M  CHG  1  76   1
M  ISO  4  36 100  65 101  72 100  84 101
M  END
> <Batch ID>
0149

> <Smiles>
CNC(C)C(=O)NC(C(=O)N1Cc2cc([101O:1][101C:1](C)(C)CC(C)(C)CNc3cc([100NH:0][100C:0](=O)N4CCCC(n5nc(-c6ccc(Oc7ccc(F)cc7F)cc6)c(C(N)=O)c5N)C4)c(C)o3)ccc2CC1C(=O)NC1CCCc2ccccc21)C(C)(C)C

> <Shape>
0.297

> <Color>
0.115

> <Negative vol penalty>
0.000

$$$$

  -OEChem-04052303193D

 94103  0     1  0  0  0  0  0999 V2000
  -16.1069  -27.2458   26.2850 C   0  0  0  0  0  0  0  0  0  0  0  0
  -16.7316  -26.1549   25.6891 C   0  0  0  0  0  0  0  0  0  0  0  0
  -22.8074  -10.3794   19.9764 C   0  0  0  0  0  0  0  0  0  0  0  0
  -23.8825   -9.7607   22.0497 C   0  0  0  0  0  0  0  0  0  0  0  0
  -16.1672  -28.4995   25.6779 C   0  0  0  0  0  0  0  0  0  0  0  0
  -17.4160  -26.3169   24.4850 C   0  0  0  0  0  0  0  0  0  0  0  0
  -22.4980  -23.3923   22.7169 C   0  0  0  0  0  0  0  0  0  0  0  0
  -21.9743   -9.2652   20.0758 C   0  0  0  0  0  0  0  0  0  0  0  0
  -23.0493   -8.6465   22.1492 C   0  0  0  0  0  0  0  0  0  0  0  0
  -22.7058  -22.2885   21.8910 C   0  0  0  0  0  0  0  0  0  0  0  0
  -22.1809   -5.9415   19.4973 C   0  0  0  0  0  0  0  0  0  0  0  0
  -21.9893   -5.1720   18.3498 C   0  0  0  0  0  0  0  0  0  0  0  0
  -30.6128  -18.8155   21.0500 C   0  0  0  0  0  0  0  0  0  0  0  0
  -28.5956  -18.2284   22.2429 C   0  0  0  0  0  0  0  0  0  0  0  0
  -23.1279  -23.7666   20.0319 C   0  0  0  0  0  0  0  0  0  0  0  0
  -28.5075  -19.8284   20.4348 C   0  0  0  0  0  0  0  0  0  0  0  0
  -19.6161   -5.6139   18.4498 C   0  0  0  0  0  0  0  0  0  0  0  0
  -23.7616  -10.6272   20.9633 C   0  0  0  0  0  0  0  0  0  0  0  0
  -24.3825  -13.0677   21.3706 C   0  0  0  0  0  0  0  0  0  0  0  0
  -16.8609  -28.6789   24.4707 C   0  0  0  0  0  0  0  0  0  0  0  0
  -22.5931  -24.6936   22.2032 C   0  0  0  0  0  0  0  0  0  0  0  0
  -17.4845  -27.5738   23.8605 C   0  0  0  0  0  0  0  0  0  0  0  0
  -29.9698  -18.0865   22.0503 C   0  0  0  0  0  0  0  0  0  0  0  0
  -22.9234  -24.8853   20.8540 C   0  0  0  0  0  0  0  0  0  0  0  0
  -29.8817  -19.6865   20.2422 C   0  0  0  0  0  0  0  0  0  0  0  0
  -27.8644  -19.0994   21.4351 C   0  0  0  0  0  0  0  0  0  0  0  0
  -22.0952   -8.3987   21.1622 C   0  0  0  0  0  0  0  0  0  0  0  0
  -23.0179  -22.4755   20.5476 C   0  0  0  0  0  0  0  0  0  0  0  0
  -21.0902   -6.5472   20.1211 C   0  0  0  0  0  0  0  0  0  0  0  0
  -20.7069   -5.0082   17.8260 C   0  0  0  0  0  0  0  0  0  0  0  0
  -19.8078   -6.3834   19.5973 C   0  0  0  0  0  0  0  0  0  0  0  0
  -24.6229  -11.7777   20.8608 C   0  0  0  0  0  0  0  0  0  0  0  0
  -25.4933  -13.7913   21.0115 C   0  0  0  0  0  0  0  0  0  0  0  0
  -23.2559  -13.5672   22.1033 C   0  0  0  0  0  0  0  0  0  0  0  0
  -20.5819  -27.1356   21.8941 C   0  0  0  0  0  0  0  0  0  0  0  0
  -23.2442  -28.6963   20.8947 C   0  0  0  0  0  0  0  0  0  0  0  0
  -25.5951  -20.0539   20.9203 C   0  0  0  0  0  0  0  0  0  0  0  0
  -26.3712  -28.5161   19.5396 C   0  0  0  0  0  0  0  0  0  0  0  0
  -31.0298  -14.2799   20.5081 C   0  0  0  0  0  0  0  0  0  0  0  0
  -16.8585  -30.0432   23.8279 C   0  0  0  0  0  0  0  0  0  0  0  0
  -22.3923  -25.8741   23.1134 C   0  0  0  0  0  0  0  0  0  0  0  0
  -23.0573  -26.2621   20.2582 C   0  0  0  0  0  0  0  0  0  0  0  0
  -17.9211  -30.2079   22.7444 C   0  0  0  0  0  0  0  0  0  0  0  0
  -29.2858  -12.6560   17.8628 C   0  0  0  0  0  0  0  0  0  0  0  0
  -17.9201  -29.0036   21.8082 C   0  0  0  0  0  0  0  0  0  0  0  0
  -27.9002  -12.3838   18.4510 C   0  0  0  0  0  0  0  0  0  0  0  0
  -30.3849  -12.4992   18.9113 C   0  0  0  0  0  0  0  0  0  0  0  0
  -28.8020  -13.0208   20.7269 C   0  0  0  0  0  0  0  0  0  0  0  0
  -31.8682  -17.8310   23.7243 C   0  0  0  0  0  0  0  0  0  0  0  0
  -32.4663  -15.5082   23.2425 C   0  0  0  0  0  0  0  0  0  0  0  0
  -30.7615  -17.1437   22.9249 C   0  0  2  0  0  0  0  0  0  0  0  0
  -18.2576  -27.7146   22.5672 C   0  0  1  0  0  0  0  0  0  0  0  0
  -22.0086  -27.1471   22.3653 C   0  0  1  0  0  0  0  0  0  0  0  0
  -27.6558  -13.2212   19.7208 C   0  0  2  0  0  0  0  0  0  0  0  0
  -31.5287  -16.0480   22.1767 C   0  0  2  0  0  0  0  0  0  0  0  0
  -28.2869  -29.9620   18.8068 C   0  0  0  0  0  0  0  0  0  0  0  0
  -31.5151  -18.5143   17.8884 C   0  0  0  0  0  0  0  0  0  0  0  0
  -29.2657  -19.3823   17.2482 C   0  0  0  0  0  0  0  0  0  0  0  0
  -31.3245  -20.7181   16.7347 C   0  0  0  0  0  0  0  0  0  0  0  0
  -21.6952  -29.4711   18.3826 C   0  0  0  0  0  0  0  0  0  0  0  0
  -23.8760  -30.0630   17.3047 C   0  0  0  0  0  0  0  0  0  0  0  0
  -23.1159  -31.2950   19.3362 C   0  0  0  0  0  0  0  0  0  0  0  0
  -21.6748  -19.9823   20.8804 C   0  0  0  0  0  0  0  0  0  0  0  0
  -23.3191  -19.0687   19.2291 C   0  0  0  0  0  0  0  0  0  0  0  0
  -28.2137  -27.2631   21.4876 C   0  0  0  0  0  0  0  0  0  0  0  0
  -30.5693  -20.4658   19.1726 C   0  0  0  0  0  0  0  0  0  0  0  0
  -24.1644  -19.9345   21.4294 C   0  0  0  0  0  0  0  0  0  0  0  0
  -23.9219  -28.9094   19.5626 C   0  0  1  0  0  0  0  0  0  0  0  0
  -27.6847  -29.1579   19.9486 C   0  0  2  0  0  0  0  0  0  0  0  0
  -30.6562  -19.7907   17.7645 C   0  0  0  0  0  0  0  0  0  0  0  0
  -23.1479  -29.9085   18.6570 C   0  0  0  0  0  0  0  0  0  0  0  0
  -23.0975  -20.1083   20.3333 C   0  0  0  0  0  0  0  0  0  1  0  0
  -25.7943  -11.6842   20.2260 N   0  0  0  0  0  0  0  0  0  0  0  0
  -26.2999  -12.9246   20.3345 N   0  0  0  0  0  0  0  0  0  0  0  0
  -22.8455  -27.3844   21.1873 N   0  0  0  0  0  0  0  0  0  0  0  0
  -30.0936  -13.3203   20.0891 N   0  0  0  0  0  0  0  0  0  0  0  0
  -25.8490  -15.0781   21.2119 N   0  0  0  0  0  0  0  0  0  0  0  0
  -22.2010  -12.6891   22.3874 N   0  0  0  0  0  0  0  0  0  0  0  0
  -26.4706  -19.2433   21.6303 N   0  0  0  0  0  0  0  0  0  0  0  0
  -19.6808  -27.6327   22.8163 N   0  0  0  0  0  0  0  0  0  0  0  0
  -25.2920  -29.3117   19.8614 N   0  0  0  0  0  0  0  0  0  0  0  0
  -30.6727  -15.0194   21.6290 N   0  0  0  0  0  0  0  0  0  0  0  0
  -32.8381  -16.7252   24.0421 N   0  3  0  0  0  0  0  0  0  0  0  0
  -28.6665  -28.1137   20.3569 N   0  3  0  0  0  0  0  0  0  0  0  0
  -23.1792  -14.7611   22.4803 O   0  0  0  0  0  0  0  0  0  0  0  0
  -20.3183  -26.7090   20.7760 O   0  0  0  0  0  0  0  0  0  0  0  0
  -23.0813  -29.6572   21.6508 O   0  0  0  0  0  0  0  0  0  0  0  0
  -25.8584  -20.8002   19.9813 O   0  0  0  0  0  0  0  0  0  0  0  0
  -26.3090  -27.4203   18.9865 O   0  0  0  0  0  0  0  0  0  0  0  0
  -32.1021  -14.4677   19.9233 O   0  0  0  0  0  0  0  0  0  0  0  0
  -21.2822   -7.3115   21.2598 O   0  0  0  0  0  0  0  0  0  0  0  0
  -23.2206  -21.3998   19.7390 O   0  0  0  0  0  0  0  0  0  1  0  0
  -20.5232   -4.2705   16.7232 F   0  0  0  0  0  0  0  0  0  0  0  0
  -18.7562   -6.9638   20.1915 F   0  0  0  0  0  0  0  0  0  0  0  0
  1  2  1  0  0  0  0
  1  5  2  0  0  0  0
  2  6  2  0  0  0  0
  3  8  2  0  0  0  0
  3 18  1  0  0  0  0
  4  9  1  0  0  0  0
  4 18  2  0  0  0  0
  5 20  1  0  0  0  0
  6 22  1  0  0  0  0
  7 10  2  0  0  0  0
  7 21  1  0  0  0  0
  8 27  1  0  0  0  0
  9 27  2  0  0  0  0
 10 28  1  0  0  0  0
 11 12  2  0  0  0  0
 11 29  1  0  0  0  0
 12 30  1  0  0  0  0
 13 23  2  0  0  0  0
 13 25  1  0  0  0  0
 14 23  1  0  0  0  0
 14 26  2  0  0  0  0
 15 24  1  0  0  0  0
 15 28  2  0  0  0  0
 16 25  2  0  0  0  0
 16 26  1  0  0  0  0
 17 30  2  0  0  0  0
 17 31  1  0  0  0  0
 18 32  1  0  0  0  0
 19 32  1  0  0  0  0
 19 33  2  0  0  0  0
 19 34  1  0  0  0  0
 20 22  2  0  0  0  0
 20 40  1  0  0  0  0
 21 24  2  0  0  0  0
 21 41  1  0  0  0  0
 22 52  1  0  0  0  0
 23 51  1  0  0  0  0
 24 42  1  0  0  0  0
 25 66  1  0  0  0  0
 26 79  1  0  0  0  0
 27 91  1  0  0  0  0
 28 92  1  0  0  0  0
 29 31  2  0  0  0  0
 29 91  1  0  0  0  0
 30 93  1  0  0  0  0
 31 94  1  0  0  0  0
 32 73  2  0  0  0  0
 33 74  1  0  0  0  0
 33 77  1  0  0  0  0
 34 78  1  0  0  0  0
 34 85  2  0  0  0  0
 35 53  1  0  0  0  0
 35 80  1  0  0  0  0
 35 86  2  0  0  0  0
 36 68  1  0  0  0  0
 36 75  1  0  0  0  0
 36 87  2  0  0  0  0
 37 67  1  0  0  0  0
 37 79  1  0  0  0  0
 37 88  2  0  0  0  0
 38 69  1  0  0  0  0
 38 81  1  0  0  0  0
 38 89  2  0  0  0  0
 39 76  1  0  0  0  0
 39 82  1  0  0  0  0
 39 90  2  0  0  0  0
 40 43  1  0  0  0  0
 41 53  1  0  0  0  0
 42 75  1  0  0  0  0
 43 45  1  0  0  0  0
 44 46  1  0  0  0  0
 44 47  1  0  0  0  0
 45 52  1  0  0  0  0
 46 54  1  0  0  0  0
 47 76  1  0  0  0  0
 48 54  1  0  0  0  0
 48 76  1  0  0  0  0
 49 51  1  0  0  0  0
 49 83  1  0  0  0  0
 50 55  1  0  0  0  0
 50 83  1  0  0  0  0
 51 55  1  0  0  0  0
 52 80  1  0  0  0  0
 53 75  1  0  0  0  0
 54 74  1  0  0  0  0
 55 82  1  0  0  0  0
 56 69  1  0  0  0  0
 57 70  1  0  0  0  0
 58 70  1  0  0  0  0
 59 70  1  0  0  0  0
 60 71  1  0  0  0  0
 61 71  1  0  0  0  0
 62 71  1  0  0  0  0
 63 72  1  0  0  0  0
 64 72  1  0  0  0  0
 65 84  1  0  0  0  0
 66 70  1  0  0  0  0
 67 72  1  0  0  0  0
 68 71  1  0  0  0  0
 68 81  1  0  0  0  0
 69 84  1  0  0  0  0
 72 92  1  0  0  0  0
 73 74  1  0  0  0  0
M  CHG  2  83   1  84   1
M  ISO  4  39 100  72 101  82 100  92 101
M  END
> <Batch ID>
0149

> <Smiles>
CNC(C)C(=O)NC(C(=O)N1Cc2cc([101O:1][101C:1](C)(C)CC(=O)Nc3cc(CC(C)(C)C)cc(C4CNCC4[100NH:0][100C:0](=O)N4CCCC(n5nc(-c6ccc(Oc7ccc(F)cc7F)cc6)c(C(N)=O)c5N)C4)c3)ccc2CC1C(=O)NC1CCCc2ccccc21)C(C)(C)C

> <Shape>
0.292

> <Color>
0.142

> <Negative vol penalty>
0.000

$$$$

  -OEChem-04052303193D

 82 90  0     1  0  0  0  0  0999 V2000
  -30.3239  -14.4263   20.5433 C   0  0  0  0  0  0  0  0  0  0  0  0
  -29.6923  -15.4221   21.2814 C   0  0  0  0  0  0  0  0  0  0  0  0
  -28.4843  -26.4330   18.5771 C   0  0  0  0  0  0  0  0  0  0  0  0
  -26.3853  -25.2369   18.5481 C   0  0  0  0  0  0  0  0  0  0  0  0
  -29.6527  -13.8108   19.4876 C   0  0  0  0  0  0  0  0  0  0  0  0
  -28.3894  -15.8038   20.9634 C   0  0  0  0  0  0  0  0  0  0  0  0
  -22.3571  -18.1595   24.0261 C   0  0  0  0  0  0  0  0  0  0  0  0
  -29.1750  -25.2214   18.5551 C   0  0  0  0  0  0  0  0  0  0  0  0
  -27.0761  -24.0253   18.5261 C   0  0  0  0  0  0  0  0  0  0  0  0
  -21.4241  -19.1895   23.9154 C   0  0  0  0  0  0  0  0  0  0  0  0
  -28.2838  -20.6104   18.8257 C   0  0  0  0  0  0  0  0  0  0  0  0
  -27.8427  -19.5971   19.6767 C   0  0  0  0  0  0  0  0  0  0  0  0
  -20.3344  -18.0014   22.1209 C   0  0  0  0  0  0  0  0  0  0  0  0
  -19.7481  -26.8949   22.7813 C   0  0  0  0  0  0  0  0  0  0  0  0
  -28.2491  -21.0225   21.5847 C   0  0  0  0  0  0  0  0  0  0  0  0
  -18.0962  -27.0326   21.1520 C   0  0  0  0  0  0  0  0  0  0  0  0
  -27.0894  -26.4408   18.5736 C   0  0  0  0  0  0  0  0  0  0  0  0
  -25.9570  -28.4528   17.4887 C   0  0  0  0  0  0  0  0  0  0  0  0
  -28.3375  -14.1785   19.1626 C   0  0  0  0  0  0  0  0  0  0  0  0
  -22.2922  -17.0459   23.1763 C   0  0  0  0  0  0  0  0  0  0  0  0
  -27.7004  -15.1937   19.9015 C   0  0  0  0  0  0  0  0  0  0  0  0
  -21.2663  -16.9574   22.2246 C   0  0  0  0  0  0  0  0  0  0  0  0
  -18.8522  -26.1846   21.9310 C   0  0  0  0  0  0  0  0  0  0  0  0
  -28.4709  -24.0175   18.5296 C   0  0  0  0  0  0  0  0  0  0  0  0
  -20.4142  -19.1119   22.9608 C   0  0  0  0  0  0  0  0  0  0  0  0
  -28.7077  -21.8298   19.3542 C   0  0  0  0  0  0  0  0  0  0  0  0
  -27.8253  -19.8032   21.0562 C   0  0  0  0  0  0  0  0  0  0  0  0
  -28.6903  -22.0358   20.7336 C   0  0  0  0  0  0  0  0  0  0  0  0
  -26.3754  -27.6920   18.5968 C   0  0  0  0  0  0  0  0  0  0  0  0
  -19.6428  -28.2590   22.6196 C   0  0  0  0  0  0  0  0  0  0  0  0
  -25.3274  -29.5427   18.0384 C   0  0  0  0  0  0  0  0  0  0  0  0
  -26.1226  -28.1970   16.0876 C   0  0  0  0  0  0  0  0  0  0  0  0
  -24.2174  -15.7797   20.9867 C   0  0  0  0  0  0  0  0  0  0  0  0
  -19.1738  -22.4766   22.4100 C   0  0  0  0  0  0  0  0  0  0  0  0
  -21.9886  -13.4231   20.9534 C   0  0  0  0  0  0  0  0  0  0  0  0
  -18.7640  -12.4765   21.5474 C   0  0  0  0  0  0  0  0  0  0  0  0
  -22.6036  -30.4581   23.2914 C   0  0  0  0  0  0  0  0  0  0  0  0
  -27.6695  -13.5179   17.9827 C   0  0  0  0  0  0  0  0  0  0  0  0
  -23.2903  -15.9307   23.3263 C   0  0  0  0  0  0  0  0  0  0  0  0
  -21.1405  -15.7736   21.3018 C   0  0  0  0  0  0  0  0  0  0  0  0
  -26.1566  -13.7182   17.9485 C   0  0  0  0  0  0  0  0  0  0  0  0
  -25.3421  -32.2966   21.9507 C   0  0  0  0  0  0  0  0  0  0  0  0
  -25.8054  -15.1790   18.2120 C   0  0  0  0  0  0  0  0  0  0  0  0
  -25.8797  -31.3936   20.8392 C   0  0  0  0  0  0  0  0  0  0  0  0
  -24.8528  -31.4862   23.1491 C   0  0  0  0  0  0  0  0  0  0  0  0
  -24.4073  -29.5323   21.7146 C   0  0  0  0  0  0  0  0  0  0  0  0
  -26.2788  -15.6180   19.6029 C   0  0  1  0  0  0  0  0  0  0  0  0
  -23.4352  -15.0847   22.0651 C   0  0  1  0  0  0  0  0  0  0  0  0
  -24.8608  -30.3014   20.4620 C   0  0  2  0  0  0  0  0  0  0  0  0
  -17.2314  -10.4958   21.3886 C   0  0  0  0  0  0  0  0  0  0  0  0
  -21.8090  -13.8073   17.9318 C   0  0  0  0  0  0  0  0  0  0  0  0
  -19.6557  -12.5306   17.9675 C   0  0  0  0  0  0  0  0  0  0  0  0
  -21.7726  -11.4226   18.6841 C   0  0  0  0  0  0  0  0  0  0  0  0
  -18.2602  -12.4861   24.4637 C   0  0  0  0  0  0  0  0  0  0  0  0
  -20.3938  -29.3287   23.3117 C   0  0  0  0  0  0  0  0  0  0  0  0
  -19.5420  -23.9151   22.7052 C   0  0  0  0  0  0  0  0  0  0  0  0
  -19.9384  -21.4300   23.1971 C   0  0  0  0  0  0  0  0  0  1  0  0
  -20.7171  -13.1650   20.1815 C   0  0  1  0  0  0  0  0  0  0  0  0
  -18.1841  -11.2791   22.2783 C   0  0  2  0  0  0  0  0  0  0  0  0
  -20.9918  -12.7547   18.7072 C   0  0  0  0  0  0  0  0  0  0  0  0
  -26.0400  -28.2514   19.7625 N   0  0  0  0  0  0  0  0  0  0  0  0
  -25.4042  -29.3752   19.3898 N   0  0  0  0  0  0  0  0  0  0  0  0
  -22.1442  -14.7119   21.4832 N   0  0  0  0  0  0  0  0  0  0  0  0
  -23.8883  -30.4691   22.7235 N   0  0  0  0  0  0  0  0  0  0  0  0
  -24.7211  -30.6184   17.4928 N   0  0  0  0  0  0  0  0  0  0  0  0
  -26.7936  -27.0305   15.6961 N   0  0  0  0  0  0  0  0  0  0  0  0
  -18.7510  -24.8013   21.8903 N   0  0  0  0  0  0  0  0  0  0  0  0
  -25.3781  -15.1244   20.6225 N   0  0  0  0  0  0  0  0  0  0  0  0
  -19.9684  -12.1747   20.9477 N   0  0  0  0  0  0  0  0  0  0  0  0
  -21.7494  -29.4651   22.8276 N   0  0  0  0  0  0  0  0  0  0  0  0
  -17.4381  -11.7231   23.4897 N   0  3  0  0  0  0  0  0  0  0  0  0
  -25.7028  -28.9880   15.2092 O   0  0  0  0  0  0  0  0  0  0  0  0
  -23.7981  -16.8318   20.5188 O   0  0  0  0  0  0  0  0  0  0  0  0
  -18.3130  -22.1654   21.5878 O   0  0  0  0  0  0  0  0  0  0  0  0
  -22.8100  -12.5127   21.0875 O   0  0  0  0  0  0  0  0  0  0  0  0
  -18.2027  -13.5692   21.5089 O   0  0  0  0  0  0  0  0  0  0  0  0
  -22.2427  -31.2761   24.1443 O   0  0  0  0  0  0  0  0  0  0  0  0
  -29.1446  -22.8351   18.5079 O   0  0  0  0  0  0  0  0  0  0  0  0
  -19.5026  -20.1162   22.8501 O   0  0  0  0  0  0  0  0  0  1  0  0
  -27.4001  -18.8306   21.8732 F   0  0  0  0  0  0  0  0  0  0  0  0
  -29.0951  -23.2056   21.2471 F   0  0  0  0  0  0  0  0  0  0  0  0
  -18.4675  -28.6781   21.4469 S   0  0  0  0  0  0  0  0  0  0  0  0
  1  2  1  0  0  0  0
  1  5  2  0  0  0  0
  2  6  2  0  0  0  0
  3  8  2  0  0  0  0
  3 17  1  0  0  0  0
  4  9  1  0  0  0  0
  4 17  2  0  0  0  0
  5 19  1  0  0  0  0
  6 21  1  0  0  0  0
  7 10  2  0  0  0  0
  7 20  1  0  0  0  0
  8 24  1  0  0  0  0
  9 24  2  0  0  0  0
 10 25  1  0  0  0  0
 11 12  2  0  0  0  0
 11 26  1  0  0  0  0
 12 27  1  0  0  0  0
 13 22  1  0  0  0  0
 13 25  2  0  0  0  0
 14 23  1  0  0  0  0
 14 30  2  0  0  0  0
 15 27  2  0  0  0  0
 15 28  1  0  0  0  0
 16 23  2  0  0  0  0
 16 82  1  0  0  0  0
 17 29  1  0  0  0  0
 18 29  1  0  0  0  0
 18 31  2  0  0  0  0
 18 32  1  0  0  0  0
 19 21  2  0  0  0  0
 19 38  1  0  0  0  0
 20 22  2  0  0  0  0
 20 39  1  0  0  0  0
 21 47  1  0  0  0  0
 22 40  1  0  0  0  0
 23 67  1  0  0  0  0
 24 78  1  0  0  0  0
 25 79  1  0  0  0  0
 26 28  2  0  0  0  0
 26 78  1  0  0  0  0
 27 80  1  0  0  0  0
 28 81  1  0  0  0  0
 29 61  2  0  0  0  0
 30 55  1  0  0  0  0
 30 82  1  0  0  0  0
 31 62  1  0  0  0  0
 31 65  1  0  0  0  0
 32 66  1  0  0  0  0
 32 72  2  0  0  0  0
 33 48  1  0  0  0  0
 33 68  1  0  0  0  0
 33 73  2  0  0  0  0
 34 56  1  0  0  0  0
 34 57  1  0  0  0  0
 34 74  2  0  0  0  0
 35 58  1  0  0  0  0
 35 63  1  0  0  0  0
 35 75  2  0  0  0  0
 36 59  1  0  0  0  0
 36 69  1  0  0  0  0
 36 76  2  0  0  0  0
 37 64  1  0  0  0  0
 37 70  1  0  0  0  0
 37 77  2  0  0  0  0
 38 41  1  0  0  0  0
 39 48  1  0  0  0  0
 40 63  1  0  0  0  0
 41 43  1  0  0  0  0
 42 44  1  0  0  0  0
 42 45  1  0  0  0  0
 43 47  1  0  0  0  0
 44 49  1  0  0  0  0
 45 64  1  0  0  0  0
 46 49  1  0  0  0  0
 46 64  1  0  0  0  0
 47 68  1  0  0  0  0
 48 63  1  0  0  0  0
 49 62  1  0  0  0  0
 50 59  1  0  0  0  0
 51 60  1  0  0  0  0
 52 60  1  0  0  0  0
 53 60  1  0  0  0  0
 54 71  1  0  0  0  0
 55 70  1  0  0  0  0
 56 67  1  0  0  0  0
 57 79  1  0  0  0  0
 58 60  1  0  0  0  0
 58 69  1  0  0  0  0
 59 71  1  0  0  0  0
 61 62  1  0  0  0  0
M  CHG  1  71   1
M  ISO  4  37 100  57 101  70 100  79 101
M  END
> <Batch ID>
0149

> <Smiles>
CNC(C)C(=O)NC(C(=O)N1Cc2cc([101O:1][101CH2:1]C(=O)CNc3csc(C[100NH:0][100C:0](=O)N4CCCC(n5nc(-c6ccc(Oc7ccc(F)cc7F)cc6)c(C(N)=O)c5N)C4)c3)ccc2CC1C(=O)NC1CCCc2ccccc21)C(C)(C)C

> <Shape>
0.220

> <Color>
0.068

> <Negative vol penalty>
0.000

$$$$

  -OEChem-04052303193D

 88 97  0     1  0  0  0  0  0999 V2000
  -21.6969  -11.6337   21.3473 C   0  0  0  0  0  0  0  0  0  0  0  0
  -21.5907  -13.0116   21.5072 C   0  0  0  0  0  0  0  0  0  0  0  0
  -27.2193  -25.7907   23.6078 C   0  0  0  0  0  0  0  0  0  0  0  0
  -25.8581  -25.3182   21.6684 C   0  0  0  0  0  0  0  0  0  0  0  0
  -22.9443  -11.0533   21.1217 C   0  0  0  0  0  0  0  0  0  0  0  0
  -22.7322  -13.8098   21.4426 C   0  0  0  0  0  0  0  0  0  0  0  0
  -22.0385  -17.9687   18.6377 C   0  0  0  0  0  0  0  0  0  0  0  0
  -18.3953  -26.5403   22.9458 C   0  0  0  0  0  0  0  0  0  0  0  0
  -18.4447  -27.7406   23.6546 C   0  0  0  0  0  0  0  0  0  0  0  0
  -26.9331  -24.5241   24.1172 C   0  0  0  0  0  0  0  0  0  0  0  0
  -25.5720  -24.0516   22.1778 C   0  0  0  0  0  0  0  0  0  0  0  0
  -21.3424  -19.0242   19.2253 C   0  0  0  0  0  0  0  0  0  0  0  0
  -24.3770  -23.0056   25.7248 C   0  0  0  0  0  0  0  0  0  0  0  0
  -24.0363  -22.9124   27.0742 C   0  0  0  0  0  0  0  0  0  0  0  0
  -23.4323  -20.1354   19.6908 C   0  0  0  0  0  0  0  0  0  0  0  0
  -20.3744  -27.1835   21.7185 C   0  0  0  0  0  0  0  0  0  0  0  0
  -25.9273  -21.4567   27.4512 C   0  0  0  0  0  0  0  0  0  0  0  0
  -26.6817  -26.1878   22.3834 C   0  0  0  0  0  0  0  0  0  0  0  0
  -28.2443  -28.0187   21.5385 C   0  0  0  0  0  0  0  0  0  0  0  0
  -24.1004  -11.8459   21.0447 C   0  0  0  0  0  0  0  0  0  0  0  0
  -23.4396  -17.9836   18.5819 C   0  0  0  0  0  0  0  0  0  0  0  0
  -23.9965  -13.2394   21.2171 C   0  0  0  0  0  0  0  0  0  0  0  0
  -24.1437  -19.0801   19.0997 C   0  0  0  0  0  0  0  0  0  0  0  0
  -19.3602  -26.2617   21.9778 C   0  0  0  0  0  0  0  0  0  0  0  0
  -19.4589  -28.6624   23.3953 C   0  0  0  0  0  0  0  0  0  0  0  0
  -20.4238  -28.3839   22.4272 C   0  0  0  0  0  0  0  0  0  0  0  0
  -26.1095  -23.6546   23.4022 C   0  0  0  0  0  0  0  0  0  0  0  0
  -22.0394  -20.1064   19.7545 C   0  0  0  0  0  0  0  0  0  0  0  0
  -25.4929  -22.3243   25.2386 C   0  0  0  0  0  0  0  0  0  0  0  0
  -24.8114  -22.1380   27.9374 C   0  0  0  0  0  0  0  0  0  0  0  0
  -26.2680  -21.5499   26.1018 C   0  0  0  0  0  0  0  0  0  0  0  0
  -26.9764  -27.4963   21.8569 C   0  0  0  0  0  0  0  0  0  0  0  0
  -27.9874  -29.2873   21.0790 C   0  0  0  0  0  0  0  0  0  0  0  0
  -20.8899  -23.4942   20.1893 C   0  0  0  0  0  0  0  0  0  0  0  0
  -20.3599  -24.0985   21.2866 C   0  0  0  0  0  0  0  0  0  0  0  0
  -18.6272  -25.5194   18.9743 C   0  0  0  0  0  0  0  0  0  0  0  0
  -29.5385  -27.4114   21.6481 C   0  0  0  0  0  0  0  0  0  0  0  0
  -25.7509  -16.1455   19.7578 C   0  0  0  0  0  0  0  0  0  0  0  0
  -27.6560  -18.0700   17.9719 C   0  0  0  0  0  0  0  0  0  0  0  0
  -30.0562  -19.9847   16.4821 C   0  0  0  0  0  0  0  0  0  0  0  0
  -22.4959  -29.1724   21.2133 C   0  0  0  0  0  0  0  0  0  0  0  0
  -25.4332  -11.1683   20.8462 C   0  0  0  0  0  0  0  0  0  0  0  0
  -24.1743  -16.8498   17.9209 C   0  0  0  0  0  0  0  0  0  0  0  0
  -25.6471  -19.1538   19.0467 C   0  0  0  0  0  0  0  0  0  0  0  0
  -20.5035  -23.8255   18.7516 C   0  0  0  0  0  0  0  0  0  0  0  0
  -20.0283  -25.2508   18.4709 C   0  0  0  0  0  0  0  0  0  0  0  0
  -18.2143  -24.8992   20.2866 C   0  0  0  0  0  0  0  0  0  0  0  0
  -26.5444  -12.1235   20.4183 C   0  0  0  0  0  0  0  0  0  0  0  0
  -24.4228  -32.4413   21.8976 C   0  0  0  0  0  0  0  0  0  0  0  0
  -26.5306  -13.3800   21.2831 C   0  0  0  0  0  0  0  0  0  0  0  0
  -25.7450  -31.6847   21.9126 C   0  0  0  0  0  0  0  0  0  0  0  0
  -23.2546  -31.4677   22.0277 C   0  0  0  0  0  0  0  0  0  0  0  0
  -24.4485  -30.3048   20.1691 C   0  0  0  0  0  0  0  0  0  0  0  0
  -25.2084  -14.1414   21.1290 C   0  0  1  0  0  0  0  0  0  0  0  0
  -25.6245  -16.7296   18.3792 C   0  0  1  0  0  0  0  0  0  0  0  0
  -25.8278  -30.6685   20.7560 C   0  0  2  0  0  0  0  0  0  0  0  0
  -20.8286  -23.7132   22.6784 C   0  0  0  0  0  0  0  0  0  0  0  0
  -32.4887  -20.5779   16.6510 C   0  0  0  0  0  0  0  0  0  0  0  0
  -27.0495  -19.8658   20.3629 C   0  0  0  0  0  0  0  0  0  0  0  0
  -29.1758  -21.0991   19.8874 C   0  0  0  0  0  0  0  0  0  0  0  0
  -29.2467  -18.6774   20.4816 C   0  0  0  0  0  0  0  0  0  0  0  0
  -30.6228  -18.9199   13.7795 C   0  0  0  0  0  0  0  0  0  0  0  0
  -21.9632  -22.4300   20.2557 C   0  0  0  0  0  0  0  0  0  1  0  0
  -28.3839  -19.3712   18.2087 C   0  0  1  0  0  0  0  0  0  0  0  0
  -31.4621  -19.6539   16.0146 C   0  0  2  0  0  0  0  0  0  0  0  0
  -28.4438  -19.7510   19.7152 C   0  0  0  0  0  0  0  0  0  0  0  0
  -25.9876  -28.3623   21.6200 N   0  0  0  0  0  0  0  0  0  0  0  0
  -26.6341  -29.4417   21.1478 N   0  0  0  0  0  0  0  0  0  0  0  0
  -19.3098  -25.0357   21.2550 N   0  0  0  0  0  0  0  0  0  0  0  0
  -26.3206  -18.0178   18.3959 N   0  0  0  0  0  0  0  0  0  0  0  0
  -23.3822  -30.2778   21.1736 N   0  0  0  0  0  0  0  0  0  0  0  0
  -19.4889  -29.8727   24.1241 N   0  0  0  0  0  0  0  0  0  0  0  0
  -28.7895  -30.2746   20.6269 N   0  0  0  0  0  0  0  0  0  0  0  0
  -30.0337  -26.6913   20.5524 N   0  0  0  0  0  0  0  0  0  0  0  0
  -21.4639  -29.3054   22.1461 N   0  0  0  0  0  0  0  0  0  0  0  0
  -25.1961  -14.8867   19.8885 N   0  0  0  0  0  0  0  0  0  0  0  0
  -29.6907  -19.2289   17.5759 N   0  0  0  0  0  0  0  0  0  0  0  0
  -31.5611  -19.7903   14.5338 N   0  3  0  0  0  0  0  0  0  0  0  0
  -17.8499  -26.2313   18.3368 O   0  0  0  0  0  0  0  0  0  0  0  0
  -30.2282  -27.4909   22.6929 O   0  0  0  0  0  0  0  0  0  0  0  0
  -26.3118  -16.7885   20.6374 O   0  0  0  0  0  0  0  0  0  0  0  0
  -28.2482  -17.1367   17.4243 O   0  0  0  0  0  0  0  0  0  0  0  0
  -29.3541  -20.8316   15.9342 O   0  0  0  0  0  0  0  0  0  0  0  0
  -22.6449  -28.1960   20.4757 O   0  0  0  0  0  0  0  0  0  0  0  0
  -25.8303  -22.4185   23.8989 O   0  0  0  0  0  0  0  0  0  0  0  0
  -21.3625  -21.1376   20.3292 O   0  0  0  0  0  0  0  0  0  1  0  0
  -24.4849  -22.0498   29.2335 F   0  0  0  0  0  0  0  0  0  0  0  0
  -27.3419  -20.8941   25.6407 F   0  0  0  0  0  0  0  0  0  0  0  0
  1  2  1  0  0  0  0
  1  5  2  0  0  0  0
  2  6  2  0  0  0  0
  3 10  2  0  0  0  0
  3 18  1  0  0  0  0
  4 11  1  0  0  0  0
  4 18  2  0  0  0  0
  5 20  1  0  0  0  0
  6 22  1  0  0  0  0
  7 12  2  0  0  0  0
  7 21  1  0  0  0  0
  8  9  2  0  0  0  0
  8 24  1  0  0  0  0
  9 25  1  0  0  0  0
 10 27  1  0  0  0  0
 11 27  2  0  0  0  0
 12 28  1  0  0  0  0
 13 14  2  0  0  0  0
 13 29  1  0  0  0  0
 14 30  1  0  0  0  0
 15 23  1  0  0  0  0
 15 28  2  0  0  0  0
 16 24  2  0  0  0  0
 16 26  1  0  0  0  0
 17 30  2  0  0  0  0
 17 31  1  0  0  0  0
 18 32  1  0  0  0  0
 19 32  1  0  0  0  0
 19 33  2  0  0  0  0
 19 37  1  0  0  0  0
 20 22  2  0  0  0  0
 20 42  1  0  0  0  0
 21 23  2  0  0  0  0
 21 43  1  0  0  0  0
 22 54  1  0  0  0  0
 23 44  1  0  0  0  0
 24 69  1  0  0  0  0
 25 26  2  0  0  0  0
 25 72  1  0  0  0  0
 26 75  1  0  0  0  0
 27 85  1  0  0  0  0
 28 86  1  0  0  0  0
 29 31  2  0  0  0  0
 29 85  1  0  0  0  0
 30 87  1  0  0  0  0
 31 88  1  0  0  0  0
 32 67  2  0  0  0  0
 33 68  1  0  0  0  0
 33 73  1  0  0  0  0
 34 35  2  0  0  0  0
 34 45  1  0  0  0  0
 34 63  1  0  0  0  0
 35 57  1  0  0  0  0
 35 69  1  0  0  0  0
 36 46  1  0  0  0  0
 36 47  1  0  0  0  0
 36 79  2  0  0  0  0
 37 74  1  0  0  0  0
 37 80  2  0  0  0  0
 38 55  1  0  0  0  0
 38 76  1  0  0  0  0
 38 81  2  0  0  0  0
 39 64  1  0  0  0  0
 39 70  1  0  0  0  0
 39 82  2  0  0  0  0
 40 65  1  0  0  0  0
 40 77  1  0  0  0  0
 40 83  2  0  0  0  0
 41 71  1  0  0  0  0
 41 75  1  0  0  0  0
 41 84  2  0  0  0  0
 42 48  1  0  0  0  0
 43 55  1  0  0  0  0
 44 70  1  0  0  0  0
 45 46  1  0  0  0  0
 47 69  1  0  0  0  0
 48 50  1  0  0  0  0
 49 51  1  0  0  0  0
 49 52  1  0  0  0  0
 50 54  1  0  0  0  0
 51 56  1  0  0  0  0
 52 71  1  0  0  0  0
 53 56  1  0  0  0  0
 53 71  1  0  0  0  0
 54 76  1  0  0  0  0
 55 70  1  0  0  0  0
 56 68  1  0  0  0  0
 58 65  1  0  0  0  0
 59 66  1  0  0  0  0
 60 66  1  0  0  0  0
 61 66  1  0  0  0  0
 62 78  1  0  0  0  0
 63 86  1  0  0  0  0
 64 66  1  0  0  0  0
 64 77  1  0  0  0  0
 65 78  1  0  0  0  0
 67 68  1  0  0  0  0
M  CHG  1  78   1
M  ISO  4  41 100  63 101  75 100  86 101
M  END
> <Batch ID>
0149

> <Smiles>
CNC(C)C(=O)NC(C(=O)N1Cc2cc([101O:1][101CH2:1]C3=C(C)N(c4ccc(N)c([100NH:0][100C:0](=O)N5CCCC(n6nc(-c7ccc(Oc8ccc(F)cc8F)cc7)c(C(N)=O)c6N)C5)c4)CC(=O)CC3)ccc2CC1C(=O)NC1CCCc2ccccc21)C(C)(C)C

> <Shape>
0.220

> <Color>
0.071

> <Negative vol penalty>
0.000

$$$$

  -OEChem-04052303193D

 84 92  0     1  0  0  0  0  0999 V2000
  -19.7209  -32.7950   19.3656 C   0  0  0  0  0  0  0  0  0  0  0  0
  -21.0799  -32.5257   19.4923 C   0  0  0  0  0  0  0  0  0  0  0  0
  -23.8913  -14.0943   19.3134 C   0  0  0  0  0  0  0  0  0  0  0  0
  -25.1009  -14.9342   21.2288 C   0  0  0  0  0  0  0  0  0  0  0  0
  -18.8212  -32.2910   20.3039 C   0  0  0  0  0  0  0  0  0  0  0  0
  -21.5401  -31.7532   20.5581 C   0  0  0  0  0  0  0  0  0  0  0  0
  -24.9262  -28.2747   19.1163 C   0  0  0  0  0  0  0  0  0  0  0  0
  -24.2229  -12.7890   19.6763 C   0  0  0  0  0  0  0  0  0  0  0  0
  -25.4325  -13.6288   21.5917 C   0  0  0  0  0  0  0  0  0  0  0  0
  -26.2286  -28.7130   18.8811 C   0  0  0  0  0  0  0  0  0  0  0  0
  -24.4476   -9.2146   20.2992 C   0  0  0  0  0  0  0  0  0  0  0  0
  -23.4381   -8.2530   20.2555 C   0  0  0  0  0  0  0  0  0  0  0  0
  -30.1076  -23.5612   21.0259 C   0  0  0  0  0  0  0  0  0  0  0  0
  -29.2459  -22.4452   20.9031 C   0  0  0  0  0  0  0  0  0  0  0  0
  -26.8851  -27.9125   21.0600 C   0  0  0  0  0  0  0  0  0  0  0  0
  -22.1621   -9.5191   21.8697 C   0  0  0  0  0  0  0  0  0  0  0  0
  -24.3303  -15.1670   20.0896 C   0  0  0  0  0  0  0  0  0  0  0  0
  -22.8527  -17.2463   20.1121 C   0  0  0  0  0  0  0  0  0  0  0  0
  -19.2694  -31.5038   21.3763 C   0  0  0  0  0  0  0  0  0  0  0  0
  -24.5904  -27.6607   20.3315 C   0  0  0  0  0  0  0  0  0  0  0  0
  -20.6456  -31.2393   21.5123 C   0  0  0  0  0  0  0  0  0  0  0  0
  -25.5783  -27.4650   21.3071 C   0  0  0  0  0  0  0  0  0  0  0  0
  -24.9935  -12.5562   20.8155 C   0  0  0  0  0  0  0  0  0  0  0  0
  -27.2076  -28.5346   19.8541 C   0  0  0  0  0  0  0  0  0  0  0  0
  -24.3144  -10.3284   21.1283 C   0  0  0  0  0  0  0  0  0  0  0  0
  -22.2954   -8.4052   21.0407 C   0  0  0  0  0  0  0  0  0  0  0  0
  -23.1716  -10.4807   21.9135 C   0  0  0  0  0  0  0  0  0  0  0  0
  -23.9886  -16.5156   19.7150 C   0  0  0  0  0  0  0  0  0  0  0  0
  -30.2100  -24.1051   19.7666 C   0  0  0  0  0  0  0  0  0  0  0  0
  -22.9929  -18.4633   19.4910 C   0  0  0  0  0  0  0  0  0  0  0  0
  -28.8829  -22.3868   19.5777 C   0  0  0  0  0  0  0  0  0  0  0  0
  -21.7679  -16.8596   20.9661 C   0  0  0  0  0  0  0  0  0  0  0  0
  -30.9678  -25.2849   19.2588 C   0  0  0  0  0  0  0  0  0  0  0  0
  -22.5972  -28.3403   22.7124 C   0  0  0  0  0  0  0  0  0  0  0  0
  -23.5105  -25.4209   23.7919 C   0  0  0  0  0  0  0  0  0  0  0  0
  -25.8589  -22.9447   23.8144 C   0  0  0  0  0  0  0  0  0  0  0  0
  -27.7344  -21.5143   17.5122 C   0  0  0  0  0  0  0  0  0  0  0  0
  -18.2646  -31.0205   22.3918 C   0  0  0  0  0  0  0  0  0  0  0  0
  -23.1871  -27.1694   20.5591 C   0  0  0  0  0  0  0  0  0  0  0  0
  -25.2738  -26.7933   22.6203 C   0  0  0  0  0  0  0  0  0  0  0  0
  -18.7905  -29.8978   23.2825 C   0  0  0  0  0  0  0  0  0  0  0  0
  -24.9165  -20.4807   15.5969 C   0  0  0  0  0  0  0  0  0  0  0  0
  -20.1859  -30.2348   23.7982 C   0  0  0  0  0  0  0  0  0  0  0  0
  -24.2520  -19.4175   16.4744 C   0  0  0  0  0  0  0  0  0  0  0  0
  -26.4401  -20.4238   15.6927 C   0  0  0  0  0  0  0  0  0  0  0  0
  -26.3142  -19.4120   17.9354 C   0  0  0  0  0  0  0  0  0  0  0  0
  -21.1806  -30.3845   22.6407 C   0  0  1  0  0  0  0  0  0  0  0  0
  -22.8386  -27.0201   22.0368 C   0  0  1  0  0  0  0  0  0  0  0  0
  -24.7780  -19.4724   17.9221 C   0  0  2  0  0  0  0  0  0  0  0  0
  -26.8833  -20.7117   24.3260 C   0  0  0  0  0  0  0  0  0  0  0  0
  -24.2263  -26.7617   26.4377 C   0  0  0  0  0  0  0  0  0  0  0  0
  -25.5503  -24.7219   27.0332 C   0  0  0  0  0  0  0  0  0  0  0  0
  -23.0893  -24.5459   26.6651 C   0  0  0  0  0  0  0  0  0  0  0  0
  -33.1669  -27.6699   18.8734 C   0  0  0  0  0  0  0  0  0  0  0  0
  -32.5264  -28.3478   21.1751 C   0  0  0  0  0  0  0  0  0  0  0  0
  -24.6701  -21.7160   21.3987 C   0  0  0  0  0  0  0  0  0  0  0  0
  -31.8061  -26.0889   20.2496 C   0  0  0  0  0  0  0  0  0  0  0  0
  -30.7697  -28.3012   19.3741 C   0  0  0  0  0  0  0  0  0  0  0  0
  -29.5314  -28.2377   20.2639 C   0  0  0  0  0  0  0  0  0  1  0  0
  -24.6162  -24.9084   24.6829 C   0  0  1  0  0  0  0  0  0  0  0  0
  -25.7394  -21.4416   23.6392 C   0  0  2  0  0  0  0  0  0  0  0  0
  -24.3761  -25.2489   26.1808 C   0  0  0  0  0  0  0  0  0  0  0  0
  -32.0344  -27.5896   19.9237 C   0  0  0  0  0  0  0  0  0  0  0  0
  -24.7911  -17.2104   18.9042 N   0  0  0  0  0  0  0  0  0  0  0  0
  -24.1586  -18.3903   18.7868 N   0  0  0  0  0  0  0  0  0  0  0  0
  -23.8857  -26.3360   22.7981 N   0  0  0  0  0  0  0  0  0  0  0  0
  -26.8654  -20.4849   17.0928 N   0  0  0  0  0  0  0  0  0  0  0  0
  -22.2315  -19.5781   19.4840 N   0  0  0  0  0  0  0  0  0  0  0  0
  -21.7807  -15.5728   21.5214 N   0  0  0  0  0  0  0  0  0  0  0  0
  -28.0436  -21.4896   18.8718 N   0  0  0  0  0  0  0  0  0  0  0  0
  -21.5799  -29.0844   22.1460 N   0  0  0  0  0  0  0  0  0  0  0  0
  -24.7348  -23.4809   24.4062 N   0  0  0  0  0  0  0  0  0  0  0  0
  -25.7565  -21.0858   22.1921 N   0  3  0  0  0  0  0  0  0  0  0  0
  -20.8072  -17.6265   21.2160 O   0  0  0  0  0  0  0  0  0  0  0  0
  -30.8756  -25.5732   18.0694 O   0  0  0  0  0  0  0  0  0  0  0  0
  -23.2821  -28.6595   23.6771 O   0  0  0  0  0  0  0  0  0  0  0  0
  -22.3576  -25.0185   23.9666 O   0  0  0  0  0  0  0  0  0  0  0  0
  -26.8518  -23.5793   23.4650 O   0  0  0  0  0  0  0  0  0  0  0  0
  -28.1503  -22.3718   16.7289 O   0  0  0  0  0  0  0  0  0  0  0  0
  -29.4664  -23.3951   18.8781 O   0  0  0  0  0  0  0  0  0  0  0  0
  -25.3171  -11.2826   21.1700 O   0  0  0  0  0  0  0  0  0  0  0  0
  -28.4795  -28.9621   19.6274 O   0  0  0  0  0  0  0  0  0  1  0  0
  -21.3254   -7.4825   20.9974 F   0  0  0  0  0  0  0  0  0  0  0  0
  -23.0374  -11.5492   22.7111 F   0  0  0  0  0  0  0  0  0  0  0  0
  1  2  1  0  0  0  0
  1  5  2  0  0  0  0
  2  6  2  0  0  0  0
  3  8  2  0  0  0  0
  3 17  1  0  0  0  0
  4  9  1  0  0  0  0
  4 17  2  0  0  0  0
  5 19  1  0  0  0  0
  6 21  1  0  0  0  0
  7 10  2  0  0  0  0
  7 20  1  0  0  0  0
  8 23  1  0  0  0  0
  9 23  2  0  0  0  0
 10 24  1  0  0  0  0
 11 12  2  0  0  0  0
 11 25  1  0  0  0  0
 12 26  1  0  0  0  0
 13 14  1  0  0  0  0
 13 29  2  0  0  0  0
 14 31  2  0  0  0  0
 15 22  1  0  0  0  0
 15 24  2  0  0  0  0
 16 26  2  0  0  0  0
 16 27  1  0  0  0  0
 17 28  1  0  0  0  0
 18 28  1  0  0  0  0
 18 30  2  0  0  0  0
 18 32  1  0  0  0  0
 19 21  2  0  0  0  0
 19 38  1  0  0  0  0
 20 22  2  0  0  0  0
 20 39  1  0  0  0  0
 21 47  1  0  0  0  0
 22 40  1  0  0  0  0
 23 81  1  0  0  0  0
 24 82  1  0  0  0  0
 25 27  2  0  0  0  0
 25 81  1  0  0  0  0
 26 83  1  0  0  0  0
 27 84  1  0  0  0  0
 28 64  2  0  0  0  0
 29 33  1  0  0  0  0
 29 80  1  0  0  0  0
 30 65  1  0  0  0  0
 30 68  1  0  0  0  0
 31 70  1  0  0  0  0
 31 80  1  0  0  0  0
 32 69  1  0  0  0  0
 32 74  2  0  0  0  0
 33 57  1  0  0  0  0
 33 75  2  0  0  0  0
 34 48  1  0  0  0  0
 34 71  1  0  0  0  0
 34 76  2  0  0  0  0
 35 60  1  0  0  0  0
 35 66  1  0  0  0  0
 35 77  2  0  0  0  0
 36 61  1  0  0  0  0
 36 72  1  0  0  0  0
 36 78  2  0  0  0  0
 37 67  1  0  0  0  0
 37 70  1  0  0  0  0
 37 79  2  0  0  0  0
 38 41  1  0  0  0  0
 39 48  1  0  0  0  0
 40 66  1  0  0  0  0
 41 43  1  0  0  0  0
 42 44  1  0  0  0  0
 42 45  1  0  0  0  0
 43 47  1  0  0  0  0
 44 49  1  0  0  0  0
 45 67  1  0  0  0  0
 46 49  1  0  0  0  0
 46 67  1  0  0  0  0
 47 71  1  0  0  0  0
 48 66  1  0  0  0  0
 49 65  1  0  0  0  0
 50 61  1  0  0  0  0
 51 62  1  0  0  0  0
 52 62  1  0  0  0  0
 53 62  1  0  0  0  0
 54 63  1  0  0  0  0
 55 63  1  0  0  0  0
 56 73  1  0  0  0  0
 57 63  1  0  0  0  0
 58 59  1  0  0  0  0
 58 63  1  0  0  0  0
 59 82  1  0  0  0  0
 60 62  1  0  0  0  0
 60 72  1  0  0  0  0
 61 73  1  0  0  0  0
 64 65  1  0  0  0  0
M  CHG  1  73   1
M  ISO  4  37 100  59 101  70 100  82 101
M  END
> <Batch ID>
0149

> <Smiles>
CNC(C)C(=O)NC(C(=O)N1Cc2cc([101O:1][101CH2:1]CC(C)(C)CC(=O)c3ccc([100NH:0][100C:0](=O)N4CCCC(n5nc(-c6ccc(Oc7ccc(F)cc7F)cc6)c(C(N)=O)c5N)C4)o3)ccc2CC1C(=O)NC1CCCc2ccccc21)C(C)(C)C

> <Shape>
0.186

> <Color>
0.096

> <Negative vol penalty>
0.000

$$$$

  -OEChem-04052303193D

 86 95  0     1  0  0  0  0  0999 V2000
  -26.4341  -38.4567   22.3936 C   0  0  0  0  0  0  0  0  0  0  0  0
  -27.1076  -37.5301   21.6042 C   0  0  0  0  0  0  0  0  0  0  0  0
  -24.9189   -7.5055   21.0221 C   0  0  0  0  0  0  0  0  0  0  0  0
  -23.0844   -8.7218   20.0259 C   0  0  0  0  0  0  0  0  0  0  0  0
  -25.7354  -38.0318   23.5228 C   0  0  0  0  0  0  0  0  0  0  0  0
  -27.0837  -36.1780   21.9442 C   0  0  0  0  0  0  0  0  0  0  0  0
  -27.1200  -29.6681   18.9549 C   0  0  0  0  0  0  0  0  0  0  0  0
  -24.0178   -6.5862   21.5590 C   0  0  0  0  0  0  0  0  0  0  0  0
  -22.1832   -7.8024   20.5628 C   0  0  0  0  0  0  0  0  0  0  0  0
  -27.8067  -28.4565   19.0206 C   0  0  0  0  0  0  0  0  0  0  0  0
  -22.2431   -3.9172   20.4818 C   0  0  0  0  0  0  0  0  0  0  0  0
  -22.5546   -2.5623   20.3685 C   0  0  0  0  0  0  0  0  0  0  0  0
  -23.1341  -18.6554   19.1004 C   0  0  0  0  0  0  0  0  0  0  0  0
  -23.3641  -17.2623   19.1992 C   0  0  0  0  0  0  0  0  0  0  0  0
  -26.5013  -27.8280   20.9493 C   0  0  0  0  0  0  0  0  0  0  0  0
  -22.5402   -2.3576   22.7758 C   0  0  0  0  0  0  0  0  0  0  0  0
  -24.4522   -8.5734   20.2555 C   0  0  0  0  0  0  0  0  0  0  0  0
  -26.0193   -9.4578   18.4473 C   0  0  0  0  0  0  0  0  0  0  0  0
  -25.6949  -36.6726   23.8715 C   0  0  0  0  0  0  0  0  0  0  0  0
  -26.1245  -29.9738   19.8941 C   0  0  0  0  0  0  0  0  0  0  0  0
  -26.3850  -35.7346   23.0800 C   0  0  0  0  0  0  0  0  0  0  0  0
  -25.8016  -29.0430   20.8918 C   0  0  0  0  0  0  0  0  0  0  0  0
  -22.6500   -6.7346   21.3294 C   0  0  0  0  0  0  0  0  0  0  0  0
  -27.4994  -27.5375   20.0196 C   0  0  0  0  0  0  0  0  0  0  0  0
  -22.0803   -4.4924   21.7422 C   0  0  0  0  0  0  0  0  0  0  0  0
  -22.7031   -1.7825   21.5154 C   0  0  0  0  0  0  0  0  0  0  0  0
  -22.2288   -3.7126   22.8891 C   0  0  0  0  0  0  0  0  0  0  0  0
  -25.3825   -9.5238   19.7011 C   0  0  0  0  0  0  0  0  0  0  0  0
  -24.1711  -19.2622   19.7698 C   0  0  0  0  0  0  0  0  0  0  0  0
  -26.7959  -10.5894   18.3967 C   0  0  0  0  0  0  0  0  0  0  0  0
  -24.5255  -17.1173   19.9218 C   0  0  0  0  0  0  0  0  0  0  0  0
  -25.9177   -8.4625   17.4202 C   0  0  0  0  0  0  0  0  0  0  0  0
  -24.3408  -20.7181   19.9237 C   0  0  0  0  0  0  0  0  0  0  0  0
  -27.9711  -23.9441   20.0204 C   0  0  0  0  0  0  0  0  0  0  0  0
  -25.7366  -32.2323   22.0969 C   0  0  0  0  0  0  0  0  0  0  0  0
  -22.8082  -30.8735   22.4141 C   0  0  0  0  0  0  0  0  0  0  0  0
  -20.8389  -28.1124   22.0337 C   0  0  0  0  0  0  0  0  0  0  0  0
  -26.4216  -15.9203   21.0701 C   0  0  0  0  0  0  0  0  0  0  0  0
  -24.9658  -36.2668   25.1278 C   0  0  0  0  0  0  0  0  0  0  0  0
  -25.3745  -31.2737   19.7935 C   0  0  0  0  0  0  0  0  0  0  0  0
  -24.7272  -29.3145   21.9119 C   0  0  0  0  0  0  0  0  0  0  0  0
  -24.6785  -34.7697   25.2088 C   0  0  0  0  0  0  0  0  0  0  0  0
  -29.1538  -13.6431   21.2339 C   0  0  0  0  0  0  0  0  0  0  0  0
  -25.9227  -33.9668   24.8426 C   0  0  0  0  0  0  0  0  0  0  0  0
  -28.5562  -12.3238   20.7395 C   0  0  0  0  0  0  0  0  0  0  0  0
  -27.8708  -21.4518   19.7953 C   0  0  0  0  0  0  0  0  0  0  0  0
  -28.1529  -14.4423   22.0666 C   0  0  0  0  0  0  0  0  0  0  0  0
  -26.7797  -20.4071   19.9897 C   0  0  0  0  0  0  0  0  0  0  0  0
  -25.8293  -22.6601   20.1809 C   0  0  0  0  0  0  0  0  0  0  0  0
  -26.2576  -13.3575   20.9263 C   0  0  0  0  0  0  0  0  0  0  0  0
  -26.3619  -34.2562   23.4022 C   0  0  1  0  0  0  0  0  0  0  0  0
  -27.3219  -22.6884   20.5038 C   0  0  2  0  0  0  0  0  0  0  0  0
  -24.7353  -31.6983   21.1120 C   0  0  1  0  0  0  0  0  0  0  0  0
  -27.2072  -12.5475   20.0285 C   0  0  2  0  0  0  0  0  0  0  0  0
  -18.4974  -27.2949   22.4162 C   0  0  0  0  0  0  0  0  0  0  0  0
  -23.3863  -30.6220   25.3994 C   0  0  0  0  0  0  0  0  0  0  0  0
  -21.4951  -28.9889   25.5571 C   0  0  0  0  0  0  0  0  0  0  0  0
  -21.0554  -31.3388   24.8450 C   0  0  0  0  0  0  0  0  0  0  0  0
  -20.4255  -27.5921   19.1497 C   0  0  0  0  0  0  0  0  0  0  0  0
  -27.4602  -25.2367   20.6203 C   0  0  0  0  0  0  0  0  0  1  0  0
  -22.2310  -29.7618   23.2566 C   0  0  1  0  0  0  0  0  0  0  0  0
  -19.4587  -27.9353   21.4270 C   0  0  2  0  0  0  0  0  0  0  0  0
  -22.0636  -30.1733   24.7466 C   0  0  0  0  0  0  0  0  0  0  0  0
  -25.7250  -10.6113   20.3968 N   0  0  0  0  0  0  0  0  0  0  0  0
  -26.5856  -11.2390   19.5773 N   0  0  0  0  0  0  0  0  0  0  0  0
  -25.5571  -21.2225   20.0233 N   0  0  0  0  0  0  0  0  0  0  0  0
  -24.0265  -30.6021   21.7755 N   0  0  0  0  0  0  0  0  0  0  0  0
  -26.9008  -14.6185   21.3276 N   0  0  0  0  0  0  0  0  0  0  0  0
  -27.6315  -11.0823   17.4579 N   0  0  0  0  0  0  0  0  0  0  0  0
  -25.0739   -7.3643   17.6351 N   0  0  0  0  0  0  0  0  0  0  0  0
  -25.2397  -15.9640   20.3313 N   0  0  0  0  0  0  0  0  0  0  0  0
  -25.5186  -33.5464   22.4644 N   0  0  0  0  0  0  0  0  0  0  0  0
  -20.9897  -29.3581   22.6051 N   0  0  0  0  0  0  0  0  0  0  0  0
  -23.2665  -21.5011   19.9581 N   0  3  0  0  0  0  0  0  0  0  0  0
  -19.5323  -27.0701   20.2158 N   0  3  0  0  0  0  0  0  0  0  0  0
  -26.5690   -8.5363   16.3507 O   0  0  0  0  0  0  0  0  0  0  0  0
  -28.8698  -23.9166   19.1810 O   0  0  0  0  0  0  0  0  0  0  0  0
  -26.6392  -31.5054   22.4951 O   0  0  0  0  0  0  0  0  0  0  0  0
  -22.1969  -31.9408   22.3200 O   0  0  0  0  0  0  0  0  0  0  0  0
  -21.6962  -27.2321   22.0068 O   0  0  0  0  0  0  0  0  0  0  0  0
  -27.0303  -16.9232   21.4516 O   0  0  0  0  0  0  0  0  0  0  0  0
  -25.0238  -18.3316   20.2734 O   0  0  0  0  0  0  0  0  0  0  0  0
  -21.7704   -5.8375   21.8530 O   0  0  0  0  0  0  0  0  0  0  0  0
  -28.1687  -26.3545   20.0864 O   0  0  0  0  0  0  0  0  0  1  0  0
  -23.0006   -0.4811   21.4064 F   0  0  0  0  0  0  0  0  0  0  0  0
  -22.0724   -4.2592   24.1026 F   0  0  0  0  0  0  0  0  0  0  0  0
  1  2  1  0  0  0  0
  1  5  2  0  0  0  0
  2  6  2  0  0  0  0
  3  8  2  0  0  0  0
  3 17  1  0  0  0  0
  4  9  1  0  0  0  0
  4 17  2  0  0  0  0
  5 19  1  0  0  0  0
  6 21  1  0  0  0  0
  7 10  2  0  0  0  0
  7 20  1  0  0  0  0
  8 23  1  0  0  0  0
  9 23  2  0  0  0  0
 10 24  1  0  0  0  0
 11 12  2  0  0  0  0
 11 25  1  0  0  0  0
 12 26  1  0  0  0  0
 13 14  1  0  0  0  0
 13 29  2  0  0  0  0
 14 31  2  0  0  0  0
 15 22  1  0  0  0  0
 15 24  2  0  0  0  0
 16 26  2  0  0  0  0
 16 27  1  0  0  0  0
 17 28  1  0  0  0  0
 18 28  1  0  0  0  0
 18 30  2  0  0  0  0
 18 32  1  0  0  0  0
 19 21  2  0  0  0  0
 19 39  1  0  0  0  0
 20 22  2  0  0  0  0
 20 40  1  0  0  0  0
 21 51  1  0  0  0  0
 22 41  1  0  0  0  0
 23 83  1  0  0  0  0
 24 84  1  0  0  0  0
 25 27  2  0  0  0  0
 25 83  1  0  0  0  0
 26 85  1  0  0  0  0
 27 86  1  0  0  0  0
 28 64  2  0  0  0  0
 29 33  1  0  0  0  0
 29 82  1  0  0  0  0
 30 65  1  0  0  0  0
 30 69  1  0  0  0  0
 31 71  1  0  0  0  0
 31 82  1  0  0  0  0
 32 70  1  0  0  0  0
 32 76  2  0  0  0  0
 33 66  1  0  0  0  0
 33 74  2  0  0  0  0
 34 52  1  0  0  0  0
 34 60  1  0  0  0  0
 34 77  2  0  0  0  0
 35 53  1  0  0  0  0
 35 72  1  0  0  0  0
 35 78  2  0  0  0  0
 36 61  1  0  0  0  0
 36 67  1  0  0  0  0
 36 79  2  0  0  0  0
 37 62  1  0  0  0  0
 37 73  1  0  0  0  0
 37 80  2  0  0  0  0
 38 68  1  0  0  0  0
 38 71  1  0  0  0  0
 38 81  2  0  0  0  0
 39 42  1  0  0  0  0
 40 53  1  0  0  0  0
 41 67  1  0  0  0  0
 42 44  1  0  0  0  0
 43 45  1  0  0  0  0
 43 47  1  0  0  0  0
 44 51  1  0  0  0  0
 45 54  1  0  0  0  0
 46 48  1  0  0  0  0
 46 52  1  0  0  0  0
 47 68  1  0  0  0  0
 48 66  1  0  0  0  0
 49 52  1  0  0  0  0
 49 66  1  0  0  0  0
 50 54  1  0  0  0  0
 50 68  1  0  0  0  0
 51 72  1  0  0  0  0
 53 67  1  0  0  0  0
 54 65  1  0  0  0  0
 55 62  1  0  0  0  0
 56 63  1  0  0  0  0
 57 63  1  0  0  0  0
 58 63  1  0  0  0  0
 59 75  1  0  0  0  0
 60 84  1  0  0  0  0
 61 63  1  0  0  0  0
 61 73  1  0  0  0  0
 62 75  1  0  0  0  0
 64 65  1  0  0  0  0
M  CHG  2  74   1  75   1
M  ISO  4  38 100  60 101  71 100  84 101
M  END
> <Batch ID>
0149

> <Smiles>
CNC(C)C(=O)NC(C(=O)N1Cc2cc([101O:1][101CH2:1]C(=O)C3CCN(C(=N)c4ccc([100NH:0][100C:0](=O)N5CCCC(n6nc(-c7ccc(Oc8ccc(F)cc8F)cc7)c(C(N)=O)c6N)C5)o4)C3)ccc2CC1C(=O)NC1CCCc2ccccc21)C(C)(C)C

> <Shape>
0.278

> <Color>
0.082

> <Negative vol penalty>
0.000

$$$$

  -OEChem-04052303193D

 84 93  0     1  0  0  0  0  0999 V2000
  -23.6856  -32.7970   14.2951 C   0  0  0  0  0  0  0  0  0  0  0  0
  -24.6155  -31.7799   14.4846 C   0  0  0  0  0  0  0  0  0  0  0  0
  -24.3820   -9.3760   21.2147 C   0  0  0  0  0  0  0  0  0  0  0  0
  -24.9488  -10.2904   23.3780 C   0  0  0  0  0  0  0  0  0  0  0  0
  -23.4703  -33.7393   15.3000 C   0  0  0  0  0  0  0  0  0  0  0  0
  -25.3316  -31.7050   15.6788 C   0  0  0  0  0  0  0  0  0  0  0  0
  -27.1604  -26.6210   18.5623 C   0  0  0  0  0  0  0  0  0  0  0  0
  -24.0805   -8.1517   21.8112 C   0  0  0  0  0  0  0  0  0  0  0  0
  -24.6471   -9.0661   23.9745 C   0  0  0  0  0  0  0  0  0  0  0  0
  -28.3800  -25.9460   18.5909 C   0  0  0  0  0  0  0  0  0  0  0  0
  -21.5219   -6.7940   23.5557 C   0  0  0  0  0  0  0  0  0  0  0  0
  -20.3482   -6.1522   23.1608 C   0  0  0  0  0  0  0  0  0  0  0  0
  -29.6948  -19.8303   20.3655 C   0  0  0  0  0  0  0  0  0  0  0  0
  -28.9607  -27.0941   20.6315 C   0  0  0  0  0  0  0  0  0  0  0  0
  -21.6387   -4.2508   22.4150 C   0  0  0  0  0  0  0  0  0  0  0  0
  -28.0717  -21.2196   21.2810 C   0  0  0  0  0  0  0  0  0  0  0  0
  -24.8163  -10.4453   21.9981 C   0  0  0  0  0  0  0  0  0  0  0  0
  -29.2908  -21.1685   20.6415 C   0  0  0  0  0  0  0  0  0  0  0  0
  -24.2493  -12.7864   21.1581 C   0  0  0  0  0  0  0  0  0  0  0  0
  -24.1771  -33.6703   16.5109 C   0  0  0  0  0  0  0  0  0  0  0  0
  -26.8359  -27.5472   19.5639 C   0  0  0  0  0  0  0  0  0  0  0  0
  -25.1265  -32.6480   16.7003 C   0  0  0  0  0  0  0  0  0  0  0  0
  -27.7353  -27.7776   20.6147 C   0  0  0  0  0  0  0  0  0  0  0  0
  -24.2130   -7.9968   23.1911 C   0  0  0  0  0  0  0  0  0  0  0  0
  -29.2816  -26.1846   19.6240 C   0  0  0  0  0  0  0  0  0  0  0  0
  -22.7541   -6.1642   23.3802 C   0  0  0  0  0  0  0  0  0  0  0  0
  -20.4065   -4.8806   22.5905 C   0  0  0  0  0  0  0  0  0  0  0  0
  -22.8125   -4.8926   22.8099 C   0  0  0  0  0  0  0  0  0  0  0  0
  -25.1285  -11.7101   21.3825 C   0  0  0  0  0  0  0  0  0  0  0  0
  -25.0257  -13.7431   20.5512 C   0  0  0  0  0  0  0  0  0  0  0  0
  -28.7691  -18.9094   20.8048 C   0  0  0  0  0  0  0  0  0  0  0  0
  -30.0851  -22.3574   20.2840 C   0  0  0  0  0  0  0  0  0  0  0  0
  -22.8555  -12.9103   21.4704 C   0  0  0  0  0  0  0  0  0  0  0  0
  -26.2162  -30.6644   19.6210 C   0  0  0  0  0  0  0  0  0  0  0  0
  -25.5354  -30.0759   22.7375 C   0  0  0  0  0  0  0  0  0  0  0  0
  -25.9861  -28.0910   25.4768 C   0  0  0  0  0  0  0  0  0  0  0  0
  -29.7470  -16.6720   20.1851 C   0  0  0  0  0  0  0  0  0  0  0  0
  -23.9444  -34.7391   17.5492 C   0  0  0  0  0  0  0  0  0  0  0  0
  -25.5050  -28.2473   19.5331 C   0  0  0  0  0  0  0  0  0  0  0  0
  -27.4260  -28.7471   21.7250 C   0  0  0  0  0  0  0  0  0  0  0  0
  -24.4734  -34.3698   18.9327 C   0  0  0  0  0  0  0  0  0  0  0  0
  -29.7053  -13.4635   18.6421 C   0  0  0  0  0  0  0  0  0  0  0  0
  -32.1129  -23.2379   23.1519 C   0  0  0  0  0  0  0  0  0  0  0  0
  -25.8856  -33.8024   18.8303 C   0  0  0  0  0  0  0  0  0  0  0  0
  -28.4386  -12.8098   19.1990 C   0  0  0  0  0  0  0  0  0  0  0  0
  -32.8845  -23.8702   21.9983 C   0  0  0  0  0  0  0  0  0  0  0  0
  -31.2039  -22.2250   22.4673 C   0  0  0  0  0  0  0  0  0  0  0  0
  -30.4052  -14.3276   19.6896 C   0  0  0  0  0  0  0  0  0  0  0  0
  -28.2847  -14.6783   20.8938 C   0  0  0  0  0  0  0  0  0  0  0  0
  -25.9050  -32.5188   17.9916 C   0  0  1  0  0  0  0  0  0  0  0  0
  -25.4966  -29.5501   20.3268 C   0  0  1  0  0  0  0  0  0  0  0  0
  -27.5099  -13.8498   19.8560 C   0  0  2  0  0  0  0  0  0  0  0  0
  -31.8501  -23.9854   20.8745 C   0  0  2  0  0  0  0  0  0  0  0  0
  -25.3301  -27.8858   27.8903 C   0  0  0  0  0  0  0  0  0  0  0  0
  -27.4893  -32.3067   23.4558 C   0  0  0  0  0  0  0  0  0  0  0  0
  -27.5164  -31.4326   25.8018 C   0  0  0  0  0  0  0  0  0  0  0  0
  -25.3893  -32.2820   24.8136 C   0  0  0  0  0  0  0  0  0  0  0  0
  -24.6783  -25.4759   25.0191 C   0  0  0  0  0  0  0  0  0  0  0  0
  -31.0420  -25.2728   20.9375 C   0  0  0  0  0  0  0  0  0  1  0  0
  -26.3276  -30.0716   24.0226 C   0  0  1  0  0  0  0  0  0  0  0  0
  -24.9971  -27.4912   26.4598 C   0  0  2  0  0  0  0  0  0  0  0  0
  -26.6876  -31.5063   24.5016 C   0  0  0  0  0  0  0  0  0  0  0  0
  -26.3685  -11.9590   20.9530 N   0  0  0  0  0  0  0  0  0  0  0  0
  -26.2740  -13.2027   20.4525 N   0  0  0  0  0  0  0  0  0  0  0  0
  -30.9678  -22.8317   21.1458 N   0  0  0  0  0  0  0  0  0  0  0  0
  -26.1145  -29.4115   21.6471 N   0  0  0  0  0  0  0  0  0  0  0  0
  -29.4652  -15.2919   20.2655 N   0  0  0  0  0  0  0  0  0  0  0  0
  -24.7555  -14.9856   20.0976 N   0  0  0  0  0  0  0  0  0  0  0  0
  -22.2120  -11.8324   22.0937 N   0  0  0  0  0  0  0  0  0  0  0  0
  -28.7656  -17.4941   20.7380 N   0  0  0  0  0  0  0  0  0  0  0  0
  -25.4155  -31.4001   18.7684 N   0  0  0  0  0  0  0  0  0  0  0  0
  -25.5450  -29.3001   24.9820 N   0  0  0  0  0  0  0  0  0  0  0  0
  -29.9025  -22.9330   19.0992 N   0  3  0  0  0  0  0  0  0  0  0  0
  -25.0118  -26.0038   26.3671 N   0  3  0  0  0  0  0  0  0  0  0  0
  -22.1961  -13.9398   21.1897 O   0  0  0  0  0  0  0  0  0  0  0  0
  -27.4093  -30.8443   19.8353 O   0  0  0  0  0  0  0  0  0  0  0  0
  -24.4397  -30.6417   22.7045 O   0  0  0  0  0  0  0  0  0  0  0  0
  -27.0459  -27.5436   25.1805 O   0  0  0  0  0  0  0  0  0  0  0  0
  -30.7697  -17.0949   19.6398 O   0  0  0  0  0  0  0  0  0  0  0  0
  -23.9185   -6.8023   23.7735 O   0  0  0  0  0  0  0  0  0  0  0  0
  -30.4729  -25.5277   19.6539 O   0  0  0  0  0  0  0  0  0  1  0  0
  -19.2791   -4.2638   22.2128 F   0  0  0  0  0  0  0  0  0  0  0  0
  -23.9932   -4.2820   22.6398 F   0  0  0  0  0  0  0  0  0  0  0  0
  -27.4195  -19.6586   21.5462 S   0  0  0  0  0  0  0  0  0  0  0  0
  1  2  1  0  0  0  0
  1  5  2  0  0  0  0
  2  6  2  0  0  0  0
  3  8  2  0  0  0  0
  3 17  1  0  0  0  0
  4  9  1  0  0  0  0
  4 17  2  0  0  0  0
  5 20  1  0  0  0  0
  6 22  1  0  0  0  0
  7 10  2  0  0  0  0
  7 21  1  0  0  0  0
  8 24  1  0  0  0  0
  9 24  2  0  0  0  0
 10 25  1  0  0  0  0
 11 12  2  0  0  0  0
 11 26  1  0  0  0  0
 12 27  1  0  0  0  0
 13 18  1  0  0  0  0
 13 31  2  0  0  0  0
 14 23  1  0  0  0  0
 14 25  2  0  0  0  0
 15 27  2  0  0  0  0
 15 28  1  0  0  0  0
 16 18  2  0  0  0  0
 16 84  1  0  0  0  0
 17 29  1  0  0  0  0
 18 32  1  0  0  0  0
 19 29  1  0  0  0  0
 19 30  2  0  0  0  0
 19 33  1  0  0  0  0
 20 22  2  0  0  0  0
 20 38  1  0  0  0  0
 21 23  2  0  0  0  0
 21 39  1  0  0  0  0
 22 50  1  0  0  0  0
 23 40  1  0  0  0  0
 24 80  1  0  0  0  0
 25 81  1  0  0  0  0
 26 28  2  0  0  0  0
 26 80  1  0  0  0  0
 27 82  1  0  0  0  0
 28 83  1  0  0  0  0
 29 63  2  0  0  0  0
 30 64  1  0  0  0  0
 30 68  1  0  0  0  0
 31 70  1  0  0  0  0
 31 84  1  0  0  0  0
 32 65  1  0  0  0  0
 32 73  2  0  0  0  0
 33 69  1  0  0  0  0
 33 75  2  0  0  0  0
 34 51  1  0  0  0  0
 34 71  1  0  0  0  0
 34 76  2  0  0  0  0
 35 60  1  0  0  0  0
 35 66  1  0  0  0  0
 35 77  2  0  0  0  0
 36 61  1  0  0  0  0
 36 72  1  0  0  0  0
 36 78  2  0  0  0  0
 37 67  1  0  0  0  0
 37 70  1  0  0  0  0
 37 79  2  0  0  0  0
 38 41  1  0  0  0  0
 39 51  1  0  0  0  0
 40 66  1  0  0  0  0
 41 44  1  0  0  0  0
 42 45  1  0  0  0  0
 42 48  1  0  0  0  0
 43 46  1  0  0  0  0
 43 47  1  0  0  0  0
 44 50  1  0  0  0  0
 45 52  1  0  0  0  0
 46 53  1  0  0  0  0
 47 65  1  0  0  0  0
 48 67  1  0  0  0  0
 49 52  1  0  0  0  0
 49 67  1  0  0  0  0
 50 71  1  0  0  0  0
 51 66  1  0  0  0  0
 52 64  1  0  0  0  0
 53 59  1  0  0  0  0
 53 65  1  0  0  0  0
 54 61  1  0  0  0  0
 55 62  1  0  0  0  0
 56 62  1  0  0  0  0
 57 62  1  0  0  0  0
 58 74  1  0  0  0  0
 59 81  1  0  0  0  0
 60 62  1  0  0  0  0
 60 72  1  0  0  0  0
 61 74  1  0  0  0  0
 63 64  1  0  0  0  0
M  CHG  2  73   1  74   1
M  ISO  4  37 100  59 101  70 100  81 101
M  END
> <Batch ID>
0149

> <Smiles>
CNC(C)C(=O)NC(C(=O)N1Cc2cc([101O:1][101CH2:1]C3CCCN3C(=N)c3csc([100NH:0][100C:0](=O)N4CCCC(n5nc(-c6ccc(Oc7ccc(F)cc7F)cc6)c(C(N)=O)c5N)C4)c3)ccc2CC1C(=O)NC1CCCc2ccccc21)C(C)(C)C

> <Shape>
0.306

> <Color>
0.137

> <Negative vol penalty>
0.000

$$$$

  -OEChem-04052303193D

 83 91  0     1  0  0  0  0  0999 V2000
  -30.1564  -23.4024   19.7431 C   0  0  0  0  0  0  0  0  0  0  0  0
  -28.8182  -23.7680   19.8480 C   0  0  0  0  0  0  0  0  0  0  0  0
  -28.2100  -14.8430   21.1328 C   0  0  0  0  0  0  0  0  0  0  0  0
  -26.0403  -15.5485   20.3379 C   0  0  0  0  0  0  0  0  0  0  0  0
  -31.0926  -23.9250   20.6343 C   0  0  0  0  0  0  0  0  0  0  0  0
  -28.4153  -24.6556   20.8451 C   0  0  0  0  0  0  0  0  0  0  0  0
  -25.2488  -28.2101   19.1177 C   0  0  0  0  0  0  0  0  0  0  0  0
  -27.7937  -13.5125   21.0882 C   0  0  0  0  0  0  0  0  0  0  0  0
  -25.6240  -14.2180   20.2933 C   0  0  0  0  0  0  0  0  0  0  0  0
  -23.9195  -27.8379   18.9219 C   0  0  0  0  0  0  0  0  0  0  0  0
  -24.5576  -11.8667   22.4763 C   0  0  0  0  0  0  0  0  0  0  0  0
  -23.2983  -11.5640   22.9941 C   0  0  0  0  0  0  0  0  0  0  0  0
  -23.3297  -28.8600   21.0259 C   0  0  0  0  0  0  0  0  0  0  0  0
  -22.6103  -10.7303   20.8334 C   0  0  0  0  0  0  0  0  0  0  0  0
  -27.3333  -15.8610   20.7577 C   0  0  0  0  0  0  0  0  0  0  0  0
  -28.3787  -17.9691   19.7725 C   0  0  0  0  0  0  0  0  0  0  0  0
  -30.7025  -24.8270   21.6367 C   0  0  0  0  0  0  0  0  0  0  0  0
  -25.6310  -28.9016   20.2762 C   0  0  0  0  0  0  0  0  0  0  0  0
  -29.3469  -25.1898   21.7514 C   0  0  0  0  0  0  0  0  0  0  0  0
  -24.6640  -29.2420   21.2328 C   0  0  0  0  0  0  0  0  0  0  0  0
  -26.5007  -13.1999   20.6685 C   0  0  0  0  0  0  0  0  0  0  0  0
  -22.9603  -28.1603   19.8774 C   0  0  0  0  0  0  0  0  0  0  0  0
  -24.8433  -11.6013   21.1370 C   0  0  0  0  0  0  0  0  0  0  0  0
  -22.3247  -10.9958   22.1727 C   0  0  0  0  0  0  0  0  0  0  0  0
  -23.8696  -11.0331   20.3156 C   0  0  0  0  0  0  0  0  0  0  0  0
  -27.7625  -17.2357   20.8041 C   0  0  0  0  0  0  0  0  0  0  0  0
  -28.5849  -19.2149   20.3128 C   0  0  0  0  0  0  0  0  0  0  0  0
  -23.6933  -23.0103   23.7209 C   0  0  0  0  0  0  0  0  0  0  0  0
  -21.6534  -23.9978   23.0648 C   0  0  0  0  0  0  0  0  0  0  0  0
  -28.7330  -17.5608   18.4445 C   0  0  0  0  0  0  0  0  0  0  0  0
  -27.5923  -28.2990   22.7039 C   0  0  0  0  0  0  0  0  0  0  0  0
  -26.8742  -31.3516   23.5334 C   0  0  0  0  0  0  0  0  0  0  0  0
  -24.6889  -33.9664   23.3488 C   0  0  0  0  0  0  0  0  0  0  0  0
  -25.8937  -22.2614   24.6924 C   0  0  0  0  0  0  0  0  0  0  0  0
  -31.7428  -25.3289   22.6066 C   0  0  0  0  0  0  0  0  0  0  0  0
  -27.0643  -29.3194   20.4598 C   0  0  0  0  0  0  0  0  0  0  0  0
  -25.0193  -30.0013   22.4841 C   0  0  0  0  0  0  0  0  0  0  0  0
  -31.2954  -26.5541   23.3996 C   0  0  0  0  0  0  0  0  0  0  0  0
  -29.3432  -21.3991   24.5066 C   0  0  0  0  0  0  0  0  0  0  0  0
  -29.8847  -26.3521   23.9435 C   0  0  0  0  0  0  0  0  0  0  0  0
  -29.3862  -20.3046   23.4378 C   0  0  0  0  0  0  0  0  0  0  0  0
  -28.0846  -21.3024   25.3671 C   0  0  0  0  0  0  0  0  0  0  0  0
  -26.8649  -20.1719   23.5495 C   0  0  0  0  0  0  0  0  0  0  0  0
  -28.8750  -26.1693   22.8040 C   0  0  1  0  0  0  0  0  0  0  0  0
  -27.4312  -29.5702   21.9192 C   0  0  1  0  0  0  0  0  0  0  0  0
  -28.0828  -20.2678   22.6161 C   0  0  2  0  0  0  0  0  0  0  0  0
  -24.3568  -36.3173   24.1615 C   0  0  0  0  0  0  0  0  0  0  0  0
  -26.0916  -30.2876   26.2839 C   0  0  0  0  0  0  0  0  0  0  0  0
  -24.9045  -32.4512   26.7061 C   0  0  0  0  0  0  0  0  0  0  0  0
  -27.3692  -32.4372   26.3218 C   0  0  0  0  0  0  0  0  0  0  0  0
  -18.0765  -27.2959   22.1854 C   0  0  0  0  0  0  0  0  0  0  0  0
  -17.8664  -25.0526   21.1200 C   0  0  0  0  0  0  0  0  0  0  0  0
  -24.6760  -35.0412   20.5914 C   0  0  0  0  0  0  0  0  0  0  0  0
  -19.8088  -26.5145   20.5043 C   0  0  0  0  0  0  0  0  0  0  0  0
  -19.6519  -25.4739   22.8621 C   0  0  0  0  0  0  0  0  0  0  0  0
  -20.8844  -27.5380   20.8570 C   0  0  0  0  0  0  0  0  0  1  0  0
  -25.8094  -32.0074   24.3790 C   0  0  1  0  0  0  0  0  0  0  0  0
  -24.9029  -35.4386   23.0468 C   0  0  2  0  0  0  0  0  0  0  0  0
  -26.0370  -31.7798   25.9002 C   0  0  0  0  0  0  0  0  0  0  0  0
  -18.8772  -26.0829   21.6690 C   0  0  0  0  0  0  0  0  0  0  0  0
  -27.5888  -17.9555   21.9157 N   0  0  0  0  0  0  0  0  0  0  0  0
  -23.4146  -24.0773   24.4391 N   0  0  0  0  0  0  0  0  0  0  0  0
  -22.2176  -24.6559   24.0549 N   0  0  0  0  0  0  0  0  0  0  0  0
  -28.0990  -19.1542   21.5857 N   0  0  0  0  0  0  0  0  0  0  0  0
  -26.4349  -30.3819   22.6211 N   0  0  0  0  0  0  0  0  0  0  0  0
  -26.8895  -21.2766   24.5210 N   0  0  0  0  0  0  0  0  0  0  0  0
  -29.1328  -20.3454   19.8185 N   0  0  0  0  0  0  0  0  0  0  0  0
  -28.4499  -16.2454   18.0520 N   0  0  0  0  0  0  0  0  0  0  0  0
  -24.8195  -22.1549   23.8096 N   0  0  0  0  0  0  0  0  0  0  0  0
  -20.4508  -24.3365   22.4669 N   0  0  0  0  0  0  0  0  0  0  0  0
  -28.5563  -27.4460   22.2015 N   0  0  0  0  0  0  0  0  0  0  0  0
  -25.7803  -33.4111   23.9826 N   0  0  0  0  0  0  0  0  0  0  0  0
  -24.2188  -35.8116   21.7765 N   0  3  0  0  0  0  0  0  0  0  0  0
  -29.2991  -18.3345   17.6355 O   0  0  0  0  0  0  0  0  0  0  0  0
  -26.8947  -28.1070   23.6929 O   0  0  0  0  0  0  0  0  0  0  0  0
  -28.0516  -31.6925   23.6721 O   0  0  0  0  0  0  0  0  0  0  0  0
  -23.6553  -33.3696   23.0554 O   0  0  0  0  0  0  0  0  0  0  0  0
  -26.0000  -23.1510   25.5405 O   0  0  0  0  0  0  0  0  0  0  0  0
  -26.0942  -11.9017   20.6246 O   0  0  0  0  0  0  0  0  0  0  0  0
  -21.6622  -27.7977   19.6891 O   0  0  0  0  0  0  0  0  0  1  0  0
  -21.1159  -10.7037   22.6704 F   0  0  0  0  0  0  0  0  0  0  0  0
  -24.1386  -10.7747   19.0284 F   0  0  0  0  0  0  0  0  0  0  0  0
  -22.5282  -22.6260   22.5223 S   0  0  0  0  0  0  0  0  0  0  0  0
  1  2  1  0  0  0  0
  1  5  2  0  0  0  0
  2  6  2  0  0  0  0
  3  8  2  0  0  0  0
  3 15  1  0  0  0  0
  4  9  1  0  0  0  0
  4 15  2  0  0  0  0
  5 17  1  0  0  0  0
  6 19  1  0  0  0  0
  7 10  2  0  0  0  0
  7 18  1  0  0  0  0
  8 21  1  0  0  0  0
  9 21  2  0  0  0  0
 10 22  1  0  0  0  0
 11 12  2  0  0  0  0
 11 23  1  0  0  0  0
 12 24  1  0  0  0  0
 13 20  1  0  0  0  0
 13 22  2  0  0  0  0
 14 24  2  0  0  0  0
 14 25  1  0  0  0  0
 15 26  1  0  0  0  0
 16 26  1  0  0  0  0
 16 27  2  0  0  0  0
 16 30  1  0  0  0  0
 17 19  2  0  0  0  0
 17 35  1  0  0  0  0
 18 20  2  0  0  0  0
 18 36  1  0  0  0  0
 19 44  1  0  0  0  0
 20 37  1  0  0  0  0
 21 79  1  0  0  0  0
 22 80  1  0  0  0  0
 23 25  2  0  0  0  0
 23 79  1  0  0  0  0
 24 81  1  0  0  0  0
 25 82  1  0  0  0  0
 26 61  2  0  0  0  0
 27 64  1  0  0  0  0
 27 67  1  0  0  0  0
 28 62  2  0  0  0  0
 28 69  1  0  0  0  0
 28 83  1  0  0  0  0
 29 63  2  0  0  0  0
 29 70  1  0  0  0  0
 29 83  1  0  0  0  0
 30 68  1  0  0  0  0
 30 74  2  0  0  0  0
 31 45  1  0  0  0  0
 31 71  1  0  0  0  0
 31 75  2  0  0  0  0
 32 57  1  0  0  0  0
 32 65  1  0  0  0  0
 32 76  2  0  0  0  0
 33 58  1  0  0  0  0
 33 72  1  0  0  0  0
 33 77  2  0  0  0  0
 34 66  1  0  0  0  0
 34 69  1  0  0  0  0
 34 78  2  0  0  0  0
 35 38  1  0  0  0  0
 36 45  1  0  0  0  0
 37 65  1  0  0  0  0
 38 40  1  0  0  0  0
 39 41  1  0  0  0  0
 39 42  1  0  0  0  0
 40 44  1  0  0  0  0
 41 46  1  0  0  0  0
 42 66  1  0  0  0  0
 43 46  1  0  0  0  0
 43 66  1  0  0  0  0
 44 71  1  0  0  0  0
 45 65  1  0  0  0  0
 46 64  1  0  0  0  0
 47 58  1  0  0  0  0
 48 59  1  0  0  0  0
 49 59  1  0  0  0  0
 50 59  1  0  0  0  0
 51 60  1  0  0  0  0
 52 60  1  0  0  0  0
 53 73  1  0  0  0  0
 54 56  1  0  0  0  0
 54 60  1  0  0  0  0
 55 60  1  0  0  0  0
 55 70  1  0  0  0  0
 56 80  1  0  0  0  0
 57 59  1  0  0  0  0
 57 72  1  0  0  0  0
 58 73  1  0  0  0  0
 61 64  1  0  0  0  0
 62 63  1  0  0  0  0
M  CHG  1  73   1
M  ISO  4  34 100  56 101  69 100  80 101
M  END
> <Batch ID>
0149

> <Smiles>
CNC(C)C(=O)NC(C(=O)N1Cc2cc([101O:1][101CH2:1]CC(C)(C)CNc3nnc([100NH:0][100C:0](=O)N4CCCC(n5nc(-c6ccc(Oc7ccc(F)cc7F)cc6)c(C(N)=O)c5N)C4)s3)ccc2CC1C(=O)NC1CCCc2ccccc21)C(C)(C)C

> <Shape>
0.279

> <Color>
0.058

> <Negative vol penalty>
0.000

$$$$

  -OEChem-04052303193D

 86 95  0     1  0  0  0  0  0999 V2000
  -25.0798  -19.9537   25.8415 C   0  0  0  0  0  0  0  0  0  0  0  0
  -25.2852  -20.7673   24.7319 C   0  0  0  0  0  0  0  0  0  0  0  0
  -26.5216  -12.6656   21.7530 C   0  0  0  0  0  0  0  0  0  0  0  0
  -26.0212  -13.8305   19.6964 C   0  0  0  0  0  0  0  0  0  0  0  0
  -24.0769  -20.2668   26.7580 C   0  0  0  0  0  0  0  0  0  0  0  0
  -24.4870  -21.8940   24.5375 C   0  0  0  0  0  0  0  0  0  0  0  0
  -27.1748  -25.9717   23.1985 C   0  0  0  0  0  0  0  0  0  0  0  0
  -25.2669  -12.0576   21.7139 C   0  0  0  0  0  0  0  0  0  0  0  0
  -24.7665  -13.2224   19.6572 C   0  0  0  0  0  0  0  0  0  0  0  0
  -27.5953  -26.0495   21.8715 C   0  0  0  0  0  0  0  0  0  0  0  0
  -23.7957   -9.4839   20.0877 C   0  0  0  0  0  0  0  0  0  0  0  0
  -23.7296   -8.1161   20.3532 C   0  0  0  0  0  0  0  0  0  0  0  0
  -25.7703  -27.5512   21.3878 C   0  0  0  0  0  0  0  0  0  0  0  0
  -22.2700   -8.5507   22.2288 C   0  0  0  0  0  0  0  0  0  0  0  0
  -29.9211  -22.9033   19.6605 C   0  0  0  0  0  0  0  0  0  0  0  0
  -26.8988  -13.5522   20.7442 C   0  0  0  0  0  0  0  0  0  0  0  0
  -29.3910  -13.6994   20.2202 C   0  0  0  0  0  0  0  0  0  0  0  0
  -23.2723  -21.4033   26.5799 C   0  0  0  0  0  0  0  0  0  0  0  0
  -26.0407  -26.6756   23.6283 C   0  0  0  0  0  0  0  0  0  0  0  0
  -23.4714  -22.2219   25.4518 C   0  0  0  0  0  0  0  0  0  0  0  0
  -25.3391  -27.4826   22.7213 C   0  0  0  0  0  0  0  0  0  0  0  0
  -24.3893  -12.3359   20.6660 C   0  0  0  0  0  0  0  0  0  0  0  0
  -26.8913  -26.8370   20.9652 C   0  0  0  0  0  0  0  0  0  0  0  0
  -23.0990  -10.3851   20.8928 C   0  0  0  0  0  0  0  0  0  0  0  0
  -22.9668   -7.6495   21.4237 C   0  0  0  0  0  0  0  0  0  0  0  0
  -22.3361   -9.9185   21.9633 C   0  0  0  0  0  0  0  0  0  0  0  0
  -28.1945  -14.1810   20.7844 C   0  0  0  0  0  0  0  0  0  0  0  0
  -29.6414  -23.4777   18.4085 C   0  0  0  0  0  0  0  0  0  0  0  0
  -30.3269  -14.6549   20.5327 C   0  0  0  0  0  0  0  0  0  0  0  0
  -29.4873  -21.6106   19.5299 C   0  0  0  0  0  0  0  0  0  0  0  0
  -29.6347  -12.4960   19.4798 C   0  0  0  0  0  0  0  0  0  0  0  0
  -29.9126  -24.8690   18.0047 C   0  0  0  0  0  0  0  0  0  0  0  0
  -23.2183  -25.8570   24.8399 C   0  0  0  0  0  0  0  0  0  0  0  0
  -22.8701  -29.0644   25.1770 C   0  0  0  0  0  0  0  0  0  0  0  0
  -23.7605  -32.1981   24.1600 C   0  0  0  0  0  0  0  0  0  0  0  0
  -29.9523  -20.4950   21.7403 C   0  0  0  0  0  0  0  0  0  0  0  0
  -22.1695  -21.6748   27.5723 C   0  0  0  0  0  0  0  0  0  0  0  0
  -25.6158  -26.6022   25.0693 C   0  0  0  0  0  0  0  0  0  0  0  0
  -24.1270  -28.2740   23.1372 C   0  0  0  0  0  0  0  0  0  0  0  0
  -21.6138  -23.0943   27.4921 C   0  0  0  0  0  0  0  0  0  0  0  0
  -31.3335  -17.9711   23.8378 C   0  0  0  0  0  0  0  0  0  0  0  0
  -21.3477  -23.4822   26.0411 C   0  0  0  0  0  0  0  0  0  0  0  0
  -30.7991  -16.6686   23.2378 C   0  0  0  0  0  0  0  0  0  0  0  0
  -27.7267  -27.3672   16.5937 C   0  0  0  0  0  0  0  0  0  0  0  0
  -30.3016  -19.0951   23.7635 C   0  0  0  0  0  0  0  0  0  0  0  0
  -29.0794  -27.0429   17.2130 C   0  0  0  0  0  0  0  0  0  0  0  0
  -29.2079  -18.0346   21.8274 C   0  0  0  0  0  0  0  0  0  0  0  0
  -27.5075  -25.1939   17.5970 C   0  0  0  0  0  0  0  0  0  0  0  0
  -22.6424  -23.4664   25.2195 C   0  0  1  0  0  0  0  0  0  0  0  0
  -24.1463  -26.9547   25.2777 C   0  0  1  0  0  0  0  0  0  0  0  0
  -30.2350  -16.8906   21.8207 C   0  0  2  0  0  0  0  0  0  0  0  0
  -26.7308  -26.4955   17.3690 C   0  0  1  0  0  0  0  0  0  0  0  0
  -23.2785  -34.6219   24.5961 C   0  0  0  0  0  0  0  0  0  0  0  0
  -20.2392  -28.8131   23.6522 C   0  0  0  0  0  0  0  0  0  0  0  0
  -20.2907  -31.2904   23.2938 C   0  0  0  0  0  0  0  0  0  0  0  0
  -20.1665  -30.3691   25.6087 C   0  0  0  0  0  0  0  0  0  0  0  0
  -26.5598  -32.7306   24.9598 C   0  0  0  0  0  0  0  0  0  0  0  0
  -24.9287  -27.4430   16.2066 C   0  0  0  0  0  0  0  0  0  0  0  0
  -26.2917  -27.1376   18.6835 C   0  0  0  0  0  0  0  0  0  1  0  0
  -22.3290  -30.1777   24.3129 C   0  0  1  0  0  0  0  0  0  0  0  0
  -24.1634  -33.4347   24.9429 C   0  0  2  0  0  0  0  0  0  0  0  0
  -20.7780  -30.1463   24.2083 C   0  0  0  0  0  0  0  0  0  0  0  0
  -28.3531  -15.3514   21.4082 N   0  0  0  0  0  0  0  0  0  0  0  0
  -29.0772  -22.6079   17.5659 N   0  0  0  0  0  0  0  0  0  0  0  0
  -29.6602  -15.6132   21.2379 N   0  0  0  0  0  0  0  0  0  0  0  0
  -28.9099  -25.6437   17.6323 N   0  0  0  0  0  0  0  0  0  0  0  0
  -23.7474  -28.1645   24.5554 N   0  0  0  0  0  0  0  0  0  0  0  0
  -29.8151  -19.2505   22.3908 N   0  0  0  0  0  0  0  0  0  0  0  0
  -31.6470  -14.7603   20.2704 N   0  0  0  0  0  0  0  0  0  0  0  0
  -28.5613  -11.6250   19.2485 N   0  0  0  0  0  0  0  0  0  0  0  0
  -29.4834  -20.5139   20.4271 N   0  0  0  0  0  0  0  0  0  0  0  0
  -23.4253  -24.6538   25.4871 N   0  0  0  0  0  0  0  0  0  0  0  0
  -22.8658  -31.4183   24.8619 N   0  0  0  0  0  0  0  0  0  0  0  0
  -31.1624  -25.3229   18.0235 N   0  3  0  0  0  0  0  0  0  0  0  0
  -25.5772  -33.7992   24.6441 N   0  3  0  0  0  0  0  0  0  0  0  0
  -30.7740  -12.1939   19.0507 O   0  0  0  0  0  0  0  0  0  0  0  0
  -22.3759  -26.0852   23.9796 O   0  0  0  0  0  0  0  0  0  0  0  0
  -22.5327  -29.0000   26.3618 O   0  0  0  0  0  0  0  0  0  0  0  0
  -24.1932  -31.9507   23.0366 O   0  0  0  0  0  0  0  0  0  0  0  0
  -30.4739  -21.4644   22.2972 O   0  0  0  0  0  0  0  0  0  0  0  0
  -28.9816  -21.4221   18.2843 O   0  0  0  0  0  0  0  0  0  0  0  0
  -23.1650  -11.7426   20.6274 O   0  0  0  0  0  0  0  0  0  0  0  0
  -27.2991  -26.9143   19.6692 O   0  0  0  0  0  0  0  0  0  1  0  0
  -25.5838  -26.2383   16.5714 O   0  0  0  0  0  0  0  0  0  0  0  0
  -22.9021   -6.3360   21.6776 F   0  0  0  0  0  0  0  0  0  0  0  0
  -21.6637  -10.7794   22.7395 F   0  0  0  0  0  0  0  0  0  0  0  0
  1  2  1  0  0  0  0
  1  5  2  0  0  0  0
  2  6  2  0  0  0  0
  3  8  2  0  0  0  0
  3 16  1  0  0  0  0
  4  9  1  0  0  0  0
  4 16  2  0  0  0  0
  5 18  1  0  0  0  0
  6 20  1  0  0  0  0
  7 10  2  0  0  0  0
  7 19  1  0  0  0  0
  8 22  1  0  0  0  0
  9 22  2  0  0  0  0
 10 23  1  0  0  0  0
 11 12  2  0  0  0  0
 11 24  1  0  0  0  0
 12 25  1  0  0  0  0
 13 21  1  0  0  0  0
 13 23  2  0  0  0  0
 14 25  2  0  0  0  0
 14 26  1  0  0  0  0
 15 28  1  0  0  0  0
 15 30  2  0  0  0  0
 16 27  1  0  0  0  0
 17 27  1  0  0  0  0
 17 29  2  0  0  0  0
 17 31  1  0  0  0  0
 18 20  2  0  0  0  0
 18 37  1  0  0  0  0
 19 21  2  0  0  0  0
 19 38  1  0  0  0  0
 20 49  1  0  0  0  0
 21 39  1  0  0  0  0
 22 82  1  0  0  0  0
 23 83  1  0  0  0  0
 24 26  2  0  0  0  0
 24 82  1  0  0  0  0
 25 85  1  0  0  0  0
 26 86  1  0  0  0  0
 27 63  2  0  0  0  0
 28 32  1  0  0  0  0
 28 64  2  0  0  0  0
 29 65  1  0  0  0  0
 29 69  1  0  0  0  0
 30 71  1  0  0  0  0
 30 81  1  0  0  0  0
 31 70  1  0  0  0  0
 31 76  2  0  0  0  0
 32 66  1  0  0  0  0
 32 74  2  0  0  0  0
 33 50  1  0  0  0  0
 33 72  1  0  0  0  0
 33 77  2  0  0  0  0
 34 60  1  0  0  0  0
 34 67  1  0  0  0  0
 34 78  2  0  0  0  0
 35 61  1  0  0  0  0
 35 73  1  0  0  0  0
 35 79  2  0  0  0  0
 36 68  1  0  0  0  0
 36 71  1  0  0  0  0
 36 80  2  0  0  0  0
 37 40  1  0  0  0  0
 38 50  1  0  0  0  0
 39 67  1  0  0  0  0
 40 42  1  0  0  0  0
 41 43  1  0  0  0  0
 41 45  1  0  0  0  0
 42 49  1  0  0  0  0
 43 51  1  0  0  0  0
 44 46  1  0  0  0  0
 44 52  1  0  0  0  0
 45 68  1  0  0  0  0
 46 66  1  0  0  0  0
 47 51  1  0  0  0  0
 47 68  1  0  0  0  0
 48 52  1  0  0  0  0
 48 66  1  0  0  0  0
 49 72  1  0  0  0  0
 50 67  1  0  0  0  0
 51 65  1  0  0  0  0
 52 59  1  0  0  0  0
 52 84  1  0  0  0  0
 53 61  1  0  0  0  0
 54 62  1  0  0  0  0
 55 62  1  0  0  0  0
 56 62  1  0  0  0  0
 57 75  1  0  0  0  0
 58 84  1  0  0  0  0
 59 83  1  0  0  0  0
 60 62  1  0  0  0  0
 60 73  1  0  0  0  0
 61 75  1  0  0  0  0
 63 65  1  0  0  0  0
 64 81  1  0  0  0  0
M  CHG  2  74   1  75   1
M  ISO  4  36 100  59 101  71 100  83 101
M  END
> <Batch ID>
0149

> <Smiles>
CNC(C)C(=O)NC(C(=O)N1Cc2cc([101O:1][101CH2:1]C3(OC)CCN(C(=N)c4cc([100NH:0][100C:0](=O)N5CCCC(n6nc(-c7ccc(Oc8ccc(F)cc8F)cc7)c(C(N)=O)c6N)C5)on4)C3)ccc2CC1C(=O)NC1CCCc2ccccc21)C(C)(C)C

> <Shape>
0.250

> <Color>
0.078

> <Negative vol penalty>
0.000

$$$$

  -OEChem-04052303193D

 85 93  0     1  0  0  0  0  0999 V2000
  -24.8934  -19.4705   18.0595 C   0  0  0  0  0  0  0  0  0  0  0  0
  -26.0627  -18.8279   18.4536 C   0  0  0  0  0  0  0  0  0  0  0  0
  -25.8033  -30.9261   22.1619 C   0  0  0  0  0  0  0  0  0  0  0  0
  -26.8462  -31.8099   20.1699 C   0  0  0  0  0  0  0  0  0  0  0  0
  -23.6873  -19.1699   18.6911 C   0  0  0  0  0  0  0  0  0  0  0  0
  -26.0268  -17.8851   19.4803 C   0  0  0  0  0  0  0  0  0  0  0  0
  -28.6858  -13.7170   18.3843 C   0  0  0  0  0  0  0  0  0  0  0  0
  -25.8871  -32.1819   22.7630 C   0  0  0  0  0  0  0  0  0  0  0  0
  -26.9299  -33.0658   20.7709 C   0  0  0  0  0  0  0  0  0  0  0  0
  -30.0719  -13.7938   18.5132 C   0  0  0  0  0  0  0  0  0  0  0  0
  -24.2120  -35.1168   22.6449 C   0  0  0  0  0  0  0  0  0  0  0  0
  -23.0872  -35.5875   23.3223 C   0  0  0  0  0  0  0  0  0  0  0  0
  -30.4592  -17.7244   22.5051 C   0  0  0  0  0  0  0  0  0  0  0  0
  -29.9279  -12.6914   20.6540 C   0  0  0  0  0  0  0  0  0  0  0  0
  -24.3705  -35.7134   25.3655 C   0  0  0  0  0  0  0  0  0  0  0  0
  -26.2829  -30.7400   20.8653 C   0  0  0  0  0  0  0  0  0  0  0  0
  -29.6728  -18.8698   22.8211 C   0  0  0  0  0  0  0  0  0  0  0  0
  -25.1365  -28.9413   19.4661 C   0  0  0  0  0  0  0  0  0  0  0  0
  -23.6349  -18.2158   19.7195 C   0  0  0  0  0  0  0  0  0  0  0  0
  -27.9081  -13.1356   19.3960 C   0  0  0  0  0  0  0  0  0  0  0  0
  -24.8191  -17.5724   20.1271 C   0  0  0  0  0  0  0  0  0  0  0  0
  -28.5324  -12.6061   20.5344 C   0  0  0  0  0  0  0  0  0  0  0  0
  -26.4503  -33.2518   22.0675 C   0  0  0  0  0  0  0  0  0  0  0  0
  -30.6929  -13.2835   19.6494 C   0  0  0  0  0  0  0  0  0  0  0  0
  -25.4160  -34.9442   23.3278 C   0  0  0  0  0  0  0  0  0  0  0  0
  -23.1665  -35.8859   24.6825 C   0  0  0  0  0  0  0  0  0  0  0  0
  -25.4952  -35.2426   24.6881 C   0  0  0  0  0  0  0  0  0  0  0  0
  -26.1972  -29.4428   20.2441 C   0  0  0  0  0  0  0  0  0  0  0  0
  -29.2600  -19.5417   21.6917 C   0  0  0  0  0  0  0  0  0  0  0  0
  -25.5377  -27.6758   19.1136 C   0  0  0  0  0  0  0  0  0  0  0  0
  -30.6173  -17.5644   21.1460 C   0  0  0  0  0  0  0  0  0  0  0  0
  -28.4727  -20.7104   21.5819 C   0  0  0  0  0  0  0  0  0  0  0  0
  -28.5197  -21.6444   20.5749 C   0  0  0  0  0  0  0  0  0  0  0  0
  -29.3404  -19.2886   24.1598 C   0  0  0  0  0  0  0  0  0  0  0  0
  -23.8993  -29.5636   19.0951 C   0  0  0  0  0  0  0  0  0  0  0  0
  -27.6192  -22.8146   20.5974 C   0  0  0  0  0  0  0  0  0  0  0  0
  -25.6089  -14.1698   21.3319 C   0  0  0  0  0  0  0  0  0  0  0  0
  -25.4548  -11.0431   22.1818 C   0  0  0  0  0  0  0  0  0  0  0  0
  -27.0219   -8.0192   22.3989 C   0  0  0  0  0  0  0  0  0  0  0  0
  -32.0218  -15.4896   20.8982 C   0  0  0  0  0  0  0  0  0  0  0  0
  -22.3161  -17.9586   20.4046 C   0  0  0  0  0  0  0  0  0  0  0  0
  -26.4165  -13.0364   19.2297 C   0  0  0  0  0  0  0  0  0  0  0  0
  -27.7445  -11.9538   21.6399 C   0  0  0  0  0  0  0  0  0  0  0  0
  -22.2985  -16.6744   21.2296 C   0  0  0  0  0  0  0  0  0  0  0  0
  -30.0097  -25.3855   19.5449 C   0  0  0  0  0  0  0  0  0  0  0  0
  -23.5543  -16.5753   22.0898 C   0  0  0  0  0  0  0  0  0  0  0  0
  -29.1432  -26.6399   19.6182 C   0  0  0  0  0  0  0  0  0  0  0  0
  -29.6415  -24.3721   20.6274 C   0  0  0  0  0  0  0  0  0  0  0  0
  -27.3291  -25.2594   20.7061 C   0  0  0  0  0  0  0  0  0  0  0  0
  -24.8163  -16.5257   21.2201 C   0  0  1  0  0  0  0  0  0  0  0  0
  -25.6762  -12.8854   20.5551 C   0  0  1  0  0  0  0  0  0  0  0  0
  -27.6510  -26.2726   19.5966 C   0  0  1  0  0  0  0  0  0  0  0  0
  -29.2159  -18.2264   25.2217 C   0  0  0  0  0  0  0  0  0  0  0  0
  -26.6532   -5.6604   23.1719 C   0  0  0  0  0  0  0  0  0  0  0  0
  -34.1382  -14.5370   19.9117 C   0  0  0  0  0  0  0  0  0  0  0  0
  -25.7834  -11.9436   25.0786 C   0  0  0  0  0  0  0  0  0  0  0  0
  -26.3567   -9.5806   25.6750 C   0  0  0  0  0  0  0  0  0  0  0  0
  -24.1085  -10.1180   24.7372 C   0  0  0  0  0  0  0  0  0  0  0  0
  -27.4482   -6.9376   19.6772 C   0  0  0  0  0  0  0  0  0  0  0  0
  -26.1314  -10.1834   23.2221 C   0  0  1  0  0  0  0  0  0  0  0  0
  -26.5787   -6.6238   21.9976 C   0  0  2  0  0  0  0  0  0  0  0  0
  -32.6284  -14.6604   19.7692 C   0  0  1  0  0  0  0  0  0  1  0  0
  -25.6100  -10.4704   24.6584 C   0  0  0  0  0  0  0  0  0  0  0  0
  -27.1969  -28.5674   20.3785 N   0  0  0  0  0  0  0  0  0  0  0  0
  -26.7662  -27.5029   19.6802 N   0  0  0  0  0  0  0  0  0  0  0  0
  -28.1999  -24.0813   20.6246 N   0  0  0  0  0  0  0  0  0  0  0  0
  -26.2883  -11.8866   21.4337 N   0  0  0  0  0  0  0  0  0  0  0  0
  -24.9559  -26.7052   18.3775 N   0  0  0  0  0  0  0  0  0  0  0  0
  -23.6469  -30.8677   19.5424 N   0  0  0  0  0  0  0  0  0  0  0  0
  -31.3117  -16.5791   20.4045 N   0  0  0  0  0  0  0  0  0  0  0  0
  -24.9899  -15.2041   20.6563 N   0  0  0  0  0  0  0  0  0  0  0  0
  -25.9553   -8.8019   22.7874 N   0  0  0  0  0  0  0  0  0  0  0  0
  -27.4447   -6.0997   20.9040 N   0  3  0  0  0  0  0  0  0  0  0  0
  -29.1407  -20.4588   24.5187 O   0  0  0  0  0  0  0  0  0  0  0  0
  -23.0359  -28.9746   18.4015 O   0  0  0  0  0  0  0  0  0  0  0  0
  -26.4059  -22.5986   20.5956 O   0  0  0  0  0  0  0  0  0  0  0  0
  -26.0820  -14.2183   22.4613 O   0  0  0  0  0  0  0  0  0  0  0  0
  -24.2328  -10.9637   22.0335 O   0  0  0  0  0  0  0  0  0  0  0  0
  -28.1973   -8.3776   22.3740 O   0  0  0  0  0  0  0  0  0  0  0  0
  -32.1681  -15.1675   22.0738 O   0  0  0  0  0  0  0  0  0  0  0  0
  -26.5320  -34.4775   22.6537 O   0  0  0  0  0  0  0  0  0  0  0  0
  -32.0456  -13.3578   19.7780 O   0  0  0  0  0  0  0  0  0  1  0  0
  -22.0867  -36.3394   25.3326 F   0  0  0  0  0  0  0  0  0  0  0  0
  -26.6495  -35.0801   25.3492 F   0  0  0  0  0  0  0  0  0  0  0  0
  -29.8199  -18.7920   20.2575 S   0  0  0  0  0  0  0  0  0  0  0  0
  1  2  1  0  0  0  0
  1  5  2  0  0  0  0
  2  6  2  0  0  0  0
  3  8  2  0  0  0  0
  3 16  1  0  0  0  0
  4  9  1  0  0  0  0
  4 16  2  0  0  0  0
  5 19  1  0  0  0  0
  6 21  1  0  0  0  0
  7 10  2  0  0  0  0
  7 20  1  0  0  0  0
  8 23  1  0  0  0  0
  9 23  2  0  0  0  0
 10 24  1  0  0  0  0
 11 12  2  0  0  0  0
 11 25  1  0  0  0  0
 12 26  1  0  0  0  0
 13 17  1  0  0  0  0
 13 31  2  0  0  0  0
 14 22  1  0  0  0  0
 14 24  2  0  0  0  0
 15 26  2  0  0  0  0
 15 27  1  0  0  0  0
 16 28  1  0  0  0  0
 17 29  2  0  0  0  0
 17 34  1  0  0  0  0
 18 28  1  0  0  0  0
 18 30  2  0  0  0  0
 18 35  1  0  0  0  0
 19 21  2  0  0  0  0
 19 41  1  0  0  0  0
 20 22  2  0  0  0  0
 20 42  1  0  0  0  0
 21 50  1  0  0  0  0
 22 43  1  0  0  0  0
 23 81  1  0  0  0  0
 24 82  1  0  0  0  0
 25 27  2  0  0  0  0
 25 81  1  0  0  0  0
 26 83  1  0  0  0  0
 27 84  1  0  0  0  0
 28 64  2  0  0  0  0
 29 32  1  0  0  0  0
 29 85  1  0  0  0  0
 30 65  1  0  0  0  0
 30 68  1  0  0  0  0
 31 70  1  0  0  0  0
 31 85  1  0  0  0  0
 32 33  2  0  0  0  0
 33 36  1  0  0  0  0
 34 53  1  0  0  0  0
 34 74  2  0  0  0  0
 35 69  1  0  0  0  0
 35 75  2  0  0  0  0
 36 66  1  0  0  0  0
 36 76  2  0  0  0  0
 37 51  1  0  0  0  0
 37 71  1  0  0  0  0
 37 77  2  0  0  0  0
 38 60  1  0  0  0  0
 38 67  1  0  0  0  0
 38 78  2  0  0  0  0
 39 61  1  0  0  0  0
 39 72  1  0  0  0  0
 39 79  2  0  0  0  0
 40 62  1  0  0  0  0
 40 70  1  0  0  0  0
 40 80  2  0  0  0  0
 41 44  1  0  0  0  0
 42 51  1  0  0  0  0
 43 67  1  0  0  0  0
 44 46  1  0  0  0  0
 45 47  1  0  0  0  0
 45 48  1  0  0  0  0
 46 50  1  0  0  0  0
 47 52  1  0  0  0  0
 48 66  1  0  0  0  0
 49 52  1  0  0  0  0
 49 66  1  0  0  0  0
 50 71  1  0  0  0  0
 51 67  1  0  0  0  0
 52 65  1  0  0  0  0
 54 61  1  0  0  0  0
 55 62  1  0  0  0  0
 56 63  1  0  0  0  0
 57 63  1  0  0  0  0
 58 63  1  0  0  0  0
 59 73  1  0  0  0  0
 60 63  1  0  0  0  0
 60 72  1  0  0  0  0
 61 73  1  0  0  0  0
 62 82  1  0  0  0  0
 64 65  1  0  0  0  0
M  CHG  1  73   1
M  ISO  4  33 100  36 100  62 101  82 101
M  END
> <Batch ID>
0149

> <Smiles>
CNC(C)C(=O)NC(C(=O)N1Cc2cc([101O:1][101CH:1](C)C(=O)Nc3cc(C(C)=O)c(C=[100CH:0][100C:0](=O)N4CCCC(n5nc(-c6ccc(Oc7ccc(F)cc7F)cc6)c(C(N)=O)c5N)C4)s3)ccc2CC1C(=O)NC1CCCc2ccccc21)C(C)(C)C

> <Shape>
0.262

> <Color>
0.065

> <Negative vol penalty>
0.000

$$$$

  -OEChem-04052303193D

 82 90  0     1  0  0  0  0  0999 V2000
  -36.9954  -34.3832   21.3860 C   0  0  0  0  0  0  0  0  0  0  0  0
  -36.7125  -33.0487   21.6588 C   0  0  0  0  0  0  0  0  0  0  0  0
  -23.0923   -9.8356   19.9366 C   0  0  0  0  0  0  0  0  0  0  0  0
  -23.8360   -9.8657   22.2351 C   0  0  0  0  0  0  0  0  0  0  0  0
  -36.1948  -35.3888   21.9261 C   0  0  0  0  0  0  0  0  0  0  0  0
  -35.6294  -32.7190   22.4728 C   0  0  0  0  0  0  0  0  0  0  0  0
  -31.9849  -27.8254   21.9481 C   0  0  0  0  0  0  0  0  0  0  0  0
  -22.3552   -8.6789   20.1903 C   0  0  0  0  0  0  0  0  0  0  0  0
  -23.0989   -8.7090   22.4888 C   0  0  0  0  0  0  0  0  0  0  0  0
  -31.9671  -26.5946   22.6028 C   0  0  0  0  0  0  0  0  0  0  0  0
  -19.8726   -7.8919   23.0751 C   0  0  0  0  0  0  0  0  0  0  0  0
  -19.1078   -7.8553   24.2409 C   0  0  0  0  0  0  0  0  0  0  0  0
  -30.3065  -27.4404   24.1347 C   0  0  0  0  0  0  0  0  0  0  0  0
  -20.3582   -5.9329   25.0009 C   0  0  0  0  0  0  0  0  0  0  0  0
  -31.7451  -18.7764   22.2391 C   0  0  0  0  0  0  0  0  0  0  0  0
  -23.8327  -10.4290   20.9590 C   0  0  0  0  0  0  0  0  0  0  0  0
  -24.1568  -12.9556   20.8219 C   0  0  0  0  0  0  0  0  0  0  0  0
  -35.0955  -35.0710   22.7392 C   0  0  0  0  0  0  0  0  0  0  0  0
  -31.1703  -28.8781   22.3892 C   0  0  0  0  0  0  0  0  0  0  0  0
  -34.8141  -33.7214   23.0254 C   0  0  0  0  0  0  0  0  0  0  0  0
  -30.3140  -28.6827   23.4823 C   0  0  0  0  0  0  0  0  0  0  0  0
  -22.3585   -8.1156   21.4664 C   0  0  0  0  0  0  0  0  0  0  0  0
  -31.1299  -26.4028   23.6981 C   0  0  0  0  0  0  0  0  0  0  0  0
  -20.8802   -6.9489   22.8720 C   0  0  0  0  0  0  0  0  0  0  0  0
  -19.3506   -6.8758   25.2039 C   0  0  0  0  0  0  0  0  0  0  0  0
  -21.1230   -5.9694   23.8350 C   0  0  0  0  0  0  0  0  0  0  0  0
  -24.5948  -11.6235   20.6975 C   0  0  0  0  0  0  0  0  0  0  0  0
  -30.6350  -19.1404   22.9723 C   0  0  0  0  0  0  0  0  0  0  0  0
  -25.2459  -13.7104   20.4605 C   0  0  0  0  0  0  0  0  0  0  0  0
  -30.5236  -16.9871   21.8984 C   0  0  0  0  0  0  0  0  0  0  0  0
  -30.9147  -21.5506   23.3943 C   0  0  0  0  0  0  0  0  0  0  0  0
  -22.8796  -13.4652   21.2280 C   0  0  0  0  0  0  0  0  0  0  0  0
  -30.3730  -20.3705   23.7454 C   0  0  0  0  0  0  0  0  0  0  0  0
  -30.6867  -22.8329   24.1269 C   0  0  0  0  0  0  0  0  0  0  0  0
  -31.6993  -31.7983   23.5278 C   0  0  0  0  0  0  0  0  0  0  0  0
  -28.4687  -32.0302   23.3502 C   0  0  0  0  0  0  0  0  0  0  0  0
  -25.4491  -30.4412   23.2866 C   0  0  0  0  0  0  0  0  0  0  0  0
  -30.7029  -14.7977   20.6651 C   0  0  0  0  0  0  0  0  0  0  0  0
  -34.2872  -36.1943   23.3388 C   0  0  0  0  0  0  0  0  0  0  0  0
  -31.1815  -30.1912   21.6557 C   0  0  0  0  0  0  0  0  0  0  0  0
  -29.4051  -29.7744   23.9827 C   0  0  0  0  0  0  0  0  0  0  0  0
  -32.9346  -35.7464   23.8865 C   0  0  0  0  0  0  0  0  0  0  0  0
  -29.6228  -12.3578   18.3077 C   0  0  0  0  0  0  0  0  0  0  0  0
  -33.0908  -34.4831   24.7270 C   0  0  0  0  0  0  0  0  0  0  0  0
  -28.1824  -12.0588   18.7295 C   0  0  0  0  0  0  0  0  0  0  0  0
  -30.5278  -12.6025   19.5139 C   0  0  0  0  0  0  0  0  0  0  0  0
  -28.6060  -13.3233   20.8763 C   0  0  0  0  0  0  0  0  0  0  0  0
  -33.6332  -33.3229   23.8837 C   0  0  1  0  0  0  0  0  0  0  0  0
  -30.6881  -31.3562   22.5082 C   0  0  1  0  0  0  0  0  0  0  0  0
  -27.6427  -13.1339   19.6931 C   0  0  2  0  0  0  0  0  0  0  0  0
  -22.9843  -30.8988   23.1746 C   0  0  0  0  0  0  0  0  0  0  0  0
  -28.4922  -32.8620   26.2858 C   0  0  0  0  0  0  0  0  0  0  0  0
  -26.0365  -32.3814   26.3695 C   0  0  0  0  0  0  0  0  0  0  0  0
  -26.9072  -34.1557   24.8476 C   0  0  0  0  0  0  0  0  0  0  0  0
  -25.1726  -28.9620   20.7382 C   0  0  0  0  0  0  0  0  0  0  0  0
  -31.3961  -24.0438   23.5571 C   0  0  0  0  0  0  0  0  0  1  0  0
  -27.3221  -31.7263   24.2840 C   0  0  1  0  0  0  0  0  0  0  0  0
  -24.2447  -30.6030   22.3768 C   0  0  2  0  0  0  0  0  0  0  0  0
  -27.2079  -32.7612   25.4388 C   0  0  0  0  0  0  0  0  0  0  0  0
  -31.6831  -17.5418   21.6230 N   0  0  0  0  0  0  0  0  0  0  0  0
  -25.8632  -11.5339   20.2887 N   0  0  0  0  0  0  0  0  0  0  0  0
  -26.2316  -12.8192   20.1531 N   0  0  0  0  0  0  0  0  0  0  0  0
  -29.4569  -31.0422   23.2360 N   0  0  0  0  0  0  0  0  0  0  0  0
  -29.9552  -13.6358   20.3794 N   0  0  0  0  0  0  0  0  0  0  0  0
  -25.4470  -15.0428   20.3787 N   0  0  0  0  0  0  0  0  0  0  0  0
  -21.8721  -12.5511   21.5653 N   0  0  0  0  0  0  0  0  0  0  0  0
  -30.0431  -15.7241   21.4719 N   0  0  0  0  0  0  0  0  0  0  0  0
  -32.5812  -32.7569   23.0666 N   0  0  0  0  0  0  0  0  0  0  0  0
  -26.1300  -31.6292   23.4486 N   0  0  0  0  0  0  0  0  0  0  0  0
  -24.0205  -29.3585   21.5881 N   0  3  0  0  0  0  0  0  0  0  0  0
  -22.6339  -14.6944   21.2743 O   0  0  0  0  0  0  0  0  0  0  0  0
  -29.9732  -22.9003   25.1235 O   0  0  0  0  0  0  0  0  0  0  0  0
  -31.6798  -31.3072   24.6504 O   0  0  0  0  0  0  0  0  0  0  0  0
  -28.4832  -33.1016   22.7391 O   0  0  0  0  0  0  0  0  0  0  0  0
  -25.7531  -29.3691   23.8049 O   0  0  0  0  0  0  0  0  0  0  0  0
  -31.8340  -14.9712   20.2040 O   0  0  0  0  0  0  0  0  0  0  0  0
  -29.5233  -20.1843   24.8155 O   0  0  0  0  0  0  0  0  0  0  0  0
  -21.6391   -6.9871   21.7144 O   0  0  0  0  0  0  0  0  0  0  0  0
  -31.1111  -25.2027   24.3393 O   0  0  0  0  0  0  0  0  0  1  0  0
  -18.6171   -6.8418   26.3242 F   0  0  0  0  0  0  0  0  0  0  0  0
  -22.0905   -5.0616   23.6461 F   0  0  0  0  0  0  0  0  0  0  0  0
  -29.4590  -17.8946   22.8924 S   0  0  0  0  0  0  0  0  0  0  0  0
  1  2  1  0  0  0  0
  1  5  2  0  0  0  0
  2  6  2  0  0  0  0
  3  8  2  0  0  0  0
  3 16  1  0  0  0  0
  4  9  1  0  0  0  0
  4 16  2  0  0  0  0
  5 18  1  0  0  0  0
  6 20  1  0  0  0  0
  7 10  2  0  0  0  0
  7 19  1  0  0  0  0
  8 22  1  0  0  0  0
  9 22  2  0  0  0  0
 10 23  1  0  0  0  0
 11 12  2  0  0  0  0
 11 24  1  0  0  0  0
 12 25  1  0  0  0  0
 13 21  1  0  0  0  0
 13 23  2  0  0  0  0
 14 25  2  0  0  0  0
 14 26  1  0  0  0  0
 15 28  2  0  0  0  0
 15 60  1  0  0  0  0
 16 27  1  0  0  0  0
 17 27  1  0  0  0  0
 17 29  2  0  0  0  0
 17 32  1  0  0  0  0
 18 20  2  0  0  0  0
 18 39  1  0  0  0  0
 19 21  2  0  0  0  0
 19 40  1  0  0  0  0
 20 48  1  0  0  0  0
 21 41  1  0  0  0  0
 22 78  1  0  0  0  0
 23 79  1  0  0  0  0
 24 26  2  0  0  0  0
 24 78  1  0  0  0  0
 25 80  1  0  0  0  0
 26 81  1  0  0  0  0
 27 61  2  0  0  0  0
 28 33  1  0  0  0  0
 28 82  1  0  0  0  0
 29 62  1  0  0  0  0
 29 65  1  0  0  0  0
 30 60  2  0  0  0  0
 30 67  1  0  0  0  0
 30 82  1  0  0  0  0
 31 33  2  0  0  0  0
 31 34  1  0  0  0  0
 32 66  1  0  0  0  0
 32 71  2  0  0  0  0
 33 77  1  0  0  0  0
 34 56  1  0  0  0  0
 34 72  2  0  0  0  0
 35 49  1  0  0  0  0
 35 68  1  0  0  0  0
 35 73  2  0  0  0  0
 36 57  1  0  0  0  0
 36 63  1  0  0  0  0
 36 74  2  0  0  0  0
 37 58  1  0  0  0  0
 37 69  1  0  0  0  0
 37 75  2  0  0  0  0
 38 64  1  0  0  0  0
 38 67  1  0  0  0  0
 38 76  2  0  0  0  0
 39 42  1  0  0  0  0
 40 49  1  0  0  0  0
 41 63  1  0  0  0  0
 42 44  1  0  0  0  0
 43 45  1  0  0  0  0
 43 46  1  0  0  0  0
 44 48  1  0  0  0  0
 45 50  1  0  0  0  0
 46 64  1  0  0  0  0
 47 50  1  0  0  0  0
 47 64  1  0  0  0  0
 48 68  1  0  0  0  0
 49 63  1  0  0  0  0
 50 62  1  0  0  0  0
 51 58  1  0  0  0  0
 52 59  1  0  0  0  0
 53 59  1  0  0  0  0
 54 59  1  0  0  0  0
 55 70  1  0  0  0  0
 56 79  1  0  0  0  0
 57 59  1  0  0  0  0
 57 69  1  0  0  0  0
 58 70  1  0  0  0  0
 61 62  1  0  0  0  0
M  CHG  1  70   1
M  ISO  4  38 100  56 101  67 100  79 101
M  END
> <Batch ID>
0149

> <Smiles>
CNC(C)C(=O)NC(C(=O)N1Cc2cc([101O:1][101CH2:1]C(=O)CC(=O)c3cnc([100NH:0][100C:0](=O)N4CCCC(n5nc(-c6ccc(Oc7ccc(F)cc7F)cc6)c(C(N)=O)c5N)C4)s3)ccc2CC1C(=O)NC1CCCc2ccccc21)C(C)(C)C

> <Shape>
0.254

> <Color>
0.189

> <Negative vol penalty>
0.000

$$$$

  -OEChem-04052303193D

 87 96  0     1  0  0  0  0  0999 V2000
  -19.8336   -8.4210   23.7297 C   0  0  0  0  0  0  0  0  0  0  0  0
  -20.4817   -9.6323   23.9494 C   0  0  0  0  0  0  0  0  0  0  0  0
  -26.6305  -29.1072   19.4929 C   0  0  0  0  0  0  0  0  0  0  0  0
  -25.7929  -27.6797   21.2529 C   0  0  0  0  0  0  0  0  0  0  0  0
  -20.5457   -7.3311   23.2309 C   0  0  0  0  0  0  0  0  0  0  0  0
  -21.8427   -9.7539   23.6714 C   0  0  0  0  0  0  0  0  0  0  0  0
  -22.9457  -14.0337   21.1992 C   0  0  0  0  0  0  0  0  0  0  0  0
  -25.3472  -29.6172   19.2958 C   0  0  0  0  0  0  0  0  0  0  0  0
  -24.5097  -28.1897   21.0559 C   0  0  0  0  0  0  0  0  0  0  0  0
  -23.0017  -15.2067   21.9506 C   0  0  0  0  0  0  0  0  0  0  0  0
  -22.7843  -30.9755   21.8824 C   0  0  0  0  0  0  0  0  0  0  0  0
  -22.0467  -31.3249   23.0135 C   0  0  0  0  0  0  0  0  0  0  0  0
  -29.5158  -19.0112   20.4040 C   0  0  0  0  0  0  0  0  0  0  0  0
  -25.4085  -15.0519   22.0017 C   0  0  0  0  0  0  0  0  0  0  0  0
  -28.6455  -20.1372   22.3428 C   0  0  0  0  0  0  0  0  0  0  0  0
  -20.3422  -29.7281   22.3953 C   0  0  0  0  0  0  0  0  0  0  0  0
  -28.9279  -17.8507   20.8808 C   0  0  0  0  0  0  0  0  0  0  0  0
  -26.8533  -28.1384   20.4714 C   0  0  0  0  0  0  0  0  0  0  0  0
  -29.1662  -28.1065   21.5472 C   0  0  0  0  0  0  0  0  0  0  0  0
  -21.9140   -7.4422   22.9376 C   0  0  0  0  0  0  0  0  0  0  0  0
  -24.1221  -13.3539   20.8520 C   0  0  0  0  0  0  0  0  0  0  0  0
  -22.5742   -8.6640   23.1695 C   0  0  0  0  0  0  0  0  0  0  0  0
  -25.3649  -13.8719   21.2436 C   0  0  0  0  0  0  0  0  0  0  0  0
  -29.3672  -20.1720   21.1549 C   0  0  0  0  0  0  0  0  0  0  0  0
  -24.2869  -29.1585   20.0773 C   0  0  0  0  0  0  0  0  0  0  0  0
  -24.2330  -15.7144   22.3544 C   0  0  0  0  0  0  0  0  0  0  0  0
  -22.3008  -30.0024   21.0077 C   0  0  0  0  0  0  0  0  0  0  0  0
  -20.8257  -30.7012   23.2700 C   0  0  0  0  0  0  0  0  0  0  0  0
  -21.0798  -29.3787   21.2641 C   0  0  0  0  0  0  0  0  0  0  0  0
  -28.1786  -27.6108   20.6750 C   0  0  0  0  0  0  0  0  0  0  0  0
  -28.0964  -18.9263   22.7327 C   0  0  0  0  0  0  0  0  0  0  0  0
  -30.2347  -27.2616   21.3717 C   0  0  0  0  0  0  0  0  0  0  0  0
  -29.1216  -29.2302   22.4367 C   0  0  0  0  0  0  0  0  0  0  0  0
  -27.3187  -18.8134   23.9796 C   0  0  0  0  0  0  0  0  0  0  0  0
  -25.3094  -10.4694   21.4630 C   0  0  0  0  0  0  0  0  0  0  0  0
  -27.6111  -11.4027   19.3766 C   0  0  0  0  0  0  0  0  0  0  0  0
  -29.2922  -13.9636   17.8723 C   0  0  0  0  0  0  0  0  0  0  0  0
  -30.6976  -21.5889   19.5521 C   0  0  0  0  0  0  0  0  0  0  0  0
  -22.6521   -6.2228   22.4446 C   0  0  0  0  0  0  0  0  0  0  0  0
  -24.0461  -12.1043   20.0183 C   0  0  0  0  0  0  0  0  0  0  0  0
  -26.6580  -13.1910   20.8796 C   0  0  0  0  0  0  0  0  0  0  0  0
  -24.0090   -6.5423   21.8225 C   0  0  0  0  0  0  0  0  0  0  0  0
  -32.2693  -24.4293   18.0895 C   0  0  0  0  0  0  0  0  0  0  0  0
  -24.7879   -7.5097   22.7082 C   0  0  0  0  0  0  0  0  0  0  0  0
  -31.4924  -25.6129   18.6707 C   0  0  0  0  0  0  0  0  0  0  0  0
  -23.8511  -19.5440   24.6518 C   0  0  0  0  0  0  0  0  0  0  0  0
  -31.3586  -23.2347   17.8116 C   0  0  0  0  0  0  0  0  0  0  0  0
  -25.1535  -18.9243   25.1399 C   0  0  0  0  0  0  0  0  0  0  0  0
  -29.7617  -23.9846   19.5311 C   0  0  0  0  0  0  0  0  0  0  0  0
  -25.2717  -19.3491   22.7227 C   0  0  0  0  0  0  0  0  0  0  0  0
  -24.0440   -8.8424   22.8568 C   0  0  1  0  0  0  0  0  0  0  0  0
  -25.2784  -11.2160   20.1595 C   0  0  1  0  0  0  0  0  0  0  0  0
  -30.6477  -25.1892   19.8883 C   0  0  2  0  0  0  0  0  0  0  0  0
  -23.8071  -19.2150   23.1543 C   0  0  1  0  0  0  0  0  0  0  0  0
  -31.1459  -14.4143   16.2420 C   0  0  0  0  0  0  0  0  0  0  0  0
  -29.6647  -10.6969   21.5201 C   0  0  0  0  0  0  0  0  0  0  0  0
  -31.3560  -12.0255   20.2384 C   0  0  0  0  0  0  0  0  0  0  0  0
  -30.3030  -10.0168   19.1997 C   0  0  0  0  0  0  0  0  0  0  0  0
  -27.4714  -15.3746   16.0142 C   0  0  0  0  0  0  0  0  0  0  0  0
  -21.6819  -20.1856   22.9583 C   0  0  0  0  0  0  0  0  0  0  0  0
  -23.2548  -17.8179   22.8785 C   0  0  0  0  0  0  0  0  0  1  0  0
  -28.9334  -12.1214   19.4947 C   0  0  1  0  0  0  0  0  0  0  0  0
  -29.6482  -14.2185   16.4188 C   0  0  2  0  0  0  0  0  0  0  0  0
  -30.0400  -11.2272   20.1219 C   0  0  0  0  0  0  0  0  0  0  0  0
  -28.2195  -17.7781   22.0299 N   0  0  0  0  0  0  0  0  0  0  0  0
  -28.5838  -26.5346   19.9957 N   0  0  0  0  0  0  0  0  0  0  0  0
  -29.8378  -26.3471   20.4409 N   0  0  0  0  0  0  0  0  0  0  0  0
  -26.0137  -19.0143   23.9507 N   0  0  0  0  0  0  0  0  0  0  0  0
  -26.5311  -11.9688   20.0687 N   0  0  0  0  0  0  0  0  0  0  0  0
  -30.5928  -22.8876   19.0107 N   0  0  0  0  0  0  0  0  0  0  0  0
  -31.4658  -27.2193   21.9241 N   0  0  0  0  0  0  0  0  0  0  0  0
  -27.9460  -29.9911   22.4935 N   0  0  0  0  0  0  0  0  0  0  0  0
  -29.9492  -21.3852   20.7110 N   0  0  0  0  0  0  0  0  0  0  0  0
  -24.2147   -9.6517   21.6692 N   0  0  0  0  0  0  0  0  0  0  0  0
  -29.2502  -12.6155   18.1591 N   0  0  0  0  0  0  0  0  0  0  0  0
  -27.9429  -18.5094   25.1137 N   0  3  0  0  0  0  0  0  0  0  0  0
  -28.9527  -15.4391   15.9216 N   0  3  0  0  0  0  0  0  0  0  0  0
  -30.1011  -29.5597   23.1477 O   0  0  0  0  0  0  0  0  0  0  0  0
  -26.2571  -10.6226   22.2247 O   0  0  0  0  0  0  0  0  0  0  0  0
  -27.5375  -10.3808   18.6896 O   0  0  0  0  0  0  0  0  0  0  0  0
  -29.0768  -14.8698   18.6742 O   0  0  0  0  0  0  0  0  0  0  0  0
  -31.4207  -20.7295   19.0418 O   0  0  0  0  0  0  0  0  0  0  0  0
  -23.0346  -29.6561   19.8855 O   0  0  0  0  0  0  0  0  0  0  0  0
  -24.2905  -16.8589   23.0885 O   0  0  0  0  0  0  0  0  0  1  0  0
  -23.0134  -20.1724   22.4677 O   0  0  0  0  0  0  0  0  0  0  0  0
  -20.1182  -31.0358   24.3571 F   0  0  0  0  0  0  0  0  0  0  0  0
  -20.6107  -28.4424   20.4281 F   0  0  0  0  0  0  0  0  0  0  0  0
  1  2  1  0  0  0  0
  1  5  2  0  0  0  0
  2  6  2  0  0  0  0
  3  8  2  0  0  0  0
  3 18  1  0  0  0  0
  4  9  1  0  0  0  0
  4 18  2  0  0  0  0
  5 20  1  0  0  0  0
  6 22  1  0  0  0  0
  7 10  2  0  0  0  0
  7 21  1  0  0  0  0
  8 25  1  0  0  0  0
  9 25  2  0  0  0  0
 10 26  1  0  0  0  0
 11 12  2  0  0  0  0
 11 27  1  0  0  0  0
 12 28  1  0  0  0  0
 13 17  2  0  0  0  0
 13 24  1  0  0  0  0
 14 23  1  0  0  0  0
 14 26  2  0  0  0  0
 15 24  2  0  0  0  0
 15 31  1  0  0  0  0
 16 28  2  0  0  0  0
 16 29  1  0  0  0  0
 17 65  1  0  0  0  0
 18 30  1  0  0  0  0
 19 30  1  0  0  0  0
 19 32  2  0  0  0  0
 19 33  1  0  0  0  0
 20 22  2  0  0  0  0
 20 39  1  0  0  0  0
 21 23  2  0  0  0  0
 21 40  1  0  0  0  0
 22 51  1  0  0  0  0
 23 41  1  0  0  0  0
 24 73  1  0  0  0  0
 25 83  1  0  0  0  0
 26 84  1  0  0  0  0
 27 29  2  0  0  0  0
 27 83  1  0  0  0  0
 28 86  1  0  0  0  0
 29 87  1  0  0  0  0
 30 66  2  0  0  0  0
 31 34  1  0  0  0  0
 31 65  2  0  0  0  0
 32 67  1  0  0  0  0
 32 71  1  0  0  0  0
 33 72  1  0  0  0  0
 33 78  2  0  0  0  0
 34 68  1  0  0  0  0
 34 76  2  0  0  0  0
 35 52  1  0  0  0  0
 35 74  1  0  0  0  0
 35 79  2  0  0  0  0
 36 62  1  0  0  0  0
 36 69  1  0  0  0  0
 36 80  2  0  0  0  0
 37 63  1  0  0  0  0
 37 75  1  0  0  0  0
 37 81  2  0  0  0  0
 38 70  1  0  0  0  0
 38 73  1  0  0  0  0
 38 82  2  0  0  0  0
 39 42  1  0  0  0  0
 40 52  1  0  0  0  0
 41 69  1  0  0  0  0
 42 44  1  0  0  0  0
 43 45  1  0  0  0  0
 43 47  1  0  0  0  0
 44 51  1  0  0  0  0
 45 53  1  0  0  0  0
 46 48  1  0  0  0  0
 46 54  1  0  0  0  0
 47 70  1  0  0  0  0
 48 68  1  0  0  0  0
 49 53  1  0  0  0  0
 49 70  1  0  0  0  0
 50 54  1  0  0  0  0
 50 68  1  0  0  0  0
 51 74  1  0  0  0  0
 52 69  1  0  0  0  0
 53 67  1  0  0  0  0
 54 61  1  0  0  0  0
 54 85  1  0  0  0  0
 55 63  1  0  0  0  0
 56 64  1  0  0  0  0
 57 64  1  0  0  0  0
 58 64  1  0  0  0  0
 59 77  1  0  0  0  0
 60 85  1  0  0  0  0
 61 84  1  0  0  0  0
 62 64  1  0  0  0  0
 62 75  1  0  0  0  0
 63 77  1  0  0  0  0
 66 67  1  0  0  0  0
M  CHG  2  76   1  77   1
M  ISO  4  38 100  61 101  73 100  84 101
M  END
> <Batch ID>
0149

> <Smiles>
CNC(C)C(=O)NC(C(=O)N1Cc2cc([101O:1][101CH2:1]C3(OC)CCN(C(=N)c4cc([100NH:0][100C:0](=O)N5CCCC(n6nc(-c7ccc(Oc8ccc(F)cc8F)cc7)c(C(N)=O)c6N)C5)ccn4)C3)ccc2CC1C(=O)NC1CCCc2ccccc21)C(C)(C)C

> <Shape>
0.276

> <Color>
0.047

> <Negative vol penalty>
0.000

$$$$

  -OEChem-04052303193D

 85 94  0     1  0  0  0  0  0999 V2000
  -21.9733  -30.5645   14.0166 C   0  0  0  0  0  0  0  0  0  0  0  0
  -23.0239  -29.6788   14.2340 C   0  0  0  0  0  0  0  0  0  0  0  0
  -24.2227   -9.7395   21.4984 C   0  0  0  0  0  0  0  0  0  0  0  0
  -24.6636  -10.8471   23.5998 C   0  0  0  0  0  0  0  0  0  0  0  0
  -21.8493  -31.7050   14.8090 C   0  0  0  0  0  0  0  0  0  0  0  0
  -23.9518  -29.9337   15.2432 C   0  0  0  0  0  0  0  0  0  0  0  0
  -26.8047  -25.8025   18.7502 C   0  0  0  0  0  0  0  0  0  0  0  0
  -23.7886   -8.6066   22.1865 C   0  0  0  0  0  0  0  0  0  0  0  0
  -24.2294   -9.7142   24.2880 C   0  0  0  0  0  0  0  0  0  0  0  0
  -28.0727  -25.2271   18.6790 C   0  0  0  0  0  0  0  0  0  0  0  0
  -21.0038   -7.5978   23.8176 C   0  0  0  0  0  0  0  0  0  0  0  0
  -19.8271   -6.9872   23.3839 C   0  0  0  0  0  0  0  0  0  0  0  0
  -30.2783  -19.7221   20.0819 C   0  0  0  0  0  0  0  0  0  0  0  0
  -28.8960  -26.8615   20.2507 C   0  0  0  0  0  0  0  0  0  0  0  0
  -21.0440   -4.9439   22.9585 C   0  0  0  0  0  0  0  0  0  0  0  0
  -24.6603  -10.8598   22.2050 C   0  0  0  0  0  0  0  0  0  0  0  0
  -29.8034  -21.0459   20.2405 C   0  0  0  0  0  0  0  0  0  0  0  0
  -24.3281  -13.1258   21.0814 C   0  0  0  0  0  0  0  0  0  0  0  0
  -22.7706  -31.9690   15.8347 C   0  0  0  0  0  0  0  0  0  0  0  0
  -26.5751  -26.9202   19.5653 C   0  0  0  0  0  0  0  0  0  0  0  0
  -23.8407  -31.0795   16.0491 C   0  0  0  0  0  0  0  0  0  0  0  0
  -27.6236  -27.4476   20.3325 C   0  0  0  0  0  0  0  0  0  0  0  0
  -23.7919   -8.5939   23.5813 C   0  0  0  0  0  0  0  0  0  0  0  0
  -29.1192  -25.7584   19.4271 C   0  0  0  0  0  0  0  0  0  0  0  0
  -22.2007   -6.8814   23.8216 C   0  0  0  0  0  0  0  0  0  0  0  0
  -19.8471   -5.6603   22.9544 C   0  0  0  0  0  0  0  0  0  0  0  0
  -22.2208   -5.5545   23.3921 C   0  0  0  0  0  0  0  0  0  0  0  0
  -25.1095  -12.0302   21.4947 C   0  0  0  0  0  0  0  0  0  0  0  0
  -25.2169  -13.9642   20.4540 C   0  0  0  0  0  0  0  0  0  0  0  0
  -29.2683  -18.8986   20.5219 C   0  0  0  0  0  0  0  0  0  0  0  0
  -28.5368  -20.9370   20.7659 C   0  0  0  0  0  0  0  0  0  0  0  0
  -30.5270  -22.2857   19.9067 C   0  0  0  0  0  0  0  0  0  0  0  0
  -22.9244  -13.3643   21.2496 C   0  0  0  0  0  0  0  0  0  0  0  0
  -25.6527  -29.9186   19.0528 C   0  0  0  0  0  0  0  0  0  0  0  0
  -25.6241  -30.0522   22.2937 C   0  0  0  0  0  0  0  0  0  0  0  0
  -26.7783  -28.8089   25.2549 C   0  0  0  0  0  0  0  0  0  0  0  0
  -30.1408  -16.5539   20.2269 C   0  0  0  0  0  0  0  0  0  0  0  0
  -22.6225  -33.2392   16.6343 C   0  0  0  0  0  0  0  0  0  0  0  0
  -25.1953  -27.5128   19.6516 C   0  0  0  0  0  0  0  0  0  0  0  0
  -27.4244  -28.6341   21.2386 C   0  0  0  0  0  0  0  0  0  0  0  0
  -23.4334  -33.2428   17.9276 C   0  0  0  0  0  0  0  0  0  0  0  0
  -30.0125  -13.2056   19.0227 C   0  0  0  0  0  0  0  0  0  0  0  0
  -32.2036  -23.4307   22.9051 C   0  0  0  0  0  0  0  0  0  0  0  0
  -24.8542  -32.7519   17.6683 C   0  0  0  0  0  0  0  0  0  0  0  0
  -28.6612  -12.6915   19.5245 C   0  0  0  0  0  0  0  0  0  0  0  0
  -33.0236  -24.0879   21.7998 C   0  0  0  0  0  0  0  0  0  0  0  0
  -31.4476  -22.3218   22.1844 C   0  0  0  0  0  0  0  0  0  0  0  0
  -30.6775  -14.1350   20.0364 C   0  0  0  0  0  0  0  0  0  0  0  0
  -28.4909  -14.7376   20.9980 C   0  0  0  0  0  0  0  0  0  0  0  0
  -24.8532  -31.3086   17.1503 C   0  0  1  0  0  0  0  0  0  0  0  0
  -25.1967  -28.9646   20.1202 C   0  0  1  0  0  0  0  0  0  0  0  0
  -27.7529  -13.8490   19.9834 C   0  0  2  0  0  0  0  0  0  0  0  0
  -32.0909  -24.0771   20.5849 C   0  0  2  0  0  0  0  0  0  0  0  0
  -26.6039  -29.1475   27.7353 C   0  0  0  0  0  0  0  0  0  0  0  0
  -27.4317  -32.5013   22.0840 C   0  0  0  0  0  0  0  0  0  0  0  0
  -27.9827  -32.2159   24.5095 C   0  0  0  0  0  0  0  0  0  0  0  0
  -25.6325  -32.6776   23.8121 C   0  0  0  0  0  0  0  0  0  0  0  0
  -25.6904  -26.0876   25.6669 C   0  0  0  0  0  0  0  0  0  0  0  0
  -31.1776  -25.2923   20.5233 C   0  0  0  0  0  0  0  0  0  1  0  0
  -26.6357  -30.4017   23.3583 C   0  0  1  0  0  0  0  0  0  0  0  0
  -26.0561  -28.4038   26.5272 C   0  0  2  0  0  0  0  0  0  0  0  0
  -26.9252  -31.9279   23.4225 C   0  0  0  0  0  0  0  0  0  0  0  0
  -26.3957  -12.1580   21.1580 N   0  0  0  0  0  0  0  0  0  0  0  0
  -26.4293  -13.3438   20.5265 N   0  0  0  0  0  0  0  0  0  0  0  0
  -31.2849  -22.8620   20.8235 N   0  0  0  0  0  0  0  0  0  0  0  0
  -26.0586  -29.1820   21.2838 N   0  0  0  0  0  0  0  0  0  0  0  0
  -29.7598  -15.2094   20.4217 N   0  0  0  0  0  0  0  0  0  0  0  0
  -25.0717  -15.1642   19.8528 N   0  0  0  0  0  0  0  0  0  0  0  0
  -27.6203  -21.8630   21.1177 N   0  0  0  0  0  0  0  0  0  0  0  0
  -22.1581  -12.3997   21.9180 N   0  0  0  0  0  0  0  0  0  0  0  0
  -29.1741  -17.4870   20.6001 N   0  0  0  0  0  0  0  0  0  0  0  0
  -24.6357  -30.3808   18.2395 N   0  0  0  0  0  0  0  0  0  0  0  0
  -26.1290  -29.8366   24.6042 N   0  0  0  0  0  0  0  0  0  0  0  0
  -30.4075  -22.8041   18.6880 N   0  3  0  0  0  0  0  0  0  0  0  0
  -26.2096  -26.9409   26.7666 N   0  3  0  0  0  0  0  0  0  0  0  0
  -22.3631  -14.3946   20.8057 O   0  0  0  0  0  0  0  0  0  0  0  0
  -26.8392  -30.2147   18.9738 O   0  0  0  0  0  0  0  0  0  0  0  0
  -24.4878  -30.5279   22.3598 O   0  0  0  0  0  0  0  0  0  0  0  0
  -27.8168  -28.2703   24.8781 O   0  0  0  0  0  0  0  0  0  0  0  0
  -31.2328  -16.8546   19.7378 O   0  0  0  0  0  0  0  0  0  0  0  0
  -28.2031  -19.6313   20.9404 O   0  0  0  0  0  0  0  0  0  0  0  0
  -23.3680   -7.4887   24.2532 O   0  0  0  0  0  0  0  0  0  0  0  0
  -30.3580  -25.1992   19.3589 O   0  0  0  0  0  0  0  0  0  1  0  0
  -18.7167   -5.0737   22.5395 F   0  0  0  0  0  0  0  0  0  0  0  0
  -23.3673   -4.8608   23.3949 F   0  0  0  0  0  0  0  0  0  0  0  0
  1  2  1  0  0  0  0
  1  5  2  0  0  0  0
  2  6  2  0  0  0  0
  3  8  2  0  0  0  0
  3 16  1  0  0  0  0
  4  9  1  0  0  0  0
  4 16  2  0  0  0  0
  5 19  1  0  0  0  0
  6 21  1  0  0  0  0
  7 10  2  0  0  0  0
  7 20  1  0  0  0  0
  8 23  1  0  0  0  0
  9 23  2  0  0  0  0
 10 24  1  0  0  0  0
 11 12  2  0  0  0  0
 11 25  1  0  0  0  0
 12 26  1  0  0  0  0
 13 17  1  0  0  0  0
 13 30  2  0  0  0  0
 14 22  1  0  0  0  0
 14 24  2  0  0  0  0
 15 26  2  0  0  0  0
 15 27  1  0  0  0  0
 16 28  1  0  0  0  0
 17 31  2  0  0  0  0
 17 32  1  0  0  0  0
 18 28  1  0  0  0  0
 18 29  2  0  0  0  0
 18 33  1  0  0  0  0
 19 21  2  0  0  0  0
 19 38  1  0  0  0  0
 20 22  2  0  0  0  0
 20 39  1  0  0  0  0
 21 50  1  0  0  0  0
 22 40  1  0  0  0  0
 23 82  1  0  0  0  0
 24 83  1  0  0  0  0
 25 27  2  0  0  0  0
 25 82  1  0  0  0  0
 26 84  1  0  0  0  0
 27 85  1  0  0  0  0
 28 63  2  0  0  0  0
 29 64  1  0  0  0  0
 29 68  1  0  0  0  0
 30 71  1  0  0  0  0
 30 81  1  0  0  0  0
 31 69  1  0  0  0  0
 31 81  1  0  0  0  0
 32 65  1  0  0  0  0
 32 74  2  0  0  0  0
 33 70  1  0  0  0  0
 33 76  2  0  0  0  0
 34 51  1  0  0  0  0
 34 72  1  0  0  0  0
 34 77  2  0  0  0  0
 35 60  1  0  0  0  0
 35 66  1  0  0  0  0
 35 78  2  0  0  0  0
 36 61  1  0  0  0  0
 36 73  1  0  0  0  0
 36 79  2  0  0  0  0
 37 67  1  0  0  0  0
 37 71  1  0  0  0  0
 37 80  2  0  0  0  0
 38 41  1  0  0  0  0
 39 51  1  0  0  0  0
 40 66  1  0  0  0  0
 41 44  1  0  0  0  0
 42 45  1  0  0  0  0
 42 48  1  0  0  0  0
 43 46  1  0  0  0  0
 43 47  1  0  0  0  0
 44 50  1  0  0  0  0
 45 52  1  0  0  0  0
 46 53  1  0  0  0  0
 47 65  1  0  0  0  0
 48 67  1  0  0  0  0
 49 52  1  0  0  0  0
 49 67  1  0  0  0  0
 50 72  1  0  0  0  0
 51 66  1  0  0  0  0
 52 64  1  0  0  0  0
 53 59  1  0  0  0  0
 53 65  1  0  0  0  0
 54 61  1  0  0  0  0
 55 62  1  0  0  0  0
 56 62  1  0  0  0  0
 57 62  1  0  0  0  0
 58 75  1  0  0  0  0
 59 83  1  0  0  0  0
 60 62  1  0  0  0  0
 60 73  1  0  0  0  0
 61 75  1  0  0  0  0
 63 64  1  0  0  0  0
M  CHG  2  74   1  75   1
M  ISO  4  37 100  59 101  71 100  83 101
M  END
> <Batch ID>
0149

> <Smiles>
CNC(C)C(=O)NC(C(=O)N1Cc2cc([101O:1][101CH2:1]C3CCCN3C(=N)c3cc([100NH:0][100C:0](=O)N4CCCC(n5nc(-c6ccc(Oc7ccc(F)cc7F)cc6)c(C(N)=O)c5N)C4)oc3N)ccc2CC1C(=O)NC1CCCc2ccccc21)C(C)(C)C

> <Shape>
0.309

> <Color>
0.127

> <Negative vol penalty>
0.000

$$$$

  -OEChem-04052303193D

 82 91  0     1  0  0  0  0  0999 V2000
  -16.4520  -29.7701   22.6797 C   0  0  0  0  0  0  0  0  0  0  0  0
  -17.2602  -30.6340   21.9477 C   0  0  0  0  0  0  0  0  0  0  0  0
  -26.5289  -12.6056   21.5616 C   0  0  0  0  0  0  0  0  0  0  0  0
  -25.7895  -13.7043   19.5409 C   0  0  0  0  0  0  0  0  0  0  0  0
  -16.9724  -29.0999   23.7860 C   0  0  0  0  0  0  0  0  0  0  0  0
  -18.5892  -30.8290   22.3222 C   0  0  0  0  0  0  0  0  0  0  0  0
  -25.1437  -29.8858   18.1780 C   0  0  0  0  0  0  0  0  0  0  0  0
  -25.3075  -11.9371   21.6450 C   0  0  0  0  0  0  0  0  0  0  0  0
  -24.5681  -13.0358   19.6243 C   0  0  0  0  0  0  0  0  0  0  0  0
  -26.3797  -29.6039   17.5958 C   0  0  0  0  0  0  0  0  0  0  0  0
  -23.8269   -9.2640   20.1975 C   0  0  0  0  0  0  0  0  0  0  0  0
  -23.8530   -7.9002   20.4887 C   0  0  0  0  0  0  0  0  0  0  0  0
  -27.3374  -29.2299   19.7846 C   0  0  0  0  0  0  0  0  0  0  0  0
  -22.5468   -8.3007   22.4814 C   0  0  0  0  0  0  0  0  0  0  0  0
  -27.2233  -23.3699   17.7982 C   0  0  0  0  0  0  0  0  0  0  0  0
  -26.7699  -13.4893   20.5096 C   0  0  0  0  0  0  0  0  0  0  0  0
  -29.1950  -13.7461   19.7609 C   0  0  0  0  0  0  0  0  0  0  0  0
  -18.3111  -29.2794   24.1686 C   0  0  0  0  0  0  0  0  0  0  0  0
  -24.9959  -29.8258   19.5665 C   0  0  0  0  0  0  0  0  0  0  0  0
  -19.1276  -30.1617   23.4355 C   0  0  0  0  0  0  0  0  0  0  0  0
  -26.0987  -29.4992   20.3727 C   0  0  0  0  0  0  0  0  0  0  0  0
  -24.3271  -12.1522   20.6764 C   0  0  0  0  0  0  0  0  0  0  0  0
  -27.4739  -29.2770   18.3972 C   0  0  0  0  0  0  0  0  0  0  0  0
  -23.1609  -10.1463   21.0483 C   0  0  0  0  0  0  0  0  0  0  0  0
  -23.2129   -7.4185   21.6306 C   0  0  0  0  0  0  0  0  0  0  0  0
  -22.5208   -9.6646   22.1902 C   0  0  0  0  0  0  0  0  0  0  0  0
  -28.0311  -14.1805   20.4232 C   0  0  0  0  0  0  0  0  0  0  0  0
  -28.3961  -23.8234   18.3648 C   0  0  0  0  0  0  0  0  0  0  0  0
  -30.1063  -14.7516   19.9732 C   0  0  0  0  0  0  0  0  0  0  0  0
  -28.2490  -21.8992   19.4067 C   0  0  0  0  0  0  0  0  0  0  0  0
  -29.4311  -12.5415   19.0200 C   0  0  0  0  0  0  0  0  0  0  0  0
  -22.7066  -30.1845   22.5172 C   0  0  0  0  0  0  0  0  0  0  0  0
  -24.4830  -27.7430   23.0592 C   0  0  0  0  0  0  0  0  0  0  0  0
  -26.3418  -24.8827   23.0823 C   0  0  0  0  0  0  0  0  0  0  0  0
  -29.5508  -20.5894   21.1203 C   0  0  0  0  0  0  0  0  0  0  0  0
  -18.8157  -28.5696   25.3999 C   0  0  0  0  0  0  0  0  0  0  0  0
  -23.6988  -30.1818   20.2407 C   0  0  0  0  0  0  0  0  0  0  0  0
  -25.9016  -29.4806   21.8639 C   0  0  0  0  0  0  0  0  0  0  0  0
  -20.3382  -28.5439   25.5073 C   0  0  0  0  0  0  0  0  0  0  0  0
  -31.2376  -18.1768   23.1230 C   0  0  0  0  0  0  0  0  0  0  0  0
  -20.9169  -29.9260   25.2213 C   0  0  0  0  0  0  0  0  0  0  0  0
  -30.7173  -16.8385   22.5936 C   0  0  0  0  0  0  0  0  0  0  0  0
  -30.1485  -19.2481   23.1249 C   0  0  0  0  0  0  0  0  0  0  0  0
  -28.5843  -26.0896   17.1510 C   0  0  0  0  0  0  0  0  0  0  0  0
  -30.2597  -25.6041   18.3400 C   0  0  0  0  0  0  0  0  0  0  0  0
  -28.9405  -18.0982   21.3117 C   0  0  0  0  0  0  0  0  0  0  0  0
  -20.5811  -30.3805   23.7957 C   0  0  1  0  0  0  0  0  0  0  0  0
  -23.4247  -29.3441   21.5026 C   0  0  1  0  0  0  0  0  0  0  0  0
  -29.8141  -26.8872   17.6178 C   0  0  0  0  0  0  0  0  0  0  0  0
  -30.0186  -17.0052   21.2299 C   0  0  2  0  0  0  0  0  0  0  0  0
  -27.1682  -22.6491   23.8733 C   0  0  0  0  0  0  0  0  0  0  0  0
  -30.8198  -28.8069   18.8607 C   0  0  0  0  0  0  0  0  0  0  0  0
  -26.2258  -29.4454   24.8946 C   0  0  0  0  0  0  0  0  0  0  0  0
  -27.3855  -27.3487   25.6207 C   0  0  0  0  0  0  0  0  0  0  0  0
  -24.9457  -27.6364   26.0537 C   0  0  0  0  0  0  0  0  0  0  0  0
  -24.2502  -23.4412   21.5638 C   0  0  0  0  0  0  0  0  0  0  0  0
  -25.7439  -27.2118   23.6926 C   0  0  1  0  0  0  0  0  0  0  0  0
  -25.9686  -23.4409   23.3764 C   0  0  2  0  0  0  0  0  0  0  0  0
  -29.5280  -28.0831   18.5102 C   0  0  1  0  0  0  0  0  0  1  0  0
  -26.0743  -27.9178   25.0379 C   0  0  0  0  0  0  0  0  0  0  0  0
  -28.1863  -15.3692   21.0122 N   0  0  0  0  0  0  0  0  0  0  0  0
  -28.9854  -22.9816   19.2877 N   0  0  0  0  0  0  0  0  0  0  0  0
  -29.4583  -15.6903   20.7208 N   0  0  0  0  0  0  0  0  0  0  0  0
  -28.9794  -25.0576   18.0468 N   0  0  0  0  0  0  0  0  0  0  0  0
  -24.6215  -28.8347   22.1935 N   0  0  0  0  0  0  0  0  0  0  0  0
  -29.5344  -19.3528   21.7995 N   0  0  0  0  0  0  0  0  0  0  0  0
  -31.3908  -14.9153   19.5914 N   0  0  0  0  0  0  0  0  0  0  0  0
  -28.3861  -11.6154   18.8997 N   0  0  0  0  0  0  0  0  0  0  0  0
  -28.4837  -20.7796   20.2429 N   0  0  0  0  0  0  0  0  0  0  0  0
  -21.4447  -29.7224   22.8388 N   0  0  0  0  0  0  0  0  0  0  0  0
  -25.5682  -25.7677   23.8031 N   0  0  0  0  0  0  0  0  0  0  0  0
  -25.4458  -22.7802   22.1472 N   0  3  0  0  0  0  0  0  0  0  0  0
  -30.5412  -12.2863   18.4946 O   0  0  0  0  0  0  0  0  0  0  0  0
  -23.2565  -31.1787   22.9764 O   0  0  0  0  0  0  0  0  0  0  0  0
  -23.4026  -27.2101   23.3275 O   0  0  0  0  0  0  0  0  0  0  0  0
  -27.2332  -25.1927   22.2950 O   0  0  0  0  0  0  0  0  0  0  0  0
  -30.4601  -21.4072   21.2830 O   0  0  0  0  0  0  0  0  0  0  0  0
  -23.1353  -11.4999   20.7573 O   0  0  0  0  0  0  0  0  0  0  0  0
  -28.6765  -28.9984   17.8220 O   0  0  0  0  0  0  0  0  0  1  0  0
  -23.2366   -6.1086   21.9094 F   0  0  0  0  0  0  0  0  0  0  0  0
  -21.8783  -10.5072   23.0106 F   0  0  0  0  0  0  0  0  0  0  0  0
  -26.8342  -21.8270   18.4381 S   0  0  0  0  0  0  0  0  0  0  0  0
  1  2  1  0  0  0  0
  1  5  2  0  0  0  0
  2  6  2  0  0  0  0
  3  8  2  0  0  0  0
  3 16  1  0  0  0  0
  4  9  1  0  0  0  0
  4 16  2  0  0  0  0
  5 18  1  0  0  0  0
  6 20  1  0  0  0  0
  7 10  2  0  0  0  0
  7 19  1  0  0  0  0
  8 22  1  0  0  0  0
  9 22  2  0  0  0  0
 10 23  1  0  0  0  0
 11 12  2  0  0  0  0
 11 24  1  0  0  0  0
 12 25  1  0  0  0  0
 13 21  1  0  0  0  0
 13 23  2  0  0  0  0
 14 25  2  0  0  0  0
 14 26  1  0  0  0  0
 15 28  2  0  0  0  0
 15 82  1  0  0  0  0
 16 27  1  0  0  0  0
 17 27  1  0  0  0  0
 17 29  2  0  0  0  0
 17 31  1  0  0  0  0
 18 20  2  0  0  0  0
 18 36  1  0  0  0  0
 19 21  2  0  0  0  0
 19 37  1  0  0  0  0
 20 47  1  0  0  0  0
 21 38  1  0  0  0  0
 22 78  1  0  0  0  0
 23 79  1  0  0  0  0
 24 26  2  0  0  0  0
 24 78  1  0  0  0  0
 25 80  1  0  0  0  0
 26 81  1  0  0  0  0
 27 61  2  0  0  0  0
 28 62  1  0  0  0  0
 28 64  1  0  0  0  0
 29 63  1  0  0  0  0
 29 67  1  0  0  0  0
 30 62  2  0  0  0  0
 30 69  1  0  0  0  0
 30 82  1  0  0  0  0
 31 68  1  0  0  0  0
 31 73  2  0  0  0  0
 32 48  1  0  0  0  0
 32 70  1  0  0  0  0
 32 74  2  0  0  0  0
 33 57  1  0  0  0  0
 33 65  1  0  0  0  0
 33 75  2  0  0  0  0
 34 58  1  0  0  0  0
 34 71  1  0  0  0  0
 34 76  2  0  0  0  0
 35 66  1  0  0  0  0
 35 69  1  0  0  0  0
 35 77  2  0  0  0  0
 36 39  1  0  0  0  0
 37 48  1  0  0  0  0
 38 65  1  0  0  0  0
 39 41  1  0  0  0  0
 40 42  1  0  0  0  0
 40 43  1  0  0  0  0
 41 47  1  0  0  0  0
 42 50  1  0  0  0  0
 43 66  1  0  0  0  0
 44 49  1  0  0  0  0
 44 64  1  0  0  0  0
 45 49  1  0  0  0  0
 45 64  1  0  0  0  0
 46 50  1  0  0  0  0
 46 66  1  0  0  0  0
 47 70  1  0  0  0  0
 48 65  1  0  0  0  0
 49 59  1  0  0  0  0
 50 63  1  0  0  0  0
 51 58  1  0  0  0  0
 52 59  1  0  0  0  0
 53 60  1  0  0  0  0
 54 60  1  0  0  0  0
 55 60  1  0  0  0  0
 56 72  1  0  0  0  0
 57 60  1  0  0  0  0
 57 71  1  0  0  0  0
 58 72  1  0  0  0  0
 59 79  1  0  0  0  0
 61 63  1  0  0  0  0
M  CHG  1  72   1
M  ISO  4  35 100  59 101  69 100  79 101
M  END
> <Batch ID>
0149

> <Smiles>
CNC(C)C(=O)NC(C(=O)N1Cc2cc([101O:1][101CH:1](C)C3CN(c4csc([100NH:0][100C:0](=O)N5CCCC(n6nc(-c7ccc(Oc8ccc(F)cc8F)cc7)c(C(N)=O)c6N)C5)n4)C3)ccc2CC1C(=O)NC1CCCc2ccccc21)C(C)(C)C

> <Shape>
0.283

> <Color>
0.110

> <Negative vol penalty>
0.000

$$$$

  -OEChem-04052303193D

 84 93  0     1  0  0  0  0  0999 V2000
  -17.1031  -31.5071   23.1070 C   0  0  0  0  0  0  0  0  0  0  0  0
  -18.2934  -31.9308   22.5246 C   0  0  0  0  0  0  0  0  0  0  0  0
  -26.0982  -13.6878   21.3643 C   0  0  0  0  0  0  0  0  0  0  0  0
  -24.3177  -15.1934   20.7318 C   0  0  0  0  0  0  0  0  0  0  0  0
  -17.0910  -30.3758   23.9217 C   0  0  0  0  0  0  0  0  0  0  0  0
  -19.4726  -31.2239   22.7576 C   0  0  0  0  0  0  0  0  0  0  0  0
  -25.6225  -29.4160   19.5597 C   0  0  0  0  0  0  0  0  0  0  0  0
  -25.1556  -12.7305   21.7393 C   0  0  0  0  0  0  0  0  0  0  0  0
  -23.3750  -14.2361   21.1068 C   0  0  0  0  0  0  0  0  0  0  0  0
  -26.9998  -29.4578   19.7721 C   0  0  0  0  0  0  0  0  0  0  0  0
  -23.1691  -10.4593   20.2134 C   0  0  0  0  0  0  0  0  0  0  0  0
  -23.3841   -9.1430   19.8050 C   0  0  0  0  0  0  0  0  0  0  0  0
  -26.8440  -27.4722   21.1332 C   0  0  0  0  0  0  0  0  0  0  0  0
  -23.4370   -8.4352   22.1144 C   0  0  0  0  0  0  0  0  0  0  0  0
  -29.1126  -23.3927   17.6100 C   0  0  0  0  0  0  0  0  0  0  0  0
  -25.6793  -14.9192   20.8606 C   0  0  0  0  0  0  0  0  0  0  0  0
  -27.2408  -16.0718   19.2050 C   0  0  0  0  0  0  0  0  0  0  0  0
  -18.2688  -29.6491   24.1570 C   0  0  0  0  0  0  0  0  0  0  0  0
  -24.8428  -28.4066   20.1424 C   0  0  0  0  0  0  0  0  0  0  0  0
  -19.4765  -30.0826   23.5774 C   0  0  0  0  0  0  0  0  0  0  0  0
  -25.4574  -27.4184   20.9245 C   0  0  0  0  0  0  0  0  0  0  0  0
  -23.7940  -13.0047   21.6106 C   0  0  0  0  0  0  0  0  0  0  0  0
  -27.6103  -28.4875   20.5613 C   0  0  0  0  0  0  0  0  0  0  0  0
  -23.0881  -10.7635   21.5723 C   0  0  0  0  0  0  0  0  0  0  0  0
  -23.5180   -8.1310   20.7555 C   0  0  0  0  0  0  0  0  0  0  0  0
  -23.2221   -9.7515   22.5228 C   0  0  0  0  0  0  0  0  0  0  0  0
  -26.6526  -15.9087   20.4736 C   0  0  0  0  0  0  0  0  0  0  0  0
  -29.6861  -24.5589   17.1659 C   0  0  0  0  0  0  0  0  0  0  0  0
  -29.3755  -23.3756   18.9929 C   0  0  0  0  0  0  0  0  0  0  0  0
  -28.0902  -17.1407   19.3553 C   0  0  0  0  0  0  0  0  0  0  0  0
  -27.0376  -15.3240   17.9987 C   0  0  0  0  0  0  0  0  0  0  0  0
  -22.4474  -28.3464   22.2310 C   0  0  0  0  0  0  0  0  0  0  0  0
  -22.4058  -25.1860   21.5014 C   0  0  0  0  0  0  0  0  0  0  0  0
  -24.0963  -22.4582   20.3404 C   0  0  0  0  0  0  0  0  0  0  0  0
  -29.1877  -22.2620   21.2448 C   0  0  0  0  0  0  0  0  0  0  0  0
  -18.2154  -28.4599   25.0831 C   0  0  0  0  0  0  0  0  0  0  0  0
  -23.3621  -28.3602   19.8817 C   0  0  0  0  0  0  0  0  0  0  0  0
  -24.6679  -26.3020   21.5560 C   0  0  0  0  0  0  0  0  0  0  0  0
  -19.4367  -27.5502   24.9775 C   0  0  0  0  0  0  0  0  0  0  0  0
  -28.6291  -25.7588   13.9417 C   0  0  0  0  0  0  0  0  0  0  0  0
  -29.6309  -19.5630   23.5243 C   0  0  0  0  0  0  0  0  0  0  0  0
  -20.7195  -28.3756   24.9870 C   0  0  0  0  0  0  0  0  0  0  0  0
  -28.8295  -24.3823   14.6037 C   0  0  0  0  0  0  0  0  0  0  0  0
  -28.8685  -26.3757   15.3332 C   0  0  0  0  0  0  0  0  0  0  0  0
  -28.9440  -18.3851   22.8295 C   0  0  0  0  0  0  0  0  0  0  0  0
  -28.8865  -20.8753   23.2847 C   0  0  0  0  0  0  0  0  0  0  0  0
  -27.9384  -20.0147   21.1801 C   0  0  0  0  0  0  0  0  0  0  0  0
  -20.7715  -29.3280   23.7863 C   0  0  1  0  0  0  0  0  0  0  0  0
  -29.6990  -25.1026   15.6783 C   0  0  0  0  0  0  0  0  0  0  0  0
  -22.5923  -27.5829   20.9450 C   0  0  1  0  0  0  0  0  0  0  0  0
  -28.6877  -18.6816   21.3388 C   0  0  2  0  0  0  0  0  0  0  0  0
  -23.8091  -20.0054   19.8947 C   0  0  0  0  0  0  0  0  0  0  0  0
  -30.9061  -27.2213   21.2686 C   0  0  0  0  0  0  0  0  0  0  0  0
  -22.6136  -24.6207   24.4926 C   0  0  0  0  0  0  0  0  0  0  0  0
  -23.2723  -22.2712   23.9320 C   0  0  0  0  0  0  0  0  0  0  0  0
  -21.0300  -23.1309   23.2568 C   0  0  0  0  0  0  0  0  0  0  0  0
  -24.6453  -22.8004   17.4524 C   0  0  0  0  0  0  0  0  0  0  0  0
  -30.1672  -27.6171   18.8912 C   0  0  0  0  0  0  0  0  0  0  0  0
  -30.9846  -26.4551   18.3087 C   0  0  0  0  0  0  0  0  0  0  0  0
  -23.0898  -23.9545   22.0440 C   0  0  1  0  0  0  0  0  0  0  0  0
  -23.7256  -21.4068   19.3100 C   0  0  2  0  0  0  0  0  0  0  0  0
  -29.7119  -27.3965   20.3391 C   0  0  2  0  0  0  0  0  0  1  0  0
  -22.5163  -23.5163   23.4212 C   0  0  0  0  0  0  0  0  0  0  0  0
  -27.0912  -16.8023   21.3641 N   0  0  0  0  0  0  0  0  0  0  0  0
  -30.0627  -24.4460   19.4004 N   0  0  0  0  0  0  0  0  0  0  0  0
  -30.2366  -25.1465   18.2668 N   0  0  0  0  0  0  0  0  0  0  0  0
  -27.9642  -17.5372   20.6542 N   0  0  0  0  0  0  0  0  0  0  0  0
  -23.2224  -26.3034   21.2768 N   0  0  0  0  0  0  0  0  0  0  0  0
  -28.6835  -21.0917   21.8506 N   0  0  0  0  0  0  0  0  0  0  0  0
  -28.9251  -17.7706   18.5018 N   0  0  0  0  0  0  0  0  0  0  0  0
  -26.1291  -14.2570   18.0191 N   0  0  0  0  0  0  0  0  0  0  0  0
  -28.9628  -22.3429   19.8710 N   0  0  0  0  0  0  0  0  0  0  0  0
  -21.1376  -28.6079   22.5855 N   0  0  0  0  0  0  0  0  0  0  0  0
  -22.9862  -22.9378   21.0028 N   0  0  0  0  0  0  0  0  0  0  0  0
  -24.6440  -21.4829   18.1388 N   0  3  0  0  0  0  0  0  0  0  0  0
  -27.6560  -15.5837   16.9386 O   0  0  0  0  0  0  0  0  0  0  0  0
  -23.4496  -28.6728   22.8561 O   0  0  0  0  0  0  0  0  0  0  0  0
  -21.1931  -25.1554   21.2780 O   0  0  0  0  0  0  0  0  0  0  0  0
  -25.2552  -22.8154   20.5403 O   0  0  0  0  0  0  0  0  0  0  0  0
  -29.7996  -23.1157   21.8919 O   0  0  0  0  0  0  0  0  0  0  0  0
  -22.8739  -12.0707   21.9762 O   0  0  0  0  0  0  0  0  0  0  0  0
  -28.9544  -28.5262   20.7708 O   0  0  0  0  0  0  0  0  0  1  0  0
  -23.7230   -6.8667   20.3632 F   0  0  0  0  0  0  0  0  0  0  0  0
  -23.1440  -10.0374   23.8297 F   0  0  0  0  0  0  0  0  0  0  0  0
  1  2  1  0  0  0  0
  1  5  2  0  0  0  0
  2  6  2  0  0  0  0
  3  8  2  0  0  0  0
  3 16  1  0  0  0  0
  4  9  1  0  0  0  0
  4 16  2  0  0  0  0
  5 18  1  0  0  0  0
  6 20  1  0  0  0  0
  7 10  2  0  0  0  0
  7 19  1  0  0  0  0
  8 22  1  0  0  0  0
  9 22  2  0  0  0  0
 10 23  1  0  0  0  0
 11 12  2  0  0  0  0
 11 24  1  0  0  0  0
 12 25  1  0  0  0  0
 13 21  1  0  0  0  0
 13 23  2  0  0  0  0
 14 25  2  0  0  0  0
 14 26  1  0  0  0  0
 15 28  2  0  0  0  0
 15 29  1  0  0  0  0
 16 27  1  0  0  0  0
 17 27  1  0  0  0  0
 17 30  2  0  0  0  0
 17 31  1  0  0  0  0
 18 20  2  0  0  0  0
 18 36  1  0  0  0  0
 19 21  2  0  0  0  0
 19 37  1  0  0  0  0
 20 48  1  0  0  0  0
 21 38  1  0  0  0  0
 22 81  1  0  0  0  0
 23 82  1  0  0  0  0
 24 26  2  0  0  0  0
 24 81  1  0  0  0  0
 25 83  1  0  0  0  0
 26 84  1  0  0  0  0
 27 64  2  0  0  0  0
 28 49  1  0  0  0  0
 28 66  1  0  0  0  0
 29 65  2  0  0  0  0
 29 72  1  0  0  0  0
 30 67  1  0  0  0  0
 30 70  1  0  0  0  0
 31 71  1  0  0  0  0
 31 76  2  0  0  0  0
 32 50  1  0  0  0  0
 32 73  1  0  0  0  0
 32 77  2  0  0  0  0
 33 60  1  0  0  0  0
 33 68  1  0  0  0  0
 33 78  2  0  0  0  0
 34 61  1  0  0  0  0
 34 74  1  0  0  0  0
 34 79  2  0  0  0  0
 35 69  1  0  0  0  0
 35 72  1  0  0  0  0
 35 80  2  0  0  0  0
 36 39  1  0  0  0  0
 37 50  1  0  0  0  0
 38 68  1  0  0  0  0
 39 42  1  0  0  0  0
 40 43  1  0  0  0  0
 40 44  1  0  0  0  0
 41 45  1  0  0  0  0
 41 46  1  0  0  0  0
 42 48  1  0  0  0  0
 43 49  1  0  0  0  0
 44 49  1  0  0  0  0
 45 51  1  0  0  0  0
 46 69  1  0  0  0  0
 47 51  1  0  0  0  0
 47 69  1  0  0  0  0
 48 73  1  0  0  0  0
 50 68  1  0  0  0  0
 51 67  1  0  0  0  0
 52 61  1  0  0  0  0
 53 62  1  0  0  0  0
 54 63  1  0  0  0  0
 55 63  1  0  0  0  0
 56 63  1  0  0  0  0
 57 75  1  0  0  0  0
 58 59  1  0  0  0  0
 58 62  1  0  0  0  0
 59 66  1  0  0  0  0
 60 63  1  0  0  0  0
 60 74  1  0  0  0  0
 61 75  1  0  0  0  0
 62 82  1  0  0  0  0
 64 67  1  0  0  0  0
 65 66  1  0  0  0  0
M  CHG  1  75   1
M  ISO  4  35 100  62 101  72 100  82 101
M  END
> <Batch ID>
0149

> <Smiles>
CNC(C)C(=O)NC(C(=O)N1Cc2cc([101O:1][101CH:1](C)CCn3nc([100NH:0][100C:0](=O)N4CCCC(n5nc(-c6ccc(Oc7ccc(F)cc7F)cc6)c(C(N)=O)c5N)C4)cc3C3CCC3)ccc2CC1C(=O)NC1CCCc2ccccc21)C(C)(C)C

> <Shape>
0.260

> <Color>
0.071

> <Negative vol penalty>
0.000

$$$$

  -OEChem-04052303193D

 84 93  0     1  0  0  0  0  0999 V2000
  -16.8042  -25.6377   24.2445 C   0  0  0  0  0  0  0  0  0  0  0  0
  -17.9109  -24.8241   24.4653 C   0  0  0  0  0  0  0  0  0  0  0  0
  -22.9991   -9.8950   19.9816 C   0  0  0  0  0  0  0  0  0  0  0  0
  -23.7237   -9.9463   22.2858 C   0  0  0  0  0  0  0  0  0  0  0  0
  -15.8696  -25.2918   23.2694 C   0  0  0  0  0  0  0  0  0  0  0  0
  -18.0830  -23.6635   23.7117 C   0  0  0  0  0  0  0  0  0  0  0  0
  -22.8392  -23.1039   22.0654 C   0  0  0  0  0  0  0  0  0  0  0  0
  -22.2319   -8.7610   20.2481 C   0  0  0  0  0  0  0  0  0  0  0  0
  -22.9564   -8.8123   22.5523 C   0  0  0  0  0  0  0  0  0  0  0  0
  -23.7801  -22.6389   22.9831 C   0  0  0  0  0  0  0  0  0  0  0  0
  -23.1989   -5.4731   22.0816 C   0  0  0  0  0  0  0  0  0  0  0  0
  -23.7857   -4.4558   22.8342 C   0  0  0  0  0  0  0  0  0  0  0  0
  -23.5881  -20.4234   22.0483 C   0  0  0  0  0  0  0  0  0  0  0  0
  -22.0614   -4.7003   24.5089 C   0  0  0  0  0  0  0  0  0  0  0  0
  -31.8697  -17.3346   21.6007 C   0  0  0  0  0  0  0  0  0  0  0  0
  -23.7451  -10.4876   21.0005 C   0  0  0  0  0  0  0  0  0  0  0  0
  -24.1319  -13.0029   20.8237 C   0  0  0  0  0  0  0  0  0  0  0  0
  -16.0354  -24.1315   22.4969 C   0  0  0  0  0  0  0  0  0  0  0  0
  -22.2566  -22.2283   21.1378 C   0  0  0  0  0  0  0  0  0  0  0  0
  -17.1490  -23.3011   22.7262 C   0  0  0  0  0  0  0  0  0  0  0  0
  -22.6420  -20.8803   21.1182 C   0  0  0  0  0  0  0  0  0  0  0  0
  -29.9186  -17.8300   22.7085 C   0  0  0  0  0  0  0  0  0  0  0  0
  -30.5967  -16.8839   21.9137 C   0  0  0  0  0  0  0  0  0  0  0  0
  -22.2105   -8.2197   21.5334 C   0  0  0  0  0  0  0  0  0  0  0  0
  -24.1525  -21.2979   22.9766 C   0  0  0  0  0  0  0  0  0  0  0  0
  -22.0435   -6.1041   22.5426 C   0  0  0  0  0  0  0  0  0  0  0  0
  -23.2169   -4.0694   24.0478 C   0  0  0  0  0  0  0  0  0  0  0  0
  -21.4747   -5.7176   23.7562 C   0  0  0  0  0  0  0  0  0  0  0  0
  -24.5383  -11.6587   20.7257 C   0  0  0  0  0  0  0  0  0  0  0  0
  -30.6811  -18.9346   22.9619 C   0  0  0  0  0  0  0  0  0  0  0  0
  -25.2422  -13.7248   20.4594 C   0  0  0  0  0  0  0  0  0  0  0  0
  -22.8641  -13.5502   21.2097 C   0  0  0  0  0  0  0  0  0  0  0  0
  -19.2975  -21.2272   20.5501 C   0  0  0  0  0  0  0  0  0  0  0  0
  -20.7057  -19.7922   18.0044 C   0  0  0  0  0  0  0  0  0  0  0  0
  -27.6965  -19.8814   24.7491 C   0  0  0  0  0  0  0  0  0  0  0  0
  -23.5456  -18.5276   16.5964 C   0  0  0  0  0  0  0  0  0  0  0  0
  -30.7221  -14.6829   20.6945 C   0  0  0  0  0  0  0  0  0  0  0  0
  -14.9739  -23.7740   21.4869 C   0  0  0  0  0  0  0  0  0  0  0  0
  -21.2630  -22.7512   20.1369 C   0  0  0  0  0  0  0  0  0  0  0  0
  -22.0612  -19.9038   20.1294 C   0  0  0  0  0  0  0  0  0  0  0  0
  -28.5902  -17.9391   23.3414 C   0  0  0  0  0  0  0  0  0  0  0  0
  -30.0037  -19.9455   23.7884 C   0  0  0  0  0  0  0  0  0  0  0  0
  -15.4254  -22.7248   20.4742 C   0  0  0  0  0  0  0  0  0  0  0  0
  -29.6032  -12.2297   18.3693 C   0  0  0  0  0  0  0  0  0  0  0  0
  -16.1244  -21.5674   21.1804 C   0  0  0  0  0  0  0  0  0  0  0  0
  -28.1523  -11.9730   18.7831 C   0  0  0  0  0  0  0  0  0  0  0  0
  -30.5034  -12.4731   19.5792 C   0  0  0  0  0  0  0  0  0  0  0  0
  -28.5881  -13.2636   20.9119 C   0  0  0  0  0  0  0  0  0  0  0  0
  -17.3836  -22.0472   21.9122 C   0  0  1  0  0  0  0  0  0  0  0  0
  -20.3533  -21.6635   19.5739 C   0  0  1  0  0  0  0  0  0  0  0  0
  -27.6307  -13.0773   19.7234 C   0  0  2  0  0  0  0  0  0  0  0  0
  -24.3759  -17.3866   14.5213 C   0  0  0  0  0  0  0  0  0  0  0  0
  -19.4499  -17.1749   18.9441 C   0  0  0  0  0  0  0  0  0  0  0  0
  -21.0415  -15.9543   17.4458 C   0  0  0  0  0  0  0  0  0  0  0  0
  -19.3785  -17.5374   16.4706 C   0  0  0  0  0  0  0  0  0  0  0  0
  -25.4072  -20.7449   15.9823 C   0  0  0  0  0  0  0  0  0  0  0  0
  -25.4054  -19.4556   23.8086 C   0  0  0  0  0  0  0  0  0  1  0  0
  -21.3540  -18.4516   17.7565 C   0  0  1  0  0  0  0  0  0  0  0  0
  -26.4178  -19.0948   24.8857 C   0  0  2  0  0  0  0  0  0  0  0  0
  -24.1596  -18.7192   15.2214 C   0  0  2  0  0  0  0  0  0  0  0  0
  -20.3157  -17.2973   17.6742 C   0  0  0  0  0  0  0  0  0  0  0  0
  -25.8076  -11.5313   20.3299 N   0  0  0  0  0  0  0  0  0  0  0  0
  -26.2084  -12.8048   20.1760 N   0  0  0  0  0  0  0  0  0  0  0  0
  -28.6937  -19.2752   24.0003 N   0  0  0  0  0  0  0  0  0  0  0  0
  -21.0889  -20.4619   19.1751 N   0  0  0  0  0  0  0  0  0  0  0  0
  -29.9487  -13.5347   20.4219 N   0  0  0  0  0  0  0  0  0  0  0  0
  -25.4764  -15.0503   20.3570 N   0  0  0  0  0  0  0  0  0  0  0  0
  -21.8317  -12.6668   21.5532 N   0  0  0  0  0  0  0  0  0  0  0  0
  -30.0781  -15.6388   21.4795 N   0  0  0  0  0  0  0  0  0  0  0  0
  -18.4677  -22.2474   20.9745 N   0  0  0  0  0  0  0  0  0  0  0  0
  -22.1696  -18.6083   16.5570 N   0  0  0  0  0  0  0  0  0  0  0  0
  -25.8280  -19.3446   26.2265 N   0  3  0  0  0  0  0  0  0  0  0  0
  -25.4752  -19.4103   15.3333 N   0  3  0  0  0  0  0  0  0  0  0  0
  -22.6481  -14.7856   21.2330 O   0  0  0  0  0  0  0  0  0  0  0  0
  -19.2392  -20.0518   20.8916 O   0  0  0  0  0  0  0  0  0  0  0  0
  -19.8946  -20.2324   17.1858 O   0  0  0  0  0  0  0  0  0  0  0  0
  -27.8108  -20.9865   25.2817 O   0  0  0  0  0  0  0  0  0  0  0  0
  -24.2190  -18.3229   17.6040 O   0  0  0  0  0  0  0  0  0  0  0  0
  -31.8609  -14.8211   20.2408 O   0  0  0  0  0  0  0  0  0  0  0  0
  -21.4617   -7.1133   21.7939 O   0  0  0  0  0  0  0  0  0  0  0  0
  -25.0702  -20.8412   23.8717 O   0  0  0  0  0  0  0  0  0  1  0  0
  -23.7796   -3.0914   24.7697 F   0  0  0  0  0  0  0  0  0  0  0  0
  -20.3640   -6.3193   24.2037 F   0  0  0  0  0  0  0  0  0  0  0  0
  -32.2054  -18.8919   22.2784 S   0  0  0  0  0  0  0  0  0  0  0  0
  1  2  1  0  0  0  0
  1  5  2  0  0  0  0
  2  6  2  0  0  0  0
  3  8  2  0  0  0  0
  3 16  1  0  0  0  0
  4  9  1  0  0  0  0
  4 16  2  0  0  0  0
  5 18  1  0  0  0  0
  6 20  1  0  0  0  0
  7 10  2  0  0  0  0
  7 19  1  0  0  0  0
  8 24  1  0  0  0  0
  9 24  2  0  0  0  0
 10 25  1  0  0  0  0
 11 12  2  0  0  0  0
 11 26  1  0  0  0  0
 12 27  1  0  0  0  0
 13 21  1  0  0  0  0
 13 25  2  0  0  0  0
 14 27  2  0  0  0  0
 14 28  1  0  0  0  0
 15 23  2  0  0  0  0
 15 84  1  0  0  0  0
 16 29  1  0  0  0  0
 17 29  1  0  0  0  0
 17 31  2  0  0  0  0
 17 32  1  0  0  0  0
 18 20  2  0  0  0  0
 18 38  1  0  0  0  0
 19 21  2  0  0  0  0
 19 39  1  0  0  0  0
 20 49  1  0  0  0  0
 21 40  1  0  0  0  0
 22 23  1  0  0  0  0
 22 30  2  0  0  0  0
 22 41  1  0  0  0  0
 23 69  1  0  0  0  0
 24 80  1  0  0  0  0
 25 81  1  0  0  0  0
 26 28  2  0  0  0  0
 26 80  1  0  0  0  0
 27 82  1  0  0  0  0
 28 83  1  0  0  0  0
 29 62  2  0  0  0  0
 30 42  1  0  0  0  0
 30 84  1  0  0  0  0
 31 63  1  0  0  0  0
 31 67  1  0  0  0  0
 32 68  1  0  0  0  0
 32 74  2  0  0  0  0
 33 50  1  0  0  0  0
 33 70  1  0  0  0  0
 33 75  2  0  0  0  0
 34 58  1  0  0  0  0
 34 65  1  0  0  0  0
 34 76  2  0  0  0  0
 35 59  1  0  0  0  0
 35 64  1  0  0  0  0
 35 77  2  0  0  0  0
 36 60  1  0  0  0  0
 36 71  1  0  0  0  0
 36 78  2  0  0  0  0
 37 66  1  0  0  0  0
 37 69  1  0  0  0  0
 37 79  2  0  0  0  0
 38 43  1  0  0  0  0
 39 50  1  0  0  0  0
 40 65  1  0  0  0  0
 41 64  1  0  0  0  0
 42 64  1  0  0  0  0
 43 45  1  0  0  0  0
 44 46  1  0  0  0  0
 44 47  1  0  0  0  0
 45 49  1  0  0  0  0
 46 51  1  0  0  0  0
 47 66  1  0  0  0  0
 48 51  1  0  0  0  0
 48 66  1  0  0  0  0
 49 70  1  0  0  0  0
 50 65  1  0  0  0  0
 51 63  1  0  0  0  0
 52 60  1  0  0  0  0
 53 61  1  0  0  0  0
 54 61  1  0  0  0  0
 55 61  1  0  0  0  0
 56 73  1  0  0  0  0
 57 59  1  0  0  0  0
 57 81  1  0  0  0  0
 58 61  1  0  0  0  0
 58 71  1  0  0  0  0
 59 72  1  0  0  0  0
 60 73  1  0  0  0  0
 62 63  1  0  0  0  0
M  CHG  2  72   1  73   1
M  ISO  4  37 100  57 101  69 100  81 101
M  END
> <Batch ID>
0149

> <Smiles>
CNC(C)C(=O)NC(C(=O)N1Cc2cc([101O:1][101CH2:1]C(N)C(=O)N3Cc4scc([100NH:0][100C:0](=O)N5CCCC(n6nc(-c7ccc(Oc8ccc(F)cc8F)cc7)c(C(N)=O)c6N)C5)c4C3)ccc2CC1C(=O)NC1CCCc2ccccc21)C(C)(C)C

> <Shape>
0.177

> <Color>
0.189

> <Negative vol penalty>
0.000

$$$$

  -OEChem-04052303193D

 83 91  0     1  0  0  0  0  0999 V2000
  -30.4328  -24.9226   13.0531 C   0  0  0  0  0  0  0  0  0  0  0  0
  -30.6405  -24.6139   14.3936 C   0  0  0  0  0  0  0  0  0  0  0  0
  -23.0735   -9.8696   19.9414 C   0  0  0  0  0  0  0  0  0  0  0  0
  -23.8309   -9.8780   22.2356 C   0  0  0  0  0  0  0  0  0  0  0  0
  -30.6195  -23.9449   12.0768 C   0  0  0  0  0  0  0  0  0  0  0  0
  -31.0339  -23.3269   14.7587 C   0  0  0  0  0  0  0  0  0  0  0  0
  -34.7706  -23.3338   18.1766 C   0  0  0  0  0  0  0  0  0  0  0  0
  -22.3285   -8.7172   20.1916 C   0  0  0  0  0  0  0  0  0  0  0  0
  -23.0859   -8.7257   22.4858 C   0  0  0  0  0  0  0  0  0  0  0  0
  -34.4216  -23.5951   19.5009 C   0  0  0  0  0  0  0  0  0  0  0  0
  -19.3781   -7.9241   21.6404 C   0  0  0  0  0  0  0  0  0  0  0  0
  -18.0717   -7.8784   21.1538 C   0  0  0  0  0  0  0  0  0  0  0  0
  -31.8858  -18.8097   22.3710 C   0  0  0  0  0  0  0  0  0  0  0  0
  -31.7981  -17.5500   21.7111 C   0  0  0  0  0  0  0  0  0  0  0  0
  -34.4886  -21.2314   19.9785 C   0  0  0  0  0  0  0  0  0  0  0  0
  -18.6314   -5.9338   19.8339 C   0  0  0  0  0  0  0  0  0  0  0  0
  -23.8248  -10.4500   20.9634 C   0  0  0  0  0  0  0  0  0  0  0  0
  -24.1686  -12.9748   20.8415 C   0  0  0  0  0  0  0  0  0  0  0  0
  -31.0248  -22.6479   12.4292 C   0  0  0  0  0  0  0  0  0  0  0  0
  -34.9708  -22.0164   17.7399 C   0  0  0  0  0  0  0  0  0  0  0  0
  -31.2249  -22.3306   13.7863 C   0  0  0  0  0  0  0  0  0  0  0  0
  -34.8425  -20.9564   18.6487 C   0  0  0  0  0  0  0  0  0  0  0  0
  -22.3347   -8.1453   21.4637 C   0  0  0  0  0  0  0  0  0  0  0  0
  -34.2778  -22.5436   20.4014 C   0  0  0  0  0  0  0  0  0  0  0  0
  -20.3112   -6.9747   21.2237 C   0  0  0  0  0  0  0  0  0  0  0  0
  -17.6983   -6.8833   20.2506 C   0  0  0  0  0  0  0  0  0  0  0  0
  -19.9378   -5.9795   20.3205 C   0  0  0  0  0  0  0  0  0  0  0  0
  -24.5950  -11.6401   20.7054 C   0  0  0  0  0  0  0  0  0  0  0  0
  -30.7376  -19.1082   23.0710 C   0  0  0  0  0  0  0  0  0  0  0  0
  -25.2617  -13.7231   20.4787 C   0  0  0  0  0  0  0  0  0  0  0  0
  -30.5861  -16.9335   21.9320 C   0  0  0  0  0  0  0  0  0  0  0  0
  -22.8981  -13.4919   21.2586 C   0  0  0  0  0  0  0  0  0  0  0  0
  -30.4275  -20.3152   23.8876 C   0  0  0  0  0  0  0  0  0  0  0  0
  -33.5847  -20.1314   15.5884 C   0  0  0  0  0  0  0  0  0  0  0  0
  -31.3095  -22.5383   23.0090 C   0  0  0  0  0  0  0  0  0  0  0  0
  -36.0079  -18.1191   16.3639 C   0  0  0  0  0  0  0  0  0  0  0  0
  -38.3366  -17.1368   18.6572 C   0  0  0  0  0  0  0  0  0  0  0  0
  -30.7285  -14.7647   20.6584 C   0  0  0  0  0  0  0  0  0  0  0  0
  -31.1679  -21.6117   11.3428 C   0  0  0  0  0  0  0  0  0  0  0  0
  -35.3729  -21.7534   16.3146 C   0  0  0  0  0  0  0  0  0  0  0  0
  -35.0663  -19.5256   18.2349 C   0  0  0  0  0  0  0  0  0  0  0  0
  -31.9485  -20.3748   11.7798 C   0  0  0  0  0  0  0  0  0  0  0  0
  -29.6148  -12.3498   18.2909 C   0  0  0  0  0  0  0  0  0  0  0  0
  -31.4579  -19.8867   13.1392 C   0  0  0  0  0  0  0  0  0  0  0  0
  -28.1744  -12.0596   18.7192 C   0  0  0  0  0  0  0  0  0  0  0  0
  -30.5288  -12.5788   19.4933 C   0  0  0  0  0  0  0  0  0  0  0  0
  -28.6209  -13.3059   20.8720 C   0  0  0  0  0  0  0  0  0  0  0  0
  -31.6760  -20.9526   14.2197 C   0  0  1  0  0  0  0  0  0  0  0  0
  -35.0494  -20.3353   15.8545 C   0  0  1  0  0  0  0  0  0  0  0  0
  -27.6492  -13.1324   19.6933 C   0  0  2  0  0  0  0  0  0  0  0  0
  -40.1482  -15.4390   19.0219 C   0  0  0  0  0  0  0  0  0  0  0  0
  -33.8955  -15.9852   16.9062 C   0  0  0  0  0  0  0  0  0  0  0  0
  -35.6349  -14.6770   18.1436 C   0  0  0  0  0  0  0  0  0  0  0  0
  -35.9322  -15.1577   15.7140 C   0  0  0  0  0  0  0  0  0  0  0  0
  -40.4107  -19.2330   18.9087 C   0  0  0  0  0  0  0  0  0  0  0  0
  -31.4540  -21.4244   24.0283 C   0  0  0  0  0  0  0  0  0  0  0  0
  -32.2701  -23.7074   23.1715 C   0  0  0  0  0  0  0  0  0  0  0  0
  -33.1309  -23.9474   21.9408 C   0  0  0  0  0  0  0  0  0  1  0  0
  -36.2062  -17.0302   17.3905 C   0  0  1  0  0  0  0  0  0  0  0  0
  -39.8188  -16.8373   18.5228 C   0  0  2  0  0  0  0  0  0  0  0  0
  -35.4110  -15.7392   17.0462 C   0  0  0  0  0  0  0  0  0  0  0  0
  -25.8602  -11.5429   20.2885 N   0  0  0  0  0  0  0  0  0  0  0  0
  -29.2765  -20.4319   24.4713 N   0  0  0  0  0  0  0  0  0  0  0  0
  -26.2383  -12.8261   20.1595 N   0  0  0  0  0  0  0  0  0  0  0  0
  -35.4518  -19.3192   16.8291 N   0  0  0  0  0  0  0  0  0  0  0  0
  -29.9697  -13.6108   20.3693 N   0  0  0  0  0  0  0  0  0  0  0  0
  -25.4732  -15.0544   20.4048 N   0  0  0  0  0  0  0  0  0  0  0  0
  -21.8851  -12.5838   21.5956 N   0  0  0  0  0  0  0  0  0  0  0  0
  -30.0810  -15.6909   21.4753 N   0  0  0  0  0  0  0  0  0  0  0  0
  -33.0636  -20.9797   14.6301 N   0  0  0  0  0  0  0  0  0  0  0  0
  -37.6473  -16.8323   17.5025 N   0  0  0  0  0  0  0  0  0  0  0  0
  -40.6188  -17.8179   19.3099 N   0  3  0  0  0  0  0  0  0  0  0  0
  -22.6627  -14.7228   21.3146 O   0  0  0  0  0  0  0  0  0  0  0  0
  -32.9731  -19.2673   16.2056 O   0  0  0  0  0  0  0  0  0  0  0  0
  -30.4649  -22.4960   22.1158 O   0  0  0  0  0  0  0  0  0  0  0  0
  -36.3410  -17.9151   15.1938 O   0  0  0  0  0  0  0  0  0  0  0  0
  -37.8395  -17.5917   19.6850 O   0  0  0  0  0  0  0  0  0  0  0  0
  -31.8583  -14.9321   20.1918 O   0  0  0  0  0  0  0  0  0  0  0  0
  -21.6076   -7.0209   21.7083 O   0  0  0  0  0  0  0  0  0  0  0  0
  -33.9366  -22.7957   21.6944 O   0  0  0  0  0  0  0  0  0  1  0  0
  -16.4433   -6.8386   19.7846 F   0  0  0  0  0  0  0  0  0  0  0  0
  -20.8295   -5.0639   19.9174 F   0  0  0  0  0  0  0  0  0  0  0  0
  -29.5604  -17.8725   22.9312 S   0  0  0  0  0  0  0  0  0  0  0  0
  1  2  1  0  0  0  0
  1  5  2  0  0  0  0
  2  6  2  0  0  0  0
  3  8  2  0  0  0  0
  3 17  1  0  0  0  0
  4  9  1  0  0  0  0
  4 17  2  0  0  0  0
  5 19  1  0  0  0  0
  6 21  1  0  0  0  0
  7 10  2  0  0  0  0
  7 20  1  0  0  0  0
  8 23  1  0  0  0  0
  9 23  2  0  0  0  0
 10 24  1  0  0  0  0
 11 12  2  0  0  0  0
 11 25  1  0  0  0  0
 12 26  1  0  0  0  0
 13 14  1  0  0  0  0
 13 29  2  0  0  0  0
 14 31  2  0  0  0  0
 15 22  1  0  0  0  0
 15 24  2  0  0  0  0
 16 26  2  0  0  0  0
 16 27  1  0  0  0  0
 17 28  1  0  0  0  0
 18 28  1  0  0  0  0
 18 30  2  0  0  0  0
 18 32  1  0  0  0  0
 19 21  2  0  0  0  0
 19 39  1  0  0  0  0
 20 22  2  0  0  0  0
 20 40  1  0  0  0  0
 21 48  1  0  0  0  0
 22 41  1  0  0  0  0
 23 79  1  0  0  0  0
 24 80  1  0  0  0  0
 25 27  2  0  0  0  0
 25 79  1  0  0  0  0
 26 81  1  0  0  0  0
 27 82  1  0  0  0  0
 28 62  2  0  0  0  0
 29 33  1  0  0  0  0
 29 83  1  0  0  0  0
 30 64  1  0  0  0  0
 30 67  1  0  0  0  0
 31 69  1  0  0  0  0
 31 83  1  0  0  0  0
 32 68  1  0  0  0  0
 32 73  2  0  0  0  0
 33 56  1  0  0  0  0
 33 63  2  0  0  0  0
 34 49  1  0  0  0  0
 34 70  1  0  0  0  0
 34 74  2  0  0  0  0
 35 56  1  0  0  0  0
 35 57  1  0  0  0  0
 35 75  2  0  0  0  0
 36 59  1  0  0  0  0
 36 65  1  0  0  0  0
 36 76  2  0  0  0  0
 37 60  1  0  0  0  0
 37 71  1  0  0  0  0
 37 77  2  0  0  0  0
 38 66  1  0  0  0  0
 38 69  1  0  0  0  0
 38 78  2  0  0  0  0
 39 42  1  0  0  0  0
 40 49  1  0  0  0  0
 41 65  1  0  0  0  0
 42 44  1  0  0  0  0
 43 45  1  0  0  0  0
 43 46  1  0  0  0  0
 44 48  1  0  0  0  0
 45 50  1  0  0  0  0
 46 66  1  0  0  0  0
 47 50  1  0  0  0  0
 47 66  1  0  0  0  0
 48 70  1  0  0  0  0
 49 65  1  0  0  0  0
 50 64  1  0  0  0  0
 51 60  1  0  0  0  0
 52 61  1  0  0  0  0
 53 61  1  0  0  0  0
 54 61  1  0  0  0  0
 55 72  1  0  0  0  0
 57 58  1  0  0  0  0
 58 80  1  0  0  0  0
 59 61  1  0  0  0  0
 59 71  1  0  0  0  0
 60 72  1  0  0  0  0
 62 64  1  0  0  0  0
M  CHG  1  72   1
M  ISO  4  38 100  58 101  69 100  80 101
M  END
> <Batch ID>
0149

> <Smiles>
CNC(C)C(=O)NC(C(=O)N1Cc2cc([101O:1][101CH2:1]CC(=O)CC(=N)c3ccc([100NH:0][100C:0](=O)N4CCCC(n5nc(-c6ccc(Oc7ccc(F)cc7F)cc6)c(C(N)=O)c5N)C4)s3)ccc2CC1C(=O)NC1CCCc2ccccc21)C(C)(C)C

> <Shape>
0.151

> <Color>
0.187

> <Negative vol penalty>
0.000

$$$$

  -OEChem-04052303193D

 84 93  0     1  0  0  0  0  0999 V2000
  -27.8672  -34.0815   24.8159 C   0  0  0  0  0  0  0  0  0  0  0  0
  -28.0628  -32.8160   24.2723 C   0  0  0  0  0  0  0  0  0  0  0  0
  -22.4571  -10.3173   21.8369 C   0  0  0  0  0  0  0  0  0  0  0  0
  -24.5539   -9.6862   20.8162 C   0  0  0  0  0  0  0  0  0  0  0  0
  -26.6299  -34.4208   25.3618 C   0  0  0  0  0  0  0  0  0  0  0  0
  -27.0216  -31.8885   24.2752 C   0  0  0  0  0  0  0  0  0  0  0  0
  -26.5460  -29.4875   19.8420 C   0  0  0  0  0  0  0  0  0  0  0  0
  -22.0270   -8.9920   21.7728 C   0  0  0  0  0  0  0  0  0  0  0  0
  -24.1239   -8.3609   20.7521 C   0  0  0  0  0  0  0  0  0  0  0  0
  -27.4501  -28.4607   19.5738 C   0  0  0  0  0  0  0  0  0  0  0  0
  -22.5210   -6.1266   23.4986 C   0  0  0  0  0  0  0  0  0  0  0  0
  -21.9052   -5.5895   24.6291 C   0  0  0  0  0  0  0  0  0  0  0  0
  -25.7849  -26.8359   20.2115 C   0  0  0  0  0  0  0  0  0  0  0  0
  -19.9036   -5.1742   23.3414 C   0  0  0  0  0  0  0  0  0  0  0  0
  -28.8264  -19.6600   18.6003 C   0  0  0  0  0  0  0  0  0  0  0  0
  -23.7205  -10.6645   21.3585 C   0  0  0  0  0  0  0  0  0  0  0  0
  -24.8644  -12.6507   22.4784 C   0  0  0  0  0  0  0  0  0  0  0  0
  -25.5700  -33.5003   25.3627 C   0  0  0  0  0  0  0  0  0  0  0  0
  -25.2559  -29.1961   20.3082 C   0  0  0  0  0  0  0  0  0  0  0  0
  -25.7694  -32.2153   24.8229 C   0  0  0  0  0  0  0  0  0  0  0  0
  -24.8655  -27.8608   20.4824 C   0  0  0  0  0  0  0  0  0  0  0  0
  -22.8604   -8.0138   21.2304 C   0  0  0  0  0  0  0  0  0  0  0  0
  -27.0707  -27.1348   19.7613 C   0  0  0  0  0  0  0  0  0  0  0  0
  -21.8281   -6.1876   22.2896 C   0  0  0  0  0  0  0  0  0  0  0  0
  -20.5965   -5.1133   24.5505 C   0  0  0  0  0  0  0  0  0  0  0  0
  -20.5194   -5.7114   22.2109 C   0  0  0  0  0  0  0  0  0  0  0  0
  -24.1651  -12.0335   21.4240 C   0  0  0  0  0  0  0  0  0  0  0  0
  -30.0115  -20.0741   19.2326 C   0  0  0  0  0  0  0  0  0  0  0  0
  -25.0495  -13.9447   22.0566 C   0  0  0  0  0  0  0  0  0  0  0  0
  -28.5419  -18.4597   19.1958 C   0  0  0  0  0  0  0  0  0  0  0  0
  -29.3512  -23.0146   19.9217 C   0  0  0  0  0  0  0  0  0  0  0  0
  -29.1549  -24.2581   20.3947 C   0  0  0  0  0  0  0  0  0  0  0  0
  -25.3072  -12.1033   23.7274 C   0  0  0  0  0  0  0  0  0  0  0  0
  -23.6266  -29.8529   22.9573 C   0  0  0  0  0  0  0  0  0  0  0  0
  -21.1859  -28.4625   21.3349 C   0  0  0  0  0  0  0  0  0  0  0  0
  -20.1937  -26.3149   18.8752 C   0  0  0  0  0  0  0  0  0  0  0  0
  -26.4188  -17.6355   18.1189 C   0  0  0  0  0  0  0  0  0  0  0  0
  -24.2651  -33.8965   26.0068 C   0  0  0  0  0  0  0  0  0  0  0  0
  -24.2836  -30.3141   20.5673 C   0  0  0  0  0  0  0  0  0  0  0  0
  -23.4855  -27.4941   20.9616 C   0  0  0  0  0  0  0  0  0  0  0  0
  -30.2388  -25.0792   21.0437 C   0  0  0  0  0  0  0  0  0  0  0  0
  -23.0997  -32.9841   25.6330 C   0  0  0  0  0  0  0  0  0  0  0  0
  -31.5383  -24.3083   21.2504 C   0  0  0  0  0  0  0  0  0  0  0  0
  -23.0633  -16.4450   18.1291 C   0  0  0  0  0  0  0  0  0  0  0  0
  -23.5100  -31.5195   25.7485 C   0  0  0  0  0  0  0  0  0  0  0  0
  -23.1083  -15.2419   19.0740 C   0  0  0  0  0  0  0  0  0  0  0  0
  -24.3373  -16.5580   17.2937 C   0  0  0  0  0  0  0  0  0  0  0  0
  -25.6323  -15.3542   19.0092 C   0  0  0  0  0  0  0  0  0  0  0  0
  -31.7757  -23.3302   20.1131 C   0  0  0  0  0  0  0  0  0  0  0  0
  -24.6567  -31.1902   24.7851 C   0  0  1  0  0  0  0  0  0  0  0  0
  -23.1656  -29.9228   21.5289 C   0  0  1  0  0  0  0  0  0  0  0  0
  -24.3979  -15.2363   19.9181 C   0  0  2  0  0  0  0  0  0  0  0  0
  -18.1337  -25.3563   17.8100 C   0  0  0  0  0  0  0  0  0  0  0  0
  -20.8022  -26.6225   23.7384 C   0  0  0  0  0  0  0  0  0  0  0  0
  -19.4277  -25.1207   22.2812 C   0  0  0  0  0  0  0  0  0  0  0  0
  -18.6789  -27.4600   22.7164 C   0  0  0  0  0  0  0  0  0  0  0  0
  -20.8850  -27.4603   16.2353 C   0  0  0  0  0  0  0  0  0  0  0  0
  -30.7952  -21.3292   18.9848 C   0  0  0  0  0  0  0  0  0  0  0  0
  -27.8200  -24.9358   20.2698 C   0  0  0  0  0  0  0  0  0  1  0  0
  -20.6586  -27.0547   21.1971 C   0  0  1  0  0  0  0  0  0  0  0  0
  -19.1755  -26.4630   17.7590 C   0  0  2  0  0  0  0  0  0  0  0  0
  -19.9185  -26.5711   22.4761 C   0  0  0  0  0  0  0  0  0  0  0  0
  -23.9223  -12.8668   20.4088 N   0  0  0  0  0  0  0  0  0  0  0  0
  -30.4299  -19.1978   20.1500 N   0  0  0  0  0  0  0  0  0  0  0  0
  -24.4720  -14.0209   20.8234 N   0  0  0  0  0  0  0  0  0  0  0  0
  -22.5729  -28.6230   21.2074 N   0  0  0  0  0  0  0  0  0  0  0  0
  -25.5176  -16.5507   18.1606 N   0  0  0  0  0  0  0  0  0  0  0  0
  -25.6481  -15.0133   22.6241 N   0  0  0  0  0  0  0  0  0  0  0  0
  -25.0340  -10.7561   24.0008 N   0  0  0  0  0  0  0  0  0  0  0  0
  -27.4859  -17.5332   19.0108 N   0  0  0  0  0  0  0  0  0  0  0  0
  -24.1553  -31.0363   23.4363 N   0  0  0  0  0  0  0  0  0  0  0  0
  -19.8377  -27.0425   19.9911 N   0  0  0  0  0  0  0  0  0  0  0  0
  -30.6216  -22.3563   20.0696 N   0  3  2  0  0  0  0  0  0  0  0  0
  -19.8510  -26.4119   16.4316 N   0  3  0  0  0  0  0  0  0  0  0  0
  -25.9123  -12.7929   24.5829 O   0  0  0  0  0  0  0  0  0  0  0  0
  -23.5098  -28.8035   23.5792 O   0  0  0  0  0  0  0  0  0  0  0  0
  -20.3954  -29.3869   21.5408 O   0  0  0  0  0  0  0  0  0  0  0  0
  -21.2020  -25.6201   18.7692 O   0  0  0  0  0  0  0  0  0  0  0  0
  -26.2413  -18.5981   17.3680 O   0  0  0  0  0  0  0  0  0  0  0  0
  -29.4916  -18.1730   20.1225 O   0  0  0  0  0  0  0  0  0  0  0  0
  -22.4411   -6.7203   21.1680 O   0  0  0  0  0  0  0  0  0  0  0  0
  -27.9514  -26.1307   19.5008 O   0  0  0  0  0  0  0  0  0  1  0  0
  -20.0058   -4.5962   25.6357 F   0  0  0  0  0  0  0  0  0  0  0  0
  -19.8491   -5.7662   21.0518 F   0  0  0  0  0  0  0  0  0  0  0  0
  1  2  1  0  0  0  0
  1  5  2  0  0  0  0
  2  6  2  0  0  0  0
  3  8  2  0  0  0  0
  3 16  1  0  0  0  0
  4  9  1  0  0  0  0
  4 16  2  0  0  0  0
  5 18  1  0  0  0  0
  6 20  1  0  0  0  0
  7 10  2  0  0  0  0
  7 19  1  0  0  0  0
  8 22  1  0  0  0  0
  9 22  2  0  0  0  0
 10 23  1  0  0  0  0
 11 12  2  0  0  0  0
 11 24  1  0  0  0  0
 12 25  1  0  0  0  0
 13 21  1  0  0  0  0
 13 23  2  0  0  0  0
 14 25  2  0  0  0  0
 14 26  1  0  0  0  0
 15 28  1  0  0  0  0
 15 30  2  0  0  0  0
 16 27  1  0  0  0  0
 17 27  1  0  0  0  0
 17 29  2  0  0  0  0
 17 33  1  0  0  0  0
 18 20  2  0  0  0  0
 18 38  1  0  0  0  0
 19 21  2  0  0  0  0
 19 39  1  0  0  0  0
 20 50  1  0  0  0  0
 21 40  1  0  0  0  0
 22 81  1  0  0  0  0
 23 82  1  0  0  0  0
 24 26  2  0  0  0  0
 24 81  1  0  0  0  0
 25 83  1  0  0  0  0
 26 84  1  0  0  0  0
 27 63  2  0  0  0  0
 28 58  1  0  0  0  0
 28 64  2  0  0  0  0
 29 65  1  0  0  0  0
 29 68  1  0  0  0  0
 30 70  1  0  0  0  0
 30 80  1  0  0  0  0
 31 32  2  0  0  0  0
 31 73  1  0  0  0  0
 32 41  1  0  0  0  0
 32 59  1  0  0  0  0
 33 69  1  0  0  0  0
 33 75  2  0  0  0  0
 34 51  1  0  0  0  0
 34 71  1  0  0  0  0
 34 76  2  0  0  0  0
 35 60  1  0  0  0  0
 35 66  1  0  0  0  0
 35 77  2  0  0  0  0
 36 61  1  0  0  0  0
 36 72  1  0  0  0  0
 36 78  2  0  0  0  0
 37 67  1  0  0  0  0
 37 70  1  0  0  0  0
 37 79  2  0  0  0  0
 38 42  1  0  0  0  0
 39 51  1  0  0  0  0
 40 66  1  0  0  0  0
 41 43  1  0  0  0  0
 42 45  1  0  0  0  0
 43 49  1  0  0  0  0
 44 46  1  0  0  0  0
 44 47  1  0  0  0  0
 45 50  1  0  0  0  0
 46 52  1  0  0  0  0
 47 67  1  0  0  0  0
 48 52  1  0  0  0  0
 48 67  1  0  0  0  0
 49 73  1  0  0  0  0
 50 71  1  0  0  0  0
 51 66  1  0  0  0  0
 52 65  1  0  0  0  0
 53 61  1  0  0  0  0
 54 62  1  0  0  0  0
 55 62  1  0  0  0  0
 56 62  1  0  0  0  0
 57 74  1  0  0  0  0
 58 73  1  0  0  0  0
 59 82  1  0  0  0  0
 60 62  1  0  0  0  0
 60 72  1  0  0  0  0
 61 74  1  0  0  0  0
 63 65  1  0  0  0  0
 64 80  1  0  0  0  0
M  CHG  2  73   1  74   1
M  ISO  4  37 100  59 101  70 100  82 101
M  END
> <Batch ID>
0149

> <Smiles>
CNC(C)C(=O)NC(C(=O)N1Cc2cc([101O:1][101CH2:1]C3=CN(Cc4cc([100NH:0][100C:0](=O)N5CCCC(n6nc(-c7ccc(Oc8ccc(F)cc8F)cc7)c(C(N)=O)c6N)C5)on4)CCC3)ccc2CC1C(=O)NC1CCCc2ccccc21)C(C)(C)C

> <Shape>
0.300

> <Color>
0.094

> <Negative vol penalty>
0.000

$$$$

  -OEChem-04052303193D

 85 94  0     1  0  0  0  0  0999 V2000
  -27.6342  -37.6446   19.9801 C   0  0  0  0  0  0  0  0  0  0  0  0
  -28.0937  -36.3575   19.7202 C   0  0  0  0  0  0  0  0  0  0  0  0
  -24.2291   -9.4316   21.5751 C   0  0  0  0  0  0  0  0  0  0  0  0
  -23.0445  -11.0332   20.2082 C   0  0  0  0  0  0  0  0  0  0  0  0
  -26.7755  -37.8734   21.0544 C   0  0  0  0  0  0  0  0  0  0  0  0
  -27.6956  -35.2984   20.5353 C   0  0  0  0  0  0  0  0  0  0  0  0
  -26.6611  -29.5135   18.8118 C   0  0  0  0  0  0  0  0  0  0  0  0
  -23.0442   -9.1266   22.2448 C   0  0  0  0  0  0  0  0  0  0  0  0
  -21.8595  -10.7282   20.8779 C   0  0  0  0  0  0  0  0  0  0  0  0
  -27.4446  -28.3620   18.8737 C   0  0  0  0  0  0  0  0  0  0  0  0
  -20.2721   -7.2735   21.6842 C   0  0  0  0  0  0  0  0  0  0  0  0
  -19.9787   -5.9274   21.9022 C   0  0  0  0  0  0  0  0  0  0  0  0
  -26.3665  -27.7468   20.9421 C   0  0  0  0  0  0  0  0  0  0  0  0
  -28.7704  -18.8841   18.2613 C   0  0  0  0  0  0  0  0  0  0  0  0
  -19.9656   -6.3165   24.2866 C   0  0  0  0  0  0  0  0  0  0  0  0
  -26.8025  -18.0881   17.5105 C   0  0  0  0  0  0  0  0  0  0  0  0
  -24.2293  -10.3849   20.5568 C   0  0  0  0  0  0  0  0  0  0  0  0
  -25.9573  -10.0836   18.7046 C   0  0  0  0  0  0  0  0  0  0  0  0
  -26.3589  -36.8151   21.8772 C   0  0  0  0  0  0  0  0  0  0  0  0
  -25.7305  -29.7963   19.8220 C   0  0  0  0  0  0  0  0  0  0  0  0
  -26.8315  -35.5135   21.6224 C   0  0  0  0  0  0  0  0  0  0  0  0
  -25.5705  -28.9013   20.8894 C   0  0  0  0  0  0  0  0  0  0  0  0
  -27.8878  -17.7766   18.2994 C   0  0  0  0  0  0  0  0  0  0  0  0
  -21.8594   -9.7749   21.8962 C   0  0  0  0  0  0  0  0  0  0  0  0
  -27.2994  -27.4799   19.9404 C   0  0  0  0  0  0  0  0  0  0  0  0
  -20.4123   -8.1411   22.7674 C   0  0  0  0  0  0  0  0  0  0  0  0
  -19.8254   -5.4489   23.2034 C   0  0  0  0  0  0  0  0  0  0  0  0
  -20.2590   -7.6626   24.0686 C   0  0  0  0  0  0  0  0  0  0  0  0
  -25.4531  -10.7008   19.8650 C   0  0  0  0  0  0  0  0  0  0  0  0
  -28.1975  -19.8388   17.4503 C   0  0  0  0  0  0  0  0  0  0  0  0
  -27.1365  -10.7406   18.4509 C   0  0  0  0  0  0  0  0  0  0  0  0
  -25.4088   -9.0122   17.9255 C   0  0  0  0  0  0  0  0  0  0  0  0
  -28.7654  -21.1590   17.1235 C   0  0  0  0  0  0  0  0  0  0  0  0
  -25.3591  -32.1392   21.9378 C   0  0  0  0  0  0  0  0  0  0  0  0
  -22.5863  -30.5863   22.5875 C   0  0  0  0  0  0  0  0  0  0  0  0
  -20.8158  -27.6694   22.5244 C   0  0  0  0  0  0  0  0  0  0  0  0
  -29.1417  -16.2019   19.8142 C   0  0  0  0  0  0  0  0  0  0  0  0
  -25.4674  -37.1189   23.0552 C   0  0  0  0  0  0  0  0  0  0  0  0
  -24.8740  -31.0292   19.7268 C   0  0  0  0  0  0  0  0  0  0  0  0
  -24.5714  -29.1487   21.9889 C   0  0  0  0  0  0  0  0  0  0  0  0
  -24.7950  -35.8820   23.6452 C   0  0  0  0  0  0  0  0  0  0  0  0
  -30.6622  -13.0992   20.6737 C   0  0  0  0  0  0  0  0  0  0  0  0
  -25.8082  -34.7551   23.8187 C   0  0  0  0  0  0  0  0  0  0  0  0
  -29.5466  -12.0752   20.4524 C   0  0  0  0  0  0  0  0  0  0  0  0
  -27.3528  -23.5831   19.3942 C   0  0  0  0  0  0  0  0  0  0  0  0
  -30.1223  -14.4138   21.2342 C   0  0  0  0  0  0  0  0  0  0  0  0
  -27.6177  -22.1153   19.0795 C   0  0  0  0  0  0  0  0  0  0  0  0
  -28.9982  -23.5530   17.6486 C   0  0  0  0  0  0  0  0  0  0  0  0
  -27.9069  -13.9870   20.2447 C   0  0  0  0  0  0  0  0  0  0  0  0
  -26.4024  -34.3347   22.4689 C   0  0  1  0  0  0  0  0  0  0  0  0
  -24.3210  -31.4781   21.0759 C   0  0  1  0  0  0  0  0  0  0  0  0
  -28.6395  -24.2811   18.9465 C   0  0  1  0  0  0  0  0  0  0  0  0
  -28.3934  -12.6692   19.6201 C   0  0  2  0  0  0  0  0  0  0  0  0
  -18.5887  -26.7027   23.1589 C   0  0  0  0  0  0  0  0  0  0  0  0
  -23.4411  -30.5455   25.5162 C   0  0  0  0  0  0  0  0  0  0  0  0
  -21.7061  -28.7877   25.9259 C   0  0  0  0  0  0  0  0  0  0  0  0
  -21.0213  -31.0550   25.1427 C   0  0  0  0  0  0  0  0  0  0  0  0
  -26.0821  -20.0326   16.1215 C   0  0  0  0  0  0  0  0  0  0  0  0
  -20.1944  -26.9595   19.7192 C   0  0  0  0  0  0  0  0  0  0  0  0
  -28.4747  -25.7793   18.7645 C   0  0  0  0  0  0  0  0  0  1  0  0
  -22.1747  -29.4835   23.5327 C   0  0  1  0  0  0  0  0  0  0  0  0
  -19.4062  -27.3566   22.0558 C   0  0  2  0  0  0  0  0  0  0  0  0
  -22.1061  -29.9640   25.0098 C   0  0  0  0  0  0  0  0  0  0  0  0
  -26.2471  -11.6749   20.3174 N   0  0  0  0  0  0  0  0  0  0  0  0
  -27.0015  -19.3442   16.9998 N   0  0  0  0  0  0  0  0  0  0  0  0
  -27.2622  -11.6748   19.4367 N   0  0  0  0  0  0  0  0  0  0  0  0
  -28.4825  -22.1950   17.8917 N   0  0  0  0  0  0  0  0  0  0  0  0
  -23.7618  -30.3710   21.8542 N   0  0  0  0  0  0  0  0  0  0  0  0
  -29.0359  -14.9190   20.3920 N   0  0  0  0  0  0  0  0  0  0  0  0
  -28.0678  -10.6046   17.4831 N   0  0  0  0  0  0  0  0  0  0  0  0
  -24.1887   -8.4511   18.3266 N   0  0  0  0  0  0  0  0  0  0  0  0
  -28.0629  -16.5615   19.0070 N   0  0  0  0  0  0  0  0  0  0  0  0
  -25.4674  -33.5029   21.7422 N   0  0  0  0  0  0  0  0  0  0  0  0
  -20.9170  -28.9529   23.0179 N   0  0  0  0  0  0  0  0  0  0  0  0
  -29.5552  -21.2857   16.0612 N   0  3  0  0  0  0  0  0  0  0  0  0
  -19.4419  -26.4329   20.8868 N   0  3  0  0  0  0  0  0  0  0  0  0
  -25.9916   -8.5548   16.9132 O   0  0  0  0  0  0  0  0  0  0  0  0
  -26.0124  -31.4625   22.7232 O   0  0  0  0  0  0  0  0  0  0  0  0
  -21.8866  -31.5982   22.4975 O   0  0  0  0  0  0  0  0  0  0  0  0
  -21.7344  -26.8552   22.4624 O   0  0  0  0  0  0  0  0  0  0  0  0
  -30.1299  -16.9171   19.9985 O   0  0  0  0  0  0  0  0  0  0  0  0
  -20.7029   -9.4774   22.5493 O   0  0  0  0  0  0  0  0  0  0  0  0
  -28.0634  -26.3555   20.0036 O   0  0  0  0  0  0  0  0  0  1  0  0
  -19.5421   -4.1565   23.4125 F   0  0  0  0  0  0  0  0  0  0  0  0
  -20.3914   -8.4915   25.1132 F   0  0  0  0  0  0  0  0  0  0  0  0
  1  2  1  0  0  0  0
  1  5  2  0  0  0  0
  2  6  2  0  0  0  0
  3  8  2  0  0  0  0
  3 17  1  0  0  0  0
  4  9  1  0  0  0  0
  4 17  2  0  0  0  0
  5 19  1  0  0  0  0
  6 21  1  0  0  0  0
  7 10  2  0  0  0  0
  7 20  1  0  0  0  0
  8 24  1  0  0  0  0
  9 24  2  0  0  0  0
 10 25  1  0  0  0  0
 11 12  2  0  0  0  0
 11 26  1  0  0  0  0
 12 27  1  0  0  0  0
 13 22  1  0  0  0  0
 13 25  2  0  0  0  0
 14 23  1  0  0  0  0
 14 30  2  0  0  0  0
 15 27  2  0  0  0  0
 15 28  1  0  0  0  0
 16 23  2  0  0  0  0
 16 65  1  0  0  0  0
 17 29  1  0  0  0  0
 18 29  1  0  0  0  0
 18 31  2  0  0  0  0
 18 32  1  0  0  0  0
 19 21  2  0  0  0  0
 19 38  1  0  0  0  0
 20 22  2  0  0  0  0
 20 39  1  0  0  0  0
 21 50  1  0  0  0  0
 22 40  1  0  0  0  0
 23 72  1  0  0  0  0
 24 82  1  0  0  0  0
 25 83  1  0  0  0  0
 26 28  2  0  0  0  0
 26 82  1  0  0  0  0
 27 84  1  0  0  0  0
 28 85  1  0  0  0  0
 29 64  2  0  0  0  0
 30 33  1  0  0  0  0
 30 65  1  0  0  0  0
 31 66  1  0  0  0  0
 31 70  1  0  0  0  0
 32 71  1  0  0  0  0
 32 77  2  0  0  0  0
 33 67  1  0  0  0  0
 33 75  2  0  0  0  0
 34 51  1  0  0  0  0
 34 73  1  0  0  0  0
 34 78  2  0  0  0  0
 35 61  1  0  0  0  0
 35 68  1  0  0  0  0
 35 79  2  0  0  0  0
 36 62  1  0  0  0  0
 36 74  1  0  0  0  0
 36 80  2  0  0  0  0
 37 69  1  0  0  0  0
 37 72  1  0  0  0  0
 37 81  2  0  0  0  0
 38 41  1  0  0  0  0
 39 51  1  0  0  0  0
 40 68  1  0  0  0  0
 41 43  1  0  0  0  0
 42 44  1  0  0  0  0
 42 46  1  0  0  0  0
 43 50  1  0  0  0  0
 44 53  1  0  0  0  0
 45 47  1  0  0  0  0
 45 52  1  0  0  0  0
 46 69  1  0  0  0  0
 47 67  1  0  0  0  0
 48 52  1  0  0  0  0
 48 67  1  0  0  0  0
 49 53  1  0  0  0  0
 49 69  1  0  0  0  0
 50 73  1  0  0  0  0
 51 68  1  0  0  0  0
 52 60  1  0  0  0  0
 53 66  1  0  0  0  0
 54 62  1  0  0  0  0
 55 63  1  0  0  0  0
 56 63  1  0  0  0  0
 57 63  1  0  0  0  0
 58 65  1  0  0  0  0
 59 76  1  0  0  0  0
 60 83  1  0  0  0  0
 61 63  1  0  0  0  0
 61 74  1  0  0  0  0
 62 76  1  0  0  0  0
 64 66  1  0  0  0  0
M  CHG  2  75   1  76   1
M  ISO  4  37 100  60 101  72 100  83 101
M  END
> <Batch ID>
0149

> <Smiles>
CNC(C)C(=O)NC(C(=O)N1Cc2cc([101O:1][101CH2:1]C3CCN(C(=N)c4cc([100NH:0][100C:0](=O)N5CCCC(n6nc(-c7ccc(Oc8ccc(F)cc8F)cc7)c(C(N)=O)c6N)C5)cn4C)C3)ccc2CC1C(=O)NC1CCCc2ccccc21)C(C)(C)C

> <Shape>
0.286

> <Color>
0.096

> <Negative vol penalty>
0.000

$$$$

  -OEChem-04052303193D

 82 90  0     1  0  0  0  0  0999 V2000
  -30.0149  -36.0684   18.1618 C   0  0  0  0  0  0  0  0  0  0  0  0
  -30.0664  -34.7556   18.6191 C   0  0  0  0  0  0  0  0  0  0  0  0
  -23.8932   -9.2787   19.8010 C   0  0  0  0  0  0  0  0  0  0  0  0
  -24.5993   -9.4225   22.1070 C   0  0  0  0  0  0  0  0  0  0  0  0
  -29.0703  -36.9508   18.6843 C   0  0  0  0  0  0  0  0  0  0  0  0
  -29.1740  -34.3246   19.6000 C   0  0  0  0  0  0  0  0  0  0  0  0
  -27.1632  -29.7985   18.5436 C   0  0  0  0  0  0  0  0  0  0  0  0
  -23.5611   -7.9367   19.9863 C   0  0  0  0  0  0  0  0  0  0  0  0
  -24.2672   -8.0805   22.2924 C   0  0  0  0  0  0  0  0  0  0  0  0
  -27.9568  -28.6775   18.7834 C   0  0  0  0  0  0  0  0  0  0  0  0
  -23.2680   -4.7893   23.4705 C   0  0  0  0  0  0  0  0  0  0  0  0
  -22.5610   -4.4487   24.6236 C   0  0  0  0  0  0  0  0  0  0  0  0
  -26.7868  -28.3007   20.8590 C   0  0  0  0  0  0  0  0  0  0  0  0
  -27.4901  -20.4586   22.3174 C   0  0  0  0  0  0  0  0  0  0  0  0
  -20.7602   -5.9126   23.9519 C   0  0  0  0  0  0  0  0  0  0  0  0
  -24.4123  -10.0216   20.8613 C   0  0  0  0  0  0  0  0  0  0  0  0
  -23.9196  -12.5246   20.8570 C   0  0  0  0  0  0  0  0  0  0  0  0
  -28.1595  -36.5278   19.6652 C   0  0  0  0  0  0  0  0  0  0  0  0
  -26.1811  -30.1859   19.4666 C   0  0  0  0  0  0  0  0  0  0  0  0
  -28.2171  -35.2025   20.1371 C   0  0  0  0  0  0  0  0  0  0  0  0
  -25.9803  -29.4254   20.6274 C   0  0  0  0  0  0  0  0  0  0  0  0
  -27.4567  -19.0599   22.5867 C   0  0  0  0  0  0  0  0  0  0  0  0
  -23.7481   -7.3376   21.2320 C   0  0  0  0  0  0  0  0  0  0  0  0
  -27.7706  -27.9301   19.9426 C   0  0  0  0  0  0  0  0  0  0  0  0
  -22.7211   -5.6916   22.5581 C   0  0  0  0  0  0  0  0  0  0  0  0
  -21.3071   -5.0103   24.8643 C   0  0  0  0  0  0  0  0  0  0  0  0
  -21.4672   -6.2532   22.7988 C   0  0  0  0  0  0  0  0  0  0  0  0
  -24.7561  -11.4078   20.6704 C   0  0  0  0  0  0  0  0  0  0  0  0
  -24.7123  -13.6028   20.5480 C   0  0  0  0  0  0  0  0  0  0  0  0
  -28.3942  -20.7735   21.3269 C   0  0  0  0  0  0  0  0  0  0  0  0
  -28.3366  -18.3588   21.7915 C   0  0  0  0  0  0  0  0  0  0  0  0
  -22.5486  -12.5822   21.2727 C   0  0  0  0  0  0  0  0  0  0  0  0
  -25.6785  -32.7630   21.2581 C   0  0  0  0  0  0  0  0  0  0  0  0
  -28.5584  -24.4408   20.5485 C   0  0  0  0  0  0  0  0  0  0  0  0
  -22.8965  -31.2512   21.9634 C   0  0  0  0  0  0  0  0  0  0  0  0
  -21.1670  -28.3169   22.1770 C   0  0  0  0  0  0  0  0  0  0  0  0
  -29.5457  -16.3477   20.8751 C   0  0  0  0  0  0  0  0  0  0  0  0
  -27.1873  -37.5308   20.2340 C   0  0  0  0  0  0  0  0  0  0  0  0
  -25.3153  -31.3821   19.1804 C   0  0  0  0  0  0  0  0  0  0  0  0
  -24.9258  -29.7874   21.6400 C   0  0  0  0  0  0  0  0  0  0  0  0
  -26.0325  -36.8922   21.0013 C   0  0  0  0  0  0  0  0  0  0  0  0
  -29.2829  -13.8180   18.3834 C   0  0  0  0  0  0  0  0  0  0  0  0
  -26.5523  -35.8186   21.9521 C   0  0  0  0  0  0  0  0  0  0  0  0
  -28.0129  -13.0573   18.7716 C   0  0  0  0  0  0  0  0  0  0  0  0
  -30.0692  -14.2730   19.6115 C   0  0  0  0  0  0  0  0  0  0  0  0
  -28.0241  -14.2769   20.9850 C   0  0  0  0  0  0  0  0  0  0  0  0
  -27.2498  -34.6907   21.1823 C   0  0  1  0  0  0  0  0  0  0  0  0
  -24.6918  -31.9826   20.4365 C   0  0  1  0  0  0  0  0  0  0  0  0
  -27.1651  -13.8547   19.7820 C   0  0  2  0  0  0  0  0  0  0  0  0
  -26.5740  -18.4425   23.6057 C   0  0  0  0  0  0  0  0  0  0  0  0
  -18.9236  -27.3949   22.8207 C   0  0  0  0  0  0  0  0  0  0  0  0
  -23.6081  -31.5846   24.9117 C   0  0  0  0  0  0  0  0  0  0  0  0
  -21.8768  -29.8590   25.4529 C   0  0  0  0  0  0  0  0  0  0  0  0
  -21.2033  -32.0006   24.3655 C   0  0  0  0  0  0  0  0  0  0  0  0
  -20.6918  -27.2580   19.4546 C   0  0  0  0  0  0  0  0  0  0  0  0
  -28.0223  -23.2406   21.2996 C   0  0  0  0  0  0  0  0  0  0  0  0
  -27.9588  -25.7782   20.9374 C   0  0  0  0  0  0  0  0  0  1  0  0
  -22.4529  -30.2651   23.0169 C   0  0  1  0  0  0  0  0  0  0  0  0
  -19.7858  -27.9236   21.6850 C   0  0  2  0  0  0  0  0  0  0  0  0
  -22.3065  -30.9214   24.4188 C   0  0  0  0  0  0  0  0  0  0  0  0
  -25.9859  -11.7453   20.2733 N   0  0  0  0  0  0  0  0  0  0  0  0
  -25.9280  -13.0863   20.2078 N   0  0  0  0  0  0  0  0  0  0  0  0
  -24.1089  -30.9691   21.3182 N   0  0  0  0  0  0  0  0  0  0  0  0
  -29.2029  -15.0255   20.5214 N   0  0  0  0  0  0  0  0  0  0  0  0
  -24.4811  -14.9327   20.5366 N   0  0  0  0  0  0  0  0  0  0  0  0
  -21.8836  -11.3801   21.5505 N   0  0  0  0  0  0  0  0  0  0  0  0
  -28.6302  -16.9745   21.7198 N   0  0  0  0  0  0  0  0  0  0  0  0
  -28.6672  -22.0405   20.8316 N   0  0  0  0  0  0  0  0  0  0  0  0
  -26.2720  -33.8102   20.5796 N   0  0  0  0  0  0  0  0  0  0  0  0
  -21.2283  -29.6527   22.5130 N   0  0  0  0  0  0  0  0  0  0  0  0
  -19.8897  -26.8646   20.6416 N   0  3  0  0  0  0  0  0  0  0  0  0
  -21.9268  -13.6665   21.3784 O   0  0  0  0  0  0  0  0  0  0  0  0
  -25.8849  -32.4398   22.4220 O   0  0  0  0  0  0  0  0  0  0  0  0
  -29.4230  -24.3491   19.6780 O   0  0  0  0  0  0  0  0  0  0  0  0
  -22.1897  -32.2316   21.7170 O   0  0  0  0  0  0  0  0  0  0  0  0
  -22.0974  -27.5180   22.2589 O   0  0  0  0  0  0  0  0  0  0  0  0
  -30.5617  -16.8938   20.4375 O   0  0  0  0  0  0  0  0  0  0  0  0
  -23.4239   -6.0281   21.4133 O   0  0  0  0  0  0  0  0  0  0  0  0
  -28.5443  -26.8359   20.1794 O   0  0  0  0  0  0  0  0  0  1  0  0
  -20.6276   -4.6819   25.9710 F   0  0  0  0  0  0  0  0  0  0  0  0
  -20.9362   -7.1197   21.9253 F   0  0  0  0  0  0  0  0  0  0  0  0
  -29.1980  -19.3860   20.7260 S   0  0  0  0  0  0  0  0  0  0  0  0
  1  2  1  0  0  0  0
  1  5  2  0  0  0  0
  2  6  2  0  0  0  0
  3  8  2  0  0  0  0
  3 16  1  0  0  0  0
  4  9  1  0  0  0  0
  4 16  2  0  0  0  0
  5 18  1  0  0  0  0
  6 20  1  0  0  0  0
  7 10  2  0  0  0  0
  7 19  1  0  0  0  0
  8 23  1  0  0  0  0
  9 23  2  0  0  0  0
 10 24  1  0  0  0  0
 11 12  2  0  0  0  0
 11 25  1  0  0  0  0
 12 26  1  0  0  0  0
 13 21  1  0  0  0  0
 13 24  2  0  0  0  0
 14 22  1  0  0  0  0
 14 30  2  0  0  0  0
 15 26  2  0  0  0  0
 15 27  1  0  0  0  0
 16 28  1  0  0  0  0
 17 28  1  0  0  0  0
 17 29  2  0  0  0  0
 17 32  1  0  0  0  0
 18 20  2  0  0  0  0
 18 38  1  0  0  0  0
 19 21  2  0  0  0  0
 19 39  1  0  0  0  0
 20 47  1  0  0  0  0
 21 40  1  0  0  0  0
 22 31  2  0  0  0  0
 22 50  1  0  0  0  0
 23 78  1  0  0  0  0
 24 79  1  0  0  0  0
 25 27  2  0  0  0  0
 25 78  1  0  0  0  0
 26 80  1  0  0  0  0
 27 81  1  0  0  0  0
 28 61  2  0  0  0  0
 29 62  1  0  0  0  0
 29 65  1  0  0  0  0
 30 68  1  0  0  0  0
 30 82  1  0  0  0  0
 31 67  1  0  0  0  0
 31 82  1  0  0  0  0
 32 66  1  0  0  0  0
 32 72  2  0  0  0  0
 33 48  1  0  0  0  0
 33 69  1  0  0  0  0
 33 73  2  0  0  0  0
 34 56  1  0  0  0  0
 34 57  1  0  0  0  0
 34 74  2  0  0  0  0
 35 58  1  0  0  0  0
 35 63  1  0  0  0  0
 35 75  2  0  0  0  0
 36 59  1  0  0  0  0
 36 70  1  0  0  0  0
 36 76  2  0  0  0  0
 37 64  1  0  0  0  0
 37 67  1  0  0  0  0
 37 77  2  0  0  0  0
 38 41  1  0  0  0  0
 39 48  1  0  0  0  0
 40 63  1  0  0  0  0
 41 43  1  0  0  0  0
 42 44  1  0  0  0  0
 42 45  1  0  0  0  0
 43 47  1  0  0  0  0
 44 49  1  0  0  0  0
 45 64  1  0  0  0  0
 46 49  1  0  0  0  0
 46 64  1  0  0  0  0
 47 69  1  0  0  0  0
 48 63  1  0  0  0  0
 49 62  1  0  0  0  0
 51 59  1  0  0  0  0
 52 60  1  0  0  0  0
 53 60  1  0  0  0  0
 54 60  1  0  0  0  0
 55 71  1  0  0  0  0
 56 68  1  0  0  0  0
 57 79  1  0  0  0  0
 58 60  1  0  0  0  0
 58 70  1  0  0  0  0
 59 71  1  0  0  0  0
 61 62  1  0  0  0  0
M  CHG  1  71   1
M  ISO  4  37 100  57 101  67 100  79 101
M  END
> <Batch ID>
0149

> <Smiles>
CNC(C)C(=O)NC(C(=O)N1Cc2cc([101O:1][101CH2:1]C(=O)CNc3cc(C)c([100NH:0][100C:0](=O)N4CCCC(n5nc(-c6ccc(Oc7ccc(F)cc7F)cc6)c(C(N)=O)c5N)C4)s3)ccc2CC1C(=O)NC1CCCc2ccccc21)C(C)(C)C

> <Shape>
0.316

> <Color>
0.149

> <Negative vol penalty>
0.000

$$$$

  -OEChem-04052303193D

 86 94  0     1  0  0  0  0  0999 V2000
  -23.7875  -36.2573   16.3642 C   0  0  0  0  0  0  0  0  0  0  0  0
  -24.4940  -35.0598   16.3175 C   0  0  0  0  0  0  0  0  0  0  0  0
  -25.2854   -9.1518   20.7094 C   0  0  0  0  0  0  0  0  0  0  0  0
  -24.1894   -9.8217   22.7556 C   0  0  0  0  0  0  0  0  0  0  0  0
  -23.6207  -36.9200   17.5796 C   0  0  0  0  0  0  0  0  0  0  0  0
  -25.0351  -34.5247   17.4860 C   0  0  0  0  0  0  0  0  0  0  0  0
  -25.5765  -28.5937   18.9126 C   0  0  0  0  0  0  0  0  0  0  0  0
  -25.0850   -7.8118   21.0407 C   0  0  0  0  0  0  0  0  0  0  0  0
  -23.9889   -8.4816   23.0869 C   0  0  0  0  0  0  0  0  0  0  0  0
  -26.6457  -27.7027   18.8294 C   0  0  0  0  0  0  0  0  0  0  0  0
  -22.8680   -5.2422   24.2986 C   0  0  0  0  0  0  0  0  0  0  0  0
  -21.6113   -4.8729   24.7780 C   0  0  0  0  0  0  0  0  0  0  0  0
  -27.1666  -28.1208   21.1474 C   0  0  0  0  0  0  0  0  0  0  0  0
  -26.6245  -20.6221   22.9170 C   0  0  0  0  0  0  0  0  0  0  0  0
  -20.6031   -5.6265   22.7157 C   0  0  0  0  0  0  0  0  0  0  0  0
  -24.8376  -10.1568   21.5669 C   0  0  0  0  0  0  0  0  0  0  0  0
  -24.1804  -12.3740   20.4901 C   0  0  0  0  0  0  0  0  0  0  0  0
  -24.1517  -36.3878   18.7651 C   0  0  0  0  0  0  0  0  0  0  0  0
  -25.3006  -29.2643   20.1129 C   0  0  0  0  0  0  0  0  0  0  0  0
  -24.8763  -35.1815   18.7181 C   0  0  0  0  0  0  0  0  0  0  0  0
  -26.0918  -29.0178   21.2439 C   0  0  0  0  0  0  0  0  0  0  0  0
  -25.7525  -21.7474   22.8595 C   0  0  0  0  0  0  0  0  0  0  0  0
  -24.4367   -7.4767   22.2294 C   0  0  0  0  0  0  0  0  0  0  0  0
  -27.4427  -27.4684   19.9461 C   0  0  0  0  0  0  0  0  0  0  0  0
  -22.9923   -5.8038   23.0278 C   0  0  0  0  0  0  0  0  0  0  0  0
  -20.4789   -5.0650   23.9866 C   0  0  0  0  0  0  0  0  0  0  0  0
  -21.8599   -5.9959   22.2364 C   0  0  0  0  0  0  0  0  0  0  0  0
  -25.0449  -11.5412   21.2255 C   0  0  0  0  0  0  0  0  0  0  0  0
  -24.8281  -13.5842   20.4419 C   0  0  0  0  0  0  0  0  0  0  0  0
  -25.9491  -19.4345   22.7407 C   0  0  0  0  0  0  0  0  0  0  0  0
  -24.4436  -21.3770   22.6412 C   0  0  0  0  0  0  0  0  0  0  0  0
  -22.9058  -12.0800   19.9031 C   0  0  0  0  0  0  0  0  0  0  0  0
  -25.2366  -32.3110   21.0166 C   0  0  0  0  0  0  0  0  0  0  0  0
  -27.2684  -23.2813   20.7275 C   0  0  0  0  0  0  0  0  0  0  0  0
  -24.0889  -31.0617   23.7815 C   0  0  0  0  0  0  0  0  0  0  0  0
  -23.8468  -28.3682   25.8630 C   0  0  0  0  0  0  0  0  0  0  0  0
  -27.7284  -17.6575   22.8913 C   0  0  0  0  0  0  0  0  0  0  0  0
  -23.9861  -37.1643   20.0474 C   0  0  0  0  0  0  0  0  0  0  0  0
  -24.1273  -30.2020   20.1936 C   0  0  0  0  0  0  0  0  0  0  0  0
  -25.8252  -29.6970   22.5615 C   0  0  0  0  0  0  0  0  0  0  0  0
  -24.2696  -36.3392   21.3000 C   0  0  0  0  0  0  0  0  0  0  0  0
  -29.5624  -14.8396   21.7196 C   0  0  0  0  0  0  0  0  0  0  0  0
  -25.5618  -35.5456   21.1354 C   0  0  0  0  0  0  0  0  0  0  0  0
  -28.4795  -13.7988   21.4261 C   0  0  0  0  0  0  0  0  0  0  0  0
  -29.2261  -15.6755   22.9532 C   0  0  0  0  0  0  0  0  0  0  0  0
  -26.8172  -15.2654   22.6396 C   0  0  0  0  0  0  0  0  0  0  0  0
  -25.4569  -34.5567   19.9681 C   0  0  1  0  0  0  0  0  0  0  0  0
  -24.2517  -31.2187   21.3242 C   0  0  1  0  0  0  0  0  0  0  0  0
  -27.0802  -14.4424   21.3680 C   0  0  2  0  0  0  0  0  0  0  0  0
  -22.8762  -27.6628   28.0670 C   0  0  0  0  0  0  0  0  0  0  0  0
  -26.3026  -32.5746   25.2377 C   0  0  0  0  0  0  0  0  0  0  0  0
  -25.8899  -31.1185   27.2322 C   0  0  0  0  0  0  0  0  0  0  0  0
  -24.0816  -32.6145   26.3867 C   0  0  0  0  0  0  0  0  0  0  0  0
  -30.6776  -24.7006   19.5299 C   0  0  0  0  0  0  0  0  0  0  0  0
  -22.1649  -26.2925   24.5896 C   0  0  0  0  0  0  0  0  0  0  0  0
  -26.2265  -23.1706   23.0210 C   0  0  0  0  0  0  0  0  0  0  0  0
  -26.3034  -23.9331   21.6979 C   0  0  0  0  0  0  0  0  0  0  0  0
  -28.7248  -23.7076   20.7352 C   0  0  0  0  0  0  0  0  0  0  0  0
  -28.3634  -25.5167   18.9466 C   0  0  0  0  0  0  0  0  0  1  0  0
  -24.7057  -30.5534   25.0621 C   0  0  1  0  0  0  0  0  0  0  0  0
  -22.6555  -27.7410   26.5644 C   0  0  2  0  0  0  0  0  0  0  0  0
  -25.2514  -31.7038   25.9545 C   0  0  0  0  0  0  0  0  0  0  0  0
  -29.1986  -24.3105   19.3987 C   0  0  1  0  0  0  0  0  0  0  0  0
  -26.1571  -12.1692   21.6163 N   0  0  0  0  0  0  0  0  0  0  0  0
  -26.8756  -22.3528   19.9159 N   0  0  0  0  0  0  0  0  0  0  0  0
  -25.9959  -13.4094   21.1245 N   0  0  0  0  0  0  0  0  0  0  0  0
  -24.6704  -30.6098   22.5884 N   0  0  0  0  0  0  0  0  0  0  0  0
  -27.8881  -16.2572   22.8255 N   0  0  0  0  0  0  0  0  0  0  0  0
  -24.5071  -14.7701   19.8825 N   0  0  0  0  0  0  0  0  0  0  0  0
  -23.3697  -22.2004   22.5342 N   0  0  0  0  0  0  0  0  0  0  0  0
  -22.3862  -10.7863   20.0473 N   0  0  0  0  0  0  0  0  0  0  0  0
  -26.4154  -18.0966   22.7244 N   0  0  0  0  0  0  0  0  0  0  0  0
  -24.6875  -33.3945   20.3578 N   0  0  0  0  0  0  0  0  0  0  0  0
  -23.6888  -29.7289   25.7058 N   0  0  0  0  0  0  0  0  0  0  0  0
  -22.4196  -26.3618   26.0516 N   0  3  0  0  0  0  0  0  0  0  0  0
  -22.2547  -12.9344   19.2553 O   0  0  0  0  0  0  0  0  0  0  0  0
  -26.4077  -32.1811   21.3535 O   0  0  0  0  0  0  0  0  0  0  0  0
  -23.1221  -31.8258   23.8376 O   0  0  0  0  0  0  0  0  0  0  0  0
  -24.8219  -27.7167   25.4949 O   0  0  0  0  0  0  0  0  0  0  0  0
  -28.6897  -18.4133   23.0546 O   0  0  0  0  0  0  0  0  0  0  0  0
  -29.1129  -23.2986   18.3914 O   0  0  0  0  0  0  0  0  0  0  0  0
  -24.2408   -6.1692   22.5529 O   0  0  0  0  0  0  0  0  0  0  0  0
  -28.4873  -26.5997   19.8674 O   0  0  0  0  0  0  0  0  0  1  0  0
  -19.2723   -4.7089   24.4465 F   0  0  0  0  0  0  0  0  0  0  0  0
  -21.9732   -6.5338   21.0142 F   0  0  0  0  0  0  0  0  0  0  0  0
  -24.2704  -19.6787   22.5069 S   0  0  0  0  0  0  0  0  0  0  0  0
  1  2  1  0  0  0  0
  1  5  2  0  0  0  0
  2  6  2  0  0  0  0
  3  8  2  0  0  0  0
  3 16  1  0  0  0  0
  4  9  1  0  0  0  0
  4 16  2  0  0  0  0
  5 18  1  0  0  0  0
  6 20  1  0  0  0  0
  7 10  2  0  0  0  0
  7 19  1  0  0  0  0
  8 23  1  0  0  0  0
  9 23  2  0  0  0  0
 10 24  1  0  0  0  0
 11 12  2  0  0  0  0
 11 25  1  0  0  0  0
 12 26  1  0  0  0  0
 13 21  1  0  0  0  0
 13 24  2  0  0  0  0
 14 22  1  0  0  0  0
 14 30  2  0  0  0  0
 15 26  2  0  0  0  0
 15 27  1  0  0  0  0
 16 28  1  0  0  0  0
 17 28  1  0  0  0  0
 17 29  2  0  0  0  0
 17 32  1  0  0  0  0
 18 20  2  0  0  0  0
 18 38  1  0  0  0  0
 19 21  2  0  0  0  0
 19 39  1  0  0  0  0
 20 47  1  0  0  0  0
 21 40  1  0  0  0  0
 22 31  2  0  0  0  0
 22 56  1  0  0  0  0
 23 82  1  0  0  0  0
 24 83  1  0  0  0  0
 25 27  2  0  0  0  0
 25 82  1  0  0  0  0
 26 84  1  0  0  0  0
 27 85  1  0  0  0  0
 28 64  2  0  0  0  0
 29 66  1  0  0  0  0
 29 69  1  0  0  0  0
 30 72  1  0  0  0  0
 30 86  1  0  0  0  0
 31 70  1  0  0  0  0
 31 86  1  0  0  0  0
 32 71  1  0  0  0  0
 32 76  2  0  0  0  0
 33 48  1  0  0  0  0
 33 73  1  0  0  0  0
 33 77  2  0  0  0  0
 34 57  1  0  0  0  0
 34 58  1  0  0  0  0
 34 65  2  0  0  0  0
 35 60  1  0  0  0  0
 35 67  1  0  0  0  0
 35 78  2  0  0  0  0
 36 61  1  0  0  0  0
 36 74  1  0  0  0  0
 36 79  2  0  0  0  0
 37 68  1  0  0  0  0
 37 72  1  0  0  0  0
 37 80  2  0  0  0  0
 38 41  1  0  0  0  0
 39 48  1  0  0  0  0
 40 67  1  0  0  0  0
 41 43  1  0  0  0  0
 42 44  1  0  0  0  0
 42 45  1  0  0  0  0
 43 47  1  0  0  0  0
 44 49  1  0  0  0  0
 45 68  1  0  0  0  0
 46 49  1  0  0  0  0
 46 68  1  0  0  0  0
 47 73  1  0  0  0  0
 48 67  1  0  0  0  0
 49 66  1  0  0  0  0
 50 61  1  0  0  0  0
 51 62  1  0  0  0  0
 52 62  1  0  0  0  0
 53 62  1  0  0  0  0
 54 63  1  0  0  0  0
 55 75  1  0  0  0  0
 56 57  1  0  0  0  0
 58 63  1  0  0  0  0
 59 63  1  0  0  0  0
 59 83  1  0  0  0  0
 60 62  1  0  0  0  0
 60 74  1  0  0  0  0
 61 75  1  0  0  0  0
 63 81  1  0  0  0  0
 64 66  1  0  0  0  0
M  CHG  1  75   1
M  ISO  4  37 100  59 101  72 100  83 101
M  END
> <Batch ID>
0149

> <Smiles>
CNC(C)C(=O)NC(C(=O)N1Cc2cc([101O:1][101CH2:1]C(C)(O)CC(=N)CCc3cc([100NH:0][100C:0](=O)N4CCCC(n5nc(-c6ccc(Oc7ccc(F)cc7F)cc6)c(C(N)=O)c5N)C4)sc3N)ccc2CC1C(=O)NC1CCCc2ccccc21)C(C)(C)C

> <Shape>
0.240

> <Color>
0.131

> <Negative vol penalty>
0.000

$$$$

  -OEChem-04052303193D

 83 91  0     1  0  0  0  0  0999 V2000
  -31.9592  -25.7143   19.6308 C   0  0  0  0  0  0  0  0  0  0  0  0
  -30.6988  -25.5731   19.0591 C   0  0  0  0  0  0  0  0  0  0  0  0
  -25.8357  -15.3318   18.9844 C   0  0  0  0  0  0  0  0  0  0  0  0
  -24.3285  -15.3785   20.8720 C   0  0  0  0  0  0  0  0  0  0  0  0
  -32.0806  -26.1555   20.9478 C   0  0  0  0  0  0  0  0  0  0  0  0
  -29.5589  -25.8719   19.8046 C   0  0  0  0  0  0  0  0  0  0  0  0
  -22.9264  -28.4750   19.0621 C   0  0  0  0  0  0  0  0  0  0  0  0
  -26.1401  -13.9988   19.2604 C   0  0  0  0  0  0  0  0  0  0  0  0
  -24.6329  -14.0455   21.1480 C   0  0  0  0  0  0  0  0  0  0  0  0
  -21.6045  -28.1593   19.3726 C   0  0  0  0  0  0  0  0  0  0  0  0
  -24.7394  -10.5478   22.1344 C   0  0  0  0  0  0  0  0  0  0  0  0
  -23.6815   -9.6879   22.4293 C   0  0  0  0  0  0  0  0  0  0  0  0
  -21.9388  -28.9890   21.6129 C   0  0  0  0  0  0  0  0  0  0  0  0
  -22.4254  -24.0684   23.4622 C   0  0  0  0  0  0  0  0  0  0  0  0
  -22.7127  -10.1365   20.2620 C   0  0  0  0  0  0  0  0  0  0  0  0
  -22.2314  -25.8829   24.7453 C   0  0  0  0  0  0  0  0  0  0  0  0
  -24.9300  -16.0216   19.7902 C   0  0  0  0  0  0  0  0  0  0  0  0
  -23.5880  -17.8818   18.6738 C   0  0  0  0  0  0  0  0  0  0  0  0
  -30.9420  -26.4691   21.7066 C   0  0  0  0  0  0  0  0  0  0  0  0
  -23.7691  -29.0410   20.0295 C   0  0  0  0  0  0  0  0  0  0  0  0
  -29.6651  -26.3164   21.1334 C   0  0  0  0  0  0  0  0  0  0  0  0
  -23.2703  -29.3134   21.3114 C   0  0  0  0  0  0  0  0  0  0  0  0
  -21.6744  -25.2520   23.6574 C   0  0  0  0  0  0  0  0  0  0  0  0
  -25.5387  -13.3557   20.3422 C   0  0  0  0  0  0  0  0  0  0  0  0
  -21.1113  -28.4136   20.6490 C   0  0  0  0  0  0  0  0  0  0  0  0
  -24.7839  -11.2021   20.9033 C   0  0  0  0  0  0  0  0  0  0  0  0
  -22.6682   -9.4822   21.4931 C   0  0  0  0  0  0  0  0  0  0  0  0
  -23.7706  -10.9964   19.9671 C   0  0  0  0  0  0  0  0  0  0  0  0
  -24.6156  -17.3987   19.5060 C   0  0  0  0  0  0  0  0  0  0  0  0
  -23.3881  -24.0605   24.4447 C   0  0  0  0  0  0  0  0  0  0  0  0
  -23.7086  -19.2485   18.7373 C   0  0  0  0  0  0  0  0  0  0  0  0
  -22.6117  -17.1597   17.9115 C   0  0  0  0  0  0  0  0  0  0  0  0
  -26.4747  -28.1546   21.4429 C   0  0  0  0  0  0  0  0  0  0  0  0
  -26.3249  -31.1312   22.7235 C   0  0  0  0  0  0  0  0  0  0  0  0
  -19.9767  -25.1117   21.8019 C   0  0  0  0  0  0  0  0  0  0  0  0
  -24.4056  -33.8093   23.6127 C   0  0  0  0  0  0  0  0  0  0  0  0
  -26.0019  -22.9527   22.8447 C   0  0  0  0  0  0  0  0  0  0  0  0
  -31.1213  -26.8971   23.1417 C   0  0  0  0  0  0  0  0  0  0  0  0
  -25.1849  -29.4005   19.6708 C   0  0  0  0  0  0  0  0  0  0  0  0
  -24.1283  -29.9386   22.3798 C   0  0  0  0  0  0  0  0  0  0  0  0
  -29.8794  -27.5510   23.7420 C   0  0  0  0  0  0  0  0  0  0  0  0
  -26.9575  -22.6928   19.4248 C   0  0  0  0  0  0  0  0  0  0  0  0
  -28.6345  -26.7320   23.4162 C   0  0  0  0  0  0  0  0  0  0  0  0
  -26.3729  -21.3501   18.9827 C   0  0  0  0  0  0  0  0  0  0  0  0
  -27.4597  -22.6426   20.8661 C   0  0  0  0  0  0  0  0  0  0  0  0
  -25.8845  -20.8265   21.4088 C   0  0  0  0  0  0  0  0  0  0  0  0
  -28.4059  -26.6543   21.9018 C   0  0  1  0  0  0  0  0  0  0  0  0
  -26.1024  -29.4994   20.8857 C   0  0  1  0  0  0  0  0  0  0  0  0
  -25.3139  -20.8439   19.9804 C   0  0  2  0  0  0  0  0  0  0  0  0
  -24.5606  -36.0789   24.6721 C   0  0  0  0  0  0  0  0  0  0  0  0
  -18.0389  -27.5091   19.4695 C   0  0  0  0  0  0  0  0  0  0  0  0
  -26.6017  -29.8282   25.4686 C   0  0  0  0  0  0  0  0  0  0  0  0
  -25.8073  -31.9720   26.4891 C   0  0  0  0  0  0  0  0  0  0  0  0
  -27.9258  -31.9291   25.1727 C   0  0  0  0  0  0  0  0  0  0  0  0
  -23.3947  -35.1450   21.1729 C   0  0  0  0  0  0  0  0  0  0  0  0
  -24.4671  -23.1234   24.7875 C   0  0  0  0  0  0  0  0  0  0  0  0
  -18.8114  -25.9539   21.2918 C   0  0  0  0  0  0  0  0  0  0  0  0
  -25.7128  -31.7307   23.9664 C   0  0  1  0  0  0  0  0  0  0  0  0
  -24.5775  -35.2975   23.3675 C   0  0  2  0  0  0  0  0  0  0  0  0
  -19.2355  -27.0031   20.2641 C   0  0  2  0  0  0  0  0  0  1  0  0
  -26.4960  -31.3514   25.2549 C   0  0  0  0  0  0  0  0  0  0  0  0
  -25.3360  -18.3789   20.0576 N   0  0  0  0  0  0  0  0  0  0  0  0
  -24.7604  -19.4915   19.5710 N   0  0  0  0  0  0  0  0  0  0  0  0
  -25.5075  -30.2661   21.9823 N   0  0  0  0  0  0  0  0  0  0  0  0
  -26.4072  -22.1559   21.7613 N   0  0  0  0  0  0  0  0  0  0  0  0
  -23.0166  -20.2541   18.1608 N   0  0  0  0  0  0  0  0  0  0  0  0
  -22.6292  -15.7591   17.9592 N   0  0  0  0  0  0  0  0  0  0  0  0
  -20.5704  -25.7192   22.9052 N   0  0  0  0  0  0  0  0  0  0  0  0
  -27.8305  -27.8892   21.4135 N   0  0  0  0  0  0  0  0  0  0  0  0
  -25.6203  -33.1663   23.7242 N   0  0  0  0  0  0  0  0  0  0  0  0
  -24.9947  -22.4197   23.6398 N   0  0  0  0  0  0  0  0  0  0  0  0
  -23.4801  -35.8095   22.4988 N   0  3  0  0  0  0  0  0  0  0  0  0
  -21.7596  -17.7390   17.1960 O   0  0  0  0  0  0  0  0  0  0  0  0
  -25.5971  -27.4132   21.8693 O   0  0  0  0  0  0  0  0  0  0  0  0
  -27.4831  -31.4253   22.4175 O   0  0  0  0  0  0  0  0  0  0  0  0
  -20.2992  -24.0534   21.2725 O   0  0  0  0  0  0  0  0  0  0  0  0
  -23.3039  -33.2715   23.7006 O   0  0  0  0  0  0  0  0  0  0  0  0
  -26.4970  -24.0596   23.0826 O   0  0  0  0  0  0  0  0  0  0  0  0
  -23.2767  -25.1631   25.2310 O   0  0  0  0  0  0  0  0  0  0  0  0
  -25.8353  -12.0549   20.6116 O   0  0  0  0  0  0  0  0  0  0  0  0
  -19.8215  -28.1058   20.9549 O   0  0  0  0  0  0  0  0  0  1  0  0
  -21.6531   -8.6552   21.7759 F   0  0  0  0  0  0  0  0  0  0  0  0
  -23.8085  -11.6213   18.7822 F   0  0  0  0  0  0  0  0  0  0  0  0
  1  2  1  0  0  0  0
  1  5  2  0  0  0  0
  2  6  2  0  0  0  0
  3  8  2  0  0  0  0
  3 17  1  0  0  0  0
  4  9  1  0  0  0  0
  4 17  2  0  0  0  0
  5 19  1  0  0  0  0
  6 21  1  0  0  0  0
  7 10  2  0  0  0  0
  7 20  1  0  0  0  0
  8 24  1  0  0  0  0
  9 24  2  0  0  0  0
 10 25  1  0  0  0  0
 11 12  2  0  0  0  0
 11 26  1  0  0  0  0
 12 27  1  0  0  0  0
 13 22  1  0  0  0  0
 13 25  2  0  0  0  0
 14 23  1  0  0  0  0
 14 30  2  0  0  0  0
 15 27  2  0  0  0  0
 15 28  1  0  0  0  0
 16 23  2  0  0  0  0
 16 79  1  0  0  0  0
 17 29  1  0  0  0  0
 18 29  1  0  0  0  0
 18 31  2  0  0  0  0
 18 32  1  0  0  0  0
 19 21  2  0  0  0  0
 19 38  1  0  0  0  0
 20 22  2  0  0  0  0
 20 39  1  0  0  0  0
 21 47  1  0  0  0  0
 22 40  1  0  0  0  0
 23 68  1  0  0  0  0
 24 80  1  0  0  0  0
 25 81  1  0  0  0  0
 26 28  2  0  0  0  0
 26 80  1  0  0  0  0
 27 82  1  0  0  0  0
 28 83  1  0  0  0  0
 29 62  2  0  0  0  0
 30 56  1  0  0  0  0
 30 79  1  0  0  0  0
 31 63  1  0  0  0  0
 31 66  1  0  0  0  0
 32 67  1  0  0  0  0
 32 73  2  0  0  0  0
 33 48  1  0  0  0  0
 33 69  1  0  0  0  0
 33 74  2  0  0  0  0
 34 58  1  0  0  0  0
 34 64  1  0  0  0  0
 34 75  2  0  0  0  0
 35 57  1  0  0  0  0
 35 68  1  0  0  0  0
 35 76  2  0  0  0  0
 36 59  1  0  0  0  0
 36 70  1  0  0  0  0
 36 77  2  0  0  0  0
 37 65  1  0  0  0  0
 37 71  1  0  0  0  0
 37 78  2  0  0  0  0
 38 41  1  0  0  0  0
 39 48  1  0  0  0  0
 40 64  1  0  0  0  0
 41 43  1  0  0  0  0
 42 44  1  0  0  0  0
 42 45  1  0  0  0  0
 43 47  1  0  0  0  0
 44 49  1  0  0  0  0
 45 65  1  0  0  0  0
 46 49  1  0  0  0  0
 46 65  1  0  0  0  0
 47 69  1  0  0  0  0
 48 64  1  0  0  0  0
 49 63  1  0  0  0  0
 50 59  1  0  0  0  0
 51 60  1  0  0  0  0
 52 61  1  0  0  0  0
 53 61  1  0  0  0  0
 54 61  1  0  0  0  0
 55 72  1  0  0  0  0
 56 71  1  0  0  0  0
 57 60  1  0  0  0  0
 58 61  1  0  0  0  0
 58 70  1  0  0  0  0
 59 72  1  0  0  0  0
 60 81  1  0  0  0  0
 62 63  1  0  0  0  0
M  CHG  1  72   1
M  ISO  4  37 100  60 101  71 100  81 101
M  END
> <Batch ID>
0149

> <Smiles>
CNC(C)C(=O)NC(C(=O)N1Cc2cc([101O:1][101CH:1](C)CC(=O)Nc3coc(C[100NH:0][100C:0](=O)N4CCCC(n5nc(-c6ccc(Oc7ccc(F)cc7F)cc6)c(C(N)=O)c5N)C4)c3)ccc2CC1C(=O)NC1CCCc2ccccc21)C(C)(C)C

> <Shape>
0.258

> <Color>
0.065

> <Negative vol penalty>
0.000

$$$$

  -OEChem-04052303193D

 87 96  0     1  0  0  0  0  0999 V2000
  -15.9771  -28.0225   25.7283 C   0  0  0  0  0  0  0  0  0  0  0  0
  -17.1203  -27.2531   25.9192 C   0  0  0  0  0  0  0  0  0  0  0  0
  -23.6143   -8.9781   20.2375 C   0  0  0  0  0  0  0  0  0  0  0  0
  -23.4967  -10.6365   21.9904 C   0  0  0  0  0  0  0  0  0  0  0  0
  -15.9864  -29.0651   24.8027 C   0  0  0  0  0  0  0  0  0  0  0  0
  -18.2733  -27.5251   25.1836 C   0  0  0  0  0  0  0  0  0  0  0  0
  -24.0689  -26.9656   27.0819 C   0  0  0  0  0  0  0  0  0  0  0  0
  -22.8600   -8.1009   21.0167 C   0  0  0  0  0  0  0  0  0  0  0  0
  -22.7423   -9.7594   22.7697 C   0  0  0  0  0  0  0  0  0  0  0  0
  -25.0220  -25.9640   26.9029 C   0  0  0  0  0  0  0  0  0  0  0  0
  -19.6082   -7.6610   21.8324 C   0  0  0  0  0  0  0  0  0  0  0  0
  -18.5654   -6.9744   21.2105 C   0  0  0  0  0  0  0  0  0  0  0  0
  -28.5319  -19.7038   19.4499 C   0  0  0  0  0  0  0  0  0  0  0  0
  -25.9427  -27.1820   25.0353 C   0  0  0  0  0  0  0  0  0  0  0  0
  -29.3338  -18.9687   21.5955 C   0  0  0  0  0  0  0  0  0  0  0  0
  -19.6131   -4.8718   21.7750 C   0  0  0  0  0  0  0  0  0  0  0  0
  -23.9327  -10.2458   20.7244 C   0  0  0  0  0  0  0  0  0  0  0  0
  -24.2304  -12.0968   18.9943 C   0  0  0  0  0  0  0  0  0  0  0  0
  -17.1430  -29.3562   24.0623 C   0  0  0  0  0  0  0  0  0  0  0  0
  -24.0387  -28.0796   26.2307 C   0  0  0  0  0  0  0  0  0  0  0  0
  -18.2976  -28.5718   24.2462 C   0  0  0  0  0  0  0  0  0  0  0  0
  -28.8127  -18.4437   18.8956 C   0  0  0  0  0  0  0  0  0  0  0  0
  -24.9898  -28.1977   25.2072 C   0  0  0  0  0  0  0  0  0  0  0  0
  -29.6098  -17.7088   21.0601 C   0  0  0  0  0  0  0  0  0  0  0  0
  -29.3765  -17.4327   19.7027 C   0  0  0  0  0  0  0  0  0  0  0  0
  -28.8015  -19.9679   20.7899 C   0  0  0  0  0  0  0  0  0  0  0  0
  -22.4239   -8.4916   22.2828 C   0  0  0  0  0  0  0  0  0  0  0  0
  -25.9572  -26.0706   25.8777 C   0  0  0  0  0  0  0  0  0  0  0  0
  -20.6535   -6.9530   22.4256 C   0  0  0  0  0  0  0  0  0  0  0  0
  -18.5678   -5.5798   21.1818 C   0  0  0  0  0  0  0  0  0  0  0  0
  -20.6559   -5.5584   22.3969 C   0  0  0  0  0  0  0  0  0  0  0  0
  -24.7124  -11.1521   19.9201 C   0  0  0  0  0  0  0  0  0  0  0  0
  -25.3607  -12.7007   18.5000 C   0  0  0  0  0  0  0  0  0  0  0  0
  -22.8816  -12.4013   18.6152 C   0  0  0  0  0  0  0  0  0  0  0  0
  -21.9227  -29.2847   24.1875 C   0  0  0  0  0  0  0  0  0  0  0  0
  -24.0715  -31.7071   23.9949 C   0  0  0  0  0  0  0  0  0  0  0  0
  -28.7112  -21.6700   22.6440 C   0  0  0  0  0  0  0  0  0  0  0  0
  -27.3007  -32.7508   24.3547 C   0  0  0  0  0  0  0  0  0  0  0  0
  -30.3383  -15.1136   19.8107 C   0  0  0  0  0  0  0  0  0  0  0  0
  -17.0905  -30.4630   23.0391 C   0  0  0  0  0  0  0  0  0  0  0  0
  -23.0210  -29.1645   26.4536 C   0  0  0  0  0  0  0  0  0  0  0  0
  -28.4399  -18.2016   17.4545 C   0  0  0  0  0  0  0  0  0  0  0  0
  -25.0128  -29.3835   24.2789 C   0  0  0  0  0  0  0  0  0  0  0  0
  -18.4679  -30.9249   22.5703 C   0  0  0  0  0  0  0  0  0  0  0  0
  -29.0930  -16.9503   16.8872 C   0  0  0  0  0  0  0  0  0  0  0  0
  -30.2417  -11.5109   18.9536 C   0  0  0  0  0  0  0  0  0  0  0  0
  -19.3511  -29.7247   22.2445 C   0  0  0  0  0  0  0  0  0  0  0  0
  -28.7670  -11.1595   19.1394 C   0  0  0  0  0  0  0  0  0  0  0  0
  -28.9847  -15.8080   17.8820 C   0  0  0  0  0  0  0  0  0  0  0  0
  -30.6667  -12.6636   19.8579 C   0  0  0  0  0  0  0  0  0  0  0  0
  -28.3474  -13.5397   19.8766 C   0  0  0  0  0  0  0  0  0  0  0  0
  -19.5754  -28.8518   23.4852 C   0  0  1  0  0  0  0  0  0  0  0  0
  -22.7598  -30.0042   25.2070 C   0  0  1  0  0  0  0  0  0  0  0  0
  -27.8855  -12.4048   18.9501 C   0  0  2  0  0  0  0  0  0  0  0  0
  -29.9043  -16.6774   22.1042 C   0  0  0  0  0  0  0  0  0  0  0  0
  -28.7576  -34.7765   24.0871 C   0  0  0  0  0  0  0  0  0  0  0  0
  -24.0432  -31.3246   20.9679 C   0  0  0  0  0  0  0  0  0  0  0  0
  -26.1541  -32.6655   20.8487 C   0  0  0  0  0  0  0  0  0  0  0  0
  -24.0623  -33.7104   21.7179 C   0  0  0  0  0  0  0  0  0  0  0  0
  -28.0145  -32.7600   27.2268 C   0  0  0  0  0  0  0  0  0  0  0  0
  -28.2553  -23.1131   22.8087 C   0  0  0  0  0  0  0  0  0  0  0  0
  -27.7621  -23.4160   24.2193 C   0  0  0  0  0  0  0  0  0  0  0  0
  -27.3571  -24.8749   24.3722 C   0  0  0  0  0  0  0  0  0  1  0  0
  -25.2753  -32.0023   23.1332 C   0  0  1  0  0  0  0  0  0  0  0  0
  -27.8958  -33.9661   25.0428 C   0  0  2  0  0  0  0  0  0  0  0  0
  -24.8824  -32.4023   21.6830 C   0  0  0  0  0  0  0  0  0  0  0  0
  -26.0451  -11.1521   20.0103 N   0  0  0  0  0  0  0  0  0  0  0  0
  -26.4101  -12.1040   19.1347 N   0  0  0  0  0  0  0  0  0  0  0  0
  -29.6598  -16.1413   19.1366 N   0  0  0  0  0  0  0  0  0  0  0  0
  -23.9934  -30.4149   24.5335 N   0  0  0  0  0  0  0  0  0  0  0  0
  -29.7833  -13.8218   19.7157 N   0  0  0  0  0  0  0  0  0  0  0  0
  -25.5493  -13.6784   17.5885 N   0  0  0  0  0  0  0  0  0  0  0  0
  -21.8397  -11.6860   19.2210 N   0  0  0  0  0  0  0  0  0  0  0  0
  -28.5118  -21.2220   21.3279 N   0  0  0  0  0  0  0  0  0  0  0  0
  -20.5618  -29.4547   24.3558 N   0  0  0  0  0  0  0  0  0  0  0  0
  -26.0476  -33.0156   23.8441 N   0  0  0  0  0  0  0  0  0  0  0  0
  -28.7406  -33.5462   26.1964 N   0  3  0  0  0  0  0  0  0  0  0  0
  -22.6093  -13.2701   17.7524 O   0  0  0  0  0  0  0  0  0  0  0  0
  -22.4711  -28.6253   23.3121 O   0  0  0  0  0  0  0  0  0  0  0  0
  -23.2350  -32.5926   24.1891 O   0  0  0  0  0  0  0  0  0  0  0  0
  -29.1846  -21.0264   23.5746 O   0  0  0  0  0  0  0  0  0  0  0  0
  -27.8903  -31.6754   24.2746 O   0  0  0  0  0  0  0  0  0  0  0  0
  -31.3332  -15.3522   20.5063 O   0  0  0  0  0  0  0  0  0  0  0  0
  -21.6876   -7.6361   23.0433 O   0  0  0  0  0  0  0  0  0  0  0  0
  -26.8950  -25.0869   25.6991 O   0  0  0  0  0  0  0  0  0  1  0  0
  -17.5656   -4.9206   20.5858 F   0  0  0  0  0  0  0  0  0  0  0  0
  -21.6568   -4.8728   22.9661 F   0  0  0  0  0  0  0  0  0  0  0  0
  1  2  1  0  0  0  0
  1  5  2  0  0  0  0
  2  6  2  0  0  0  0
  3  8  2  0  0  0  0
  3 17  1  0  0  0  0
  4  9  1  0  0  0  0
  4 17  2  0  0  0  0
  5 19  1  0  0  0  0
  6 21  1  0  0  0  0
  7 10  2  0  0  0  0
  7 20  1  0  0  0  0
  8 27  1  0  0  0  0
  9 27  2  0  0  0  0
 10 28  1  0  0  0  0
 11 12  2  0  0  0  0
 11 29  1  0  0  0  0
 12 30  1  0  0  0  0
 13 22  1  0  0  0  0
 13 26  2  0  0  0  0
 14 23  1  0  0  0  0
 14 28  2  0  0  0  0
 15 24  2  0  0  0  0
 15 26  1  0  0  0  0
 16 30  2  0  0  0  0
 16 31  1  0  0  0  0
 17 32  1  0  0  0  0
 18 32  1  0  0  0  0
 18 33  2  0  0  0  0
 18 34  1  0  0  0  0
 19 21  2  0  0  0  0
 19 40  1  0  0  0  0
 20 23  2  0  0  0  0
 20 41  1  0  0  0  0
 21 52  1  0  0  0  0
 22 25  2  0  0  0  0
 22 42  1  0  0  0  0
 23 43  1  0  0  0  0
 24 25  1  0  0  0  0
 24 55  1  0  0  0  0
 25 69  1  0  0  0  0
 26 74  1  0  0  0  0
 27 84  1  0  0  0  0
 28 85  1  0  0  0  0
 29 31  2  0  0  0  0
 29 84  1  0  0  0  0
 30 86  1  0  0  0  0
 31 87  1  0  0  0  0
 32 67  2  0  0  0  0
 33 68  1  0  0  0  0
 33 72  1  0  0  0  0
 34 73  1  0  0  0  0
 34 78  2  0  0  0  0
 35 53  1  0  0  0  0
 35 75  1  0  0  0  0
 35 79  2  0  0  0  0
 36 64  1  0  0  0  0
 36 70  1  0  0  0  0
 36 80  2  0  0  0  0
 37 61  1  0  0  0  0
 37 74  1  0  0  0  0
 37 81  2  0  0  0  0
 38 65  1  0  0  0  0
 38 76  1  0  0  0  0
 38 82  2  0  0  0  0
 39 69  1  0  0  0  0
 39 71  1  0  0  0  0
 39 83  2  0  0  0  0
 40 44  1  0  0  0  0
 41 53  1  0  0  0  0
 42 45  1  0  0  0  0
 43 70  1  0  0  0  0
 44 47  1  0  0  0  0
 45 49  1  0  0  0  0
 46 48  1  0  0  0  0
 46 50  1  0  0  0  0
 47 52  1  0  0  0  0
 48 54  1  0  0  0  0
 49 69  1  0  0  0  0
 50 71  1  0  0  0  0
 51 54  1  0  0  0  0
 51 71  1  0  0  0  0
 52 75  1  0  0  0  0
 53 70  1  0  0  0  0
 54 68  1  0  0  0  0
 56 65  1  0  0  0  0
 57 66  1  0  0  0  0
 58 66  1  0  0  0  0
 59 66  1  0  0  0  0
 60 77  1  0  0  0  0
 61 62  1  0  0  0  0
 62 63  1  0  0  0  0
 63 85  1  0  0  0  0
 64 66  1  0  0  0  0
 64 76  1  0  0  0  0
 65 77  1  0  0  0  0
 67 68  1  0  0  0  0
M  CHG  1  77   1
M  ISO  4  39 100  63 101  69 100  85 101
M  END
> <Batch ID>
0149

> <Smiles>
CNC(C)C(=O)NC(C(=O)N1Cc2cc([101O:1][101CH2:1]CCC(=O)Nc3cc(C)c4c(c3)CCC[100N:0]4[100C:0](=O)N3CCCC(n4nc(-c5ccc(Oc6ccc(F)cc6F)cc5)c(C(N)=O)c4N)C3)ccc2CC1C(=O)NC1CCCc2ccccc21)C(C)(C)C

> <Shape>
0.270

> <Color>
0.096

> <Negative vol penalty>
0.000

$$$$

  -OEChem-04052303193D

 87 95  0     1  0  0  0  0  0999 V2000
  -19.7702  -26.5701   16.4685 C   0  0  0  0  0  0  0  0  0  0  0  0
  -21.1454  -26.6554   16.6609 C   0  0  0  0  0  0  0  0  0  0  0  0
  -24.5977   -8.8008   20.0899 C   0  0  0  0  0  0  0  0  0  0  0  0
  -24.1764   -9.8199   22.2395 C   0  0  0  0  0  0  0  0  0  0  0  0
  -18.9630  -27.6800   16.7143 C   0  0  0  0  0  0  0  0  0  0  0  0
  -21.7143  -27.8511   17.0981 C   0  0  0  0  0  0  0  0  0  0  0  0
  -25.1401  -27.1477   20.7606 C   0  0  0  0  0  0  0  0  0  0  0  0
  -24.3668   -7.5408   20.6420 C   0  0  0  0  0  0  0  0  0  0  0  0
  -23.9454   -8.5600   22.7916 C   0  0  0  0  0  0  0  0  0  0  0  0
  -26.4016  -26.6971   20.3744 C   0  0  0  0  0  0  0  0  0  0  0  0
  -22.8912   -5.6404   24.6846 C   0  0  0  0  0  0  0  0  0  0  0  0
  -21.7848   -5.4908   25.5207 C   0  0  0  0  0  0  0  0  0  0  0  0
  -27.2467  -28.9514   20.5263 C   0  0  0  0  0  0  0  0  0  0  0  0
  -27.5999  -20.1665   20.2826 C   0  0  0  0  0  0  0  0  0  0  0  0
  -20.3272   -6.1477   23.7094 C   0  0  0  0  0  0  0  0  0  0  0  0
  -24.5026   -9.9404   20.8887 C   0  0  0  0  0  0  0  0  0  0  0  0
  -23.7935  -12.0983   19.7276 C   0  0  0  0  0  0  0  0  0  0  0  0
  -19.5211  -28.8870   17.1639 C   0  0  0  0  0  0  0  0  0  0  0  0
  -24.9194  -28.5075   21.0224 C   0  0  0  0  0  0  0  0  0  0  0  0
  -20.9139  -28.9786   17.3487 C   0  0  0  0  0  0  0  0  0  0  0  0
  -25.9821  -29.4163   20.9182 C   0  0  0  0  0  0  0  0  0  0  0  0
  -26.8595  -21.3837   20.3002 C   0  0  0  0  0  0  0  0  0  0  0  0
  -24.0406   -7.4204   21.9928 C   0  0  0  0  0  0  0  0  0  0  0  0
  -27.4545  -27.5994   20.2544 C   0  0  0  0  0  0  0  0  0  0  0  0
  -22.7156   -6.0438   23.3608 C   0  0  0  0  0  0  0  0  0  0  0  0
  -20.5028   -5.7444   25.0331 C   0  0  0  0  0  0  0  0  0  0  0  0
  -21.4336   -6.2974   22.8732 C   0  0  0  0  0  0  0  0  0  0  0  0
  -24.7416  -11.2421   20.3192 C   0  0  0  0  0  0  0  0  0  0  0  0
  -24.5175  -13.2018   19.3473 C   0  0  0  0  0  0  0  0  0  0  0  0
  -26.7898  -19.0655   20.4525 C   0  0  0  0  0  0  0  0  0  0  0  0
  -25.5113  -21.1665   20.4826 C   0  0  0  0  0  0  0  0  0  0  0  0
  -22.3844  -11.9128   19.5389 C   0  0  0  0  0  0  0  0  0  0  0  0
  -23.0729  -30.7645   19.7575 C   0  0  0  0  0  0  0  0  0  0  0  0
  -24.1896  -32.5244   22.2430 C   0  0  0  0  0  0  0  0  0  0  0  0
  -28.7778  -22.9758   19.9638 C   0  0  0  0  0  0  0  0  0  0  0  0
  -26.6413  -33.0339   24.5618 C   0  0  0  0  0  0  0  0  0  0  0  0
  -28.3606  -17.0975   20.3758 C   0  0  0  0  0  0  0  0  0  0  0  0
  -18.6137  -30.0738   17.3708 C   0  0  0  0  0  0  0  0  0  0  0  0
  -23.5591  -28.9736   21.4639 C   0  0  0  0  0  0  0  0  0  0  0  0
  -25.8022  -30.8834   21.2076 C   0  0  0  0  0  0  0  0  0  0  0  0
  -19.2512  -31.1923   18.1912 C   0  0  0  0  0  0  0  0  0  0  0  0
  -29.5193  -13.9567   19.1634 C   0  0  0  0  0  0  0  0  0  0  0  0
  -20.6635  -31.4815   17.6928 C   0  0  0  0  0  0  0  0  0  0  0  0
  -28.3016  -13.0409   19.3073 C   0  0  0  0  0  0  0  0  0  0  0  0
  -29.6177  -14.9548   20.3157 C   0  0  0  0  0  0  0  0  0  0  0  0
  -27.1873  -14.8316   20.6997 C   0  0  0  0  0  0  0  0  0  0  0  0
  -21.5654  -30.2508   17.8458 C   0  0  1  0  0  0  0  0  0  0  0  0
  -23.3239  -30.4588   21.2070 C   0  0  1  0  0  0  0  0  0  0  0  0
  -27.0097  -13.8518   19.5284 C   0  0  2  0  0  0  0  0  0  0  0  0
  -27.2943  -34.5743   26.4322 C   0  0  0  0  0  0  0  0  0  0  0  0
  -25.0321  -34.6353   20.2073 C   0  0  0  0  0  0  0  0  0  0  0  0
  -26.4844  -35.6573   21.9720 C   0  0  0  0  0  0  0  0  0  0  0  0
  -24.0138  -35.5517   22.2995 C   0  0  0  0  0  0  0  0  0  0  0  0
  -30.7009  -24.5924   21.7307 C   0  0  0  0  0  0  0  0  0  0  0  0
  -28.2929  -24.9506   22.2364 C   0  0  0  0  0  0  0  0  0  0  0  0
  -29.1960  -27.6119   22.1641 C   0  0  0  0  0  0  0  0  0  0  0  0
  -30.9930  -27.1531   20.4952 C   0  0  0  0  0  0  0  0  0  0  0  0
  -26.5880  -30.8373   26.5445 C   0  0  0  0  0  0  0  0  0  0  0  0
  -29.0114  -24.4796   19.8425 C   0  0  0  0  0  0  0  0  0  0  0  0
  -25.3777  -33.4292   22.4638 C   0  0  1  0  0  0  0  0  0  0  0  0
  -26.5765  -33.2870   26.0572 C   0  0  2  0  0  0  0  0  0  0  0  0
  -25.2303  -34.7911   21.7283 C   0  0  0  0  0  0  0  0  0  0  0  0
  -29.3894  -25.2004   21.1702 C   0  0  0  0  0  0  0  0  0  0  0  0
  -29.5725  -26.7614   20.9384 C   0  0  0  0  0  0  0  0  0  1  0  0
  -25.9739  -11.7573   20.3170 N   0  0  0  0  0  0  0  0  0  0  0  0
  -25.8051  -12.9492   19.7194 N   0  0  0  0  0  0  0  0  0  0  0  0
  -24.4520  -31.2912   21.6298 N   0  0  0  0  0  0  0  0  0  0  0  0
  -28.3592  -15.6892   20.4628 N   0  0  0  0  0  0  0  0  0  0  0  0
  -24.1720  -14.3538   18.7342 N   0  0  0  0  0  0  0  0  0  0  0  0
  -24.5309  -22.1043   20.5480 N   0  0  0  0  0  0  0  0  0  0  0  0
  -21.8013  -10.7204   19.9890 N   0  0  0  0  0  0  0  0  0  0  0  0
  -27.4363  -22.6671   20.1497 N   0  0  0  0  0  0  0  0  0  0  0  0
  -27.1014  -17.6840   20.4983 N   0  0  0  0  0  0  0  0  0  0  0  0
  -21.9857  -30.1003   19.2225 N   0  0  0  0  0  0  0  0  0  0  0  0
  -25.5396  -33.5452   23.9091 N   0  0  0  0  0  0  0  0  0  0  0  0
  -27.2102  -32.1618   26.8009 N   0  3  0  0  0  0  0  0  0  0  0  0
  -21.6666  -12.7717   18.9727 O   0  0  0  0  0  0  0  0  0  0  0  0
  -23.8100  -31.5464   19.1685 O   0  0  0  0  0  0  0  0  0  0  0  0
  -23.0711  -32.8951   22.6079 O   0  0  0  0  0  0  0  0  0  0  0  0
  -29.7218  -22.1931   19.8959 O   0  0  0  0  0  0  0  0  0  0  0  0
  -27.5775  -32.4451   24.0258 O   0  0  0  0  0  0  0  0  0  0  0  0
  -29.3985  -17.7344   20.1781 O   0  0  0  0  0  0  0  0  0  0  0  0
  -23.8150   -6.1911   22.5318 O   0  0  0  0  0  0  0  0  0  0  0  0
  -28.6887  -27.1616   19.8764 O   0  0  0  0  0  0  0  0  0  1  0  0
  -19.4403   -5.5992   25.8357 F   0  0  0  0  0  0  0  0  0  0  0  0
  -21.2585   -6.6840   21.6021 F   0  0  0  0  0  0  0  0  0  0  0  0
  -25.1434  -19.5008   20.6320 S   0  0  0  0  0  0  0  0  0  0  0  0
  1  2  1  0  0  0  0
  1  5  2  0  0  0  0
  2  6  2  0  0  0  0
  3  8  2  0  0  0  0
  3 16  1  0  0  0  0
  4  9  1  0  0  0  0
  4 16  2  0  0  0  0
  5 18  1  0  0  0  0
  6 20  1  0  0  0  0
  7 10  2  0  0  0  0
  7 19  1  0  0  0  0
  8 23  1  0  0  0  0
  9 23  2  0  0  0  0
 10 24  1  0  0  0  0
 11 12  2  0  0  0  0
 11 25  1  0  0  0  0
 12 26  1  0  0  0  0
 13 21  1  0  0  0  0
 13 24  2  0  0  0  0
 14 22  1  0  0  0  0
 14 30  2  0  0  0  0
 15 26  2  0  0  0  0
 15 27  1  0  0  0  0
 16 28  1  0  0  0  0
 17 28  1  0  0  0  0
 17 29  2  0  0  0  0
 17 32  1  0  0  0  0
 18 20  2  0  0  0  0
 18 38  1  0  0  0  0
 19 21  2  0  0  0  0
 19 39  1  0  0  0  0
 20 47  1  0  0  0  0
 21 40  1  0  0  0  0
 22 31  2  0  0  0  0
 22 72  1  0  0  0  0
 23 83  1  0  0  0  0
 24 84  1  0  0  0  0
 25 27  2  0  0  0  0
 25 83  1  0  0  0  0
 26 85  1  0  0  0  0
 27 86  1  0  0  0  0
 28 65  2  0  0  0  0
 29 66  1  0  0  0  0
 29 69  1  0  0  0  0
 30 73  1  0  0  0  0
 30 87  1  0  0  0  0
 31 70  1  0  0  0  0
 31 87  1  0  0  0  0
 32 71  1  0  0  0  0
 32 77  2  0  0  0  0
 33 48  1  0  0  0  0
 33 74  1  0  0  0  0
 33 78  2  0  0  0  0
 34 60  1  0  0  0  0
 34 67  1  0  0  0  0
 34 79  2  0  0  0  0
 35 59  1  0  0  0  0
 35 72  1  0  0  0  0
 35 80  2  0  0  0  0
 36 61  1  0  0  0  0
 36 75  1  0  0  0  0
 36 81  2  0  0  0  0
 37 68  1  0  0  0  0
 37 73  1  0  0  0  0
 37 82  2  0  0  0  0
 38 41  1  0  0  0  0
 39 48  1  0  0  0  0
 40 67  1  0  0  0  0
 41 43  1  0  0  0  0
 42 44  1  0  0  0  0
 42 45  1  0  0  0  0
 43 47  1  0  0  0  0
 44 49  1  0  0  0  0
 45 68  1  0  0  0  0
 46 49  1  0  0  0  0
 46 68  1  0  0  0  0
 47 74  1  0  0  0  0
 48 67  1  0  0  0  0
 49 66  1  0  0  0  0
 50 61  1  0  0  0  0
 51 62  1  0  0  0  0
 52 62  1  0  0  0  0
 53 62  1  0  0  0  0
 54 63  1  0  0  0  0
 55 63  1  0  0  0  0
 56 64  1  0  0  0  0
 57 64  1  0  0  0  0
 58 76  1  0  0  0  0
 59 63  1  0  0  0  0
 60 62  1  0  0  0  0
 60 75  1  0  0  0  0
 61 76  1  0  0  0  0
 63 64  1  0  0  0  0
 64 84  1  0  0  0  0
 65 66  1  0  0  0  0
M  CHG  1  76   1
M  ISO  4  37 100  64 101  73 100  84 101
M  END
> <Batch ID>
0149

> <Smiles>
CNC(C)C(=O)NC(C(=O)N1Cc2cc([101O:1][101C:1](C)(C)C(C)(C)CC(=O)Nc3cc([100NH:0][100C:0](=O)N4CCCC(n5nc(-c6ccc(Oc7ccc(F)cc7F)cc6)c(C(N)=O)c5N)C4)sc3N)ccc2CC1C(=O)NC1CCCc2ccccc21)C(C)(C)C

> <Shape>
0.308

> <Color>
0.109

> <Negative vol penalty>
0.000

$$$$

  -OEChem-04052303193D

 86 94  0     1  0  0  0  0  0999 V2000
  -22.2200   -7.7543   20.8259 C   0  0  0  0  0  0  0  0  0  0  0  0
  -21.6176   -9.0051   20.9149 C   0  0  0  0  0  0  0  0  0  0  0  0
  -27.5786  -25.5018   20.5586 C   0  0  0  0  0  0  0  0  0  0  0  0
  -27.8334  -26.3787   18.3218 C   0  0  0  0  0  0  0  0  0  0  0  0
  -23.5641   -7.6034   21.1645 C   0  0  0  0  0  0  0  0  0  0  0  0
  -22.3587  -10.1057   21.3438 C   0  0  0  0  0  0  0  0  0  0  0  0
  -21.7880  -15.8975   19.4371 C   0  0  0  0  0  0  0  0  0  0  0  0
  -28.3738  -24.4070   20.2200 C   0  0  0  0  0  0  0  0  0  0  0  0
  -28.6287  -25.2840   17.9832 C   0  0  0  0  0  0  0  0  0  0  0  0
  -21.1290  -17.0017   19.9758 C   0  0  0  0  0  0  0  0  0  0  0  0
  -31.0229  -22.9031   16.6350 C   0  0  0  0  0  0  0  0  0  0  0  0
  -32.1957  -23.1487   15.9211 C   0  0  0  0  0  0  0  0  0  0  0  0
  -23.1926  -17.7306   20.9904 C   0  0  0  0  0  0  0  0  0  0  0  0
  -19.3712  -27.0789   24.8732 C   0  0  0  0  0  0  0  0  0  0  0  0
  -33.0026  -24.5388   17.7249 C   0  0  0  0  0  0  0  0  0  0  0  0
  -27.3083  -26.4876   19.6095 C   0  0  0  0  0  0  0  0  0  0  0  0
  -26.9156  -28.8495   20.4898 C   0  0  0  0  0  0  0  0  0  0  0  0
  -24.3246   -8.7046   21.5885 C   0  0  0  0  0  0  0  0  0  0  0  0
  -23.1541  -15.6953   19.6805 C   0  0  0  0  0  0  0  0  0  0  0  0
  -23.7139   -9.9692   21.6898 C   0  0  0  0  0  0  0  0  0  0  0  0
  -23.8671  -16.6244   20.4515 C   0  0  0  0  0  0  0  0  0  0  0  0
  -19.6057  -26.7609   23.5042 C   0  0  0  0  0  0  0  0  0  0  0  0
  -28.8989  -24.2981   18.9323 C   0  0  0  0  0  0  0  0  0  0  0  0
  -21.8307  -17.9169   20.7550 C   0  0  0  0  0  0  0  0  0  0  0  0
  -30.8398  -23.4754   17.8938 C   0  0  0  0  0  0  0  0  0  0  0  0
  -33.1856  -23.9665   16.4660 C   0  0  0  0  0  0  0  0  0  0  0  0
  -31.8297  -24.2932   18.4388 C   0  0  0  0  0  0  0  0  0  0  0  0
  -26.4865  -27.6185   19.9585 C   0  0  0  0  0  0  0  0  0  0  0  0
  -25.7615  -29.5782   20.6432 C   0  0  0  0  0  0  0  0  0  0  0  0
  -18.6798  -26.0816   25.5250 C   0  0  0  0  0  0  0  0  0  0  0  0
  -19.0848  -25.5323   23.1619 C   0  0  0  0  0  0  0  0  0  0  0  0
  -28.2390  -29.2945   20.8156 C   0  0  0  0  0  0  0  0  0  0  0  0
  -24.8669  -13.4315   21.1105 C   0  0  0  0  0  0  0  0  0  0  0  0
  -27.3706  -15.1617   19.9879 C   0  0  0  0  0  0  0  0  0  0  0  0
  -18.5283  -23.5763   21.6755 C   0  0  0  0  0  0  0  0  0  0  0  0
  -28.5623  -18.1760   18.9198 C   0  0  0  0  0  0  0  0  0  0  0  0
  -20.0017  -27.6061   21.1969 C   0  0  0  0  0  0  0  0  0  0  0  0
  -25.7616   -8.4833   21.9891 C   0  0  0  0  0  0  0  0  0  0  0  0
  -23.8562  -14.5135   19.0700 C   0  0  0  0  0  0  0  0  0  0  0  0
  -25.3394  -16.4638   20.7256 C   0  0  0  0  0  0  0  0  0  0  0  0
  -26.5751   -9.7721   22.0761 C   0  0  0  0  0  0  0  0  0  0  0  0
  -21.3695  -30.0836   18.8301 C   0  0  0  0  0  0  0  0  0  0  0  0
  -25.8016  -10.8409   22.8418 C   0  0  0  0  0  0  0  0  0  0  0  0
  -22.8679  -29.7865   18.8544 C   0  0  0  0  0  0  0  0  0  0  0  0
  -20.5395  -28.8352   19.1144 C   0  0  0  0  0  0  0  0  0  0  0  0
  -22.4050  -27.8500   20.4103 C   0  0  0  0  0  0  0  0  0  0  0  0
  -24.4911  -11.1918   22.1270 C   0  0  1  0  0  0  0  0  0  0  0  0
  -25.1354  -14.1316   19.8084 C   0  0  1  0  0  0  0  0  0  0  0  0
  -23.2693  -29.0970   20.1698 C   0  0  1  0  0  0  0  0  0  0  0  0
  -17.6021  -23.7394   19.3732 C   0  0  0  0  0  0  0  0  0  0  0  0
  -30.6584  -19.2884   18.1037 C   0  0  0  0  0  0  0  0  0  0  0  0
  -28.4461  -15.2240   22.8426 C   0  0  0  0  0  0  0  0  0  0  0  0
  -29.9658  -17.0912   22.1551 C   0  0  0  0  0  0  0  0  0  0  0  0
  -30.1821  -14.8499   21.0816 C   0  0  0  0  0  0  0  0  0  0  0  0
  -21.1709  -28.6721   23.1117 C   0  0  0  0  0  0  0  0  0  0  0  0
  -27.3282  -18.8520   16.3162 C   0  0  0  0  0  0  0  0  0  0  0  0
  -19.9906  -21.0156   20.7924 C   0  0  0  0  0  0  0  0  0  0  0  0
  -18.8082  -21.6356   20.0436 C   0  0  0  0  0  0  0  0  0  0  0  0
  -20.0817  -19.5153   20.5489 C   0  0  0  0  0  0  0  0  0  1  0  0
  -28.1979  -16.3100   20.5134 C   0  0  1  0  0  0  0  0  0  0  0  0
  -18.7431  -23.1630   20.2144 C   0  0  2  0  0  0  0  0  0  0  0  0
  -29.3848  -18.5602   17.7032 C   0  0  2  0  0  0  0  0  0  0  0  0
  -29.1698  -15.8710   21.6448 C   0  0  0  0  0  0  0  0  0  0  0  0
  -25.1631  -27.5645   19.7860 N   0  0  0  0  0  0  0  0  0  0  0  0
  -24.7506  -28.7708   20.2115 N   0  0  0  0  0  0  0  0  0  0  0  0
  -25.9798  -15.2888   20.1119 N   0  0  0  0  0  0  0  0  0  0  0  0
  -20.9715  -28.1738   20.3462 N   0  0  0  0  0  0  0  0  0  0  0  0
  -25.5229  -30.8245   21.1038 N   0  0  0  0  0  0  0  0  0  0  0  0
  -18.3029  -26.0798   26.8279 N   0  0  0  0  0  0  0  0  0  0  0  0
  -29.3113  -28.4193   20.5954 N   0  0  0  0  0  0  0  0  0  0  0  0
  -19.0838  -24.8261   21.9355 N   0  0  0  0  0  0  0  0  0  0  0  0
  -24.7480  -12.0595   20.9976 N   0  0  0  0  0  0  0  0  0  0  0  0
  -28.8580  -16.9014   19.3546 N   0  0  0  0  0  0  0  0  0  0  0  0
  -20.3064  -27.6158   22.5753 N   0  0  0  0  0  0  0  0  0  0  0  0
  -28.5967  -19.4509   16.8052 N   0  3  0  0  0  0  0  0  0  0  0  0
  -28.4623  -30.4284   21.3032 O   0  0  0  0  0  0  0  0  0  0  0  0
  -24.7760  -14.0875   22.1416 O   0  0  0  0  0  0  0  0  0  0  0  0
  -27.9372  -14.1912   19.4794 O   0  0  0  0  0  0  0  0  0  0  0  0
  -17.9132  -22.8626   22.4624 O   0  0  0  0  0  0  0  0  0  0  0  0
  -27.7423  -18.9325   19.4354 O   0  0  0  0  0  0  0  0  0  0  0  0
  -18.9359  -27.1544   20.7614 O   0  0  0  0  0  0  0  0  0  0  0  0
  -29.6751  -23.2301   18.6016 O   0  0  0  0  0  0  0  0  0  0  0  0
  -21.1897  -18.9952   21.2825 O   0  0  0  0  0  0  0  0  0  1  0  0
  -34.3125  -24.2009   15.7810 F   0  0  0  0  0  0  0  0  0  0  0  0
  -31.6600  -24.8449   19.6482 F   0  0  0  0  0  0  0  0  0  0  0  0
  -18.3165  -24.7682   24.4879 S   0  0  0  0  0  0  0  0  0  0  0  0
  1  2  1  0  0  0  0
  1  5  2  0  0  0  0
  2  6  2  0  0  0  0
  3  8  2  0  0  0  0
  3 16  1  0  0  0  0
  4  9  1  0  0  0  0
  4 16  2  0  0  0  0
  5 18  1  0  0  0  0
  6 20  1  0  0  0  0
  7 10  2  0  0  0  0
  7 19  1  0  0  0  0
  8 23  1  0  0  0  0
  9 23  2  0  0  0  0
 10 24  1  0  0  0  0
 11 12  2  0  0  0  0
 11 25  1  0  0  0  0
 12 26  1  0  0  0  0
 13 21  1  0  0  0  0
 13 24  2  0  0  0  0
 14 22  1  0  0  0  0
 14 30  2  0  0  0  0
 15 26  2  0  0  0  0
 15 27  1  0  0  0  0
 16 28  1  0  0  0  0
 17 28  1  0  0  0  0
 17 29  2  0  0  0  0
 17 32  1  0  0  0  0
 18 20  2  0  0  0  0
 18 38  1  0  0  0  0
 19 21  2  0  0  0  0
 19 39  1  0  0  0  0
 20 47  1  0  0  0  0
 21 40  1  0  0  0  0
 22 31  2  0  0  0  0
 22 74  1  0  0  0  0
 23 82  1  0  0  0  0
 24 83  1  0  0  0  0
 25 27  2  0  0  0  0
 25 82  1  0  0  0  0
 26 84  1  0  0  0  0
 27 85  1  0  0  0  0
 28 64  2  0  0  0  0
 29 65  1  0  0  0  0
 29 68  1  0  0  0  0
 30 69  1  0  0  0  0
 30 86  1  0  0  0  0
 31 71  1  0  0  0  0
 31 86  1  0  0  0  0
 32 70  1  0  0  0  0
 32 76  2  0  0  0  0
 33 48  1  0  0  0  0
 33 72  1  0  0  0  0
 33 77  2  0  0  0  0
 34 60  1  0  0  0  0
 34 66  1  0  0  0  0
 34 78  2  0  0  0  0
 35 61  1  0  0  0  0
 35 71  1  0  0  0  0
 35 79  2  0  0  0  0
 36 62  1  0  0  0  0
 36 73  1  0  0  0  0
 36 80  2  0  0  0  0
 37 67  1  0  0  0  0
 37 74  1  0  0  0  0
 37 81  2  0  0  0  0
 38 41  1  0  0  0  0
 39 48  1  0  0  0  0
 40 66  1  0  0  0  0
 41 43  1  0  0  0  0
 42 44  1  0  0  0  0
 42 45  1  0  0  0  0
 43 47  1  0  0  0  0
 44 49  1  0  0  0  0
 45 67  1  0  0  0  0
 46 49  1  0  0  0  0
 46 67  1  0  0  0  0
 47 72  1  0  0  0  0
 48 66  1  0  0  0  0
 49 65  1  0  0  0  0
 50 61  1  0  0  0  0
 51 62  1  0  0  0  0
 52 63  1  0  0  0  0
 53 63  1  0  0  0  0
 54 63  1  0  0  0  0
 55 74  1  0  0  0  0
 56 75  1  0  0  0  0
 57 58  1  0  0  0  0
 57 59  1  0  0  0  0
 58 61  1  0  0  0  0
 59 83  1  0  0  0  0
 60 63  1  0  0  0  0
 60 73  1  0  0  0  0
 62 75  1  0  0  0  0
 64 65  1  0  0  0  0
M  CHG  1  75   1
M  ISO  4  37 100  59 101  74 100  83 101
M  END
> <Batch ID>
0149

> <Smiles>
CNC(C)C(=O)NC(C(=O)N1Cc2cc([101O:1][101CH2:1]CCC(C)C(=O)Nc3sc(N)cc3[100N:0](C)[100C:0](=O)N3CCCC(n4nc(-c5ccc(Oc6ccc(F)cc6F)cc5)c(C(N)=O)c4N)C3)ccc2CC1C(=O)NC1CCCc2ccccc21)C(C)(C)C

> <Shape>
0.266

> <Color>
0.042

> <Negative vol penalty>
0.000

$$$$

  -OEChem-04052303193D

 83 92  0     1  0  0  0  0  0999 V2000
  -18.8449  -20.9181   19.6875 C   0  0  0  0  0  0  0  0  0  0  0  0
  -19.9125  -20.5842   20.5146 C   0  0  0  0  0  0  0  0  0  0  0  0
  -22.0863  -28.4616   20.8536 C   0  0  0  0  0  0  0  0  0  0  0  0
  -22.7311  -26.5222   22.1419 C   0  0  0  0  0  0  0  0  0  0  0  0
  -18.1870  -19.9237   18.9648 C   0  0  0  0  0  0  0  0  0  0  0  0
  -20.3222  -19.2555   20.6203 C   0  0  0  0  0  0  0  0  0  0  0  0
  -30.0833  -19.7010   21.4616 C   0  0  0  0  0  0  0  0  0  0  0  0
  -29.6226  -20.9655   23.4681 C   0  0  0  0  0  0  0  0  0  0  0  0
  -25.3560  -18.7508   20.3938 C   0  0  0  0  0  0  0  0  0  0  0  0
  -29.7318  -20.8051   20.6851 C   0  0  0  0  0  0  0  0  0  0  0  0
  -29.2711  -22.0696   22.6916 C   0  0  0  0  0  0  0  0  0  0  0  0
  -20.7714  -28.3187   21.2965 C   0  0  0  0  0  0  0  0  0  0  0  0
  -21.4162  -26.3793   22.5849 C   0  0  0  0  0  0  0  0  0  0  0  0
  -26.0792  -19.0579   21.5455 C   0  0  0  0  0  0  0  0  0  0  0  0
  -18.9919  -29.0210   24.0846 C   0  0  0  0  0  0  0  0  0  0  0  0
  -18.3234  -30.1683   24.5115 C   0  0  0  0  0  0  0  0  0  0  0  0
  -26.2376  -16.7075   22.0653 C   0  0  0  0  0  0  0  0  0  0  0  0
  -16.6489  -29.8282   22.8034 C   0  0  0  0  0  0  0  0  0  0  0  0
  -23.0661  -27.5633   21.2762 C   0  0  0  0  0  0  0  0  0  0  0  0
  -25.2713  -28.8180   21.0109 C   0  0  0  0  0  0  0  0  0  0  0  0
  -30.0287  -19.7812   22.8531 C   0  0  0  0  0  0  0  0  0  0  0  0
  -18.5950  -18.5835   19.0542 C   0  0  0  0  0  0  0  0  0  0  0  0
  -25.0583  -17.4182   20.0743 C   0  0  0  0  0  0  0  0  0  0  0  0
  -19.6683  -18.2421   19.8991 C   0  0  0  0  0  0  0  0  0  0  0  0
  -25.5127  -16.3861   20.9076 C   0  0  0  0  0  0  0  0  0  0  0  0
  -29.3257  -21.9894   21.3000 C   0  0  0  0  0  0  0  0  0  0  0  0
  -20.4363  -27.2776   22.1622 C   0  0  0  0  0  0  0  0  0  0  0  0
  -26.5176  -18.0363   22.3831 C   0  0  0  0  0  0  0  0  0  0  0  0
  -18.4890  -28.2773   23.0170 C   0  0  0  0  0  0  0  0  0  0  0  0
  -17.1519  -30.5719   23.8710 C   0  0  0  0  0  0  0  0  0  0  0  0
  -17.3174  -28.6809   22.3765 C   0  0  0  0  0  0  0  0  0  0  0  0
  -24.4245  -27.7100   20.8185 C   0  0  0  0  0  0  0  0  0  0  0  0
  -26.4447  -28.4652   20.3903 C   0  0  0  0  0  0  0  0  0  0  0  0
  -25.0198  -30.0555   21.6900 C   0  0  0  0  0  0  0  0  0  0  0  0
  -22.3818  -15.7405   19.7206 C   0  0  0  0  0  0  0  0  0  0  0  0
  -24.4279  -13.4151   18.7571 C   0  0  0  0  0  0  0  0  0  0  0  0
  -27.6420  -12.1420   19.7896 C   0  0  0  0  0  0  0  0  0  0  0  0
  -28.9677  -23.1997   19.1198 C   0  0  0  0  0  0  0  0  0  0  0  0
  -17.8228  -17.5371   18.2903 C   0  0  0  0  0  0  0  0  0  0  0  0
  -24.3003  -17.1021   18.8142 C   0  0  0  0  0  0  0  0  0  0  0  0
  -25.2369  -14.9380   20.5988 C   0  0  0  0  0  0  0  0  0  0  0  0
  -18.5583  -16.2049   18.1692 C   0  0  0  0  0  0  0  0  0  0  0  0
  -28.1210  -25.7690   16.8049 C   0  0  0  0  0  0  0  0  0  0  0  0
  -19.1354  -15.7891   19.5186 C   0  0  0  0  0  0  0  0  0  0  0  0
  -27.1588  -26.6626   17.5910 C   0  0  0  0  0  0  0  0  0  0  0  0
  -27.9288  -24.2920   17.1443 C   0  0  0  0  0  0  0  0  0  0  0  0
  -27.0228  -24.8652   19.3624 C   0  0  0  0  0  0  0  0  0  0  0  0
  -31.5824  -18.8562   24.6350 C   0  0  0  0  0  0  0  0  0  0  0  0
  -30.1013  -17.1543   25.5737 C   0  0  0  0  0  0  0  0  0  0  0  0
  -30.4094  -18.5853   23.6941 C   0  0  1  0  0  0  0  0  0  0  0  0
  -20.1581  -16.8154   20.0211 C   0  0  1  0  0  0  0  0  0  0  0  0
  -23.6113  -15.7416   18.8569 C   0  0  1  0  0  0  0  0  0  0  0  0
  -29.3196  -18.0812   24.6522 C   0  0  1  0  0  0  0  0  0  0  0  0
  -27.2229  -26.3672   19.1023 C   0  0  2  0  0  0  0  0  0  0  0  0
  -29.4360  -10.9807   18.4742 C   0  0  0  0  0  0  0  0  0  0  0  0
  -23.0748  -10.8560   19.7216 C   0  0  0  0  0  0  0  0  0  0  0  0
  -25.3463   -9.8356   19.9810 C   0  0  0  0  0  0  0  0  0  0  0  0
  -24.5583  -10.5647   17.7293 C   0  0  0  0  0  0  0  0  0  0  0  0
  -29.6857  -14.1185   20.6116 C   0  0  0  0  0  0  0  0  0  0  0  0
  -28.1720  -17.3653   23.9542 C   0  0  0  0  0  0  0  0  0  1  0  0
  -25.1908  -12.3096   19.4461 C   0  0  1  0  0  0  0  0  0  0  0  0
  -28.9615  -12.3031   19.0565 C   0  0  2  0  0  0  0  0  0  0  0  0
  -24.5359  -10.9156   19.2330 C   0  0  0  0  0  0  0  0  0  0  0  0
  -25.0100  -26.7270   20.1295 N   0  0  0  0  0  0  0  0  0  0  0  0
  -26.2373  -27.2161   19.8834 N   0  0  0  0  0  0  0  0  0  0  0  0
  -24.4865  -14.6803   19.3586 N   0  0  0  0  0  0  0  0  0  0  0  0
  -28.0062  -24.0875   18.5925 N   0  0  0  0  0  0  0  0  0  0  0  0
  -27.6233  -29.1046   20.2342 N   0  0  0  0  0  0  0  0  0  0  0  0
  -23.7604  -30.2544   22.2717 N   0  0  0  0  0  0  0  0  0  0  0  0
  -28.9689  -23.1113   20.5115 N   0  0  0  0  0  0  0  0  0  0  0  0
  -21.4193  -16.6520   19.3304 N   0  0  0  0  0  0  0  0  0  0  0  0
  -26.5659  -12.4031   18.9679 N   0  0  0  0  0  0  0  0  0  0  0  0
  -31.4373  -17.8233   25.7174 N   0  3  0  0  0  0  0  0  0  0  0  0
  -30.0109  -12.8116   19.9843 N   0  3  0  0  0  0  0  0  0  0  0  0
  -25.8808  -30.9647   21.7641 O   0  0  0  0  0  0  0  0  0  0  0  0
  -22.3110  -14.9687   20.6698 O   0  0  0  0  0  0  0  0  0  0  0  0
  -23.8088  -13.1669   17.7194 O   0  0  0  0  0  0  0  0  0  0  0  0
  -27.5727  -11.8135   20.9719 O   0  0  0  0  0  0  0  0  0  0  0  0
  -29.7517  -22.5851   18.3920 O   0  0  0  0  0  0  0  0  0  0  0  0
  -19.1534  -27.1380   22.5948 O   0  0  0  0  0  0  0  0  0  0  0  0
  -27.2231  -18.3333   23.5082 O   0  0  0  0  0  0  0  0  0  1  0  0
  -16.5092  -31.6729   24.2821 F   0  0  0  0  0  0  0  0  0  0  0  0
  -16.8288  -27.9698   21.3511 F   0  0  0  0  0  0  0  0  0  0  0  0
  1  2  1  0  0  0  0
  1  5  2  0  0  0  0
  2  6  2  0  0  0  0
  3 12  2  0  0  0  0
  3 19  1  0  0  0  0
  4 13  1  0  0  0  0
  4 19  2  0  0  0  0
  5 22  1  0  0  0  0
  6 24  1  0  0  0  0
  7 10  2  0  0  0  0
  7 21  1  0  0  0  0
  8 11  1  0  0  0  0
  8 21  2  0  0  0  0
  9 14  2  0  0  0  0
  9 23  1  0  0  0  0
 10 26  1  0  0  0  0
 11 26  2  0  0  0  0
 12 27  1  0  0  0  0
 13 27  2  0  0  0  0
 14 28  1  0  0  0  0
 15 16  2  0  0  0  0
 15 29  1  0  0  0  0
 16 30  1  0  0  0  0
 17 25  1  0  0  0  0
 17 28  2  0  0  0  0
 18 30  2  0  0  0  0
 18 31  1  0  0  0  0
 19 32  1  0  0  0  0
 20 32  1  0  0  0  0
 20 33  2  0  0  0  0
 20 34  1  0  0  0  0
 21 50  1  0  0  0  0
 22 24  2  0  0  0  0
 22 39  1  0  0  0  0
 23 25  2  0  0  0  0
 23 40  1  0  0  0  0
 24 51  1  0  0  0  0
 25 41  1  0  0  0  0
 26 70  1  0  0  0  0
 27 80  1  0  0  0  0
 28 81  1  0  0  0  0
 29 31  2  0  0  0  0
 29 80  1  0  0  0  0
 30 82  1  0  0  0  0
 31 83  1  0  0  0  0
 32 64  2  0  0  0  0
 33 65  1  0  0  0  0
 33 68  1  0  0  0  0
 34 69  1  0  0  0  0
 34 75  2  0  0  0  0
 35 52  1  0  0  0  0
 35 71  1  0  0  0  0
 35 76  2  0  0  0  0
 36 61  1  0  0  0  0
 36 66  1  0  0  0  0
 36 77  2  0  0  0  0
 37 62  1  0  0  0  0
 37 72  1  0  0  0  0
 37 78  2  0  0  0  0
 38 67  1  0  0  0  0
 38 70  1  0  0  0  0
 38 79  2  0  0  0  0
 39 42  1  0  0  0  0
 40 52  1  0  0  0  0
 41 66  1  0  0  0  0
 42 44  1  0  0  0  0
 43 45  1  0  0  0  0
 43 46  1  0  0  0  0
 44 51  1  0  0  0  0
 45 54  1  0  0  0  0
 46 67  1  0  0  0  0
 47 54  1  0  0  0  0
 47 67  1  0  0  0  0
 48 50  1  0  0  0  0
 48 73  1  0  0  0  0
 49 53  1  0  0  0  0
 49 73  1  0  0  0  0
 50 53  1  0  0  0  0
 51 71  1  0  0  0  0
 52 66  1  0  0  0  0
 53 60  1  0  0  0  0
 54 65  1  0  0  0  0
 55 62  1  0  0  0  0
 56 63  1  0  0  0  0
 57 63  1  0  0  0  0
 58 63  1  0  0  0  0
 59 74  1  0  0  0  0
 60 81  1  0  0  0  0
 61 63  1  0  0  0  0
 61 72  1  0  0  0  0
 62 74  1  0  0  0  0
 64 65  1  0  0  0  0
M  CHG  2  73   1  74   1
M  ISO  4  38 100  60 101  70 100  81 101
M  END
> <Batch ID>
0149

> <Smiles>
CNC(C)C(=O)NC(C(=O)N1Cc2cc([101O:1][101CH2:1]C3CNCC3c3ccc([100NH:0][100C:0](=O)N4CCCC(n5nc(-c6ccc(Oc7ccc(F)cc7F)cc6)c(C(N)=O)c5N)C4)cc3)ccc2CC1C(=O)NC1CCCc2ccccc21)C(C)(C)C

> <Shape>
0.235

> <Color>
0.052

> <Negative vol penalty>
0.000

$$$$

  -OEChem-04052303193D

 85 94  0     1  0  0  0  0  0999 V2000
  -16.0239  -30.1115   24.1812 C   0  0  0  0  0  0  0  0  0  0  0  0
  -16.2792  -28.7693   24.4436 C   0  0  0  0  0  0  0  0  0  0  0  0
  -23.9268   -9.1691   21.0592 C   0  0  0  0  0  0  0  0  0  0  0  0
  -25.4596   -9.7721   22.8267 C   0  0  0  0  0  0  0  0  0  0  0  0
  -16.7704  -30.7861   23.2160 C   0  0  0  0  0  0  0  0  0  0  0  0
  -17.2804  -28.1007   23.7401 C   0  0  0  0  0  0  0  0  0  0  0  0
  -22.1560  -22.9141   24.5426 C   0  0  0  0  0  0  0  0  0  0  0  0
  -23.7013   -7.9379   21.6748 C   0  0  0  0  0  0  0  0  0  0  0  0
  -25.2340   -8.5409   23.4423 C   0  0  0  0  0  0  0  0  0  0  0  0
  -22.5833  -21.7342   23.9351 C   0  0  0  0  0  0  0  0  0  0  0  0
  -21.8879   -6.7441   24.2670 C   0  0  0  0  0  0  0  0  0  0  0  0
  -20.5688   -6.3028   24.3698 C   0  0  0  0  0  0  0  0  0  0  0  0
  -23.8622  -23.0223   22.3463 C   0  0  0  0  0  0  0  0  0  0  0  0
  -21.1244   -4.3402   23.0749 C   0  0  0  0  0  0  0  0  0  0  0  0
  -28.9794  -14.2420   23.7249 C   0  0  0  0  0  0  0  0  0  0  0  0
  -27.0339  -15.2832   24.8116 C   0  0  0  0  0  0  0  0  0  0  0  0
  -24.8060  -10.0862   21.6351 C   0  0  0  0  0  0  0  0  0  0  0  0
  -24.0873  -12.3557   20.7183 C   0  0  0  0  0  0  0  0  0  0  0  0
  -17.7877  -30.1280   22.5071 C   0  0  0  0  0  0  0  0  0  0  0  0
  -22.5706  -24.1594   24.0489 C   0  0  0  0  0  0  0  0  0  0  0  0
  -18.0403  -28.7668   22.7635 C   0  0  0  0  0  0  0  0  0  0  0  0
  -23.4408  -24.2165   22.9509 C   0  0  0  0  0  0  0  0  0  0  0  0
  -28.5489  -15.3634   23.0506 C   0  0  0  0  0  0  0  0  0  0  0  0
  -27.4220  -15.9668   23.6801 C   0  0  0  0  0  0  0  0  0  0  0  0
  -24.3548   -7.6238   22.8663 C   0  0  0  0  0  0  0  0  0  0  0  0
  -23.4342  -21.7882   22.8351 C   0  0  0  0  0  0  0  0  0  0  0  0
  -22.8254   -5.9835   23.5680 C   0  0  0  0  0  0  0  0  0  0  0  0
  -20.1870   -5.1008   23.7738 C   0  0  0  0  0  0  0  0  0  0  0  0
  -22.4436   -4.7816   22.9720 C   0  0  0  0  0  0  0  0  0  0  0  0
  -25.0398  -11.3579   20.9994 C   0  0  0  0  0  0  0  0  0  0  0  0
  -24.8075  -13.3576   20.1149 C   0  0  0  0  0  0  0  0  0  0  0  0
  -22.6777  -12.3752   20.9794 C   0  0  0  0  0  0  0  0  0  0  0  0
  -21.0928  -26.6853   22.8080 C   0  0  0  0  0  0  0  0  0  0  0  0
  -24.0601  -27.9907   22.9261 C   0  0  0  0  0  0  0  0  0  0  0  0
  -27.4374  -27.5063   23.0031 C   0  0  0  0  0  0  0  0  0  0  0  0
  -30.8216  -14.4710   20.4746 C   0  0  0  0  0  0  0  0  0  0  0  0
  -18.5362  -30.8864   21.4397 C   0  0  0  0  0  0  0  0  0  0  0  0
  -22.1221  -25.4223   24.7319 C   0  0  0  0  0  0  0  0  0  0  0  0
  -23.9311  -25.5276   22.3949 C   0  0  0  0  0  0  0  0  0  0  0  0
  -19.8308  -30.2055   21.0032 C   0  0  0  0  0  0  0  0  0  0  0  0
  -28.7086  -14.1027   17.4577 C   0  0  0  0  0  0  0  0  0  0  0  0
  -19.5954  -28.7186   20.7573 C   0  0  0  0  0  0  0  0  0  0  0  0
  -27.4790  -13.3755   17.9990 C   0  0  0  0  0  0  0  0  0  0  0  0
  -26.4237  -19.2986   22.4522 C   0  0  0  0  0  0  0  0  0  0  0  0
  -29.9608  -13.7795   18.2672 C   0  0  0  0  0  0  0  0  0  0  0  0
  -27.4522  -18.1686   22.4849 C   0  0  0  0  0  0  0  0  0  0  0  0
  -28.5871  -13.3059   20.2679 C   0  0  0  0  0  0  0  0  0  0  0  0
  -25.3675  -17.3912   23.4469 C   0  0  0  0  0  0  0  0  0  0  0  0
  -19.1346  -28.0137   22.0388 C   0  0  1  0  0  0  0  0  0  0  0  0
  -22.1957  -26.6490   23.8279 C   0  0  1  0  0  0  0  0  0  0  0  0
  -27.2993  -13.6463   19.5029 C   0  0  2  0  0  0  0  0  0  0  0  0
  -25.0690  -18.5775   22.5072 C   0  0  2  0  0  0  0  0  0  0  0  0
  -24.6524  -18.0796   21.1127 C   0  0  0  0  0  0  0  0  0  0  0  0
  -29.6073  -28.7656   23.0590 C   0  0  0  0  0  0  0  0  0  0  0  0
  -23.7539  -28.6450   19.9616 C   0  0  0  0  0  0  0  0  0  0  0  0
  -26.2286  -29.0097   19.8579 C   0  0  0  0  0  0  0  0  0  0  0  0
  -24.8175  -30.4522   21.3244 C   0  0  0  0  0  0  0  0  0  0  0  0
  -31.5869  -15.7915   22.4111 C   0  0  0  0  0  0  0  0  0  0  0  0
  -28.1979  -26.3109   25.6015 C   0  0  0  0  0  0  0  0  0  0  0  0
  -29.1944  -15.8704   21.8149 C   0  0  0  0  0  0  0  0  0  0  0  0
  -23.9729  -19.4838   23.0702 C   0  0  0  0  0  0  0  0  0  1  0  0
  -25.2404  -28.0492   21.9867 C   0  0  1  0  0  0  0  0  0  0  0  0
  -28.5200  -28.0986   23.8871 C   0  0  2  0  0  0  0  0  0  0  0  0
  -24.9995  -29.0143   20.7917 C   0  0  0  0  0  0  0  0  0  0  0  0
  -26.2711  -11.6951   20.6067 N   0  0  0  0  0  0  0  0  0  0  0  0
  -26.0972  -12.9161   20.0726 N   0  0  0  0  0  0  0  0  0  0  0  0
  -26.7840  -17.1009   23.2231 N   0  0  3  0  0  0  0  0  0  0  0  0
  -23.4595  -26.7348   23.0933 N   0  0  0  0  0  0  0  0  0  0  0  0
  -29.7486  -14.0046   19.6974 N   0  0  0  0  0  0  0  0  0  0  0  0
  -24.4569  -14.5643   19.6217 N   0  0  0  0  0  0  0  0  0  0  0  0
  -22.2318  -12.8957   22.2019 N   0  0  0  0  0  0  0  0  0  0  0  0
  -20.2589  -27.7814   22.9200 N   0  0  0  0  0  0  0  0  0  0  0  0
  -26.3979  -28.3907   22.8065 N   0  0  0  0  0  0  0  0  0  0  0  0
  -30.5080  -15.2743   21.5814 N   0  0  0  0  0  0  0  0  0  0  0  0
  -29.1493  -27.0343   24.7191 N   0  3  0  0  0  0  0  0  0  0  0  0
  -21.8395  -11.9287   20.1600 O   0  0  0  0  0  0  0  0  0  0  0  0
  -21.0059  -25.7863   21.9798 O   0  0  0  0  0  0  0  0  0  0  0  0
  -23.6892  -29.0199   23.4960 O   0  0  0  0  0  0  0  0  0  0  0  0
  -27.5085  -26.3738   22.5309 O   0  0  0  0  0  0  0  0  0  0  0  0
  -31.9936  -14.1934   20.1896 O   0  0  0  0  0  0  0  0  0  0  0  0
  -24.1348   -6.4227   23.4674 O   0  0  0  0  0  0  0  0  0  0  0  0
  -23.8523  -20.6381   22.2399 O   0  0  0  0  0  0  0  0  0  1  0  0
  -18.9205   -4.6764   23.8740 F   0  0  0  0  0  0  0  0  0  0  0  0
  -23.3399   -4.0460   22.3002 F   0  0  0  0  0  0  0  0  0  0  0  0
  -28.0265  -13.9203   25.1109 S   0  0  0  0  0  0  0  0  0  0  0  0
  1  2  1  0  0  0  0
  1  5  2  0  0  0  0
  2  6  2  0  0  0  0
  3  8  2  0  0  0  0
  3 17  1  0  0  0  0
  4  9  1  0  0  0  0
  4 17  2  0  0  0  0
  5 19  1  0  0  0  0
  6 21  1  0  0  0  0
  7 10  2  0  0  0  0
  7 20  1  0  0  0  0
  8 25  1  0  0  0  0
  9 25  2  0  0  0  0
 10 26  1  0  0  0  0
 11 12  2  0  0  0  0
 11 27  1  0  0  0  0
 12 28  1  0  0  0  0
 13 22  1  0  0  0  0
 13 26  2  0  0  0  0
 14 28  2  0  0  0  0
 14 29  1  0  0  0  0
 15 23  2  0  0  0  0
 15 85  1  0  0  0  0
 16 24  2  0  0  0  0
 16 85  1  0  0  0  0
 17 30  1  0  0  0  0
 18 30  1  0  0  0  0
 18 31  2  0  0  0  0
 18 32  1  0  0  0  0
 19 21  2  0  0  0  0
 19 37  1  0  0  0  0
 20 22  2  0  0  0  0
 20 38  1  0  0  0  0
 21 49  1  0  0  0  0
 22 39  1  0  0  0  0
 23 24  1  0  0  0  0
 23 60  1  0  0  0  0
 24 67  1  0  0  0  0
 25 81  1  0  0  0  0
 26 82  1  0  0  0  0
 27 29  2  0  0  0  0
 27 81  1  0  0  0  0
 28 83  1  0  0  0  0
 29 84  1  0  0  0  0
 30 65  2  0  0  0  0
 31 66  1  0  0  0  0
 31 70  1  0  0  0  0
 32 71  1  0  0  0  0
 32 76  2  0  0  0  0
 33 50  1  0  0  0  0
 33 72  1  0  0  0  0
 33 77  2  0  0  0  0
 34 62  1  0  0  0  0
 34 68  1  0  0  0  0
 34 78  2  0  0  0  0
 35 63  1  0  0  0  0
 35 73  1  0  0  0  0
 35 79  2  0  0  0  0
 36 69  1  0  0  0  0
 36 74  1  0  0  0  0
 36 80  2  0  0  0  0
 37 40  1  0  0  0  0
 38 50  1  0  0  0  0
 39 68  1  0  0  0  0
 40 42  1  0  0  0  0
 41 43  1  0  0  0  0
 41 45  1  0  0  0  0
 42 49  1  0  0  0  0
 43 51  1  0  0  0  0
 44 46  1  0  0  0  0
 44 52  1  0  0  0  0
 45 69  1  0  0  0  0
 46 67  1  0  0  0  0
 47 51  1  0  0  0  0
 47 69  1  0  0  0  0
 48 52  1  0  0  0  0
 48 67  1  0  0  0  0
 49 72  1  0  0  0  0
 50 68  1  0  0  0  0
 51 66  1  0  0  0  0
 52 53  1  0  0  0  0
 52 61  1  0  0  0  0
 54 63  1  0  0  0  0
 55 64  1  0  0  0  0
 56 64  1  0  0  0  0
 57 64  1  0  0  0  0
 58 74  1  0  0  0  0
 59 75  1  0  0  0  0
 60 74  1  0  0  0  0
 61 82  1  0  0  0  0
 62 64  1  0  0  0  0
 62 73  1  0  0  0  0
 63 75  1  0  0  0  0
 65 66  1  0  0  0  0
M  CHG  1  75   1
M  ISO  4  36 100  61 101  74 100  82 101
M  END
> <Batch ID>
0149

> <Smiles>
CNC(C)C(=O)NC(C(=O)N1Cc2cc([101O:1][101CH2:1]C3(C)CCN(c4cscc4C[100N:0](C)[100C:0](=O)N4CCCC(n5nc(-c6ccc(Oc7ccc(F)cc7F)cc6)c(C(N)=O)c5N)C4)C3)ccc2CC1C(=O)NC1CCCc2ccccc21)C(C)(C)C

> <Shape>
0.244

> <Color>
0.132

> <Negative vol penalty>
0.000

$$$$

  -OEChem-04052303193D

 90 99  0     1  0  0  0  0  0999 V2000
  -36.1992  -30.8454   27.7267 C   0  0  0  0  0  0  0  0  0  0  0  0
  -35.6190  -29.5984   27.9364 C   0  0  0  0  0  0  0  0  0  0  0  0
  -22.6693  -10.1833   20.1666 C   0  0  0  0  0  0  0  0  0  0  0  0
  -24.3179   -9.4159   21.7573 C   0  0  0  0  0  0  0  0  0  0  0  0
  -35.7384  -31.6628   26.6954 C   0  0  0  0  0  0  0  0  0  0  0  0
  -34.5770  -29.1686   27.1155 C   0  0  0  0  0  0  0  0  0  0  0  0
  -35.1364  -24.3622   25.6220 C   0  0  0  0  0  0  0  0  0  0  0  0
  -21.9357   -9.0132   20.3624 C   0  0  0  0  0  0  0  0  0  0  0  0
  -23.5842   -8.2458   21.9532 C   0  0  0  0  0  0  0  0  0  0  0  0
  -34.8115  -23.3673   26.5431 C   0  0  0  0  0  0  0  0  0  0  0  0
  -20.8328   -7.2905   23.6670 C   0  0  0  0  0  0  0  0  0  0  0  0
  -20.6446   -6.8574   24.9794 C   0  0  0  0  0  0  0  0  0  0  0  0
  -32.1069  -16.4773   22.6298 C   0  0  0  0  0  0  0  0  0  0  0  0
  -32.6779  -23.0679   25.4582 C   0  0  0  0  0  0  0  0  0  0  0  0
  -29.9337  -17.2781   23.3249 C   0  0  0  0  0  0  0  0  0  0  0  0
  -21.7723   -4.7854   24.4574 C   0  0  0  0  0  0  0  0  0  0  0  0
  -23.8604  -10.3846   20.8640 C   0  0  0  0  0  0  0  0  0  0  0  0
  -24.1906  -12.9140   20.8913 C   0  0  0  0  0  0  0  0  0  0  0  0
  -34.6967  -31.2387   25.8554 C   0  0  0  0  0  0  0  0  0  0  0  0
  -34.2284  -24.7256   24.6170 C   0  0  0  0  0  0  0  0  0  0  0  0
  -34.1009  -29.9816   26.0729 C   0  0  0  0  0  0  0  0  0  0  0  0
  -32.6770  -17.3136   23.5806 C   0  0  0  0  0  0  0  0  0  0  0  0
  -32.9946  -24.0659   24.5240 C   0  0  0  0  0  0  0  0  0  0  0  0
  -31.9007  -18.1374   24.4050 C   0  0  0  0  0  0  0  0  0  0  0  0
  -30.7210  -16.4625   22.5047 C   0  0  0  0  0  0  0  0  0  0  0  0
  -30.5195  -18.1197   24.2797 C   0  0  0  0  0  0  0  0  0  0  0  0
  -22.3931   -8.0445   21.2557 C   0  0  0  0  0  0  0  0  0  0  0  0
  -33.5810  -22.7220   26.4631 C   0  0  0  0  0  0  0  0  0  0  0  0
  -21.4907   -6.4710   22.7497 C   0  0  0  0  0  0  0  0  0  0  0  0
  -21.1143   -5.6049   25.3747 C   0  0  0  0  0  0  0  0  0  0  0  0
  -21.9604   -5.2185   23.1449 C   0  0  0  0  0  0  0  0  0  0  0  0
  -24.6190  -11.5928   20.6618 C   0  0  0  0  0  0  0  0  0  0  0  0
  -25.2711  -13.6898   20.5489 C   0  0  0  0  0  0  0  0  0  0  0  0
  -22.9287  -13.3969   21.3712 C   0  0  0  0  0  0  0  0  0  0  0  0
  -32.6805  -27.3940   23.8504 C   0  0  0  0  0  0  0  0  0  0  0  0
  -31.7565  -25.6550   21.2728 C   0  0  0  0  0  0  0  0  0  0  0  0
  -32.4808  -19.8205   26.2400 C   0  0  0  0  0  0  0  0  0  0  0  0
  -30.6653  -22.2768   20.6292 C   0  0  0  0  0  0  0  0  0  0  0  0
  -30.7363  -14.7495   20.6576 C   0  0  0  0  0  0  0  0  0  0  0  0
  -34.2008  -32.1768   24.7837 C   0  0  0  0  0  0  0  0  0  0  0  0
  -34.6047  -25.7822   23.6148 C   0  0  0  0  0  0  0  0  0  0  0  0
  -34.1388  -17.4705   23.8482 C   0  0  0  0  0  0  0  0  0  0  0  0
  -31.9930  -24.4049   23.4515 C   0  0  0  0  0  0  0  0  0  0  0  0
  -33.3439  -31.4910   23.7227 C   0  0  0  0  0  0  0  0  0  0  0  0
  -29.5736  -12.4801   18.1726 C   0  0  0  0  0  0  0  0  0  0  0  0
  -32.3087  -30.5823   24.3780 C   0  0  0  0  0  0  0  0  0  0  0  0
  -28.1457  -12.1557   18.6176 C   0  0  0  0  0  0  0  0  0  0  0  0
  -34.1384  -18.4558   25.0146 C   0  0  0  0  0  0  0  0  0  0  0  0
  -30.5165  -12.6393   19.3640 C   0  0  0  0  0  0  0  0  0  0  0  0
  -28.6408  -13.2682   20.8321 C   0  0  0  0  0  0  0  0  0  0  0  0
  -32.9851  -29.4698   25.1881 C   0  0  1  0  0  0  0  0  0  0  0  0
  -33.3957  -26.4298   22.9468 C   0  0  1  0  0  0  0  0  0  0  0  0
  -27.6406  -13.1628   19.6693 C   0  0  2  0  0  0  0  0  0  0  0  0
  -26.5137  -21.5434   24.9747 C   0  0  0  0  0  0  0  0  0  0  0  0
  -33.8613  -19.6267   28.2984 C   0  0  0  0  0  0  0  0  0  0  0  0
  -30.5382  -20.3732   18.9990 C   0  0  0  0  0  0  0  0  0  0  0  0
  -28.9472  -26.6995   20.7010 C   0  0  0  0  0  0  0  0  0  0  0  0
  -28.3605  -24.4330   19.8138 C   0  0  0  0  0  0  0  0  0  0  0  0
  -30.1444  -25.7804   18.7069 C   0  0  0  0  0  0  0  0  0  0  0  0
  -33.0190  -20.9412   21.8273 C   0  0  0  0  0  0  0  0  0  0  0  0
  -27.4340  -20.4300   25.4224 C   0  0  0  0  0  0  0  0  0  0  0  0
  -30.6011  -24.7342   20.9628 C   0  0  1  0  0  0  0  0  0  0  0  0
  -33.6179  -20.4112   27.0239 C   0  0  2  0  0  0  0  0  0  1  0  0
  -31.4434  -21.1927   19.9056 C   0  0  2  0  0  0  0  0  0  0  0  0
  -29.5232  -25.4148   20.0726 C   0  0  0  0  0  0  0  0  0  0  0  0
  -25.8738  -11.5291   20.2084 N   0  0  0  0  0  0  0  0  0  0  0  0
  -26.2430  -12.8199   20.1503 N   0  0  0  0  0  0  0  0  0  0  0  0
  -32.7457  -18.8696   25.2685 N   0  0  0  0  0  0  0  0  0  0  0  0
  -32.4047  -25.4492   22.4989 N   0  0  0  0  0  0  0  0  0  0  0  0
  -29.9752  -13.6116   20.3161 N   0  0  0  0  0  0  0  0  0  0  0  0
  -25.4751  -15.0242   20.5529 N   0  0  0  0  0  0  0  0  0  0  0  0
  -22.7557  -13.5553   22.7530 N   0  0  0  0  0  0  0  0  0  0  0  0
  -30.1055  -15.6194   21.5465 N   0  0  0  0  0  0  0  0  0  0  0  0
  -29.6135  -18.9024   25.0568 N   0  0  0  0  0  0  0  0  0  0  0  0
  -33.4729  -28.4293   24.3084 N   0  0  0  0  0  0  0  0  0  0  0  0
  -31.1836  -23.5300   20.3805 N   0  0  0  0  0  0  0  0  0  0  0  0
  -32.0838  -20.2719   20.8869 N   0  3  0  0  0  0  0  0  0  0  0  0
  -21.9772  -13.6640   20.5988 O   0  0  0  0  0  0  0  0  0  0  0  0
  -31.4970  -27.2129   24.1116 O   0  0  0  0  0  0  0  0  0  0  0  0
  -32.0769  -26.5201   20.4539 O   0  0  0  0  0  0  0  0  0  0  0  0
  -31.3321  -20.2037   26.4936 O   0  0  0  0  0  0  0  0  0  0  0  0
  -29.6925  -22.0362   21.3408 O   0  0  0  0  0  0  0  0  0  0  0  0
  -31.8532  -14.9522   20.1745 O   0  0  0  0  0  0  0  0  0  0  0  0
  -29.6055  -21.3887   24.3579 O   0  0  0  0  0  0  0  0  0  0  0  0
  -28.2208  -19.7678   23.0161 O   0  0  0  0  0  0  0  0  0  0  0  0
  -21.6774   -6.9027   21.4472 O   0  0  0  0  0  0  0  0  0  0  0  0
  -33.2611  -21.7510   27.3613 O   0  0  0  0  0  0  0  0  0  1  0  0
  -20.9349   -5.1898   26.6355 F   0  0  0  0  0  0  0  0  0  0  0  0
  -22.5943   -4.4274   22.2685 F   0  0  0  0  0  0  0  0  0  0  0  0
  -28.7798  -20.1979   24.2824 S   0  0  0  0  0  0  0  0  0  0  0  0
  1  2  1  0  0  0  0
  1  5  2  0  0  0  0
  2  6  2  0  0  0  0
  3  8  2  0  0  0  0
  3 17  1  0  0  0  0
  4  9  1  0  0  0  0
  4 17  2  0  0  0  0
  5 19  1  0  0  0  0
  6 21  1  0  0  0  0
  7 10  2  0  0  0  0
  7 20  1  0  0  0  0
  8 27  1  0  0  0  0
  9 27  2  0  0  0  0
 10 28  1  0  0  0  0
 11 12  2  0  0  0  0
 11 29  1  0  0  0  0
 12 30  1  0  0  0  0
 13 22  2  0  0  0  0
 13 25  1  0  0  0  0
 14 23  1  0  0  0  0
 14 28  2  0  0  0  0
 15 25  2  0  0  0  0
 15 26  1  0  0  0  0
 16 30  2  0  0  0  0
 16 31  1  0  0  0  0
 17 32  1  0  0  0  0
 18 32  1  0  0  0  0
 18 33  2  0  0  0  0
 18 34  1  0  0  0  0
 19 21  2  0  0  0  0
 19 40  1  0  0  0  0
 20 23  2  0  0  0  0
 20 41  1  0  0  0  0
 21 51  1  0  0  0  0
 22 24  1  0  0  0  0
 22 42  1  0  0  0  0
 23 43  1  0  0  0  0
 24 26  2  0  0  0  0
 24 68  1  0  0  0  0
 25 73  1  0  0  0  0
 26 74  1  0  0  0  0
 27 86  1  0  0  0  0
 28 87  1  0  0  0  0
 29 31  2  0  0  0  0
 29 86  1  0  0  0  0
 30 88  1  0  0  0  0
 31 89  1  0  0  0  0
 32 66  2  0  0  0  0
 33 67  1  0  0  0  0
 33 71  1  0  0  0  0
 34 72  1  0  0  0  0
 34 78  2  0  0  0  0
 35 52  1  0  0  0  0
 35 75  1  0  0  0  0
 35 79  2  0  0  0  0
 36 62  1  0  0  0  0
 36 69  1  0  0  0  0
 36 80  2  0  0  0  0
 37 63  1  0  0  0  0
 37 68  1  0  0  0  0
 37 81  2  0  0  0  0
 38 64  1  0  0  0  0
 38 76  1  0  0  0  0
 38 82  2  0  0  0  0
 39 70  1  0  0  0  0
 39 73  1  0  0  0  0
 39 83  2  0  0  0  0
 40 44  1  0  0  0  0
 41 52  1  0  0  0  0
 42 48  1  0  0  0  0
 43 69  1  0  0  0  0
 44 46  1  0  0  0  0
 45 47  1  0  0  0  0
 45 49  1  0  0  0  0
 46 51  1  0  0  0  0
 47 53  1  0  0  0  0
 48 68  1  0  0  0  0
 49 70  1  0  0  0  0
 50 53  1  0  0  0  0
 50 70  1  0  0  0  0
 51 75  1  0  0  0  0
 52 69  1  0  0  0  0
 53 67  1  0  0  0  0
 54 61  1  0  0  0  0
 55 63  1  0  0  0  0
 56 64  1  0  0  0  0
 57 65  1  0  0  0  0
 58 65  1  0  0  0  0
 59 65  1  0  0  0  0
 60 77  1  0  0  0  0
 61 90  1  0  0  0  0
 62 65  1  0  0  0  0
 62 76  1  0  0  0  0
 63 87  1  0  0  0  0
 64 77  1  0  0  0  0
 66 67  1  0  0  0  0
 74 90  1  0  0  0  0
 84 90  2  0  0  0  0
 85 90  2  0  0  0  0
M  CHG  1  77   1
M  ISO  4  39 100  63 101  73 100  87 101
M  END
> <Batch ID>
0149

> <Smiles>
CCS(=O)(=O)Nc1cc([100NH:0][100C:0](=O)N2CCCC(n3nc(-c4ccc(Oc5ccc(F)cc5F)cc4)c(C(N)=O)c3N)C2)cc2c1N(C(=O)[101CH:1](C)[101O:1]c1ccc3c(c1)CN(C(=O)C(NC(=O)C(C)NC)C(C)(C)C)C(C(=O)NC1CCCc4ccccc41)C3)CC2

> <Shape>
0.227

> <Color>
0.169

> <Negative vol penalty>
0.000

$$$$

  -OEChem-04052303193D

 91 99  0     1  0  0  0  0  0999 V2000
  -32.5772  -22.9068   20.5291 C   0  0  0  0  0  0  0  0  0  0  0  0
  -31.4614  -23.1399   19.7316 C   0  0  0  0  0  0  0  0  0  0  0  0
  -28.1027  -12.5937   21.9453 C   0  0  0  0  0  0  0  0  0  0  0  0
  -26.5604  -13.1321   20.1652 C   0  0  0  0  0  0  0  0  0  0  0  0
  -32.4940  -23.0795   21.9101 C   0  0  0  0  0  0  0  0  0  0  0  0
  -30.2612  -23.5448   20.3148 C   0  0  0  0  0  0  0  0  0  0  0  0
  -24.5046  -27.6008   19.0010 C   0  0  0  0  0  0  0  0  0  0  0  0
  -27.6085  -11.2897   21.9790 C   0  0  0  0  0  0  0  0  0  0  0  0
  -26.0663  -11.8281   20.1989 C   0  0  0  0  0  0  0  0  0  0  0  0
  -23.1123  -27.5284   19.0052 C   0  0  0  0  0  0  0  0  0  0  0  0
  -24.1498   -8.7430   20.0607 C   0  0  0  0  0  0  0  0  0  0  0  0
  -22.7660   -8.5728   20.0210 C   0  0  0  0  0  0  0  0  0  0  0  0
  -23.1077  -27.8710   21.3930 C   0  0  0  0  0  0  0  0  0  0  0  0
  -23.1542  -20.8760   19.4595 C   0  0  0  0  0  0  0  0  0  0  0  0
  -22.5507   -9.8485   22.0615 C   0  0  0  0  0  0  0  0  0  0  0  0
  -23.3202  -22.4006   21.1081 C   0  0  0  0  0  0  0  0  0  0  0  0
  -27.5786  -13.5149   21.0384 C   0  0  0  0  0  0  0  0  0  0  0  0
  -29.1560  -15.3472   20.2248 C   0  0  0  0  0  0  0  0  0  0  0  0
  -31.2949  -23.4961   22.5095 C   0  0  0  0  0  0  0  0  0  0  0  0
  -25.2107  -27.7983   20.1964 C   0  0  0  0  0  0  0  0  0  0  0  0
  -30.1615  -23.7219   21.7053 C   0  0  0  0  0  0  0  0  0  0  0  0
  -24.5088  -27.9481   21.4010 C   0  0  0  0  0  0  0  0  0  0  0  0
  -23.7687  -21.1627   20.7034 C   0  0  0  0  0  0  0  0  0  0  0  0
  -26.5904  -10.9069   21.1058 C   0  0  0  0  0  0  0  0  0  0  0  0
  -22.4138  -27.6605   20.2017 C   0  0  0  0  0  0  0  0  0  0  0  0
  -24.7342   -9.4658   21.1008 C   0  0  0  0  0  0  0  0  0  0  0  0
  -21.9664   -9.1256   21.0214 C   0  0  0  0  0  0  0  0  0  0  0  0
  -23.9346  -10.0186   22.1011 C   0  0  0  0  0  0  0  0  0  0  0  0
  -28.0882  -14.8622   21.0035 C   0  0  0  0  0  0  0  0  0  0  0  0
  -22.3490  -21.9475   19.1418 C   0  0  0  0  0  0  0  0  0  0  0  0
  -29.2422  -16.6785   20.5516 C   0  0  0  0  0  0  0  0  0  0  0  0
  -29.9948  -14.6562   19.2896 C   0  0  0  0  0  0  0  0  0  0  0  0
  -27.3556  -26.1224   21.8378 C   0  0  0  0  0  0  0  0  0  0  0  0
  -20.2865  -24.0728   20.6104 C   0  0  0  0  0  0  0  0  0  0  0  0
  -27.4690  -28.7975   23.6690 C   0  0  0  0  0  0  0  0  0  0  0  0
  -25.9114  -31.6330   24.7554 C   0  0  0  0  0  0  0  0  0  0  0  0
  -25.2822  -20.6326   22.6462 C   0  0  0  0  0  0  0  0  0  0  0  0
  -31.2401  -23.6235   24.0113 C   0  0  0  0  0  0  0  0  0  0  0  0
  -26.7111  -27.9009   20.1712 C   0  0  0  0  0  0  0  0  0  0  0  0
  -25.2187  -28.1819   22.7086 C   0  0  0  0  0  0  0  0  0  0  0  0
  -30.0355  -24.4166   24.5117 C   0  0  0  0  0  0  0  0  0  0  0  0
  -28.3749  -19.7142   24.1525 C   0  0  0  0  0  0  0  0  0  0  0  0
  -28.7624  -23.9525   23.8112 C   0  0  0  0  0  0  0  0  0  0  0  0
  -28.7526  -18.4131   23.4407 C   0  0  0  0  0  0  0  0  0  0  0  0
  -26.8678  -19.8202   24.3785 C   0  0  0  0  0  0  0  0  0  0  0  0
  -26.4228  -18.3344   22.4645 C   0  0  0  0  0  0  0  0  0  0  0  0
  -28.8488  -24.1861   22.2981 C   0  0  1  0  0  0  0  0  0  0  0  0
  -27.3539  -27.5908   21.5195 C   0  0  1  0  0  0  0  0  0  0  0  0
  -27.9242  -18.2122   22.1566 C   0  0  2  0  0  0  0  0  0  0  0  0
  -26.2392  -33.6006   26.2780 C   0  0  0  0  0  0  0  0  0  0  0  0
  -22.0322  -24.4946   15.9534 C   0  0  0  0  0  0  0  0  0  0  0  0
  -24.1082  -23.6486   17.0549 C   0  0  0  0  0  0  0  0  0  0  0  0
  -23.6060  -23.0568   14.6721 C   0  0  0  0  0  0  0  0  0  0  0  0
  -26.9242  -27.0155   26.0851 C   0  0  0  0  0  0  0  0  0  0  0  0
  -26.3254  -29.0729   27.3799 C   0  0  0  0  0  0  0  0  0  0  0  0
  -28.6321  -28.8013   26.4700 C   0  0  0  0  0  0  0  0  0  0  0  0
  -18.1564  -27.3236   20.3622 C   0  0  0  0  0  0  0  0  0  0  0  0
  -18.4740  -25.8681   22.3667 C   0  0  0  0  0  0  0  0  0  0  0  0
  -25.6920  -33.5522   22.5131 C   0  0  0  0  0  0  0  0  0  0  0  0
  -19.3494  -25.1518   20.0890 C   0  0  0  0  0  0  0  0  0  0  0  0
  -21.7482  -24.1948   20.2170 C   0  0  0  0  0  0  0  0  0  0  0  0
  -22.1595  -22.0678   16.5572 C   0  0  0  0  0  0  0  0  0  0  0  0
  -20.4371  -27.0814   21.3905 C   0  0  0  0  0  0  0  0  0  1  0  0
  -21.4869  -22.1684   17.9628 C   0  0  1  0  0  0  0  0  0  0  0  0
  -26.7245  -29.2928   24.8853 C   0  0  1  0  0  0  0  0  0  0  0  0
  -26.3924  -33.0689   24.8615 C   0  0  2  0  0  0  0  0  0  0  0  0
  -22.9917  -23.2887   16.0614 C   0  0  0  0  0  0  0  0  0  0  0  0
  -27.1380  -28.5393   26.1809 C   0  0  0  0  0  0  0  0  0  0  0  0
  -19.1244  -26.3403   21.0550 C   0  0  0  0  0  0  0  0  0  0  0  0
  -27.5358  -15.8083   21.7675 N   0  0  0  0  0  0  0  0  0  0  0  0
  -22.4581  -22.8684   20.1510 N   0  0  0  0  0  0  0  0  0  0  0  0
  -28.2594  -16.9011   21.4706 N   0  0  0  0  0  0  0  0  0  0  0  0
  -26.6864  -28.2683   22.6330 N   0  0  0  0  0  0  0  0  0  0  0  0
  -26.1483  -19.6237   23.1182 N   0  0  0  0  0  0  0  0  0  0  0  0
  -30.0622  -17.6686   20.1396 N   0  0  0  0  0  0  0  0  0  0  0  0
  -29.7695  -13.2900   19.0726 N   0  0  0  0  0  0  0  0  0  0  0  0
  -24.6786  -20.3480   21.4218 N   0  0  0  0  0  0  0  0  0  0  0  0
  -28.6179  -25.5807   21.9881 N   0  0  0  0  0  0  0  0  0  0  0  0
  -26.9414  -30.7346   24.9375 N   0  0  0  0  0  0  0  0  0  0  0  0
  -20.3259  -21.1907   17.9294 N   0  3  0  0  0  0  0  0  0  0  0  0
  -25.6119  -33.9458   23.9434 N   0  3  0  0  0  0  0  0  0  0  0  0
  -30.9274  -15.2295   18.6771 O   0  0  0  0  0  0  0  0  0  0  0  0
  -26.2904  -25.5253   21.9409 O   0  0  0  0  0  0  0  0  0  0  0  0
  -19.8686  -23.1680   21.3331 O   0  0  0  0  0  0  0  0  0  0  0  0
  -28.6991  -28.8836   23.6364 O   0  0  0  0  0  0  0  0  0  0  0  0
  -24.7385  -31.3378   24.5368 O   0  0  0  0  0  0  0  0  0  0  0  0
  -25.1111  -21.6842   23.2682 O   0  0  0  0  0  0  0  0  0  0  0  0
  -26.1081   -9.6345   21.1383 O   0  0  0  0  0  0  0  0  0  0  0  0
  -21.0548  -27.5896   20.2087 O   0  0  0  0  0  0  0  0  0  1  0  0
  -20.6374   -8.9635   20.9823 F   0  0  0  0  0  0  0  0  0  0  0  0
  -24.4901  -10.7151   23.1022 F   0  0  0  0  0  0  0  0  0  0  0  0
  1  2  1  0  0  0  0
  1  5  2  0  0  0  0
  2  6  2  0  0  0  0
  3  8  2  0  0  0  0
  3 17  1  0  0  0  0
  4  9  1  0  0  0  0
  4 17  2  0  0  0  0
  5 19  1  0  0  0  0
  6 21  1  0  0  0  0
  7 10  2  0  0  0  0
  7 20  1  0  0  0  0
  8 24  1  0  0  0  0
  9 24  2  0  0  0  0
 10 25  1  0  0  0  0
 11 12  2  0  0  0  0
 11 26  1  0  0  0  0
 12 27  1  0  0  0  0
 13 22  1  0  0  0  0
 13 25  2  0  0  0  0
 14 23  1  0  0  0  0
 14 30  2  0  0  0  0
 15 27  2  0  0  0  0
 15 28  1  0  0  0  0
 16 23  2  0  0  0  0
 16 71  1  0  0  0  0
 17 29  1  0  0  0  0
 18 29  1  0  0  0  0
 18 31  2  0  0  0  0
 18 32  1  0  0  0  0
 19 21  2  0  0  0  0
 19 38  1  0  0  0  0
 20 22  2  0  0  0  0
 20 39  1  0  0  0  0
 21 47  1  0  0  0  0
 22 40  1  0  0  0  0
 23 77  1  0  0  0  0
 24 88  1  0  0  0  0
 25 89  1  0  0  0  0
 26 28  2  0  0  0  0
 26 88  1  0  0  0  0
 27 90  1  0  0  0  0
 28 91  1  0  0  0  0
 29 70  2  0  0  0  0
 30 64  1  0  0  0  0
 30 71  1  0  0  0  0
 31 72  1  0  0  0  0
 31 75  1  0  0  0  0
 32 76  1  0  0  0  0
 32 82  2  0  0  0  0
 33 48  1  0  0  0  0
 33 78  1  0  0  0  0
 33 83  2  0  0  0  0
 34 60  1  0  0  0  0
 34 61  1  0  0  0  0
 34 84  2  0  0  0  0
 35 65  1  0  0  0  0
 35 73  1  0  0  0  0
 35 85  2  0  0  0  0
 36 66  1  0  0  0  0
 36 79  1  0  0  0  0
 36 86  2  0  0  0  0
 37 74  1  0  0  0  0
 37 77  1  0  0  0  0
 37 87  2  0  0  0  0
 38 41  1  0  0  0  0
 39 48  1  0  0  0  0
 40 73  1  0  0  0  0
 41 43  1  0  0  0  0
 42 44  1  0  0  0  0
 42 45  1  0  0  0  0
 43 47  1  0  0  0  0
 44 49  1  0  0  0  0
 45 74  1  0  0  0  0
 46 49  1  0  0  0  0
 46 74  1  0  0  0  0
 47 78  1  0  0  0  0
 48 73  1  0  0  0  0
 49 72  1  0  0  0  0
 50 66  1  0  0  0  0
 51 67  1  0  0  0  0
 52 67  1  0  0  0  0
 53 67  1  0  0  0  0
 54 68  1  0  0  0  0
 55 68  1  0  0  0  0
 56 68  1  0  0  0  0
 57 69  1  0  0  0  0
 58 69  1  0  0  0  0
 59 81  1  0  0  0  0
 60 69  1  0  0  0  0
 61 71  1  0  0  0  0
 62 64  1  0  0  0  0
 62 67  1  0  0  0  0
 63 69  1  0  0  0  0
 63 89  1  0  0  0  0
 64 80  1  0  0  0  0
 65 68  1  0  0  0  0
 65 79  1  0  0  0  0
 66 81  1  0  0  0  0
 70 72  1  0  0  0  0
M  CHG  2  80   1  81   1
M  ISO  4  37 100  63 101  77 100  89 101
M  END
> <Batch ID>
0149

> <Smiles>
CNC(C)C(=O)NC(C(=O)N1Cc2cc([101O:1][101CH2:1]C(C)(C)CC(=O)Cn3cc([100NH:0][100C:0](=O)N4CCCC(n5nc(-c6ccc(Oc7ccc(F)cc7F)cc6)c(C(N)=O)c5N)C4)cc3C(N)CC(C)(C)C)ccc2CC1C(=O)NC1CCCc2ccccc21)C(C)(C)C

> <Shape>
0.206

> <Color>
0.055

> <Negative vol penalty>
0.000

$$$$

  -OEChem-04052303193D

 90 99  0     1  0  0  0  0  0999 V2000
  -22.5996  -31.5114   26.7474 C   0  0  0  0  0  0  0  0  0  0  0  0
  -23.1901  -30.3756   26.2027 C   0  0  0  0  0  0  0  0  0  0  0  0
  -23.1232   -9.8558   19.9545 C   0  0  0  0  0  0  0  0  0  0  0  0
  -23.5140  -10.0216   22.3329 C   0  0  0  0  0  0  0  0  0  0  0  0
  -21.3411  -31.9202   26.3082 C   0  0  0  0  0  0  0  0  0  0  0  0
  -22.5218  -29.6473   25.2192 C   0  0  0  0  0  0  0  0  0  0  0  0
  -25.0347  -26.6960   20.4778 C   0  0  0  0  0  0  0  0  0  0  0  0
  -22.3172   -8.7370   20.1649 C   0  0  0  0  0  0  0  0  0  0  0  0
  -22.7079   -8.9029   22.5433 C   0  0  0  0  0  0  0  0  0  0  0  0
  -25.3619  -25.3562   20.2736 C   0  0  0  0  0  0  0  0  0  0  0  0
  -22.9889   -5.5441   22.2771 C   0  0  0  0  0  0  0  0  0  0  0  0
  -23.4551   -4.5653   23.1547 C   0  0  0  0  0  0  0  0  0  0  0  0
  -31.4601  -18.6879   16.9808 C   0  0  0  0  0  0  0  0  0  0  0  0
  -23.2620  -25.0233   19.1339 C   0  0  0  0  0  0  0  0  0  0  0  0
  -21.5127   -4.8943   24.5534 C   0  0  0  0  0  0  0  0  0  0  0  0
  -23.7217  -10.4980   21.0385 C   0  0  0  0  0  0  0  0  0  0  0  0
  -30.0582  -18.5196   17.0794 C   0  0  0  0  0  0  0  0  0  0  0  0
  -24.1492  -13.0011   20.7946 C   0  0  0  0  0  0  0  0  0  0  0  0
  -20.6612  -31.2020   25.3120 C   0  0  0  0  0  0  0  0  0  0  0  0
  -23.8119  -27.2077   20.0204 C   0  0  0  0  0  0  0  0  0  0  0  0
  -21.2524  -30.0461   24.7672 C   0  0  0  0  0  0  0  0  0  0  0  0
  -22.9228  -26.3706   19.3313 C   0  0  0  0  0  0  0  0  0  0  0  0
  -22.1095   -8.2606   21.4593 C   0  0  0  0  0  0  0  0  0  0  0  0
  -24.4743  -24.5190   19.6041 C   0  0  0  0  0  0  0  0  0  0  0  0
  -21.7846   -6.1981   22.5377 C   0  0  0  0  0  0  0  0  0  0  0  0
  -22.7170   -4.2403   24.2928 C   0  0  0  0  0  0  0  0  0  0  0  0
  -21.0466   -5.8731   23.6758 C   0  0  0  0  0  0  0  0  0  0  0  0
  -24.5550  -11.6534   20.8217 C   0  0  0  0  0  0  0  0  0  0  0  0
  -29.5358  -19.7760   17.2803 C   0  0  0  0  0  0  0  0  0  0  0  0
  -25.3055  -13.7031   20.5565 C   0  0  0  0  0  0  0  0  0  0  0  0
  -31.6943  -20.0353   17.1283 C   0  0  0  0  0  0  0  0  0  0  0  0
  -27.7569  -21.2153   18.1911 C   0  0  0  0  0  0  0  0  0  0  0  0
  -29.2974  -17.2708   16.9887 C   0  0  0  0  0  0  0  0  0  0  0  0
  -22.8438  -13.5678   20.9691 C   0  0  0  0  0  0  0  0  0  0  0  0
  -28.1767  -20.1382   17.4414 C   0  0  0  0  0  0  0  0  0  0  0  0
  -26.3442  -21.6565   18.3975 C   0  0  0  0  0  0  0  0  0  0  0  0
  -21.2644  -28.5073   21.4079 C   0  0  0  0  0  0  0  0  0  0  0  0
  -20.3316  -29.0037   18.3410 C   0  0  0  0  0  0  0  0  0  0  0  0
  -20.5555  -28.0895   15.0606 C   0  0  0  0  0  0  0  0  0  0  0  0
  -30.0932  -14.3906   17.8448 C   0  0  0  0  0  0  0  0  0  0  0  0
  -19.2822  -31.6556   24.9031 C   0  0  0  0  0  0  0  0  0  0  0  0
  -23.4855  -28.6617   20.2251 C   0  0  0  0  0  0  0  0  0  0  0  0
  -21.6061  -26.8758   18.8026 C   0  0  0  0  0  0  0  0  0  0  0  0
  -18.8034  -31.0417   23.5901 C   0  0  0  0  0  0  0  0  0  0  0  0
  -29.0092  -14.7355   14.4227 C   0  0  0  0  0  0  0  0  0  0  0  0
  -30.1331  -12.2402   20.6165 C   0  0  0  0  0  0  0  0  0  0  0  0
  -19.0689  -29.5397   23.5749 C   0  0  0  0  0  0  0  0  0  0  0  0
  -29.2714  -16.2052   14.7269 C   0  0  0  0  0  0  0  0  0  0  0  0
  -28.6569  -11.9836   20.9115 C   0  0  0  0  0  0  0  0  0  0  0  0
  -30.3856  -12.2893   19.1151 C   0  0  0  0  0  0  0  0  0  0  0  0
  -28.6211  -14.1665   15.7774 C   0  0  0  0  0  0  0  0  0  0  0  0
  -28.0800  -13.0885   18.6906 C   0  0  0  0  0  0  0  0  0  0  0  0
  -20.5698  -29.2437   23.6808 C   0  0  1  0  0  0  0  0  0  0  0  0
  -29.8672  -16.1850   16.1317 C   0  0  2  0  0  0  0  0  0  0  0  0
  -21.9888  -28.9517   20.1688 C   0  0  1  0  0  0  0  0  0  0  0  0
  -27.7697  -13.0182   20.2000 C   0  0  1  0  0  0  0  0  0  0  0  0
  -19.6456  -28.6555   12.7914 C   0  0  0  0  0  0  0  0  0  0  0  0
  -17.7195  -27.5893   19.0384 C   0  0  0  0  0  0  0  0  0  0  0  0
  -17.2805  -27.3408   16.5861 C   0  0  0  0  0  0  0  0  0  0  0  0
  -17.4560  -29.6151   17.5957 C   0  0  0  0  0  0  0  0  0  0  0  0
  -34.1766  -20.2014   16.9381 C   0  0  0  0  0  0  0  0  0  0  0  0
  -23.2409  -28.7854   14.0295 C   0  0  0  0  0  0  0  0  0  0  0  0
  -26.1649  -22.8795   19.2729 C   0  0  0  0  0  0  0  0  0  1  0  0
  -19.5439  -28.2158   17.3223 C   0  0  1  0  0  0  0  0  0  0  0  0
  -20.7569  -28.9083   13.7983 C   0  0  2  0  0  0  0  0  0  0  0  0
  -18.0239  -28.1800   17.6472 C   0  0  0  0  0  0  0  0  0  0  0  0
  -25.8665  -11.5056   20.6170 N   0  0  0  0  0  0  0  0  0  0  0  0
  -26.2949  -12.7695   20.4589 N   0  0  0  0  0  0  0  0  0  0  0  0
  -21.3297  -28.3034   19.0332 N   0  0  0  0  0  0  0  0  0  0  0  0
  -29.5195  -13.2683   18.4564 N   0  0  0  0  0  0  0  0  0  0  0  0
  -29.4429  -14.9182   16.7257 N   0  0  0  0  0  0  0  0  0  0  0  0
  -25.5622  -15.0217   20.4231 N   0  0  0  0  0  0  0  0  0  0  0  0
  -21.7663  -12.7033   21.2057 N   0  0  0  0  0  0  0  0  0  0  0  0
  -32.8338  -20.7569   17.1205 N   0  0  0  0  0  0  0  0  0  0  0  0
  -21.2191  -29.4619   22.4060 N   0  0  0  0  0  0  0  0  0  0  0  0
  -19.8636  -28.7953   16.0221 N   0  0  0  0  0  0  0  0  0  0  0  0
  -22.0580  -28.5627   13.1588 N   0  3  0  0  0  0  0  0  0  0  0  0
  -28.2322  -17.0621   17.5602 O   0  0  0  0  0  0  0  0  0  0  0  0
  -22.6362  -14.8030   20.9005 O   0  0  0  0  0  0  0  0  0  0  0  0
  -25.3933  -21.0672   17.8923 O   0  0  0  0  0  0  0  0  0  0  0  0
  -20.7810  -27.3822   21.4544 O   0  0  0  0  0  0  0  0  0  0  0  0
  -20.0757  -30.1984   18.5111 O   0  0  0  0  0  0  0  0  0  0  0  0
  -20.9673  -26.9377   15.1803 O   0  0  0  0  0  0  0  0  0  0  0  0
  -31.1476  -14.8849   18.2648 O   0  0  0  0  0  0  0  0  0  0  0  0
  -30.5265  -20.7056   17.3113 O   0  0  0  0  0  0  0  0  0  0  0  0
  -27.2410  -19.3388   16.7644 O   0  0  0  0  0  0  0  0  0  0  0  0
  -21.3228   -7.1691   21.6650 O   0  0  0  0  0  0  0  0  0  0  0  0
  -24.7941  -23.1977   19.4021 O   0  0  0  0  0  0  0  0  0  1  0  0
  -23.1640   -3.2993   25.1347 F   0  0  0  0  0  0  0  0  0  0  0  0
  -19.8884   -6.4971   23.9308 F   0  0  0  0  0  0  0  0  0  0  0  0
  1  2  1  0  0  0  0
  1  5  2  0  0  0  0
  2  6  2  0  0  0  0
  3  8  2  0  0  0  0
  3 16  1  0  0  0  0
  4  9  1  0  0  0  0
  4 16  2  0  0  0  0
  5 19  1  0  0  0  0
  6 21  1  0  0  0  0
  7 10  2  0  0  0  0
  7 20  1  0  0  0  0
  8 23  1  0  0  0  0
  9 23  2  0  0  0  0
 10 24  1  0  0  0  0
 11 12  2  0  0  0  0
 11 25  1  0  0  0  0
 12 26  1  0  0  0  0
 13 17  1  0  0  0  0
 13 31  2  0  0  0  0
 14 22  1  0  0  0  0
 14 24  2  0  0  0  0
 15 26  2  0  0  0  0
 15 27  1  0  0  0  0
 16 28  1  0  0  0  0
 17 29  2  0  0  0  0
 17 33  1  0  0  0  0
 18 28  1  0  0  0  0
 18 30  2  0  0  0  0
 18 34  1  0  0  0  0
 19 21  2  0  0  0  0
 19 41  1  0  0  0  0
 20 22  2  0  0  0  0
 20 42  1  0  0  0  0
 21 53  1  0  0  0  0
 22 43  1  0  0  0  0
 23 87  1  0  0  0  0
 24 88  1  0  0  0  0
 25 27  2  0  0  0  0
 25 87  1  0  0  0  0
 26 89  1  0  0  0  0
 27 90  1  0  0  0  0
 28 67  2  0  0  0  0
 29 35  1  0  0  0  0
 29 85  1  0  0  0  0
 30 68  1  0  0  0  0
 30 72  1  0  0  0  0
 31 74  1  0  0  0  0
 31 85  1  0  0  0  0
 32 35  2  0  0  0  0
 32 36  1  0  0  0  0
 33 54  1  0  0  0  0
 33 78  2  0  0  0  0
 34 73  1  0  0  0  0
 34 79  2  0  0  0  0
 35 86  1  0  0  0  0
 36 63  1  0  0  0  0
 36 80  2  0  0  0  0
 37 55  1  0  0  0  0
 37 75  1  0  0  0  0
 37 81  2  0  0  0  0
 38 64  1  0  0  0  0
 38 69  1  0  0  0  0
 38 82  2  0  0  0  0
 39 65  1  0  0  0  0
 39 76  1  0  0  0  0
 39 83  2  0  0  0  0
 40 70  1  0  0  0  0
 40 71  1  0  0  0  0
 40 84  2  0  0  0  0
 41 44  1  0  0  0  0
 42 55  1  0  0  0  0
 43 69  1  0  0  0  0
 44 47  1  0  0  0  0
 45 48  1  0  0  0  0
 45 51  1  0  0  0  0
 46 49  1  0  0  0  0
 46 50  1  0  0  0  0
 47 53  1  0  0  0  0
 48 54  1  0  0  0  0
 49 56  1  0  0  0  0
 50 70  1  0  0  0  0
 51 71  1  0  0  0  0
 52 56  1  0  0  0  0
 52 70  1  0  0  0  0
 53 75  1  0  0  0  0
 54 71  1  0  0  0  0
 55 69  1  0  0  0  0
 56 68  1  0  0  0  0
 57 65  1  0  0  0  0
 58 66  1  0  0  0  0
 59 66  1  0  0  0  0
 60 66  1  0  0  0  0
 61 74  1  0  0  0  0
 62 77  1  0  0  0  0
 63 88  1  0  0  0  0
 64 66  1  0  0  0  0
 64 76  1  0  0  0  0
 65 77  1  0  0  0  0
 67 68  1  0  0  0  0
M  CHG  1  77   1
M  ISO  4  40 100  63 101  71 100  88 101
M  END
> <Batch ID>
0149

> <Smiles>
CNc1cc(C(=O)C2CCC[100N:0]2[100C:0](=O)N2CCCC(n3nc(-c4ccc(Oc5ccc(F)cc5F)cc4)c(C(N)=O)c3N)C2)c(C(=O)CC(=O)[101CH2:1][101O:1]c2ccc3c(c2)CN(C(=O)C(NC(=O)C(C)NC)C(C)(C)C)C(C(=O)NC2CCCc4ccccc42)C3)o1

> <Shape>
0.216

> <Color>
0.192

> <Negative vol penalty>
0.000

$$$$

  -OEChem-04052303193D

 85 94  0     1  0  0  0  0  0999 V2000
  -25.2822  -38.5329   22.0645 C   0  0  0  0  0  0  0  0  0  0  0  0
  -26.0371  -37.6656   21.2814 C   0  0  0  0  0  0  0  0  0  0  0  0
  -24.2974   -8.8455   20.0284 C   0  0  0  0  0  0  0  0  0  0  0  0
  -22.9265  -10.4510   21.2031 C   0  0  0  0  0  0  0  0  0  0  0  0
  -24.6723  -38.0674   23.2286 C   0  0  0  0  0  0  0  0  0  0  0  0
  -26.1835  -36.3323   21.6626 C   0  0  0  0  0  0  0  0  0  0  0  0
  -26.9021  -29.7742   18.8713 C   0  0  0  0  0  0  0  0  0  0  0  0
  -23.5723   -7.8035   20.6062 C   0  0  0  0  0  0  0  0  0  0  0  0
  -22.2012   -9.4090   21.7809 C   0  0  0  0  0  0  0  0  0  0  0  0
  -27.7290  -28.6546   18.9505 C   0  0  0  0  0  0  0  0  0  0  0  0
  -19.7286   -7.2930   20.8703 C   0  0  0  0  0  0  0  0  0  0  0  0
  -18.3384   -7.4058   20.8898 C   0  0  0  0  0  0  0  0  0  0  0  0
  -26.5645  -27.9428   20.9396 C   0  0  0  0  0  0  0  0  0  0  0  0
  -28.7182  -19.7297   19.3931 C   0  0  0  0  0  0  0  0  0  0  0  0
  -18.3631   -7.2923   23.3030 C   0  0  0  0  0  0  0  0  0  0  0  0
  -26.7243  -19.3201   18.4805 C   0  0  0  0  0  0  0  0  0  0  0  0
  -23.9746  -10.1693   20.3269 C   0  0  0  0  0  0  0  0  0  0  0  0
  -24.4496  -11.9016   18.5154 C   0  0  0  0  0  0  0  0  0  0  0  0
  -24.8033  -36.7254   23.6192 C   0  0  0  0  0  0  0  0  0  0  0  0
  -25.9055  -29.9926   19.8334 C   0  0  0  0  0  0  0  0  0  0  0  0
  -25.5759  -35.8486   22.8338 C   0  0  0  0  0  0  0  0  0  0  0  0
  -25.7246  -29.0646   20.8689 C   0  0  0  0  0  0  0  0  0  0  0  0
  -27.7074  -18.7488   19.2545 C   0  0  0  0  0  0  0  0  0  0  0  0
  -22.5242   -8.0852   21.4824 C   0  0  0  0  0  0  0  0  0  0  0  0
  -27.5623  -27.7402   19.9865 C   0  0  0  0  0  0  0  0  0  0  0  0
  -20.4360   -7.1797   22.0672 C   0  0  0  0  0  0  0  0  0  0  0  0
  -17.6557   -7.4055   22.1061 C   0  0  0  0  0  0  0  0  0  0  0  0
  -19.7532   -7.1794   23.2835 C   0  0  0  0  0  0  0  0  0  0  0  0
  -24.7237  -11.2461   19.7308 C   0  0  0  0  0  0  0  0  0  0  0  0
  -28.2809  -20.8304   18.6936 C   0  0  0  0  0  0  0  0  0  0  0  0
  -25.4462  -12.8394   18.3987 C   0  0  0  0  0  0  0  0  0  0  0  0
  -23.3888  -11.6823   17.5761 C   0  0  0  0  0  0  0  0  0  0  0  0
  -29.0219  -22.0978   18.5639 C   0  0  0  0  0  0  0  0  0  0  0  0
  -25.3180  -32.2632   21.9788 C   0  0  0  0  0  0  0  0  0  0  0  0
  -22.5817  -30.5816   22.4339 C   0  0  0  0  0  0  0  0  0  0  0  0
  -20.9427  -27.5971   22.2025 C   0  0  0  0  0  0  0  0  0  0  0  0
  -28.6599  -16.8294   20.5792 C   0  0  0  0  0  0  0  0  0  0  0  0
  -24.1647  -36.2796   24.9107 C   0  0  0  0  0  0  0  0  0  0  0  0
  -25.0042  -31.1913   19.7186 C   0  0  0  0  0  0  0  0  0  0  0  0
  -24.6561  -29.2426   21.9154 C   0  0  0  0  0  0  0  0  0  0  0  0
  -24.0591  -34.7628   25.0463 C   0  0  0  0  0  0  0  0  0  0  0  0
  -29.7117  -13.4608   21.0522 C   0  0  0  0  0  0  0  0  0  0  0  0
  -25.3783  -34.0995   24.6633 C   0  0  0  0  0  0  0  0  0  0  0  0
  -28.4852  -12.6383   20.6506 C   0  0  0  0  0  0  0  0  0  0  0  0
  -27.1021  -24.5922   20.3194 C   0  0  0  0  0  0  0  0  0  0  0  0
  -29.3192  -14.7506   21.7705 C   0  0  0  0  0  0  0  0  0  0  0  0
  -27.1383  -23.2372   19.6323 C   0  0  0  0  0  0  0  0  0  0  0  0
  -27.1240  -14.7676   20.6525 C   0  0  0  0  0  0  0  0  0  0  0  0
  -25.7375  -34.3895   23.2010 C   0  0  1  0  0  0  0  0  0  0  0  0
  -24.3584  -31.5824   21.0443 C   0  0  1  0  0  0  0  0  0  0  0  0
  -27.4667  -13.4904   19.8683 C   0  0  2  0  0  0  0  0  0  0  0  0
  -27.9361  -25.4776   19.3980 C   0  0  2  0  0  0  0  0  0  1  0  0
  -29.1097  -24.5665   18.9650 C   0  0  0  0  0  0  0  0  0  0  0  0
  -29.5609  -24.9079   17.5458 C   0  0  0  0  0  0  0  0  0  0  0  0
  -30.2930  -24.5867   19.9366 C   0  0  0  0  0  0  0  0  0  0  0  0
  -18.7267  -26.5239   22.6871 C   0  0  0  0  0  0  0  0  0  0  0  0
  -23.2732  -30.5008   25.4046 C   0  0  0  0  0  0  0  0  0  0  0  0
  -21.5941  -28.6634   25.6742 C   0  0  0  0  0  0  0  0  0  0  0  0
  -20.8585  -30.9200   24.9066 C   0  0  0  0  0  0  0  0  0  0  0  0
  -20.5091  -26.9347   19.3509 C   0  0  0  0  0  0  0  0  0  0  0  0
  -22.1652  -29.4390   23.3283 C   0  0  1  0  0  0  0  0  0  0  0  0
  -19.5759  -27.2389   21.6477 C   0  0  2  0  0  0  0  0  0  0  0  0
  -21.9942  -29.8782   24.8100 C   0  0  0  0  0  0  0  0  0  0  0  0
  -25.8096  -11.7267   20.3423 N   0  0  0  0  0  0  0  0  0  0  0  0
  -26.2266  -12.6941   19.5078 N   0  0  0  0  0  0  0  0  0  0  0  0
  -28.4755  -23.2188   19.0078 N   0  0  0  0  0  0  0  0  0  0  0  0
  -23.8042  -30.4337   21.7636 N   0  0  0  0  0  0  0  0  0  0  0  0
  -28.3557  -15.5077   20.9685 N   0  0  0  0  0  0  0  0  0  0  0  0
  -25.7225  -13.7658   17.4564 N   0  0  0  0  0  0  0  0  0  0  0  0
  -22.4500  -10.6786   17.8508 N   0  0  0  0  0  0  0  0  0  0  0  0
  -27.6831  -17.4379   19.7918 N   0  0  0  0  0  0  0  0  0  0  0  0
  -24.9569  -33.5543   22.3136 N   0  0  0  0  0  0  0  0  0  0  0  0
  -20.9618  -28.8706   22.7309 N   0  0  0  0  0  0  0  0  0  0  0  0
  -30.2283  -22.0951   18.0048 N   0  3  0  0  0  0  0  0  0  0  0  0
  -19.7157  -26.3478   20.4614 N   0  3  0  0  0  0  0  0  0  0  0  0
  -23.2862  -12.3456   16.5163 O   0  0  0  0  0  0  0  0  0  0  0  0
  -26.3117  -31.6612   22.3685 O   0  0  0  0  0  0  0  0  0  0  0  0
  -21.8458  -31.5660   22.3281 O   0  0  0  0  0  0  0  0  0  0  0  0
  -21.8970  -26.8232   22.1738 O   0  0  0  0  0  0  0  0  0  0  0  0
  -29.7219  -17.3712   20.8966 O   0  0  0  0  0  0  0  0  0  0  0  0
  -27.0663  -20.5889   18.1343 O   0  0  0  0  0  0  0  0  0  0  0  0
  -21.8161   -7.0686   22.0462 O   0  0  0  0  0  0  0  0  0  0  0  0
  -28.3685  -26.6468   20.0666 O   0  0  0  0  0  0  0  0  0  1  0  0
  -16.3209   -7.5154   22.1248 F   0  0  0  0  0  0  0  0  0  0  0  0
  -20.4275   -7.0721   24.4366 F   0  0  0  0  0  0  0  0  0  0  0  0
  1  2  1  0  0  0  0
  1  5  2  0  0  0  0
  2  6  2  0  0  0  0
  3  8  2  0  0  0  0
  3 17  1  0  0  0  0
  4  9  1  0  0  0  0
  4 17  2  0  0  0  0
  5 19  1  0  0  0  0
  6 21  1  0  0  0  0
  7 10  2  0  0  0  0
  7 20  1  0  0  0  0
  8 24  1  0  0  0  0
  9 24  2  0  0  0  0
 10 25  1  0  0  0  0
 11 12  2  0  0  0  0
 11 26  1  0  0  0  0
 12 27  1  0  0  0  0
 13 22  1  0  0  0  0
 13 25  2  0  0  0  0
 14 23  1  0  0  0  0
 14 30  2  0  0  0  0
 15 27  2  0  0  0  0
 15 28  1  0  0  0  0
 16 23  2  0  0  0  0
 16 81  1  0  0  0  0
 17 29  1  0  0  0  0
 18 29  1  0  0  0  0
 18 31  2  0  0  0  0
 18 32  1  0  0  0  0
 19 21  2  0  0  0  0
 19 38  1  0  0  0  0
 20 22  2  0  0  0  0
 20 39  1  0  0  0  0
 21 49  1  0  0  0  0
 22 40  1  0  0  0  0
 23 71  1  0  0  0  0
 24 82  1  0  0  0  0
 25 83  1  0  0  0  0
 26 28  2  0  0  0  0
 26 82  1  0  0  0  0
 27 84  1  0  0  0  0
 28 85  1  0  0  0  0
 29 64  2  0  0  0  0
 30 33  1  0  0  0  0
 30 81  1  0  0  0  0
 31 65  1  0  0  0  0
 31 69  1  0  0  0  0
 32 70  1  0  0  0  0
 32 76  2  0  0  0  0
 33 66  1  0  0  0  0
 33 74  2  0  0  0  0
 34 50  1  0  0  0  0
 34 72  1  0  0  0  0
 34 77  2  0  0  0  0
 35 61  1  0  0  0  0
 35 67  1  0  0  0  0
 35 78  2  0  0  0  0
 36 62  1  0  0  0  0
 36 73  1  0  0  0  0
 36 79  2  0  0  0  0
 37 68  1  0  0  0  0
 37 71  1  0  0  0  0
 37 80  2  0  0  0  0
 38 41  1  0  0  0  0
 39 50  1  0  0  0  0
 40 67  1  0  0  0  0
 41 43  1  0  0  0  0
 42 44  1  0  0  0  0
 42 46  1  0  0  0  0
 43 49  1  0  0  0  0
 44 51  1  0  0  0  0
 45 47  1  0  0  0  0
 45 52  1  0  0  0  0
 46 68  1  0  0  0  0
 47 66  1  0  0  0  0
 48 51  1  0  0  0  0
 48 68  1  0  0  0  0
 49 72  1  0  0  0  0
 50 67  1  0  0  0  0
 51 65  1  0  0  0  0
 52 53  1  0  0  0  0
 52 83  1  0  0  0  0
 53 54  1  0  0  0  0
 53 55  1  0  0  0  0
 53 66  1  0  0  0  0
 56 62  1  0  0  0  0
 57 63  1  0  0  0  0
 58 63  1  0  0  0  0
 59 63  1  0  0  0  0
 60 75  1  0  0  0  0
 61 63  1  0  0  0  0
 61 73  1  0  0  0  0
 62 75  1  0  0  0  0
 64 65  1  0  0  0  0
M  CHG  2  74   1  75   1
M  ISO  4  37 100  52 101  71 100  83 101
M  END
> <Batch ID>
0149

> <Smiles>
CNC(C)C(=O)NC(C(=O)N1Cc2cc([101O:1][101CH:1]3CCN(C(=N)c4cc([100NH:0][100C:0](=O)N5CCCC(n6nc(-c7ccc(Oc8ccc(F)cc8F)cc7)c(C(N)=O)c6N)C5)co4)C3(C)C)ccc2CC1C(=O)NC1CCCc2ccccc21)C(C)(C)C

> <Shape>
0.325

> <Color>
0.109

> <Negative vol penalty>
0.000

$$$$

  -OEChem-04052303193D

 86 94  0     1  0  0  0  0  0999 V2000
  -22.5063  -14.4319   27.4974 C   0  0  0  0  0  0  0  0  0  0  0  0
  -23.4008  -15.4973   27.5117 C   0  0  0  0  0  0  0  0  0  0  0  0
  -32.7430  -17.2705   23.5998 C   0  0  0  0  0  0  0  0  0  0  0  0
  -22.6692  -10.1984   20.1641 C   0  0  0  0  0  0  0  0  0  0  0  0
  -24.3212   -9.4136   21.7428 C   0  0  0  0  0  0  0  0  0  0  0  0
  -21.3694  -14.4885   26.6924 C   0  0  0  0  0  0  0  0  0  0  0  0
  -23.1594  -16.6195   26.7200 C   0  0  0  0  0  0  0  0  0  0  0  0
  -23.9386  -20.9588   29.2117 C   0  0  0  0  0  0  0  0  0  0  0  0
  -32.1318  -16.4501   22.6516 C   0  0  0  0  0  0  0  0  0  0  0  0
  -31.9646  -18.0802   24.4270 C   0  0  0  0  0  0  0  0  0  0  0  0
  -21.9337   -9.0283   20.3521 C   0  0  0  0  0  0  0  0  0  0  0  0
  -23.5856   -8.2435   21.9309 C   0  0  0  0  0  0  0  0  0  0  0  0
  -25.2607  -21.3691   29.3777 C   0  0  0  0  0  0  0  0  0  0  0  0
  -20.8375   -7.2794   23.6452 C   0  0  0  0  0  0  0  0  0  0  0  0
  -20.6525   -6.8354   24.9545 C   0  0  0  0  0  0  0  0  0  0  0  0
  -25.0096  -22.9034   27.5331 C   0  0  0  0  0  0  0  0  0  0  0  0
  -29.9638  -17.2492   23.3576 C   0  0  0  0  0  0  0  0  0  0  0  0
  -21.7739   -4.7656   24.4110 C   0  0  0  0  0  0  0  0  0  0  0  0
  -23.8630  -10.3910   20.8594 C   0  0  0  0  0  0  0  0  0  0  0  0
  -24.1989  -12.9194   20.9075 C   0  0  0  0  0  0  0  0  0  0  0  0
  -21.1089  -15.6160   25.8978 C   0  0  0  0  0  0  0  0  0  0  0  0
  -23.1441  -21.5107   28.1966 C   0  0  0  0  0  0  0  0  0  0  0  0
  -22.0186  -16.6907   25.9026 C   0  0  0  0  0  0  0  0  0  0  0  0
  -23.6770  -22.5001   27.3580 C   0  0  0  0  0  0  0  0  0  0  0  0
  -30.7423  -16.4395   22.5305 C   0  0  0  0  0  0  0  0  0  0  0  0
  -30.5750  -18.0696   24.3059 C   0  0  0  0  0  0  0  0  0  0  0  0
  -22.3918   -8.0508   21.2356 C   0  0  0  0  0  0  0  0  0  0  0  0
  -25.7973  -22.3395   28.5365 C   0  0  0  0  0  0  0  0  0  0  0  0
  -21.4906   -6.4665   22.7188 C   0  0  0  0  0  0  0  0  0  0  0  0
  -21.1207   -5.5785   25.3374 C   0  0  0  0  0  0  0  0  0  0  0  0
  -21.9589   -5.2096   23.1017 C   0  0  0  0  0  0  0  0  0  0  0  0
  -24.6236  -11.5993   20.6652 C   0  0  0  0  0  0  0  0  0  0  0  0
  -25.2800  -13.6957   20.5684 C   0  0  0  0  0  0  0  0  0  0  0  0
  -22.9397  -13.4009   21.3956 C   0  0  0  0  0  0  0  0  0  0  0  0
  -21.6619  -20.3584   25.6316 C   0  0  0  0  0  0  0  0  0  0  0  0
  -29.2272  -20.4886   26.8419 C   0  0  0  0  0  0  0  0  0  0  0  0
  -20.4896  -23.3765   25.4344 C   0  0  0  0  0  0  0  0  0  0  0  0
  -20.8560  -26.6826   26.1975 C   0  0  0  0  0  0  0  0  0  0  0  0
  -30.7479  -14.7425   20.6687 C   0  0  0  0  0  0  0  0  0  0  0  0
  -19.8912  -15.6115   25.0080 C   0  0  0  0  0  0  0  0  0  0  0  0
  -21.7117  -21.0765   28.0477 C   0  0  0  0  0  0  0  0  0  0  0  0
  -22.8597  -23.1386   26.2659 C   0  0  0  0  0  0  0  0  0  0  0  0
  -19.5150  -16.9948   24.4833 C   0  0  0  0  0  0  0  0  0  0  0  0
  -29.5723  -12.4972   18.1679 C   0  0  0  0  0  0  0  0  0  0  0  0
  -20.7500  -17.7211   23.9597 C   0  0  0  0  0  0  0  0  0  0  0  0
  -28.1451  -12.1720   18.6146 C   0  0  0  0  0  0  0  0  0  0  0  0
  -30.5193  -12.6439   19.3576 C   0  0  0  0  0  0  0  0  0  0  0  0
  -28.6497  -13.2643   20.8371 C   0  0  0  0  0  0  0  0  0  0  0  0
  -21.7786  -17.9358   25.0766 C   0  0  1  0  0  0  0  0  0  0  0  0
  -21.1509  -21.3350   26.6527 C   0  0  1  0  0  0  0  0  0  0  0  0
  -27.6455  -13.1711   19.6766 C   0  0  2  0  0  0  0  0  0  0  0  0
  -19.7565  -28.9141   25.8675 C   0  0  0  0  0  0  0  0  0  0  0  0
  -21.5069  -23.4498   22.5587 C   0  0  0  0  0  0  0  0  0  0  0  0
  -21.2501  -25.9398   22.6049 C   0  0  0  0  0  0  0  0  0  0  0  0
  -19.2510  -24.4760   22.8936 C   0  0  0  0  0  0  0  0  0  0  0  0
  -29.9975  -23.4457   26.3881 C   0  0  0  0  0  0  0  0  0  0  0  0
  -29.8345  -23.7695   28.8565 C   0  0  0  0  0  0  0  0  0  0  0  0
  -20.4910  -27.0634   29.1097 C   0  0  0  0  0  0  0  0  0  0  0  0
  -29.6382  -21.4589   27.9401 C   0  0  0  0  0  0  0  0  0  0  0  0
  -30.3462  -19.7529   26.1333 C   0  0  0  0  0  0  0  0  0  0  0  0
  -27.7810  -23.1778   27.5275 C   0  0  0  0  0  0  0  0  0  1  0  0
  -20.9368  -24.6558   24.7692 C   0  0  1  0  0  0  0  0  0  0  0  0
  -19.8840  -27.6977   26.7713 C   0  0  2  0  0  0  0  0  0  0  0  0
  -20.7524  -24.6171   23.2258 C   0  0  0  0  0  0  0  0  0  0  0  0
  -29.3002  -22.9444   27.6654 C   0  0  0  0  0  0  0  0  0  0  0  0
  -25.8768  -11.5367   20.2073 N   0  0  0  0  0  0  0  0  0  0  0  0
  -26.2488  -12.8272   20.1591 N   0  0  0  0  0  0  0  0  0  0  0  0
  -21.4663  -22.6760   26.1563 N   0  0  0  0  0  0  0  0  0  0  0  0
  -29.9832  -13.6092   20.3198 N   0  0  0  0  0  0  0  0  0  0  0  0
  -25.4870  -15.0296   20.5832 N   0  0  0  0  0  0  0  0  0  0  0  0
  -22.7714  -13.5476   22.7792 N   0  0  0  0  0  0  0  0  0  0  0  0
  -30.1219  -15.6060   21.5670 N   0  0  0  0  0  0  0  0  0  0  0  0
  -29.8013  -18.8753   25.1282 N   0  0  0  0  0  0  0  0  0  0  0  0
  -21.3802  -19.0379   25.9256 N   0  0  0  0  0  0  0  0  0  0  0  0
  -20.2115  -25.7350   25.4307 N   0  0  0  0  0  0  0  0  0  0  0  0
  -20.3446  -28.1551   28.1128 N   0  3  0  0  0  0  0  0  0  0  0  0
  -21.9863  -13.6767   20.6285 O   0  0  0  0  0  0  0  0  0  0  0  0
  -22.2658  -20.7723   24.6489 O   0  0  0  0  0  0  0  0  0  0  0  0
  -28.0423  -20.3314   26.5466 O   0  0  0  0  0  0  0  0  0  0  0  0
  -19.3151  -23.0159   25.3236 O   0  0  0  0  0  0  0  0  0  0  0  0
  -22.0665  -26.7281   26.4054 O   0  0  0  0  0  0  0  0  0  0  0  0
  -31.8637  -14.9468   20.1838 O   0  0  0  0  0  0  0  0  0  0  0  0
  -21.6742   -6.9090   21.4195 O   0  0  0  0  0  0  0  0  0  0  0  0
  -27.0876  -22.7414   28.6959 O   0  0  0  0  0  0  0  0  0  1  0  0
  -20.9444   -5.1529   26.5951 F   0  0  0  0  0  0  0  0  0  0  0  0
  -22.5881   -4.4246   22.2164 F   0  0  0  0  0  0  0  0  0  0  0  0
  1  2  1  0  0  0  0
  1  6  2  0  0  0  0
  2  7  2  0  0  0  0
  3  9  1  0  0  0  0
  3 10  2  0  0  0  0
  4 11  2  0  0  0  0
  4 19  1  0  0  0  0
  5 12  1  0  0  0  0
  5 19  2  0  0  0  0
  6 21  1  0  0  0  0
  7 23  1  0  0  0  0
  8 13  2  0  0  0  0
  8 22  1  0  0  0  0
  9 25  2  0  0  0  0
 10 26  1  0  0  0  0
 11 27  1  0  0  0  0
 12 27  2  0  0  0  0
 13 28  1  0  0  0  0
 14 15  2  0  0  0  0
 14 29  1  0  0  0  0
 15 30  1  0  0  0  0
 16 24  1  0  0  0  0
 16 28  2  0  0  0  0
 17 25  1  0  0  0  0
 17 26  2  0  0  0  0
 18 30  2  0  0  0  0
 18 31  1  0  0  0  0
 19 32  1  0  0  0  0
 20 32  1  0  0  0  0
 20 33  2  0  0  0  0
 20 34  1  0  0  0  0
 21 23  2  0  0  0  0
 21 40  1  0  0  0  0
 22 24  2  0  0  0  0
 22 41  1  0  0  0  0
 23 49  1  0  0  0  0
 24 42  1  0  0  0  0
 25 72  1  0  0  0  0
 26 73  1  0  0  0  0
 27 83  1  0  0  0  0
 28 84  1  0  0  0  0
 29 31  2  0  0  0  0
 29 83  1  0  0  0  0
 30 85  1  0  0  0  0
 31 86  1  0  0  0  0
 32 66  2  0  0  0  0
 33 67  1  0  0  0  0
 33 70  1  0  0  0  0
 34 71  1  0  0  0  0
 34 77  2  0  0  0  0
 35 50  1  0  0  0  0
 35 74  1  0  0  0  0
 35 78  2  0  0  0  0
 36 59  1  0  0  0  0
 36 60  1  0  0  0  0
 36 79  2  0  0  0  0
 37 62  1  0  0  0  0
 37 68  1  0  0  0  0
 37 80  2  0  0  0  0
 38 63  1  0  0  0  0
 38 75  1  0  0  0  0
 38 81  2  0  0  0  0
 39 69  1  0  0  0  0
 39 72  1  0  0  0  0
 39 82  2  0  0  0  0
 40 43  1  0  0  0  0
 41 50  1  0  0  0  0
 42 68  1  0  0  0  0
 43 45  1  0  0  0  0
 44 46  1  0  0  0  0
 44 47  1  0  0  0  0
 45 49  1  0  0  0  0
 46 51  1  0  0  0  0
 47 69  1  0  0  0  0
 48 51  1  0  0  0  0
 48 69  1  0  0  0  0
 49 74  1  0  0  0  0
 50 68  1  0  0  0  0
 51 67  1  0  0  0  0
 52 63  1  0  0  0  0
 53 64  1  0  0  0  0
 54 64  1  0  0  0  0
 55 64  1  0  0  0  0
 56 65  1  0  0  0  0
 57 65  1  0  0  0  0
 58 76  1  0  0  0  0
 59 65  1  0  0  0  0
 60 73  1  0  0  0  0
 61 65  1  0  0  0  0
 61 84  1  0  0  0  0
 62 64  1  0  0  0  0
 62 75  1  0  0  0  0
 63 76  1  0  0  0  0
 66 67  1  0  0  0  0
M  CHG  1  76   1
M  ISO  4  39 100  61 101  72 100  84 101
M  END
> <Batch ID>
0149

> <Smiles>
CNC(C)C(=O)NC(C(=O)N1Cc2cc([101O:1][101CH2:1]C(C)(C)CC(=O)CNc3cccc([100NH:0][100C:0](=O)N4CCCC(n5nc(-c6ccc(Oc7ccc(F)cc7F)cc6)c(C(N)=O)c5N)C4)c3)ccc2CC1C(=O)NC1CCCc2ccccc21)C(C)(C)C

> <Shape>
0.190

> <Color>
0.175

> <Negative vol penalty>
0.000

$$$$

  -OEChem-04052303193D

 84 93  0     1  0  0  0  0  0999 V2000
  -22.9007  -38.5445   20.9119 C   0  0  0  0  0  0  0  0  0  0  0  0
  -24.1083  -38.0619   20.4177 C   0  0  0  0  0  0  0  0  0  0  0  0
  -24.6757   -8.9894   21.7255 C   0  0  0  0  0  0  0  0  0  0  0  0
  -22.9210  -10.4131   20.8703 C   0  0  0  0  0  0  0  0  0  0  0  0
  -22.4227  -38.0949   22.1420 C   0  0  0  0  0  0  0  0  0  0  0  0
  -24.8391  -37.1301   21.1540 C   0  0  0  0  0  0  0  0  0  0  0  0
  -27.3926  -30.0350   19.1127 C   0  0  0  0  0  0  0  0  0  0  0  0
  -23.7469   -8.3265   22.5276 C   0  0  0  0  0  0  0  0  0  0  0  0
  -21.9922   -9.7502   21.6724 C   0  0  0  0  0  0  0  0  0  0  0  0
  -27.7605  -28.7030   18.9218 C   0  0  0  0  0  0  0  0  0  0  0  0
  -21.3801   -5.9417   22.1477 C   0  0  0  0  0  0  0  0  0  0  0  0
  -21.4324   -4.5483   22.1838 C   0  0  0  0  0  0  0  0  0  0  0  0
  -27.6265  -28.3133   21.3047 C   0  0  0  0  0  0  0  0  0  0  0  0
  -26.3656  -19.5771   19.3404 C   0  0  0  0  0  0  0  0  0  0  0  0
  -21.8269   -4.6249   24.5662 C   0  0  0  0  0  0  0  0  0  0  0  0
  -24.4404  -18.3931   18.7980 C   0  0  0  0  0  0  0  0  0  0  0  0
  -24.2628  -10.0328   20.8968 C   0  0  0  0  0  0  0  0  0  0  0  0
  -25.5967  -10.3898   18.7519 C   0  0  0  0  0  0  0  0  0  0  0  0
  -23.1433  -37.1499   22.8893 C   0  0  0  0  0  0  0  0  0  0  0  0
  -27.1249  -30.5079   20.4004 C   0  0  0  0  0  0  0  0  0  0  0  0
  -24.3710  -36.6684   22.3959 C   0  0  0  0  0  0  0  0  0  0  0  0
  -27.2454  -29.6433   21.5009 C   0  0  0  0  0  0  0  0  0  0  0  0
  -25.7132  -18.3106   19.3183 C   0  0  0  0  0  0  0  0  0  0  0  0
  -22.4051   -8.7068   22.5010 C   0  0  0  0  0  0  0  0  0  0  0  0
  -27.8774  -27.8443   20.0151 C   0  0  0  0  0  0  0  0  0  0  0  0
  -21.5514   -6.6767   23.3208 C   0  0  0  0  0  0  0  0  0  0  0  0
  -21.6557   -3.8899   23.3930 C   0  0  0  0  0  0  0  0  0  0  0  0
  -21.7747   -6.0183   24.5300 C   0  0  0  0  0  0  0  0  0  0  0  0
  -25.2219  -10.7184   20.0684 C   0  0  0  0  0  0  0  0  0  0  0  0
  -25.5665  -20.5795   18.8359 C   0  0  0  0  0  0  0  0  0  0  0  0
  -26.5303  -11.3388   18.4137 C   0  0  0  0  0  0  0  0  0  0  0  0
  -25.1416   -9.3223   17.9098 C   0  0  0  0  0  0  0  0  0  0  0  0
  -26.0989  -33.4060   22.5508 C   0  0  0  0  0  0  0  0  0  0  0  0
  -24.6752  -30.9255   23.6600 C   0  0  0  0  0  0  0  0  0  0  0  0
  -22.9725  -28.0418   24.3098 C   0  0  0  0  0  0  0  0  0  0  0  0
  -27.5586  -16.9112   20.3097 C   0  0  0  0  0  0  0  0  0  0  0  0
  -22.6096  -36.7291   24.2357 C   0  0  0  0  0  0  0  0  0  0  0  0
  -26.7853  -31.9506   20.6594 C   0  0  0  0  0  0  0  0  0  0  0  0
  -26.9814  -30.2046   22.8713 C   0  0  0  0  0  0  0  0  0  0  0  0
  -23.2603  -35.4597   24.7792 C   0  0  0  0  0  0  0  0  0  0  0  0
  -29.8504  -14.1869   20.3629 C   0  0  0  0  0  0  0  0  0  0  0  0
  -24.7766  -35.5307   24.6290 C   0  0  0  0  0  0  0  0  0  0  0  0
  -26.2346  -22.7124   20.0256 C   0  0  0  0  0  0  0  0  0  0  0  0
  -28.9583  -12.9589   20.1676 C   0  0  0  0  0  0  0  0  0  0  0  0
  -26.5549  -24.1995   19.8553 C   0  0  0  0  0  0  0  0  0  0  0  0
  -29.1691  -15.2522   21.2201 C   0  0  0  0  0  0  0  0  0  0  0  0
  -26.9411  -14.4278   20.5678 C   0  0  0  0  0  0  0  0  0  0  0  0
  -27.3006  -23.7571   17.4777 C   0  0  0  0  0  0  0  0  0  0  0  0
  -25.1804  -35.6384   23.1536 C   0  0  1  0  0  0  0  0  0  0  0  0
  -25.8835  -22.0517   18.6864 C   0  0  1  0  0  0  0  0  0  0  0  0
  -25.7848  -32.1372   21.8141 C   0  0  1  0  0  0  0  0  0  0  0  0
  -27.5589  -13.3544   19.6568 C   0  0  2  0  0  0  0  0  0  0  0  0
  -27.6447  -24.4431   18.8014 C   0  0  1  0  0  0  0  0  0  0  0  0
  -21.2505  -27.0777   25.8598 C   0  0  0  0  0  0  0  0  0  0  0  0
  -26.7732  -30.7342   25.8659 C   0  0  0  0  0  0  0  0  0  0  0  0
  -25.3582  -28.9837   26.9621 C   0  0  0  0  0  0  0  0  0  0  0  0
  -24.4698  -31.2953   26.6622 C   0  0  0  0  0  0  0  0  0  0  0  0
  -21.1125  -27.4757   22.0784 C   0  0  0  0  0  0  0  0  0  0  0  0
  -27.8477  -25.9440   18.5850 C   0  0  0  0  0  0  0  0  0  1  0  0
  -24.7038  -29.7862   24.6472 C   0  0  1  0  0  0  0  0  0  0  0  0
  -21.4948  -27.7718   24.5289 C   0  0  2  0  0  0  0  0  0  0  0  0
  -25.3352  -30.1965   26.0075 C   0  0  0  0  0  0  0  0  0  0  0  0
  -25.8650  -11.7921   20.5349 N   0  0  0  0  0  0  0  0  0  0  0  0
  -26.6534  -12.1464   19.5059 N   0  0  0  0  0  0  0  0  0  0  0  0
  -25.7978  -31.0778   22.8371 N   0  0  0  0  0  0  0  0  0  0  0  0
  -27.8505  -15.5796   20.6735 N   0  0  0  0  0  0  0  0  0  0  0  0
  -27.2498  -11.5528   17.2917 N   0  0  0  0  0  0  0  0  0  0  0  0
  -24.1788   -8.4375   18.4143 N   0  0  0  0  0  0  0  0  0  0  0  0
  -26.2856  -17.0961   19.7713 N   0  0  0  0  0  0  0  0  0  0  0  0
  -25.0872  -34.3463   22.5085 N   0  0  0  0  0  0  0  0  0  0  0  0
  -23.3325  -29.2987   24.7478 N   0  0  0  0  0  0  0  0  0  0  0  0
  -27.0137  -22.3083   17.7223 N   0  3  0  0  0  0  0  0  0  0  0  0
  -20.9598  -26.9047   23.4414 N   0  3  0  0  0  0  0  0  0  0  0  0
  -25.5879   -9.1482   16.7505 O   0  0  0  0  0  0  0  0  0  0  0  0
  -27.1789  -33.5240   23.1176 O   0  0  0  0  0  0  0  0  0  0  0  0
  -23.6881  -31.6654   23.6213 O   0  0  0  0  0  0  0  0  0  0  0  0
  -23.7322  -27.2186   23.8043 O   0  0  0  0  0  0  0  0  0  0  0  0
  -28.3874  -17.8159   20.4392 O   0  0  0  0  0  0  0  0  0  0  0  0
  -28.8755  -23.9075   19.2975 O   0  0  0  0  0  0  0  0  0  0  0  0
  -21.4985   -8.0600   23.2834 O   0  0  0  0  0  0  0  0  0  0  0  0
  -28.2327  -26.5440   19.8212 O   0  0  0  0  0  0  0  0  0  1  0  0
  -21.7043   -2.5518   23.4278 F   0  0  0  0  0  0  0  0  0  0  0  0
  -21.9387   -6.7190   25.6605 F   0  0  0  0  0  0  0  0  0  0  0  0
  -24.0365  -19.9925   18.3387 S   0  0  0  0  0  0  0  0  0  0  0  0
  1  2  1  0  0  0  0
  1  5  2  0  0  0  0
  2  6  2  0  0  0  0
  3  8  2  0  0  0  0
  3 17  1  0  0  0  0
  4  9  1  0  0  0  0
  4 17  2  0  0  0  0
  5 19  1  0  0  0  0
  6 21  1  0  0  0  0
  7 10  2  0  0  0  0
  7 20  1  0  0  0  0
  8 24  1  0  0  0  0
  9 24  2  0  0  0  0
 10 25  1  0  0  0  0
 11 12  2  0  0  0  0
 11 26  1  0  0  0  0
 12 27  1  0  0  0  0
 13 22  1  0  0  0  0
 13 25  2  0  0  0  0
 14 23  1  0  0  0  0
 14 30  2  0  0  0  0
 15 27  2  0  0  0  0
 15 28  1  0  0  0  0
 16 23  2  0  0  0  0
 16 84  1  0  0  0  0
 17 29  1  0  0  0  0
 18 29  1  0  0  0  0
 18 31  2  0  0  0  0
 18 32  1  0  0  0  0
 19 21  2  0  0  0  0
 19 37  1  0  0  0  0
 20 22  2  0  0  0  0
 20 38  1  0  0  0  0
 21 49  1  0  0  0  0
 22 39  1  0  0  0  0
 23 69  1  0  0  0  0
 24 80  1  0  0  0  0
 25 81  1  0  0  0  0
 26 28  2  0  0  0  0
 26 80  1  0  0  0  0
 27 82  1  0  0  0  0
 28 83  1  0  0  0  0
 29 63  2  0  0  0  0
 30 50  1  0  0  0  0
 30 84  1  0  0  0  0
 31 64  1  0  0  0  0
 31 67  1  0  0  0  0
 32 68  1  0  0  0  0
 32 74  2  0  0  0  0
 33 51  1  0  0  0  0
 33 70  1  0  0  0  0
 33 75  2  0  0  0  0
 34 60  1  0  0  0  0
 34 65  1  0  0  0  0
 34 76  2  0  0  0  0
 35 61  1  0  0  0  0
 35 71  1  0  0  0  0
 35 77  2  0  0  0  0
 36 66  1  0  0  0  0
 36 69  1  0  0  0  0
 36 78  2  0  0  0  0
 37 40  1  0  0  0  0
 38 51  1  0  0  0  0
 39 65  1  0  0  0  0
 40 42  1  0  0  0  0
 41 44  1  0  0  0  0
 41 46  1  0  0  0  0
 42 49  1  0  0  0  0
 43 45  1  0  0  0  0
 43 50  1  0  0  0  0
 44 52  1  0  0  0  0
 45 53  1  0  0  0  0
 46 66  1  0  0  0  0
 47 52  1  0  0  0  0
 47 66  1  0  0  0  0
 48 53  1  0  0  0  0
 48 72  1  0  0  0  0
 49 70  1  0  0  0  0
 50 72  1  0  0  0  0
 51 65  1  0  0  0  0
 52 64  1  0  0  0  0
 53 59  1  0  0  0  0
 53 79  1  0  0  0  0
 54 61  1  0  0  0  0
 55 62  1  0  0  0  0
 56 62  1  0  0  0  0
 57 62  1  0  0  0  0
 58 73  1  0  0  0  0
 59 81  1  0  0  0  0
 60 62  1  0  0  0  0
 60 71  1  0  0  0  0
 61 73  1  0  0  0  0
 63 64  1  0  0  0  0
M  CHG  2  72   1  73   1
M  ISO  4  36 100  59 101  69 100  81 101
M  END
> <Batch ID>
0149

> <Smiles>
CNC(C)C(=O)NC(C(=O)N1Cc2cc([101O:1][101CH2:1]C3(O)CCC(c4cc([100NH:0][100C:0](=O)N5CCCC(n6nc(-c7ccc(Oc8ccc(F)cc8F)cc7)c(C(N)=O)c6N)C5)cs4)NC3)ccc2CC1C(=O)NC1CCCc2ccccc21)C(C)(C)C

> <Shape>
0.289

> <Color>
0.093

> <Negative vol penalty>
0.000

$$$$

  -OEChem-04052303193D

 84 93  0     1  0  0  0  0  0999 V2000
  -42.5006  -21.1852   17.2217 C   0  0  0  0  0  0  0  0  0  0  0  0
  -41.8790  -20.9275   18.4393 C   0  0  0  0  0  0  0  0  0  0  0  0
  -23.0124   -9.8905   19.9774 C   0  0  0  0  0  0  0  0  0  0  0  0
  -23.7281   -9.9478   22.2843 C   0  0  0  0  0  0  0  0  0  0  0  0
  -42.3400  -22.4264   16.6072 C   0  0  0  0  0  0  0  0  0  0  0  0
  -41.0971  -21.9113   19.0437 C   0  0  0  0  0  0  0  0  0  0  0  0
  -36.7180  -20.0927   20.8214 C   0  0  0  0  0  0  0  0  0  0  0  0
  -22.2479   -8.7544   20.2428 C   0  0  0  0  0  0  0  0  0  0  0  0
  -22.9636   -8.8117   22.5497 C   0  0  0  0  0  0  0  0  0  0  0  0
  -36.7610  -19.3958   22.0281 C   0  0  0  0  0  0  0  0  0  0  0  0
  -21.4858   -5.7168   23.7530 C   0  0  0  0  0  0  0  0  0  0  0  0
  -22.0716   -4.7041   24.5125 C   0  0  0  0  0  0  0  0  0  0  0  0
  -35.9871  -21.3653   23.1863 C   0  0  0  0  0  0  0  0  0  0  0  0
  -23.8054   -4.4586   22.8479 C   0  0  0  0  0  0  0  0  0  0  0  0
  -30.5107  -20.0165   23.6697 C   0  0  0  0  0  0  0  0  0  0  0  0
  -23.7525  -10.4872   20.9982 C   0  0  0  0  0  0  0  0  0  0  0  0
  -24.1315  -13.0035   20.8189 C   0  0  0  0  0  0  0  0  0  0  0  0
  -41.5479  -23.4225   17.1996 C   0  0  0  0  0  0  0  0  0  0  0  0
  -36.3190  -21.4366   20.7895 C   0  0  0  0  0  0  0  0  0  0  0  0
  -40.9268  -23.1675   18.4371 C   0  0  0  0  0  0  0  0  0  0  0  0
  -35.9374  -22.0763   21.9775 C   0  0  0  0  0  0  0  0  0  0  0  0
  -22.2235   -8.2150   21.5290 C   0  0  0  0  0  0  0  0  0  0  0  0
  -36.3983  -20.0329   23.2112 C   0  0  0  0  0  0  0  0  0  0  0  0
  -22.0598   -6.1004   22.5409 C   0  0  0  0  0  0  0  0  0  0  0  0
  -23.2314   -4.0750   24.0600 C   0  0  0  0  0  0  0  0  0  0  0  0
  -23.2195   -5.4713   22.0884 C   0  0  0  0  0  0  0  0  0  0  0  0
  -24.5428  -11.6605   20.7245 C   0  0  0  0  0  0  0  0  0  0  0  0
  -30.8891  -18.6920   23.6021 C   0  0  0  0  0  0  0  0  0  0  0  0
  -25.2408  -13.7285   20.4576 C   0  0  0  0  0  0  0  0  0  0  0  0
  -32.5984  -19.4657   24.7377 C   0  0  0  0  0  0  0  0  0  0  0  0
  -22.8605  -13.5471   21.1992 C   0  0  0  0  0  0  0  0  0  0  0  0
  -37.7081  -24.1696   19.9499 C   0  0  0  0  0  0  0  0  0  0  0  0
  -34.7458  -25.3840   20.4717 C   0  0  0  0  0  0  0  0  0  0  0  0
  -31.7292  -25.0904   22.0404 C   0  0  0  0  0  0  0  0  0  0  0  0
  -30.7354  -14.6349   20.7506 C   0  0  0  0  0  0  0  0  0  0  0  0
  -41.4422  -24.7652   16.5207 C   0  0  0  0  0  0  0  0  0  0  0  0
  -36.2524  -22.1666   19.4760 C   0  0  0  0  0  0  0  0  0  0  0  0
  -35.4823  -23.5119   21.9943 C   0  0  0  0  0  0  0  0  0  0  0  0
  -40.2929  -25.6232   17.0434 C   0  0  0  0  0  0  0  0  0  0  0  0
  -29.5950  -12.2916   18.3650 C   0  0  0  0  0  0  0  0  0  0  0  0
  -40.2730  -25.6172   18.5687 C   0  0  0  0  0  0  0  0  0  0  0  0
  -28.1576  -11.9965   18.7846 C   0  0  0  0  0  0  0  0  0  0  0  0
  -29.7066  -16.3876   23.8040 C   0  0  0  0  0  0  0  0  0  0  0  0
  -30.4885  -12.4715   19.5848 C   0  0  0  0  0  0  0  0  0  0  0  0
  -29.3323  -15.3238   22.7806 C   0  0  0  0  0  0  0  0  0  0  0  0
  -30.8611  -16.8796   21.7883 C   0  0  0  0  0  0  0  0  0  0  0  0
  -28.5791  -13.3006   20.9327 C   0  0  0  0  0  0  0  0  0  0  0  0
  -40.0507  -24.2005   19.1119 C   0  0  1  0  0  0  0  0  0  0  0  0
  -30.1108  -17.5841   22.9275 C   0  0  2  0  0  0  0  0  0  0  0  0
  -36.3230  -23.6826   19.6307 C   0  0  1  0  0  0  0  0  0  0  0  0
  -27.6348  -13.0880   19.7314 C   0  0  2  0  0  0  0  0  0  0  0  0
  -29.5230  -26.2573   22.3018 C   0  0  0  0  0  0  0  0  0  0  0  0
  -36.5312  -16.9943   24.7154 C   0  0  0  0  0  0  0  0  0  0  0  0
  -36.0444  -27.4149   22.3423 C   0  0  0  0  0  0  0  0  0  0  0  0
  -33.7734  -27.9023   23.2766 C   0  0  0  0  0  0  0  0  0  0  0  0
  -34.2523  -28.3499   20.8698 C   0  0  0  0  0  0  0  0  0  0  0  0
  -30.2489  -22.7962   20.8983 C   0  0  0  0  0  0  0  0  0  0  0  0
  -34.6365  -18.3569   25.6556 C   0  0  0  0  0  0  0  0  0  0  0  0
  -34.0216  -25.9608   21.6642 C   0  0  1  0  0  0  0  0  0  0  0  0
  -30.3079  -25.2142   21.5217 C   0  0  2  0  0  0  0  0  0  0  0  0
  -35.6170  -18.1910   24.4969 C   0  0  1  0  0  0  0  0  0  1  0  0
  -34.5333  -27.3805   22.0385 C   0  0  0  0  0  0  0  0  0  0  0  0
  -25.8140  -11.5367   20.3337 N   0  0  0  0  0  0  0  0  0  0  0  0
  -32.0862  -18.3744   24.2135 N   0  0  0  0  0  0  0  0  0  0  0  0
  -26.2111  -12.8113   20.1793 N   0  0  0  0  0  0  0  0  0  0  0  0
  -35.4402  -24.1849   20.6855 N   0  0  0  0  0  0  0  0  0  0  0  0
  -29.9676  -13.4934   20.4947 N   0  0  0  0  0  0  0  0  0  0  0  0
  -30.2341  -15.5684   21.6569 N   0  0  0  0  0  0  0  0  0  0  0  0
  -25.4710  -15.0546   20.3539 N   0  0  0  0  0  0  0  0  0  0  0  0
  -21.8298  -12.6608   21.5403 N   0  0  0  0  0  0  0  0  0  0  0  0
  -33.7765  -19.5099   25.4151 N   0  0  0  0  0  0  0  0  0  0  0  0
  -38.6558  -23.8306   19.0031 N   0  0  0  0  0  0  0  0  0  0  0  0
  -32.5993  -25.9032   21.3450 N   0  0  0  0  0  0  0  0  0  0  0  0
  -29.5987  -23.9086   21.6377 N   0  3  0  0  0  0  0  0  0  0  0  0
  -22.6403  -14.7819   21.2197 O   0  0  0  0  0  0  0  0  0  0  0  0
  -37.9024  -24.8070   20.9783 O   0  0  0  0  0  0  0  0  0  0  0  0
  -34.6914  -25.9720   19.3887 O   0  0  0  0  0  0  0  0  0  0  0  0
  -32.0362  -24.3497   22.9719 O   0  0  0  0  0  0  0  0  0  0  0  0
  -31.8442  -14.7954   20.2226 O   0  0  0  0  0  0  0  0  0  0  0  0
  -21.4775   -7.1065   21.7884 O   0  0  0  0  0  0  0  0  0  0  0  0
  -36.4402  -19.3514   24.3971 O   0  0  0  0  0  0  0  0  0  1  0  0
  -23.7947   -3.1036   24.7902 F   0  0  0  0  0  0  0  0  0  0  0  0
  -23.7762   -5.8363   20.9253 F   0  0  0  0  0  0  0  0  0  0  0  0
  -31.6932  -20.9093   24.5333 S   0  0  0  0  0  0  0  0  0  0  0  0
  1  2  1  0  0  0  0
  1  5  2  0  0  0  0
  2  6  2  0  0  0  0
  3  8  2  0  0  0  0
  3 16  1  0  0  0  0
  4  9  1  0  0  0  0
  4 16  2  0  0  0  0
  5 18  1  0  0  0  0
  6 20  1  0  0  0  0
  7 10  2  0  0  0  0
  7 19  1  0  0  0  0
  8 22  1  0  0  0  0
  9 22  2  0  0  0  0
 10 23  1  0  0  0  0
 11 12  2  0  0  0  0
 11 24  1  0  0  0  0
 12 25  1  0  0  0  0
 13 21  1  0  0  0  0
 13 23  2  0  0  0  0
 14 25  2  0  0  0  0
 14 26  1  0  0  0  0
 15 28  2  0  0  0  0
 15 84  1  0  0  0  0
 16 27  1  0  0  0  0
 17 27  1  0  0  0  0
 17 29  2  0  0  0  0
 17 31  1  0  0  0  0
 18 20  2  0  0  0  0
 18 36  1  0  0  0  0
 19 21  2  0  0  0  0
 19 37  1  0  0  0  0
 20 48  1  0  0  0  0
 21 38  1  0  0  0  0
 22 80  1  0  0  0  0
 23 81  1  0  0  0  0
 24 26  2  0  0  0  0
 24 80  1  0  0  0  0
 25 82  1  0  0  0  0
 26 83  1  0  0  0  0
 27 63  2  0  0  0  0
 28 49  1  0  0  0  0
 28 64  1  0  0  0  0
 29 65  1  0  0  0  0
 29 69  1  0  0  0  0
 30 64  2  0  0  0  0
 30 71  1  0  0  0  0
 30 84  1  0  0  0  0
 31 70  1  0  0  0  0
 31 75  2  0  0  0  0
 32 50  1  0  0  0  0
 32 72  1  0  0  0  0
 32 76  2  0  0  0  0
 33 59  1  0  0  0  0
 33 66  1  0  0  0  0
 33 77  2  0  0  0  0
 34 60  1  0  0  0  0
 34 73  1  0  0  0  0
 34 78  2  0  0  0  0
 35 67  1  0  0  0  0
 35 68  1  0  0  0  0
 35 79  2  0  0  0  0
 36 39  1  0  0  0  0
 37 50  1  0  0  0  0
 38 66  1  0  0  0  0
 39 41  1  0  0  0  0
 40 42  1  0  0  0  0
 40 44  1  0  0  0  0
 41 48  1  0  0  0  0
 42 51  1  0  0  0  0
 43 45  1  0  0  0  0
 43 49  1  0  0  0  0
 44 67  1  0  0  0  0
 45 68  1  0  0  0  0
 46 49  1  0  0  0  0
 46 68  1  0  0  0  0
 47 51  1  0  0  0  0
 47 67  1  0  0  0  0
 48 72  1  0  0  0  0
 50 66  1  0  0  0  0
 51 65  1  0  0  0  0
 52 60  1  0  0  0  0
 53 61  1  0  0  0  0
 54 62  1  0  0  0  0
 55 62  1  0  0  0  0
 56 62  1  0  0  0  0
 57 74  1  0  0  0  0
 58 61  1  0  0  0  0
 58 71  1  0  0  0  0
 59 62  1  0  0  0  0
 59 73  1  0  0  0  0
 60 74  1  0  0  0  0
 61 81  1  0  0  0  0
 63 65  1  0  0  0  0
M  CHG  1  74   1
M  ISO  4  35 100  61 101  68 100  81 101
M  END
> <Batch ID>
0149

> <Smiles>
CNC(C)C(=O)NC(C(=O)N1Cc2cc([101O:1][101CH:1](C)CNc3nc(C4CC[100N:0]([100C:0](=O)N5CCCC(n6nc(-c7ccc(Oc8ccc(F)cc8F)cc7)c(C(N)=O)c6N)C5)C4)cs3)ccc2CC1C(=O)NC1CCCc2ccccc21)C(C)(C)C

> <Shape>
0.185

> <Color>
0.198

> <Negative vol penalty>
0.000

$$$$

  -OEChem-04052303193D

 92101  0     1  0  0  0  0  0999 V2000
  -19.1124  -27.0540   26.5827 C   0  0  0  0  0  0  0  0  0  0  0  0
  -20.4931  -26.9926   26.4231 C   0  0  0  0  0  0  0  0  0  0  0  0
  -25.6660  -13.4601   22.0613 C   0  0  0  0  0  0  0  0  0  0  0  0
  -26.1514  -13.9111   19.7379 C   0  0  0  0  0  0  0  0  0  0  0  0
  -18.2850  -27.1271   25.4629 C   0  0  0  0  0  0  0  0  0  0  0  0
  -21.0470  -27.0032   25.1434 C   0  0  0  0  0  0  0  0  0  0  0  0
  -26.8326  -29.2767   21.5833 C   0  0  0  0  0  0  0  0  0  0  0  0
  -30.0994  -21.7644   16.3367 C   0  0  0  0  0  0  0  0  0  0  0  0
  -24.5399  -12.7286   21.6841 C   0  0  0  0  0  0  0  0  0  0  0  0
  -25.0252  -13.1796   19.3607 C   0  0  0  0  0  0  0  0  0  0  0  0
  -27.8228  -28.8039   20.7232 C   0  0  0  0  0  0  0  0  0  0  0  0
  -23.8626   -9.6434   20.4777 C   0  0  0  0  0  0  0  0  0  0  0  0
  -23.6494   -8.4139   21.1010 C   0  0  0  0  0  0  0  0  0  0  0  0
  -29.6553  -21.0137   17.4196 C   0  0  0  0  0  0  0  0  0  0  0  0
  -26.2994  -29.0128   18.8644 C   0  0  0  0  0  0  0  0  0  0  0  0
  -21.5269   -9.2071   21.9396 C   0  0  0  0  0  0  0  0  0  0  0  0
  -26.4718  -14.0514   21.0882 C   0  0  0  0  0  0  0  0  0  0  0  0
  -28.9440  -14.3217   21.6563 C   0  0  0  0  0  0  0  0  0  0  0  0
  -18.8295  -27.1484   24.1692 C   0  0  0  0  0  0  0  0  0  0  0  0
  -25.5628  -29.6114   21.0913 C   0  0  0  0  0  0  0  0  0  0  0  0
  -20.2260  -27.0754   24.0053 C   0  0  0  0  0  0  0  0  0  0  0  0
  -25.2957  -29.4921   19.7200 C   0  0  0  0  0  0  0  0  0  0  0  0
  -30.4475  -23.0982   16.5186 C   0  0  0  0  0  0  0  0  0  0  0  0
  -24.2195  -12.5884   20.3337 C   0  0  0  0  0  0  0  0  0  0  0  0
  -27.5554  -28.6691   19.3640 C   0  0  0  0  0  0  0  0  0  0  0  0
  -22.9080  -10.6547   20.5853 C   0  0  0  0  0  0  0  0  0  0  0  0
  -22.4816   -8.1957   21.8319 C   0  0  0  0  0  0  0  0  0  0  0  0
  -21.7402  -10.4366   21.3162 C   0  0  0  0  0  0  0  0  0  0  0  0
  -27.6349  -14.8075   21.4773 C   0  0  0  0  0  0  0  0  0  0  0  0
  -30.3345  -23.6300   17.7930 C   0  0  0  0  0  0  0  0  0  0  0  0
  -29.5780  -21.6387   18.6537 C   0  0  0  0  0  0  0  0  0  0  0  0
  -29.6733  -15.4265   22.0223 C   0  0  0  0  0  0  0  0  0  0  0  0
  -30.1039  -26.1189   17.3662 C   0  0  0  0  0  0  0  0  0  0  0  0
  -29.4551  -12.9906   21.5051 C   0  0  0  0  0  0  0  0  0  0  0  0
  -22.6097  -28.5503   21.5979 C   0  0  0  0  0  0  0  0  0  0  0  0
  -21.8029  -31.0503   19.6948 C   0  0  0  0  0  0  0  0  0  0  0  0
  -22.7296  -33.2560   17.2611 C   0  0  0  0  0  0  0  0  0  0  0  0
  -28.9659  -21.2832   21.0714 C   0  0  0  0  0  0  0  0  0  0  0  0
  -17.8927  -27.1806   22.9877 C   0  0  0  0  0  0  0  0  0  0  0  0
  -24.5141  -30.1454   22.0280 C   0  0  0  0  0  0  0  0  0  0  0  0
  -23.9551  -29.8571   19.1385 C   0  0  0  0  0  0  0  0  0  0  0  0
  -18.5767  -27.5651   21.6783 C   0  0  0  0  0  0  0  0  0  0  0  0
  -29.2163  -19.6532   24.2270 C   0  0  0  0  0  0  0  0  0  0  0  0
  -19.8775  -26.7870   21.5070 C   0  0  0  0  0  0  0  0  0  0  0  0
  -28.9643  -18.1805   23.8954 C   0  0  0  0  0  0  0  0  0  0  0  0
  -32.0303  -26.8315   18.5754 C   0  0  0  0  0  0  0  0  0  0  0  0
  -28.3529  -20.5821   23.3753 C   0  0  0  0  0  0  0  0  0  0  0  0
  -31.7080  -25.3963   18.9449 C   0  0  0  0  0  0  0  0  0  0  0  0
  -28.1920  -18.8868   21.5950 C   0  0  0  0  0  0  0  0  0  0  0  0
  -20.8658  -27.1096   22.6343 C   0  0  1  0  0  0  0  0  0  0  0  0
  -23.0943  -29.9691   21.4983 C   0  0  1  0  0  0  0  0  0  0  0  0
  -29.0861  -17.9148   22.3820 C   0  0  2  0  0  0  0  0  0  0  0  0
  -30.7179  -27.3674   17.9976 C   0  0  1  0  0  0  0  0  0  0  0  0
  -30.9635  -28.4588   16.9586 C   0  0  0  0  0  0  0  0  0  0  0  0
  -21.8426  -35.1569   15.8838 C   0  0  0  0  0  0  0  0  0  0  0  0
  -33.8109  -25.0640   15.2566 C   0  0  0  0  0  0  0  0  0  0  0  0
  -33.6616  -22.9513   16.5807 C   0  0  0  0  0  0  0  0  0  0  0  0
  -34.6637  -22.9397   14.2838 C   0  0  0  0  0  0  0  0  0  0  0  0
  -20.2584  -29.0705   17.9613 C   0  0  0  0  0  0  0  0  0  0  0  0
  -20.2094  -30.8000   16.1517 C   0  0  0  0  0  0  0  0  0  0  0  0
  -19.0978  -31.2535   18.3384 C   0  0  0  0  0  0  0  0  0  0  0  0
  -24.7361  -35.1369   18.3543 C   0  0  0  0  0  0  0  0  0  0  0  0
  -29.7830  -27.8794   19.0997 C   0  0  0  0  0  0  0  0  0  1  0  0
  -32.1362  -23.3362   14.5635 C   0  0  0  0  0  0  0  0  0  0  0  0
  -30.9219  -23.9003   15.3548 C   0  0  1  0  0  0  0  0  0  0  0  0
  -21.6228  -31.2483   18.2091 C   0  0  1  0  0  0  0  0  0  0  0  0
  -22.5768  -34.7626   17.1559 C   0  0  2  0  0  0  0  0  0  0  0  0
  -33.5589  -23.5425   15.1654 C   0  0  0  0  0  0  0  0  0  0  0  0
  -20.3219  -30.5843   17.6761 C   0  0  0  0  0  0  0  0  0  0  0  0
  -27.5353  -16.1189   21.7106 N   0  0  0  0  0  0  0  0  0  0  0  0
  -29.9072  -22.9321   18.8691 N   0  0  0  0  0  0  0  0  0  0  0  0
  -28.7910  -16.4664   22.0399 N   0  0  0  0  0  0  0  0  0  0  0  0
  -30.6893  -24.9986   17.9917 N   0  0  0  0  0  0  0  0  0  0  0  0
  -22.9606  -30.3686   20.0959 N   0  0  0  0  0  0  0  0  0  0  0  0
  -28.5231  -20.2749   21.9535 N   0  0  0  0  0  0  0  0  0  0  0  0
  -30.9768  -15.6002   22.3276 N   0  0  0  0  0  0  0  0  0  0  0  0
  -28.5691  -11.9740   21.1234 N   0  0  0  0  0  0  0  0  0  0  0  0
  -29.1220  -20.8656   19.7501 N   0  0  0  0  0  0  0  0  0  0  0  0
  -21.4970  -28.3910   22.4017 N   0  0  0  0  0  0  0  0  0  0  0  0
  -21.6978  -32.6867   17.9769 N   0  0  0  0  0  0  0  0  0  0  0  0
  -29.8152  -24.0965   14.3416 N   0  3  0  0  0  0  0  0  0  0  0  0
  -23.9144  -35.4197   17.1494 N   0  3  0  0  0  0  0  0  0  0  0  0
  -29.2218  -26.1657   16.5200 O   0  0  0  0  0  0  0  0  0  0  0  0
  -30.6585  -12.7080   21.7187 O   0  0  0  0  0  0  0  0  0  0  0  0
  -23.2005  -27.6659   20.9892 O   0  0  0  0  0  0  0  0  0  0  0  0
  -20.9515  -31.4906   20.4712 O   0  0  0  0  0  0  0  0  0  0  0  0
  -23.6683  -32.6447   16.7553 O   0  0  0  0  0  0  0  0  0  0  0  0
  -29.2162  -22.4254   21.4647 O   0  0  0  0  0  0  0  0  0  0  0  0
  -23.1208  -11.8745   19.9652 O   0  0  0  0  0  0  0  0  0  0  0  0
  -28.5198  -28.2071   18.5224 O   0  0  0  0  0  0  0  0  0  1  0  0
  -22.2763   -7.0145   22.4292 F   0  0  0  0  0  0  0  0  0  0  0  0
  -20.8189  -11.4040   21.4222 F   0  0  0  0  0  0  0  0  0  0  0  0
  1  2  1  0  0  0  0
  1  5  2  0  0  0  0
  2  6  2  0  0  0  0
  3  9  2  0  0  0  0
  3 17  1  0  0  0  0
  4 10  1  0  0  0  0
  4 17  2  0  0  0  0
  5 19  1  0  0  0  0
  6 21  1  0  0  0  0
  7 11  2  0  0  0  0
  7 20  1  0  0  0  0
  8 14  2  0  0  0  0
  8 23  1  0  0  0  0
  9 24  1  0  0  0  0
 10 24  2  0  0  0  0
 11 25  1  0  0  0  0
 12 13  2  0  0  0  0
 12 26  1  0  0  0  0
 13 27  1  0  0  0  0
 14 31  1  0  0  0  0
 15 22  1  0  0  0  0
 15 25  2  0  0  0  0
 16 27  2  0  0  0  0
 16 28  1  0  0  0  0
 17 29  1  0  0  0  0
 18 29  1  0  0  0  0
 18 32  2  0  0  0  0
 18 34  1  0  0  0  0
 19 21  2  0  0  0  0
 19 39  1  0  0  0  0
 20 22  2  0  0  0  0
 20 40  1  0  0  0  0
 21 50  1  0  0  0  0
 22 41  1  0  0  0  0
 23 30  2  0  0  0  0
 23 65  1  0  0  0  0
 24 89  1  0  0  0  0
 25 90  1  0  0  0  0
 26 28  2  0  0  0  0
 26 89  1  0  0  0  0
 27 91  1  0  0  0  0
 28 92  1  0  0  0  0
 29 70  2  0  0  0  0
 30 71  1  0  0  0  0
 30 73  1  0  0  0  0
 31 71  2  0  0  0  0
 31 78  1  0  0  0  0
 32 72  1  0  0  0  0
 32 76  1  0  0  0  0
 33 53  1  0  0  0  0
 33 73  1  0  0  0  0
 33 83  2  0  0  0  0
 34 77  1  0  0  0  0
 34 84  2  0  0  0  0
 35 51  1  0  0  0  0
 35 79  1  0  0  0  0
 35 85  2  0  0  0  0
 36 66  1  0  0  0  0
 36 74  1  0  0  0  0
 36 86  2  0  0  0  0
 37 67  1  0  0  0  0
 37 80  1  0  0  0  0
 37 87  2  0  0  0  0
 38 75  1  0  0  0  0
 38 78  1  0  0  0  0
 38 88  2  0  0  0  0
 39 42  1  0  0  0  0
 40 51  1  0  0  0  0
 41 74  1  0  0  0  0
 42 44  1  0  0  0  0
 43 45  1  0  0  0  0
 43 47  1  0  0  0  0
 44 50  1  0  0  0  0
 45 52  1  0  0  0  0
 46 48  1  0  0  0  0
 46 53  1  0  0  0  0
 47 75  1  0  0  0  0
 48 73  1  0  0  0  0
 49 52  1  0  0  0  0
 49 75  1  0  0  0  0
 50 79  1  0  0  0  0
 51 74  1  0  0  0  0
 52 72  1  0  0  0  0
 53 54  1  0  0  0  0
 53 63  1  0  0  0  0
 55 67  1  0  0  0  0
 56 68  1  0  0  0  0
 57 68  1  0  0  0  0
 58 68  1  0  0  0  0
 59 69  1  0  0  0  0
 60 69  1  0  0  0  0
 61 69  1  0  0  0  0
 62 82  1  0  0  0  0
 63 90  1  0  0  0  0
 64 65  1  0  0  0  0
 64 68  1  0  0  0  0
 65 81  1  0  0  0  0
 66 69  1  0  0  0  0
 66 80  1  0  0  0  0
 67 82  1  0  0  0  0
 70 72  1  0  0  0  0
M  CHG  2  81   1  82   1
M  ISO  4  38 100  63 101  78 100  90 101
M  END
> <Batch ID>
0149

> <Smiles>
CNC(C)C(=O)NC(C(=O)N1Cc2cc([101O:1][101CH2:1]C3(C)CCN(c4nc([100NH:0][100C:0](=O)N5CCCC(n6nc(-c7ccc(Oc8ccc(F)cc8F)cc7)c(C(N)=O)c6N)C5)ccc4C(N)CC(C)(C)C)C3=O)ccc2CC1C(=O)NC1CCCc2ccccc21)C(C)(C)C

> <Shape>
0.275

> <Color>
0.070

> <Negative vol penalty>
0.000

$$$$

  -OEChem-04052303193D

 83 91  0     1  0  0  0  0  0999 V2000
  -28.2474  -19.8788   25.0370 C   0  0  0  0  0  0  0  0  0  0  0  0
  -28.4932  -20.8912   24.1150 C   0  0  0  0  0  0  0  0  0  0  0  0
  -26.2491  -12.2473   21.3044 C   0  0  0  0  0  0  0  0  0  0  0  0
  -25.3137  -13.9514   19.8697 C   0  0  0  0  0  0  0  0  0  0  0  0
  -26.9356  -19.5101   25.3324 C   0  0  0  0  0  0  0  0  0  0  0  0
  -27.4274  -21.5346   23.4870 C   0  0  0  0  0  0  0  0  0  0  0  0
  -28.0008  -26.5644   23.3538 C   0  0  0  0  0  0  0  0  0  0  0  0
  -24.9649  -11.7867   21.5947 C   0  0  0  0  0  0  0  0  0  0  0  0
  -24.0294  -13.4908   20.1599 C   0  0  0  0  0  0  0  0  0  0  0  0
  -28.8692  -27.0810   22.3932 C   0  0  0  0  0  0  0  0  0  0  0  0
  -20.4873  -12.9931   20.8045 C   0  0  0  0  0  0  0  0  0  0  0  0
  -19.5087  -13.9429   21.0976 C   0  0  0  0  0  0  0  0  0  0  0  0
  -26.9837  -27.6298   20.9923 C   0  0  0  0  0  0  0  0  0  0  0  0
  -30.6050  -22.3113   20.4419 C   0  0  0  0  0  0  0  0  0  0  0  0
  -20.8172  -14.7106   22.9779 C   0  0  0  0  0  0  0  0  0  0  0  0
  -26.4235  -13.3297   20.4419 C   0  0  0  0  0  0  0  0  0  0  0  0
  -28.5881  -13.3836   19.0932 C   0  0  0  0  0  0  0  0  0  0  0  0
  -25.8529  -20.1559   24.7149 C   0  0  0  0  0  0  0  0  0  0  0  0
  -26.6156  -26.5667   23.1357 C   0  0  0  0  0  0  0  0  0  0  0  0
  -26.1000  -21.1733   23.7734 C   0  0  0  0  0  0  0  0  0  0  0  0
  -26.0996  -27.1150   21.9528 C   0  0  0  0  0  0  0  0  0  0  0  0
  -29.8522  -21.1564   20.1214 C   0  0  0  0  0  0  0  0  0  0  0  0
  -23.8550  -12.4084   21.0224 C   0  0  0  0  0  0  0  0  0  0  0  0
  -28.3609  -27.6112   21.2110 C   0  0  0  0  0  0  0  0  0  0  0  0
  -21.6308  -12.9020   21.5981 C   0  0  0  0  0  0  0  0  0  0  0  0
  -19.6737  -14.8017   22.1843 C   0  0  0  0  0  0  0  0  0  0  0  0
  -21.7958  -13.7608   22.6848 C   0  0  0  0  0  0  0  0  0  0  0  0
  -27.7498  -13.8063   20.1422 C   0  0  0  0  0  0  0  0  0  0  0  0
  -28.9898  -21.5292   19.1168 C   0  0  0  0  0  0  0  0  0  0  0  0
  -29.7283  -14.1350   19.2408 C   0  0  0  0  0  0  0  0  0  0  0  0
  -30.1492  -23.3074   19.6101 C   0  0  0  0  0  0  0  0  0  0  0  0
  -28.3568  -12.3997   18.0762 C   0  0  0  0  0  0  0  0  0  0  0  0
  -24.3809  -24.3204   22.8825 C   0  0  0  0  0  0  0  0  0  0  0  0
  -22.3784  -26.8710   22.8020 C   0  0  0  0  0  0  0  0  0  0  0  0
  -30.0029  -25.6101   18.5998 C   0  0  0  0  0  0  0  0  0  0  0  0
  -21.9399  -30.1905   22.1423 C   0  0  0  0  0  0  0  0  0  0  0  0
  -30.8139  -19.4626   21.7192 C   0  0  0  0  0  0  0  0  0  0  0  0
  -24.4537  -19.6905   25.0311 C   0  0  0  0  0  0  0  0  0  0  0  0
  -25.6905  -26.0300   24.1933 C   0  0  0  0  0  0  0  0  0  0  0  0
  -24.6192  -27.1596   21.6792 C   0  0  0  0  0  0  0  0  0  0  0  0
  -23.3716  -20.6776   24.6011 C   0  0  0  0  0  0  0  0  0  0  0  0
  -32.3385  -16.3627   22.5813 C   0  0  0  0  0  0  0  0  0  0  0  0
  -23.6313  -21.1690   23.1805 C   0  0  0  0  0  0  0  0  0  0  0  0
  -31.4144  -15.3171   21.9530 C   0  0  0  0  0  0  0  0  0  0  0  0
  -31.5562  -17.5553   23.1285 C   0  0  0  0  0  0  0  0  0  0  0  0
  -29.7161  -17.1433   21.5431 C   0  0  0  0  0  0  0  0  0  0  0  0
  -24.9698  -21.9118   23.0898 C   0  0  1  0  0  0  0  0  0  0  0  0
  -24.3296  -25.6156   23.6424 C   0  0  1  0  0  0  0  0  0  0  0  0
  -30.4637  -15.9532   20.9199 C   0  0  2  0  0  0  0  0  0  0  0  0
  -27.9578  -20.8128   18.3515 C   0  0  0  0  0  0  0  0  0  0  0  0
  -20.1826  -31.9819   22.1340 C   0  0  0  0  0  0  0  0  0  0  0  0
  -31.5398  -28.6168   20.4815 C   0  0  0  0  0  0  0  0  0  0  0  0
  -21.2305  -25.7295   20.2156 C   0  0  0  0  0  0  0  0  0  0  0  0
  -20.1992  -27.9666   19.7679 C   0  0  0  0  0  0  0  0  0  0  0  0
  -19.5271  -26.6672   21.7884 C   0  0  0  0  0  0  0  0  0  0  0  0
  -23.3982  -31.7923   24.1589 C   0  0  0  0  0  0  0  0  0  0  0  0
  -30.6965  -26.9558   18.7885 C   0  0  0  0  0  0  0  0  0  0  0  0
  -21.8104  -27.7503   21.7143 C   0  0  1  0  0  0  0  0  0  0  0  0
  -21.2746  -31.2969   22.9409 C   0  0  2  0  0  0  0  0  0  0  0  0
  -30.5077  -27.5354   20.1904 C   0  0  2  0  0  0  0  0  0  1  0  0
  -20.7199  -27.0260   20.8756 C   0  0  0  0  0  0  0  0  0  0  0  0
  -28.3098  -14.7526   20.9003 N   0  0  0  0  0  0  0  0  0  0  0  0
  -29.5122  -14.9308   20.3272 N   0  0  0  0  0  0  0  0  0  0  0  0
  -23.7559  -26.6170   22.7411 N   0  0  0  0  0  0  0  0  0  0  0  0
  -30.6804  -18.1088   22.0933 N   0  0  0  0  0  0  0  0  0  0  0  0
  -30.8847  -14.1859   18.5462 N   0  0  0  0  0  0  0  0  0  0  0  0
  -27.1308  -11.7206   18.0701 N   0  0  0  0  0  0  0  0  0  0  0  0
  -29.9498  -19.8677   20.7024 N   0  0  0  0  0  0  0  0  0  0  0  0
  -30.5265  -24.6650   19.4781 N   0  0  0  0  0  0  0  0  0  0  0  0
  -24.8422  -23.2503   23.6252 N   0  0  0  0  0  0  0  0  0  0  0  0
  -21.3475  -28.9670   22.3731 N   0  0  0  0  0  0  0  0  0  0  0  0
  -22.2785  -32.3235   23.3396 N   0  3  0  0  0  0  0  0  0  0  0  0
  -29.2183  -12.1192   17.2087 O   0  0  0  0  0  0  0  0  0  0  0  0
  -24.0268  -24.2935   21.7097 O   0  0  0  0  0  0  0  0  0  0  0  0
  -21.6287  -26.4316   23.6776 O   0  0  0  0  0  0  0  0  0  0  0  0
  -29.1128  -25.4439   17.7726 O   0  0  0  0  0  0  0  0  0  0  0  0
  -22.8878  -30.3922   21.3864 O   0  0  0  0  0  0  0  0  0  0  0  0
  -31.6529  -20.2007   22.2419 O   0  0  0  0  0  0  0  0  0  0  0  0
  -29.1645  -22.8388   18.7992 O   0  0  0  0  0  0  0  0  0  0  0  0
  -22.6018  -11.9591   21.3053 O   0  0  0  0  0  0  0  0  0  0  0  0
  -29.2064  -28.1155   20.2715 O   0  0  0  0  0  0  0  0  0  1  0  0
  -18.7346  -15.7147   22.4648 F   0  0  0  0  0  0  0  0  0  0  0  0
  -22.8928  -13.6789   23.4501 F   0  0  0  0  0  0  0  0  0  0  0  0
  1  2  1  0  0  0  0
  1  5  2  0  0  0  0
  2  6  2  0  0  0  0
  3  8  2  0  0  0  0
  3 16  1  0  0  0  0
  4  9  1  0  0  0  0
  4 16  2  0  0  0  0
  5 18  1  0  0  0  0
  6 20  1  0  0  0  0
  7 10  2  0  0  0  0
  7 19  1  0  0  0  0
  8 23  1  0  0  0  0
  9 23  2  0  0  0  0
 10 24  1  0  0  0  0
 11 12  2  0  0  0  0
 11 25  1  0  0  0  0
 12 26  1  0  0  0  0
 13 21  1  0  0  0  0
 13 24  2  0  0  0  0
 14 22  1  0  0  0  0
 14 31  2  0  0  0  0
 15 26  2  0  0  0  0
 15 27  1  0  0  0  0
 16 28  1  0  0  0  0
 17 28  1  0  0  0  0
 17 30  2  0  0  0  0
 17 32  1  0  0  0  0
 18 20  2  0  0  0  0
 18 38  1  0  0  0  0
 19 21  2  0  0  0  0
 19 39  1  0  0  0  0
 20 47  1  0  0  0  0
 21 40  1  0  0  0  0
 22 29  2  0  0  0  0
 22 68  1  0  0  0  0
 23 80  1  0  0  0  0
 24 81  1  0  0  0  0
 25 27  2  0  0  0  0
 25 80  1  0  0  0  0
 26 82  1  0  0  0  0
 27 83  1  0  0  0  0
 28 62  2  0  0  0  0
 29 50  1  0  0  0  0
 29 79  1  0  0  0  0
 30 63  1  0  0  0  0
 30 66  1  0  0  0  0
 31 69  1  0  0  0  0
 31 79  1  0  0  0  0
 32 67  1  0  0  0  0
 32 73  2  0  0  0  0
 33 48  1  0  0  0  0
 33 70  1  0  0  0  0
 33 74  2  0  0  0  0
 34 58  1  0  0  0  0
 34 64  1  0  0  0  0
 34 75  2  0  0  0  0
 35 57  1  0  0  0  0
 35 69  1  0  0  0  0
 35 76  2  0  0  0  0
 36 59  1  0  0  0  0
 36 71  1  0  0  0  0
 36 77  2  0  0  0  0
 37 65  1  0  0  0  0
 37 68  1  0  0  0  0
 37 78  2  0  0  0  0
 38 41  1  0  0  0  0
 39 48  1  0  0  0  0
 40 64  1  0  0  0  0
 41 43  1  0  0  0  0
 42 44  1  0  0  0  0
 42 45  1  0  0  0  0
 43 47  1  0  0  0  0
 44 49  1  0  0  0  0
 45 65  1  0  0  0  0
 46 49  1  0  0  0  0
 46 65  1  0  0  0  0
 47 70  1  0  0  0  0
 48 64  1  0  0  0  0
 49 63  1  0  0  0  0
 51 59  1  0  0  0  0
 52 60  1  0  0  0  0
 53 61  1  0  0  0  0
 54 61  1  0  0  0  0
 55 61  1  0  0  0  0
 56 72  1  0  0  0  0
 57 60  1  0  0  0  0
 58 61  1  0  0  0  0
 58 71  1  0  0  0  0
 59 72  1  0  0  0  0
 60 81  1  0  0  0  0
 62 63  1  0  0  0  0
M  CHG  1  72   1
M  ISO  4  37 100  60 101  68 100  81 101
M  END
> <Batch ID>
0149

> <Smiles>
CNC(C)C(=O)NC(C(=O)N1Cc2cc([101O:1][101CH:1](C)CC(=O)Nc3cc([100NH:0][100C:0](=O)N4CCCC(n5nc(-c6ccc(Oc7ccc(F)cc7F)cc6)c(C(N)=O)c5N)C4)c(C)o3)ccc2CC1C(=O)NC1CCCc2ccccc21)C(C)(C)C

> <Shape>
0.258

> <Color>
0.055

> <Negative vol penalty>
0.000

$$$$

  -OEChem-04052303193D

 85 94  0     1  0  0  0  0  0999 V2000
  -30.5289  -30.2273   26.1096 C   0  0  0  0  0  0  0  0  0  0  0  0
  -29.9808  -29.3786   25.1532 C   0  0  0  0  0  0  0  0  0  0  0  0
  -23.9309   -9.4734   21.8941 C   0  0  0  0  0  0  0  0  0  0  0  0
  -24.2999  -10.9480   23.7720 C   0  0  0  0  0  0  0  0  0  0  0  0
  -29.6941  -31.0115   26.9046 C   0  0  0  0  0  0  0  0  0  0  0  0
  -28.5972  -29.3128   24.9921 C   0  0  0  0  0  0  0  0  0  0  0  0
  -27.2026  -29.3884   20.1244 C   0  0  0  0  0  0  0  0  0  0  0  0
  -23.4529   -8.4901   22.7601 C   0  0  0  0  0  0  0  0  0  0  0  0
  -23.8219   -9.9646   24.6381 C   0  0  0  0  0  0  0  0  0  0  0  0
  -27.3356  -28.2013   19.4055 C   0  0  0  0  0  0  0  0  0  0  0  0
  -20.5893   -7.8173   24.4275 C   0  0  0  0  0  0  0  0  0  0  0  0
  -19.4230   -7.1442   24.0636 C   0  0  0  0  0  0  0  0  0  0  0  0
  -24.9790  -27.7717   19.6907 C   0  0  0  0  0  0  0  0  0  0  0  0
  -20.6279   -5.0501   24.0757 C   0  0  0  0  0  0  0  0  0  0  0  0
  -30.1717  -19.0006   18.9213 C   0  0  0  0  0  0  0  0  0  0  0  0
  -24.3545  -10.7024   22.4000 C   0  0  0  0  0  0  0  0  0  0  0  0
  -24.1006  -12.7234   20.8641 C   0  0  0  0  0  0  0  0  0  0  0  0
  -28.3001  -30.9624   26.7465 C   0  0  0  0  0  0  0  0  0  0  0  0
  -25.9569  -29.7713   20.6421 C   0  0  0  0  0  0  0  0  0  0  0  0
  -27.7429  -30.0961   25.7866 C   0  0  0  0  0  0  0  0  0  0  0  0
  -24.8324  -28.9654   20.4136 C   0  0  0  0  0  0  0  0  0  0  0  0
  -23.3983   -8.7356   24.1321 C   0  0  0  0  0  0  0  0  0  0  0  0
  -26.2243  -27.3913   19.1910 C   0  0  0  0  0  0  0  0  0  0  0  0
  -21.7749   -7.1068   24.6154 C   0  0  0  0  0  0  0  0  0  0  0  0
  -19.4423   -5.7606   23.8877 C   0  0  0  0  0  0  0  0  0  0  0  0
  -21.7942   -5.7232   24.4395 C   0  0  0  0  0  0  0  0  0  0  0  0
  -24.8489  -11.7184   21.5059 C   0  0  0  0  0  0  0  0  0  0  0  0
  -25.0261  -13.4258   20.1318 C   0  0  0  0  0  0  0  0  0  0  0  0
  -29.1397  -18.2630   19.4626 C   0  0  0  0  0  0  0  0  0  0  0  0
  -28.6920  -20.6061   19.1283 C   0  0  0  0  0  0  0  0  0  0  0  0
  -22.6945  -12.9974   20.9247 C   0  0  0  0  0  0  0  0  0  0  0  0
  -24.8012  -30.2831   23.5586 C   0  0  0  0  0  0  0  0  0  0  0  0
  -22.1791  -31.2696   21.9233 C   0  0  0  0  0  0  0  0  0  0  0  0
  -20.3384  -31.1446   19.0523 C   0  0  0  0  0  0  0  0  0  0  0  0
  -29.9909  -15.8989   19.6434 C   0  0  0  0  0  0  0  0  0  0  0  0
  -27.4361  -31.7937   27.6614 C   0  0  0  0  0  0  0  0  0  0  0  0
  -25.8248  -31.0681   21.3926 C   0  0  0  0  0  0  0  0  0  0  0  0
  -23.4688  -29.3416   20.9309 C   0  0  0  0  0  0  0  0  0  0  0  0
  -25.9981  -31.9434   27.1714 C   0  0  0  0  0  0  0  0  0  0  0  0
  -29.8657  -12.3865   19.0736 C   0  0  0  0  0  0  0  0  0  0  0  0
  -25.4401  -30.5931   26.7332 C   0  0  0  0  0  0  0  0  0  0  0  0
  -28.4878  -11.9822   19.6028 C   0  0  0  0  0  0  0  0  0  0  0  0
  -26.4804  -23.5385   19.5542 C   0  0  0  0  0  0  0  0  0  0  0  0
  -30.5012  -13.4834   19.9261 C   0  0  0  0  0  0  0  0  0  0  0  0
  -26.7233  -22.0348   19.5540 C   0  0  0  0  0  0  0  0  0  0  0  0
  -28.2853  -14.2667   20.6645 C   0  0  0  0  0  0  0  0  0  0  0  0
  -26.2481  -30.0152   25.5649 C   0  0  1  0  0  0  0  0  0  0  0  0
  -24.6100  -31.1039   22.3146 C   0  0  1  0  0  0  0  0  0  0  0  0
  -27.5775  -13.2102   19.8005 C   0  0  2  0  0  0  0  0  0  0  0  0
  -27.3825  -24.0509   18.4212 C   0  0  1  0  0  0  0  0  0  0  0  0
  -28.6829  -23.1576   18.6136 C   0  0  0  0  0  0  0  0  0  0  0  0
  -26.6732  -23.8102   17.0655 C   0  0  0  0  0  0  0  0  0  0  0  0
  -29.6068  -23.7246   19.7137 C   0  0  0  0  0  0  0  0  0  0  0  0
  -29.4590  -23.0400   17.2911 C   0  0  0  0  0  0  0  0  0  0  0  0
  -18.2250  -32.0279   18.0272 C   0  0  0  0  0  0  0  0  0  0  0  0
  -20.5490  -29.3130   23.6039 C   0  0  0  0  0  0  0  0  0  0  0  0
  -18.6947  -29.5339   21.9363 C   0  0  0  0  0  0  0  0  0  0  0  0
  -19.4531  -31.5291   23.2271 C   0  0  0  0  0  0  0  0  0  0  0  0
  -21.8213  -32.4961   16.8767 C   0  0  0  0  0  0  0  0  0  0  0  0
  -27.6101  -25.5635   18.5630 C   0  0  0  0  0  0  0  0  0  1  0  0
  -20.9318  -30.6003   21.3988 C   0  0  1  0  0  0  0  0  0  0  0  0
  -19.7205  -32.2409   18.2034 C   0  0  2  0  0  0  0  0  0  0  0  0
  -19.9331  -30.2357   22.5333 C   0  0  0  0  0  0  0  0  0  0  0  0
  -29.9167  -20.3443   18.7285 N   0  0  0  0  0  0  0  0  0  0  0  0
  -26.1496  -11.7739   21.2073 N   0  0  0  0  0  0  0  0  0  0  0  0
  -26.2258  -12.8222   20.3698 N   0  0  0  0  0  0  0  0  0  0  0  0
  -28.1049  -21.8611   19.0768 N   0  0  3  0  0  0  0  0  0  0  0  0
  -23.3921  -30.6160   21.6642 N   0  0  0  0  0  0  0  0  0  0  0  0
  -29.5834  -14.6160   20.0664 N   0  0  0  0  0  0  0  0  0  0  0  0
  -24.9227  -14.4947   19.3137 N   0  0  0  0  0  0  0  0  0  0  0  0
  -21.8879  -12.1778   21.7258 N   0  0  0  0  0  0  0  0  0  0  0  0
  -29.0227  -16.8908   19.7959 N   0  0  0  0  0  0  0  0  0  0  0  0
  -25.8836  -30.6686   24.3262 N   0  0  0  0  0  0  0  0  0  0  0  0
  -20.3839  -31.4951   20.3851 N   0  0  0  0  0  0  0  0  0  0  0  0
  -20.3531  -32.2701   16.8544 N   0  3  0  0  0  0  0  0  0  0  0  0
  -22.1665  -13.9311   20.2743 O   0  0  0  0  0  0  0  0  0  0  0  0
  -24.0233  -29.3687   23.8047 O   0  0  0  0  0  0  0  0  0  0  0  0
  -22.0815  -32.3369   22.5341 O   0  0  0  0  0  0  0  0  0  0  0  0
  -20.7371  -30.0819   18.5808 O   0  0  0  0  0  0  0  0  0  0  0  0
  -31.1062  -16.0973   19.1549 O   0  0  0  0  0  0  0  0  0  0  0  0
  -22.9317   -7.7764   24.9775 O   0  0  0  0  0  0  0  0  0  0  0  0
  -26.3514  -26.2318   18.4901 O   0  0  0  0  0  0  0  0  0  1  0  0
  -18.3220   -5.1142   23.5398 F   0  0  0  0  0  0  0  0  0  0  0  0
  -22.9299   -5.0351   24.6198 F   0  0  0  0  0  0  0  0  0  0  0  0
  -27.7910  -19.2834   19.7475 S   0  0  0  0  0  0  0  0  0  0  0  0
  1  2  1  0  0  0  0
  1  5  2  0  0  0  0
  2  6  2  0  0  0  0
  3  8  2  0  0  0  0
  3 16  1  0  0  0  0
  4  9  1  0  0  0  0
  4 16  2  0  0  0  0
  5 18  1  0  0  0  0
  6 20  1  0  0  0  0
  7 10  2  0  0  0  0
  7 19  1  0  0  0  0
  8 22  1  0  0  0  0
  9 22  2  0  0  0  0
 10 23  1  0  0  0  0
 11 12  2  0  0  0  0
 11 24  1  0  0  0  0
 12 25  1  0  0  0  0
 13 21  1  0  0  0  0
 13 23  2  0  0  0  0
 14 25  2  0  0  0  0
 14 26  1  0  0  0  0
 15 29  2  0  0  0  0
 15 64  1  0  0  0  0
 16 27  1  0  0  0  0
 17 27  1  0  0  0  0
 17 28  2  0  0  0  0
 17 31  1  0  0  0  0
 18 20  2  0  0  0  0
 18 36  1  0  0  0  0
 19 21  2  0  0  0  0
 19 37  1  0  0  0  0
 20 47  1  0  0  0  0
 21 38  1  0  0  0  0
 22 81  1  0  0  0  0
 23 82  1  0  0  0  0
 24 26  2  0  0  0  0
 24 81  1  0  0  0  0
 25 83  1  0  0  0  0
 26 84  1  0  0  0  0
 27 65  2  0  0  0  0
 28 66  1  0  0  0  0
 28 70  1  0  0  0  0
 29 72  1  0  0  0  0
 29 85  1  0  0  0  0
 30 64  2  0  0  0  0
 30 67  1  0  0  0  0
 30 85  1  0  0  0  0
 31 71  1  0  0  0  0
 31 76  2  0  0  0  0
 32 48  1  0  0  0  0
 32 73  1  0  0  0  0
 32 77  2  0  0  0  0
 33 61  1  0  0  0  0
 33 68  1  0  0  0  0
 33 78  2  0  0  0  0
 34 62  1  0  0  0  0
 34 74  1  0  0  0  0
 34 79  2  0  0  0  0
 35 69  1  0  0  0  0
 35 72  1  0  0  0  0
 35 80  2  0  0  0  0
 36 39  1  0  0  0  0
 37 48  1  0  0  0  0
 38 68  1  0  0  0  0
 39 41  1  0  0  0  0
 40 42  1  0  0  0  0
 40 44  1  0  0  0  0
 41 47  1  0  0  0  0
 42 49  1  0  0  0  0
 43 45  1  0  0  0  0
 43 50  1  0  0  0  0
 44 69  1  0  0  0  0
 45 67  1  0  0  0  0
 46 49  1  0  0  0  0
 46 69  1  0  0  0  0
 47 73  1  0  0  0  0
 48 68  1  0  0  0  0
 49 66  1  0  0  0  0
 50 51  1  0  0  0  0
 50 52  1  0  0  0  0
 50 60  1  0  0  0  0
 51 53  1  0  0  0  0
 51 54  1  0  0  0  0
 51 67  1  0  0  0  0
 55 62  1  0  0  0  0
 56 63  1  0  0  0  0
 57 63  1  0  0  0  0
 58 63  1  0  0  0  0
 59 75  1  0  0  0  0
 60 82  1  0  0  0  0
 61 63  1  0  0  0  0
 61 74  1  0  0  0  0
 62 75  1  0  0  0  0
 65 66  1  0  0  0  0
M  CHG  1  75   1
M  ISO  4  35 100  60 101  72 100  82 101
M  END
> <Batch ID>
0149

> <Smiles>
CNC(C)C(=O)NC(C(=O)N1Cc2cc([101O:1][101CH2:1]C3(C)CCN(c4ncc([100NH:0][100C:0](=O)N5CCCC(n6nc(-c7ccc(Oc8ccc(F)cc8F)cc7)c(C(N)=O)c6N)C5)s4)C3(C)C)ccc2CC1C(=O)NC1CCCc2ccccc21)C(C)(C)C

> <Shape>
0.321

> <Color>
0.123

> <Negative vol penalty>
0.000

$$$$

  -OEChem-04052303193D

 85 94  0     1  0  0  0  0  0999 V2000
  -18.4582  -28.2882   23.4229 C   0  0  0  0  0  0  0  0  0  0  0  0
  -19.7460  -27.8828   23.7584 C   0  0  0  0  0  0  0  0  0  0  0  0
  -22.7119  -10.2710   19.9879 C   0  0  0  0  0  0  0  0  0  0  0  0
  -24.2006   -9.6312   21.7798 C   0  0  0  0  0  0  0  0  0  0  0  0
  -17.9378  -27.9832   22.1659 C   0  0  0  0  0  0  0  0  0  0  0  0
  -20.5138  -27.1711   22.8373 C   0  0  0  0  0  0  0  0  0  0  0  0
  -26.5800  -27.5027   22.0646 C   0  0  0  0  0  0  0  0  0  0  0  0
  -21.9723   -9.1051   20.1859 C   0  0  0  0  0  0  0  0  0  0  0  0
  -23.4611   -8.4652   21.9779 C   0  0  0  0  0  0  0  0  0  0  0  0
  -27.6283  -26.7024   22.5168 C   0  0  0  0  0  0  0  0  0  0  0  0
  -20.5611   -7.5804   23.4704 C   0  0  0  0  0  0  0  0  0  0  0  0
  -20.2470   -7.2292   24.7833 C   0  0  0  0  0  0  0  0  0  0  0  0
  -27.6098  -25.5054   20.4225 C   0  0  0  0  0  0  0  0  0  0  0  0
  -27.8676  -20.3877   17.2072 C   0  0  0  0  0  0  0  0  0  0  0  0
  -21.4385   -5.1451   24.5107 C   0  0  0  0  0  0  0  0  0  0  0  0
  -23.8261  -10.5340   20.7848 C   0  0  0  0  0  0  0  0  0  0  0  0
  -24.3885  -12.9882   21.1950 C   0  0  0  0  0  0  0  0  0  0  0  0
  -18.7032  -27.2758   21.2255 C   0  0  0  0  0  0  0  0  0  0  0  0
  -26.0306  -27.3028   20.7900 C   0  0  0  0  0  0  0  0  0  0  0  0
  -20.0027  -26.8551   21.5670 C   0  0  0  0  0  0  0  0  0  0  0  0
  -26.5563  -26.3061   19.9555 C   0  0  0  0  0  0  0  0  0  0  0  0
  -27.7946  -19.0185   16.9437 C   0  0  0  0  0  0  0  0  0  0  0  0
  -22.3469   -8.2022   21.1810 C   0  0  0  0  0  0  0  0  0  0  0  0
  -28.1415  -25.7017   21.6968 C   0  0  0  0  0  0  0  0  0  0  0  0
  -21.3137   -6.7140   22.6776 C   0  0  0  0  0  0  0  0  0  0  0  0
  -20.6857   -6.0115   25.3034 C   0  0  0  0  0  0  0  0  0  0  0  0
  -21.7525   -5.4963   23.1978 C   0  0  0  0  0  0  0  0  0  0  0  0
  -24.5908  -11.7380   20.5803 C   0  0  0  0  0  0  0  0  0  0  0  0
  -27.6839  -18.4091   18.1519 C   0  0  0  0  0  0  0  0  0  0  0  0
  -25.3695  -13.7925   20.6683 C   0  0  0  0  0  0  0  0  0  0  0  0
  -27.7898  -20.4925   18.5911 C   0  0  0  0  0  0  0  0  0  0  0  0
  -23.4022  -13.3869   22.1562 C   0  0  0  0  0  0  0  0  0  0  0  0
  -23.1621  -26.4927   19.6857 C   0  0  0  0  0  0  0  0  0  0  0  0
  -24.5320  -27.0904   16.8067 C   0  0  0  0  0  0  0  0  0  0  0  0
  -27.7331  -21.6483   20.8241 C   0  0  0  0  0  0  0  0  0  0  0  0
  -27.3842  -27.3165   14.9464 C   0  0  0  0  0  0  0  0  0  0  0  0
  -28.0492  -15.5337   16.0264 C   0  0  0  0  0  0  0  0  0  0  0  0
  -18.0805  -26.9282   19.8965 C   0  0  0  0  0  0  0  0  0  0  0  0
  -24.9178  -28.1920   20.3068 C   0  0  0  0  0  0  0  0  0  0  0  0
  -26.0152  -26.0643   18.5709 C   0  0  0  0  0  0  0  0  0  0  0  0
  -27.8016  -18.0280   15.8646 C   0  0  0  0  0  0  0  0  0  0  0  0
  -27.5747  -16.9565   18.1368 C   0  0  0  0  0  0  0  0  0  0  0  0
  -19.0964  -26.4963   18.8422 C   0  0  0  0  0  0  0  0  0  0  0  0
  -29.4218  -12.6583   17.8591 C   0  0  0  0  0  0  0  0  0  0  0  0
  -20.0789  -25.4878   19.4292 C   0  0  0  0  0  0  0  0  0  0  0  0
  -28.2471  -12.2415   18.7468 C   0  0  0  0  0  0  0  0  0  0  0  0
  -28.9545  -13.2980   16.5535 C   0  0  0  0  0  0  0  0  0  0  0  0
  -26.8349  -13.9879   17.6031 C   0  0  0  0  0  0  0  0  0  0  0  0
  -20.8756  -26.1029   20.5861 C   0  0  1  0  0  0  0  0  0  0  0  0
  -24.0927  -27.5626   19.1886 C   0  0  1  0  0  0  0  0  0  0  0  0
  -27.2648  -13.4097   18.9579 C   0  0  1  0  0  0  0  0  0  0  0  0
  -28.1828  -27.7854   12.6141 C   0  0  0  0  0  0  0  0  0  0  0  0
  -23.6351  -24.3051   15.9422 C   0  0  0  0  0  0  0  0  0  0  0  0
  -25.2383  -24.4598   14.0254 C   0  0  0  0  0  0  0  0  0  0  0  0
  -23.3495  -26.0796   14.2032 C   0  0  0  0  0  0  0  0  0  0  0  0
  -30.0592  -23.6048   20.3495 C   0  0  0  0  0  0  0  0  0  0  0  0
  -29.9041  -22.7069   22.6807 C   0  0  0  0  0  0  0  0  0  0  0  0
  -28.9480  -29.6684   15.8304 C   0  0  0  0  0  0  0  0  0  0  0  0
  -27.7883  -23.0667   21.3769 C   0  0  0  0  0  0  0  0  0  0  0  0
  -25.3015  -26.2718   15.7984 C   0  0  1  0  0  0  0  0  0  0  0  0
  -27.8747  -28.3793   13.9798 C   0  0  2  0  0  0  0  0  0  0  0  0
  -24.3902  -25.2821   15.0190 C   0  0  0  0  0  0  0  0  0  0  0  0
  -29.2174  -23.5820   21.6263 C   0  0  0  0  0  0  0  0  0  1  0  0
  -25.6193  -11.7428   19.7282 N   0  0  0  0  0  0  0  0  0  0  0  0
  -26.0721  -13.0058   19.8036 N   0  0  0  0  0  0  0  0  0  0  0  0
  -24.9231  -26.9557   18.1464 N   0  0  0  0  0  0  0  0  0  0  0  0
  -27.7104  -16.7409   16.6480 N   0  0  0  0  0  0  0  0  0  0  0  0
  -28.0067  -14.3797   16.8148 N   0  0  0  0  0  0  0  0  0  0  0  0
  -25.6909  -15.0888   20.8651 N   0  0  0  0  0  0  0  0  0  0  0  0
  -22.4694  -12.4352   22.5903 N   0  0  0  0  0  0  0  0  0  0  0  0
  -27.8101  -21.5882   19.4103 N   0  0  0  0  0  0  0  0  0  0  0  0
  -21.9231  -26.9624   20.0776 N   0  0  0  0  0  0  0  0  0  0  0  0
  -26.0082  -27.2267   14.9514 N   0  0  0  0  0  0  0  0  0  0  0  0
  -29.1130  -29.0230   14.5025 N   0  3  0  0  0  0  0  0  0  0  0  0
  -23.3394  -14.5569   22.6041 O   0  0  0  0  0  0  0  0  0  0  0  0
  -23.5398  -25.3272   19.7104 O   0  0  0  0  0  0  0  0  0  0  0  0
  -23.6222  -27.8277   16.4191 O   0  0  0  0  0  0  0  0  0  0  0  0
  -27.6366  -20.6898   21.5857 O   0  0  0  0  0  0  0  0  0  0  0  0
  -28.1455  -26.6317   15.6260 O   0  0  0  0  0  0  0  0  0  0  0  0
  -28.4224  -15.4971   14.8474 O   0  0  0  0  0  0  0  0  0  0  0  0
  -27.6728  -19.2579   19.1847 O   0  0  0  0  0  0  0  0  0  0  0  0
  -21.6253   -7.0645   21.3747 O   0  0  0  0  0  0  0  0  0  0  0  0
  -29.1691  -24.9150   22.1381 O   0  0  0  0  0  0  0  0  0  1  0  0
  -20.3854   -5.6750   26.5647 F   0  0  0  0  0  0  0  0  0  0  0  0
  -22.4769   -4.6604   22.4414 F   0  0  0  0  0  0  0  0  0  0  0  0
  1  2  1  0  0  0  0
  1  5  2  0  0  0  0
  2  6  2  0  0  0  0
  3  8  2  0  0  0  0
  3 16  1  0  0  0  0
  4  9  1  0  0  0  0
  4 16  2  0  0  0  0
  5 18  1  0  0  0  0
  6 20  1  0  0  0  0
  7 10  2  0  0  0  0
  7 19  1  0  0  0  0
  8 23  1  0  0  0  0
  9 23  2  0  0  0  0
 10 24  1  0  0  0  0
 11 12  2  0  0  0  0
 11 25  1  0  0  0  0
 12 26  1  0  0  0  0
 13 21  1  0  0  0  0
 13 24  2  0  0  0  0
 14 22  1  0  0  0  0
 14 31  2  0  0  0  0
 15 26  2  0  0  0  0
 15 27  1  0  0  0  0
 16 28  1  0  0  0  0
 17 28  1  0  0  0  0
 17 30  2  0  0  0  0
 17 32  1  0  0  0  0
 18 20  2  0  0  0  0
 18 38  1  0  0  0  0
 19 21  2  0  0  0  0
 19 39  1  0  0  0  0
 20 49  1  0  0  0  0
 21 40  1  0  0  0  0
 22 29  2  0  0  0  0
 22 41  1  0  0  0  0
 23 82  1  0  0  0  0
 24 83  1  0  0  0  0
 25 27  2  0  0  0  0
 25 82  1  0  0  0  0
 26 84  1  0  0  0  0
 27 85  1  0  0  0  0
 28 64  2  0  0  0  0
 29 42  1  0  0  0  0
 29 81  1  0  0  0  0
 30 65  1  0  0  0  0
 30 69  1  0  0  0  0
 31 71  1  0  0  0  0
 31 81  1  0  0  0  0
 32 70  1  0  0  0  0
 32 75  2  0  0  0  0
 33 50  1  0  0  0  0
 33 72  1  0  0  0  0
 33 76  2  0  0  0  0
 34 60  1  0  0  0  0
 34 66  1  0  0  0  0
 34 77  2  0  0  0  0
 35 59  1  0  0  0  0
 35 71  1  0  0  0  0
 35 78  2  0  0  0  0
 36 61  1  0  0  0  0
 36 73  1  0  0  0  0
 36 79  2  0  0  0  0
 37 67  1  0  0  0  0
 37 68  1  0  0  0  0
 37 80  2  0  0  0  0
 38 43  1  0  0  0  0
 39 50  1  0  0  0  0
 40 66  1  0  0  0  0
 41 67  1  0  0  0  0
 42 67  1  0  0  0  0
 43 45  1  0  0  0  0
 44 46  1  0  0  0  0
 44 47  1  0  0  0  0
 45 49  1  0  0  0  0
 46 51  1  0  0  0  0
 47 68  1  0  0  0  0
 48 51  1  0  0  0  0
 48 68  1  0  0  0  0
 49 72  1  0  0  0  0
 50 66  1  0  0  0  0
 51 65  1  0  0  0  0
 52 61  1  0  0  0  0
 53 62  1  0  0  0  0
 54 62  1  0  0  0  0
 55 62  1  0  0  0  0
 56 63  1  0  0  0  0
 57 63  1  0  0  0  0
 58 74  1  0  0  0  0
 59 63  1  0  0  0  0
 60 62  1  0  0  0  0
 60 73  1  0  0  0  0
 61 74  1  0  0  0  0
 63 83  1  0  0  0  0
 64 65  1  0  0  0  0
M  CHG  1  74   1
M  ISO  4  37 100  63 101  67 100  83 101
M  END
> <Batch ID>
0149

> <Smiles>
CNC(C)C(=O)NC(C(=O)N1Cc2cc([101O:1][101C:1](C)(C)CC(=O)Nc3cc4c(o3)C[100N:0]([100C:0](=O)N3CCCC(n5nc(-c6ccc(Oc7ccc(F)cc7F)cc6)c(C(N)=O)c5N)C3)C4)ccc2CC1C(=O)NC1CCCc2ccccc21)C(C)(C)C

> <Shape>
0.257

> <Color>
0.127

> <Negative vol penalty>
0.000

$$$$

  -OEChem-04052303193D

 83 92  0     1  0  0  0  0  0999 V2000
  -26.0336  -37.0126   22.3391 C   0  0  0  0  0  0  0  0  0  0  0  0
  -26.7547  -35.8868   21.9545 C   0  0  0  0  0  0  0  0  0  0  0  0
  -24.4862   -9.0410   20.6021 C   0  0  0  0  0  0  0  0  0  0  0  0
  -22.7526  -10.6973   20.8996 C   0  0  0  0  0  0  0  0  0  0  0  0
  -24.9127  -36.8753   23.1568 C   0  0  0  0  0  0  0  0  0  0  0  0
  -26.3560  -34.6230   22.3885 C   0  0  0  0  0  0  0  0  0  0  0  0
  -26.7734  -29.3622   19.2812 C   0  0  0  0  0  0  0  0  0  0  0  0
  -27.4740  -20.3827   18.0975 C   0  0  0  0  0  0  0  0  0  0  0  0
  -23.5911   -8.0375   20.9726 C   0  0  0  0  0  0  0  0  0  0  0  0
  -21.8574   -9.6937   21.2701 C   0  0  0  0  0  0  0  0  0  0  0  0
  -27.7023  -28.3232   19.3163 C   0  0  0  0  0  0  0  0  0  0  0  0
  -22.2790   -6.8019   23.8320 C   0  0  0  0  0  0  0  0  0  0  0  0
  -22.7266   -5.8353   24.7325 C   0  0  0  0  0  0  0  0  0  0  0  0
  -27.2262  -19.1857   18.7602 C   0  0  0  0  0  0  0  0  0  0  0  0
  -26.2732  -27.1047   20.8303 C   0  0  0  0  0  0  0  0  0  0  0  0
  -22.3087   -4.1126   23.0909 C   0  0  0  0  0  0  0  0  0  0  0  0
  -29.0299  -20.9462   19.8057 C   0  0  0  0  0  0  0  0  0  0  0  0
  -24.0670  -10.3709   20.5657 C   0  0  0  0  0  0  0  0  0  0  0  0
  -25.2335  -11.8950   18.8852 C   0  0  0  0  0  0  0  0  0  0  0  0
  -28.3916  -21.2851   18.6235 C   0  0  0  0  0  0  0  0  0  0  0  0
  -24.4944  -35.6083   23.5932 C   0  0  0  0  0  0  0  0  0  0  0  0
  -25.5903  -29.2849   20.0301 C   0  0  0  0  0  0  0  0  0  0  0  0
  -25.2293  -34.4688   23.2140 C   0  0  0  0  0  0  0  0  0  0  0  0
  -25.3296  -28.1430   20.8009 C   0  0  0  0  0  0  0  0  0  0  0  0
  -22.2767   -8.3638   21.3065 C   0  0  0  0  0  0  0  0  0  0  0  0
  -27.4537  -27.1955   20.0932 C   0  0  0  0  0  0  0  0  0  0  0  0
  -21.8462   -6.4239   22.5609 C   0  0  0  0  0  0  0  0  0  0  0  0
  -22.7415   -4.4906   24.3619 C   0  0  0  0  0  0  0  0  0  0  0  0
  -21.8611   -5.0792   22.1904 C   0  0  0  0  0  0  0  0  0  0  0  0
  -24.9914  -11.4080   20.1836 C   0  0  0  0  0  0  0  0  0  0  0  0
  -27.9168  -18.9407   19.9362 C   0  0  0  0  0  0  0  0  0  0  0  0
  -26.1896  -12.8663   19.0554 C   0  0  0  0  0  0  0  0  0  0  0  0
  -24.6466  -11.5043   17.6367 C   0  0  0  0  0  0  0  0  0  0  0  0
  -24.3209  -30.9809   22.3999 C   0  0  0  0  0  0  0  0  0  0  0  0
  -21.7795  -29.0235   21.9187 C   0  0  0  0  0  0  0  0  0  0  0  0
  -20.6010  -26.0367   20.7622 C   0  0  0  0  0  0  0  0  0  0  0  0
  -28.2307  -17.2654   21.7912 C   0  0  0  0  0  0  0  0  0  0  0  0
  -23.3042  -35.5143   24.5147 C   0  0  0  0  0  0  0  0  0  0  0  0
  -24.5861  -30.4025   19.9604 C   0  0  0  0  0  0  0  0  0  0  0  0
  -24.0654  -28.0022   21.6073 C   0  0  0  0  0  0  0  0  0  0  0  0
  -22.7288  -34.1047   24.6246 C   0  0  0  0  0  0  0  0  0  0  0  0
  -29.0070  -14.0434   23.0925 C   0  0  0  0  0  0  0  0  0  0  0  0
  -23.8457  -33.0869   24.8332 C   0  0  0  0  0  0  0  0  0  0  0  0
  -28.0514  -13.1106   22.3449 C   0  0  0  0  0  0  0  0  0  0  0  0
  -28.3535  -15.3865   23.4129 C   0  0  0  0  0  0  0  0  0  0  0  0
  -26.8021  -15.1445   21.5145 C   0  0  0  0  0  0  0  0  0  0  0  0
  -30.3603  -24.1788   17.6425 C   0  0  0  0  0  0  0  0  0  0  0  0
  -24.8138  -33.0786   23.6440 C   0  0  1  0  0  0  0  0  0  0  0  0
  -28.6823  -22.5904   17.9277 C   0  0  2  0  0  0  0  0  0  0  0  0
  -23.6526  -30.4430   21.1664 C   0  0  1  0  0  0  0  0  0  0  0  0
  -27.4368  -13.8031   21.1127 C   0  0  2  0  0  0  0  0  0  0  0  0
  -29.5195  -24.5071   18.8660 C   0  0  1  0  0  0  0  0  0  0  0  0
  -18.4844  -24.7071   20.5399 C   0  0  0  0  0  0  0  0  0  0  0  0
  -21.8882  -28.3573   24.8943 C   0  0  0  0  0  0  0  0  0  0  0  0
  -20.4309  -26.3746   24.4325 C   0  0  0  0  0  0  0  0  0  0  0  0
  -19.5823  -28.6763   23.9802 C   0  0  0  0  0  0  0  0  0  0  0  0
  -20.8128  -25.9750   17.8109 C   0  0  0  0  0  0  0  0  0  0  0  0
  -29.1521  -25.9747   18.9615 C   0  0  0  0  0  0  0  0  0  1  0  0
  -21.3436  -27.6841   22.4619 C   0  0  1  0  0  0  0  0  0  0  0  0
  -19.4227  -25.6971   19.8674 C   0  0  2  0  0  0  0  0  0  0  0  0
  -20.8361  -27.7763   23.9287 C   0  0  0  0  0  0  0  0  0  0  0  0
  -28.8154  -19.7931   20.4780 N   0  0  0  0  0  0  0  0  0  0  0  0
  -25.7339  -12.0195   21.1104 N   0  0  0  0  0  0  0  0  0  0  0  0
  -26.4520  -12.9005   20.3933 N   0  0  0  0  0  0  0  0  0  0  0  0
  -23.1173  -29.1244   21.5113 N   0  0  0  0  0  0  0  0  0  0  0  0
  -27.7974  -15.9856   22.1977 N   0  0  0  0  0  0  0  0  0  0  0  0
  -26.8230  -13.6858   18.1896 N   0  0  0  0  0  0  0  0  0  0  0  0
  -23.6794  -10.4900   17.6415 N   0  0  0  0  0  0  0  0  0  0  0  0
  -27.6568  -17.7181   20.6037 N   0  0  0  0  0  0  0  0  0  0  0  0
  -24.2399  -32.3542   22.5303 N   0  0  0  0  0  0  0  0  0  0  0  0
  -20.3587  -27.1626   21.5205 N   0  0  0  0  0  0  0  0  0  0  0  0
  -30.1028  -22.7229   17.4700 N   0  3  0  0  0  0  0  0  0  0  0  0
  -19.8991  -25.0988   18.5884 N   0  3  0  0  0  0  0  0  0  0  0  0
  -24.9821  -12.0274   16.5471 O   0  0  0  0  0  0  0  0  0  0  0  0
  -24.8683  -30.2072   23.1767 O   0  0  0  0  0  0  0  0  0  0  0  0
  -20.9611  -29.9440   21.8513 O   0  0  0  0  0  0  0  0  0  0  0  0
  -21.6317  -25.3678   20.7889 O   0  0  0  0  0  0  0  0  0  0  0  0
  -29.0708  -17.9005   22.4337 O   0  0  0  0  0  0  0  0  0  0  0  0
  -28.3226  -23.7123   18.7544 O   0  0  0  0  0  0  0  0  0  0  0  0
  -21.4028   -7.3848   21.6678 O   0  0  0  0  0  0  0  0  0  0  0  0
  -28.3590  -26.1802   20.1299 O   0  0  0  0  0  0  0  0  0  1  0  0
  -23.1728   -3.5627   25.2262 F   0  0  0  0  0  0  0  0  0  0  0  0
  -21.4476   -4.7101   20.9703 F   0  0  0  0  0  0  0  0  0  0  0  0
  1  2  1  0  0  0  0
  1  5  2  0  0  0  0
  2  6  2  0  0  0  0
  3  9  2  0  0  0  0
  3 18  1  0  0  0  0
  4 10  1  0  0  0  0
  4 18  2  0  0  0  0
  5 21  1  0  0  0  0
  6 23  1  0  0  0  0
  7 11  2  0  0  0  0
  7 22  1  0  0  0  0
  8 14  2  0  0  0  0
  8 20  1  0  0  0  0
  9 25  1  0  0  0  0
 10 25  2  0  0  0  0
 11 26  1  0  0  0  0
 12 13  2  0  0  0  0
 12 27  1  0  0  0  0
 13 28  1  0  0  0  0
 14 31  1  0  0  0  0
 15 24  1  0  0  0  0
 15 26  2  0  0  0  0
 16 28  2  0  0  0  0
 16 29  1  0  0  0  0
 17 20  2  0  0  0  0
 17 62  1  0  0  0  0
 18 30  1  0  0  0  0
 19 30  1  0  0  0  0
 19 32  2  0  0  0  0
 19 33  1  0  0  0  0
 20 49  1  0  0  0  0
 21 23  2  0  0  0  0
 21 38  1  0  0  0  0
 22 24  2  0  0  0  0
 22 39  1  0  0  0  0
 23 48  1  0  0  0  0
 24 40  1  0  0  0  0
 25 80  1  0  0  0  0
 26 81  1  0  0  0  0
 27 29  2  0  0  0  0
 27 80  1  0  0  0  0
 28 82  1  0  0  0  0
 29 83  1  0  0  0  0
 30 63  2  0  0  0  0
 31 62  2  0  0  0  0
 31 69  1  0  0  0  0
 32 64  1  0  0  0  0
 32 67  1  0  0  0  0
 33 68  1  0  0  0  0
 33 74  2  0  0  0  0
 34 50  1  0  0  0  0
 34 70  1  0  0  0  0
 34 75  2  0  0  0  0
 35 59  1  0  0  0  0
 35 65  1  0  0  0  0
 35 76  2  0  0  0  0
 36 60  1  0  0  0  0
 36 71  1  0  0  0  0
 36 77  2  0  0  0  0
 37 66  1  0  0  0  0
 37 69  1  0  0  0  0
 37 78  2  0  0  0  0
 38 41  1  0  0  0  0
 39 50  1  0  0  0  0
 40 65  1  0  0  0  0
 41 43  1  0  0  0  0
 42 44  1  0  0  0  0
 42 45  1  0  0  0  0
 43 48  1  0  0  0  0
 44 51  1  0  0  0  0
 45 66  1  0  0  0  0
 46 51  1  0  0  0  0
 46 66  1  0  0  0  0
 47 52  1  0  0  0  0
 47 72  1  0  0  0  0
 48 70  1  0  0  0  0
 49 72  1  0  0  0  0
 49 79  1  0  0  0  0
 50 65  1  0  0  0  0
 51 64  1  0  0  0  0
 52 58  1  0  0  0  0
 52 79  1  0  0  0  0
 53 60  1  0  0  0  0
 54 61  1  0  0  0  0
 55 61  1  0  0  0  0
 56 61  1  0  0  0  0
 57 73  1  0  0  0  0
 58 81  1  0  0  0  0
 59 61  1  0  0  0  0
 59 71  1  0  0  0  0
 60 73  1  0  0  0  0
 63 64  1  0  0  0  0
M  CHG  2  72   1  73   1
M  ISO  4  37 100  58 101  69 100  81 101
M  END
> <Batch ID>
0149

> <Smiles>
CNC(C)C(=O)NC(C(=O)N1Cc2cc([101O:1][101CH2:1]C3CNC(c4ccc([100NH:0][100C:0](=O)N5CCCC(n6nc(-c7ccc(Oc8ccc(F)cc8F)cc7)c(C(N)=O)c6N)C5)nc4)O3)ccc2CC1C(=O)NC1CCCc2ccccc21)C(C)(C)C

> <Shape>
0.347

> <Color>
0.112

> <Negative vol penalty>
0.000

$$$$

  -OEChem-04052303193D

 82 90  0     1  0  0  0  0  0999 V2000
  -24.6152  -20.1021   17.5919 C   0  0  0  0  0  0  0  0  0  0  0  0
  -24.7040  -18.7363   17.8361 C   0  0  0  0  0  0  0  0  0  0  0  0
  -26.5870  -28.1588   18.8788 C   0  0  0  0  0  0  0  0  0  0  0  0
  -26.3469  -27.1690   21.0696 C   0  0  0  0  0  0  0  0  0  0  0  0
  -24.5294  -20.9931   18.6596 C   0  0  0  0  0  0  0  0  0  0  0  0
  -24.6950  -18.2602   19.1476 C   0  0  0  0  0  0  0  0  0  0  0  0
  -24.4890  -13.3823   19.7531 C   0  0  0  0  0  0  0  0  0  0  0  0
  -25.4458  -28.9292   19.1017 C   0  0  0  0  0  0  0  0  0  0  0  0
  -25.2056  -27.9394   21.2925 C   0  0  0  0  0  0  0  0  0  0  0  0
  -25.5670  -12.5423   19.4772 C   0  0  0  0  0  0  0  0  0  0  0  0
  -24.4828  -31.1244   22.1608 C   0  0  0  0  0  0  0  0  0  0  0  0
  -24.3623  -31.7587   23.3971 C   0  0  0  0  0  0  0  0  0  0  0  0
  -26.0117  -12.3469   21.8401 C   0  0  0  0  0  0  0  0  0  0  0  0
  -22.3162  -30.5455   23.8201 C   0  0  0  0  0  0  0  0  0  0  0  0
  -30.6886  -13.9534   18.0756 C   0  0  0  0  0  0  0  0  0  0  0  0
  -27.0376  -27.2787   19.8627 C   0  0  0  0  0  0  0  0  0  0  0  0
  -29.5472  -26.8269   19.9347 C   0  0  0  0  0  0  0  0  0  0  0  0
  -24.5320  -20.5277   19.9849 C   0  0  0  0  0  0  0  0  0  0  0  0
  -24.1704  -13.7202   21.0762 C   0  0  0  0  0  0  0  0  0  0  0  0
  -24.5850  -19.1419   20.2381 C   0  0  0  0  0  0  0  0  0  0  0  0
  -24.9276  -13.1893   22.1302 C   0  0  0  0  0  0  0  0  0  0  0  0
  -24.7551  -28.8195   20.3086 C   0  0  0  0  0  0  0  0  0  0  0  0
  -26.3304  -12.0268   20.5206 C   0  0  0  0  0  0  0  0  0  0  0  0
  -23.5200  -30.2007   21.7540 C   0  0  0  0  0  0  0  0  0  0  0  0
  -23.2790  -31.4693   24.2268 C   0  0  0  0  0  0  0  0  0  0  0  0
  -22.4367  -29.9112   22.5836 C   0  0  0  0  0  0  0  0  0  0  0  0
  -28.2161  -26.4823   19.6328 C   0  0  0  0  0  0  0  0  0  0  0  0
  -30.0248  -14.3748   19.2086 C   0  0  0  0  0  0  0  0  0  0  0  0
  -30.2839  -25.7421   19.5262 C   0  0  0  0  0  0  0  0  0  0  0  0
  -28.9312  -12.5057   18.8616 C   0  0  0  0  0  0  0  0  0  0  0  0
  -30.0710  -28.0210   20.5311 C   0  0  0  0  0  0  0  0  0  0  0  0
  -24.0548  -16.4300   22.7336 C   0  0  0  0  0  0  0  0  0  0  0  0
  -28.7837  -20.0291   18.9040 C   0  0  0  0  0  0  0  0  0  0  0  0
  -22.8305  -14.5096   25.0435 C   0  0  0  0  0  0  0  0  0  0  0  0
  -28.9565  -17.5138   19.1187 C   0  0  0  0  0  0  0  0  0  0  0  0
  -22.5438  -11.3698   26.3498 C   0  0  0  0  0  0  0  0  0  0  0  0
  -24.4292  -21.5355   21.1025 C   0  0  0  0  0  0  0  0  0  0  0  0
  -22.9880  -14.6060   21.3585 C   0  0  0  0  0  0  0  0  0  0  0  0
  -24.6145  -13.5052   23.5692 C   0  0  0  0  0  0  0  0  0  0  0  0
  -24.8724  -20.9758   22.4503 C   0  0  0  0  0  0  0  0  0  0  0  0
  -30.2578  -22.1668   16.3575 C   0  0  0  0  0  0  0  0  0  0  0  0
  -24.1912  -19.6401   22.7078 C   0  0  0  0  0  0  0  0  0  0  0  0
  -29.9919  -23.5568   16.9339 C   0  0  0  0  0  0  0  0  0  0  0  0
  -29.1187  -21.2009   16.6732 C   0  0  0  0  0  0  0  0  0  0  0  0
  -28.5391  -22.4834   18.7088 C   0  0  0  0  0  0  0  0  0  0  0  0
  -24.6078  -18.6031   21.6571 C   0  0  1  0  0  0  0  0  0  0  0  0
  -23.0691  -15.2961   22.7167 C   0  0  1  0  0  0  0  0  0  0  0  0
  -29.6789  -23.4797   18.4385 C   0  0  2  0  0  0  0  0  0  0  0  0
  -21.5100  -10.1196   28.2644 C   0  0  0  0  0  0  0  0  0  0  0  0
  -24.9858  -15.5932   26.9118 C   0  0  0  0  0  0  0  0  0  0  0  0
  -24.5219  -13.6716   28.4481 C   0  0  0  0  0  0  0  0  0  0  0  0
  -22.7296  -15.3365   27.9597 C   0  0  0  0  0  0  0  0  0  0  0  0
  -27.9623  -10.3300   18.1046 C   0  0  0  0  0  0  0  0  0  0  0  0
  -20.9186   -9.6948   24.5300 C   0  0  0  0  0  0  0  0  0  0  0  0
  -30.3040  -15.6141   19.9609 C   0  0  0  0  0  0  0  0  0  0  0  0
  -29.0503  -18.7173   18.2098 C   0  0  0  0  0  0  0  0  0  0  0  0
  -23.4107  -13.6872   26.1686 C   0  0  1  0  0  0  0  0  0  0  0  0
  -21.3360  -10.5836   26.8266 C   0  0  2  0  0  0  0  0  0  0  0  0
  -23.9193  -14.5675   27.3450 C   0  0  0  0  0  0  0  0  0  0  0  0
  -28.1103  -25.2731   19.0755 N   0  0  0  0  0  0  0  0  0  0  0  0
  -29.0164  -13.5461   19.6606 N   0  0  0  0  0  0  0  0  0  0  0  0
  -29.3843  -24.8485   19.0238 N   0  0  0  0  0  0  0  0  0  0  0  0
  -23.4526  -14.3809   23.7936 N   0  0  0  0  0  0  0  0  0  0  0  0
  -28.8332  -21.1771   18.1127 N   0  0  0  0  0  0  0  0  0  0  0  0
  -31.6069  -25.4749   19.5513 N   0  0  0  0  0  0  0  0  0  0  0  0
  -29.1748  -29.0367   20.8909 N   0  0  0  0  0  0  0  0  0  0  0  0
  -23.7877  -17.4215   21.8089 N   0  0  0  0  0  0  0  0  0  0  0  0
  -30.1470  -16.8072   19.1580 N   0  0  0  0  0  0  0  0  0  0  0  0
  -22.3804  -12.7251   26.5444 N   0  0  0  0  0  0  0  0  0  0  0  0
  -28.0099  -11.4580   19.0227 N   0  0  1  0  0  0  0  0  0  1  0  0
  -21.1269   -9.3839   25.9676 N   0  3  0  0  0  0  0  0  0  0  0  0
  -31.2990  -28.1892   20.7237 O   0  0  0  0  0  0  0  0  0  0  0  0
  -24.9876  -16.4079   23.5280 O   0  0  0  0  0  0  0  0  0  0  0  0
  -28.5416  -20.0317   20.1137 O   0  0  0  0  0  0  0  0  0  0  0  0
  -21.8565  -15.2339   25.2638 O   0  0  0  0  0  0  0  0  0  0  0  0
  -27.9367  -17.2199   19.7370 O   0  0  0  0  0  0  0  0  0  0  0  0
  -23.5349  -10.8349   25.8577 O   0  0  0  0  0  0  0  0  0  0  0  0
  -23.6415  -29.5712   20.5265 O   0  0  0  0  0  0  0  0  0  0  0  0
  -27.3835  -11.2073   20.2540 O   0  0  0  0  0  0  0  0  0  1  0  0
  -23.1642  -32.0774   25.4148 F   0  0  0  0  0  0  0  0  0  0  0  0
  -21.5093  -29.0238   22.1988 F   0  0  0  0  0  0  0  0  0  0  0  0
  -30.0333  -12.4592   17.5470 S   0  0  0  0  0  0  0  0  0  0  0  0
  1  2  1  0  0  0  0
  1  5  2  0  0  0  0
  2  6  2  0  0  0  0
  3  8  2  0  0  0  0
  3 16  1  0  0  0  0
  4  9  1  0  0  0  0
  4 16  2  0  0  0  0
  5 18  1  0  0  0  0
  6 20  1  0  0  0  0
  7 10  2  0  0  0  0
  7 19  1  0  0  0  0
  8 22  1  0  0  0  0
  9 22  2  0  0  0  0
 10 23  1  0  0  0  0
 11 12  2  0  0  0  0
 11 24  1  0  0  0  0
 12 25  1  0  0  0  0
 13 21  1  0  0  0  0
 13 23  2  0  0  0  0
 14 25  2  0  0  0  0
 14 26  1  0  0  0  0
 15 28  2  0  0  0  0
 15 82  1  0  0  0  0
 16 27  1  0  0  0  0
 17 27  1  0  0  0  0
 17 29  2  0  0  0  0
 17 31  1  0  0  0  0
 18 20  2  0  0  0  0
 18 37  1  0  0  0  0
 19 21  2  0  0  0  0
 19 38  1  0  0  0  0
 20 46  1  0  0  0  0
 21 39  1  0  0  0  0
 22 78  1  0  0  0  0
 23 79  1  0  0  0  0
 24 26  2  0  0  0  0
 24 78  1  0  0  0  0
 25 80  1  0  0  0  0
 26 81  1  0  0  0  0
 27 60  2  0  0  0  0
 28 55  1  0  0  0  0
 28 61  1  0  0  0  0
 29 62  1  0  0  0  0
 29 65  1  0  0  0  0
 30 61  2  0  0  0  0
 30 70  1  0  0  0  0
 30 82  1  0  0  0  0
 31 66  1  0  0  0  0
 31 72  2  0  0  0  0
 32 47  1  0  0  0  0
 32 67  1  0  0  0  0
 32 73  2  0  0  0  0
 33 56  1  0  0  0  0
 33 64  1  0  0  0  0
 33 74  2  0  0  0  0
 34 57  1  0  0  0  0
 34 63  1  0  0  0  0
 34 75  2  0  0  0  0
 35 56  1  0  0  0  0
 35 68  1  0  0  0  0
 35 76  2  0  0  0  0
 36 58  1  0  0  0  0
 36 69  1  0  0  0  0
 36 77  2  0  0  0  0
 37 40  1  0  0  0  0
 38 47  1  0  0  0  0
 39 63  1  0  0  0  0
 40 42  1  0  0  0  0
 41 43  1  0  0  0  0
 41 44  1  0  0  0  0
 42 46  1  0  0  0  0
 43 48  1  0  0  0  0
 44 64  1  0  0  0  0
 45 48  1  0  0  0  0
 45 64  1  0  0  0  0
 46 67  1  0  0  0  0
 47 63  1  0  0  0  0
 48 62  1  0  0  0  0
 49 58  1  0  0  0  0
 50 59  1  0  0  0  0
 51 59  1  0  0  0  0
 52 59  1  0  0  0  0
 53 70  1  0  0  0  0
 54 71  1  0  0  0  0
 55 68  1  0  0  0  0
 57 59  1  0  0  0  0
 57 69  1  0  0  0  0
 58 71  1  0  0  0  0
 60 62  1  0  0  0  0
 70 79  1  0  0  0  0
M  CHG  1  71   1
M  ISO  4  33 100  56 100  70 101  79 101
M  END
> <Batch ID>
0149

> <Smiles>
CNC(C)C(=O)NC(C(=O)N1Cc2cc([101O:1][101N:1](C)c3nc(CNC(=O)[100CH2:0][100C:0](=O)N4CCCC(n5nc(-c6ccc(Oc7ccc(F)cc7F)cc6)c(C(N)=O)c5N)C4)cs3)ccc2CC1C(=O)NC1CCCc2ccccc21)C(C)(C)C

> <Shape>
0.230

> <Color>
0.057

> <Negative vol penalty>
0.000

$$$$

  -OEChem-04052303193D

 84 93  0     1  0  0  0  0  0999 V2000
  -16.3506  -27.1668   25.8424 C   0  0  0  0  0  0  0  0  0  0  0  0
  -17.5363  -26.4412   25.7881 C   0  0  0  0  0  0  0  0  0  0  0  0
  -32.7016  -18.9659   21.5773 C   0  0  0  0  0  0  0  0  0  0  0  0
  -22.7186  -10.6200   20.9553 C   0  0  0  0  0  0  0  0  0  0  0  0
  -24.4913   -9.0633   21.4763 C   0  0  0  0  0  0  0  0  0  0  0  0
  -16.2095  -28.3274   25.0828 C   0  0  0  0  0  0  0  0  0  0  0  0
  -18.5813  -26.8752   24.9732 C   0  0  0  0  0  0  0  0  0  0  0  0
  -31.7502  -19.7987   22.1660 C   0  0  0  0  0  0  0  0  0  0  0  0
  -24.5802  -26.3700   26.0973 C   0  0  0  0  0  0  0  0  0  0  0  0
  -32.3365  -17.6954   21.1319 C   0  0  0  0  0  0  0  0  0  0  0  0
  -21.8946   -9.9949   21.8912 C   0  0  0  0  0  0  0  0  0  0  0  0
  -23.6673   -8.4383   22.4123 C   0  0  0  0  0  0  0  0  0  0  0  0
  -25.5413  -25.4560   25.6675 C   0  0  0  0  0  0  0  0  0  0  0  0
  -21.1151   -6.2209   22.3974 C   0  0  0  0  0  0  0  0  0  0  0  0
  -21.0786   -4.8265   22.3999 C   0  0  0  0  0  0  0  0  0  0  0  0
  -30.0683  -18.0907   21.8642 C   0  0  0  0  0  0  0  0  0  0  0  0
  -26.1843  -26.9709   23.9037 C   0  0  0  0  0  0  0  0  0  0  0  0
  -21.8724   -4.8098   24.6817 C   0  0  0  0  0  0  0  0  0  0  0  0
  -24.0169  -10.1541   20.7478 C   0  0  0  0  0  0  0  0  0  0  0  0
  -24.6329  -10.9385   18.3998 C   0  0  0  0  0  0  0  0  0  0  0  0
  -30.4335  -19.3611   22.3095 C   0  0  0  0  0  0  0  0  0  0  0  0
  -17.2568  -28.7812   24.2656 C   0  0  0  0  0  0  0  0  0  0  0  0
  -24.4062  -27.5886   25.4257 C   0  0  0  0  0  0  0  0  0  0  0  0
  -18.4536  -28.0422   24.2009 C   0  0  0  0  0  0  0  0  0  0  0  0
  -25.2220  -27.8997   24.3285 C   0  0  0  0  0  0  0  0  0  0  0  0
  -31.0198  -17.2579   21.2754 C   0  0  0  0  0  0  0  0  0  0  0  0
  -22.3690   -8.9041   22.6197 C   0  0  0  0  0  0  0  0  0  0  0  0
  -26.3416  -25.7552   24.5688 C   0  0  0  0  0  0  0  0  0  0  0  0
  -21.5304   -6.9097   23.5371 C   0  0  0  0  0  0  0  0  0  0  0  0
  -21.4572   -4.1210   23.5420 C   0  0  0  0  0  0  0  0  0  0  0  0
  -21.9090   -6.2042   24.6792 C   0  0  0  0  0  0  0  0  0  0  0  0
  -24.8684  -10.7990   19.7807 C   0  0  0  0  0  0  0  0  0  0  0  0
  -25.7298  -11.6196   17.9315 C   0  0  0  0  0  0  0  0  0  0  0  0
  -23.5218  -10.4925   17.6109 C   0  0  0  0  0  0  0  0  0  0  0  0
  -22.0161  -28.9511   23.8335 C   0  0  0  0  0  0  0  0  0  0  0  0
  -24.0345  -31.4891   23.7507 C   0  0  0  0  0  0  0  0  0  0  0  0
  -27.2425  -32.6453   23.8877 C   0  0  0  0  0  0  0  0  0  0  0  0
  -29.3875  -15.3693   20.8840 C   0  0  0  0  0  0  0  0  0  0  0  0
  -17.0403  -30.0155   23.4265 C   0  0  0  0  0  0  0  0  0  0  0  0
  -23.3832  -28.5752   25.9182 C   0  0  0  0  0  0  0  0  0  0  0  0
  -25.0888  -29.2030   23.5855 C   0  0  0  0  0  0  0  0  0  0  0  0
  -18.3330  -30.6121   22.8757 C   0  0  0  0  0  0  0  0  0  0  0  0
  -30.2764  -11.8763   19.5677 C   0  0  0  0  0  0  0  0  0  0  0  0
  -29.1829  -21.5550   22.1367 C   0  0  0  0  0  0  0  0  0  0  0  0
  -29.7500  -20.5943   24.4115 C   0  0  0  0  0  0  0  0  0  0  0  0
  -19.2145  -29.5186   22.2807 C   0  0  0  0  0  0  0  0  0  0  0  0
  -28.1300  -22.4551   22.7828 C   0  0  0  0  0  0  0  0  0  0  0  0
  -28.6957  -21.4968   25.0519 C   0  0  0  0  0  0  0  0  0  0  0  0
  -29.0298  -11.5955   18.7320 C   0  0  0  0  0  0  0  0  0  0  0  0
  -30.5100  -13.3676   19.7733 C   0  0  0  0  0  0  0  0  0  0  0  0
  -28.0795  -13.3192   20.3617 C   0  0  0  0  0  0  0  0  0  0  0  0
  -29.3985  -20.2679   22.9503 C   0  0  0  0  0  0  0  0  0  0  0  0
  -19.6190  -28.4944   23.3479 C   0  0  1  0  0  0  0  0  0  0  0  0
  -22.9426  -29.5653   24.8445 C   0  0  1  0  0  0  0  0  0  0  0  0
  -28.4800  -22.7810   24.2406 C   0  0  0  0  0  0  0  0  0  0  0  0
  -27.8635  -12.5528   19.0475 C   0  0  2  0  0  0  0  0  0  0  0  0
  -28.5802  -34.7642   23.7525 C   0  0  0  0  0  0  0  0  0  0  0  0
  -23.6558  -31.5322   20.7234 C   0  0  0  0  0  0  0  0  0  0  0  0
  -25.6857  -32.9886   20.5602 C   0  0  0  0  0  0  0  0  0  0  0  0
  -23.6765  -33.7873   21.8043 C   0  0  0  0  0  0  0  0  0  0  0  0
  -28.2963  -32.2919   26.6306 C   0  0  0  0  0  0  0  0  0  0  0  0
  -27.3908  -23.6431   24.8762 C   0  0  0  0  0  0  0  0  0  1  0  0
  -25.1139  -31.9664   22.8094 C   0  0  1  0  0  0  0  0  0  0  0  0
  -27.8706  -33.7829   24.6724 C   0  0  2  0  0  0  0  0  0  0  0  0
  -24.5344  -32.5432   21.4869 C   0  0  0  0  0  0  0  0  0  0  0  0
  -26.0243  -11.3473   20.1646 N   0  0  0  0  0  0  0  0  0  0  0  0
  -26.5249  -11.8378   19.0179 N   0  0  0  0  0  0  0  0  0  0  0  0
  -24.0700  -30.1321   24.1015 N   0  0  0  0  0  0  0  0  0  0  0  0
  -29.3452  -14.0615   20.3416 N   0  0  0  0  0  0  0  0  0  0  0  0
  -26.0822  -12.0470   16.7004 N   0  0  0  0  0  0  0  0  0  0  0  0
  -23.5799   -9.2151   17.0371 N   0  0  0  0  0  0  0  0  0  0  0  0
  -30.6490  -15.9671   20.8221 N   0  0  0  0  0  0  0  0  0  0  0  0
  -20.6800  -29.0222   24.1787 N   0  0  0  0  0  0  0  0  0  0  0  0
  -25.9280  -32.9107   23.5671 N   0  0  0  0  0  0  0  0  0  0  0  0
  -28.8633  -33.2523   25.6491 N   0  3  0  0  0  0  0  0  0  0  0  0
  -22.5146  -11.2119   17.4070 O   0  0  0  0  0  0  0  0  0  0  0  0
  -22.4791  -28.4511   22.8150 O   0  0  0  0  0  0  0  0  0  0  0  0
  -23.1951  -32.2924   24.1653 O   0  0  0  0  0  0  0  0  0  0  0  0
  -27.8577  -31.6250   23.5858 O   0  0  0  0  0  0  0  0  0  0  0  0
  -28.3823  -15.9102   21.3499 O   0  0  0  0  0  0  0  0  0  0  0  0
  -21.5653   -8.2941   23.5333 O   0  0  0  0  0  0  0  0  0  0  0  0
  -27.2801  -24.8646   24.1468 O   0  0  0  0  0  0  0  0  0  1  0  0
  -21.4207   -2.7820   23.5448 F   0  0  0  0  0  0  0  0  0  0  0  0
  -22.3077   -6.8605   25.7775 F   0  0  0  0  0  0  0  0  0  0  0  0
  1  2  1  0  0  0  0
  1  6  2  0  0  0  0
  2  7  2  0  0  0  0
  3  8  2  0  0  0  0
  3 10  1  0  0  0  0
  4 11  2  0  0  0  0
  4 19  1  0  0  0  0
  5 12  1  0  0  0  0
  5 19  2  0  0  0  0
  6 22  1  0  0  0  0
  7 24  1  0  0  0  0
  8 21  1  0  0  0  0
  9 13  2  0  0  0  0
  9 23  1  0  0  0  0
 10 26  2  0  0  0  0
 11 27  1  0  0  0  0
 12 27  2  0  0  0  0
 13 28  1  0  0  0  0
 14 15  2  0  0  0  0
 14 29  1  0  0  0  0
 15 30  1  0  0  0  0
 16 21  2  0  0  0  0
 16 26  1  0  0  0  0
 17 25  1  0  0  0  0
 17 28  2  0  0  0  0
 18 30  2  0  0  0  0
 18 31  1  0  0  0  0
 19 32  1  0  0  0  0
 20 32  1  0  0  0  0
 20 33  2  0  0  0  0
 20 34  1  0  0  0  0
 21 52  1  0  0  0  0
 22 24  2  0  0  0  0
 22 39  1  0  0  0  0
 23 25  2  0  0  0  0
 23 40  1  0  0  0  0
 24 53  1  0  0  0  0
 25 41  1  0  0  0  0
 26 72  1  0  0  0  0
 27 81  1  0  0  0  0
 28 82  1  0  0  0  0
 29 31  2  0  0  0  0
 29 81  1  0  0  0  0
 30 83  1  0  0  0  0
 31 84  1  0  0  0  0
 32 66  2  0  0  0  0
 33 67  1  0  0  0  0
 33 70  1  0  0  0  0
 34 71  1  0  0  0  0
 34 76  2  0  0  0  0
 35 54  1  0  0  0  0
 35 73  1  0  0  0  0
 35 77  2  0  0  0  0
 36 63  1  0  0  0  0
 36 68  1  0  0  0  0
 36 78  2  0  0  0  0
 37 64  1  0  0  0  0
 37 74  1  0  0  0  0
 37 79  2  0  0  0  0
 38 69  1  0  0  0  0
 38 72  1  0  0  0  0
 38 80  2  0  0  0  0
 39 42  1  0  0  0  0
 40 54  1  0  0  0  0
 41 68  1  0  0  0  0
 42 46  1  0  0  0  0
 43 49  1  0  0  0  0
 43 50  1  0  0  0  0
 44 47  1  0  0  0  0
 44 52  1  0  0  0  0
 45 48  1  0  0  0  0
 45 52  1  0  0  0  0
 46 53  1  0  0  0  0
 47 55  1  0  0  0  0
 48 55  1  0  0  0  0
 49 56  1  0  0  0  0
 50 69  1  0  0  0  0
 51 56  1  0  0  0  0
 51 69  1  0  0  0  0
 53 73  1  0  0  0  0
 54 68  1  0  0  0  0
 55 62  1  0  0  0  0
 56 67  1  0  0  0  0
 57 64  1  0  0  0  0
 58 65  1  0  0  0  0
 59 65  1  0  0  0  0
 60 65  1  0  0  0  0
 61 75  1  0  0  0  0
 62 82  1  0  0  0  0
 63 65  1  0  0  0  0
 63 74  1  0  0  0  0
 64 75  1  0  0  0  0
 66 67  1  0  0  0  0
M  CHG  1  75   1
M  ISO  4  38 100  62 101  72 100  82 101
M  END
> <Batch ID>
0149

> <Smiles>
CNC(C)C(=O)NC(C(=O)N1Cc2cc([101O:1][101CH2:1]C3CCC(c4cccc([100NH:0][100C:0](=O)N5CCCC(n6nc(-c7ccc(Oc8ccc(F)cc8F)cc7)c(C(N)=O)c6N)C5)c4)CC3)ccc2CC1C(=O)NC1CCCc2ccccc21)C(C)(C)C

> <Shape>
0.258

> <Color>
0.109

> <Negative vol penalty>
0.000

$$$$

  -OEChem-04052303193D

 76 84  0     1  0  0  0  0  0999 V2000
  -20.9620  -26.9380   26.4873 C   0  0  0  0  0  0  0  0  0  0  0  0
  -21.9166  -26.6109   25.5297 C   0  0  0  0  0  0  0  0  0  0  0  0
  -26.9264  -16.6719   19.1272 C   0  0  0  0  0  0  0  0  0  0  0  0
  -29.1831  -16.4709   19.9663 C   0  0  0  0  0  0  0  0  0  0  0  0
  -19.8857  -27.7560   26.1460 C   0  0  0  0  0  0  0  0  0  0  0  0
  -21.7949  -27.1007   24.2298 C   0  0  0  0  0  0  0  0  0  0  0  0
  -26.1750  -28.8655   22.4007 C   0  0  0  0  0  0  0  0  0  0  0  0
  -26.8055  -15.2824   19.1194 C   0  0  0  0  0  0  0  0  0  0  0  0
  -29.0621  -15.0813   19.9586 C   0  0  0  0  0  0  0  0  0  0  0  0
  -27.1024  -27.9261   21.9522 C   0  0  0  0  0  0  0  0  0  0  0  0
  -26.2312  -12.8194   21.3636 C   0  0  0  0  0  0  0  0  0  0  0  0
  -25.0576  -12.2679   21.8776 C   0  0  0  0  0  0  0  0  0  0  0  0
  -26.4122  -28.3394   19.6780 C   0  0  0  0  0  0  0  0  0  0  0  0
  -24.6010  -11.2447   19.7371 C   0  0  0  0  0  0  0  0  0  0  0  0
  -28.1152  -17.2662   19.5506 C   0  0  0  0  0  0  0  0  0  0  0  0
  -27.9262  -19.5768   20.6151 C   0  0  0  0  0  0  0  0  0  0  0  0
  -19.7560  -28.2640   24.8437 C   0  0  0  0  0  0  0  0  0  0  0  0
  -25.3503  -29.5422   21.4906 C   0  0  0  0  0  0  0  0  0  0  0  0
  -20.7152  -27.9251   23.8704 C   0  0  0  0  0  0  0  0  0  0  0  0
  -25.4769  -29.2888   20.1173 C   0  0  0  0  0  0  0  0  0  0  0  0
  -27.8733  -14.4870   19.5351 C   0  0  0  0  0  0  0  0  0  0  0  0
  -27.2191  -27.6608   20.5909 C   0  0  0  0  0  0  0  0  0  0  0  0
  -26.5897  -12.5835   20.0364 C   0  0  0  0  0  0  0  0  0  0  0  0
  -24.2425  -11.4806   21.0643 C   0  0  0  0  0  0  0  0  0  0  0  0
  -25.7746  -11.7962   19.2232 C   0  0  0  0  0  0  0  0  0  0  0  0
  -28.2410  -18.7016   19.5583 C   0  0  0  0  0  0  0  0  0  0  0  0
  -28.2205  -20.8259   20.1255 C   0  0  0  0  0  0  0  0  0  0  0  0
  -31.5932  -26.7474   19.8491 C   0  0  0  0  0  0  0  0  0  0  0  0
  -30.4266  -26.1263   20.0536 C   0  0  0  0  0  0  0  0  0  0  0  0
  -27.4138  -19.2866   21.9223 C   0  0  0  0  0  0  0  0  0  0  0  0
  -22.2134  -29.7183   21.0080 C   0  0  0  0  0  0  0  0  0  0  0  0
  -23.0679  -31.9670   18.8319 C   0  0  0  0  0  0  0  0  0  0  0  0
  -25.4689  -33.2307   16.7619 C   0  0  0  0  0  0  0  0  0  0  0  0
  -31.9134  -24.0868   17.4014 C   0  0  0  0  0  0  0  0  0  0  0  0
  -18.5500  -29.1058   24.5097 C   0  0  0  0  0  0  0  0  0  0  0  0
  -24.3735  -30.5721   21.9883 C   0  0  0  0  0  0  0  0  0  0  0  0
  -24.6292  -30.0030   19.0977 C   0  0  0  0  0  0  0  0  0  0  0  0
  -32.4518  -25.9864   18.9014 C   0  0  0  0  0  0  0  0  0  0  0  0
  -30.3548  -24.8447   19.2879 C   0  0  0  0  0  0  0  0  0  0  0  0
  -18.6956  -29.8890   23.2075 C   0  0  0  0  0  0  0  0  0  0  0  0
  -29.3412  -22.3612   15.4360 C   0  0  0  0  0  0  0  0  0  0  0  0
  -19.2376  -28.9894   22.1013 C   0  0  0  0  0  0  0  0  0  0  0  0
  -28.8323  -21.2987   16.4129 C   0  0  0  0  0  0  0  0  0  0  0  0
  -30.8095  -22.7059   15.6771 C   0  0  0  0  0  0  0  0  0  0  0  0
  -30.6288  -22.0070   18.0320 C   0  0  0  0  0  0  0  0  0  0  0  0
  -20.6312  -28.4571   22.4561 C   0  0  1  0  0  0  0  0  0  0  0  0
  -23.2269  -30.8276   21.0150 C   0  0  1  0  0  0  0  0  0  0  0  0
  -29.1361  -21.6900   17.8721 C   0  0  2  0  0  0  0  0  0  0  0  0
  -25.8602  -35.0511   15.0795 C   0  0  0  0  0  0  0  0  0  0  0  0
  -21.4538  -30.4033   16.7680 C   0  0  0  0  0  0  0  0  0  0  0  0
  -22.6333  -31.6900   14.9732 C   0  0  0  0  0  0  0  0  0  0  0  0
  -21.1999  -32.8872   16.6269 C   0  0  0  0  0  0  0  0  0  0  0  0
  -27.6347  -34.4260   18.3865 C   0  0  0  0  0  0  0  0  0  0  0  0
  -29.3082  -26.5734   20.9214 C   0  0  0  0  0  0  0  0  0  1  0  0
  -23.4299  -31.9534   17.3664 C   0  0  1  0  0  0  0  0  0  0  0  0
  -25.9650  -34.6485   16.5423 C   0  0  2  0  0  0  0  0  0  0  0  0
  -22.1940  -31.7184   16.4527 C   0  0  0  0  0  0  0  0  0  0  0  0
  -28.6998  -19.3405   18.4789 N   0  0  0  0  0  0  0  0  0  0  0  0
  -28.6755  -20.6306   18.8547 N   0  0  0  0  0  0  0  0  0  0  0  0
  -23.6845  -30.9965   19.6343 N   0  0  0  0  0  0  0  0  0  0  0  0
  -31.6189  -24.8403   18.5411 N   0  0  0  0  0  0  0  0  0  0  0  0
  -31.0388  -23.0438   17.0809 N   0  0  0  0  0  0  0  0  0  0  0  0
  -28.1317  -22.0613   20.6624 N   0  0  0  0  0  0  0  0  0  0  0  0
  -27.1676  -17.9493   22.2618 N   0  0  0  0  0  0  0  0  0  0  0  0
  -21.6329  -29.4789   22.2389 N   0  0  0  0  0  0  0  0  0  0  0  0
  -24.1345  -33.2045   17.1083 N   0  0  0  0  0  0  0  0  0  0  0  0
  -27.3898  -34.7696   16.9621 N   0  3  0  0  0  0  0  0  0  0  0  0
  -27.1656  -20.1880   22.7587 O   0  0  0  0  0  0  0  0  0  0  0  0
  -21.9747  -29.1246   19.9629 O   0  0  0  0  0  0  0  0  0  0  0  0
  -22.2729  -32.8122   19.2506 O   0  0  0  0  0  0  0  0  0  0  0  0
  -26.1917  -32.2449   16.6349 O   0  0  0  0  0  0  0  0  0  0  0  0
  -32.8759  -24.3660   16.6750 O   0  0  0  0  0  0  0  0  0  0  0  0
  -27.7555  -13.1311   19.5278 O   0  0  0  0  0  0  0  0  0  0  0  0
  -28.1302  -26.7365   20.1470 O   0  0  0  0  0  0  0  0  0  1  0  0
  -23.1163  -10.9498   21.5585 F   0  0  0  0  0  0  0  0  0  0  0  0
  -26.1144  -11.5651   17.9476 F   0  0  0  0  0  0  0  0  0  0  0  0
  1  2  1  0  0  0  0
  1  5  2  0  0  0  0
  2  6  2  0  0  0  0
  3  8  2  0  0  0  0
  3 15  1  0  0  0  0
  4  9  1  0  0  0  0
  4 15  2  0  0  0  0
  5 17  1  0  0  0  0
  6 19  1  0  0  0  0
  7 10  2  0  0  0  0
  7 18  1  0  0  0  0
  8 21  1  0  0  0  0
  9 21  2  0  0  0  0
 10 22  1  0  0  0  0
 11 12  2  0  0  0  0
 11 23  1  0  0  0  0
 12 24  1  0  0  0  0
 13 20  1  0  0  0  0
 13 22  2  0  0  0  0
 14 24  2  0  0  0  0
 14 25  1  0  0  0  0
 15 26  1  0  0  0  0
 16 26  1  0  0  0  0
 16 27  2  0  0  0  0
 16 30  1  0  0  0  0
 17 19  2  0  0  0  0
 17 35  1  0  0  0  0
 18 20  2  0  0  0  0
 18 36  1  0  0  0  0
 19 46  1  0  0  0  0
 20 37  1  0  0  0  0
 21 73  1  0  0  0  0
 22 74  1  0  0  0  0
 23 25  2  0  0  0  0
 23 73  1  0  0  0  0
 24 75  1  0  0  0  0
 25 76  1  0  0  0  0
 26 58  2  0  0  0  0
 27 59  1  0  0  0  0
 27 63  1  0  0  0  0
 28 29  2  0  0  0  0
 28 38  1  0  0  0  0
 29 39  1  0  0  0  0
 29 54  1  0  0  0  0
 30 64  1  0  0  0  0
 30 68  2  0  0  0  0
 31 47  1  0  0  0  0
 31 65  1  0  0  0  0
 31 69  2  0  0  0  0
 32 55  1  0  0  0  0
 32 60  1  0  0  0  0
 32 70  2  0  0  0  0
 33 56  1  0  0  0  0
 33 66  1  0  0  0  0
 33 71  2  0  0  0  0
 34 61  1  0  0  0  0
 34 62  1  0  0  0  0
 34 72  2  0  0  0  0
 35 40  1  0  0  0  0
 36 47  1  0  0  0  0
 37 60  1  0  0  0  0
 38 61  1  0  0  0  0
 39 61  1  0  0  0  0
 40 42  1  0  0  0  0
 41 43  1  0  0  0  0
 41 44  1  0  0  0  0
 42 46  1  0  0  0  0
 43 48  1  0  0  0  0
 44 62  1  0  0  0  0
 45 48  1  0  0  0  0
 45 62  1  0  0  0  0
 46 65  1  0  0  0  0
 47 60  1  0  0  0  0
 48 59  1  0  0  0  0
 49 56  1  0  0  0  0
 50 57  1  0  0  0  0
 51 57  1  0  0  0  0
 52 57  1  0  0  0  0
 53 67  1  0  0  0  0
 54 74  1  0  0  0  0
 55 57  1  0  0  0  0
 55 66  1  0  0  0  0
 56 67  1  0  0  0  0
 58 59  1  0  0  0  0
M  CHG  1  67   1
M  ISO  4  34 100  54 101  61 100  74 101
M  END
> <Batch ID>
0149

> <Smiles>
CNC(C)C(=O)NC(C(=O)N1Cc2cc([101O:1][101CH2:1]C3=CC[100N:0]([100C:0](=O)N4CCCC(n5nc(-c6ccc(Oc7ccc(F)cc7F)cc6)c(C(N)=O)c5N)C4)C3)ccc2CC1C(=O)NC1CCCc2ccccc21)C(C)(C)C

> <Shape>
0.244

> <Color>
0.077

> <Negative vol penalty>
0.000

$$$$

  -OEChem-04052303193D

 86 95  0     1  0  0  0  0  0999 V2000
  -25.4971  -35.8747   21.6217 C   0  0  0  0  0  0  0  0  0  0  0  0
  -26.1615  -35.0757   20.6968 C   0  0  0  0  0  0  0  0  0  0  0  0
  -29.7055  -18.2051   16.3105 C   0  0  0  0  0  0  0  0  0  0  0  0
  -23.8240  -10.0070   22.3310 C   0  0  0  0  0  0  0  0  0  0  0  0
  -23.0828  -10.1562   20.0364 C   0  0  0  0  0  0  0  0  0  0  0  0
  -30.1425  -19.4234   16.8304 C   0  0  0  0  0  0  0  0  0  0  0  0
  -25.2776  -35.4055   22.9162 C   0  0  0  0  0  0  0  0  0  0  0  0
  -26.6078  -33.8073   21.0661 C   0  0  0  0  0  0  0  0  0  0  0  0
  -27.6419  -27.2499   18.3741 C   0  0  0  0  0  0  0  0  0  0  0  0
  -28.4933  -17.6605   16.7344 C   0  0  0  0  0  0  0  0  0  0  0  0
  -22.9624   -8.9301   22.5393 C   0  0  0  0  0  0  0  0  0  0  0  0
  -22.2212   -9.0792   20.2447 C   0  0  0  0  0  0  0  0  0  0  0  0
  -28.6296  -26.2713   18.2712 C   0  0  0  0  0  0  0  0  0  0  0  0
  -22.9096   -5.6163   21.8692 C   0  0  0  0  0  0  0  0  0  0  0  0
  -23.4101   -4.5086   22.5534 C   0  0  0  0  0  0  0  0  0  0  0  0
  -28.1552  -19.5525   18.1982 C   0  0  0  0  0  0  0  0  0  0  0  0
  -28.1243  -25.5342   20.5118 C   0  0  0  0  0  0  0  0  0  0  0  0
  -21.7241   -4.8005   24.2590 C   0  0  0  0  0  0  0  0  0  0  0  0
  -23.8842  -10.6201   21.0795 C   0  0  0  0  0  0  0  0  0  0  0  0
  -29.3674  -20.0971   17.7743 C   0  0  0  0  0  0  0  0  0  0  0  0
  -26.1113  -11.6801   20.4282 C   0  0  0  0  0  0  0  0  0  0  0  0
  -25.7129  -34.1269   23.2987 C   0  0  0  0  0  0  0  0  0  0  0  0
  -26.8942  -27.3853   19.5526 C   0  0  0  0  0  0  0  0  0  0  0  0
  -26.3951  -33.3211   22.3672 C   0  0  0  0  0  0  0  0  0  0  0  0
  -27.1259  -26.5137   20.6262 C   0  0  0  0  0  0  0  0  0  0  0  0
  -27.7181  -18.3342   17.6783 C   0  0  0  0  0  0  0  0  0  0  0  0
  -22.1610   -8.4662   21.4962 C   0  0  0  0  0  0  0  0  0  0  0  0
  -28.8729  -25.4151   19.3412 C   0  0  0  0  0  0  0  0  0  0  0  0
  -21.8164   -6.3162   22.3799 C   0  0  0  0  0  0  0  0  0  0  0  0
  -22.8173   -4.1007   23.7483 C   0  0  0  0  0  0  0  0  0  0  0  0
  -21.2236   -5.9082   23.5748 C   0  0  0  0  0  0  0  0  0  0  0  0
  -24.7737  -11.7329   20.8639 C   0  0  0  0  0  0  0  0  0  0  0  0
  -26.5102  -12.9936   20.3839 C   0  0  0  0  0  0  0  0  0  0  0  0
  -29.8281  -21.3847   18.3238 C   0  0  0  0  0  0  0  0  0  0  0  0
  -26.9209  -10.5451   20.0933 C   0  0  0  0  0  0  0  0  0  0  0  0
  -26.5055  -29.6866   21.7106 C   0  0  0  0  0  0  0  0  0  0  0  0
  -24.2710  -27.6579   22.8996 C   0  0  0  0  0  0  0  0  0  0  0  0
  -23.1213  -24.4571   23.1819 C   0  0  0  0  0  0  0  0  0  0  0  0
  -25.5970  -18.3186   19.0372 C   0  0  0  0  0  0  0  0  0  0  0  0
  -25.4945  -33.6817   24.7230 C   0  0  0  0  0  0  0  0  0  0  0  0
  -25.8141  -28.4286   19.6380 C   0  0  0  0  0  0  0  0  0  0  0  0
  -26.3369  -26.6044   21.9060 C   0  0  0  0  0  0  0  0  0  0  0  0
  -25.6681  -32.1785   24.9247 C   0  0  0  0  0  0  0  0  0  0  0  0
  -24.2657  -17.1785   22.1364 C   0  0  0  0  0  0  0  0  0  0  0  0
  -32.1179  -20.6016   20.9951 C   0  0  0  0  0  0  0  0  0  0  0  0
  -26.9388  -31.6907   24.2360 C   0  0  0  0  0  0  0  0  0  0  0  0
  -24.3892  -15.6558   22.0458 C   0  0  0  0  0  0  0  0  0  0  0  0
  -31.7390  -22.0314   21.3618 C   0  0  0  0  0  0  0  0  0  0  0  0
  -30.9720  -20.1506   20.1013 C   0  0  0  0  0  0  0  0  0  0  0  0
  -23.9104  -17.8000   20.7869 C   0  0  0  0  0  0  0  0  0  0  0  0
  -24.9182  -15.8993   19.5865 C   0  0  0  0  0  0  0  0  0  0  0  0
  -26.8725  -31.9297   22.7227 C   0  0  1  0  0  0  0  0  0  0  0  0
  -25.4644  -28.8106   21.0730 C   0  0  1  0  0  0  0  0  0  0  0  0
  -25.3388  -15.2342   20.9073 C   0  0  2  0  0  0  0  0  0  0  0  0
  -31.1368  -22.6106   20.0652 C   0  0  2  0  0  0  0  0  0  0  0  0
  -32.2084  -23.2166   19.1587 C   0  0  0  0  0  0  0  0  0  0  0  0
  -21.2947  -23.1069   24.2486 C   0  0  0  0  0  0  0  0  0  0  0  0
  -25.6829  -27.8820   25.5952 C   0  0  0  0  0  0  0  0  0  0  0  0
  -24.4373  -25.8414   26.3387 C   0  0  0  0  0  0  0  0  0  0  0  0
  -23.1853  -27.9085   25.7204 C   0  0  0  0  0  0  0  0  0  0  0  0
  -22.1034  -23.5453   20.5567 C   0  0  0  0  0  0  0  0  0  0  0  0
  -30.0329  -23.6165   20.3782 C   0  0  0  0  0  0  0  0  0  1  0  0
  -24.2768  -26.5304   23.9034 C   0  0  1  0  0  0  0  0  0  0  0  0
  -21.7342  -23.8658   23.0062 C   0  0  2  0  0  0  0  0  0  0  0  0
  -24.4119  -27.0399   25.3662 C   0  0  0  0  0  0  0  0  0  0  0  0
  -24.3511  -12.9813   21.0810 N   0  0  0  0  0  0  0  0  0  0  0  0
  -25.4294  -13.7249   20.7806 N   0  0  0  0  0  0  0  0  0  0  0  0
  -30.5788  -21.3952   19.4138 N   0  0  0  0  0  0  0  0  0  0  0  0
  -25.2961  -27.6450   21.9432 N   0  0  0  0  0  0  0  0  0  0  0  0
  -24.8550  -17.3592   19.7582 N   0  0  0  0  0  0  0  0  0  0  0  0
  -27.6764  -13.5829   20.0447 N   0  0  0  0  0  0  0  0  0  0  0  0
  -26.3542   -9.2672   20.1940 N   0  0  0  0  0  0  0  0  0  0  0  0
  -26.4869  -17.7803   18.1083 N   0  0  0  0  0  0  0  0  0  0  0  0
  -26.0386  -30.9308   22.0893 N   0  0  0  0  0  0  0  0  0  0  0  0
  -23.0686  -25.7527   23.6508 N   0  0  0  0  0  0  0  0  0  0  0  0
  -29.4838  -22.5156   17.7149 N   0  3  0  0  0  0  0  0  0  0  0  0
  -21.7145  -22.9259   21.8498 N   0  3  0  0  0  0  0  0  0  0  0  0
  -28.1165  -10.6597   19.7317 O   0  0  0  0  0  0  0  0  0  0  0  0
  -27.6474  -29.2643   21.8500 O   0  0  0  0  0  0  0  0  0  0  0  0
  -23.3852  -28.5145   22.9575 O   0  0  0  0  0  0  0  0  0  0  0  0
  -24.1489  -23.8308   22.9320 O   0  0  0  0  0  0  0  0  0  0  0  0
  -25.4732  -19.5277   19.2487 O   0  0  0  0  0  0  0  0  0  0  0  0
  -21.3203   -7.4152   21.6990 O   0  0  0  0  0  0  0  0  0  0  0  0
  -29.8368  -24.4595   19.2436 O   0  0  0  0  0  0  0  0  0  1  0  0
  -23.2970   -3.0360   24.4044 F   0  0  0  0  0  0  0  0  0  0  0  0
  -20.1724   -6.5758   24.0698 F   0  0  0  0  0  0  0  0  0  0  0  0
  1  2  1  0  0  0  0
  1  7  2  0  0  0  0
  2  8  2  0  0  0  0
  3  6  2  0  0  0  0
  3 10  1  0  0  0  0
  4 11  2  0  0  0  0
  4 19  1  0  0  0  0
  5 12  1  0  0  0  0
  5 19  2  0  0  0  0
  6 20  1  0  0  0  0
  7 22  1  0  0  0  0
  8 24  1  0  0  0  0
  9 13  2  0  0  0  0
  9 23  1  0  0  0  0
 10 26  2  0  0  0  0
 11 27  1  0  0  0  0
 12 27  2  0  0  0  0
 13 28  1  0  0  0  0
 14 15  2  0  0  0  0
 14 29  1  0  0  0  0
 15 30  1  0  0  0  0
 16 20  2  0  0  0  0
 16 26  1  0  0  0  0
 17 25  1  0  0  0  0
 17 28  2  0  0  0  0
 18 30  2  0  0  0  0
 18 31  1  0  0  0  0
 19 32  1  0  0  0  0
 20 34  1  0  0  0  0
 21 32  1  0  0  0  0
 21 33  2  0  0  0  0
 21 35  1  0  0  0  0
 22 24  2  0  0  0  0
 22 40  1  0  0  0  0
 23 25  2  0  0  0  0
 23 41  1  0  0  0  0
 24 52  1  0  0  0  0
 25 42  1  0  0  0  0
 26 73  1  0  0  0  0
 27 83  1  0  0  0  0
 28 84  1  0  0  0  0
 29 31  2  0  0  0  0
 29 83  1  0  0  0  0
 30 85  1  0  0  0  0
 31 86  1  0  0  0  0
 32 66  2  0  0  0  0
 33 67  1  0  0  0  0
 33 71  1  0  0  0  0
 34 68  1  0  0  0  0
 34 76  2  0  0  0  0
 35 72  1  0  0  0  0
 35 78  2  0  0  0  0
 36 53  1  0  0  0  0
 36 74  1  0  0  0  0
 36 79  2  0  0  0  0
 37 63  1  0  0  0  0
 37 69  1  0  0  0  0
 37 80  2  0  0  0  0
 38 64  1  0  0  0  0
 38 75  1  0  0  0  0
 38 81  2  0  0  0  0
 39 70  1  0  0  0  0
 39 73  1  0  0  0  0
 39 82  2  0  0  0  0
 40 43  1  0  0  0  0
 41 53  1  0  0  0  0
 42 69  1  0  0  0  0
 43 46  1  0  0  0  0
 44 47  1  0  0  0  0
 44 50  1  0  0  0  0
 45 48  1  0  0  0  0
 45 49  1  0  0  0  0
 46 52  1  0  0  0  0
 47 54  1  0  0  0  0
 48 55  1  0  0  0  0
 49 68  1  0  0  0  0
 50 70  1  0  0  0  0
 51 54  1  0  0  0  0
 51 70  1  0  0  0  0
 52 74  1  0  0  0  0
 53 69  1  0  0  0  0
 54 67  1  0  0  0  0
 55 56  1  0  0  0  0
 55 62  1  0  0  0  0
 55 68  1  0  0  0  0
 57 64  1  0  0  0  0
 58 65  1  0  0  0  0
 59 65  1  0  0  0  0
 60 65  1  0  0  0  0
 61 77  1  0  0  0  0
 62 84  1  0  0  0  0
 63 65  1  0  0  0  0
 63 75  1  0  0  0  0
 64 77  1  0  0  0  0
 66 67  1  0  0  0  0
M  CHG  2  76   1  77   1
M  ISO  4  39 100  62 101  73 100  84 101
M  END
> <Batch ID>
0149

> <Smiles>
CNC(C)C(=O)NC(C(=O)N1Cc2cc([101O:1][101CH2:1]C3(C)CCCN3C(=N)c3cccc([100NH:0][100C:0](=O)N4CCCC(n5nc(-c6ccc(Oc7ccc(F)cc7F)cc6)c(C(N)=O)c5N)C4)c3)ccc2CC1C(=O)NC1CCCc2ccccc21)C(C)(C)C

> <Shape>
0.258

> <Color>
0.084

> <Negative vol penalty>
0.000

$$$$

  -OEChem-04052303193D

 82 90  0     1  0  0  0  0  0999 V2000
  -17.5861  -26.9211   22.2161 C   0  0  0  0  0  0  0  0  0  0  0  0
  -18.5265  -26.9302   21.1909 C   0  0  0  0  0  0  0  0  0  0  0  0
  -26.9259  -14.3340   23.1501 C   0  0  0  0  0  0  0  0  0  0  0  0
  -25.7602  -14.5062   21.0409 C   0  0  0  0  0  0  0  0  0  0  0  0
  -17.8189  -27.6517   23.3806 C   0  0  0  0  0  0  0  0  0  0  0  0
  -19.6998  -27.6709   21.3292 C   0  0  0  0  0  0  0  0  0  0  0  0
  -25.2432  -26.2243   19.1649 C   0  0  0  0  0  0  0  0  0  0  0  0
  -26.0829  -13.2899   23.5308 C   0  0  0  0  0  0  0  0  0  0  0  0
  -24.9173  -13.4621   21.4216 C   0  0  0  0  0  0  0  0  0  0  0  0
  -25.9398  -26.6265   18.0262 C   0  0  0  0  0  0  0  0  0  0  0  0
  -25.0494  -10.0891   21.5837 C   0  0  0  0  0  0  0  0  0  0  0  0
  -24.7918   -9.0908   20.6442 C   0  0  0  0  0  0  0  0  0  0  0  0
  -27.0856  -28.3040   19.3271 C   0  0  0  0  0  0  0  0  0  0  0  0
  -29.8997  -24.0641   17.2440 C   0  0  0  0  0  0  0  0  0  0  0  0
  -22.4327   -9.6017   20.7481 C   0  0  0  0  0  0  0  0  0  0  0  0
  -30.3653  -22.0751   16.3478 C   0  0  0  0  0  0  0  0  0  0  0  0
  -26.7645  -14.9422   21.9052 C   0  0  0  0  0  0  0  0  0  0  0  0
  -28.8597  -15.9183   20.8259 C   0  0  0  0  0  0  0  0  0  0  0  0
  -19.0001  -28.3940   23.5371 C   0  0  0  0  0  0  0  0  0  0  0  0
  -25.4549  -26.8671   20.3930 C   0  0  0  0  0  0  0  0  0  0  0  0
  -19.9480  -28.4132   22.4962 C   0  0  0  0  0  0  0  0  0  0  0  0
  -26.3923  -27.9063   20.4805 C   0  0  0  0  0  0  0  0  0  0  0  0
  -29.7105  -22.6703   17.4008 C   0  0  0  0  0  0  0  0  0  0  0  0
  -25.0786  -12.8539   22.6665 C   0  0  0  0  0  0  0  0  0  0  0  0
  -26.8591  -27.6684   18.1066 C   0  0  0  0  0  0  0  0  0  0  0  0
  -23.9986  -10.8437   22.1055 C   0  0  0  0  0  0  0  0  0  0  0  0
  -23.4835   -8.8471   20.2264 C   0  0  0  0  0  0  0  0  0  0  0  0
  -22.6903  -10.6000   21.6877 C   0  0  0  0  0  0  0  0  0  0  0  0
  -27.6346  -16.0212   21.5116 C   0  0  0  0  0  0  0  0  0  0  0  0
  -29.2892  -17.2162   20.6935 C   0  0  0  0  0  0  0  0  0  0  0  0
  -30.6567  -24.2213   16.1064 C   0  0  0  0  0  0  0  0  0  0  0  0
  -29.5480  -14.7537   20.3509 C   0  0  0  0  0  0  0  0  0  0  0  0
  -23.6388  -28.5500   22.3864 C   0  0  0  0  0  0  0  0  0  0  0  0
  -29.4340  -26.9827   15.9809 C   0  0  0  0  0  0  0  0  0  0  0  0
  -26.2803  -28.4407   24.2660 C   0  0  0  0  0  0  0  0  0  0  0  0
  -29.6676  -28.0869   24.4852 C   0  0  0  0  0  0  0  0  0  0  0  0
  -28.3237  -22.5687   19.5015 C   0  0  0  0  0  0  0  0  0  0  0  0
  -19.1859  -29.2060   24.7944 C   0  0  0  0  0  0  0  0  0  0  0  0
  -24.7150  -26.4036   21.6178 C   0  0  0  0  0  0  0  0  0  0  0  0
  -26.6710  -28.6155   21.7796 C   0  0  0  0  0  0  0  0  0  0  0  0
  -20.6250  -29.6641   25.0165 C   0  0  0  0  0  0  0  0  0  0  0  0
  -27.5776  -21.4840   22.8097 C   0  0  0  0  0  0  0  0  0  0  0  0
  -21.2062  -30.2412   23.7296 C   0  0  0  0  0  0  0  0  0  0  0  0
  -27.6267  -19.9576   22.7104 C   0  0  0  0  0  0  0  0  0  0  0  0
  -26.9902  -22.1157   21.5488 C   0  0  0  0  0  0  0  0  0  0  0  0
  -27.6780  -20.1770   20.1933 C   0  0  0  0  0  0  0  0  0  0  0  0
  -21.2442  -29.1845   22.6190 C   0  0  1  0  0  0  0  0  0  0  0  0
  -24.6333  -27.4699   22.7058 C   0  0  1  0  0  0  0  0  0  0  0  0
  -28.3222  -19.4993   21.4136 C   0  0  2  0  0  0  0  0  0  0  0  0
  -29.5598  -29.3549   16.8352 C   0  0  0  0  0  0  0  0  0  0  0  0
  -31.5439  -28.0812   26.1516 C   0  0  0  0  0  0  0  0  0  0  0  0
  -26.1196  -31.4819   24.4536 C   0  0  0  0  0  0  0  0  0  0  0  0
  -28.4787  -31.4853   25.2920 C   0  0  0  0  0  0  0  0  0  0  0  0
  -26.6937  -30.3333   26.5996 C   0  0  0  0  0  0  0  0  0  0  0  0
  -30.4081  -25.3007   23.8161 C   0  0  0  0  0  0  0  0  0  0  0  0
  -30.9220  -26.6964   15.9367 C   0  0  0  0  0  0  0  0  0  0  0  0
  -28.9634  -27.9732   17.0412 C   0  0  1  0  0  0  0  0  0  1  0  0
  -27.5065  -29.3043   24.4380 C   0  0  1  0  0  0  0  0  0  0  0  0
  -30.5345  -27.2334   25.3932 C   0  0  2  0  0  0  0  0  0  0  0  0
  -27.1932  -30.6393   25.1707 C   0  0  0  0  0  0  0  0  0  0  0  0
  -27.3069  -17.2846   21.7953 N   0  0  0  0  0  0  0  0  0  0  0  0
  -28.3326  -17.9875   21.2853 N   0  0  0  0  0  0  0  0  0  0  0  0
  -25.9178  -28.1301   22.9477 N   0  0  0  0  0  0  0  0  0  0  0  0
  -27.7015  -21.6386   20.3608 N   0  0  0  0  0  0  0  0  0  0  0  0
  -30.3880  -17.7615   20.1300 N   0  0  0  0  0  0  0  0  0  0  0  0
  -28.9662  -13.4977   20.5708 N   0  0  0  0  0  0  0  0  0  0  0  0
  -28.9972  -21.9963   18.4229 N   0  0  0  0  0  0  0  0  0  0  0  0
  -31.1459  -25.3519   15.4687 N   0  0  0  0  0  0  0  0  0  0  0  0
  -22.3552  -28.2792   22.8205 N   0  0  0  0  0  0  0  0  0  0  0  0
  -28.5002  -28.4733   25.1091 N   0  0  0  0  0  0  0  0  0  0  0  0
  -31.2787  -26.2186   24.5948 N   0  3  0  0  0  0  0  0  0  0  0  0
  -30.6544  -14.8235   19.7639 O   0  0  0  0  0  0  0  0  0  0  0  0
  -24.0090  -29.5554   21.7914 O   0  0  0  0  0  0  0  0  0  0  0  0
  -28.6394  -26.4430   15.2100 O   0  0  0  0  0  0  0  0  0  0  0  0
  -25.6708  -28.0501   25.2648 O   0  0  0  0  0  0  0  0  0  0  0  0
  -29.9950  -28.3843   23.3385 O   0  0  0  0  0  0  0  0  0  0  0  0
  -28.2865  -23.7819   19.7222 O   0  0  0  0  0  0  0  0  0  0  0  0
  -30.9448  -23.0136   15.5541 O   0  0  0  0  0  0  0  0  0  0  0  0
  -24.2561  -11.8350   23.0375 O   0  0  0  0  0  0  0  0  0  0  0  0
  -27.5400  -28.0635   16.9965 O   0  0  0  0  0  0  0  0  0  1  0  0
  -23.2365   -7.8895   19.3231 F   0  0  0  0  0  0  0  0  0  0  0  0
  -21.6769  -11.3224   22.1845 F   0  0  0  0  0  0  0  0  0  0  0  0
  1  2  1  0  0  0  0
  1  5  2  0  0  0  0
  2  6  2  0  0  0  0
  3  8  2  0  0  0  0
  3 17  1  0  0  0  0
  4  9  1  0  0  0  0
  4 17  2  0  0  0  0
  5 19  1  0  0  0  0
  6 21  1  0  0  0  0
  7 10  2  0  0  0  0
  7 20  1  0  0  0  0
  8 24  1  0  0  0  0
  9 24  2  0  0  0  0
 10 25  1  0  0  0  0
 11 12  2  0  0  0  0
 11 26  1  0  0  0  0
 12 27  1  0  0  0  0
 13 22  1  0  0  0  0
 13 25  2  0  0  0  0
 14 23  1  0  0  0  0
 14 31  2  0  0  0  0
 15 27  2  0  0  0  0
 15 28  1  0  0  0  0
 16 23  2  0  0  0  0
 16 78  1  0  0  0  0
 17 29  1  0  0  0  0
 18 29  1  0  0  0  0
 18 30  2  0  0  0  0
 18 32  1  0  0  0  0
 19 21  2  0  0  0  0
 19 38  1  0  0  0  0
 20 22  2  0  0  0  0
 20 39  1  0  0  0  0
 21 47  1  0  0  0  0
 22 40  1  0  0  0  0
 23 67  1  0  0  0  0
 24 79  1  0  0  0  0
 25 80  1  0  0  0  0
 26 28  2  0  0  0  0
 26 79  1  0  0  0  0
 27 81  1  0  0  0  0
 28 82  1  0  0  0  0
 29 61  2  0  0  0  0
 30 62  1  0  0  0  0
 30 65  1  0  0  0  0
 31 68  1  0  0  0  0
 31 78  1  0  0  0  0
 32 66  1  0  0  0  0
 32 72  2  0  0  0  0
 33 48  1  0  0  0  0
 33 69  1  0  0  0  0
 33 73  2  0  0  0  0
 34 56  1  0  0  0  0
 34 57  1  0  0  0  0
 34 74  2  0  0  0  0
 35 58  1  0  0  0  0
 35 63  1  0  0  0  0
 35 75  2  0  0  0  0
 36 59  1  0  0  0  0
 36 70  1  0  0  0  0
 36 76  2  0  0  0  0
 37 64  1  0  0  0  0
 37 67  1  0  0  0  0
 37 77  2  0  0  0  0
 38 41  1  0  0  0  0
 39 48  1  0  0  0  0
 40 63  1  0  0  0  0
 41 43  1  0  0  0  0
 42 44  1  0  0  0  0
 42 45  1  0  0  0  0
 43 47  1  0  0  0  0
 44 49  1  0  0  0  0
 45 64  1  0  0  0  0
 46 49  1  0  0  0  0
 46 64  1  0  0  0  0
 47 69  1  0  0  0  0
 48 63  1  0  0  0  0
 49 62  1  0  0  0  0
 50 57  1  0  0  0  0
 51 59  1  0  0  0  0
 52 60  1  0  0  0  0
 53 60  1  0  0  0  0
 54 60  1  0  0  0  0
 55 71  1  0  0  0  0
 56 68  1  0  0  0  0
 57 80  1  0  0  0  0
 58 60  1  0  0  0  0
 58 70  1  0  0  0  0
 59 71  1  0  0  0  0
 61 62  1  0  0  0  0
M  CHG  1  71   1
M  ISO  4  37 100  57 101  67 100  80 101
M  END
> <Batch ID>
0149

> <Smiles>
CNC(C)C(=O)NC(C(=O)N1Cc2cc([101O:1][101CH:1](C)C(=O)CNc3cc([100NH:0][100C:0](=O)N4CCCC(n5nc(-c6ccc(Oc7ccc(F)cc7F)cc6)c(C(N)=O)c5N)C4)co3)ccc2CC1C(=O)NC1CCCc2ccccc21)C(C)(C)C

> <Shape>
0.256

> <Color>
0.067

> <Negative vol penalty>
0.000

$$$$

  -OEChem-04052303193D

 84 93  0     1  0  0  0  0  0999 V2000
  -27.7441  -35.0136   22.8729 C   0  0  0  0  0  0  0  0  0  0  0  0
  -27.9162  -33.6773   23.2198 C   0  0  0  0  0  0  0  0  0  0  0  0
  -22.9668  -10.5204   21.4339 C   0  0  0  0  0  0  0  0  0  0  0  0
  -24.7066   -8.8560   21.6344 C   0  0  0  0  0  0  0  0  0  0  0  0
  -26.5610  -35.4273   22.2623 C   0  0  0  0  0  0  0  0  0  0  0  0
  -26.9046  -32.7542   22.9572 C   0  0  0  0  0  0  0  0  0  0  0  0
  -30.3775  -17.9446   22.4447 C   0  0  0  0  0  0  0  0  0  0  0  0
  -28.6724  -28.4532   20.9516 C   0  0  0  0  0  0  0  0  0  0  0  0
  -30.7396  -19.1830   22.9790 C   0  0  0  0  0  0  0  0  0  0  0  0
  -22.0039   -9.5115   21.4143 C   0  0  0  0  0  0  0  0  0  0  0  0
  -23.7436   -7.8471   21.6148 C   0  0  0  0  0  0  0  0  0  0  0  0
  -29.2678  -27.5421   21.8228 C   0  0  0  0  0  0  0  0  0  0  0  0
  -21.7182   -4.8501   21.9807 C   0  0  0  0  0  0  0  0  0  0  0  0
  -21.8384   -3.8197   22.9131 C   0  0  0  0  0  0  0  0  0  0  0  0
  -29.4132  -20.3475   21.3028 C   0  0  0  0  0  0  0  0  0  0  0  0
  -27.2289  -26.2534   21.8590 C   0  0  0  0  0  0  0  0  0  0  0  0
  -21.6675   -5.4257   24.7099 C   0  0  0  0  0  0  0  0  0  0  0  0
  -24.3182  -10.1927   21.5439 C   0  0  0  0  0  0  0  0  0  0  0  0
  -25.8226  -11.9024   22.6933 C   0  0  0  0  0  0  0  0  0  0  0  0
  -25.5383  -34.5070   21.9833 C   0  0  0  0  0  0  0  0  0  0  0  0
  -27.3449  -28.2769   20.5355 C   0  0  0  0  0  0  0  0  0  0  0  0
  -29.5394  -17.9283   21.3438 C   0  0  0  0  0  0  0  0  0  0  0  0
  -25.7061  -33.1562   22.3435 C   0  0  0  0  0  0  0  0  0  0  0  0
  -29.0625  -19.1156   20.7796 C   0  0  0  0  0  0  0  0  0  0  0  0
  -26.6197  -27.1624   20.9805 C   0  0  0  0  0  0  0  0  0  0  0  0
  -30.2605  -20.3755   22.4127 C   0  0  0  0  0  0  0  0  0  0  0  0
  -22.3922   -8.1749   21.5048 C   0  0  0  0  0  0  0  0  0  0  0  0
  -28.5452  -26.4435   22.2789 C   0  0  0  0  0  0  0  0  0  0  0  0
  -21.5728   -6.1683   22.4129 C   0  0  0  0  0  0  0  0  0  0  0  0
  -21.8130   -4.1075   24.2777 C   0  0  0  0  0  0  0  0  0  0  0  0
  -21.5474   -6.4561   23.7775 C   0  0  0  0  0  0  0  0  0  0  0  0
  -25.3135  -11.2344   21.5636 C   0  0  0  0  0  0  0  0  0  0  0  0
  -26.7350  -12.7934   22.1832 C   0  0  0  0  0  0  0  0  0  0  0  0
  -25.4998  -11.7326   24.0799 C   0  0  0  0  0  0  0  0  0  0  0  0
  -24.6582  -29.9481   20.8392 C   0  0  0  0  0  0  0  0  0  0  0  0
  -23.4732  -27.6635   18.8646 C   0  0  0  0  0  0  0  0  0  0  0  0
  -30.2676  -22.8906   22.5488 C   0  0  0  0  0  0  0  0  0  0  0  0
  -23.7073  -24.4865   17.6405 C   0  0  0  0  0  0  0  0  0  0  0  0
  -27.8474  -16.7237   18.3079 C   0  0  0  0  0  0  0  0  0  0  0  0
  -24.2580  -35.0099   21.3648 C   0  0  0  0  0  0  0  0  0  0  0  0
  -26.7257  -29.2544   19.5744 C   0  0  0  0  0  0  0  0  0  0  0  0
  -28.9932  -16.7477   20.6086 C   0  0  0  0  0  0  0  0  0  0  0  0
  -28.1887  -18.8178   19.6082 C   0  0  0  0  0  0  0  0  0  0  0  0
  -25.1983  -26.9167   20.5475 C   0  0  0  0  0  0  0  0  0  0  0  0
  -23.3868  -33.9006   20.7809 C   0  0  0  0  0  0  0  0  0  0  0  0
  -28.6839  -13.2359   17.5349 C   0  0  0  0  0  0  0  0  0  0  0  0
  -23.2694  -32.7405   21.7644 C   0  0  0  0  0  0  0  0  0  0  0  0
  -27.8843  -12.4608   18.5846 C   0  0  0  0  0  0  0  0  0  0  0  0
  -28.0040  -14.5483   17.1499 C   0  0  0  0  0  0  0  0  0  0  0  0
  -26.8536  -14.6376   19.3259 C   0  0  0  0  0  0  0  0  0  0  0  0
  -24.6420  -32.1204   22.0524 C   0  0  1  0  0  0  0  0  0  0  0  0
  -25.2009  -29.2546   19.6218 C   0  0  1  0  0  0  0  0  0  0  0  0
  -27.5438  -13.3503   19.7959 C   0  0  1  0  0  0  0  0  0  0  0  0
  -22.5736  -22.8928   16.0682 C   0  0  0  0  0  0  0  0  0  0  0  0
  -21.2681  -27.2051   20.9231 C   0  0  0  0  0  0  0  0  0  0  0  0
  -20.7584  -25.0315   19.7901 C   0  0  0  0  0  0  0  0  0  0  0  0
  -20.4969  -27.1767   18.5442 C   0  0  0  0  0  0  0  0  0  0  0  0
  -26.1198  -24.2655   15.9406 C   0  0  0  0  0  0  0  0  0  0  0  0
  -30.9038  -23.9562   23.4342 C   0  0  0  0  0  0  0  0  0  0  0  0
  -30.5345  -25.3733   23.0228 C   0  0  0  0  0  0  0  0  0  1  0  0
  -22.8182  -26.3174   19.0589 C   0  0  1  0  0  0  0  0  0  0  0  0
  -23.6585  -23.9473   16.2223 C   0  0  2  0  0  0  0  0  0  0  0  0
  -21.3615  -26.4381   19.5889 C   0  0  0  0  0  0  0  0  0  0  0  0
  -25.8571  -11.6644   20.4218 N   0  0  0  0  0  0  0  0  0  0  0  0
  -26.7173  -12.6122   20.8315 N   0  0  0  0  0  0  0  0  0  0  0  0
  -24.6349  -27.9041   19.6119 N   0  0  0  0  0  0  0  0  0  0  0  0
  -28.2264  -17.3501   19.4978 N   0  0  0  0  0  0  0  0  0  0  0  0
  -27.6832  -15.3353   18.3395 N   0  0  0  0  0  0  0  0  0  0  0  0
  -27.5425  -13.7064   22.7634 N   0  0  0  0  0  0  0  0  0  0  0  0
  -24.5402  -10.7729   24.4299 N   0  0  0  0  0  0  0  0  0  0  0  0
  -30.6359  -21.6011   22.9653 N   0  0  0  0  0  0  0  0  0  0  0  0
  -25.0512  -31.2676   20.9571 N   0  0  0  0  0  0  0  0  0  0  0  0
  -22.9340  -25.6191   17.7832 N   0  0  0  0  0  0  0  0  0  0  0  0
  -24.9662  -23.3333   15.8563 N   0  3  0  0  0  0  0  0  0  0  0  0
  -26.0341  -12.4233   24.9805 O   0  0  0  0  0  0  0  0  0  0  0  0
  -23.9350  -29.3322   21.6134 O   0  0  0  0  0  0  0  0  0  0  0  0
  -22.9766  -28.4692   18.0735 O   0  0  0  0  0  0  0  0  0  0  0  0
  -29.5365  -23.1762   21.6064 O   0  0  0  0  0  0  0  0  0  0  0  0
  -24.3627  -23.9539   18.5334 O   0  0  0  0  0  0  0  0  0  0  0  0
  -27.7166  -17.3635   17.2566 O   0  0  0  0  0  0  0  0  0  0  0  0
  -21.4528   -7.1901   21.4859 O   0  0  0  0  0  0  0  0  0  0  0  0
  -29.1279  -25.5466   23.1358 O   0  0  0  0  0  0  0  0  0  1  0  0
  -21.9269   -3.1177   25.1730 F   0  0  0  0  0  0  0  0  0  0  0  0
  -21.4067   -7.7205   24.1987 F   0  0  0  0  0  0  0  0  0  0  0  0
  1  2  1  0  0  0  0
  1  5  2  0  0  0  0
  2  6  2  0  0  0  0
  3 10  2  0  0  0  0
  3 18  1  0  0  0  0
  4 11  1  0  0  0  0
  4 18  2  0  0  0  0
  5 20  1  0  0  0  0
  6 23  1  0  0  0  0
  7  9  2  0  0  0  0
  7 22  1  0  0  0  0
  8 12  2  0  0  0  0
  8 21  1  0  0  0  0
  9 26  1  0  0  0  0
 10 27  1  0  0  0  0
 11 27  2  0  0  0  0
 12 28  1  0  0  0  0
 13 14  2  0  0  0  0
 13 29  1  0  0  0  0
 14 30  1  0  0  0  0
 15 24  1  0  0  0  0
 15 26  2  0  0  0  0
 16 25  1  0  0  0  0
 16 28  2  0  0  0  0
 17 30  2  0  0  0  0
 17 31  1  0  0  0  0
 18 32  1  0  0  0  0
 19 32  1  0  0  0  0
 19 33  2  0  0  0  0
 19 34  1  0  0  0  0
 20 23  2  0  0  0  0
 20 40  1  0  0  0  0
 21 25  2  0  0  0  0
 21 41  1  0  0  0  0
 22 24  2  0  0  0  0
 22 42  1  0  0  0  0
 23 51  1  0  0  0  0
 24 43  1  0  0  0  0
 25 44  1  0  0  0  0
 26 71  1  0  0  0  0
 27 81  1  0  0  0  0
 28 82  1  0  0  0  0
 29 31  2  0  0  0  0
 29 81  1  0  0  0  0
 30 83  1  0  0  0  0
 31 84  1  0  0  0  0
 32 64  2  0  0  0  0
 33 65  1  0  0  0  0
 33 69  1  0  0  0  0
 34 70  1  0  0  0  0
 34 75  2  0  0  0  0
 35 52  1  0  0  0  0
 35 72  1  0  0  0  0
 35 76  2  0  0  0  0
 36 61  1  0  0  0  0
 36 66  1  0  0  0  0
 36 77  2  0  0  0  0
 37 59  1  0  0  0  0
 37 71  1  0  0  0  0
 37 78  2  0  0  0  0
 38 62  1  0  0  0  0
 38 73  1  0  0  0  0
 38 79  2  0  0  0  0
 39 67  1  0  0  0  0
 39 68  1  0  0  0  0
 39 80  2  0  0  0  0
 40 45  1  0  0  0  0
 41 52  1  0  0  0  0
 42 67  1  0  0  0  0
 43 67  1  0  0  0  0
 44 66  1  0  0  0  0
 45 47  1  0  0  0  0
 46 48  1  0  0  0  0
 46 49  1  0  0  0  0
 47 51  1  0  0  0  0
 48 53  1  0  0  0  0
 49 68  1  0  0  0  0
 50 53  1  0  0  0  0
 50 68  1  0  0  0  0
 51 72  1  0  0  0  0
 52 66  1  0  0  0  0
 53 65  1  0  0  0  0
 54 62  1  0  0  0  0
 55 63  1  0  0  0  0
 56 63  1  0  0  0  0
 57 63  1  0  0  0  0
 58 74  1  0  0  0  0
 59 60  1  0  0  0  0
 60 82  1  0  0  0  0
 61 63  1  0  0  0  0
 61 73  1  0  0  0  0
 62 74  1  0  0  0  0
 64 65  1  0  0  0  0
M  CHG  1  74   1
M  ISO  4  39 100  60 101  67 100  82 101
M  END
> <Batch ID>
0149

> <Smiles>
CNC(C)C(=O)NC(C(=O)N1Cc2cc([101O:1][101CH2:1]CC(=O)Nc3ccc4c(c3)C[100N:0]([100C:0](=O)N3CCCC(n5nc(-c6ccc(Oc7ccc(F)cc7F)cc6)c(C(N)=O)c5N)C3)C4)ccc2CC1C(=O)NC1CCCc2ccccc21)C(C)(C)C

> <Shape>
0.267

> <Color>
0.094

> <Negative vol penalty>
0.000

$$$$

  -OEChem-04052303193D

 84 93  0     1  0  0  0  0  0999 V2000
  -27.1959  -38.1959   24.9419 C   0  0  0  0  0  0  0  0  0  0  0  0
  -27.0561  -37.1653   25.8658 C   0  0  0  0  0  0  0  0  0  0  0  0
  -22.9592  -10.6912   21.1343 C   0  0  0  0  0  0  0  0  0  0  0  0
  -24.5707   -8.9075   21.3764 C   0  0  0  0  0  0  0  0  0  0  0  0
  -26.4741  -38.1642   23.7495 C   0  0  0  0  0  0  0  0  0  0  0  0
  -26.1936  -36.1028   25.5983 C   0  0  0  0  0  0  0  0  0  0  0  0
  -27.6286  -28.4266   25.3879 C   0  0  0  0  0  0  0  0  0  0  0  0
  -22.1524  -10.0938   22.1026 C   0  0  0  0  0  0  0  0  0  0  0  0
  -23.7639   -8.3101   22.3448 C   0  0  0  0  0  0  0  0  0  0  0  0
  -27.7939  -27.0592   25.1665 C   0  0  0  0  0  0  0  0  0  0  0  0
  -20.9719   -6.4053   22.4321 C   0  0  0  0  0  0  0  0  0  0  0  0
  -20.7681   -5.0281   22.3461 C   0  0  0  0  0  0  0  0  0  0  0  0
  -30.0739  -19.0772   21.2623 C   0  0  0  0  0  0  0  0  0  0  0  0
  -30.4426  -17.7390   20.9406 C   0  0  0  0  0  0  0  0  0  0  0  0
  -25.9140  -27.0675   23.6452 C   0  0  0  0  0  0  0  0  0  0  0  0
  -21.7537   -4.7456   24.5338 C   0  0  0  0  0  0  0  0  0  0  0  0
  -24.1683  -10.0981   20.7711 C   0  0  0  0  0  0  0  0  0  0  0  0
  -24.6631  -10.9857   18.4312 C   0  0  0  0  0  0  0  0  0  0  0  0
  -25.6096  -37.0960   23.4629 C   0  0  0  0  0  0  0  0  0  0  0  0
  -26.6137  -29.1236   24.7263 C   0  0  0  0  0  0  0  0  0  0  0  0
  -25.4585  -36.0574   24.4015 C   0  0  0  0  0  0  0  0  0  0  0  0
  -25.7514  -28.4397   23.8536 C   0  0  0  0  0  0  0  0  0  0  0  0
  -22.5547   -8.9033   22.7080 C   0  0  0  0  0  0  0  0  0  0  0  0
  -26.9385  -26.3814   24.2975 C   0  0  0  0  0  0  0  0  0  0  0  0
  -21.5668   -6.9527   23.5689 C   0  0  0  0  0  0  0  0  0  0  0  0
  -21.1589   -4.1983   23.3969 C   0  0  0  0  0  0  0  0  0  0  0  0
  -21.9577   -6.1228   24.6197 C   0  0  0  0  0  0  0  0  0  0  0  0
  -25.0019  -10.7144   19.7704 C   0  0  0  0  0  0  0  0  0  0  0  0
  -28.7174  -19.2057   21.4650 C   0  0  0  0  0  0  0  0  0  0  0  0
  -25.7881  -11.5715   17.9044 C   0  0  0  0  0  0  0  0  0  0  0  0
  -29.3538  -16.8955   20.9099 C   0  0  0  0  0  0  0  0  0  0  0  0
  -23.4407  -10.7310   17.7266 C   0  0  0  0  0  0  0  0  0  0  0  0
  -24.9101  -32.4132   24.1332 C   0  0  0  0  0  0  0  0  0  0  0  0
  -25.0790  -30.9950   21.4183 C   0  0  0  0  0  0  0  0  0  0  0  0
  -25.8388  -29.2891   18.5636 C   0  0  0  0  0  0  0  0  0  0  0  0
  -30.3086  -14.6387   20.3256 C   0  0  0  0  0  0  0  0  0  0  0  0
  -24.8146  -37.1292   22.1817 C   0  0  0  0  0  0  0  0  0  0  0  0
  -26.3602  -30.5845   24.9816 C   0  0  0  0  0  0  0  0  0  0  0  0
  -24.6520  -29.2234   23.1902 C   0  0  0  0  0  0  0  0  0  0  0  0
  -24.2055  -35.7803   21.8077 C   0  0  0  0  0  0  0  0  0  0  0  0
  -30.5505  -11.6527   18.4015 C   0  0  0  0  0  0  0  0  0  0  0  0
  -23.5345  -35.1429   23.0203 C   0  0  0  0  0  0  0  0  0  0  0  0
  -28.0271  -21.5241   20.7223 C   0  0  0  0  0  0  0  0  0  0  0  0
  -28.3481  -21.0239   23.1861 C   0  0  0  0  0  0  0  0  0  0  0  0
  -29.1230  -11.1011   18.4072 C   0  0  0  0  0  0  0  0  0  0  0  0
  -27.2181  -22.7731   21.0833 C   0  0  0  0  0  0  0  0  0  0  0  0
  -27.5361  -22.2715   23.5434 C   0  0  0  0  0  0  0  0  0  0  0  0
  -30.9131  -12.3016   19.7361 C   0  0  0  0  0  0  0  0  0  0  0  0
  -28.5422  -12.7726   20.2115 C   0  0  0  0  0  0  0  0  0  0  0  0
  -24.5516  -34.8754   24.1364 C   0  0  1  0  0  0  0  0  0  0  0  0
  -27.9291  -20.4530   21.8211 C   0  0  0  0  0  0  0  0  0  0  0  0
  -25.8797  -31.3413   23.7304 C   0  0  1  0  0  0  0  0  0  0  0  0
  -28.1088  -12.1669   18.8666 C   0  0  2  0  0  0  0  0  0  0  0  0
  -27.6136  -23.3497   22.4510 C   0  0  0  0  0  0  0  0  0  0  0  0
  -25.5688  -29.4007   16.0712 C   0  0  0  0  0  0  0  0  0  0  0  0
  -22.1607  -30.1536   21.7005 C   0  0  0  0  0  0  0  0  0  0  0  0
  -22.2289  -29.3757   19.3217 C   0  0  0  0  0  0  0  0  0  0  0  0
  -22.6033  -31.7834   19.8559 C   0  0  0  0  0  0  0  0  0  0  0  0
  -28.7662  -29.3502   18.1328 C   0  0  0  0  0  0  0  0  0  0  0  0
  -26.7231  -24.5423   22.8045 C   0  0  0  0  0  0  0  0  0  1  0  0
  -24.4001  -30.0955   20.4167 C   0  0  1  0  0  0  0  0  0  0  0  0
  -26.4608  -29.7415   17.2548 C   0  0  2  0  0  0  0  0  0  0  0  0
  -22.8667  -30.3418   20.3428 C   0  0  0  0  0  0  0  0  0  0  0  0
  -26.2450  -11.0963   20.0753 N   0  0  0  0  0  0  0  0  0  0  0  0
  -26.6971  -11.6135   18.9203 N   0  0  0  0  0  0  0  0  0  0  0  0
  -25.1670  -30.5239   22.7339 N   0  0  0  0  0  0  0  0  0  0  0  0
  -29.9104  -13.3033   20.1050 N   0  0  0  0  0  0  0  0  0  0  0  0
  -26.0787  -12.0495   16.6757 N   0  0  0  0  0  0  0  0  0  0  0  0
  -23.2932   -9.5033   17.0667 N   0  0  0  0  0  0  0  0  0  0  0  0
  -29.2639  -15.5077   20.6385 N   0  0  0  0  0  0  0  0  0  0  0  0
  -25.3328  -33.6948   23.8359 N   0  0  0  0  0  0  0  0  0  0  0  0
  -25.0987  -30.2931   19.1513 N   0  0  0  0  0  0  0  0  0  0  0  0
  -27.7816  -29.0811   17.0534 N   0  3  0  0  0  0  0  0  0  0  0  0
  -22.5135  -11.5739   17.6696 O   0  0  0  0  0  0  0  0  0  0  0  0
  -23.8549  -32.1017   24.6728 O   0  0  0  0  0  0  0  0  0  0  0  0
  -25.5154  -32.0886   21.0483 O   0  0  0  0  0  0  0  0  0  0  0  0
  -25.9910  -28.1570   19.0172 O   0  0  0  0  0  0  0  0  0  0  0  0
  -31.4858  -14.9913   20.2165 O   0  0  0  0  0  0  0  0  0  0  0  0
  -28.9604  -23.8233   22.3576 O   0  0  0  0  0  0  0  0  0  0  0  0
  -21.7678   -8.3202   23.6531 O   0  0  0  0  0  0  0  0  0  0  0  0
  -27.1084  -25.0473   24.0823 O   0  0  0  0  0  0  0  0  0  1  0  0
  -20.9617   -2.8760   23.3149 F   0  0  0  0  0  0  0  0  0  0  0  0
  -22.5286   -6.6430   25.7149 F   0  0  0  0  0  0  0  0  0  0  0  0
  -27.8945  -17.7170   21.2676 S   0  0  0  0  0  0  0  0  0  0  0  0
  1  2  1  0  0  0  0
  1  5  2  0  0  0  0
  2  6  2  0  0  0  0
  3  8  2  0  0  0  0
  3 17  1  0  0  0  0
  4  9  1  0  0  0  0
  4 17  2  0  0  0  0
  5 19  1  0  0  0  0
  6 21  1  0  0  0  0
  7 10  2  0  0  0  0
  7 20  1  0  0  0  0
  8 23  1  0  0  0  0
  9 23  2  0  0  0  0
 10 24  1  0  0  0  0
 11 12  2  0  0  0  0
 11 25  1  0  0  0  0
 12 26  1  0  0  0  0
 13 14  1  0  0  0  0
 13 29  2  0  0  0  0
 14 31  2  0  0  0  0
 15 22  1  0  0  0  0
 15 24  2  0  0  0  0
 16 26  2  0  0  0  0
 16 27  1  0  0  0  0
 17 28  1  0  0  0  0
 18 28  1  0  0  0  0
 18 30  2  0  0  0  0
 18 32  1  0  0  0  0
 19 21  2  0  0  0  0
 19 37  1  0  0  0  0
 20 22  2  0  0  0  0
 20 38  1  0  0  0  0
 21 50  1  0  0  0  0
 22 39  1  0  0  0  0
 23 80  1  0  0  0  0
 24 81  1  0  0  0  0
 25 27  2  0  0  0  0
 25 80  1  0  0  0  0
 26 82  1  0  0  0  0
 27 83  1  0  0  0  0
 28 64  2  0  0  0  0
 29 51  1  0  0  0  0
 29 84  1  0  0  0  0
 30 65  1  0  0  0  0
 30 68  1  0  0  0  0
 31 70  1  0  0  0  0
 31 84  1  0  0  0  0
 32 69  1  0  0  0  0
 32 74  2  0  0  0  0
 33 52  1  0  0  0  0
 33 71  1  0  0  0  0
 33 75  2  0  0  0  0
 34 61  1  0  0  0  0
 34 66  1  0  0  0  0
 34 76  2  0  0  0  0
 35 62  1  0  0  0  0
 35 72  1  0  0  0  0
 35 77  2  0  0  0  0
 36 67  1  0  0  0  0
 36 70  1  0  0  0  0
 36 78  2  0  0  0  0
 37 40  1  0  0  0  0
 38 52  1  0  0  0  0
 39 66  1  0  0  0  0
 40 42  1  0  0  0  0
 41 45  1  0  0  0  0
 41 48  1  0  0  0  0
 42 50  1  0  0  0  0
 43 46  1  0  0  0  0
 43 51  1  0  0  0  0
 44 47  1  0  0  0  0
 44 51  1  0  0  0  0
 45 53  1  0  0  0  0
 46 54  1  0  0  0  0
 47 54  1  0  0  0  0
 48 67  1  0  0  0  0
 49 53  1  0  0  0  0
 49 67  1  0  0  0  0
 50 71  1  0  0  0  0
 52 66  1  0  0  0  0
 53 65  1  0  0  0  0
 54 60  1  0  0  0  0
 54 79  1  0  0  0  0
 55 62  1  0  0  0  0
 56 63  1  0  0  0  0
 57 63  1  0  0  0  0
 58 63  1  0  0  0  0
 59 73  1  0  0  0  0
 60 81  1  0  0  0  0
 61 63  1  0  0  0  0
 61 72  1  0  0  0  0
 62 73  1  0  0  0  0
 64 65  1  0  0  0  0
M  CHG  1  73   1
M  ISO  4  36 100  60 101  70 100  81 101
M  END
> <Batch ID>
0149

> <Smiles>
CNC(C)C(=O)NC(C(=O)N1Cc2cc([101O:1][101CH2:1]C3(O)CCC(c4ccc([100NH:0][100C:0](=O)N5CCCC(n6nc(-c7ccc(Oc8ccc(F)cc8F)cc7)c(C(N)=O)c6N)C5)s4)CC3)ccc2CC1C(=O)NC1CCCc2ccccc21)C(C)(C)C

> <Shape>
0.314

> <Color>
0.086

> <Negative vol penalty>
0.000

$$$$
