
  -OEChem-04052303213D

 82 91  0     1  0  0  0  0  0999 V2000
  -30.3661  -24.7701   18.0121 C   0  0  0  0  0  0  0  0  0  0  0  0
  -28.9766  -24.8029   18.0727 C   0  0  0  0  0  0  0  0  0  0  0  0
  -24.4229  -12.3055   20.0463 C   0  0  0  0  0  0  0  0  0  0  0  0
  -25.3088  -14.0817   21.4238 C   0  0  0  0  0  0  0  0  0  0  0  0
  -31.1210  -25.3215   19.0465 C   0  0  0  0  0  0  0  0  0  0  0  0
  -28.3412  -25.3862   19.1684 C   0  0  0  0  0  0  0  0  0  0  0  0
  -23.0746  -28.5114   19.1360 C   0  0  0  0  0  0  0  0  0  0  0  0
  -25.7138  -11.9905   19.6222 C   0  0  0  0  0  0  0  0  0  0  0  0
  -26.5998  -13.7666   20.9998 C   0  0  0  0  0  0  0  0  0  0  0  0
  -21.7652  -28.1461   19.4455 C   0  0  0  0  0  0  0  0  0  0  0  0
  -28.9524  -11.4438   21.7001 C   0  0  0  0  0  0  0  0  0  0  0  0
  -29.9538  -11.3808   22.6690 C   0  0  0  0  0  0  0  0  0  0  0  0
  -22.0566  -29.0152   21.6769 C   0  0  0  0  0  0  0  0  0  0  0  0
  -18.6704  -22.4408   20.5187 C   0  0  0  0  0  0  0  0  0  0  0  0
  -31.1656  -13.1337   21.5306 C   0  0  0  0  0  0  0  0  0  0  0  0
  -24.2204  -13.3512   20.9470 C   0  0  0  0  0  0  0  0  0  0  0  0
  -22.2061  -13.1527   22.4998 C   0  0  0  0  0  0  0  0  0  0  0  0
  -30.4946  -25.9204   20.1508 C   0  0  0  0  0  0  0  0  0  0  0  0
  -23.8897  -29.1226   20.0996 C   0  0  0  0  0  0  0  0  0  0  0  0
  -29.0885  -25.9449   20.2192 C   0  0  0  0  0  0  0  0  0  0  0  0
  -23.3751  -29.3897   21.3763 C   0  0  0  0  0  0  0  0  0  0  0  0
  -18.0973  -21.2181   20.2318 C   0  0  0  0  0  0  0  0  0  0  0  0
  -26.8023  -12.7210   20.0990 C   0  0  0  0  0  0  0  0  0  0  0  0
  -21.2569  -28.3954   20.7170 C   0  0  0  0  0  0  0  0  0  0  0  0
  -29.0576  -12.3517   20.6464 C   0  0  0  0  0  0  0  0  0  0  0  0
  -31.0604  -12.2257   22.5843 C   0  0  0  0  0  0  0  0  0  0  0  0
  -30.1642  -13.1967   20.5616 C   0  0  0  0  0  0  0  0  0  0  0  0
  -22.8870  -13.6775   21.3849 C   0  0  0  0  0  0  0  0  0  0  0  0
  -16.8530  -21.0562   20.6960 C   0  0  0  0  0  0  0  0  0  0  0  0
  -20.9835  -13.7782   22.4810 C   0  0  0  0  0  0  0  0  0  0  0  0
  -17.7454  -23.1892   21.2486 C   0  0  0  0  0  0  0  0  0  0  0  0
  -22.6400  -12.1863   23.4659 C   0  0  0  0  0  0  0  0  0  0  0  0
  -19.3114  -19.0117   20.1808 C   0  0  0  0  0  0  0  0  0  0  0  0
  -26.6232  -28.3632   21.5332 C   0  0  0  0  0  0  0  0  0  0  0  0
  -26.3478  -31.3462   22.7774 C   0  0  0  0  0  0  0  0  0  0  0  0
  -18.9023  -25.3784   21.7102 C   0  0  0  0  0  0  0  0  0  0  0  0
  -24.3181  -33.9548   23.6276 C   0  0  0  0  0  0  0  0  0  0  0  0
  -31.3527  -26.4610   21.2671 C   0  0  0  0  0  0  0  0  0  0  0  0
  -25.2913  -29.5348   19.7417 C   0  0  0  0  0  0  0  0  0  0  0  0
  -24.2027  -30.0617   22.4402 C   0  0  0  0  0  0  0  0  0  0  0  0
  -16.7189  -19.6693   20.1516 C   0  0  0  0  0  0  0  0  0  0  0  0
  -30.6030  -27.3942   22.2143 C   0  0  0  0  0  0  0  0  0  0  0  0
  -17.8250  -15.7578   19.4947 C   0  0  0  0  0  0  0  0  0  0  0  0
  -29.2593  -26.7888   22.6076 C   0  0  0  0  0  0  0  0  0  0  0  0
  -18.9195  -14.8078   19.9791 C   0  0  0  0  0  0  0  0  0  0  0  0
  -18.4133  -17.0239   18.8776 C   0  0  0  0  0  0  0  0  0  0  0  0
  -20.4511  -16.8034   20.2675 C   0  0  0  0  0  0  0  0  0  0  0  0
  -18.1746  -19.8652   19.5968 C   0  0  1  0  0  0  0  0  0  0  0  0
  -28.3627  -26.5909   21.3794 C   0  0  1  0  0  0  0  0  0  0  0  0
  -26.1990  -29.6852   20.9586 C   0  0  1  0  0  0  0  0  0  0  0  0
  -19.8964  -15.5284   20.9246 C   0  0  2  0  0  0  0  0  0  0  0  0
  -24.3769  -36.2412   24.6602 C   0  0  0  0  0  0  0  0  0  0  0  0
  -26.6659  -30.0882   25.5390 C   0  0  0  0  0  0  0  0  0  0  0  0
  -25.7813  -32.2100   26.5308 C   0  0  0  0  0  0  0  0  0  0  0  0
  -27.9052  -32.2373   25.2226 C   0  0  0  0  0  0  0  0  0  0  0  0
  -23.2641  -35.2195   21.1683 C   0  0  0  0  0  0  0  0  0  0  0  0
  -18.5725  -26.6829   22.4268 C   0  0  0  0  0  0  0  0  0  0  0  0
  -19.7079  -27.6941   22.3797 C   0  0  0  0  0  0  0  0  0  1  0  0
  -25.7069  -31.9351   24.0109 C   0  0  1  0  0  0  0  0  0  0  0  0
  -24.4307  -35.4457   23.3652 C   0  0  2  0  0  0  0  0  0  0  0  0
  -26.4996  -31.6032   25.3066 C   0  0  0  0  0  0  0  0  0  0  0  0
  -22.1574  -14.5677   20.7072 N   0  0  0  0  0  0  0  0  0  0  0  0
  -21.0054  -14.6071   21.3981 N   0  0  0  0  0  0  0  0  0  0  0  0
  -19.3632  -17.6635   19.7934 N   0  0  0  0  0  0  0  0  0  0  0  0
  -25.5691  -30.4401   22.0438 N   0  0  0  0  0  0  0  0  0  0  0  0
  -19.9025  -13.6946   23.2853 N   0  0  0  0  0  0  0  0  0  0  0  0
  -23.9259  -11.6438   23.3372 N   0  0  0  0  0  0  0  0  0  0  0  0
  -17.8286  -24.4953   21.7870 N   0  0  0  0  0  0  0  0  0  0  0  0
  -27.7774  -27.8504   20.9727 N   0  0  0  0  0  0  0  0  0  0  0  0
  -25.5574  -33.3629   23.7511 N   0  0  0  0  0  0  0  0  0  0  0  0
  -23.3171  -35.9025   22.4864 N   0  3  0  0  0  0  0  0  0  0  0  0
  -21.9031  -11.8028   24.4058 O   0  0  0  0  0  0  0  0  0  0  0  0
  -20.1365  -19.5135   20.9592 O   0  0  0  0  0  0  0  0  0  0  0  0
  -25.9537  -27.8474   22.4206 O   0  0  0  0  0  0  0  0  0  0  0  0
  -27.4944  -31.6834   22.4721 O   0  0  0  0  0  0  0  0  0  0  0  0
  -19.9825  -25.1906   21.1604 O   0  0  0  0  0  0  0  0  0  0  0  0
  -23.2388  -33.3740   23.7180 O   0  0  0  0  0  0  0  0  0  0  0  0
  -28.0621  -12.4137   19.6857 O   0  0  0  0  0  0  0  0  0  0  0  0
  -19.9794  -28.0392   21.0219 O   0  0  0  0  0  0  0  0  0  1  0  0
  -32.0212  -12.1661   23.5156 F   0  0  0  0  0  0  0  0  0  0  0  0
  -30.2702  -14.0718   19.5523 F   0  0  0  0  0  0  0  0  0  0  0  0
  -16.2383  -22.3253   21.5212 S   0  0  0  0  0  0  0  0  0  0  0  0
  1  2  1  0  0  0  0
  1  5  2  0  0  0  0
  2  6  2  0  0  0  0
  3  8  2  0  0  0  0
  3 16  1  0  0  0  0
  4  9  1  0  0  0  0
  4 16  2  0  0  0  0
  5 18  1  0  0  0  0
  6 20  1  0  0  0  0
  7 10  2  0  0  0  0
  7 19  1  0  0  0  0
  8 23  1  0  0  0  0
  9 23  2  0  0  0  0
 10 24  1  0  0  0  0
 11 12  2  0  0  0  0
 11 25  1  0  0  0  0
 12 26  1  0  0  0  0
 13 21  1  0  0  0  0
 13 24  2  0  0  0  0
 14 22  1  0  0  0  0
 14 31  2  0  0  0  0
 15 26  2  0  0  0  0
 15 27  1  0  0  0  0
 16 28  1  0  0  0  0
 17 28  1  0  0  0  0
 17 30  2  0  0  0  0
 17 32  1  0  0  0  0
 18 20  2  0  0  0  0
 18 38  1  0  0  0  0
 19 21  2  0  0  0  0
 19 39  1  0  0  0  0
 20 49  1  0  0  0  0
 21 40  1  0  0  0  0
 22 29  2  0  0  0  0
 22 48  1  0  0  0  0
 23 78  1  0  0  0  0
 24 79  1  0  0  0  0
 25 27  2  0  0  0  0
 25 78  1  0  0  0  0
 26 80  1  0  0  0  0
 27 81  1  0  0  0  0
 28 62  2  0  0  0  0
 29 41  1  0  0  0  0
 29 82  1  0  0  0  0
 30 63  1  0  0  0  0
 30 66  1  0  0  0  0
 31 68  1  0  0  0  0
 31 82  1  0  0  0  0
 32 67  1  0  0  0  0
 32 72  2  0  0  0  0
 33 48  1  0  0  0  0
 33 64  1  0  0  0  0
 33 73  2  0  0  0  0
 34 50  1  0  0  0  0
 34 69  1  0  0  0  0
 34 74  2  0  0  0  0
 35 59  1  0  0  0  0
 35 65  1  0  0  0  0
 35 75  2  0  0  0  0
 36 57  1  0  0  0  0
 36 68  1  0  0  0  0
 36 76  2  0  0  0  0
 37 60  1  0  0  0  0
 37 70  1  0  0  0  0
 37 77  2  0  0  0  0
 38 42  1  0  0  0  0
 39 50  1  0  0  0  0
 40 65  1  0  0  0  0
 41 48  1  0  0  0  0
 42 44  1  0  0  0  0
 43 45  1  0  0  0  0
 43 46  1  0  0  0  0
 44 49  1  0  0  0  0
 45 51  1  0  0  0  0
 46 64  1  0  0  0  0
 47 51  1  0  0  0  0
 47 64  1  0  0  0  0
 49 69  1  0  0  0  0
 50 65  1  0  0  0  0
 51 63  1  0  0  0  0
 52 60  1  0  0  0  0
 53 61  1  0  0  0  0
 54 61  1  0  0  0  0
 55 61  1  0  0  0  0
 56 71  1  0  0  0  0
 57 58  1  0  0  0  0
 58 79  1  0  0  0  0
 59 61  1  0  0  0  0
 59 70  1  0  0  0  0
 60 71  1  0  0  0  0
 62 63  1  0  0  0  0
M  CHG  1  71   1
M  ISO  4  33 100  48 100  58 101  79 101
M  END
> <Batch ID>
0150

> <Smiles>
CNC(C)C(=O)NC(C(=O)N1Cc2cc([101O:1][101CH2:1]CC(=O)Nc3cc4c(s3)C[100CH:0]4[100C:0](=O)N3CCCC(n4nc(-c5ccc(Oc6ccc(F)cc6F)cc5)c(C(N)=O)c4N)C3)ccc2CC1C(=O)NC1CCCc2ccccc21)C(C)(C)C

> <Shape>
0.295

> <Color>
0.079

> <Negative vol penalty>
0.000

$$$$

  -OEChem-04052303213D

 83 92  0     1  0  0  0  0  0999 V2000
  -24.3422  -34.9516   21.2574 C   0  0  0  0  0  0  0  0  0  0  0  0
  -25.1506  -33.8224   21.3404 C   0  0  0  0  0  0  0  0  0  0  0  0
  -24.6542  -10.3356   20.9613 C   0  0  0  0  0  0  0  0  0  0  0  0
  -25.2596  -11.2555   23.1118 C   0  0  0  0  0  0  0  0  0  0  0  0
  -23.0350  -34.9087   21.7405 C   0  0  0  0  0  0  0  0  0  0  0  0
  -24.6526  -32.6500   21.9077 C   0  0  0  0  0  0  0  0  0  0  0  0
  -25.8084  -28.5348   19.1922 C   0  0  0  0  0  0  0  0  0  0  0  0
  -24.4616   -9.0859   21.5501 C   0  0  0  0  0  0  0  0  0  0  0  0
  -25.0670  -10.0057   23.7006 C   0  0  0  0  0  0  0  0  0  0  0  0
  -27.1042  -28.0348   19.3140 C   0  0  0  0  0  0  0  0  0  0  0  0
  -22.0815   -7.5375   23.3860 C   0  0  0  0  0  0  0  0  0  0  0  0
  -20.9352   -6.8248   23.0340 C   0  0  0  0  0  0  0  0  0  0  0  0
  -26.3033  -26.3484   20.8417 C   0  0  0  0  0  0  0  0  0  0  0  0
  -31.4993  -20.2721   20.2635 C   0  0  0  0  0  0  0  0  0  0  0  0
  -22.3116   -5.0237   22.1983 C   0  0  0  0  0  0  0  0  0  0  0  0
  -25.0533  -11.4204   21.7422 C   0  0  0  0  0  0  0  0  0  0  0  0
  -24.2956  -13.7302   20.9685 C   0  0  0  0  0  0  0  0  0  0  0  0
  -22.5176  -33.7322   22.3051 C   0  0  0  0  0  0  0  0  0  0  0  0
  -24.7505  -27.9511   19.9039 C   0  0  0  0  0  0  0  0  0  0  0  0
  -23.3377  -32.5917   22.4000 C   0  0  0  0  0  0  0  0  0  0  0  0
  -24.9947  -26.8412   20.7252 C   0  0  0  0  0  0  0  0  0  0  0  0
  -32.3410  -19.1936   20.0786 C   0  0  0  0  0  0  0  0  0  0  0  0
  -24.6680   -8.9210   22.9197 C   0  0  0  0  0  0  0  0  0  0  0  0
  -27.3523  -26.9432   20.1411 C   0  0  0  0  0  0  0  0  0  0  0  0
  -23.3428   -6.9932   23.1440 C   0  0  0  0  0  0  0  0  0  0  0  0
  -21.0503   -5.5679   22.4403 C   0  0  0  0  0  0  0  0  0  0  0  0
  -23.4579   -5.7363   22.5502 C   0  0  0  0  0  0  0  0  0  0  0  0
  -25.2529  -12.7115   21.1344 C   0  0  0  0  0  0  0  0  0  0  0  0
  -33.4598  -19.4631   19.3954 C   0  0  0  0  0  0  0  0  0  0  0  0
  -24.9785  -14.7446   20.3432 C   0  0  0  0  0  0  0  0  0  0  0  0
  -32.0821  -21.3834   19.6518 C   0  0  0  0  0  0  0  0  0  0  0  0
  -22.9126  -13.7570   21.3458 C   0  0  0  0  0  0  0  0  0  0  0  0
  -22.7233  -28.9578   22.1357 C   0  0  0  0  0  0  0  0  0  0  0  0
  -30.0478  -24.5215   19.9615 C   0  0  0  0  0  0  0  0  0  0  0  0
  -21.3765  -26.0431   21.6741 C   0  0  0  0  0  0  0  0  0  0  0  0
  -21.7457  -22.8120   20.6395 C   0  0  0  0  0  0  0  0  0  0  0  0
  -30.6941  -16.1926   20.2983 C   0  0  0  0  0  0  0  0  0  0  0  0
  -21.1140  -33.7481   22.8568 C   0  0  0  0  0  0  0  0  0  0  0  0
  -23.3540  -28.4856   19.7409 C   0  0  0  0  0  0  0  0  0  0  0  0
  -23.8901  -26.1659   21.4949 C   0  0  0  0  0  0  0  0  0  0  0  0
  -33.9676  -18.0567   19.4718 C   0  0  0  0  0  0  0  0  0  0  0  0
  -20.5405  -32.3550   23.1029 C   0  0  0  0  0  0  0  0  0  0  0  0
  -28.6607  -15.5119   17.3843 C   0  0  0  0  0  0  0  0  0  0  0  0
  -21.5575  -31.4795   23.8280 C   0  0  0  0  0  0  0  0  0  0  0  0
  -27.4566  -14.8090   18.0134 C   0  0  0  0  0  0  0  0  0  0  0  0
  -29.9593  -15.1175   18.0822 C   0  0  0  0  0  0  0  0  0  0  0  0
  -28.7614  -14.6492   20.1832 C   0  0  0  0  0  0  0  0  0  0  0  0
  -22.8256  -31.2939   22.9860 C   0  0  1  0  0  0  0  0  0  0  0  0
  -32.6639  -17.7504   20.2874 C   0  0  2  0  0  0  0  0  0  0  0  0
  -22.4397  -28.1351   20.9108 C   0  0  1  0  0  0  0  0  0  0  0  0
  -27.4155  -15.0255   19.5376 C   0  0  2  0  0  0  0  0  0  0  0  0
  -20.4780  -20.6577   20.4171 C   0  0  0  0  0  0  0  0  0  0  0  0
  -21.6139  -25.5956   24.6830 C   0  0  0  0  0  0  0  0  0  0  0  0
  -21.2419  -23.1530   24.2786 C   0  0  0  0  0  0  0  0  0  0  0  0
  -19.4675  -24.7995   23.6760 C   0  0  0  0  0  0  0  0  0  0  0  0
  -22.1222  -22.7588   17.7045 C   0  0  0  0  0  0  0  0  0  0  0  0
  -30.3062  -23.0487   20.1982 C   0  0  0  0  0  0  0  0  0  0  0  0
  -28.7493  -25.0586   20.5313 C   0  0  0  0  0  0  0  0  0  1  0  0
  -21.5668  -24.6705   22.2730 C   0  0  1  0  0  0  0  0  0  0  0  0
  -20.9001  -21.9443   19.7248 C   0  0  2  0  0  0  0  0  0  0  0  0
  -20.9939  -24.5684   23.7148 C   0  0  0  0  0  0  0  0  0  0  0  0
  -26.4526  -13.0480   20.6533 N   0  0  0  0  0  0  0  0  0  0  0  0
  -26.2536  -14.2895   20.1787 N   0  0  0  0  0  0  0  0  0  0  0  0
  -22.5429  -26.7293   21.3073 N   0  0  0  0  0  0  0  0  0  0  0  0
  -29.8607  -15.3665   19.5277 N   0  0  0  0  0  0  0  0  0  0  0  0
  -24.6066  -15.9726   19.9234 N   0  0  0  0  0  0  0  0  0  0  0  0
  -22.3709  -12.6303   21.9795 N   0  0  0  0  0  0  0  0  0  0  0  0
  -31.5621  -22.6689   19.6036 N   0  0  0  0  0  0  0  0  0  0  0  0
  -22.5994  -30.3200   21.9396 N   0  0  0  0  0  0  0  0  0  0  0  0
  -20.9783  -23.7276   21.3280 N   0  0  0  0  0  0  0  0  0  0  0  0
  -31.7130  -16.8439   19.6112 N   0  0  0  0  0  0  0  0  0  0  0  0
  -21.6647  -21.5880   18.4963 N   0  3  0  0  0  0  0  0  0  0  0  0
  -22.1748  -14.7444   21.1129 O   0  0  0  0  0  0  0  0  0  0  0  0
  -23.0304  -28.3980   23.1817 O   0  0  0  0  0  0  0  0  0  0  0  0
  -30.8322  -25.2445   19.3485 O   0  0  0  0  0  0  0  0  0  0  0  0
  -20.2347  -26.4871   21.5302 O   0  0  0  0  0  0  0  0  0  0  0  0
  -22.9645  -22.6873   20.7365 O   0  0  0  0  0  0  0  0  0  0  0  0
  -30.5432  -16.3491   21.5151 O   0  0  0  0  0  0  0  0  0  0  0  0
  -24.4799   -7.7017   23.4947 O   0  0  0  0  0  0  0  0  0  0  0  0
  -28.6162  -26.4536   20.2623 O   0  0  0  0  0  0  0  0  0  1  0  0
  -19.9495   -4.8830   22.1038 F   0  0  0  0  0  0  0  0  0  0  0  0
  -24.6670   -5.2078   22.3163 F   0  0  0  0  0  0  0  0  0  0  0  0
  -33.6265  -21.0104   18.8980 S   0  0  0  0  0  0  0  0  0  0  0  0
  1  2  1  0  0  0  0
  1  5  2  0  0  0  0
  2  6  2  0  0  0  0
  3  8  2  0  0  0  0
  3 16  1  0  0  0  0
  4  9  1  0  0  0  0
  4 16  2  0  0  0  0
  5 18  1  0  0  0  0
  6 20  1  0  0  0  0
  7 10  2  0  0  0  0
  7 19  1  0  0  0  0
  8 23  1  0  0  0  0
  9 23  2  0  0  0  0
 10 24  1  0  0  0  0
 11 12  2  0  0  0  0
 11 25  1  0  0  0  0
 12 26  1  0  0  0  0
 13 21  1  0  0  0  0
 13 24  2  0  0  0  0
 14 22  1  0  0  0  0
 14 31  2  0  0  0  0
 15 26  2  0  0  0  0
 15 27  1  0  0  0  0
 16 28  1  0  0  0  0
 17 28  1  0  0  0  0
 17 30  2  0  0  0  0
 17 32  1  0  0  0  0
 18 20  2  0  0  0  0
 18 38  1  0  0  0  0
 19 21  2  0  0  0  0
 19 39  1  0  0  0  0
 20 48  1  0  0  0  0
 21 40  1  0  0  0  0
 22 29  2  0  0  0  0
 22 49  1  0  0  0  0
 23 79  1  0  0  0  0
 24 80  1  0  0  0  0
 25 27  2  0  0  0  0
 25 79  1  0  0  0  0
 26 81  1  0  0  0  0
 27 82  1  0  0  0  0
 28 62  2  0  0  0  0
 29 41  1  0  0  0  0
 29 83  1  0  0  0  0
 30 63  1  0  0  0  0
 30 66  1  0  0  0  0
 31 68  1  0  0  0  0
 31 83  1  0  0  0  0
 32 67  1  0  0  0  0
 32 73  2  0  0  0  0
 33 50  1  0  0  0  0
 33 69  1  0  0  0  0
 33 74  2  0  0  0  0
 34 57  1  0  0  0  0
 34 58  1  0  0  0  0
 34 75  2  0  0  0  0
 35 59  1  0  0  0  0
 35 64  1  0  0  0  0
 35 76  2  0  0  0  0
 36 60  1  0  0  0  0
 36 70  1  0  0  0  0
 36 77  2  0  0  0  0
 37 65  1  0  0  0  0
 37 71  1  0  0  0  0
 37 78  2  0  0  0  0
 38 42  1  0  0  0  0
 39 50  1  0  0  0  0
 40 64  1  0  0  0  0
 41 49  1  0  0  0  0
 42 44  1  0  0  0  0
 43 45  1  0  0  0  0
 43 46  1  0  0  0  0
 44 48  1  0  0  0  0
 45 51  1  0  0  0  0
 46 65  1  0  0  0  0
 47 51  1  0  0  0  0
 47 65  1  0  0  0  0
 48 69  1  0  0  0  0
 49 71  1  0  0  0  0
 50 64  1  0  0  0  0
 51 63  1  0  0  0  0
 52 60  1  0  0  0  0
 53 61  1  0  0  0  0
 54 61  1  0  0  0  0
 55 61  1  0  0  0  0
 56 72  1  0  0  0  0
 57 68  1  0  0  0  0
 58 80  1  0  0  0  0
 59 61  1  0  0  0  0
 59 70  1  0  0  0  0
 60 72  1  0  0  0  0
 62 63  1  0  0  0  0
M  CHG  1  72   1
M  ISO  4  37 100  58 101  71 100  80 101
M  END
> <Batch ID>
0150

> <Smiles>
CNC(C)C(=O)NC(C(=O)N1Cc2cc([101O:1][101CH2:1]C(=O)CNc3cc4c(s3)CC4[100NH:0][100C:0](=O)N3CCCC(n4nc(-c5ccc(Oc6ccc(F)cc6F)cc5)c(C(N)=O)c4N)C3)ccc2CC1C(=O)NC1CCCc2ccccc21)C(C)(C)C

> <Shape>
0.229

> <Color>
0.106

> <Negative vol penalty>
0.000

$$$$

  -OEChem-04052303213D

 85 94  0     1  0  0  0  0  0999 V2000
  -24.3534  -34.0504   17.6640 C   0  0  0  0  0  0  0  0  0  0  0  0
  -25.2099  -32.9670   17.4964 C   0  0  0  0  0  0  0  0  0  0  0  0
  -22.9968   -9.8952   19.9829 C   0  0  0  0  0  0  0  0  0  0  0  0
  -23.7205   -9.9486   22.2874 C   0  0  0  0  0  0  0  0  0  0  0  0
  -23.5635  -34.1424   18.8092 C   0  0  0  0  0  0  0  0  0  0  0  0
  -25.2778  -31.9755   18.4745 C   0  0  0  0  0  0  0  0  0  0  0  0
  -26.3381  -24.9300   19.2181 C   0  0  0  0  0  0  0  0  0  0  0  0
  -22.2286   -8.7622   20.2504 C   0  0  0  0  0  0  0  0  0  0  0  0
  -22.9522   -8.8156   22.5549 C   0  0  0  0  0  0  0  0  0  0  0  0
  -27.1281  -24.0290   19.9308 C   0  0  0  0  0  0  0  0  0  0  0  0
  -23.1922   -5.4756   22.0881 C   0  0  0  0  0  0  0  0  0  0  0  0
  -23.7778   -4.4587   22.8421 C   0  0  0  0  0  0  0  0  0  0  0  0
  -25.6587  -24.2527   21.8307 C   0  0  0  0  0  0  0  0  0  0  0  0
  -22.0531   -4.7065   24.5158 C   0  0  0  0  0  0  0  0  0  0  0  0
  -31.8170  -17.4960   21.7098 C   0  0  0  0  0  0  0  0  0  0  0  0
  -23.7429  -10.4884   21.0014 C   0  0  0  0  0  0  0  0  0  0  0  0
  -24.1318  -13.0032   20.8219 C   0  0  0  0  0  0  0  0  0  0  0  0
  -23.6147  -33.1467   19.7974 C   0  0  0  0  0  0  0  0  0  0  0  0
  -25.2067  -25.5084   19.8112 C   0  0  0  0  0  0  0  0  0  0  0  0
  -24.4889  -32.0550   19.6347 C   0  0  0  0  0  0  0  0  0  0  0  0
  -24.8546  -25.1588   21.1226 C   0  0  0  0  0  0  0  0  0  0  0  0
  -22.2062   -8.2224   21.5364 C   0  0  0  0  0  0  0  0  0  0  0  0
  -26.7901  -23.6924   21.2383 C   0  0  0  0  0  0  0  0  0  0  0  0
  -22.0371   -6.1081   22.5480 C   0  0  0  0  0  0  0  0  0  0  0  0
  -23.2083   -4.0742   24.0560 C   0  0  0  0  0  0  0  0  0  0  0  0
  -21.4676   -5.7235   23.7618 C   0  0  0  0  0  0  0  0  0  0  0  0
  -24.5372  -11.6585   20.7255 C   0  0  0  0  0  0  0  0  0  0  0  0
  -25.2428  -13.7237   20.4572 C   0  0  0  0  0  0  0  0  0  0  0  0
  -30.5996  -16.8798   21.9105 C   0  0  0  0  0  0  0  0  0  0  0  0
  -30.8637  -19.0416   22.9397 C   0  0  0  0  0  0  0  0  0  0  0  0
  -22.8643  -13.5520   21.2067 C   0  0  0  0  0  0  0  0  0  0  0  0
  -24.3212  -28.4748   20.5327 C   0  0  0  0  0  0  0  0  0  0  0  0
  -21.5259  -27.0318   21.3242 C   0  0  0  0  0  0  0  0  0  0  0  0
  -19.9048  -24.1867   22.2857 C   0  0  0  0  0  0  0  0  0  0  0  0
  -30.7235  -14.6775   20.6935 C   0  0  0  0  0  0  0  0  0  0  0  0
  -22.7768  -33.3136   21.0403 C   0  0  0  0  0  0  0  0  0  0  0  0
  -24.3498  -26.4582   19.0199 C   0  0  0  0  0  0  0  0  0  0  0  0
  -23.6384  -25.7363   21.7979 C   0  0  0  0  0  0  0  0  0  0  0  0
  -22.6319  -32.0303   21.8541 C   0  0  0  0  0  0  0  0  0  0  0  0
  -29.6033  -12.2228   18.3703 C   0  0  0  0  0  0  0  0  0  0  0  0
  -23.9860  -31.3480   22.0207 C   0  0  0  0  0  0  0  0  0  0  0  0
  -28.1521  -11.9678   18.7839 C   0  0  0  0  0  0  0  0  0  0  0  0
  -29.8834  -23.4051   21.8145 C   0  0  0  0  0  0  0  0  0  0  0  0
  -30.5034  -12.4667   19.5804 C   0  0  0  0  0  0  0  0  0  0  0  0
  -28.5882  -13.2602   20.9115 C   0  0  0  0  0  0  0  0  0  0  0  0
  -30.4334  -21.9837   21.8220 C   0  0  0  0  0  0  0  0  0  0  0  0
  -24.5725  -30.9468   20.6618 C   0  0  1  0  0  0  0  0  0  0  0  0
  -23.5104  -27.3798   19.8993 C   0  0  1  0  0  0  0  0  0  0  0  0
  -27.6311  -13.0735   19.7229 C   0  0  2  0  0  0  0  0  0  0  0  0
  -28.6404  -23.3597   22.7039 C   0  0  1  0  0  0  0  0  0  1  0  0
  -29.0344  -22.3618   23.8232 C   0  0  0  0  0  0  0  0  0  0  0  0
  -28.2130  -24.7453   23.1776 C   0  0  0  0  0  0  0  0  0  0  0  0
  -27.8302  -21.7141   24.5189 C   0  0  0  0  0  0  0  0  0  0  0  0
  -29.9926  -22.9520   24.8718 C   0  0  0  0  0  0  0  0  0  0  0  0
  -17.6266  -23.3270   22.8926 C   0  0  0  0  0  0  0  0  0  0  0  0
  -21.7448  -28.3837   24.0508 C   0  0  0  0  0  0  0  0  0  0  0  0
  -20.0206  -26.7822   24.9056 C   0  0  0  0  0  0  0  0  0  0  0  0
  -19.4428  -28.3733   23.0733 C   0  0  0  0  0  0  0  0  0  0  0  0
  -19.9124  -22.2495   20.0483 C   0  0  0  0  0  0  0  0  0  0  0  0
  -30.6492  -20.3142   23.7048 C   0  0  0  0  0  0  0  0  0  0  0  0
  -20.9605  -26.4124   22.5795 C   0  0  1  0  0  0  0  0  0  0  0  0
  -18.6366  -23.5280   21.7736 C   0  0  2  0  0  0  0  0  0  0  0  0
  -20.5663  -27.4783   23.6405 C   0  0  0  0  0  0  0  0  0  0  0  0
  -31.9701  -18.7359   22.2989 N   0  0  0  0  0  0  0  0  0  0  0  0
  -25.8065  -11.5297   20.3304 N   0  0  0  0  0  0  0  0  0  0  0  0
  -26.2084  -12.8027   20.1752 N   0  0  0  0  0  0  0  0  0  0  0  0
  -22.8360  -26.6652   20.9850 N   0  0  0  0  0  0  0  0  0  0  0  0
  -29.9493  -13.5296   20.4218 N   0  0  0  0  0  0  0  0  0  0  0  0
  -25.4782  -15.0490   20.3533 N   0  0  0  0  0  0  0  0  0  0  0  0
  -21.8311  -12.6698   21.5509 N   0  0  0  0  0  0  0  0  0  0  0  0
  -30.0800  -15.6347   21.4773 N   0  0  0  0  0  0  0  0  0  0  0  0
  -23.9290  -29.7484   20.1675 N   0  0  0  0  0  0  0  0  0  0  0  0
  -19.8576  -25.5583   22.1521 N   0  0  0  0  0  0  0  0  0  0  0  0
  -29.7597  -21.2853   22.9911 N   0  3  2  0  0  0  0  0  0  0  0  0
  -18.9482  -22.1982   21.1772 N   0  3  0  0  0  0  0  0  0  0  0  0
  -22.6493  -14.7876   21.2285 O   0  0  0  0  0  0  0  0  0  0  0  0
  -25.2341  -28.1855   21.2973 O   0  0  0  0  0  0  0  0  0  0  0  0
  -20.8283  -27.8066   20.6650 O   0  0  0  0  0  0  0  0  0  0  0  0
  -20.8418  -23.5487   22.7605 O   0  0  0  0  0  0  0  0  0  0  0  0
  -31.8626  -14.8141   20.2401 O   0  0  0  0  0  0  0  0  0  0  0  0
  -21.4564   -7.1169   21.7978 O   0  0  0  0  0  0  0  0  0  0  0  0
  -27.5599  -22.8137   21.9363 O   0  0  0  0  0  0  0  0  0  1  0  0
  -23.7699   -3.0966   24.7792 F   0  0  0  0  0  0  0  0  0  0  0  0
  -20.3572   -6.3266   24.2081 F   0  0  0  0  0  0  0  0  0  0  0  0
  -29.5988  -17.8835   22.8760 S   0  0  0  0  0  0  0  0  0  0  0  0
  1  2  1  0  0  0  0
  1  5  2  0  0  0  0
  2  6  2  0  0  0  0
  3  8  2  0  0  0  0
  3 16  1  0  0  0  0
  4  9  1  0  0  0  0
  4 16  2  0  0  0  0
  5 18  1  0  0  0  0
  6 20  1  0  0  0  0
  7 10  2  0  0  0  0
  7 19  1  0  0  0  0
  8 22  1  0  0  0  0
  9 22  2  0  0  0  0
 10 23  1  0  0  0  0
 11 12  2  0  0  0  0
 11 24  1  0  0  0  0
 12 25  1  0  0  0  0
 13 21  1  0  0  0  0
 13 23  2  0  0  0  0
 14 25  2  0  0  0  0
 14 26  1  0  0  0  0
 15 29  2  0  0  0  0
 15 64  1  0  0  0  0
 16 27  1  0  0  0  0
 17 27  1  0  0  0  0
 17 28  2  0  0  0  0
 17 31  1  0  0  0  0
 18 20  2  0  0  0  0
 18 36  1  0  0  0  0
 19 21  2  0  0  0  0
 19 37  1  0  0  0  0
 20 47  1  0  0  0  0
 21 38  1  0  0  0  0
 22 81  1  0  0  0  0
 23 82  1  0  0  0  0
 24 26  2  0  0  0  0
 24 81  1  0  0  0  0
 25 83  1  0  0  0  0
 26 84  1  0  0  0  0
 27 65  2  0  0  0  0
 28 66  1  0  0  0  0
 28 69  1  0  0  0  0
 29 71  1  0  0  0  0
 29 85  1  0  0  0  0
 30 60  1  0  0  0  0
 30 64  2  0  0  0  0
 30 85  1  0  0  0  0
 31 70  1  0  0  0  0
 31 76  2  0  0  0  0
 32 48  1  0  0  0  0
 32 72  1  0  0  0  0
 32 77  2  0  0  0  0
 33 61  1  0  0  0  0
 33 67  1  0  0  0  0
 33 78  2  0  0  0  0
 34 62  1  0  0  0  0
 34 73  1  0  0  0  0
 34 79  2  0  0  0  0
 35 68  1  0  0  0  0
 35 71  1  0  0  0  0
 35 80  2  0  0  0  0
 36 39  1  0  0  0  0
 37 48  1  0  0  0  0
 38 67  1  0  0  0  0
 39 41  1  0  0  0  0
 40 42  1  0  0  0  0
 40 44  1  0  0  0  0
 41 47  1  0  0  0  0
 42 49  1  0  0  0  0
 43 46  1  0  0  0  0
 43 50  1  0  0  0  0
 44 68  1  0  0  0  0
 45 49  1  0  0  0  0
 45 68  1  0  0  0  0
 46 74  1  0  0  0  0
 47 72  1  0  0  0  0
 48 67  1  0  0  0  0
 49 66  1  0  0  0  0
 50 51  1  0  0  0  0
 50 52  1  0  0  0  0
 50 82  1  0  0  0  0
 51 53  1  0  0  0  0
 51 54  1  0  0  0  0
 51 74  1  0  0  0  0
 55 62  1  0  0  0  0
 56 63  1  0  0  0  0
 57 63  1  0  0  0  0
 58 63  1  0  0  0  0
 59 75  1  0  0  0  0
 60 74  1  0  0  0  0
 61 63  1  0  0  0  0
 61 73  1  0  0  0  0
 62 75  1  0  0  0  0
 65 66  1  0  0  0  0
M  CHG  2  74   1  75   1
M  ISO  4  35 100  50 101  71 100  82 101
M  END
> <Batch ID>
0150

> <Smiles>
CNC(C)C(=O)NC(C(=O)N1Cc2cc([101O:1][101C:1]3(C)CCN(Cc4ncc([100NH:0][100C:0](=O)N5CCCC(n6nc(-c7ccc(Oc8ccc(F)cc8F)cc7)c(C(N)=O)c6N)C5)s4)C3(C)C)ccc2CC1C(=O)NC1CCCc2ccccc21)C(C)(C)C

> <Shape>
0.285

> <Color>
0.186

> <Negative vol penalty>
0.000

$$$$

  -OEChem-04052303213D

 83 91  0     1  0  0  0  0  0999 V2000
  -30.8045  -25.8872   17.6310 C   0  0  0  0  0  0  0  0  0  0  0  0
  -29.4169  -25.8103   17.6951 C   0  0  0  0  0  0  0  0  0  0  0  0
  -27.9431  -18.5469   22.7140 C   0  0  0  0  0  0  0  0  0  0  0  0
  -26.8389  -20.6538   22.2908 C   0  0  0  0  0  0  0  0  0  0  0  0
  -31.5224  -26.4173   18.7023 C   0  0  0  0  0  0  0  0  0  0  0  0
  -28.7464  -26.2624   18.8311 C   0  0  0  0  0  0  0  0  0  0  0  0
  -23.2590  -28.9741   19.0319 C   0  0  0  0  0  0  0  0  0  0  0  0
  -28.7597  -18.7516   21.6019 C   0  0  0  0  0  0  0  0  0  0  0  0
  -27.6556  -20.8585   21.1787 C   0  0  0  0  0  0  0  0  0  0  0  0
  -21.9829  -28.4891   19.3150 C   0  0  0  0  0  0  0  0  0  0  0  0
  -27.8179  -19.7875   17.9760 C   0  0  0  0  0  0  0  0  0  0  0  0
  -27.2131  -20.2348   16.8014 C   0  0  0  0  0  0  0  0  0  0  0  0
  -22.2221  -29.2129   21.6037 C   0  0  0  0  0  0  0  0  0  0  0  0
  -18.8856  -23.9521   24.2208 C   0  0  0  0  0  0  0  0  0  0  0  0
  -28.5987  -22.2136   16.8415 C   0  0  0  0  0  0  0  0  0  0  0  0
  -26.9825  -19.4980   23.0584 C   0  0  0  0  0  0  0  0  0  0  0  0
  -26.3912  -19.6861   25.5328 C   0  0  0  0  0  0  0  0  0  0  0  0
  -30.8596  -26.8850   19.8480 C   0  0  0  0  0  0  0  0  0  0  0  0
  -24.0318  -29.5733   20.0369 C   0  0  0  0  0  0  0  0  0  0  0  0
  -29.4562  -26.7980   19.9192 C   0  0  0  0  0  0  0  0  0  0  0  0
  -23.5067  -29.7069   21.3302 C   0  0  0  0  0  0  0  0  0  0  0  0
  -18.5915  -22.7212   24.8755 C   0  0  0  0  0  0  0  0  0  0  0  0
  -28.6161  -19.9074   20.8343 C   0  0  0  0  0  0  0  0  0  0  0  0
  -21.4654  -28.6059   20.6017 C   0  0  0  0  0  0  0  0  0  0  0  0
  -28.8130  -20.5533   18.5835 C   0  0  0  0  0  0  0  0  0  0  0  0
  -27.6036  -21.4478   16.2341 C   0  0  0  0  0  0  0  0  0  0  0  0
  -29.2034  -21.7663   18.0162 C   0  0  0  0  0  0  0  0  0  0  0  0
  -26.1382  -19.2869   24.2067 C   0  0  0  0  0  0  0  0  0  0  0  0
  -18.6427  -21.6501   24.0109 C   0  0  0  0  0  0  0  0  0  0  0  0
  -25.2941  -19.2534   26.2368 C   0  0  0  0  0  0  0  0  0  0  0  0
  -19.1506  -23.7747   22.8805 C   0  0  0  0  0  0  0  0  0  0  0  0
  -27.5172  -20.3854   26.0793 C   0  0  0  0  0  0  0  0  0  0  0  0
  -26.8239  -28.9206   21.4088 C   0  0  0  0  0  0  0  0  0  0  0  0
  -26.3323  -31.7755   22.8681 C   0  0  0  0  0  0  0  0  0  0  0  0
  -24.1171  -34.1541   23.9086 C   0  0  0  0  0  0  0  0  0  0  0  0
  -19.6309  -26.0855   22.0038 C   0  0  0  0  0  0  0  0  0  0  0  0
  -19.6356  -18.0928   24.6605 C   0  0  0  0  0  0  0  0  0  0  0  0
  -31.6816  -27.4063   21.0001 C   0  0  0  0  0  0  0  0  0  0  0  0
  -25.3960  -30.1154   19.7089 C   0  0  0  0  0  0  0  0  0  0  0  0
  -24.2880  -30.3603   22.4397 C   0  0  0  0  0  0  0  0  0  0  0  0
  -30.8697  -28.2085   22.0138 C   0  0  0  0  0  0  0  0  0  0  0  0
  -21.9293  -15.8523   26.2083 C   0  0  0  0  0  0  0  0  0  0  0  0
  -29.5780  -27.4760   22.3628 C   0  0  0  0  0  0  0  0  0  0  0  0
  -23.2909  -16.5145   25.9905 C   0  0  0  0  0  0  0  0  0  0  0  0
  -21.0038  -16.0577   25.0111 C   0  0  0  0  0  0  0  0  0  0  0  0
  -22.1885  -18.1250   24.3812 C   0  0  0  0  0  0  0  0  0  0  0  0
  -28.6911  -27.3009   21.1242 C   0  0  1  0  0  0  0  0  0  0  0  0
  -26.2976  -30.2450   20.9328 C   0  0  1  0  0  0  0  0  0  0  0  0
  -23.1370  -17.9927   25.5850 C   0  0  2  0  0  0  0  0  0  0  0  0
  -24.0099  -36.3570   25.1056 C   0  0  0  0  0  0  0  0  0  0  0  0
  -18.8911  -26.5581   19.6397 C   0  0  0  0  0  0  0  0  0  0  0  0
  -26.7620  -30.3473   25.5300 C   0  0  0  0  0  0  0  0  0  0  0  0
  -25.7263  -32.3182   26.6751 C   0  0  0  0  0  0  0  0  0  0  0  0
  -27.8336  -32.6013   25.3706 C   0  0  0  0  0  0  0  0  0  0  0  0
  -22.9550  -35.5112   21.5492 C   0  0  0  0  0  0  0  0  0  0  0  0
  -18.4039  -20.2151   24.2890 C   0  0  0  0  0  0  0  0  0  0  0  0
  -25.6567  -32.2228   24.1419 C   0  0  1  0  0  0  0  0  0  0  0  0
  -24.1153  -35.6644   23.7558 C   0  0  2  0  0  0  0  0  0  0  0  0
  -19.9932  -26.7394   20.6728 C   0  0  1  0  0  0  0  0  0  1  0  0
  -26.4804  -31.8583   25.4092 C   0  0  0  0  0  0  0  0  0  0  0  0
  -24.9720  -18.6495   24.0737 N   0  0  0  0  0  0  0  0  0  0  0  0
  -24.4825  -18.6448   25.3253 N   0  0  0  0  0  0  0  0  0  0  0  0
  -25.6195  -30.8689   22.0708 N   0  0  0  0  0  0  0  0  0  0  0  0
  -20.8997  -17.4807   24.6791 N   0  0  0  0  0  0  0  0  0  0  0  0
  -18.2963  -22.6229   26.1932 N   0  0  0  0  0  0  0  0  0  0  0  0
  -24.9542  -19.3379   27.5406 N   0  0  0  0  0  0  0  0  0  0  0  0
  -28.5570  -20.7561   25.2156 N   0  0  0  0  0  0  0  0  0  0  0  0
  -19.4819  -24.7089   21.8704 N   0  0  0  0  0  0  0  0  0  0  0  0
  -28.0099  -28.5388   20.8112 N   0  0  0  0  0  0  0  0  0  0  0  0
  -25.3983  -33.6503   23.9874 N   0  0  0  0  0  0  0  0  0  0  0  0
  -19.6268  -19.4454   24.3424 N   0  0  0  0  0  0  0  0  0  0  0  0
  -22.9648  -36.0985   22.9138 N   0  3  0  0  0  0  0  0  0  0  0  0
  -27.6065  -20.6587   27.3003 O   0  0  0  0  0  0  0  0  0  0  0  0
  -26.2009  -28.2922   22.2566 O   0  0  0  0  0  0  0  0  0  0  0  0
  -27.4482  -32.2199   22.5873 O   0  0  0  0  0  0  0  0  0  0  0  0
  -23.0853  -33.4882   23.9571 O   0  0  0  0  0  0  0  0  0  0  0  0
  -19.5178  -26.7503   23.0296 O   0  0  0  0  0  0  0  0  0  0  0  0
  -18.5926  -17.4805   24.9141 O   0  0  0  0  0  0  0  0  0  0  0  0
  -29.4130  -20.1075   19.7492 O   0  0  0  0  0  0  0  0  0  0  0  0
  -20.2203  -28.1328   20.8809 O   0  0  0  0  0  0  0  0  0  1  0  0
  -27.0238  -21.8764   15.1052 F   0  0  0  0  0  0  0  0  0  0  0  0
  -30.1597  -22.5058   18.5945 F   0  0  0  0  0  0  0  0  0  0  0  0
  -19.0442  -22.1297   22.4168 S   0  0  0  0  0  0  0  0  0  0  0  0
  1  2  1  0  0  0  0
  1  5  2  0  0  0  0
  2  6  2  0  0  0  0
  3  8  2  0  0  0  0
  3 16  1  0  0  0  0
  4  9  1  0  0  0  0
  4 16  2  0  0  0  0
  5 18  1  0  0  0  0
  6 20  1  0  0  0  0
  7 10  2  0  0  0  0
  7 19  1  0  0  0  0
  8 23  1  0  0  0  0
  9 23  2  0  0  0  0
 10 24  1  0  0  0  0
 11 12  2  0  0  0  0
 11 25  1  0  0  0  0
 12 26  1  0  0  0  0
 13 21  1  0  0  0  0
 13 24  2  0  0  0  0
 14 22  1  0  0  0  0
 14 31  2  0  0  0  0
 15 26  2  0  0  0  0
 15 27  1  0  0  0  0
 16 28  1  0  0  0  0
 17 28  1  0  0  0  0
 17 30  2  0  0  0  0
 17 32  1  0  0  0  0
 18 20  2  0  0  0  0
 18 38  1  0  0  0  0
 19 21  2  0  0  0  0
 19 39  1  0  0  0  0
 20 47  1  0  0  0  0
 21 40  1  0  0  0  0
 22 29  2  0  0  0  0
 22 65  1  0  0  0  0
 23 79  1  0  0  0  0
 24 80  1  0  0  0  0
 25 27  2  0  0  0  0
 25 79  1  0  0  0  0
 26 81  1  0  0  0  0
 27 82  1  0  0  0  0
 28 61  2  0  0  0  0
 29 56  1  0  0  0  0
 29 83  1  0  0  0  0
 30 62  1  0  0  0  0
 30 66  1  0  0  0  0
 31 68  1  0  0  0  0
 31 83  1  0  0  0  0
 32 67  1  0  0  0  0
 32 73  2  0  0  0  0
 33 48  1  0  0  0  0
 33 69  1  0  0  0  0
 33 74  2  0  0  0  0
 34 57  1  0  0  0  0
 34 63  1  0  0  0  0
 34 75  2  0  0  0  0
 35 58  1  0  0  0  0
 35 70  1  0  0  0  0
 35 76  2  0  0  0  0
 36 59  1  0  0  0  0
 36 68  1  0  0  0  0
 36 77  2  0  0  0  0
 37 64  1  0  0  0  0
 37 71  1  0  0  0  0
 37 78  2  0  0  0  0
 38 41  1  0  0  0  0
 39 48  1  0  0  0  0
 40 63  1  0  0  0  0
 41 43  1  0  0  0  0
 42 44  1  0  0  0  0
 42 45  1  0  0  0  0
 43 47  1  0  0  0  0
 44 49  1  0  0  0  0
 45 64  1  0  0  0  0
 46 49  1  0  0  0  0
 46 64  1  0  0  0  0
 47 69  1  0  0  0  0
 48 63  1  0  0  0  0
 49 62  1  0  0  0  0
 50 58  1  0  0  0  0
 51 59  1  0  0  0  0
 52 60  1  0  0  0  0
 53 60  1  0  0  0  0
 54 60  1  0  0  0  0
 55 72  1  0  0  0  0
 56 71  1  0  0  0  0
 57 60  1  0  0  0  0
 57 70  1  0  0  0  0
 58 72  1  0  0  0  0
 59 80  1  0  0  0  0
 61 62  1  0  0  0  0
M  CHG  1  72   1
M  ISO  4  37 100  59 101  71 100  80 101
M  END
> <Batch ID>
0150

> <Smiles>
CNC(C)C(=O)NC(C(=O)N1Cc2cc([101O:1][101CH:1](C)C(=O)Nc3cc(N)c(C[100NH:0][100C:0](=O)N4CCCC(n5nc(-c6ccc(Oc7ccc(F)cc7F)cc6)c(C(N)=O)c5N)C4)s3)ccc2CC1C(=O)NC1CCCc2ccccc21)C(C)(C)C

> <Shape>
0.236

> <Color>
0.067

> <Negative vol penalty>
0.000

$$$$

  -OEChem-04052303213D

 82 90  0     1  0  0  0  0  0999 V2000
  -16.6691  -29.9949   24.1435 C   0  0  0  0  0  0  0  0  0  0  0  0
  -17.8337  -30.5298   24.6849 C   0  0  0  0  0  0  0  0  0  0  0  0
  -29.8092  -19.9242   20.6653 C   0  0  0  0  0  0  0  0  0  0  0  0
  -32.0596  -20.6357   20.1488 C   0  0  0  0  0  0  0  0  0  0  0  0
  -16.7428  -28.9194   23.2594 C   0  0  0  0  0  0  0  0  0  0  0  0
  -19.0726  -29.9887   24.3432 C   0  0  0  0  0  0  0  0  0  0  0  0
  -25.9034  -31.8882   23.3189 C   0  0  0  0  0  0  0  0  0  0  0  0
  -30.2865  -18.6569   20.9993 C   0  0  0  0  0  0  0  0  0  0  0  0
  -32.5369  -19.3683   20.4829 C   0  0  0  0  0  0  0  0  0  0  0  0
  -27.1907  -31.5403   23.7259 C   0  0  0  0  0  0  0  0  0  0  0  0
  -30.8690  -15.1258   21.6441 C   0  0  0  0  0  0  0  0  0  0  0  0
  -30.1700  -14.0197   21.1608 C   0  0  0  0  0  0  0  0  0  0  0  0
  -27.2013  -29.7339   22.1271 C   0  0  0  0  0  0  0  0  0  0  0  0
  -30.5759  -30.0458   18.3962 C   0  0  0  0  0  0  0  0  0  0  0  0
  -30.5775  -14.7524   18.8949 C   0  0  0  0  0  0  0  0  0  0  0  0
  -32.2153  -30.7943   16.9285 C   0  0  0  0  0  0  0  0  0  0  0  0
  -30.6957  -20.9136   20.2399 C   0  0  0  0  0  0  0  0  0  0  0  0
  -30.0511  -23.3280   20.7528 C   0  0  0  0  0  0  0  0  0  0  0  0
  -17.9838  -28.3710   22.8992 C   0  0  0  0  0  0  0  0  0  0  0  0
  -25.2500  -31.1536   22.3190 C   0  0  0  0  0  0  0  0  0  0  0  0
  -19.1628  -28.9039   23.4544 C   0  0  0  0  0  0  0  0  0  0  0  0
  -25.9067  -30.0761   21.7075 C   0  0  0  0  0  0  0  0  0  0  0  0
  -31.0443  -30.0793   17.0510 C   0  0  0  0  0  0  0  0  0  0  0  0
  -31.6503  -18.3789   20.9081 C   0  0  0  0  0  0  0  0  0  0  0  0
  -27.8387  -30.4612   23.1320 C   0  0  0  0  0  0  0  0  0  0  0  0
  -31.4222  -16.0452   20.7529 C   0  0  0  0  0  0  0  0  0  0  0  0
  -30.0243  -13.8330   19.7862 C   0  0  0  0  0  0  0  0  0  0  0  0
  -31.2765  -15.8585   19.3783 C   0  0  0  0  0  0  0  0  0  0  0  0
  -30.2032  -22.2228   19.8942 C   0  0  0  0  0  0  0  0  0  0  0  0
  -29.5527  -24.3226   19.9473 C   0  0  0  0  0  0  0  0  0  0  0  0
  -31.4070  -30.7365   19.2508 C   0  0  0  0  0  0  0  0  0  0  0  0
  -30.3351  -23.4451   22.1533 C   0  0  0  0  0  0  0  0  0  0  0  0
  -22.5982  -29.4057   22.1899 C   0  0  0  0  0  0  0  0  0  0  0  0
  -23.2983  -29.2833   19.0249 C   0  0  0  0  0  0  0  0  0  0  0  0
  -25.6596  -29.4924   16.5698 C   0  0  0  0  0  0  0  0  0  0  0  0
  -29.5952  -27.1846   15.1564 C   0  0  0  0  0  0  0  0  0  0  0  0
  -18.0102  -27.1783   21.9765 C   0  0  0  0  0  0  0  0  0  0  0  0
  -23.8718  -31.5582   21.8726 C   0  0  0  0  0  0  0  0  0  0  0  0
  -25.2568  -29.2678   20.6154 C   0  0  0  0  0  0  0  0  0  0  0  0
  -19.3860  -26.9040   21.3748 C   0  0  0  0  0  0  0  0  0  0  0  0
  -27.7492  -24.1408   15.2249 C   0  0  0  0  0  0  0  0  0  0  0  0
  -20.4625  -26.9662   22.4536 C   0  0  0  0  0  0  0  0  0  0  0  0
  -28.2152  -23.4594   16.5128 C   0  0  0  0  0  0  0  0  0  0  0  0
  -28.8888  -24.8917   14.5397 C   0  0  0  0  0  0  0  0  0  0  0  0
  -30.0649  -25.1761   16.6867 C   0  0  0  0  0  0  0  0  0  0  0  0
  -20.5270  -28.3604   23.0889 C   0  0  1  0  0  0  0  0  0  0  0  0
  -23.1024  -30.4224   21.2052 C   0  0  1  0  0  0  0  0  0  0  0  0
  -28.9376  -24.4524   17.4429 C   0  0  2  0  0  0  0  0  0  0  0  0
  -25.9364  -29.3105   14.0823 C   0  0  0  0  0  0  0  0  0  0  0  0
  -23.1102  -26.2447   19.2286 C   0  0  0  0  0  0  0  0  0  0  0  0
  -24.3000  -26.0934   17.0310 C   0  0  0  0  0  0  0  0  0  0  0  0
  -22.0778  -27.2182   17.1692 C   0  0  0  0  0  0  0  0  0  0  0  0
  -31.4684  -30.1868   23.4652 C   0  0  0  0  0  0  0  0  0  0  0  0
  -30.1068  -32.2470   23.0504 C   0  0  0  0  0  0  0  0  0  0  0  0
  -26.6054  -32.2884   16.3540 C   0  0  0  0  0  0  0  0  0  0  0  0
  -30.3521  -29.4219   15.9182 C   0  0  0  0  0  0  0  0  0  0  0  0
  -30.1254  -30.3375   21.3541 C   0  0  0  0  0  0  0  0  0  0  0  0
  -24.1096  -28.3640   18.1442 C   0  0  1  0  0  0  0  0  0  0  0  0
  -25.6791  -30.2468   15.2527 C   0  0  2  0  0  0  0  0  0  0  0  0
  -23.4112  -26.9939   17.9152 C   0  0  0  0  0  0  0  0  0  0  0  0
  -30.1830  -30.7328   22.8379 C   0  0  0  0  0  0  0  0  0  1  0  0
  -29.8314  -22.4898   18.6394 N   0  0  0  0  0  0  0  0  0  0  0  0
  -29.4406  -23.7740   18.7037 N   0  0  0  0  0  0  0  0  0  0  0  0
  -23.9063  -29.6988   20.2181 N   0  0  0  0  0  0  0  0  0  0  0  0
  -29.5308  -25.8181   15.4754 N   0  0  0  0  0  0  0  0  0  0  0  0
  -29.2037  -25.6042   20.1886 N   0  0  0  0  0  0  0  0  0  0  0  0
  -30.8428  -22.3264   22.8279 N   0  0  0  0  0  0  0  0  0  0  0  0
  -31.2366  -30.8947   20.6157 N   0  0  0  0  0  0  0  0  0  0  0  0
  -21.2222  -29.2819   22.2160 N   0  0  0  0  0  0  0  0  0  0  0  0
  -24.3823  -29.1079   16.9192 N   0  0  0  0  0  0  0  0  0  0  0  0
  -30.2146  -27.9941   16.1007 N   0  0  0  0  0  0  0  0  0  0  0  0
  -26.7473  -31.2860   15.2668 N   0  3  0  0  0  0  0  0  0  0  0  0
  -30.1288  -24.5053   22.7912 O   0  0  0  0  0  0  0  0  0  0  0  0
  -23.3985  -28.7789   22.8744 O   0  0  0  0  0  0  0  0  0  0  0  0
  -22.1697  -29.6261   18.6640 O   0  0  0  0  0  0  0  0  0  0  0  0
  -26.6761  -29.2635   17.2215 O   0  0  0  0  0  0  0  0  0  0  0  0
  -29.1299  -27.6495   14.1103 O   0  0  0  0  0  0  0  0  0  0  0  0
  -32.1165  -17.1424   21.2343 O   0  0  0  0  0  0  0  0  0  0  0  0
  -29.0950  -30.1191   23.5277 O   0  0  0  0  0  0  0  0  0  1  0  0
  -29.3544  -12.7699   19.3222 F   0  0  0  0  0  0  0  0  0  0  0  0
  -31.8067  -16.7377   18.5171 F   0  0  0  0  0  0  0  0  0  0  0  0
  -32.7454  -31.4215   18.4312 S   0  0  0  0  0  0  0  0  0  0  0  0
  1  2  1  0  0  0  0
  1  5  2  0  0  0  0
  2  6  2  0  0  0  0
  3  8  2  0  0  0  0
  3 17  1  0  0  0  0
  4  9  1  0  0  0  0
  4 17  2  0  0  0  0
  5 19  1  0  0  0  0
  6 21  1  0  0  0  0
  7 10  2  0  0  0  0
  7 20  1  0  0  0  0
  8 24  1  0  0  0  0
  9 24  2  0  0  0  0
 10 25  1  0  0  0  0
 11 12  2  0  0  0  0
 11 26  1  0  0  0  0
 12 27  1  0  0  0  0
 13 22  1  0  0  0  0
 13 25  2  0  0  0  0
 14 23  1  0  0  0  0
 14 31  2  0  0  0  0
 15 27  2  0  0  0  0
 15 28  1  0  0  0  0
 16 23  2  0  0  0  0
 16 82  1  0  0  0  0
 17 29  1  0  0  0  0
 18 29  1  0  0  0  0
 18 30  2  0  0  0  0
 18 32  1  0  0  0  0
 19 21  2  0  0  0  0
 19 37  1  0  0  0  0
 20 22  2  0  0  0  0
 20 38  1  0  0  0  0
 21 46  1  0  0  0  0
 22 39  1  0  0  0  0
 23 56  1  0  0  0  0
 24 78  1  0  0  0  0
 25 79  1  0  0  0  0
 26 28  2  0  0  0  0
 26 78  1  0  0  0  0
 27 80  1  0  0  0  0
 28 81  1  0  0  0  0
 29 62  2  0  0  0  0
 30 63  1  0  0  0  0
 30 66  1  0  0  0  0
 31 68  1  0  0  0  0
 31 82  1  0  0  0  0
 32 67  1  0  0  0  0
 32 73  2  0  0  0  0
 33 47  1  0  0  0  0
 33 69  1  0  0  0  0
 33 74  2  0  0  0  0
 34 58  1  0  0  0  0
 34 64  1  0  0  0  0
 34 75  2  0  0  0  0
 35 59  1  0  0  0  0
 35 70  1  0  0  0  0
 35 76  2  0  0  0  0
 36 65  1  0  0  0  0
 36 71  1  0  0  0  0
 36 77  2  0  0  0  0
 37 40  1  0  0  0  0
 38 47  1  0  0  0  0
 39 64  1  0  0  0  0
 40 42  1  0  0  0  0
 41 43  1  0  0  0  0
 41 44  1  0  0  0  0
 42 46  1  0  0  0  0
 43 48  1  0  0  0  0
 44 65  1  0  0  0  0
 45 48  1  0  0  0  0
 45 65  1  0  0  0  0
 46 69  1  0  0  0  0
 47 64  1  0  0  0  0
 48 63  1  0  0  0  0
 49 59  1  0  0  0  0
 50 60  1  0  0  0  0
 51 60  1  0  0  0  0
 52 60  1  0  0  0  0
 53 61  1  0  0  0  0
 54 61  1  0  0  0  0
 55 72  1  0  0  0  0
 56 71  1  0  0  0  0
 57 61  1  0  0  0  0
 57 68  1  0  0  0  0
 58 60  1  0  0  0  0
 58 70  1  0  0  0  0
 59 72  1  0  0  0  0
 61 79  1  0  0  0  0
 62 63  1  0  0  0  0
M  CHG  1  72   1
M  ISO  4  36 100  61 101  71 100  79 101
M  END
> <Batch ID>
0150

> <Smiles>
CNC(C)C(=O)NC(C(=O)N1Cc2cc([101O:1][101C:1](C)(C)CNc3cc(C[100NH:0][100C:0](=O)N4CCCC(n5nc(-c6ccc(Oc7ccc(F)cc7F)cc6)c(C(N)=O)c5N)C4)cs3)ccc2CC1C(=O)NC1CCCc2ccccc21)C(C)(C)C

> <Shape>
0.245

> <Color>
0.098

> <Negative vol penalty>
0.000

$$$$

  -OEChem-04052303213D

 81 89  0     1  0  0  0  0  0999 V2000
  -31.0919  -30.2243   25.2334 C   0  0  0  0  0  0  0  0  0  0  0  0
  -30.4078  -29.2346   24.5349 C   0  0  0  0  0  0  0  0  0  0  0  0
  -23.3734  -10.0124   21.6041 C   0  0  0  0  0  0  0  0  0  0  0  0
  -22.6941  -12.3264   21.4596 C   0  0  0  0  0  0  0  0  0  0  0  0
  -30.3823  -31.2137   25.9127 C   0  0  0  0  0  0  0  0  0  0  0  0
  -29.0135  -29.2331   24.5162 C   0  0  0  0  0  0  0  0  0  0  0  0
  -27.1335  -28.3856   19.8911 C   0  0  0  0  0  0  0  0  0  0  0  0
  -22.3946   -9.7855   22.5717 C   0  0  0  0  0  0  0  0  0  0  0  0
  -21.7153  -12.0995   22.4271 C   0  0  0  0  0  0  0  0  0  0  0  0
  -27.1338  -27.0680   19.4353 C   0  0  0  0  0  0  0  0  0  0  0  0
  -19.0529   -9.2780   22.6632 C   0  0  0  0  0  0  0  0  0  0  0  0
  -18.2704   -8.1302   22.5370 C   0  0  0  0  0  0  0  0  0  0  0  0
  -24.8006  -26.8729   20.0160 C   0  0  0  0  0  0  0  0  0  0  0  0
  -19.0510   -7.3614   24.6903 C   0  0  0  0  0  0  0  0  0  0  0  0
  -30.0408  -19.4443   19.7218 C   0  0  0  0  0  0  0  0  0  0  0  0
  -23.5232  -11.2829   21.0481 C   0  0  0  0  0  0  0  0  0  0  0  0
  -24.3969  -11.3907   18.6539 C   0  0  0  0  0  0  0  0  0  0  0  0
  -28.9787  -31.2299   25.8943 C   0  0  0  0  0  0  0  0  0  0  0  0
  -25.9676  -28.9542   20.4238 C   0  0  0  0  0  0  0  0  0  0  0  0
  -28.2844  -30.2229   25.1970 C   0  0  0  0  0  0  0  0  0  0  0  0
  -24.7875  -28.1987   20.4755 C   0  0  0  0  0  0  0  0  0  0  0  0
  -21.5656  -10.8290   22.9831 C   0  0  0  0  0  0  0  0  0  0  0  0
  -25.9680  -26.3105   19.5003 C   0  0  0  0  0  0  0  0  0  0  0  0
  -19.8345   -9.4675   23.8029 C   0  0  0  0  0  0  0  0  0  0  0  0
  -18.2695   -7.1719   23.5505 C   0  0  0  0  0  0  0  0  0  0  0  0
  -19.8335   -8.5092   24.8164 C   0  0  0  0  0  0  0  0  0  0  0  0
  -24.5345  -11.5180   20.0491 C   0  0  0  0  0  0  0  0  0  0  0  0
  -25.6327  -11.7232   18.1552 C   0  0  0  0  0  0  0  0  0  0  0  0
  -28.6698  -19.5151   19.7149 C   0  0  0  0  0  0  0  0  0  0  0  0
  -29.3069  -17.4869   19.9522 C   0  0  0  0  0  0  0  0  0  0  0  0
  -23.2542  -11.0063   17.8779 C   0  0  0  0  0  0  0  0  0  0  0  0
  -25.1429  -30.1442   23.2535 C   0  0  0  0  0  0  0  0  0  0  0  0
  -26.9274  -22.8159   19.3262 C   0  0  0  0  0  0  0  0  0  0  0  0
  -22.4189  -30.9470   21.6858 C   0  0  0  0  0  0  0  0  0  0  0  0
  -20.2901  -30.3526   19.0855 C   0  0  0  0  0  0  0  0  0  0  0  0
  -30.0958  -15.1107   20.2315 C   0  0  0  0  0  0  0  0  0  0  0  0
  -28.2547  -32.2924   26.6827 C   0  0  0  0  0  0  0  0  0  0  0  0
  -25.9768  -30.3853   20.8866 C   0  0  0  0  0  0  0  0  0  0  0  0
  -23.5041  -28.7689   21.0198 C   0  0  0  0  0  0  0  0  0  0  0  0
  -26.7832  -32.4361   26.3028 C   0  0  0  0  0  0  0  0  0  0  0  0
  -30.2777  -11.6738   19.3196 C   0  0  0  0  0  0  0  0  0  0  0  0
  -26.1177  -31.0662   26.2169 C   0  0  0  0  0  0  0  0  0  0  0  0
  -28.8128  -11.2338   19.2703 C   0  0  0  0  0  0  0  0  0  0  0  0
  -30.5319  -12.6738   20.4462 C   0  0  0  0  0  0  0  0  0  0  0  0
  -28.1794  -13.4036   20.4006 C   0  0  0  0  0  0  0  0  0  0  0  0
  -26.7726  -30.2018   25.1327 C   0  0  1  0  0  0  0  0  0  0  0  0
  -24.8659  -30.6977   21.8844 C   0  0  1  0  0  0  0  0  0  0  0  0
  -27.8610  -12.4457   19.2409 C   0  0  2  0  0  0  0  0  0  0  0  0
  -18.1288  -31.1470   18.0879 C   0  0  0  0  0  0  0  0  0  0  0  0
  -20.8753  -29.5038   23.8868 C   0  0  0  0  0  0  0  0  0  0  0  0
  -18.8731  -29.4996   22.3837 C   0  0  0  0  0  0  0  0  0  0  0  0
  -19.8566  -31.6629   23.1421 C   0  0  0  0  0  0  0  0  0  0  0  0
  -21.6071  -31.1122   16.5463 C   0  0  0  0  0  0  0  0  0  0  0  0
  -28.1583  -21.9408   19.4315 C   0  0  0  0  0  0  0  0  0  0  0  0
  -27.1911  -24.2997   19.1586 C   0  0  0  0  0  0  0  0  0  1  0  0
  -21.0931  -30.2713   21.4313 C   0  0  1  0  0  0  0  0  0  0  0  0
  -19.6431  -31.2874   18.0795 C   0  0  2  0  0  0  0  0  0  0  0  0
  -20.1990  -30.2227   22.7025 C   0  0  0  0  0  0  0  0  0  0  0  0
  -30.4431  -18.1421   19.8744 N   0  0  0  0  0  0  0  0  0  0  0  0
  -25.7610  -11.9013   20.4134 N   0  0  0  0  0  0  0  0  0  0  0  0
  -26.4054  -12.0176   19.2399 N   0  0  0  0  0  0  0  0  0  0  0  0
  -23.5654  -30.1707   21.4657 N   0  0  0  0  0  0  0  0  0  0  0  0
  -29.5964  -13.7966   20.3517 N   0  0  0  0  0  0  0  0  0  0  0  0
  -26.1230  -11.7894   16.8992 N   0  0  0  0  0  0  0  0  0  0  0  0
  -22.0634  -10.6980   18.5497 N   0  0  0  0  0  0  0  0  0  0  0  0
  -27.7688  -20.5633   19.5931 N   0  0  0  0  0  0  0  0  0  0  0  0
  -29.1126  -16.0929   20.1164 N   0  0  0  0  0  0  0  0  0  0  0  0
  -26.3158  -30.6054   23.8201 N   0  0  0  0  0  0  0  0  0  0  0  0
  -20.4889  -30.9701   20.3022 N   0  0  0  0  0  0  0  0  0  0  0  0
  -20.1351  -30.9895   16.7047 N   0  3  0  0  0  0  0  0  0  0  0  0
  -23.2927  -10.9224   16.6269 O   0  0  0  0  0  0  0  0  0  0  0  0
  -24.3503  -29.3580   23.7590 O   0  0  0  0  0  0  0  0  0  0  0  0
  -25.7839  -22.3641   19.3727 O   0  0  0  0  0  0  0  0  0  0  0  0
  -22.4367  -32.1226   22.0591 O   0  0  0  0  0  0  0  0  0  0  0  0
  -20.5859  -29.1896   18.8198 O   0  0  0  0  0  0  0  0  0  0  0  0
  -31.3068  -15.3447   20.2032 O   0  0  0  0  0  0  0  0  0  0  0  0
  -28.1841  -18.2512   19.8637 O   0  0  0  0  0  0  0  0  0  0  0  0
  -20.6102  -10.6079   23.9270 O   0  0  0  0  0  0  0  0  0  0  0  0
  -25.9658  -25.0240   19.0567 O   0  0  0  0  0  0  0  0  0  1  0  0
  -17.5168   -6.0705   23.4299 F   0  0  0  0  0  0  0  0  0  0  0  0
  -20.5814   -8.6862   25.9142 F   0  0  0  0  0  0  0  0  0  0  0  0
  1  2  1  0  0  0  0
  1  5  2  0  0  0  0
  2  6  2  0  0  0  0
  3  8  2  0  0  0  0
  3 16  1  0  0  0  0
  4  9  1  0  0  0  0
  4 16  2  0  0  0  0
  5 18  1  0  0  0  0
  6 20  1  0  0  0  0
  7 10  2  0  0  0  0
  7 19  1  0  0  0  0
  8 22  1  0  0  0  0
  9 22  2  0  0  0  0
 10 23  1  0  0  0  0
 11 12  2  0  0  0  0
 11 24  1  0  0  0  0
 12 25  1  0  0  0  0
 13 21  1  0  0  0  0
 13 23  2  0  0  0  0
 14 25  2  0  0  0  0
 14 26  1  0  0  0  0
 15 29  2  0  0  0  0
 15 59  1  0  0  0  0
 16 27  1  0  0  0  0
 17 27  1  0  0  0  0
 17 28  2  0  0  0  0
 17 31  1  0  0  0  0
 18 20  2  0  0  0  0
 18 37  1  0  0  0  0
 19 21  2  0  0  0  0
 19 38  1  0  0  0  0
 20 46  1  0  0  0  0
 21 39  1  0  0  0  0
 22 78  1  0  0  0  0
 23 79  1  0  0  0  0
 24 26  2  0  0  0  0
 24 78  1  0  0  0  0
 25 80  1  0  0  0  0
 26 81  1  0  0  0  0
 27 60  2  0  0  0  0
 28 61  1  0  0  0  0
 28 64  1  0  0  0  0
 29 66  1  0  0  0  0
 29 77  1  0  0  0  0
 30 59  2  0  0  0  0
 30 67  1  0  0  0  0
 30 77  1  0  0  0  0
 31 65  1  0  0  0  0
 31 71  2  0  0  0  0
 32 47  1  0  0  0  0
 32 68  1  0  0  0  0
 32 72  2  0  0  0  0
 33 54  1  0  0  0  0
 33 55  1  0  0  0  0
 33 73  2  0  0  0  0
 34 56  1  0  0  0  0
 34 62  1  0  0  0  0
 34 74  2  0  0  0  0
 35 57  1  0  0  0  0
 35 69  1  0  0  0  0
 35 75  2  0  0  0  0
 36 63  1  0  0  0  0
 36 67  1  0  0  0  0
 36 76  2  0  0  0  0
 37 40  1  0  0  0  0
 38 47  1  0  0  0  0
 39 62  1  0  0  0  0
 40 42  1  0  0  0  0
 41 43  1  0  0  0  0
 41 44  1  0  0  0  0
 42 46  1  0  0  0  0
 43 48  1  0  0  0  0
 44 63  1  0  0  0  0
 45 48  1  0  0  0  0
 45 63  1  0  0  0  0
 46 68  1  0  0  0  0
 47 62  1  0  0  0  0
 48 61  1  0  0  0  0
 49 57  1  0  0  0  0
 50 58  1  0  0  0  0
 51 58  1  0  0  0  0
 52 58  1  0  0  0  0
 53 70  1  0  0  0  0
 54 66  1  0  0  0  0
 55 79  1  0  0  0  0
 56 58  1  0  0  0  0
 56 69  1  0  0  0  0
 57 70  1  0  0  0  0
 60 61  1  0  0  0  0
M  CHG  1  70   1
M  ISO  4  36 100  55 101  67 100  79 101
M  END
> <Batch ID>
0150

> <Smiles>
CNC(C)C(=O)NC(C(=O)N1Cc2cc([101O:1][101CH2:1]C(=O)CNc3cnc([100NH:0][100C:0](=O)N4CCCC(n5nc(-c6ccc(Oc7ccc(F)cc7F)cc6)c(C(N)=O)c5N)C4)o3)ccc2CC1C(=O)NC1CCCc2ccccc21)C(C)(C)C

> <Shape>
0.274

> <Color>
0.092

> <Negative vol penalty>
0.000

$$$$

  -OEChem-04052303213D

 85 94  0     1  0  0  0  0  0999 V2000
  -31.6574  -33.4686   25.0939 C   0  0  0  0  0  0  0  0  0  0  0  0
  -31.4387  -32.5277   24.0927 C   0  0  0  0  0  0  0  0  0  0  0  0
  -24.6068   -8.2476   20.3835 C   0  0  0  0  0  0  0  0  0  0  0  0
  -23.0030  -10.0470   20.2194 C   0  0  0  0  0  0  0  0  0  0  0  0
  -30.7381  -33.6055   26.1331 C   0  0  0  0  0  0  0  0  0  0  0  0
  -30.3010  -31.7224   24.1308 C   0  0  0  0  0  0  0  0  0  0  0  0
  -27.6438  -18.9257   15.9446 C   0  0  0  0  0  0  0  0  0  0  0  0
  -27.0725  -29.6825   19.3432 C   0  0  0  0  0  0  0  0  0  0  0  0
  -27.7942  -17.7184   16.6303 C   0  0  0  0  0  0  0  0  0  0  0  0
  -23.6229   -7.4198   20.9241 C   0  0  0  0  0  0  0  0  0  0  0  0
  -22.0190   -9.2192   20.7600 C   0  0  0  0  0  0  0  0  0  0  0  0
  -27.0696  -28.4649   18.6641 C   0  0  0  0  0  0  0  0  0  0  0  0
  -22.1263   -6.9587   23.9194 C   0  0  0  0  0  0  0  0  0  0  0  0
  -22.4663   -6.1913   25.0335 C   0  0  0  0  0  0  0  0  0  0  0  0
  -28.7033  -18.8737   18.5746 C   0  0  0  0  0  0  0  0  0  0  0  0
  -25.2038  -27.7287   20.0042 C   0  0  0  0  0  0  0  0  0  0  0  0
  -21.9639   -4.1763   23.7988 C   0  0  0  0  0  0  0  0  0  0  0  0
  -24.2969   -9.5612   20.0311 C   0  0  0  0  0  0  0  0  0  0  0  0
  -28.5503  -20.0638   17.8872 C   0  0  0  0  0  0  0  0  0  0  0  0
  -25.6343  -10.5794   18.1122 C   0  0  0  0  0  0  0  0  0  0  0  0
  -28.0265  -20.0878   16.5877 C   0  0  0  0  0  0  0  0  0  0  0  0
  -29.5836  -32.8081   26.1787 C   0  0  0  0  0  0  0  0  0  0  0  0
  -26.1464  -29.9286   20.3671 C   0  0  0  0  0  0  0  0  0  0  0  0
  -29.3660  -31.8478   25.1723 C   0  0  0  0  0  0  0  0  0  0  0  0
  -25.1954  -28.9512   20.6930 C   0  0  0  0  0  0  0  0  0  0  0  0
  -28.3192  -17.6927   17.9339 C   0  0  0  0  0  0  0  0  0  0  0  0
  -22.3290   -7.9056   21.1124 C   0  0  0  0  0  0  0  0  0  0  0  0
  -26.1370  -27.4867   18.9965 C   0  0  0  0  0  0  0  0  0  0  0  0
  -21.7050   -6.3349   22.7451 C   0  0  0  0  0  0  0  0  0  0  0  0
  -22.3851   -4.8001   24.9731 C   0  0  0  0  0  0  0  0  0  0  0  0
  -21.6238   -4.9437   22.6847 C   0  0  0  0  0  0  0  0  0  0  0  0
  -25.3130  -10.4169   19.4731 C   0  0  0  0  0  0  0  0  0  0  0  0
  -26.6592  -11.4937   18.1081 C   0  0  0  0  0  0  0  0  0  0  0  0
  -28.8520  -21.4311   18.2765 C   0  0  0  0  0  0  0  0  0  0  0  0
  -25.0577   -9.9593   16.9551 C   0  0  0  0  0  0  0  0  0  0  0  0
  -26.3534  -30.5394   23.4796 C   0  0  0  0  0  0  0  0  0  0  0  0
  -27.4087  -24.3123   17.7863 C   0  0  0  0  0  0  0  0  0  0  0  0
  -23.1511  -30.9801   23.2096 C   0  0  0  0  0  0  0  0  0  0  0  0
  -20.2698  -30.3227   21.5029 C   0  0  0  0  0  0  0  0  0  0  0  0
  -28.9587  -16.2410   19.8909 C   0  0  0  0  0  0  0  0  0  0  0  0
  -28.6424  -32.9597   27.3474 C   0  0  0  0  0  0  0  0  0  0  0  0
  -26.1455  -31.2574   21.0718 C   0  0  0  0  0  0  0  0  0  0  0  0
  -27.9749  -21.5019   16.0935 C   0  0  0  0  0  0  0  0  0  0  0  0
  -24.1669  -29.1738   21.7706 C   0  0  0  0  0  0  0  0  0  0  0  0
  -27.2733  -32.3267   27.1129 C   0  0  0  0  0  0  0  0  0  0  0  0
  -29.4328  -13.3496   21.9139 C   0  0  0  0  0  0  0  0  0  0  0  0
  -27.4257  -30.9269   26.5262 C   0  0  0  0  0  0  0  0  0  0  0  0
  -28.4297  -12.3423   21.3473 C   0  0  0  0  0  0  0  0  0  0  0  0
  -28.8792  -14.7733   21.8946 C   0  0  0  0  0  0  0  0  0  0  0  0
  -27.3742  -14.2193   20.0245 C   0  0  0  0  0  0  0  0  0  0  0  0
  -28.1312  -30.9729   25.1655 C   0  0  1  0  0  0  0  0  0  0  0  0
  -25.4873  -31.2038   22.4471 C   0  0  1  0  0  0  0  0  0  0  0  0
  -27.9118  -12.7802   19.9633 C   0  0  2  0  0  0  0  0  0  0  0  0
  -17.8050  -30.7922   21.5441 C   0  0  0  0  0  0  0  0  0  0  0  0
  -22.8096  -28.9750   25.4840 C   0  0  0  0  0  0  0  0  0  0  0  0
  -20.3971  -28.7692   24.8471 C   0  0  0  0  0  0  0  0  0  0  0  0
  -21.3003  -30.9650   25.6122 C   0  0  0  0  0  0  0  0  0  0  0  0
  -20.3635  -31.6640   18.8664 C   0  0  0  0  0  0  0  0  0  0  0  0
  -28.6786  -23.6964   17.2602 C   0  0  0  0  0  0  0  0  0  0  0  0
  -27.3836  -25.8270   17.8357 C   0  0  0  0  0  0  0  0  0  1  0  0
  -21.9361  -30.0918   23.3263 C   0  0  1  0  0  0  0  0  0  0  0  0
  -19.1594  -31.2341   21.0121 C   0  0  2  0  0  0  0  0  0  0  0  0
  -21.6312  -29.6950   24.7984 C   0  0  0  0  0  0  0  0  0  0  0  0
  -26.0724  -11.1676   20.2754 N   0  0  0  0  0  0  0  0  0  0  0  0
  -26.8811  -11.8106   19.4160 N   0  0  0  0  0  0  0  0  0  0  0  0
  -28.5262  -22.2513   17.2595 N   0  0  0  0  0  0  0  0  0  0  0  0
  -24.2107  -30.4868   22.4352 N   0  0  0  0  0  0  0  0  0  0  0  0
  -28.4116  -15.1202   20.5508 N   0  0  0  0  0  0  0  0  0  0  0  0
  -27.3833  -12.0493   17.1135 N   0  0  0  0  0  0  0  0  0  0  0  0
  -24.0127   -9.0436   17.1387 N   0  0  0  0  0  0  0  0  0  0  0  0
  -28.4608  -16.4532   18.6058 N   0  0  0  0  0  0  0  0  0  0  0  0
  -27.2118  -31.4024   24.1337 N   0  0  0  0  0  0  0  0  0  0  0  0
  -20.8477  -30.7994   22.6605 N   0  0  0  0  0  0  0  0  0  0  0  0
  -29.3632  -21.7596   19.4524 N   0  3  0  0  0  0  0  0  0  0  0  0
  -19.1043  -31.2278   19.5229 N   0  3  0  0  0  0  0  0  0  0  0  0
  -25.4684  -10.1975   15.7940 O   0  0  0  0  0  0  0  0  0  0  0  0
  -26.2496  -29.3333   23.6698 O   0  0  0  0  0  0  0  0  0  0  0  0
  -26.4491  -23.6362   18.1545 O   0  0  0  0  0  0  0  0  0  0  0  0
  -23.1569  -32.0746   23.7785 O   0  0  0  0  0  0  0  0  0  0  0  0
  -20.5898  -29.2892   20.9198 O   0  0  0  0  0  0  0  0  0  0  0  0
  -29.8262  -16.9436   20.4160 O   0  0  0  0  0  0  0  0  0  0  0  0
  -21.3685   -7.0981   21.6397 O   0  0  0  0  0  0  0  0  0  0  0  0
  -26.1325  -26.2971   18.3356 O   0  0  0  0  0  0  0  0  0  1  0  0
  -22.7132   -4.0632   26.0425 F   0  0  0  0  0  0  0  0  0  0  0  0
  -21.2209   -4.3387   21.5589 F   0  0  0  0  0  0  0  0  0  0  0  0
  1  2  1  0  0  0  0
  1  5  2  0  0  0  0
  2  6  2  0  0  0  0
  3 10  2  0  0  0  0
  3 18  1  0  0  0  0
  4 11  1  0  0  0  0
  4 18  2  0  0  0  0
  5 22  1  0  0  0  0
  6 24  1  0  0  0  0
  7  9  2  0  0  0  0
  7 21  1  0  0  0  0
  8 12  2  0  0  0  0
  8 23  1  0  0  0  0
  9 26  1  0  0  0  0
 10 27  1  0  0  0  0
 11 27  2  0  0  0  0
 12 28  1  0  0  0  0
 13 14  2  0  0  0  0
 13 29  1  0  0  0  0
 14 30  1  0  0  0  0
 15 19  1  0  0  0  0
 15 26  2  0  0  0  0
 16 25  1  0  0  0  0
 16 28  2  0  0  0  0
 17 30  2  0  0  0  0
 17 31  1  0  0  0  0
 18 32  1  0  0  0  0
 19 21  2  0  0  0  0
 19 34  1  0  0  0  0
 20 32  1  0  0  0  0
 20 33  2  0  0  0  0
 20 35  1  0  0  0  0
 21 43  1  0  0  0  0
 22 24  2  0  0  0  0
 22 41  1  0  0  0  0
 23 25  2  0  0  0  0
 23 42  1  0  0  0  0
 24 51  1  0  0  0  0
 25 44  1  0  0  0  0
 26 71  1  0  0  0  0
 27 82  1  0  0  0  0
 28 83  1  0  0  0  0
 29 31  2  0  0  0  0
 29 82  1  0  0  0  0
 30 84  1  0  0  0  0
 31 85  1  0  0  0  0
 32 64  2  0  0  0  0
 33 65  1  0  0  0  0
 33 69  1  0  0  0  0
 34 66  1  0  0  0  0
 34 74  2  0  0  0  0
 35 70  1  0  0  0  0
 35 76  2  0  0  0  0
 36 52  1  0  0  0  0
 36 72  1  0  0  0  0
 36 77  2  0  0  0  0
 37 59  1  0  0  0  0
 37 60  1  0  0  0  0
 37 78  2  0  0  0  0
 38 61  1  0  0  0  0
 38 67  1  0  0  0  0
 38 79  2  0  0  0  0
 39 62  1  0  0  0  0
 39 73  1  0  0  0  0
 39 80  2  0  0  0  0
 40 68  1  0  0  0  0
 40 71  1  0  0  0  0
 40 81  2  0  0  0  0
 41 45  1  0  0  0  0
 42 52  1  0  0  0  0
 43 66  1  0  0  0  0
 44 67  1  0  0  0  0
 45 47  1  0  0  0  0
 46 48  1  0  0  0  0
 46 49  1  0  0  0  0
 47 51  1  0  0  0  0
 48 53  1  0  0  0  0
 49 68  1  0  0  0  0
 50 53  1  0  0  0  0
 50 68  1  0  0  0  0
 51 72  1  0  0  0  0
 52 67  1  0  0  0  0
 53 65  1  0  0  0  0
 54 62  1  0  0  0  0
 55 63  1  0  0  0  0
 56 63  1  0  0  0  0
 57 63  1  0  0  0  0
 58 75  1  0  0  0  0
 59 66  1  0  0  0  0
 60 83  1  0  0  0  0
 61 63  1  0  0  0  0
 61 73  1  0  0  0  0
 62 75  1  0  0  0  0
 64 65  1  0  0  0  0
M  CHG  2  74   1  75   1
M  ISO  4  40 100  60 101  71 100  83 101
M  END
> <Batch ID>
0150

> <Smiles>
CNC(C)C(=O)NC(C(=O)N1Cc2cc([101O:1][101CH2:1]C(=O)CN3Cc4ccc([100NH:0][100C:0](=O)N5CCCC(n6nc(-c7ccc(Oc8ccc(F)cc8F)cc7)c(C(N)=O)c6N)C5)cc4C3=N)ccc2CC1C(=O)NC1CCCc2ccccc21)C(C)(C)C

> <Shape>
0.266

> <Color>
0.102

> <Negative vol penalty>
0.000

$$$$

  -OEChem-04052303213D

 85 94  0     1  0  0  0  0  0999 V2000
  -30.5289  -30.2273   26.1096 C   0  0  0  0  0  0  0  0  0  0  0  0
  -29.9808  -29.3786   25.1532 C   0  0  0  0  0  0  0  0  0  0  0  0
  -23.9309   -9.4734   21.8941 C   0  0  0  0  0  0  0  0  0  0  0  0
  -24.2999  -10.9480   23.7720 C   0  0  0  0  0  0  0  0  0  0  0  0
  -29.6941  -31.0115   26.9046 C   0  0  0  0  0  0  0  0  0  0  0  0
  -28.5972  -29.3128   24.9921 C   0  0  0  0  0  0  0  0  0  0  0  0
  -27.2026  -29.3884   20.1244 C   0  0  0  0  0  0  0  0  0  0  0  0
  -23.4529   -8.4901   22.7601 C   0  0  0  0  0  0  0  0  0  0  0  0
  -23.8219   -9.9646   24.6381 C   0  0  0  0  0  0  0  0  0  0  0  0
  -27.3356  -28.2013   19.4055 C   0  0  0  0  0  0  0  0  0  0  0  0
  -20.5893   -7.8173   24.4275 C   0  0  0  0  0  0  0  0  0  0  0  0
  -19.4230   -7.1442   24.0636 C   0  0  0  0  0  0  0  0  0  0  0  0
  -24.9790  -27.7717   19.6907 C   0  0  0  0  0  0  0  0  0  0  0  0
  -20.6279   -5.0501   24.0757 C   0  0  0  0  0  0  0  0  0  0  0  0
  -30.1717  -19.0006   18.9213 C   0  0  0  0  0  0  0  0  0  0  0  0
  -24.3545  -10.7024   22.4000 C   0  0  0  0  0  0  0  0  0  0  0  0
  -24.1006  -12.7234   20.8641 C   0  0  0  0  0  0  0  0  0  0  0  0
  -28.3001  -30.9624   26.7465 C   0  0  0  0  0  0  0  0  0  0  0  0
  -25.9569  -29.7713   20.6421 C   0  0  0  0  0  0  0  0  0  0  0  0
  -27.7429  -30.0961   25.7866 C   0  0  0  0  0  0  0  0  0  0  0  0
  -24.8324  -28.9654   20.4136 C   0  0  0  0  0  0  0  0  0  0  0  0
  -23.3983   -8.7356   24.1321 C   0  0  0  0  0  0  0  0  0  0  0  0
  -26.2243  -27.3913   19.1910 C   0  0  0  0  0  0  0  0  0  0  0  0
  -21.7749   -7.1068   24.6154 C   0  0  0  0  0  0  0  0  0  0  0  0
  -19.4423   -5.7606   23.8877 C   0  0  0  0  0  0  0  0  0  0  0  0
  -21.7942   -5.7232   24.4395 C   0  0  0  0  0  0  0  0  0  0  0  0
  -24.8489  -11.7184   21.5059 C   0  0  0  0  0  0  0  0  0  0  0  0
  -25.0261  -13.4258   20.1318 C   0  0  0  0  0  0  0  0  0  0  0  0
  -29.1397  -18.2630   19.4626 C   0  0  0  0  0  0  0  0  0  0  0  0
  -28.6920  -20.6061   19.1283 C   0  0  0  0  0  0  0  0  0  0  0  0
  -22.6945  -12.9974   20.9247 C   0  0  0  0  0  0  0  0  0  0  0  0
  -24.8012  -30.2831   23.5586 C   0  0  0  0  0  0  0  0  0  0  0  0
  -22.1791  -31.2696   21.9233 C   0  0  0  0  0  0  0  0  0  0  0  0
  -20.3384  -31.1446   19.0523 C   0  0  0  0  0  0  0  0  0  0  0  0
  -29.9909  -15.8989   19.6434 C   0  0  0  0  0  0  0  0  0  0  0  0
  -27.4361  -31.7937   27.6614 C   0  0  0  0  0  0  0  0  0  0  0  0
  -25.8248  -31.0681   21.3926 C   0  0  0  0  0  0  0  0  0  0  0  0
  -23.4688  -29.3416   20.9309 C   0  0  0  0  0  0  0  0  0  0  0  0
  -25.9981  -31.9434   27.1714 C   0  0  0  0  0  0  0  0  0  0  0  0
  -29.8657  -12.3865   19.0736 C   0  0  0  0  0  0  0  0  0  0  0  0
  -25.4401  -30.5931   26.7332 C   0  0  0  0  0  0  0  0  0  0  0  0
  -28.4878  -11.9822   19.6028 C   0  0  0  0  0  0  0  0  0  0  0  0
  -26.4804  -23.5385   19.5542 C   0  0  0  0  0  0  0  0  0  0  0  0
  -30.5012  -13.4834   19.9261 C   0  0  0  0  0  0  0  0  0  0  0  0
  -26.7233  -22.0348   19.5540 C   0  0  0  0  0  0  0  0  0  0  0  0
  -28.2853  -14.2667   20.6645 C   0  0  0  0  0  0  0  0  0  0  0  0
  -26.2481  -30.0152   25.5649 C   0  0  1  0  0  0  0  0  0  0  0  0
  -24.6100  -31.1039   22.3146 C   0  0  1  0  0  0  0  0  0  0  0  0
  -27.5775  -13.2102   19.8005 C   0  0  2  0  0  0  0  0  0  0  0  0
  -27.3825  -24.0509   18.4212 C   0  0  1  0  0  0  0  0  0  0  0  0
  -28.6829  -23.1576   18.6136 C   0  0  0  0  0  0  0  0  0  0  0  0
  -26.6732  -23.8102   17.0655 C   0  0  0  0  0  0  0  0  0  0  0  0
  -29.6068  -23.7246   19.7137 C   0  0  0  0  0  0  0  0  0  0  0  0
  -29.4590  -23.0400   17.2911 C   0  0  0  0  0  0  0  0  0  0  0  0
  -18.2250  -32.0279   18.0272 C   0  0  0  0  0  0  0  0  0  0  0  0
  -20.5490  -29.3130   23.6039 C   0  0  0  0  0  0  0  0  0  0  0  0
  -18.6947  -29.5339   21.9363 C   0  0  0  0  0  0  0  0  0  0  0  0
  -19.4531  -31.5291   23.2271 C   0  0  0  0  0  0  0  0  0  0  0  0
  -21.8213  -32.4961   16.8767 C   0  0  0  0  0  0  0  0  0  0  0  0
  -27.6101  -25.5635   18.5630 C   0  0  0  0  0  0  0  0  0  1  0  0
  -20.9318  -30.6003   21.3988 C   0  0  1  0  0  0  0  0  0  0  0  0
  -19.7205  -32.2409   18.2034 C   0  0  2  0  0  0  0  0  0  0  0  0
  -19.9331  -30.2357   22.5333 C   0  0  0  0  0  0  0  0  0  0  0  0
  -29.9167  -20.3443   18.7285 N   0  0  0  0  0  0  0  0  0  0  0  0
  -26.1496  -11.7739   21.2073 N   0  0  0  0  0  0  0  0  0  0  0  0
  -26.2258  -12.8222   20.3698 N   0  0  0  0  0  0  0  0  0  0  0  0
  -28.1049  -21.8611   19.0768 N   0  0  3  0  0  0  0  0  0  0  0  0
  -23.3921  -30.6160   21.6642 N   0  0  0  0  0  0  0  0  0  0  0  0
  -29.5834  -14.6160   20.0664 N   0  0  0  0  0  0  0  0  0  0  0  0
  -24.9227  -14.4947   19.3137 N   0  0  0  0  0  0  0  0  0  0  0  0
  -21.8879  -12.1778   21.7258 N   0  0  0  0  0  0  0  0  0  0  0  0
  -29.0227  -16.8908   19.7959 N   0  0  0  0  0  0  0  0  0  0  0  0
  -25.8836  -30.6686   24.3262 N   0  0  0  0  0  0  0  0  0  0  0  0
  -20.3839  -31.4951   20.3851 N   0  0  0  0  0  0  0  0  0  0  0  0
  -20.3531  -32.2701   16.8544 N   0  3  0  0  0  0  0  0  0  0  0  0
  -22.1665  -13.9311   20.2743 O   0  0  0  0  0  0  0  0  0  0  0  0
  -24.0233  -29.3687   23.8047 O   0  0  0  0  0  0  0  0  0  0  0  0
  -22.0815  -32.3369   22.5341 O   0  0  0  0  0  0  0  0  0  0  0  0
  -20.7371  -30.0819   18.5808 O   0  0  0  0  0  0  0  0  0  0  0  0
  -31.1062  -16.0973   19.1549 O   0  0  0  0  0  0  0  0  0  0  0  0
  -22.9317   -7.7764   24.9775 O   0  0  0  0  0  0  0  0  0  0  0  0
  -26.3514  -26.2318   18.4901 O   0  0  0  0  0  0  0  0  0  1  0  0
  -18.3220   -5.1142   23.5398 F   0  0  0  0  0  0  0  0  0  0  0  0
  -22.9299   -5.0351   24.6198 F   0  0  0  0  0  0  0  0  0  0  0  0
  -27.7910  -19.2834   19.7475 S   0  0  0  0  0  0  0  0  0  0  0  0
  1  2  1  0  0  0  0
  1  5  2  0  0  0  0
  2  6  2  0  0  0  0
  3  8  2  0  0  0  0
  3 16  1  0  0  0  0
  4  9  1  0  0  0  0
  4 16  2  0  0  0  0
  5 18  1  0  0  0  0
  6 20  1  0  0  0  0
  7 10  2  0  0  0  0
  7 19  1  0  0  0  0
  8 22  1  0  0  0  0
  9 22  2  0  0  0  0
 10 23  1  0  0  0  0
 11 12  2  0  0  0  0
 11 24  1  0  0  0  0
 12 25  1  0  0  0  0
 13 21  1  0  0  0  0
 13 23  2  0  0  0  0
 14 25  2  0  0  0  0
 14 26  1  0  0  0  0
 15 29  2  0  0  0  0
 15 64  1  0  0  0  0
 16 27  1  0  0  0  0
 17 27  1  0  0  0  0
 17 28  2  0  0  0  0
 17 31  1  0  0  0  0
 18 20  2  0  0  0  0
 18 36  1  0  0  0  0
 19 21  2  0  0  0  0
 19 37  1  0  0  0  0
 20 47  1  0  0  0  0
 21 38  1  0  0  0  0
 22 81  1  0  0  0  0
 23 82  1  0  0  0  0
 24 26  2  0  0  0  0
 24 81  1  0  0  0  0
 25 83  1  0  0  0  0
 26 84  1  0  0  0  0
 27 65  2  0  0  0  0
 28 66  1  0  0  0  0
 28 70  1  0  0  0  0
 29 72  1  0  0  0  0
 29 85  1  0  0  0  0
 30 64  2  0  0  0  0
 30 67  1  0  0  0  0
 30 85  1  0  0  0  0
 31 71  1  0  0  0  0
 31 76  2  0  0  0  0
 32 48  1  0  0  0  0
 32 73  1  0  0  0  0
 32 77  2  0  0  0  0
 33 61  1  0  0  0  0
 33 68  1  0  0  0  0
 33 78  2  0  0  0  0
 34 62  1  0  0  0  0
 34 74  1  0  0  0  0
 34 79  2  0  0  0  0
 35 69  1  0  0  0  0
 35 72  1  0  0  0  0
 35 80  2  0  0  0  0
 36 39  1  0  0  0  0
 37 48  1  0  0  0  0
 38 68  1  0  0  0  0
 39 41  1  0  0  0  0
 40 42  1  0  0  0  0
 40 44  1  0  0  0  0
 41 47  1  0  0  0  0
 42 49  1  0  0  0  0
 43 45  1  0  0  0  0
 43 50  1  0  0  0  0
 44 69  1  0  0  0  0
 45 67  1  0  0  0  0
 46 49  1  0  0  0  0
 46 69  1  0  0  0  0
 47 73  1  0  0  0  0
 48 68  1  0  0  0  0
 49 66  1  0  0  0  0
 50 51  1  0  0  0  0
 50 52  1  0  0  0  0
 50 60  1  0  0  0  0
 51 53  1  0  0  0  0
 51 54  1  0  0  0  0
 51 67  1  0  0  0  0
 55 62  1  0  0  0  0
 56 63  1  0  0  0  0
 57 63  1  0  0  0  0
 58 63  1  0  0  0  0
 59 75  1  0  0  0  0
 60 82  1  0  0  0  0
 61 63  1  0  0  0  0
 61 74  1  0  0  0  0
 62 75  1  0  0  0  0
 65 66  1  0  0  0  0
M  CHG  1  75   1
M  ISO  4  35 100  60 101  72 100  82 101
M  END
> <Batch ID>
0150

> <Smiles>
CNC(C)C(=O)NC(C(=O)N1Cc2cc([101O:1][101CH2:1]C3(C)CCN(c4ncc([100NH:0][100C:0](=O)N5CCCC(n6nc(-c7ccc(Oc8ccc(F)cc8F)cc7)c(C(N)=O)c6N)C5)s4)C3(C)C)ccc2CC1C(=O)NC1CCCc2ccccc21)C(C)(C)C

> <Shape>
0.321

> <Color>
0.123

> <Negative vol penalty>
0.000

$$$$

  -OEChem-04052303213D

 85 94  0     1  0  0  0  0  0999 V2000
  -24.6134  -35.2595   14.4555 C   0  0  0  0  0  0  0  0  0  0  0  0
  -24.8176  -33.9094   14.7217 C   0  0  0  0  0  0  0  0  0  0  0  0
  -23.2705   -9.6839   20.2553 C   0  0  0  0  0  0  0  0  0  0  0  0
  -23.8707  -10.1025   22.5579 C   0  0  0  0  0  0  0  0  0  0  0  0
  -25.2953  -36.2254   15.1944 C   0  0  0  0  0  0  0  0  0  0  0  0
  -25.7047  -33.5244   15.7263 C   0  0  0  0  0  0  0  0  0  0  0  0
  -25.1839  -28.6833   19.4409 C   0  0  0  0  0  0  0  0  0  0  0  0
  -22.5817   -8.5349   20.6437 C   0  0  0  0  0  0  0  0  0  0  0  0
  -23.1818   -8.9534   22.9463 C   0  0  0  0  0  0  0  0  0  0  0  0
  -25.7497  -27.4095   19.4067 C   0  0  0  0  0  0  0  0  0  0  0  0
  -19.9737   -8.0359   23.4817 C   0  0  0  0  0  0  0  0  0  0  0  0
  -19.1426   -8.1267   24.5982 C   0  0  0  0  0  0  0  0  0  0  0  0
  -31.3434  -19.4908   21.7202 C   0  0  0  0  0  0  0  0  0  0  0  0
  -31.3754  -18.1407   21.2661 C   0  0  0  0  0  0  0  0  0  0  0  0
  -27.4863  -28.1470   20.9099 C   0  0  0  0  0  0  0  0  0  0  0  0
  -20.4447   -6.4199   25.7064 C   0  0  0  0  0  0  0  0  0  0  0  0
  -23.9150  -10.4677   21.2124 C   0  0  0  0  0  0  0  0  0  0  0  0
  -24.1125  -12.9606   20.7086 C   0  0  0  0  0  0  0  0  0  0  0  0
  -26.1840  -35.8522   16.2150 C   0  0  0  0  0  0  0  0  0  0  0  0
  -25.7722  -29.7032   20.2026 C   0  0  0  0  0  0  0  0  0  0  0  0
  -26.4002  -34.4862   16.4786 C   0  0  0  0  0  0  0  0  0  0  0  0
  -26.9245  -29.4322   20.9542 C   0  0  0  0  0  0  0  0  0  0  0  0
  -22.5373   -8.1696   21.9892 C   0  0  0  0  0  0  0  0  0  0  0  0
  -26.9027  -27.1420   20.1389 C   0  0  0  0  0  0  0  0  0  0  0  0
  -21.0403   -7.1370   23.4775 C   0  0  0  0  0  0  0  0  0  0  0  0
  -19.3781   -7.3188   25.7105 C   0  0  0  0  0  0  0  0  0  0  0  0
  -21.2758   -6.3290   24.5899 C   0  0  0  0  0  0  0  0  0  0  0  0
  -24.6272  -11.6544   20.8117 C   0  0  0  0  0  0  0  0  0  0  0  0
  -30.1353  -19.8139   22.2979 C   0  0  0  0  0  0  0  0  0  0  0  0
  -25.1800  -13.7186   20.2934 C   0  0  0  0  0  0  0  0  0  0  0  0
  -30.1905  -17.4832   21.5143 C   0  0  0  0  0  0  0  0  0  0  0  0
  -22.7878  -13.4455   20.9653 C   0  0  0  0  0  0  0  0  0  0  0  0
  -29.8109  -21.1382   22.8575 C   0  0  0  0  0  0  0  0  0  0  0  0
  -27.0575  -32.5355   19.5471 C   0  0  0  0  0  0  0  0  0  0  0  0
  -27.2011  -32.7825   22.7783 C   0  0  0  0  0  0  0  0  0  0  0  0
  -27.3106  -31.2048   25.8025 C   0  0  0  0  0  0  0  0  0  0  0  0
  -30.5492  -15.1581   20.6133 C   0  0  0  0  0  0  0  0  0  0  0  0
  -26.9340  -36.9313   16.9550 C   0  0  0  0  0  0  0  0  0  0  0  0
  -25.1345  -31.0646   20.2502 C   0  0  0  0  0  0  0  0  0  0  0  0
  -27.5834  -30.4869   21.8039 C   0  0  0  0  0  0  0  0  0  0  0  0
  -27.5738  -36.4473   18.2537 C   0  0  0  0  0  0  0  0  0  0  0  0
  -29.7451  -12.3319   18.6026 C   0  0  0  0  0  0  0  0  0  0  0  0
  -28.3054  -35.1279   18.0291 C   0  0  0  0  0  0  0  0  0  0  0  0
  -28.2995  -12.0111   18.9896 C   0  0  0  0  0  0  0  0  0  0  0  0
  -28.6250  -23.2372   20.1657 C   0  0  0  0  0  0  0  0  0  0  0  0
  -30.5609  -12.8091   19.8028 C   0  0  0  0  0  0  0  0  0  0  0  0
  -28.9602  -21.8334   20.6586 C   0  0  0  0  0  0  0  0  0  0  0  0
  -28.5245  -13.6054   20.9376 C   0  0  0  0  0  0  0  0  0  0  0  0
  -28.9064  -23.4071   22.5467 C   0  0  0  0  0  0  0  0  0  0  0  0
  -27.3357  -34.0294   17.5769 C   0  0  1  0  0  0  0  0  0  0  0  0
  -26.1090  -32.1672   20.6527 C   0  0  1  0  0  0  0  0  0  0  0  0
  -27.6462  -13.1827   19.7487 C   0  0  2  0  0  0  0  0  0  0  0  0
  -28.0387  -23.9524   21.3976 C   0  0  2  0  0  0  0  0  0  0  0  0
  -26.5637  -23.5726   21.6048 C   0  0  0  0  0  0  0  0  0  0  0  0
  -27.4630  -31.6716   28.2635 C   0  0  0  0  0  0  0  0  0  0  0  0
  -30.1724  -33.4056   22.4735 C   0  0  0  0  0  0  0  0  0  0  0  0
  -30.4527  -32.9227   24.9141 C   0  0  0  0  0  0  0  0  0  0  0  0
  -28.9836  -34.7989   24.1764 C   0  0  0  0  0  0  0  0  0  0  0  0
  -24.7022  -29.9088   26.3278 C   0  0  0  0  0  0  0  0  0  0  0  0
  -28.1599  -25.4717   21.2727 C   0  0  0  0  0  0  0  0  0  1  0  0
  -28.2150  -32.4147   23.8346 C   0  0  1  0  0  0  0  0  0  0  0  0
  -26.5316  -31.4314   27.0856 C   0  0  2  0  0  0  0  0  0  0  0  0
  -29.4448  -33.3659   23.8322 C   0  0  0  0  0  0  0  0  0  0  0  0
  -25.9211  -11.5830   20.4879 N   0  0  0  0  0  0  0  0  0  0  0  0
  -26.2283  -12.8539   20.1772 N   0  0  0  0  0  0  0  0  0  0  0  0
  -29.2676  -22.0562   22.0790 N   0  0  0  0  0  0  0  0  0  0  0  0
  -26.9256  -31.8040   21.8126 N   0  0  0  0  0  0  0  0  0  0  0  0
  -29.8828  -13.9227   20.4697 N   0  0  0  0  0  0  0  0  0  0  0  0
  -25.3148  -15.0337   20.0200 N   0  0  0  0  0  0  0  0  0  0  0  0
  -21.8115  -12.5318   21.3852 N   0  0  0  0  0  0  0  0  0  0  0  0
  -29.7935  -16.1521   21.2340 N   0  0  0  0  0  0  0  0  0  0  0  0
  -26.5837  -33.5234   18.7050 N   0  0  0  0  0  0  0  0  0  0  0  0
  -27.4906  -32.3778   25.1004 N   0  0  0  0  0  0  0  0  0  0  0  0
  -30.0686  -21.3873   24.1381 N   0  3  0  0  0  0  0  0  0  0  0  0
  -25.6824  -30.2457   27.3922 N   0  3  0  0  0  0  0  0  0  0  0  0
  -22.4750  -14.6504   20.8107 O   0  0  0  0  0  0  0  0  0  0  0  0
  -28.1398  -31.9667   19.4650 O   0  0  0  0  0  0  0  0  0  0  0  0
  -26.6677  -33.8942   22.8130 O   0  0  0  0  0  0  0  0  0  0  0  0
  -27.7217  -30.0986   25.4594 O   0  0  0  0  0  0  0  0  0  0  0  0
  -31.6954  -15.3301   20.1906 O   0  0  0  0  0  0  0  0  0  0  0  0
  -21.8651   -7.0486   22.3686 O   0  0  0  0  0  0  0  0  0  0  0  0
  -27.4574  -25.8998   20.1067 O   0  0  0  0  0  0  0  0  0  1  0  0
  -18.5807   -7.4072   26.7832 F   0  0  0  0  0  0  0  0  0  0  0  0
  -22.2997   -5.4644   24.5922 F   0  0  0  0  0  0  0  0  0  0  0  0
  -29.0462  -18.4926   22.2914 S   0  0  0  0  0  0  0  0  0  0  0  0
  1  2  1  0  0  0  0
  1  5  2  0  0  0  0
  2  6  2  0  0  0  0
  3  8  2  0  0  0  0
  3 17  1  0  0  0  0
  4  9  1  0  0  0  0
  4 17  2  0  0  0  0
  5 19  1  0  0  0  0
  6 21  1  0  0  0  0
  7 10  2  0  0  0  0
  7 20  1  0  0  0  0
  8 23  1  0  0  0  0
  9 23  2  0  0  0  0
 10 24  1  0  0  0  0
 11 12  2  0  0  0  0
 11 25  1  0  0  0  0
 12 26  1  0  0  0  0
 13 14  1  0  0  0  0
 13 29  2  0  0  0  0
 14 31  2  0  0  0  0
 15 22  1  0  0  0  0
 15 24  2  0  0  0  0
 16 26  2  0  0  0  0
 16 27  1  0  0  0  0
 17 28  1  0  0  0  0
 18 28  1  0  0  0  0
 18 30  2  0  0  0  0
 18 32  1  0  0  0  0
 19 21  2  0  0  0  0
 19 38  1  0  0  0  0
 20 22  2  0  0  0  0
 20 39  1  0  0  0  0
 21 50  1  0  0  0  0
 22 40  1  0  0  0  0
 23 81  1  0  0  0  0
 24 82  1  0  0  0  0
 25 27  2  0  0  0  0
 25 81  1  0  0  0  0
 26 83  1  0  0  0  0
 27 84  1  0  0  0  0
 28 64  2  0  0  0  0
 29 33  1  0  0  0  0
 29 85  1  0  0  0  0
 30 65  1  0  0  0  0
 30 69  1  0  0  0  0
 31 71  1  0  0  0  0
 31 85  1  0  0  0  0
 32 70  1  0  0  0  0
 32 76  2  0  0  0  0
 33 66  1  0  0  0  0
 33 74  2  0  0  0  0
 34 51  1  0  0  0  0
 34 72  1  0  0  0  0
 34 77  2  0  0  0  0
 35 61  1  0  0  0  0
 35 67  1  0  0  0  0
 35 78  2  0  0  0  0
 36 62  1  0  0  0  0
 36 73  1  0  0  0  0
 36 79  2  0  0  0  0
 37 68  1  0  0  0  0
 37 71  1  0  0  0  0
 37 80  2  0  0  0  0
 38 41  1  0  0  0  0
 39 51  1  0  0  0  0
 40 67  1  0  0  0  0
 41 43  1  0  0  0  0
 42 44  1  0  0  0  0
 42 46  1  0  0  0  0
 43 50  1  0  0  0  0
 44 52  1  0  0  0  0
 45 47  1  0  0  0  0
 45 53  1  0  0  0  0
 46 68  1  0  0  0  0
 47 66  1  0  0  0  0
 48 52  1  0  0  0  0
 48 68  1  0  0  0  0
 49 53  1  0  0  0  0
 49 66  1  0  0  0  0
 50 72  1  0  0  0  0
 51 67  1  0  0  0  0
 52 65  1  0  0  0  0
 53 54  1  0  0  0  0
 53 60  1  0  0  0  0
 55 62  1  0  0  0  0
 56 63  1  0  0  0  0
 57 63  1  0  0  0  0
 58 63  1  0  0  0  0
 59 75  1  0  0  0  0
 60 82  1  0  0  0  0
 61 63  1  0  0  0  0
 61 73  1  0  0  0  0
 62 75  1  0  0  0  0
 64 65  1  0  0  0  0
M  CHG  2  74   1  75   1
M  ISO  4  37 100  60 101  71 100  82 101
M  END
> <Batch ID>
0150

> <Smiles>
CNC(C)C(=O)NC(C(=O)N1Cc2cc([101O:1][101CH2:1]C3(C)CCN(C(=N)c4ccc([100NH:0][100C:0](=O)N5CCCC(n6nc(-c7ccc(Oc8ccc(F)cc8F)cc7)c(C(N)=O)c6N)C5)s4)C3)ccc2CC1C(=O)NC1CCCc2ccccc21)C(C)(C)C

> <Shape>
0.308

> <Color>
0.198

> <Negative vol penalty>
0.000

$$$$

  -OEChem-04052303213D

 87 96  0     1  0  0  0  0  0999 V2000
  -29.9334  -32.5935   23.9598 C   0  0  0  0  0  0  0  0  0  0  0  0
  -30.2126  -31.2318   24.0171 C   0  0  0  0  0  0  0  0  0  0  0  0
  -23.0081   -9.9372   19.8801 C   0  0  0  0  0  0  0  0  0  0  0  0
  -23.8603   -9.7344   22.1317 C   0  0  0  0  0  0  0  0  0  0  0  0
  -32.8689  -17.0729   23.6238 C   0  0  0  0  0  0  0  0  0  0  0  0
  -29.0957  -33.0908   22.9623 C   0  0  0  0  0  0  0  0  0  0  0  0
  -29.6533  -30.3664   23.0775 C   0  0  0  0  0  0  0  0  0  0  0  0
  -33.0132  -27.0455   21.2533 C   0  0  0  0  0  0  0  0  0  0  0  0
  -32.2272  -16.2796   22.6727 C   0  0  0  0  0  0  0  0  0  0  0  0
  -22.2520   -8.7793   20.0620 C   0  0  0  0  0  0  0  0  0  0  0  0
  -23.1042   -8.5764   22.3136 C   0  0  0  0  0  0  0  0  0  0  0  0
  -33.3310  -25.9533   22.0594 C   0  0  0  0  0  0  0  0  0  0  0  0
  -19.8877   -7.7832   22.9813 C   0  0  0  0  0  0  0  0  0  0  0  0
  -19.1782   -7.6553   24.1754 C   0  0  0  0  0  0  0  0  0  0  0  0
  -31.8256  -24.5744   20.7742 C   0  0  0  0  0  0  0  0  0  0  0  0
  -30.0866  -17.1108   23.4238 C   0  0  0  0  0  0  0  0  0  0  0  0
  -20.4093   -5.6414   24.6911 C   0  0  0  0  0  0  0  0  0  0  0  0
  -23.8123  -10.4147   20.9150 C   0  0  0  0  0  0  0  0  0  0  0  0
  -32.1195  -17.8850   24.4749 C   0  0  0  0  0  0  0  0  0  0  0  0
  -24.1997  -12.9348   20.9963 C   0  0  0  0  0  0  0  0  0  0  0  0
  -28.5337  -32.2324   22.0042 C   0  0  0  0  0  0  0  0  0  0  0  0
  -32.0894  -26.9128   20.2067 C   0  0  0  0  0  0  0  0  0  0  0  0
  -28.8063  -30.8525   22.0671 C   0  0  0  0  0  0  0  0  0  0  0  0
  -31.4997  -25.6658   19.9547 C   0  0  0  0  0  0  0  0  0  0  0  0
  -30.8360  -16.2985   22.5727 C   0  0  0  0  0  0  0  0  0  0  0  0
  -22.3000   -8.0989   21.2787 C   0  0  0  0  0  0  0  0  0  0  0  0
  -32.7350  -24.7182   21.8218 C   0  0  0  0  0  0  0  0  0  0  0  0
  -20.8580   -6.8402   22.6421 C   0  0  0  0  0  0  0  0  0  0  0  0
  -19.4390   -6.5844   25.0303 C   0  0  0  0  0  0  0  0  0  0  0  0
  -30.7283  -17.9040   24.3749 C   0  0  0  0  0  0  0  0  0  0  0  0
  -21.1188   -5.7694   23.4970 C   0  0  0  0  0  0  0  0  0  0  0  0
  -24.5941  -11.6105   20.7275 C   0  0  0  0  0  0  0  0  0  0  0  0
  -25.2910  -13.6946   20.6526 C   0  0  0  0  0  0  0  0  0  0  0  0
  -32.4278  -20.6668   24.2218 C   0  0  0  0  0  0  0  0  0  0  0  0
  -32.2073  -21.9881   24.1167 C   0  0  0  0  0  0  0  0  0  0  0  0
  -32.8005  -18.7216   25.4792 C   0  0  0  0  0  0  0  0  0  0  0  0
  -22.9578  -13.4337   21.5108 C   0  0  0  0  0  0  0  0  0  0  0  0
  -29.2668  -28.2076   19.5284 C   0  0  0  0  0  0  0  0  0  0  0  0
  -29.6230  -26.5744   16.7484 C   0  0  0  0  0  0  0  0  0  0  0  0
  -31.0605  -23.9638   15.0856 C   0  0  0  0  0  0  0  0  0  0  0  0
  -30.7797  -14.6308   20.6855 C   0  0  0  0  0  0  0  0  0  0  0  0
  -27.5963  -32.8097   20.9733 C   0  0  0  0  0  0  0  0  0  0  0  0
  -31.7775  -28.0941   19.3294 C   0  0  0  0  0  0  0  0  0  0  0  0
  -30.5171  -25.4659   18.8309 C   0  0  0  0  0  0  0  0  0  0  0  0
  -32.1193  -22.8642   25.3396 C   0  0  0  0  0  0  0  0  0  0  0  0
  -27.3438  -31.8784   19.7904 C   0  0  0  0  0  0  0  0  0  0  0  0
  -31.8565  -22.0520   26.6077 C   0  0  0  0  0  0  0  0  0  0  0  0
  -29.5219  -12.4483   18.1691 C   0  0  0  0  0  0  0  0  0  0  0  0
  -27.0469  -30.4640   20.2785 C   0  0  0  0  0  0  0  0  0  0  0  0
  -28.0953  -12.1447   18.6325 C   0  0  0  0  0  0  0  0  0  0  0  0
  -32.7708  -20.8379   26.6817 C   0  0  0  0  0  0  0  0  0  0  0  0
  -30.4894  -12.5578   19.3463 C   0  0  0  0  0  0  0  0  0  0  0  0
  -28.6550  -13.1922   20.8633 C   0  0  0  0  0  0  0  0  0  0  0  0
  -28.2386  -29.8855   21.0509 C   0  0  1  0  0  0  0  0  0  0  0  0
  -30.4356  -27.9697   18.6145 C   0  0  1  0  0  0  0  0  0  0  0  0
  -27.6319  -13.1370   19.7170 C   0  0  2  0  0  0  0  0  0  0  0  0
  -31.1311  -22.8632   12.8314 C   0  0  0  0  0  0  0  0  0  0  0  0
  -26.8820  -25.3388   17.2686 C   0  0  0  0  0  0  0  0  0  0  0  0
  -27.4190  -23.5967   15.5525 C   0  0  0  0  0  0  0  0  0  0  0  0
  -27.2947  -25.9990   14.8919 C   0  0  0  0  0  0  0  0  0  0  0  0
  -33.9649  -24.4589   14.8061 C   0  0  0  0  0  0  0  0  0  0  0  0
  -32.0272  -22.6654   22.7919 C   0  0  0  0  0  0  0  0  0  1  0  0
  -29.2569  -25.1914   16.2665 C   0  0  1  0  0  0  0  0  0  0  0  0
  -31.7745  -23.8922   13.7479 C   0  0  2  0  0  0  0  0  0  0  0  0
  -27.7302  -25.0354   16.0174 C   0  0  0  0  0  0  0  0  0  0  0  0
  -25.8388  -11.5301   20.2497 N   0  0  0  0  0  0  0  0  0  0  0  0
  -26.2359  -12.8135   20.2155 N   0  0  0  0  0  0  0  0  0  0  0  0
  -32.6483  -20.0400   25.4412 N   0  0  0  0  0  0  0  0  0  0  0  0
  -30.2398  -26.6527   18.0050 N   0  0  0  0  0  0  0  0  0  0  0  0
  -29.9873  -13.5185   20.3311 N   0  0  0  0  0  0  0  0  0  0  0  0
  -25.5250  -15.0238   20.6845 N   0  0  0  0  0  0  0  0  0  0  0  0
  -21.9424  -12.5157   21.8117 N   0  0  0  0  0  0  0  0  0  0  0  0
  -30.1847  -15.4926   21.6063 N   0  0  0  0  0  0  0  0  0  0  0  0
  -29.2707  -29.4491   20.1352 N   0  0  0  0  0  0  0  0  0  0  0  0
  -30.0832  -24.9365   15.0915 N   0  0  0  0  0  0  0  0  0  0  0  0
  -33.5551  -18.1428   26.4085 N   0  3  0  0  0  0  0  0  0  0  0  0
  -33.2041  -23.5191   13.9431 N   0  3  0  0  0  0  0  0  0  0  0  0
  -22.7488  -14.6585   21.6828 O   0  0  0  0  0  0  0  0  0  0  0  0
  -28.4232  -27.3304   19.6712 O   0  0  0  0  0  0  0  0  0  0  0  0
  -29.3772  -27.5488   16.0329 O   0  0  0  0  0  0  0  0  0  0  0  0
  -31.3391  -23.2277   16.0296 O   0  0  0  0  0  0  0  0  0  0  0  0
  -31.8921  -14.8204   20.1868 O   0  0  0  0  0  0  0  0  0  0  0  0
  -21.5621   -6.9691   21.4566 O   0  0  0  0  0  0  0  0  0  0  0  0
  -33.0430  -23.6506   22.6075 O   0  0  0  0  0  0  0  0  0  1  0  0
  -18.7587   -6.4625   26.1777 F   0  0  0  0  0  0  0  0  0  0  0  0
  -29.9995  -18.6798   25.1896 F   0  0  0  0  0  0  0  0  0  0  0  0
  -22.0506   -4.8610   23.1770 F   0  0  0  0  0  0  0  0  0  0  0  0
  1  2  1  0  0  0  0
  1  6  2  0  0  0  0
  2  7  2  0  0  0  0
  3 10  2  0  0  0  0
  3 18  1  0  0  0  0
  4 11  1  0  0  0  0
  4 18  2  0  0  0  0
  5  9  2  0  0  0  0
  5 19  1  0  0  0  0
  6 21  1  0  0  0  0
  7 23  1  0  0  0  0
  8 12  2  0  0  0  0
  8 22  1  0  0  0  0
  9 25  1  0  0  0  0
 10 26  1  0  0  0  0
 11 26  2  0  0  0  0
 12 27  1  0  0  0  0
 13 14  2  0  0  0  0
 13 28  1  0  0  0  0
 14 29  1  0  0  0  0
 15 24  1  0  0  0  0
 15 27  2  0  0  0  0
 16 25  2  0  0  0  0
 16 30  1  0  0  0  0
 17 29  2  0  0  0  0
 17 31  1  0  0  0  0
 18 32  1  0  0  0  0
 19 30  2  0  0  0  0
 19 36  1  0  0  0  0
 20 32  1  0  0  0  0
 20 33  2  0  0  0  0
 20 37  1  0  0  0  0
 21 23  2  0  0  0  0
 21 42  1  0  0  0  0
 22 24  2  0  0  0  0
 22 43  1  0  0  0  0
 23 54  1  0  0  0  0
 24 44  1  0  0  0  0
 25 73  1  0  0  0  0
 26 83  1  0  0  0  0
 27 84  1  0  0  0  0
 28 31  2  0  0  0  0
 28 83  1  0  0  0  0
 29 85  1  0  0  0  0
 30 86  1  0  0  0  0
 31 87  1  0  0  0  0
 32 66  2  0  0  0  0
 33 67  1  0  0  0  0
 33 71  1  0  0  0  0
 34 35  2  0  0  0  0
 34 68  1  0  0  0  0
 35 45  1  0  0  0  0
 35 62  1  0  0  0  0
 36 68  1  0  0  0  0
 36 76  2  0  0  0  0
 37 72  1  0  0  0  0
 37 78  2  0  0  0  0
 38 55  1  0  0  0  0
 38 74  1  0  0  0  0
 38 79  2  0  0  0  0
 39 63  1  0  0  0  0
 39 69  1  0  0  0  0
 39 80  2  0  0  0  0
 40 64  1  0  0  0  0
 40 75  1  0  0  0  0
 40 81  2  0  0  0  0
 41 70  1  0  0  0  0
 41 73  1  0  0  0  0
 41 82  2  0  0  0  0
 42 46  1  0  0  0  0
 43 55  1  0  0  0  0
 44 69  1  0  0  0  0
 45 47  1  0  0  0  0
 46 49  1  0  0  0  0
 47 51  1  0  0  0  0
 48 50  1  0  0  0  0
 48 52  1  0  0  0  0
 49 54  1  0  0  0  0
 50 56  1  0  0  0  0
 51 68  1  0  0  0  0
 52 70  1  0  0  0  0
 53 56  1  0  0  0  0
 53 70  1  0  0  0  0
 54 74  1  0  0  0  0
 55 69  1  0  0  0  0
 56 67  1  0  0  0  0
 57 64  1  0  0  0  0
 58 65  1  0  0  0  0
 59 65  1  0  0  0  0
 60 65  1  0  0  0  0
 61 77  1  0  0  0  0
 62 84  1  0  0  0  0
 63 65  1  0  0  0  0
 63 75  1  0  0  0  0
 64 77  1  0  0  0  0
 66 67  1  0  0  0  0
M  CHG  2  76   1  77   1
M  ISO  4  41 100  62 101  73 100  84 101
M  END
> <Batch ID>
0150

> <Smiles>
CNC(C)C(=O)NC(C(=O)N1Cc2cc([101O:1][101CH2:1]C3=CN(C(=N)c4ccc([100NH:0][100C:0](=O)N5CCCC(n6nc(-c7ccc(Oc8ccc(F)cc8F)cc7)c(C(N)=O)c6N)C5)cc4F)CCC3)ccc2CC1C(=O)NC1CCCc2ccccc21)C(C)(C)C

> <Shape>
0.228

> <Color>
0.196

> <Negative vol penalty>
0.000

$$$$

  -OEChem-04052303213D

 87 96  0     1  0  0  0  0  0999 V2000
  -16.6120  -30.9931   24.2618 C   0  0  0  0  0  0  0  0  0  0  0  0
  -17.7927  -31.6977   24.0497 C   0  0  0  0  0  0  0  0  0  0  0  0
  -30.5977  -23.5833   23.9697 C   0  0  0  0  0  0  0  0  0  0  0  0
  -24.5836  -13.9442   20.2081 C   0  0  0  0  0  0  0  0  0  0  0  0
  -26.6921  -13.7400   21.3699 C   0  0  0  0  0  0  0  0  0  0  0  0
  -31.6534  -24.2937   23.3983 C   0  0  0  0  0  0  0  0  0  0  0  0
  -16.6410  -29.6036   24.3724 C   0  0  0  0  0  0  0  0  0  0  0  0
  -19.0033  -31.0131   23.9491 C   0  0  0  0  0  0  0  0  0  0  0  0
  -25.3411  -31.3377   20.6259 C   0  0  0  0  0  0  0  0  0  0  0  0
  -29.7661  -22.8033   23.1660 C   0  0  0  0  0  0  0  0  0  0  0  0
  -24.5045  -12.5553   20.1074 C   0  0  0  0  0  0  0  0  0  0  0  0
  -26.6130  -12.3510   21.2692 C   0  0  0  0  0  0  0  0  0  0  0  0
  -26.7066  -31.3099   20.9057 C   0  0  0  0  0  0  0  0  0  0  0  0
  -23.6670   -9.9568   22.1022 C   0  0  0  0  0  0  0  0  0  0  0  0
  -22.4452   -9.3537   22.4006 C   0  0  0  0  0  0  0  0  0  0  0  0
  -31.0460  -23.4441   21.2197 C   0  0  0  0  0  0  0  0  0  0  0  0
  -26.6254  -28.9024   21.0335 C   0  0  0  0  0  0  0  0  0  0  0  0
  -22.3469   -8.4460   20.1638 C   0  0  0  0  0  0  0  0  0  0  0  0
  -25.6774  -14.5366   20.8393 C   0  0  0  0  0  0  0  0  0  0  0  0
  -31.8775  -24.2241   22.0234 C   0  0  0  0  0  0  0  0  0  0  0  0
  -25.2643  -16.7781   21.9849 C   0  0  0  0  0  0  0  0  0  0  0  0
  -17.8514  -28.9009   24.2635 C   0  0  0  0  0  0  0  0  0  0  0  0
  -24.6040  -30.1467   20.5584 C   0  0  0  0  0  0  0  0  0  0  0  0
  -19.0488  -29.6130   24.0597 C   0  0  0  0  0  0  0  0  0  0  0  0
  -25.2511  -28.9176   20.7501 C   0  0  0  0  0  0  0  0  0  0  0  0
  -29.9903  -22.7337   21.7911 C   0  0  0  0  0  0  0  0  0  0  0  0
  -25.5192  -11.7587   20.6379 C   0  0  0  0  0  0  0  0  0  0  0  0
  -27.3484  -30.0924   21.1124 C   0  0  0  0  0  0  0  0  0  0  0  0
  -24.2288   -9.8046   20.8345 C   0  0  0  0  0  0  0  0  0  0  0  0
  -21.7852   -8.5983   21.4314 C   0  0  0  0  0  0  0  0  0  0  0  0
  -23.5687   -9.0492   19.8653 C   0  0  0  0  0  0  0  0  0  0  0  0
  -25.7600  -15.9713   20.9432 C   0  0  0  0  0  0  0  0  0  0  0  0
  -25.5939  -18.0588   21.6138 C   0  0  0  0  0  0  0  0  0  0  0  0
  -32.9931  -24.9740   21.4188 C   0  0  0  0  0  0  0  0  0  0  0  0
  -24.5684  -16.4034   23.1812 C   0  0  0  0  0  0  0  0  0  0  0  0
  -22.1544  -28.9299   22.1779 C   0  0  0  0  0  0  0  0  0  0  0  0
  -22.3182  -26.6078   19.9189 C   0  0  0  0  0  0  0  0  0  0  0  0
  -24.1981  -24.9379   17.6115 C   0  0  0  0  0  0  0  0  0  0  0  0
  -29.2285  -21.7625   19.5950 C   0  0  0  0  0  0  0  0  0  0  0  0
  -17.8391  -27.4027   24.4370 C   0  0  0  0  0  0  0  0  0  0  0  0
  -23.1370  -30.1920   20.2292 C   0  0  0  0  0  0  0  0  0  0  0  0
  -24.5091  -27.6095   20.6685 C   0  0  0  0  0  0  0  0  0  0  0  0
  -19.1138  -26.7221   23.9448 C   0  0  0  0  0  0  0  0  0  0  0  0
  -27.3629  -19.8657   17.2289 C   0  0  0  0  0  0  0  0  0  0  0  0
  -20.3457  -27.4657   24.4510 C   0  0  0  0  0  0  0  0  0  0  0  0
  -26.7388  -18.7498   18.0700 C   0  0  0  0  0  0  0  0  0  0  0  0
  -33.1917  -28.4137   20.3295 C   0  0  0  0  0  0  0  0  0  0  0  0
  -28.7717  -20.2147   17.7054 C   0  0  0  0  0  0  0  0  0  0  0  0
  -33.8395  -27.0338   20.3783 C   0  0  0  0  0  0  0  0  0  0  0  0
  -28.2597  -19.4107   19.9771 C   0  0  0  0  0  0  0  0  0  0  0  0
  -31.4895  -26.8954   21.0873 C   0  0  0  0  0  0  0  0  0  0  0  0
  -20.3785  -28.9041   23.9204 C   0  0  1  0  0  0  0  0  0  0  0  0
  -22.3820  -28.9501   20.6929 C   0  0  1  0  0  0  0  0  0  0  0  0
  -26.8154  -19.0691   19.5759 C   0  0  2  0  0  0  0  0  0  0  0  0
  -31.6840  -28.1309   20.1893 C   0  0  2  0  0  0  0  0  0  0  0  0
  -31.3177  -27.8053   18.7324 C   0  0  0  0  0  0  0  0  0  0  0  0
  -24.0671  -23.0645   15.9470 C   0  0  0  0  0  0  0  0  0  0  0  0
  -22.4683  -24.5796   22.1935 C   0  0  0  0  0  0  0  0  0  0  0  0
  -23.2787  -22.8862   20.5370 C   0  0  0  0  0  0  0  0  0  0  0  0
  -21.0116  -23.8946   20.2795 C   0  0  0  0  0  0  0  0  0  0  0  0
  -24.8129  -26.7476   15.3519 C   0  0  0  0  0  0  0  0  0  0  0  0
  -30.8455  -29.3153   20.6720 C   0  0  0  0  0  0  0  0  0  0  0  0
  -29.4068  -28.9115   20.9564 C   0  0  0  0  0  0  0  0  0  1  0  0
  -23.0557  -25.2975   19.7840 C   0  0  1  0  0  0  0  0  0  0  0  0
  -23.9201  -24.5620   16.1672 C   0  0  2  0  0  0  0  0  0  0  0  0
  -22.4675  -24.1891   20.7021 C   0  0  0  0  0  0  0  0  0  0  0  0
  -26.3586  -16.6801   19.9823 N   0  0  0  0  0  0  0  0  0  0  0  0
  -26.2413  -17.9457   20.4187 N   0  0  0  0  0  0  0  0  0  0  0  0
  -32.7906  -26.2078   20.9939 N   0  0  0  0  0  0  0  0  0  0  0  0
  -23.0749  -27.7065   20.3501 N   0  0  0  0  0  0  0  0  0  0  0  0
  -28.7661  -20.5095   19.1399 N   0  0  0  0  0  0  0  0  0  0  0  0
  -25.3900  -19.2594   22.1964 N   0  0  0  0  0  0  0  0  0  0  0  0
  -24.3116  -15.0442   23.4068 N   0  0  0  0  0  0  0  0  0  0  0  0
  -29.1451  -21.9411   20.9755 N   0  0  0  0  0  0  0  0  0  0  0  0
  -20.8217  -28.9247   22.5429 N   0  0  0  0  0  0  0  0  0  0  0  0
  -23.0426  -24.9660   18.3634 N   0  0  0  0  0  0  0  0  0  0  0  0
  -34.1864  -24.3970   21.3124 N   0  3  0  0  0  0  0  0  0  0  0  0
  -24.8673  -25.2661   15.2572 N   0  3  0  0  0  0  0  0  0  0  0  0
  -24.1712  -17.2503   24.0170 O   0  0  0  0  0  0  0  0  0  0  0  0
  -23.1168  -28.9183   22.9365 O   0  0  0  0  0  0  0  0  0  0  0  0
  -21.1165  -26.6563   19.6446 O   0  0  0  0  0  0  0  0  0  0  0  0
  -25.3278  -25.1786   18.0315 O   0  0  0  0  0  0  0  0  0  0  0  0
  -29.6408  -22.6245   18.8147 O   0  0  0  0  0  0  0  0  0  0  0  0
  -25.4422  -10.4033   20.5400 O   0  0  0  0  0  0  0  0  0  0  0  0
  -28.6810  -30.0625   21.3864 O   0  0  0  0  0  0  0  0  0  1  0  0
  -20.6126   -8.0180   21.7187 F   0  0  0  0  0  0  0  0  0  0  0  0
  -24.1040   -8.8984   18.6461 F   0  0  0  0  0  0  0  0  0  0  0  0
  1  2  1  0  0  0  0
  1  7  2  0  0  0  0
  2  8  2  0  0  0  0
  3  6  2  0  0  0  0
  3 10  1  0  0  0  0
  4 11  2  0  0  0  0
  4 19  1  0  0  0  0
  5 12  1  0  0  0  0
  5 19  2  0  0  0  0
  6 20  1  0  0  0  0
  7 22  1  0  0  0  0
  8 24  1  0  0  0  0
  9 13  2  0  0  0  0
  9 23  1  0  0  0  0
 10 26  2  0  0  0  0
 11 27  1  0  0  0  0
 12 27  2  0  0  0  0
 13 28  1  0  0  0  0
 14 15  2  0  0  0  0
 14 29  1  0  0  0  0
 15 30  1  0  0  0  0
 16 20  2  0  0  0  0
 16 26  1  0  0  0  0
 17 25  1  0  0  0  0
 17 28  2  0  0  0  0
 18 30  2  0  0  0  0
 18 31  1  0  0  0  0
 19 32  1  0  0  0  0
 20 34  1  0  0  0  0
 21 32  1  0  0  0  0
 21 33  2  0  0  0  0
 21 35  1  0  0  0  0
 22 24  2  0  0  0  0
 22 40  1  0  0  0  0
 23 25  2  0  0  0  0
 23 41  1  0  0  0  0
 24 52  1  0  0  0  0
 25 42  1  0  0  0  0
 26 74  1  0  0  0  0
 27 84  1  0  0  0  0
 28 85  1  0  0  0  0
 29 31  2  0  0  0  0
 29 84  1  0  0  0  0
 30 86  1  0  0  0  0
 31 87  1  0  0  0  0
 32 67  2  0  0  0  0
 33 68  1  0  0  0  0
 33 72  1  0  0  0  0
 34 69  1  0  0  0  0
 34 77  2  0  0  0  0
 35 73  1  0  0  0  0
 35 79  2  0  0  0  0
 36 53  1  0  0  0  0
 36 75  1  0  0  0  0
 36 80  2  0  0  0  0
 37 64  1  0  0  0  0
 37 70  1  0  0  0  0
 37 81  2  0  0  0  0
 38 65  1  0  0  0  0
 38 76  1  0  0  0  0
 38 82  2  0  0  0  0
 39 71  1  0  0  0  0
 39 74  1  0  0  0  0
 39 83  2  0  0  0  0
 40 43  1  0  0  0  0
 41 53  1  0  0  0  0
 42 70  1  0  0  0  0
 43 45  1  0  0  0  0
 44 46  1  0  0  0  0
 44 48  1  0  0  0  0
 45 52  1  0  0  0  0
 46 54  1  0  0  0  0
 47 49  1  0  0  0  0
 47 55  1  0  0  0  0
 48 71  1  0  0  0  0
 49 69  1  0  0  0  0
 50 54  1  0  0  0  0
 50 71  1  0  0  0  0
 51 55  1  0  0  0  0
 51 69  1  0  0  0  0
 52 75  1  0  0  0  0
 53 70  1  0  0  0  0
 54 68  1  0  0  0  0
 55 56  1  0  0  0  0
 55 62  1  0  0  0  0
 57 65  1  0  0  0  0
 58 66  1  0  0  0  0
 59 66  1  0  0  0  0
 60 66  1  0  0  0  0
 61 78  1  0  0  0  0
 62 63  1  0  0  0  0
 63 85  1  0  0  0  0
 64 66  1  0  0  0  0
 64 76  1  0  0  0  0
 65 78  1  0  0  0  0
 67 68  1  0  0  0  0
M  CHG  2  77   1  78   1
M  ISO  4  39 100  63 101  74 100  85 101
M  END
> <Batch ID>
0150

> <Smiles>
CNC(C)C(=O)NC(C(=O)N1Cc2cc([101O:1][101CH2:1]CC3(C)CCN(C(=N)c4cccc([100NH:0][100C:0](=O)N5CCCC(n6nc(-c7ccc(Oc8ccc(F)cc8F)cc7)c(C(N)=O)c6N)C5)c4)C3)ccc2CC1C(=O)NC1CCCc2ccccc21)C(C)(C)C

> <Shape>
0.241

> <Color>
0.084

> <Negative vol penalty>
0.000

$$$$

  -OEChem-04052303213D

 83 91  0     1  0  0  0  0  0999 V2000
  -31.3956  -25.4897   17.8688 C   0  0  0  0  0  0  0  0  0  0  0  0
  -30.0932  -25.9344   17.6717 C   0  0  0  0  0  0  0  0  0  0  0  0
  -24.1734  -14.0647   20.0394 C   0  0  0  0  0  0  0  0  0  0  0  0
  -26.0485  -14.3249   21.5406 C   0  0  0  0  0  0  0  0  0  0  0  0
  -31.9623  -25.5459   19.1404 C   0  0  0  0  0  0  0  0  0  0  0  0
  -29.3612  -26.4465   18.7435 C   0  0  0  0  0  0  0  0  0  0  0  0
  -23.5723  -28.3231   19.0501 C   0  0  0  0  0  0  0  0  0  0  0  0
  -24.3772  -12.6850   20.0239 C   0  0  0  0  0  0  0  0  0  0  0  0
  -26.2523  -12.9451   21.5251 C   0  0  0  0  0  0  0  0  0  0  0  0
  -22.3279  -27.7753   19.3587 C   0  0  0  0  0  0  0  0  0  0  0  0
  -24.1801   -9.0581   19.8747 C   0  0  0  0  0  0  0  0  0  0  0  0
  -23.0613   -8.2358   20.0075 C   0  0  0  0  0  0  0  0  0  0  0  0
  -25.4975  -23.4883   22.8734 C   0  0  0  0  0  0  0  0  0  0  0  0
  -24.1423  -23.9251   22.9277 C   0  0  0  0  0  0  0  0  0  0  0  0
  -22.5277  -28.6074   21.6141 C   0  0  0  0  0  0  0  0  0  0  0  0
  -22.5922   -9.2222   22.1625 C   0  0  0  0  0  0  0  0  0  0  0  0
  -25.0091  -14.8847   20.7977 C   0  0  0  0  0  0  0  0  0  0  0  0
  -23.9872  -17.0401   21.7021 C   0  0  0  0  0  0  0  0  0  0  0  0
  -31.2318  -26.0474   20.2303 C   0  0  0  0  0  0  0  0  0  0  0  0
  -24.3099  -29.0089   20.0258 C   0  0  0  0  0  0  0  0  0  0  0  0
  -29.9239  -26.5337   20.0298 C   0  0  0  0  0  0  0  0  0  0  0  0
  -23.7801  -29.1651   21.3146 C   0  0  0  0  0  0  0  0  0  0  0  0
  -25.4166  -12.1251   20.7668 C   0  0  0  0  0  0  0  0  0  0  0  0
  -21.8067  -27.9149   20.6416 C   0  0  0  0  0  0  0  0  0  0  0  0
  -24.5050   -9.9625   20.8858 C   0  0  0  0  0  0  0  0  0  0  0  0
  -22.2673   -8.3178   21.1514 C   0  0  0  0  0  0  0  0  0  0  0  0
  -23.7110  -10.0445   22.0297 C   0  0  0  0  0  0  0  0  0  0  0  0
  -24.7994  -16.3102   20.8137 C   0  0  0  0  0  0  0  0  0  0  0  0
  -25.9056  -23.2269   21.5840 C   0  0  0  0  0  0  0  0  0  0  0  0
  -24.1277  -18.3463   21.3015 C   0  0  0  0  0  0  0  0  0  0  0  0
  -23.5664  -23.9811   21.6775 C   0  0  0  0  0  0  0  0  0  0  0  0
  -23.1780  -16.5786   22.7921 C   0  0  0  0  0  0  0  0  0  0  0  0
  -27.1781  -22.7756   21.1214 C   0  0  0  0  0  0  0  0  0  0  0  0
  -27.4593  -22.5397   19.6867 C   0  0  0  0  0  0  0  0  0  0  0  0
  -27.1384  -28.5816   21.4117 C   0  0  0  0  0  0  0  0  0  0  0  0
  -26.4800  -31.4610   22.7526 C   0  0  0  0  0  0  0  0  0  0  0  0
  -21.2104  -24.7732   22.0854 C   0  0  0  0  0  0  0  0  0  0  0  0
  -24.1288  -33.7450   23.7024 C   0  0  0  0  0  0  0  0  0  0  0  0
  -31.8967  -26.0926   21.5835 C   0  0  0  0  0  0  0  0  0  0  0  0
  -25.6387  -29.6170   19.6696 C   0  0  0  0  0  0  0  0  0  0  0  0
  -24.5230  -29.9099   22.3925 C   0  0  0  0  0  0  0  0  0  0  0  0
  -30.9014  -26.2335   22.7305 C   0  0  0  0  0  0  0  0  0  0  0  0
  -26.2234  -20.3228   17.1539 C   0  0  0  0  0  0  0  0  0  0  0  0
  -29.9301  -27.3678   22.4395 C   0  0  0  0  0  0  0  0  0  0  0  0
  -25.7119  -19.1244   17.9526 C   0  0  0  0  0  0  0  0  0  0  0  0
  -27.4522  -20.9462   17.8080 C   0  0  0  0  0  0  0  0  0  0  0  0
  -26.7279  -20.1434   20.0394 C   0  0  0  0  0  0  0  0  0  0  0  0
  -29.0979  -27.0662   21.1867 C   0  0  1  0  0  0  0  0  0  0  0  0
  -26.5331  -29.8512   20.8831 C   0  0  1  0  0  0  0  0  0  0  0  0
  -25.4706  -19.5041   19.4244 C   0  0  2  0  0  0  0  0  0  0  0  0
  -23.8925  -35.9859   24.8068 C   0  0  0  0  0  0  0  0  0  0  0  0
  -18.9313  -26.5106   19.4547 C   0  0  0  0  0  0  0  0  0  0  0  0
  -26.9990  -30.1738   25.4699 C   0  0  0  0  0  0  0  0  0  0  0  0
  -25.8497  -32.1258   26.5362 C   0  0  0  0  0  0  0  0  0  0  0  0
  -27.9340  -32.4790   25.2119 C   0  0  0  0  0  0  0  0  0  0  0  0
  -22.8834  -34.9304   21.2934 C   0  0  0  0  0  0  0  0  0  0  0  0
  -19.9762  -25.0793   21.2426 C   0  0  0  0  0  0  0  0  0  0  0  0
  -25.7812  -31.9203   24.0095 C   0  0  1  0  0  0  0  0  0  0  0  0
  -24.0366  -35.2448   23.4867 C   0  0  2  0  0  0  0  0  0  0  0  0
  -20.2034  -26.2062   20.2348 C   0  0  2  0  0  0  0  0  0  1  0  0
  -26.6276  -31.6589   25.2873 C   0  0  0  0  0  0  0  0  0  0  0  0
  -25.4106  -17.0881   19.9163 N   0  0  0  0  0  0  0  0  0  0  0  0
  -28.2109  -22.5300   21.9073 N   0  0  0  0  0  0  0  0  0  0  0  0
  -24.9821  -18.3204   20.2387 N   0  0  0  0  0  0  0  0  0  0  0  0
  -27.2008  -21.2611   19.2129 N   0  0  0  0  0  0  0  0  0  0  0  0
  -25.8211  -30.4809   21.9969 N   0  0  0  0  0  0  0  0  0  0  0  0
  -23.6026  -19.5030   21.7582 N   0  0  0  0  0  0  0  0  0  0  0  0
  -23.1478  -15.2045   23.0667 N   0  0  0  0  0  0  0  0  0  0  0  0
  -22.2622  -24.3548   21.2746 N   0  0  0  0  0  0  0  0  0  0  0  0
  -28.3440  -28.2464   20.8255 N   0  0  0  0  0  0  0  0  0  0  0  0
  -25.4378  -33.3221   23.7966 N   0  0  0  0  0  0  0  0  0  0  0  0
  -22.8607  -35.5739   22.6322 N   0  3  0  0  0  0  0  0  0  0  0  0
  -22.4890  -17.3597   23.4911 O   0  0  0  0  0  0  0  0  0  0  0  0
  -27.8926  -23.5034   19.0688 O   0  0  0  0  0  0  0  0  0  0  0  0
  -26.5555  -27.9535   22.2877 O   0  0  0  0  0  0  0  0  0  0  0  0
  -27.5669  -31.9588   22.4486 O   0  0  0  0  0  0  0  0  0  0  0  0
  -21.2160  -24.8978   23.3055 O   0  0  0  0  0  0  0  0  0  0  0  0
  -23.1386  -33.0215   23.7832 O   0  0  0  0  0  0  0  0  0  0  0  0
  -25.6156  -10.7787   20.7521 O   0  0  0  0  0  0  0  0  0  0  0  0
  -20.5926  -27.3807   20.9457 O   0  0  0  0  0  0  0  0  0  1  0  0
  -21.1921   -7.5292   21.2782 F   0  0  0  0  0  0  0  0  0  0  0  0
  -24.0174  -10.9122   23.0039 F   0  0  0  0  0  0  0  0  0  0  0  0
  -24.6577  -23.5081   20.4456 S   0  0  0  0  0  0  0  0  0  0  0  0
  1  2  1  0  0  0  0
  1  5  2  0  0  0  0
  2  6  2  0  0  0  0
  3  8  2  0  0  0  0
  3 17  1  0  0  0  0
  4  9  1  0  0  0  0
  4 17  2  0  0  0  0
  5 19  1  0  0  0  0
  6 21  1  0  0  0  0
  7 10  2  0  0  0  0
  7 20  1  0  0  0  0
  8 23  1  0  0  0  0
  9 23  2  0  0  0  0
 10 24  1  0  0  0  0
 11 12  2  0  0  0  0
 11 25  1  0  0  0  0
 12 26  1  0  0  0  0
 13 14  1  0  0  0  0
 13 29  2  0  0  0  0
 14 31  2  0  0  0  0
 15 22  1  0  0  0  0
 15 24  2  0  0  0  0
 16 26  2  0  0  0  0
 16 27  1  0  0  0  0
 17 28  1  0  0  0  0
 18 28  1  0  0  0  0
 18 30  2  0  0  0  0
 18 32  1  0  0  0  0
 19 21  2  0  0  0  0
 19 39  1  0  0  0  0
 20 22  2  0  0  0  0
 20 40  1  0  0  0  0
 21 48  1  0  0  0  0
 22 41  1  0  0  0  0
 23 79  1  0  0  0  0
 24 80  1  0  0  0  0
 25 27  2  0  0  0  0
 25 79  1  0  0  0  0
 26 81  1  0  0  0  0
 27 82  1  0  0  0  0
 28 62  2  0  0  0  0
 29 33  1  0  0  0  0
 29 83  1  0  0  0  0
 30 64  1  0  0  0  0
 30 67  1  0  0  0  0
 31 69  1  0  0  0  0
 31 83  1  0  0  0  0
 32 68  1  0  0  0  0
 32 73  2  0  0  0  0
 33 34  1  0  0  0  0
 33 63  2  0  0  0  0
 34 65  1  0  0  0  0
 34 74  2  0  0  0  0
 35 49  1  0  0  0  0
 35 70  1  0  0  0  0
 35 75  2  0  0  0  0
 36 58  1  0  0  0  0
 36 66  1  0  0  0  0
 36 76  2  0  0  0  0
 37 57  1  0  0  0  0
 37 69  1  0  0  0  0
 37 77  2  0  0  0  0
 38 59  1  0  0  0  0
 38 71  1  0  0  0  0
 38 78  2  0  0  0  0
 39 42  1  0  0  0  0
 40 49  1  0  0  0  0
 41 66  1  0  0  0  0
 42 44  1  0  0  0  0
 43 45  1  0  0  0  0
 43 46  1  0  0  0  0
 44 48  1  0  0  0  0
 45 50  1  0  0  0  0
 46 65  1  0  0  0  0
 47 50  1  0  0  0  0
 47 65  1  0  0  0  0
 48 70  1  0  0  0  0
 49 66  1  0  0  0  0
 50 64  1  0  0  0  0
 51 59  1  0  0  0  0
 52 60  1  0  0  0  0
 53 61  1  0  0  0  0
 54 61  1  0  0  0  0
 55 61  1  0  0  0  0
 56 72  1  0  0  0  0
 57 60  1  0  0  0  0
 58 61  1  0  0  0  0
 58 71  1  0  0  0  0
 59 72  1  0  0  0  0
 60 80  1  0  0  0  0
 62 64  1  0  0  0  0
M  CHG  1  72   1
M  ISO  4  33 100  34 100  60 101  80 101
M  END
> <Batch ID>
0150

> <Smiles>
CNC(C)C(=O)NC(C(=O)N1Cc2cc([101O:1][101CH:1](C)CC(=O)Nc3ccc([100C:0](=N)[100C:0](=O)N4CCCC(n5nc(-c6ccc(Oc7ccc(F)cc7F)cc6)c(C(N)=O)c5N)C4)s3)ccc2CC1C(=O)NC1CCCc2ccccc21)C(C)(C)C

> <Shape>
0.271

> <Color>
0.088

> <Negative vol penalty>
0.000

$$$$

  -OEChem-04052303213D

 84 93  0     1  0  0  0  0  0999 V2000
  -23.7696  -27.1255   19.2902 C   0  0  0  0  0  0  0  0  0  0  0  0
  -24.4618  -26.0179   19.7692 C   0  0  0  0  0  0  0  0  0  0  0  0
  -23.1949   -9.8559   19.9557 C   0  0  0  0  0  0  0  0  0  0  0  0
  -23.9046   -9.9359   22.2637 C   0  0  0  0  0  0  0  0  0  0  0  0
  -22.4701  -27.3769   19.7282 C   0  0  0  0  0  0  0  0  0  0  0  0
  -23.8552  -25.1617   20.6875 C   0  0  0  0  0  0  0  0  0  0  0  0
  -24.5796  -19.0944   21.0990 C   0  0  0  0  0  0  0  0  0  0  0  0
  -22.5005   -8.6733   20.2103 C   0  0  0  0  0  0  0  0  0  0  0  0
  -23.2102   -8.7533   22.5183 C   0  0  0  0  0  0  0  0  0  0  0  0
  -25.3730  -18.2983   21.9239 C   0  0  0  0  0  0  0  0  0  0  0  0
  -23.2208   -5.3905   20.5701 C   0  0  0  0  0  0  0  0  0  0  0  0
  -23.3556   -4.3501   19.6509 C   0  0  0  0  0  0  0  0  0  0  0  0
  -23.5034  -17.9935   23.4176 C   0  0  0  0  0  0  0  0  0  0  0  0
  -20.9740   -4.3978   19.2476 C   0  0  0  0  0  0  0  0  0  0  0  0
  -33.1680  -15.2194   24.8123 C   0  0  0  0  0  0  0  0  0  0  0  0
  -23.8970  -10.4872   20.9825 C   0  0  0  0  0  0  0  0  0  0  0  0
  -24.1230  -13.0234   20.8259 C   0  0  0  0  0  0  0  0  0  0  0  0
  -21.8437  -26.5180   20.6450 C   0  0  0  0  0  0  0  0  0  0  0  0
  -23.2430  -19.3554   21.4334 C   0  0  0  0  0  0  0  0  0  0  0  0
  -22.5466  -25.4026   21.1393 C   0  0  0  0  0  0  0  0  0  0  0  0
  -22.6945  -18.7912   22.5940 C   0  0  0  0  0  0  0  0  0  0  0  0
  -31.9852  -15.5845   25.4166 C   0  0  0  0  0  0  0  0  0  0  0  0
  -30.8655  -15.4034   24.5543 C   0  0  0  0  0  0  0  0  0  0  0  0
  -22.5081   -8.1220   21.4915 C   0  0  0  0  0  0  0  0  0  0  0  0
  -24.8358  -17.7501   23.0849 C   0  0  0  0  0  0  0  0  0  0  0  0
  -21.9625   -5.9346   20.8281 C   0  0  0  0  0  0  0  0  0  0  0  0
  -22.2322   -3.8537   18.9897 C   0  0  0  0  0  0  0  0  0  0  0  0
  -20.8392   -5.4383   20.1668 C   0  0  0  0  0  0  0  0  0  0  0  0
  -24.6150  -11.7086   20.7200 C   0  0  0  0  0  0  0  0  0  0  0  0
  -25.1865  -13.8174   20.4722 C   0  0  0  0  0  0  0  0  0  0  0  0
  -31.2353  -14.9071   23.3235 C   0  0  0  0  0  0  0  0  0  0  0  0
  -22.8212  -13.4856   21.2097 C   0  0  0  0  0  0  0  0  0  0  0  0
  -21.5688  -21.9727   22.1048 C   0  0  0  0  0  0  0  0  0  0  0  0
  -19.0696  -19.9047   22.0956 C   0  0  0  0  0  0  0  0  0  0  0  0
  -17.9632  -16.6956   22.4480 C   0  0  0  0  0  0  0  0  0  0  0  0
  -30.9355  -14.0779   20.9636 C   0  0  0  0  0  0  0  0  0  0  0  0
  -20.4549  -26.8571   21.1254 C   0  0  0  0  0  0  0  0  0  0  0  0
  -22.3929  -20.1943   20.5191 C   0  0  0  0  0  0  0  0  0  0  0  0
  -21.2594  -19.0244   22.9872 C   0  0  0  0  0  0  0  0  0  0  0  0
  -19.7475  -25.6929   21.8144 C   0  0  0  0  0  0  0  0  0  0  0  0
  -29.3650  -13.1113   17.9179 C   0  0  0  0  0  0  0  0  0  0  0  0
  -20.6797  -25.0197   22.8167 C   0  0  0  0  0  0  0  0  0  0  0  0
  -27.9316  -12.7793   18.3386 C   0  0  0  0  0  0  0  0  0  0  0  0
  -27.3367  -15.4147   25.6296 C   0  0  0  0  0  0  0  0  0  0  0  0
  -30.3797  -12.6894   18.9791 C   0  0  0  0  0  0  0  0  0  0  0  0
  -28.4892  -14.7005   24.9241 C   0  0  0  0  0  0  0  0  0  0  0  0
  -28.6778  -12.8642   20.7517 C   0  0  0  0  0  0  0  0  0  0  0  0
  -29.0999  -17.0105   25.3318 C   0  0  0  0  0  0  0  0  0  0  0  0
  -21.9135  -24.4368   22.1173 C   0  0  1  0  0  0  0  0  0  0  0  0
  -21.1909  -20.8156   21.2239 C   0  0  1  0  0  0  0  0  0  0  0  0
  -27.6147  -13.3293   19.7431 C   0  0  2  0  0  0  0  0  0  0  0  0
  -27.5615  -16.8999   25.3104 C   0  0  2  0  0  0  0  0  0  0  0  0
  -31.9046  -16.1030   26.8043 C   0  0  0  0  0  0  0  0  0  0  0  0
  -26.9143  -17.8041   26.3608 C   0  0  0  0  0  0  0  0  0  0  0  0
  -15.8632  -15.3220   22.4237 C   0  0  0  0  0  0  0  0  0  0  0  0
  -18.3586  -20.9471   24.8737 C   0  0  0  0  0  0  0  0  0  0  0  0
  -16.8964  -18.9376   25.1772 C   0  0  0  0  0  0  0  0  0  0  0  0
  -16.3986  -20.5778   23.3649 C   0  0  0  0  0  0  0  0  0  0  0  0
  -18.9120  -15.0742   20.1611 C   0  0  0  0  0  0  0  0  0  0  0  0
  -27.0067  -17.2553   23.9205 C   0  0  0  0  0  0  0  0  0  1  0  0
  -18.3927  -19.0411   23.1324 C   0  0  1  0  0  0  0  0  0  0  0  0
  -17.0258  -15.8545   21.6005 C   0  0  2  0  0  0  0  0  0  0  0  0
  -17.5392  -19.8729   24.1309 C   0  0  0  0  0  0  0  0  0  0  0  0
  -25.8915  -11.6656   20.3295 N   0  0  0  0  0  0  0  0  0  0  0  0
  -26.2107  -12.9632   20.1868 N   0  0  0  0  0  0  0  0  0  0  0  0
  -29.5628  -15.6896   24.9059 N   0  0  3  0  0  0  0  0  0  0  0  0
  -20.4705  -19.8567   22.0640 N   0  0  0  0  0  0  0  0  0  0  0  0
  -30.0175  -13.2509   20.2824 N   0  0  0  0  0  0  0  0  0  0  0  0
  -25.3360  -15.1559   20.3806 N   0  0  0  0  0  0  0  0  0  0  0  0
  -21.8459  -12.5355   21.5418 N   0  0  0  0  0  0  0  0  0  0  0  0
  -30.4683  -14.5800   22.1778 N   0  0  0  0  0  0  0  0  0  0  0  0
  -21.5796  -23.1931   21.4568 N   0  0  0  0  0  0  0  0  0  0  0  0
  -17.6372  -18.0343   22.3949 N   0  0  0  0  0  0  0  0  0  0  0  0
  -17.7566  -14.6954   21.0146 N   0  3  0  0  0  0  0  0  0  0  0  0
  -22.5266  -14.7045   21.2410 O   0  0  0  0  0  0  0  0  0  0  0  0
  -21.8296  -21.7731   23.2854 O   0  0  0  0  0  0  0  0  0  0  0  0
  -18.3804  -20.5910   21.3368 O   0  0  0  0  0  0  0  0  0  0  0  0
  -18.8896  -16.2128   23.0955 O   0  0  0  0  0  0  0  0  0  0  0  0
  -32.0434  -14.3447   20.4909 O   0  0  0  0  0  0  0  0  0  0  0  0
  -21.8305   -6.9681   21.7403 O   0  0  0  0  0  0  0  0  0  0  0  0
  -25.6081  -16.9732   23.8922 O   0  0  0  0  0  0  0  0  0  1  0  0
  -22.3620   -2.8556   18.1059 F   0  0  0  0  0  0  0  0  0  0  0  0
  -19.6279   -5.9577   20.4096 F   0  0  0  0  0  0  0  0  0  0  0  0
  -32.9262  -14.6612   23.2116 S   0  0  0  0  0  0  0  0  0  0  0  0
  1  2  1  0  0  0  0
  1  5  2  0  0  0  0
  2  6  2  0  0  0  0
  3  8  2  0  0  0  0
  3 16  1  0  0  0  0
  4  9  1  0  0  0  0
  4 16  2  0  0  0  0
  5 18  1  0  0  0  0
  6 20  1  0  0  0  0
  7 10  2  0  0  0  0
  7 19  1  0  0  0  0
  8 24  1  0  0  0  0
  9 24  2  0  0  0  0
 10 25  1  0  0  0  0
 11 12  2  0  0  0  0
 11 26  1  0  0  0  0
 12 27  1  0  0  0  0
 13 21  1  0  0  0  0
 13 25  2  0  0  0  0
 14 27  2  0  0  0  0
 14 28  1  0  0  0  0
 15 22  2  0  0  0  0
 15 84  1  0  0  0  0
 16 29  1  0  0  0  0
 17 29  1  0  0  0  0
 17 30  2  0  0  0  0
 17 32  1  0  0  0  0
 18 20  2  0  0  0  0
 18 37  1  0  0  0  0
 19 21  2  0  0  0  0
 19 38  1  0  0  0  0
 20 49  1  0  0  0  0
 21 39  1  0  0  0  0
 22 23  1  0  0  0  0
 22 53  1  0  0  0  0
 23 31  2  0  0  0  0
 23 66  1  0  0  0  0
 24 80  1  0  0  0  0
 25 81  1  0  0  0  0
 26 28  2  0  0  0  0
 26 80  1  0  0  0  0
 27 82  1  0  0  0  0
 28 83  1  0  0  0  0
 29 64  2  0  0  0  0
 30 65  1  0  0  0  0
 30 69  1  0  0  0  0
 31 71  1  0  0  0  0
 31 84  1  0  0  0  0
 32 70  1  0  0  0  0
 32 75  2  0  0  0  0
 33 50  1  0  0  0  0
 33 72  1  0  0  0  0
 33 76  2  0  0  0  0
 34 61  1  0  0  0  0
 34 67  1  0  0  0  0
 34 77  2  0  0  0  0
 35 62  1  0  0  0  0
 35 73  1  0  0  0  0
 35 78  2  0  0  0  0
 36 68  1  0  0  0  0
 36 71  1  0  0  0  0
 36 79  2  0  0  0  0
 37 40  1  0  0  0  0
 38 50  1  0  0  0  0
 39 67  1  0  0  0  0
 40 42  1  0  0  0  0
 41 43  1  0  0  0  0
 41 45  1  0  0  0  0
 42 49  1  0  0  0  0
 43 51  1  0  0  0  0
 44 46  1  0  0  0  0
 44 52  1  0  0  0  0
 45 68  1  0  0  0  0
 46 66  1  0  0  0  0
 47 51  1  0  0  0  0
 47 68  1  0  0  0  0
 48 52  1  0  0  0  0
 48 66  1  0  0  0  0
 49 72  1  0  0  0  0
 50 67  1  0  0  0  0
 51 65  1  0  0  0  0
 52 54  1  0  0  0  0
 52 60  1  0  0  0  0
 55 62  1  0  0  0  0
 56 63  1  0  0  0  0
 57 63  1  0  0  0  0
 58 63  1  0  0  0  0
 59 74  1  0  0  0  0
 60 81  1  0  0  0  0
 61 63  1  0  0  0  0
 61 73  1  0  0  0  0
 62 74  1  0  0  0  0
 64 65  1  0  0  0  0
M  CHG  1  74   1
M  ISO  4  36 100  60 101  71 100  81 101
M  END
> <Batch ID>
0150

> <Smiles>
CNC(C)C(=O)NC(C(=O)N1Cc2cc([101O:1][101CH2:1]C3(C)CCN(c4c(C)csc4[100NH:0][100C:0](=O)N4CCCC(n5nc(-c6ccc(Oc7ccc(F)cc7F)cc6)c(C(N)=O)c5N)C4)C3)ccc2CC1C(=O)NC1CCCc2ccccc21)C(C)(C)C

> <Shape>
0.160

> <Color>
0.189

> <Negative vol penalty>
0.000

$$$$

  -OEChem-04052303213D

 84 92  0     1  0  0  0  0  0999 V2000
  -34.7806  -20.3897   28.4848 C   0  0  0  0  0  0  0  0  0  0  0  0
  -34.5735  -20.4131   27.1093 C   0  0  0  0  0  0  0  0  0  0  0  0
  -22.9337   -9.9081   20.0823 C   0  0  0  0  0  0  0  0  0  0  0  0
  -23.6122  -10.1069   22.3926 C   0  0  0  0  0  0  0  0  0  0  0  0
  -33.7355  -20.7074   29.3513 C   0  0  0  0  0  0  0  0  0  0  0  0
  -33.3209  -20.7531   26.5996 C   0  0  0  0  0  0  0  0  0  0  0  0
  -33.6172  -23.9901   22.7164 C   0  0  0  0  0  0  0  0  0  0  0  0
  -22.1274   -8.8190   20.4127 C   0  0  0  0  0  0  0  0  0  0  0  0
  -22.8058   -9.0177   22.7230 C   0  0  0  0  0  0  0  0  0  0  0  0
  -33.9717  -23.4644   21.4748 C   0  0  0  0  0  0  0  0  0  0  0  0
  -22.9575   -5.6474   22.5007 C   0  0  0  0  0  0  0  0  0  0  0  0
  -23.4979   -4.6715   23.3381 C   0  0  0  0  0  0  0  0  0  0  0  0
  -31.9433  -17.3383   21.4430 C   0  0  0  0  0  0  0  0  0  0  0  0
  -31.6504  -23.4656   20.8183 C   0  0  0  0  0  0  0  0  0  0  0  0
  -21.7479   -5.0866   24.9512 C   0  0  0  0  0  0  0  0  0  0  0  0
  -23.6761  -10.5521   21.0722 C   0  0  0  0  0  0  0  0  0  0  0  0
  -32.0683  -18.6511   21.9824 C   0  0  0  0  0  0  0  0  0  0  0  0
  -24.1419  -13.0357   20.7227 C   0  0  0  0  0  0  0  0  0  0  0  0
  -32.4722  -21.0608   28.8518 C   0  0  0  0  0  0  0  0  0  0  0  0
  -32.2732  -24.2478   23.0228 C   0  0  0  0  0  0  0  0  0  0  0  0
  -32.2577  -21.0745   27.4603 C   0  0  0  0  0  0  0  0  0  0  0  0
  -31.2817  -23.9970   22.0635 C   0  0  0  0  0  0  0  0  0  0  0  0
  -22.0635   -8.3737   21.7331 C   0  0  0  0  0  0  0  0  0  0  0  0
  -32.9880  -23.1993   20.5266 C   0  0  0  0  0  0  0  0  0  0  0  0
  -21.8124   -6.3430   22.8887 C   0  0  0  0  0  0  0  0  0  0  0  0
  -22.8931   -4.3910   24.5633 C   0  0  0  0  0  0  0  0  0  0  0  0
  -21.2075   -6.0625   24.1139 C   0  0  0  0  0  0  0  0  0  0  0  0
  -24.5096  -11.6769   20.7314 C   0  0  0  0  0  0  0  0  0  0  0  0
  -25.2805  -13.6972   20.3323 C   0  0  0  0  0  0  0  0  0  0  0  0
  -30.6969  -16.7998   21.6754 C   0  0  0  0  0  0  0  0  0  0  0  0
  -30.9124  -19.0662   22.6064 C   0  0  0  0  0  0  0  0  0  0  0  0
  -33.3010  -19.4570   21.8749 C   0  0  0  0  0  0  0  0  0  0  0  0
  -22.8835  -13.6456   21.0393 C   0  0  0  0  0  0  0  0  0  0  0  0
  -30.2210  -23.1672   25.1963 C   0  0  0  0  0  0  0  0  0  0  0  0
  -28.2958  -25.4622   23.9518 C   0  0  0  0  0  0  0  0  0  0  0  0
  -27.5085  -27.4573   21.2973 C   0  0  0  0  0  0  0  0  0  0  0  0
  -30.7809  -14.5132   20.6215 C   0  0  0  0  0  0  0  0  0  0  0  0
  -31.3602  -21.3504   29.8287 C   0  0  0  0  0  0  0  0  0  0  0  0
  -31.9100  -24.8401   24.3569 C   0  0  0  0  0  0  0  0  0  0  0  0
  -29.8267  -24.2750   22.3356 C   0  0  0  0  0  0  0  0  0  0  0  0
  -30.1668  -22.0642   29.1991 C   0  0  0  0  0  0  0  0  0  0  0  0
  -29.6364  -11.9301   18.4548 C   0  0  0  0  0  0  0  0  0  0  0  0
  -29.7752  -21.3932   27.8864 C   0  0  0  0  0  0  0  0  0  0  0  0
  -28.1704  -11.7457   18.8532 C   0  0  0  0  0  0  0  0  0  0  0  0
  -30.5187  -12.2352   19.6640 C   0  0  0  0  0  0  0  0  0  0  0  0
  -28.6012  -13.1749   20.8925 C   0  0  0  0  0  0  0  0  0  0  0  0
  -30.9200  -21.4624   26.8684 C   0  0  1  0  0  0  0  0  0  0  0  0
  -30.4586  -24.5820   24.7499 C   0  0  1  0  0  0  0  0  0  0  0  0
  -27.6631  -12.9299   19.6993 C   0  0  2  0  0  0  0  0  0  0  0  0
  -25.8605  -29.2023   20.5651 C   0  0  0  0  0  0  0  0  0  0  0  0
  -26.1865  -23.2955   23.5440 C   0  0  0  0  0  0  0  0  0  0  0  0
  -24.9905  -24.8504   21.9883 C   0  0  0  0  0  0  0  0  0  0  0  0
  -25.2939  -25.4754   24.3841 C   0  0  0  0  0  0  0  0  0  0  0  0
  -35.6965  -22.7514   18.9887 C   0  0  0  0  0  0  0  0  0  0  0  0
  -34.3061  -20.8571   18.1181 C   0  0  0  0  0  0  0  0  0  0  0  0
  -29.6383  -29.4780   20.9233 C   0  0  0  0  0  0  0  0  0  0  0  0
  -34.6229  -21.1031   20.5945 C   0  0  0  0  0  0  0  0  0  0  0  0
  -27.2875  -25.5190   22.8298 C   0  0  1  0  0  0  0  0  0  0  0  0
  -27.2148  -28.9439   21.2067 C   0  0  2  0  0  0  0  0  0  0  0  0
  -25.9667  -24.7779   23.1818 C   0  0  0  0  0  0  0  0  0  0  0  0
  -34.4898  -21.8537   19.2656 C   0  0  0  0  0  0  0  0  0  1  0  0
  -25.7824  -11.4849   20.3747 N   0  0  0  0  0  0  0  0  0  0  0  0
  -26.2243  -12.7318   20.1381 N   0  0  0  0  0  0  0  0  0  0  0  0
  -29.5212  -24.8481   23.6569 N   0  0  0  0  0  0  0  0  0  0  0  0
  -29.9791  -13.3707   20.4151 N   0  0  0  0  0  0  0  0  0  0  0  0
  -25.5566  -15.0045   20.1396 N   0  0  0  0  0  0  0  0  0  0  0  0
  -30.6989  -20.2583   23.2201 N   0  0  0  0  0  0  0  0  0  0  0  0
  -34.2102  -19.3464   22.8435 N   0  0  0  0  0  0  0  0  0  0  0  0
  -21.8182  -12.8193   21.4225 N   0  0  0  0  0  0  0  0  0  0  0  0
  -30.1500  -15.5417   21.3206 N   0  0  0  0  0  0  0  0  0  0  0  0
  -30.9911  -22.7812   26.2768 N   0  0  0  0  0  0  0  0  0  0  0  0
  -27.1129  -26.9314   22.5090 N   0  0  0  0  0  0  0  0  0  0  0  0
  -33.4441  -20.2590   20.8140 N   0  3  0  0  0  0  0  0  0  0  0  0
  -28.2587  -29.6295   20.3935 N   0  3  0  0  0  0  0  0  0  0  0  0
  -22.7042  -14.8851   20.9683 O   0  0  0  0  0  0  0  0  0  0  0  0
  -29.3986  -22.4772   24.6052 O   0  0  0  0  0  0  0  0  0  0  0  0
  -28.0095  -25.9513   25.0475 O   0  0  0  0  0  0  0  0  0  0  0  0
  -28.0328  -26.8250   20.3831 O   0  0  0  0  0  0  0  0  0  0  0  0
  -31.9324  -14.5854   20.1848 O   0  0  0  0  0  0  0  0  0  0  0  0
  -21.2766   -7.3111   22.0559 O   0  0  0  0  0  0  0  0  0  0  0  0
  -33.3312  -22.6854   19.3141 O   0  0  0  0  0  0  0  0  0  1  0  0
  -23.4113   -3.4527   25.3666 F   0  0  0  0  0  0  0  0  0  0  0  0
  -20.1065   -6.7266   24.4915 F   0  0  0  0  0  0  0  0  0  0  0  0
  -29.6836  -17.8754   22.5407 S   0  0  0  0  0  0  0  0  0  0  0  0
  1  2  1  0  0  0  0
  1  5  2  0  0  0  0
  2  6  2  0  0  0  0
  3  8  2  0  0  0  0
  3 16  1  0  0  0  0
  4  9  1  0  0  0  0
  4 16  2  0  0  0  0
  5 19  1  0  0  0  0
  6 21  1  0  0  0  0
  7 10  2  0  0  0  0
  7 20  1  0  0  0  0
  8 23  1  0  0  0  0
  9 23  2  0  0  0  0
 10 24  1  0  0  0  0
 11 12  2  0  0  0  0
 11 25  1  0  0  0  0
 12 26  1  0  0  0  0
 13 17  1  0  0  0  0
 13 30  2  0  0  0  0
 14 22  1  0  0  0  0
 14 24  2  0  0  0  0
 15 26  2  0  0  0  0
 15 27  1  0  0  0  0
 16 28  1  0  0  0  0
 17 31  2  0  0  0  0
 17 32  1  0  0  0  0
 18 28  1  0  0  0  0
 18 29  2  0  0  0  0
 18 33  1  0  0  0  0
 19 21  2  0  0  0  0
 19 38  1  0  0  0  0
 20 22  2  0  0  0  0
 20 39  1  0  0  0  0
 21 47  1  0  0  0  0
 22 40  1  0  0  0  0
 23 80  1  0  0  0  0
 24 81  1  0  0  0  0
 25 27  2  0  0  0  0
 25 80  1  0  0  0  0
 26 82  1  0  0  0  0
 27 83  1  0  0  0  0
 28 62  2  0  0  0  0
 29 63  1  0  0  0  0
 29 66  1  0  0  0  0
 30 70  1  0  0  0  0
 30 84  1  0  0  0  0
 31 67  1  0  0  0  0
 31 84  1  0  0  0  0
 32 68  1  0  0  0  0
 32 73  2  0  0  0  0
 33 69  1  0  0  0  0
 33 75  2  0  0  0  0
 34 48  1  0  0  0  0
 34 71  1  0  0  0  0
 34 76  2  0  0  0  0
 35 58  1  0  0  0  0
 35 64  1  0  0  0  0
 35 77  2  0  0  0  0
 36 59  1  0  0  0  0
 36 72  1  0  0  0  0
 36 78  2  0  0  0  0
 37 65  1  0  0  0  0
 37 70  1  0  0  0  0
 37 79  2  0  0  0  0
 38 41  1  0  0  0  0
 39 48  1  0  0  0  0
 40 64  1  0  0  0  0
 41 43  1  0  0  0  0
 42 44  1  0  0  0  0
 42 45  1  0  0  0  0
 43 47  1  0  0  0  0
 44 49  1  0  0  0  0
 45 65  1  0  0  0  0
 46 49  1  0  0  0  0
 46 65  1  0  0  0  0
 47 71  1  0  0  0  0
 48 64  1  0  0  0  0
 49 63  1  0  0  0  0
 50 59  1  0  0  0  0
 51 60  1  0  0  0  0
 52 60  1  0  0  0  0
 53 60  1  0  0  0  0
 54 61  1  0  0  0  0
 55 61  1  0  0  0  0
 56 74  1  0  0  0  0
 57 61  1  0  0  0  0
 57 73  1  0  0  0  0
 58 60  1  0  0  0  0
 58 72  1  0  0  0  0
 59 74  1  0  0  0  0
 61 81  1  0  0  0  0
 62 63  1  0  0  0  0
M  CHG  2  73   1  74   1
M  ISO  4  37 100  61 101  70 100  81 101
M  END
> <Batch ID>
0150

> <Smiles>
CNC(C)C(=O)NC(C(=O)N1Cc2cc([101O:1][101C:1](C)(C)CNC(=N)c3cc([100NH:0][100C:0](=O)N4CCCC(n5nc(-c6ccc(Oc7ccc(F)cc7F)cc6)c(C(N)=O)c5N)C4)sc3N)ccc2CC1C(=O)NC1CCCc2ccccc21)C(C)(C)C

> <Shape>
0.207

> <Color>
0.190

> <Negative vol penalty>
0.000

$$$$

  -OEChem-04052303213D

 85 94  0     1  0  0  0  0  0999 V2000
  -30.0273  -33.1807   25.3360 C   0  0  0  0  0  0  0  0  0  0  0  0
  -29.6932  -31.9391   24.8049 C   0  0  0  0  0  0  0  0  0  0  0  0
  -22.9521  -10.7034   22.0497 C   0  0  0  0  0  0  0  0  0  0  0  0
  -23.8030   -9.1694   20.3884 C   0  0  0  0  0  0  0  0  0  0  0  0
  -29.0226  -34.0503   25.7583 C   0  0  0  0  0  0  0  0  0  0  0  0
  -28.3540  -31.5659   24.6966 C   0  0  0  0  0  0  0  0  0  0  0  0
  -27.2809  -29.4567   20.2195 C   0  0  0  0  0  0  0  0  0  0  0  0
  -22.1925   -9.6761   22.6093 C   0  0  0  0  0  0  0  0  0  0  0  0
  -23.0434   -8.1420   20.9480 C   0  0  0  0  0  0  0  0  0  0  0  0
  -27.6588  -28.1274   20.0349 C   0  0  0  0  0  0  0  0  0  0  0  0
  -19.2876   -8.0809   21.9450 C   0  0  0  0  0  0  0  0  0  0  0  0
  -17.9621   -8.3622   22.2758 C   0  0  0  0  0  0  0  0  0  0  0  0
  -25.3958  -27.4271   20.4905 C   0  0  0  0  0  0  0  0  0  0  0  0
  -18.4242   -7.8236   24.5852 C   0  0  0  0  0  0  0  0  0  0  0  0
  -23.7574  -10.4501   20.9392 C   0  0  0  0  0  0  0  0  0  0  0  0
  -24.0673  -12.7197   19.8164 C   0  0  0  0  0  0  0  0  0  0  0  0
  -27.6701  -33.6914   25.6462 C   0  0  0  0  0  0  0  0  0  0  0  0
  -25.9578  -29.7809   20.5522 C   0  0  0  0  0  0  0  0  0  0  0  0
  -27.3303  -32.4309   25.1189 C   0  0  0  0  0  0  0  0  0  0  0  0
  -25.0031  -28.7614   20.6762 C   0  0  0  0  0  0  0  0  0  0  0  0
  -22.2382   -8.3954   22.0585 C   0  0  0  0  0  0  0  0  0  0  0  0
  -26.7169  -27.1122   20.1733 C   0  0  0  0  0  0  0  0  0  0  0  0
  -20.1814   -7.6708   22.9343 C   0  0  0  0  0  0  0  0  0  0  0  0
  -17.5304   -8.2336   23.5959 C   0  0  0  0  0  0  0  0  0  0  0  0
  -19.7497   -7.5422   24.2544 C   0  0  0  0  0  0  0  0  0  0  0  0
  -24.5418  -11.5111   20.3603 C   0  0  0  0  0  0  0  0  0  0  0  0
  -31.0262  -19.4222   20.1709 C   0  0  0  0  0  0  0  0  0  0  0  0
  -25.1995  -13.3780   19.4029 C   0  0  0  0  0  0  0  0  0  0  0  0
  -29.7703  -19.9269   20.4355 C   0  0  0  0  0  0  0  0  0  0  0  0
  -29.9446  -17.5252   20.3743 C   0  0  0  0  0  0  0  0  0  0  0  0
  -22.7232  -13.2039   19.6958 C   0  0  0  0  0  0  0  0  0  0  0  0
  -24.5480  -31.1861   23.0303 C   0  0  0  0  0  0  0  0  0  0  0  0
  -21.9068  -30.9536   21.1616 C   0  0  0  0  0  0  0  0  0  0  0  0
  -20.4421  -28.4927   18.9670 C   0  0  0  0  0  0  0  0  0  0  0  0
  -30.4401  -15.0583   20.2491 C   0  0  0  0  0  0  0  0  0  0  0  0
  -26.6209  -34.6455   26.1597 C   0  0  0  0  0  0  0  0  0  0  0  0
  -25.5602  -31.2216   20.7216 C   0  0  0  0  0  0  0  0  0  0  0  0
  -23.5652  -29.0582   21.0123 C   0  0  0  0  0  0  0  0  0  0  0  0
  -25.2127  -34.3265   25.6643 C   0  0  0  0  0  0  0  0  0  0  0  0
  -29.9784  -11.7646   18.9782 C   0  0  0  0  0  0  0  0  0  0  0  0
  -24.9208  -32.8363   25.8088 C   0  0  0  0  0  0  0  0  0  0  0  0
  -28.4838  -11.5044   19.1797 C   0  0  0  0  0  0  0  0  0  0  0  0
  -29.9045  -23.6010   21.1396 C   0  0  0  0  0  0  0  0  0  0  0  0
  -27.9035  -23.0732   19.7251 C   0  0  0  0  0  0  0  0  0  0  0  0
  -30.5720  -12.5800   20.1256 C   0  0  0  0  0  0  0  0  0  0  0  0
  -30.0052  -22.1274   21.5417 C   0  0  0  0  0  0  0  0  0  0  0  0
  -28.0066  -21.6031   20.1355 C   0  0  0  0  0  0  0  0  0  0  0  0
  -28.3740  -13.5736   20.6266 C   0  0  0  0  0  0  0  0  0  0  0  0
  -25.8881  -32.0000   24.9623 C   0  0  1  0  0  0  0  0  0  0  0  0
  -24.3004  -31.3987   21.5636 C   0  0  1  0  0  0  0  0  0  0  0  0
  -27.7177  -12.8112   19.4640 C   0  0  2  0  0  0  0  0  0  0  0  0
  -28.4710  -24.0162   20.7927 C   0  0  0  0  0  0  0  0  0  0  0  0
  -32.2517  -20.2120   19.9265 C   0  0  0  0  0  0  0  0  0  0  0  0
  -18.9280  -28.7694   16.9850 C   0  0  0  0  0  0  0  0  0  0  0  0
  -19.6613  -30.5261   23.1827 C   0  0  0  0  0  0  0  0  0  0  0  0
  -18.4445  -29.1966   21.4449 C   0  0  0  0  0  0  0  0  0  0  0  0
  -18.9474  -31.6067   21.0433 C   0  0  0  0  0  0  0  0  0  0  0  0
  -22.2774  -26.9782   17.2072 C   0  0  0  0  0  0  0  0  0  0  0  0
  -28.4297  -25.4685   20.3169 C   0  0  0  0  0  0  0  0  0  1  0  0
  -20.8270  -29.9178   20.9608 C   0  0  1  0  0  0  0  0  0  0  0  0
  -20.3598  -28.5598   17.4526 C   0  0  2  0  0  0  0  0  0  0  0  0
  -19.4964  -30.3045   21.6659 C   0  0  0  0  0  0  0  0  0  0  0  0
  -25.8719  -11.4052   20.2992 N   0  0  0  0  0  0  0  0  0  0  0  0
  -31.1282  -18.0452   20.1358 N   0  0  0  0  0  0  0  0  0  0  0  0
  -26.2428  -12.5557   19.7119 N   0  0  0  0  0  0  0  0  0  0  0  0
  -29.3809  -21.2690   20.5306 N   0  0  0  0  0  0  0  0  0  0  0  0
  -23.2270  -30.4818   21.1745 N   0  0  0  0  0  0  0  0  0  0  0  0
  -29.7973  -13.8052   20.3342 N   0  0  0  0  0  0  0  0  0  0  0  0
  -25.3946  -14.5744   18.8086 N   0  0  0  0  0  0  0  0  0  0  0  0
  -22.0035  -12.8951   18.5334 N   0  0  0  0  0  0  0  0  0  0  0  0
  -29.5961  -16.1530   20.4330 N   0  0  0  0  0  0  0  0  0  0  0  0
  -25.4981  -32.0326   23.5690 N   0  0  0  0  0  0  0  0  0  0  0  0
  -20.7062  -29.7282   19.5193 N   0  0  0  0  0  0  0  0  0  0  0  0
  -20.8710  -27.2964   16.8496 N   0  3  0  0  0  0  0  0  0  0  0  0
  -22.1822  -13.9040   20.5850 O   0  0  0  0  0  0  0  0  0  0  0  0
  -23.9221  -30.3194   23.6293 O   0  0  0  0  0  0  0  0  0  0  0  0
  -21.5908  -32.1385   21.2947 O   0  0  0  0  0  0  0  0  0  0  0  0
  -20.2839  -27.4494   19.5971 O   0  0  0  0  0  0  0  0  0  0  0  0
  -31.6450  -15.1542   20.0021 O   0  0  0  0  0  0  0  0  0  0  0  0
  -27.6784  -23.9191   21.9784 O   0  0  0  0  0  0  0  0  0  0  0  0
  -21.4973   -7.3926   22.6044 O   0  0  0  0  0  0  0  0  0  0  0  0
  -27.0832  -25.8138   19.9943 O   0  0  0  0  0  0  0  0  0  1  0  0
  -16.2579   -8.5054   23.9137 F   0  0  0  0  0  0  0  0  0  0  0  0
  -20.6040   -7.1499   25.2094 F   0  0  0  0  0  0  0  0  0  0  0  0
  -28.6639  -18.6339   20.6489 S   0  0  0  0  0  0  0  0  0  0  0  0
  1  2  1  0  0  0  0
  1  5  2  0  0  0  0
  2  6  2  0  0  0  0
  3  8  2  0  0  0  0
  3 15  1  0  0  0  0
  4  9  1  0  0  0  0
  4 15  2  0  0  0  0
  5 17  1  0  0  0  0
  6 19  1  0  0  0  0
  7 10  2  0  0  0  0
  7 18  1  0  0  0  0
  8 21  1  0  0  0  0
  9 21  2  0  0  0  0
 10 22  1  0  0  0  0
 11 12  2  0  0  0  0
 11 23  1  0  0  0  0
 12 24  1  0  0  0  0
 13 20  1  0  0  0  0
 13 22  2  0  0  0  0
 14 24  2  0  0  0  0
 14 25  1  0  0  0  0
 15 26  1  0  0  0  0
 16 26  1  0  0  0  0
 16 28  2  0  0  0  0
 16 31  1  0  0  0  0
 17 19  2  0  0  0  0
 17 36  1  0  0  0  0
 18 20  2  0  0  0  0
 18 37  1  0  0  0  0
 19 49  1  0  0  0  0
 20 38  1  0  0  0  0
 21 81  1  0  0  0  0
 22 82  1  0  0  0  0
 23 25  2  0  0  0  0
 23 81  1  0  0  0  0
 24 83  1  0  0  0  0
 25 84  1  0  0  0  0
 26 63  2  0  0  0  0
 27 29  2  0  0  0  0
 27 53  1  0  0  0  0
 27 64  1  0  0  0  0
 28 65  1  0  0  0  0
 28 69  1  0  0  0  0
 29 66  1  0  0  0  0
 29 85  1  0  0  0  0
 30 64  2  0  0  0  0
 30 71  1  0  0  0  0
 30 85  1  0  0  0  0
 31 70  1  0  0  0  0
 31 75  2  0  0  0  0
 32 50  1  0  0  0  0
 32 72  1  0  0  0  0
 32 76  2  0  0  0  0
 33 60  1  0  0  0  0
 33 67  1  0  0  0  0
 33 77  2  0  0  0  0
 34 61  1  0  0  0  0
 34 73  1  0  0  0  0
 34 78  2  0  0  0  0
 35 68  1  0  0  0  0
 35 71  1  0  0  0  0
 35 79  2  0  0  0  0
 36 39  1  0  0  0  0
 37 50  1  0  0  0  0
 38 67  1  0  0  0  0
 39 41  1  0  0  0  0
 40 42  1  0  0  0  0
 40 45  1  0  0  0  0
 41 49  1  0  0  0  0
 42 51  1  0  0  0  0
 43 46  1  0  0  0  0
 43 52  1  0  0  0  0
 44 47  1  0  0  0  0
 44 52  1  0  0  0  0
 45 68  1  0  0  0  0
 46 66  1  0  0  0  0
 47 66  1  0  0  0  0
 48 51  1  0  0  0  0
 48 68  1  0  0  0  0
 49 72  1  0  0  0  0
 50 67  1  0  0  0  0
 51 65  1  0  0  0  0
 52 59  1  0  0  0  0
 52 80  1  0  0  0  0
 54 61  1  0  0  0  0
 55 62  1  0  0  0  0
 56 62  1  0  0  0  0
 57 62  1  0  0  0  0
 58 74  1  0  0  0  0
 59 82  1  0  0  0  0
 60 62  1  0  0  0  0
 60 73  1  0  0  0  0
 61 74  1  0  0  0  0
 63 65  1  0  0  0  0
M  CHG  1  74   1
M  ISO  4  35 100  59 101  71 100  82 101
M  END
> <Batch ID>
0150

> <Smiles>
CNC(C)C(=O)NC(C(=O)N1Cc2cc([101O:1][101CH2:1]C3(O)CCN(c4sc([100NH:0][100C:0](=O)N5CCCC(n6nc(-c7ccc(Oc8ccc(F)cc8F)cc7)c(C(N)=O)c6N)C5)nc4C)CC3)ccc2CC1C(=O)NC1CCCc2ccccc21)C(C)(C)C

> <Shape>
0.322

> <Color>
0.145

> <Negative vol penalty>
0.000

$$$$

  -OEChem-04052303213D

 80 88  0     1  0  0  0  0  0999 V2000
  -31.7221  -30.4725   21.4363 C   0  0  0  0  0  0  0  0  0  0  0  0
  -31.6047  -30.1756   22.7903 C   0  0  0  0  0  0  0  0  0  0  0  0
  -23.1525   -9.8629   19.9671 C   0  0  0  0  0  0  0  0  0  0  0  0
  -23.8243   -9.9680   22.2855 C   0  0  0  0  0  0  0  0  0  0  0  0
  -30.9533  -29.7790   20.5025 C   0  0  0  0  0  0  0  0  0  0  0  0
  -30.7175  -29.1858   23.2116 C   0  0  0  0  0  0  0  0  0  0  0  0
  -32.0355  -22.7710   27.4706 C   0  0  0  0  0  0  0  0  0  0  0  0
  -22.4393   -8.6927   20.2267 C   0  0  0  0  0  0  0  0  0  0  0  0
  -23.1110   -8.7977   22.5451 C   0  0  0  0  0  0  0  0  0  0  0  0
  -32.1728  -21.5245   28.0819 C   0  0  0  0  0  0  0  0  0  0  0  0
  -21.7637   -5.6418   23.7430 C   0  0  0  0  0  0  0  0  0  0  0  0
  -22.3843   -4.6630   24.5191 C   0  0  0  0  0  0  0  0  0  0  0  0
  -30.2344  -20.7124   26.8855 C   0  0  0  0  0  0  0  0  0  0  0  0
  -24.1567   -4.4922   22.8861 C   0  0  0  0  0  0  0  0  0  0  0  0
  -32.3973  -15.9299   23.1209 C   0  0  0  0  0  0  0  0  0  0  0  0
  -23.8451  -10.5006   20.9964 C   0  0  0  0  0  0  0  0  0  0  0  0
  -24.1052  -13.0312   20.8073 C   0  0  0  0  0  0  0  0  0  0  0  0
  -30.0632  -28.7735   20.9117 C   0  0  0  0  0  0  0  0  0  0  0  0
  -31.0051  -22.9884   26.5517 C   0  0  0  0  0  0  0  0  0  0  0  0
  -29.9350  -28.4791   22.2825 C   0  0  0  0  0  0  0  0  0  0  0  0
  -30.0994  -21.9551   26.2607 C   0  0  0  0  0  0  0  0  0  0  0  0
  -22.4185   -8.1601   21.5157 C   0  0  0  0  0  0  0  0  0  0  0  0
  -31.2743  -20.4979   27.7902 C   0  0  0  0  0  0  0  0  0  0  0  0
  -22.3395   -6.0458   22.5385 C   0  0  0  0  0  0  0  0  0  0  0  0
  -23.5808   -4.0882   24.0906 C   0  0  0  0  0  0  0  0  0  0  0  0
  -23.5360   -5.4710   22.1100 C   0  0  0  0  0  0  0  0  0  0  0  0
  -24.5825  -11.7091   20.7287 C   0  0  0  0  0  0  0  0  0  0  0  0
  -25.1843  -13.8069   20.4604 C   0  0  0  0  0  0  0  0  0  0  0  0
  -31.1305  -15.3850   23.1432 C   0  0  0  0  0  0  0  0  0  0  0  0
  -31.6997  -16.7942   25.0121 C   0  0  0  0  0  0  0  0  0  0  0  0
  -22.8030  -13.5148   21.1622 C   0  0  0  0  0  0  0  0  0  0  0  0
  -29.3255  -25.3782   24.1972 C   0  0  0  0  0  0  0  0  0  0  0  0
  -29.3668  -22.6422   22.8106 C   0  0  0  0  0  0  0  0  0  0  0  0
  -29.9889  -19.5706   21.4633 C   0  0  0  0  0  0  0  0  0  0  0  0
  -30.9270  -14.0046   21.0457 C   0  0  0  0  0  0  0  0  0  0  0  0
  -29.2186  -28.0837   19.8698 C   0  0  0  0  0  0  0  0  0  0  0  0
  -30.7823  -24.3337   25.9157 C   0  0  0  0  0  0  0  0  0  0  0  0
  -28.9856  -22.2451   25.2920 C   0  0  0  0  0  0  0  0  0  0  0  0
  -28.5763  -26.7904   20.3650 C   0  0  0  0  0  0  0  0  0  0  0  0
  -29.3961  -13.0128   17.9879 C   0  0  0  0  0  0  0  0  0  0  0  0
  -27.9451  -26.9994   21.7378 C   0  0  0  0  0  0  0  0  0  0  0  0
  -27.9518  -12.7045   18.3889 C   0  0  0  0  0  0  0  0  0  0  0  0
  -30.3875  -12.5942   19.0722 C   0  0  0  0  0  0  0  0  0  0  0  0
  -28.6582  -12.8155   20.8129 C   0  0  0  0  0  0  0  0  0  0  0  0
  -29.0018  -27.3950   22.7764 C   0  0  1  0  0  0  0  0  0  0  0  0
  -30.2633  -24.2391   24.4698 C   0  0  1  0  0  0  0  0  0  0  0  0
  -27.6182  -13.2788   19.7798 C   0  0  2  0  0  0  0  0  0  0  0  0
  -29.6219  -18.2231   19.3783 C   0  0  0  0  0  0  0  0  0  0  0  0
  -32.5939  -17.2928   28.9574 C   0  0  0  0  0  0  0  0  0  0  0  0
  -26.4505  -22.2222   23.5997 C   0  0  0  0  0  0  0  0  0  0  0  0
  -26.4134  -20.2056   22.1164 C   0  0  0  0  0  0  0  0  0  0  0  0
  -26.8423  -22.4612   21.1413 C   0  0  0  0  0  0  0  0  0  0  0  0
  -32.8975  -19.2693   21.0069 C   0  0  0  0  0  0  0  0  0  0  0  0
  -32.7987  -18.3072   26.6640 C   0  0  0  0  0  0  0  0  0  0  0  0
  -28.6362  -21.3522   22.5357 C   0  0  1  0  0  0  0  0  0  0  0  0
  -30.5648  -19.1570   20.1210 C   0  0  2  0  0  0  0  0  0  0  0  0
  -32.6411  -18.5861   28.1569 C   0  0  1  0  0  0  0  0  0  1  0  0
  -27.1046  -21.5624   22.3693 C   0  0  0  0  0  0  0  0  0  0  0  0
  -32.7253  -16.7386   24.1915 N   0  0  0  0  0  0  0  0  0  0  0  0
  -25.8648  -11.6449   20.3606 N   0  0  0  0  0  0  0  0  0  0  0  0
  -26.2025  -12.9363   20.2047 N   0  0  0  0  0  0  0  0  0  0  0  0
  -29.5002  -23.0201   24.1522 N   0  0  0  0  0  0  0  0  0  0  0  0
  -30.0104  -13.1790   20.3609 N   0  0  0  0  0  0  0  0  0  0  0  0
  -25.3520  -15.1421   20.3521 N   0  0  0  0  0  0  0  0  0  0  0  0
  -21.8105  -12.5816   21.4913 N   0  0  0  0  0  0  0  0  0  0  0  0
  -30.4457  -14.5300   22.2444 N   0  0  0  0  0  0  0  0  0  0  0  0
  -31.6827  -17.5195   26.1917 N   0  0  0  0  0  0  0  0  0  0  0  0
  -29.7539  -26.2333   23.1999 N   0  0  0  0  0  0  0  0  0  0  0  0
  -29.2867  -20.7540   21.3750 N   0  0  0  0  0  0  0  0  0  0  0  0
  -31.8672  -18.4575   20.3095 N   0  3  0  0  0  0  0  0  0  0  0  0
  -22.5231  -14.7376   21.1709 O   0  0  0  0  0  0  0  0  0  0  0  0
  -28.2883  -25.4746   24.8426 O   0  0  0  0  0  0  0  0  0  0  0  0
  -29.8034  -23.3018   21.8631 O   0  0  0  0  0  0  0  0  0  0  0  0
  -30.1431  -18.9080   22.4869 O   0  0  0  0  0  0  0  0  0  0  0  0
  -32.0459  -14.2509   20.5882 O   0  0  0  0  0  0  0  0  0  0  0  0
  -21.7225   -7.0183   21.7695 O   0  0  0  0  0  0  0  0  0  0  0  0
  -31.4168  -19.2821   28.3871 O   0  0  0  0  0  0  0  0  0  1  0  0
  -24.1776   -3.1493   24.8367 F   0  0  0  0  0  0  0  0  0  0  0  0
  -24.0946   -5.8559   20.9543 F   0  0  0  0  0  0  0  0  0  0  0  0
  -30.3085  -15.8977   24.5584 S   0  0  0  0  0  0  0  0  0  0  0  0
  1  2  1  0  0  0  0
  1  5  2  0  0  0  0
  2  6  2  0  0  0  0
  3  8  2  0  0  0  0
  3 16  1  0  0  0  0
  4  9  1  0  0  0  0
  4 16  2  0  0  0  0
  5 18  1  0  0  0  0
  6 20  1  0  0  0  0
  7 10  2  0  0  0  0
  7 19  1  0  0  0  0
  8 22  1  0  0  0  0
  9 22  2  0  0  0  0
 10 23  1  0  0  0  0
 11 12  2  0  0  0  0
 11 24  1  0  0  0  0
 12 25  1  0  0  0  0
 13 21  1  0  0  0  0
 13 23  2  0  0  0  0
 14 25  2  0  0  0  0
 14 26  1  0  0  0  0
 15 29  2  0  0  0  0
 15 59  1  0  0  0  0
 16 27  1  0  0  0  0
 17 27  1  0  0  0  0
 17 28  2  0  0  0  0
 17 31  1  0  0  0  0
 18 20  2  0  0  0  0
 18 36  1  0  0  0  0
 19 21  2  0  0  0  0
 19 37  1  0  0  0  0
 20 45  1  0  0  0  0
 21 38  1  0  0  0  0
 22 76  1  0  0  0  0
 23 77  1  0  0  0  0
 24 26  2  0  0  0  0
 24 76  1  0  0  0  0
 25 78  1  0  0  0  0
 26 79  1  0  0  0  0
 27 60  2  0  0  0  0
 28 61  1  0  0  0  0
 28 64  1  0  0  0  0
 29 66  1  0  0  0  0
 29 80  1  0  0  0  0
 30 59  2  0  0  0  0
 30 67  1  0  0  0  0
 30 80  1  0  0  0  0
 31 65  1  0  0  0  0
 31 71  2  0  0  0  0
 32 46  1  0  0  0  0
 32 68  1  0  0  0  0
 32 72  2  0  0  0  0
 33 55  1  0  0  0  0
 33 62  1  0  0  0  0
 33 73  2  0  0  0  0
 34 56  1  0  0  0  0
 34 69  1  0  0  0  0
 34 74  2  0  0  0  0
 35 63  1  0  0  0  0
 35 66  1  0  0  0  0
 35 75  2  0  0  0  0
 36 39  1  0  0  0  0
 37 46  1  0  0  0  0
 38 62  1  0  0  0  0
 39 41  1  0  0  0  0
 40 42  1  0  0  0  0
 40 43  1  0  0  0  0
 41 45  1  0  0  0  0
 42 47  1  0  0  0  0
 43 63  1  0  0  0  0
 44 47  1  0  0  0  0
 44 63  1  0  0  0  0
 45 68  1  0  0  0  0
 46 62  1  0  0  0  0
 47 61  1  0  0  0  0
 48 56  1  0  0  0  0
 49 57  1  0  0  0  0
 50 58  1  0  0  0  0
 51 58  1  0  0  0  0
 52 58  1  0  0  0  0
 53 70  1  0  0  0  0
 54 57  1  0  0  0  0
 54 67  1  0  0  0  0
 55 58  1  0  0  0  0
 55 69  1  0  0  0  0
 56 70  1  0  0  0  0
 57 77  1  0  0  0  0
 60 61  1  0  0  0  0
M  CHG  1  70   1
M  ISO  4  35 100  57 101  66 100  77 101
M  END
> <Batch ID>
0150

> <Smiles>
CNC(C)C(=O)NC(C(=O)N1Cc2cc([101O:1][101CH:1](C)CNc3ncc([100NH:0][100C:0](=O)N4CCCC(n5nc(-c6ccc(Oc7ccc(F)cc7F)cc6)c(C(N)=O)c5N)C4)s3)ccc2CC1C(=O)NC1CCCc2ccccc21)C(C)(C)C

> <Shape>
0.215

> <Color>
0.188

> <Negative vol penalty>
0.000

$$$$

  -OEChem-04052303213D

 85 94  0     1  0  0  0  0  0999 V2000
  -18.1018  -24.5972   22.6097 C   0  0  0  0  0  0  0  0  0  0  0  0
  -19.2020  -24.4524   21.7707 C   0  0  0  0  0  0  0  0  0  0  0  0
  -24.4511   -9.4221   20.5568 C   0  0  0  0  0  0  0  0  0  0  0  0
  -22.6188  -10.2744   21.8810 C   0  0  0  0  0  0  0  0  0  0  0  0
  -17.8087  -25.8423   23.1644 C   0  0  0  0  0  0  0  0  0  0  0  0
  -20.0092  -25.5530   21.4850 C   0  0  0  0  0  0  0  0  0  0  0  0
  -24.9472  -24.4655   21.7649 C   0  0  0  0  0  0  0  0  0  0  0  0
  -23.8616   -8.1580   20.5547 C   0  0  0  0  0  0  0  0  0  0  0  0
  -22.0292   -9.0102   21.8788 C   0  0  0  0  0  0  0  0  0  0  0  0
  -25.5107  -23.7819   20.6883 C   0  0  0  0  0  0  0  0  0  0  0  0
  -23.5823   -5.5367   22.6702 C   0  0  0  0  0  0  0  0  0  0  0  0
  -24.4046   -4.4386   22.9221 C   0  0  0  0  0  0  0  0  0  0  0  0
  -28.2308  -19.2380   20.0333 C   0  0  0  0  0  0  0  0  0  0  0  0
  -26.3942  -25.8598   19.8391 C   0  0  0  0  0  0  0  0  0  0  0  0
  -30.2289  -20.1611   18.9939 C   0  0  0  0  0  0  0  0  0  0  0  0
  -23.8431   -3.5217   20.7585 C   0  0  0  0  0  0  0  0  0  0  0  0
  -23.8297  -10.4803   21.2200 C   0  0  0  0  0  0  0  0  0  0  0  0
  -24.2413  -12.8183   20.2863 C   0  0  0  0  0  0  0  0  0  0  0  0
  -18.6183  -26.9566   22.8931 C   0  0  0  0  0  0  0  0  0  0  0  0
  -25.0941  -25.8552   21.8810 C   0  0  0  0  0  0  0  0  0  0  0  0
  -19.7259  -26.8145   22.0355 C   0  0  0  0  0  0  0  0  0  0  0  0
  -29.0114  -18.2089   20.5296 C   0  0  0  0  0  0  0  0  0  0  0  0
  -25.8338  -26.5583   20.9195 C   0  0  0  0  0  0  0  0  0  0  0  0
  -30.3831  -18.1482   20.2645 C   0  0  0  0  0  0  0  0  0  0  0  0
  -28.8511  -20.2218   19.2601 C   0  0  0  0  0  0  0  0  0  0  0  0
  -31.0068  -19.1164   19.4978 C   0  0  0  0  0  0  0  0  0  0  0  0
  -22.6506   -7.9520   21.2156 C   0  0  0  0  0  0  0  0  0  0  0  0
  -26.2318  -24.4794   19.7237 C   0  0  0  0  0  0  0  0  0  0  0  0
  -22.8903   -5.6274   21.4624 C   0  0  0  0  0  0  0  0  0  0  0  0
  -24.5350   -3.4311   21.9663 C   0  0  0  0  0  0  0  0  0  0  0  0
  -23.0207   -4.6199   20.5066 C   0  0  0  0  0  0  0  0  0  0  0  0
  -24.4385  -11.7862   21.2231 C   0  0  0  0  0  0  0  0  0  0  0  0
  -25.0391  -13.8436   20.7319 C   0  0  0  0  0  0  0  0  0  0  0  0
  -23.4110  -12.8476   19.1177 C   0  0  0  0  0  0  0  0  0  0  0  0
  -23.0953  -28.3265   21.9206 C   0  0  0  0  0  0  0  0  0  0  0  0
  -25.7932  -29.9984   22.5906 C   0  0  0  0  0  0  0  0  0  0  0  0
  -29.1955  -30.1995   22.4156 C   0  0  0  0  0  0  0  0  0  0  0  0
  -30.0931  -15.4087   22.6565 C   0  0  0  0  0  0  0  0  0  0  0  0
  -18.2342  -28.2926   23.4781 C   0  0  0  0  0  0  0  0  0  0  0  0
  -24.5028  -26.5741   23.0626 C   0  0  0  0  0  0  0  0  0  0  0  0
  -28.5894  -17.0368   21.3548 C   0  0  0  0  0  0  0  0  0  0  0  0
  -26.0378  -28.0479   21.0091 C   0  0  0  0  0  0  0  0  0  0  0  0
  -30.9840  -16.9494   20.9173 C   0  0  0  0  0  0  0  0  0  0  0  0
  -19.3563  -29.3262   23.4245 C   0  0  0  0  0  0  0  0  0  0  0  0
  -27.5304  -14.4394   25.0955 C   0  0  0  0  0  0  0  0  0  0  0  0
  -20.0060  -29.3378   22.0444 C   0  0  0  0  0  0  0  0  0  0  0  0
  -26.5032  -13.7091   24.2276 C   0  0  0  0  0  0  0  0  0  0  0  0
  -28.9482  -14.3024   24.5441 C   0  0  0  0  0  0  0  0  0  0  0  0
  -28.0727  -13.9443   22.2701 C   0  0  0  0  0  0  0  0  0  0  0  0
  -20.6396  -27.9792   21.7216 C   0  0  1  0  0  0  0  0  0  0  0  0
  -24.2796  -28.0614   22.8066 C   0  0  1  0  0  0  0  0  0  0  0  0
  -26.6259  -14.1238   22.7486 C   0  0  1  0  0  0  0  0  0  0  0  0
  -31.1134  -31.7026   23.0155 C   0  0  0  0  0  0  0  0  0  0  0  0
  -25.1006  -31.8162   20.2399 C   0  0  0  0  0  0  0  0  0  0  0  0
  -27.4554  -32.6649   20.2924 C   0  0  0  0  0  0  0  0  0  0  0  0
  -25.9634  -33.0086   22.2618 C   0  0  0  0  0  0  0  0  0  0  0  0
  -26.3687  -22.5031   16.7263 C   0  0  0  0  0  0  0  0  0  0  0  0
  -24.6024  -22.8177   18.4733 C   0  0  0  0  0  0  0  0  0  0  0  0
  -30.3916  -28.1573   24.1925 C   0  0  0  0  0  0  0  0  0  0  0  0
  -26.6800  -21.4150   18.9628 C   0  0  0  0  0  0  0  0  0  0  0  0
  -26.8519  -30.6935   21.7690 C   0  0  1  0  0  0  0  0  0  0  0  0
  -30.2395  -30.5413   23.4633 C   0  0  2  0  0  0  0  0  0  0  0  0
  -26.3375  -32.0180   21.1378 C   0  0  0  0  0  0  0  0  0  0  0  0
  -26.1024  -22.6347   18.2283 C   0  0  0  0  0  0  0  0  0  1  0  0
  -25.2946  -12.1249   22.1908 N   0  0  0  0  0  0  0  0  0  0  0  0
  -25.6425  -13.3813   21.8643 N   0  0  0  0  0  0  0  0  0  0  0  0
  -25.4349  -28.7067   22.1796 N   0  0  0  0  0  0  0  0  0  0  0  0
  -29.8563  -16.3275   21.6310 N   0  0  0  0  0  0  0  0  0  0  0  0
  -28.9957  -14.6856   23.1340 N   0  0  0  0  0  0  0  0  0  0  0  0
  -32.3856  -19.0611   19.2280 N   0  0  0  0  0  0  0  0  0  0  0  0
  -25.2765  -15.0866   20.2616 N   0  0  0  0  0  0  0  0  0  0  0  0
  -22.6565  -11.7085   18.8054 N   0  0  0  0  0  0  0  0  0  0  0  0
  -28.0855  -21.2873   18.7376 N   0  0  0  0  0  0  0  0  0  0  0  0
  -21.9023  -27.8333   22.4134 N   0  0  0  0  0  0  0  0  0  0  0  0
  -28.0062  -30.8582   22.6459 N   0  0  0  0  0  0  0  0  0  0  0  0
  -31.1174  -29.3653   23.7227 N   0  3  0  0  0  0  0  0  0  0  0  0
  -23.3529  -13.8482   18.3634 O   0  0  0  0  0  0  0  0  0  0  0  0
  -23.2521  -28.9349   20.8685 O   0  0  0  0  0  0  0  0  0  0  0  0
  -25.3073  -30.5773   23.5654 O   0  0  0  0  0  0  0  0  0  0  0  0
  -29.4143  -29.4285   21.4839 O   0  0  0  0  0  0  0  0  0  0  0  0
  -31.2167  -15.2802   23.1593 O   0  0  0  0  0  0  0  0  0  0  0  0
  -22.0750   -6.7186   21.2135 O   0  0  0  0  0  0  0  0  0  0  0  0
  -26.7848  -23.8117   18.6667 O   0  0  0  0  0  0  0  0  0  1  0  0
  -25.3259   -2.3773   22.2078 F   0  0  0  0  0  0  0  0  0  0  0  0
  -22.3594   -4.7021   19.3440 F   0  0  0  0  0  0  0  0  0  0  0  0
  1  2  1  0  0  0  0
  1  5  2  0  0  0  0
  2  6  2  0  0  0  0
  3  8  2  0  0  0  0
  3 17  1  0  0  0  0
  4  9  1  0  0  0  0
  4 17  2  0  0  0  0
  5 19  1  0  0  0  0
  6 21  1  0  0  0  0
  7 10  2  0  0  0  0
  7 20  1  0  0  0  0
  8 27  1  0  0  0  0
  9 27  2  0  0  0  0
 10 28  1  0  0  0  0
 11 12  2  0  0  0  0
 11 29  1  0  0  0  0
 12 30  1  0  0  0  0
 13 22  1  0  0  0  0
 13 25  2  0  0  0  0
 14 23  1  0  0  0  0
 14 28  2  0  0  0  0
 15 25  1  0  0  0  0
 15 26  2  0  0  0  0
 16 30  2  0  0  0  0
 16 31  1  0  0  0  0
 17 32  1  0  0  0  0
 18 32  1  0  0  0  0
 18 33  2  0  0  0  0
 18 34  1  0  0  0  0
 19 21  2  0  0  0  0
 19 39  1  0  0  0  0
 20 23  2  0  0  0  0
 20 40  1  0  0  0  0
 21 50  1  0  0  0  0
 22 24  2  0  0  0  0
 22 41  1  0  0  0  0
 23 42  1  0  0  0  0
 24 26  1  0  0  0  0
 24 43  1  0  0  0  0
 25 73  1  0  0  0  0
 26 70  1  0  0  0  0
 27 82  1  0  0  0  0
 28 83  1  0  0  0  0
 29 31  2  0  0  0  0
 29 82  1  0  0  0  0
 30 84  1  0  0  0  0
 31 85  1  0  0  0  0
 32 65  2  0  0  0  0
 33 66  1  0  0  0  0
 33 71  1  0  0  0  0
 34 72  1  0  0  0  0
 34 77  2  0  0  0  0
 35 51  1  0  0  0  0
 35 74  1  0  0  0  0
 35 78  2  0  0  0  0
 36 61  1  0  0  0  0
 36 67  1  0  0  0  0
 36 79  2  0  0  0  0
 37 62  1  0  0  0  0
 37 75  1  0  0  0  0
 37 80  2  0  0  0  0
 38 68  1  0  0  0  0
 38 69  1  0  0  0  0
 38 81  2  0  0  0  0
 39 44  1  0  0  0  0
 40 51  1  0  0  0  0
 41 68  1  0  0  0  0
 42 67  1  0  0  0  0
 43 68  1  0  0  0  0
 44 46  1  0  0  0  0
 45 47  1  0  0  0  0
 45 48  1  0  0  0  0
 46 50  1  0  0  0  0
 47 52  1  0  0  0  0
 48 69  1  0  0  0  0
 49 52  1  0  0  0  0
 49 69  1  0  0  0  0
 50 74  1  0  0  0  0
 51 67  1  0  0  0  0
 52 66  1  0  0  0  0
 53 62  1  0  0  0  0
 54 63  1  0  0  0  0
 55 63  1  0  0  0  0
 56 63  1  0  0  0  0
 57 64  1  0  0  0  0
 58 64  1  0  0  0  0
 59 76  1  0  0  0  0
 60 64  1  0  0  0  0
 60 73  1  0  0  0  0
 61 63  1  0  0  0  0
 61 75  1  0  0  0  0
 62 76  1  0  0  0  0
 64 83  1  0  0  0  0
 65 66  1  0  0  0  0
M  CHG  1  76   1
M  ISO  4  38 100  64 101  68 100  83 101
M  END
> <Batch ID>
0150

> <Smiles>
CNC(C)C(=O)NC(C(=O)N1Cc2cc([101O:1][101C:1](C)(C)CNc3cc(N)c4c(c3)C[100N:0]([100C:0](=O)N3CCCC(n5nc(-c6ccc(Oc7ccc(F)cc7F)cc6)c(C(N)=O)c5N)C3)C4)ccc2CC1C(=O)NC1CCCc2ccccc21)C(C)(C)C

> <Shape>
0.243

> <Color>
0.099

> <Negative vol penalty>
0.000

$$$$

  -OEChem-04052303213D

 84 92  0     1  0  0  0  0  0999 V2000
  -27.0754  -23.0553   19.0742 C   0  0  0  0  0  0  0  0  0  0  0  0
  -25.9066  -23.6069   19.5891 C   0  0  0  0  0  0  0  0  0  0  0  0
  -28.2689  -14.5658   20.9664 C   0  0  0  0  0  0  0  0  0  0  0  0
  -26.1457  -15.5331   20.3392 C   0  0  0  0  0  0  0  0  0  0  0  0
  -28.3146  -23.4806   19.5512 C   0  0  0  0  0  0  0  0  0  0  0  0
  -25.9763  -24.5833   20.5821 C   0  0  0  0  0  0  0  0  0  0  0  0
  -22.8433  -28.4657   19.7126 C   0  0  0  0  0  0  0  0  0  0  0  0
  -27.7113  -13.2898   20.8862 C   0  0  0  0  0  0  0  0  0  0  0  0
  -25.5880  -14.2571   20.2589 C   0  0  0  0  0  0  0  0  0  0  0  0
  -21.4941  -28.2733   20.0066 C   0  0  0  0  0  0  0  0  0  0  0  0
  -24.4011  -11.9184   22.3925 C   0  0  0  0  0  0  0  0  0  0  0  0
  -23.1477  -11.7213   22.9720 C   0  0  0  0  0  0  0  0  0  0  0  0
  -24.5927  -24.0862   25.0365 C   0  0  0  0  0  0  0  0  0  0  0  0
  -23.3879  -24.7807   24.7259 C   0  0  0  0  0  0  0  0  0  0  0  0
  -21.7855  -29.4555   22.0891 C   0  0  0  0  0  0  0  0  0  0  0  0
  -22.2547  -11.0774   20.8213 C   0  0  0  0  0  0  0  0  0  0  0  0
  -27.4861  -15.6875   20.6929 C   0  0  0  0  0  0  0  0  0  0  0  0
  -28.6935  -17.7243   19.7437 C   0  0  0  0  0  0  0  0  0  0  0  0
  -28.3998  -24.4697   20.5437 C   0  0  0  0  0  0  0  0  0  0  0  0
  -23.6775  -29.1461   20.6112 C   0  0  0  0  0  0  0  0  0  0  0  0
  -27.2178  -25.0213   21.0738 C   0  0  0  0  0  0  0  0  0  0  0  0
  -23.1443  -29.6574   21.8030 C   0  0  0  0  0  0  0  0  0  0  0  0
  -26.3708  -13.1354   20.5324 C   0  0  0  0  0  0  0  0  0  0  0  0
  -20.9656  -28.7656   21.1963 C   0  0  0  0  0  0  0  0  0  0  0  0
  -24.5813  -11.6951   21.0275 C   0  0  0  0  0  0  0  0  0  0  0  0
  -22.0745  -11.3008   22.1864 C   0  0  0  0  0  0  0  0  0  0  0  0
  -23.5081  -11.2746   20.2419 C   0  0  0  0  0  0  0  0  0  0  0  0
  -28.0614  -17.0059   20.7762 C   0  0  0  0  0  0  0  0  0  0  0  0
  -29.0613  -18.9121   20.3271 C   0  0  0  0  0  0  0  0  0  0  0  0
  -24.7858  -22.9941   24.2194 C   0  0  0  0  0  0  0  0  0  0  0  0
  -22.7062  -24.1930   23.6829 C   0  0  0  0  0  0  0  0  0  0  0  0
  -28.9272  -17.3514   18.3791 C   0  0  0  0  0  0  0  0  0  0  0  0
  -26.2696  -28.3811   22.2844 C   0  0  0  0  0  0  0  0  0  0  0  0
  -19.5083  -25.9528   22.7933 C   0  0  0  0  0  0  0  0  0  0  0  0
  -26.2387  -31.5362   23.0372 C   0  0  0  0  0  0  0  0  0  0  0  0
  -24.4413  -34.4183   23.3683 C   0  0  0  0  0  0  0  0  0  0  0  0
  -26.9600  -21.9883   24.9990 C   0  0  0  0  0  0  0  0  0  0  0  0
  -29.7606  -24.8632   21.0614 C   0  0  0  0  0  0  0  0  0  0  0  0
  -25.1247  -29.3687   20.2670 C   0  0  0  0  0  0  0  0  0  0  0  0
  -23.9932  -30.4125   22.7918 C   0  0  0  0  0  0  0  0  0  0  0  0
  -29.7579  -26.1712   21.8486 C   0  0  0  0  0  0  0  0  0  0  0  0
  -30.2820  -20.7837   24.5628 C   0  0  0  0  0  0  0  0  0  0  0  0
  -28.6066  -26.1898   22.8490 C   0  0  0  0  0  0  0  0  0  0  0  0
  -30.1481  -19.7480   23.4441 C   0  0  0  0  0  0  0  0  0  0  0  0
  -29.0705  -20.7732   25.4934 C   0  0  0  0  0  0  0  0  0  0  0  0
  -27.6373  -19.8719   23.7038 C   0  0  0  0  0  0  0  0  0  0  0  0
  -27.2529  -26.1004   22.1341 C   0  0  1  0  0  0  0  0  0  0  0  0
  -25.9971  -29.6279   21.4914 C   0  0  1  0  0  0  0  0  0  0  0  0
  -28.8042  -19.8896   22.7029 C   0  0  2  0  0  0  0  0  0  0  0  0
  -24.6831  -36.8248   24.0371 C   0  0  0  0  0  0  0  0  0  0  0  0
  -18.1107  -27.0639   24.5901 C   0  0  0  0  0  0  0  0  0  0  0  0
  -26.3310  -30.7085   25.9726 C   0  0  0  0  0  0  0  0  0  0  0  0
  -25.6201  -33.0316   26.5778 C   0  0  0  0  0  0  0  0  0  0  0  0
  -27.7835  -32.6601   25.3928 C   0  0  0  0  0  0  0  0  0  0  0  0
  -23.6064  -35.3666   20.6919 C   0  0  0  0  0  0  0  0  0  0  0  0
  -20.7802  -25.7772   23.6050 C   0  0  0  0  0  0  0  0  0  0  0  0
  -19.2955  -28.4790   22.8650 C   0  0  0  0  0  0  0  0  0  1  0  0
  -25.6127  -32.3684   24.1301 C   0  0  1  0  0  0  0  0  0  0  0  0
  -24.7074  -35.8325   22.8850 C   0  0  2  0  0  0  0  0  0  0  0  0
  -18.5992  -27.1425   23.1433 C   0  0  1  0  0  0  0  0  0  0  0  0
  -26.3210  -32.1763   25.5008 C   0  0  0  0  0  0  0  0  0  0  0  0
  -28.0280  -17.6808   21.9283 N   0  0  0  0  0  0  0  0  0  0  0  0
  -28.6438  -18.8357   21.6233 N   0  0  0  0  0  0  0  0  0  0  0  0
  -25.4036  -30.5989   22.4129 N   0  0  0  0  0  0  0  0  0  0  0  0
  -27.8339  -20.9159   24.7218 N   0  0  0  0  0  0  0  0  0  0  0  0
  -29.6980  -20.0039   19.8528 N   0  0  0  0  0  0  0  0  0  0  0  0
  -28.4839  -16.0949   17.9446 N   0  0  0  0  0  0  0  0  0  0  0  0
  -25.8328  -22.0401   24.1797 N   0  0  0  0  0  0  0  0  0  0  0  0
  -21.5049  -24.6204   23.1386 N   0  0  0  0  0  0  0  0  0  0  0  0
  -26.8967  -27.3822   21.5643 N   0  0  0  0  0  0  0  0  0  0  0  0
  -25.6119  -33.7445   23.6456 N   0  0  0  0  0  0  0  0  0  0  0  0
  -17.3707  -27.0877   22.2752 N   0  3  0  0  0  0  0  0  0  0  0  0
  -23.6766  -36.2424   21.8898 N   0  3  0  0  0  0  0  0  0  0  0  0
  -29.5263  -18.1034   17.5735 O   0  0  0  0  0  0  0  0  0  0  0  0
  -25.9370  -28.3297   23.4627 O   0  0  0  0  0  0  0  0  0  0  0  0
  -19.2168  -25.1760   21.8808 O   0  0  0  0  0  0  0  0  0  0  0  0
  -27.4231  -31.7162   22.7432 O   0  0  0  0  0  0  0  0  0  0  0  0
  -23.3081  -33.9585   23.4912 O   0  0  0  0  0  0  0  0  0  0  0  0
  -27.2079  -22.8166   25.8791 O   0  0  0  0  0  0  0  0  0  0  0  0
  -25.8264  -11.8905   20.4538 O   0  0  0  0  0  0  0  0  0  0  0  0
  -19.6492  -28.5786   21.4861 O   0  0  0  0  0  0  0  0  0  1  0  0
  -20.8713  -11.1100   22.7433 F   0  0  0  0  0  0  0  0  0  0  0  0
  -23.6754  -11.0573   18.9302 F   0  0  0  0  0  0  0  0  0  0  0  0
  -23.5180  -22.8096   23.0832 S   0  0  0  0  0  0  0  0  0  0  0  0
  1  2  1  0  0  0  0
  1  5  2  0  0  0  0
  2  6  2  0  0  0  0
  3  8  2  0  0  0  0
  3 17  1  0  0  0  0
  4  9  1  0  0  0  0
  4 17  2  0  0  0  0
  5 19  1  0  0  0  0
  6 21  1  0  0  0  0
  7 10  2  0  0  0  0
  7 20  1  0  0  0  0
  8 23  1  0  0  0  0
  9 23  2  0  0  0  0
 10 24  1  0  0  0  0
 11 12  2  0  0  0  0
 11 25  1  0  0  0  0
 12 26  1  0  0  0  0
 13 14  1  0  0  0  0
 13 30  2  0  0  0  0
 14 31  2  0  0  0  0
 15 22  1  0  0  0  0
 15 24  2  0  0  0  0
 16 26  2  0  0  0  0
 16 27  1  0  0  0  0
 17 28  1  0  0  0  0
 18 28  1  0  0  0  0
 18 29  2  0  0  0  0
 18 32  1  0  0  0  0
 19 21  2  0  0  0  0
 19 38  1  0  0  0  0
 20 22  2  0  0  0  0
 20 39  1  0  0  0  0
 21 47  1  0  0  0  0
 22 40  1  0  0  0  0
 23 80  1  0  0  0  0
 24 81  1  0  0  0  0
 25 27  2  0  0  0  0
 25 80  1  0  0  0  0
 26 82  1  0  0  0  0
 27 83  1  0  0  0  0
 28 62  2  0  0  0  0
 29 63  1  0  0  0  0
 29 66  1  0  0  0  0
 30 68  1  0  0  0  0
 30 84  1  0  0  0  0
 31 69  1  0  0  0  0
 31 84  1  0  0  0  0
 32 67  1  0  0  0  0
 32 74  2  0  0  0  0
 33 48  1  0  0  0  0
 33 70  1  0  0  0  0
 33 75  2  0  0  0  0
 34 56  1  0  0  0  0
 34 60  1  0  0  0  0
 34 76  2  0  0  0  0
 35 58  1  0  0  0  0
 35 64  1  0  0  0  0
 35 77  2  0  0  0  0
 36 59  1  0  0  0  0
 36 71  1  0  0  0  0
 36 78  2  0  0  0  0
 37 65  1  0  0  0  0
 37 68  1  0  0  0  0
 37 79  2  0  0  0  0
 38 41  1  0  0  0  0
 39 48  1  0  0  0  0
 40 64  1  0  0  0  0
 41 43  1  0  0  0  0
 42 44  1  0  0  0  0
 42 45  1  0  0  0  0
 43 47  1  0  0  0  0
 44 49  1  0  0  0  0
 45 65  1  0  0  0  0
 46 49  1  0  0  0  0
 46 65  1  0  0  0  0
 47 70  1  0  0  0  0
 48 64  1  0  0  0  0
 49 63  1  0  0  0  0
 50 59  1  0  0  0  0
 51 60  1  0  0  0  0
 52 61  1  0  0  0  0
 53 61  1  0  0  0  0
 54 61  1  0  0  0  0
 55 73  1  0  0  0  0
 56 69  1  0  0  0  0
 57 60  1  0  0  0  0
 57 81  1  0  0  0  0
 58 61  1  0  0  0  0
 58 71  1  0  0  0  0
 59 73  1  0  0  0  0
 60 72  1  0  0  0  0
 62 63  1  0  0  0  0
M  CHG  2  72   1  73   1
M  ISO  4  37 100  57 101  68 100  81 101
M  END
> <Batch ID>
0150

> <Smiles>
CNC(C)C(=O)NC(C(=O)N1Cc2cc([101O:1][101CH2:1]C(C)(N)C(=O)CNc3ccc([100NH:0][100C:0](=O)N4CCCC(n5nc(-c6ccc(Oc7ccc(F)cc7F)cc6)c(C(N)=O)c5N)C4)s3)ccc2CC1C(=O)NC1CCCc2ccccc21)C(C)(C)C

> <Shape>
0.290

> <Color>
0.065

> <Negative vol penalty>
0.000

$$$$

  -OEChem-04052303213D

 84 92  0     1  0  0  0  0  0999 V2000
  -24.3930  -37.1789   24.4959 C   0  0  0  0  0  0  0  0  0  0  0  0
  -25.1565  -36.7550   23.4130 C   0  0  0  0  0  0  0  0  0  0  0  0
  -24.5142   -9.5660   21.2895 C   0  0  0  0  0  0  0  0  0  0  0  0
  -25.0093  -10.5284   23.4496 C   0  0  0  0  0  0  0  0  0  0  0  0
  -24.0786  -36.2847   25.5184 C   0  0  0  0  0  0  0  0  0  0  0  0
  -25.6071  -35.4368   23.3524 C   0  0  0  0  0  0  0  0  0  0  0  0
  -27.0576  -30.2438   18.6359 C   0  0  0  0  0  0  0  0  0  0  0  0
  -24.2635   -8.3349   21.8954 C   0  0  0  0  0  0  0  0  0  0  0  0
  -24.7585   -9.2973   24.0555 C   0  0  0  0  0  0  0  0  0  0  0  0
  -28.0788  -29.3618   18.2853 C   0  0  0  0  0  0  0  0  0  0  0  0
  -23.1425   -5.0300   22.9131 C   0  0  0  0  0  0  0  0  0  0  0  0
  -22.0077   -4.3271   22.5084 C   0  0  0  0  0  0  0  0  0  0  0  0
  -27.4075  -27.8845   20.0702 C   0  0  0  0  0  0  0  0  0  0  0  0
  -20.6142   -6.1695   23.2161 C   0  0  0  0  0  0  0  0  0  0  0  0
  -29.3067  -20.2845   20.4074 C   0  0  0  0  0  0  0  0  0  0  0  0
  -24.8872  -10.6627   22.0666 C   0  0  0  0  0  0  0  0  0  0  0  0
  -24.2204  -12.9654   21.1944 C   0  0  0  0  0  0  0  0  0  0  0  0
  -24.5174  -34.9523   25.4656 C   0  0  0  0  0  0  0  0  0  0  0  0
  -26.2091  -29.9575   19.7151 C   0  0  0  0  0  0  0  0  0  0  0  0
  -25.2994  -34.5242   24.3758 C   0  0  0  0  0  0  0  0  0  0  0  0
  -26.3747  -28.7633   20.4310 C   0  0  0  0  0  0  0  0  0  0  0  0
  -24.3856   -8.2005   23.2784 C   0  0  0  0  0  0  0  0  0  0  0  0
  -28.2557  -28.1833   19.0043 C   0  0  0  0  0  0  0  0  0  0  0  0
  -23.0132   -6.3026   23.4694 C   0  0  0  0  0  0  0  0  0  0  0  0
  -20.7436   -4.8969   22.6599 C   0  0  0  0  0  0  0  0  0  0  0  0
  -21.7490   -6.8724   23.6209 C   0  0  0  0  0  0  0  0  0  0  0  0
  -25.1468  -11.9346   21.4412 C   0  0  0  0  0  0  0  0  0  0  0  0
  -28.7585  -21.5651   20.7036 C   0  0  0  0  0  0  0  0  0  0  0  0
  -24.9582  -13.9519   20.5868 C   0  0  0  0  0  0  0  0  0  0  0  0
  -28.4485  -19.2928   20.8305 C   0  0  0  0  0  0  0  0  0  0  0  0
  -22.8184  -13.0260   21.4882 C   0  0  0  0  0  0  0  0  0  0  0  0
  -29.4333  -22.8357   20.3780 C   0  0  0  0  0  0  0  0  0  0  0  0
  -25.5717  -31.3531   22.4989 C   0  0  0  0  0  0  0  0  0  0  0  0
  -23.3052  -29.0409   22.6957 C   0  0  0  0  0  0  0  0  0  0  0  0
  -22.2303  -25.9481   21.7334 C   0  0  0  0  0  0  0  0  0  0  0  0
  -29.5431  -25.0238   19.2353 C   0  0  0  0  0  0  0  0  0  0  0  0
  -29.5394  -17.0984   20.2470 C   0  0  0  0  0  0  0  0  0  0  0  0
  -24.1924  -34.0348   26.6176 C   0  0  0  0  0  0  0  0  0  0  0  0
  -25.0955  -30.9066   20.0638 C   0  0  0  0  0  0  0  0  0  0  0  0
  -25.4779  -28.3997   21.5851 C   0  0  0  0  0  0  0  0  0  0  0  0
  -24.3924  -32.5564   26.2941 C   0  0  0  0  0  0  0  0  0  0  0  0
  -29.6698  -13.8759   18.7383 C   0  0  0  0  0  0  0  0  0  0  0  0
  -25.7306  -32.3393   25.5948 C   0  0  0  0  0  0  0  0  0  0  0  0
  -28.4285  -13.1684   19.2867 C   0  0  0  0  0  0  0  0  0  0  0  0
  -30.3144  -14.7830   19.7850 C   0  0  0  0  0  0  0  0  0  0  0  0
  -28.1645  -15.0446   20.9592 C   0  0  0  0  0  0  0  0  0  0  0  0
  -25.7857  -33.0957   24.2620 C   0  0  1  0  0  0  0  0  0  0  0  0
  -24.6145  -30.7599   21.5041 C   0  0  1  0  0  0  0  0  0  0  0  0
  -27.4432  -14.1696   19.9210 C   0  0  2  0  0  0  0  0  0  0  0  0
  -20.3605  -24.3130   22.0907 C   0  0  0  0  0  0  0  0  0  0  0  0
  -29.3465  -25.7737   16.8638 C   0  0  0  0  0  0  0  0  0  0  0  0
  -24.4767  -28.2987   25.4136 C   0  0  0  0  0  0  0  0  0  0  0  0
  -23.2331  -26.1299   25.2795 C   0  0  0  0  0  0  0  0  0  0  0  0
  -21.9777  -28.2852   25.3159 C   0  0  0  0  0  0  0  0  0  0  0  0
  -27.5220  -23.5111   18.9495 C   0  0  0  0  0  0  0  0  0  0  0  0
  -21.4655  -26.0208   18.8753 C   0  0  0  0  0  0  0  0  0  0  0  0
  -23.2591  -27.6322   23.2366 C   0  0  1  0  0  0  0  0  0  0  0  0
  -20.8811  -25.4596   21.2380 C   0  0  2  0  0  0  0  0  0  0  0  0
  -28.8670  -25.9996   18.2875 C   0  0  2  0  0  0  0  0  0  1  0  0
  -23.2549  -27.5940   24.7909 C   0  0  0  0  0  0  0  0  0  0  0  0
  -26.3790  -12.2379   21.0242 N   0  0  0  0  0  0  0  0  0  0  0  0
  -27.5724  -21.5954   21.3065 N   0  0  0  0  0  0  0  0  0  0  0  0
  -26.2319  -13.4705   20.5093 N   0  0  0  0  0  0  0  0  0  0  0  0
  -24.4075  -29.3630   21.8914 N   0  0  0  0  0  0  0  0  0  0  0  0
  -29.3224  -15.7072   20.3388 N   0  0  0  0  0  0  0  0  0  0  0  0
  -24.6351  -15.1753   20.1166 N   0  0  0  0  0  0  0  0  0  0  0  0
  -22.2190  -11.9251   22.1152 N   0  0  0  0  0  0  0  0  0  0  0  0
  -28.5131  -17.8783   20.7789 N   0  0  0  0  0  0  0  0  0  0  0  0
  -25.0381  -32.3855   23.2465 N   0  0  0  0  0  0  0  0  0  0  0  0
  -22.1001  -26.9959   22.6201 N   0  0  0  0  0  0  0  0  0  0  0  0
  -28.8579  -23.7555   19.5538 N   0  0  0  0  0  0  0  0  0  0  0  0
  -30.6445  -22.9652   20.9264 N   0  3  0  0  0  0  0  0  0  0  0  0
  -20.9869  -24.9868   19.8287 N   0  3  0  0  0  0  0  0  0  0  0  0
  -22.1145  -14.0201   21.1884 O   0  0  0  0  0  0  0  0  0  0  0  0
  -26.7096  -30.9062   22.5831 O   0  0  0  0  0  0  0  0  0  0  0  0
  -22.3929  -29.8243   22.9708 O   0  0  0  0  0  0  0  0  0  0  0  0
  -23.2933  -25.4475   21.3729 O   0  0  0  0  0  0  0  0  0  0  0  0
  -30.6482  -25.2607   19.7162 O   0  0  0  0  0  0  0  0  0  0  0  0
  -30.5477  -17.5639   19.7098 O   0  0  0  0  0  0  0  0  0  0  0  0
  -24.1408   -6.9994   23.8700 O   0  0  0  0  0  0  0  0  0  0  0  0
  -29.2521  -27.3209   18.6645 O   0  0  0  0  0  0  0  0  0  1  0  0
  -19.6540   -4.2224   22.2697 F   0  0  0  0  0  0  0  0  0  0  0  0
  -21.6186   -8.0951   24.1535 F   0  0  0  0  0  0  0  0  0  0  0  0
  -27.0731  -20.0275   21.5392 S   0  0  0  0  0  0  0  0  0  0  0  0
  1  2  1  0  0  0  0
  1  5  2  0  0  0  0
  2  6  2  0  0  0  0
  3  8  2  0  0  0  0
  3 16  1  0  0  0  0
  4  9  1  0  0  0  0
  4 16  2  0  0  0  0
  5 18  1  0  0  0  0
  6 20  1  0  0  0  0
  7 10  2  0  0  0  0
  7 19  1  0  0  0  0
  8 22  1  0  0  0  0
  9 22  2  0  0  0  0
 10 23  1  0  0  0  0
 11 12  2  0  0  0  0
 11 24  1  0  0  0  0
 12 25  1  0  0  0  0
 13 21  1  0  0  0  0
 13 23  2  0  0  0  0
 14 25  2  0  0  0  0
 14 26  1  0  0  0  0
 15 28  1  0  0  0  0
 15 30  2  0  0  0  0
 16 27  1  0  0  0  0
 17 27  1  0  0  0  0
 17 29  2  0  0  0  0
 17 31  1  0  0  0  0
 18 20  2  0  0  0  0
 18 38  1  0  0  0  0
 19 21  2  0  0  0  0
 19 39  1  0  0  0  0
 20 47  1  0  0  0  0
 21 40  1  0  0  0  0
 22 80  1  0  0  0  0
 23 81  1  0  0  0  0
 24 26  2  0  0  0  0
 24 80  1  0  0  0  0
 25 82  1  0  0  0  0
 26 83  1  0  0  0  0
 27 61  2  0  0  0  0
 28 32  1  0  0  0  0
 28 62  2  0  0  0  0
 29 63  1  0  0  0  0
 29 66  1  0  0  0  0
 30 68  1  0  0  0  0
 30 84  1  0  0  0  0
 31 67  1  0  0  0  0
 31 74  2  0  0  0  0
 32 71  1  0  0  0  0
 32 72  2  0  0  0  0
 33 48  1  0  0  0  0
 33 69  1  0  0  0  0
 33 75  2  0  0  0  0
 34 57  1  0  0  0  0
 34 64  1  0  0  0  0
 34 76  2  0  0  0  0
 35 58  1  0  0  0  0
 35 70  1  0  0  0  0
 35 77  2  0  0  0  0
 36 59  1  0  0  0  0
 36 71  1  0  0  0  0
 36 78  2  0  0  0  0
 37 65  1  0  0  0  0
 37 68  1  0  0  0  0
 37 79  2  0  0  0  0
 38 41  1  0  0  0  0
 39 48  1  0  0  0  0
 40 64  1  0  0  0  0
 41 43  1  0  0  0  0
 42 44  1  0  0  0  0
 42 45  1  0  0  0  0
 43 47  1  0  0  0  0
 44 49  1  0  0  0  0
 45 65  1  0  0  0  0
 46 49  1  0  0  0  0
 46 65  1  0  0  0  0
 47 69  1  0  0  0  0
 48 64  1  0  0  0  0
 49 63  1  0  0  0  0
 50 58  1  0  0  0  0
 51 59  1  0  0  0  0
 52 60  1  0  0  0  0
 53 60  1  0  0  0  0
 54 60  1  0  0  0  0
 55 71  1  0  0  0  0
 56 73  1  0  0  0  0
 57 60  1  0  0  0  0
 57 70  1  0  0  0  0
 58 73  1  0  0  0  0
 59 81  1  0  0  0  0
 61 63  1  0  0  0  0
 62 84  1  0  0  0  0
M  CHG  2  72   1  73   1
M  ISO  4  37 100  59 101  68 100  81 101
M  END
> <Batch ID>
0150

> <Smiles>
CNC(C)C(=O)NC(C(=O)N1Cc2cc([101O:1][101CH:1](C)C(=O)N(C)C(=N)c3cc([100NH:0][100C:0](=O)N4CCCC(n5nc(-c6ccc(Oc7ccc(F)cc7F)cc6)c(C(N)=O)c5N)C4)sn3)ccc2CC1C(=O)NC1CCCc2ccccc21)C(C)(C)C

> <Shape>
0.363

> <Color>
0.132

> <Negative vol penalty>
0.000

$$$$

  -OEChem-04052303213D

 86 95  0     1  0  0  0  0  0999 V2000
  -33.5022  -30.6501   16.0956 C   0  0  0  0  0  0  0  0  0  0  0  0
  -33.0103  -29.6691   16.9506 C   0  0  0  0  0  0  0  0  0  0  0  0
  -24.2757   -9.2493   21.7032 C   0  0  0  0  0  0  0  0  0  0  0  0
  -22.3796  -10.2212   20.5643 C   0  0  0  0  0  0  0  0  0  0  0  0
  -33.2914  -31.9970   16.3873 C   0  0  0  0  0  0  0  0  0  0  0  0
  -32.3081  -30.0346   18.0985 C   0  0  0  0  0  0  0  0  0  0  0  0
  -28.1219  -27.2674   18.7788 C   0  0  0  0  0  0  0  0  0  0  0  0
  -23.6211   -8.0183   21.7428 C   0  0  0  0  0  0  0  0  0  0  0  0
  -21.7249   -8.9902   20.6038 C   0  0  0  0  0  0  0  0  0  0  0  0
  -28.2847  -25.9830   19.2961 C   0  0  0  0  0  0  0  0  0  0  0  0
  -21.1948   -6.5459   23.5784 C   0  0  0  0  0  0  0  0  0  0  0  0
  -21.2222   -5.8363   24.7789 C   0  0  0  0  0  0  0  0  0  0  0  0
  -27.6603  -26.7906   21.4817 C   0  0  0  0  0  0  0  0  0  0  0  0
  -22.3282   -3.9983   23.6674 C   0  0  0  0  0  0  0  0  0  0  0  0
  -25.0011  -19.7625   19.2967 C   0  0  0  0  0  0  0  0  0  0  0  0
  -23.6550  -10.3508   21.1140 C   0  0  0  0  0  0  0  0  0  0  0  0
  -25.1835  -12.1004   20.0603 C   0  0  0  0  0  0  0  0  0  0  0  0
  -32.5779  -32.3790   17.5343 C   0  0  0  0  0  0  0  0  0  0  0  0
  -27.7369  -28.3270   19.6127 C   0  0  0  0  0  0  0  0  0  0  0  0
  -32.0886  -31.3880   18.4066 C   0  0  0  0  0  0  0  0  0  0  0  0
  -27.4908  -28.0870   20.9720 C   0  0  0  0  0  0  0  0  0  0  0  0
  -22.3457   -7.8887   21.1930 C   0  0  0  0  0  0  0  0  0  0  0  0
  -28.0567  -25.7450   20.6483 C   0  0  0  0  0  0  0  0  0  0  0  0
  -21.7339   -5.9816   22.4222 C   0  0  0  0  0  0  0  0  0  0  0  0
  -21.7889   -4.5626   24.8235 C   0  0  0  0  0  0  0  0  0  0  0  0
  -22.3007   -4.7078   22.4668 C   0  0  0  0  0  0  0  0  0  0  0  0
  -24.3305  -11.6229   21.0733 C   0  0  0  0  0  0  0  0  0  0  0  0
  -24.8406  -19.6810   20.6641 C   0  0  0  0  0  0  0  0  0  0  0  0
  -25.5632  -13.3481   20.4911 C   0  0  0  0  0  0  0  0  0  0  0  0
  -25.2623  -21.8276   20.5091 C   0  0  0  0  0  0  0  0  0  0  0  0
  -25.5957  -11.4724   18.8391 C   0  0  0  0  0  0  0  0  0  0  0  0
  -29.0600  -31.0775   20.5003 C   0  0  0  0  0  0  0  0  0  0  0  0
  -26.1836  -31.5535   21.9224 C   0  0  0  0  0  0  0  0  0  0  0  0
  -23.3472  -30.1958   23.2484 C   0  0  0  0  0  0  0  0  0  0  0  0
  -24.3603  -18.3067   22.7201 C   0  0  0  0  0  0  0  0  0  0  0  0
  -32.4160  -33.8485   17.8326 C   0  0  0  0  0  0  0  0  0  0  0  0
  -27.5397  -29.7013   19.0339 C   0  0  0  0  0  0  0  0  0  0  0  0
  -27.0562  -29.1863   21.9054 C   0  0  0  0  0  0  0  0  0  0  0  0
  -31.3383  -34.1438   18.8727 C   0  0  0  0  0  0  0  0  0  0  0  0
  -23.1904  -24.4337   21.0521 C   0  0  0  0  0  0  0  0  0  0  0  0
  -24.9454  -15.6141   24.9750 C   0  0  0  0  0  0  0  0  0  0  0  0
  -23.3645  -24.5794   22.5570 C   0  0  0  0  0  0  0  0  0  0  0  0
  -31.4802  -33.2079   20.0689 C   0  0  0  0  0  0  0  0  0  0  0  0
  -24.5324  -24.3429   20.3252 C   0  0  0  0  0  0  0  0  0  0  0  0
  -24.9078  -14.3750   24.0776 C   0  0  0  0  0  0  0  0  0  0  0  0
  -23.9276  -16.6646   24.5343 C   0  0  0  0  0  0  0  0  0  0  0  0
  -23.9707  -15.8134   22.2229 C   0  0  0  0  0  0  0  0  0  0  0  0
  -24.2641  -23.4939   23.1215 C   0  0  0  0  0  0  0  0  0  0  0  0
  -31.3007  -31.7442   19.6485 C   0  0  1  0  0  0  0  0  0  0  0  0
  -25.4975  -23.2837   20.8987 C   0  0  1  0  0  0  0  0  0  0  0  0
  -27.6434  -30.8095   20.0771 C   0  0  1  0  0  0  0  0  0  0  0  0
  -25.0235  -14.7541   22.5882 C   0  0  2  0  0  0  0  0  0  0  0  0
  -21.1945  -30.8353   24.3683 C   0  0  0  0  0  0  0  0  0  0  0  0
  -27.6961  -32.0913   24.5172 C   0  0  0  0  0  0  0  0  0  0  0  0
  -25.5425  -31.7797   25.7555 C   0  0  0  0  0  0  0  0  0  0  0  0
  -25.7686  -33.6280   24.0955 C   0  0  0  0  0  0  0  0  0  0  0  0
  -28.9236  -25.2187   23.3356 C   0  0  0  0  0  0  0  0  0  0  0  0
  -28.2281  -22.8498   22.8917 C   0  0  0  0  0  0  0  0  0  0  0  0
  -21.7284  -28.9954   21.0811 C   0  0  0  0  0  0  0  0  0  0  0  0
  -26.4890  -24.6419   22.8121 C   0  0  0  0  0  0  0  0  0  0  0  0
  -25.5965  -31.2418   23.2778 C   0  0  1  0  0  0  0  0  0  0  0  0
  -21.8804  -30.5303   23.0457 C   0  0  2  0  0  0  0  0  0  0  0  0
  -26.1610  -32.1647   24.3946 C   0  0  0  0  0  0  0  0  0  0  0  0
  -27.9652  -24.3201   22.5502 C   0  0  0  0  0  0  0  0  0  1  0  0
  -24.1773  -12.4959   22.0725 N   0  0  0  0  0  0  0  0  0  0  0  0
  -24.9904  -20.8641   21.3610 N   0  0  0  0  0  0  0  0  0  0  0  0
  -24.9392  -13.5346   21.6894 N   0  0  0  0  0  0  0  0  0  0  0  0
  -26.8831  -30.5140   21.2932 N   0  0  0  0  0  0  0  0  0  0  0  0
  -24.1001  -16.9770   23.1139 N   0  0  0  0  0  0  0  0  0  0  0  0
  -26.3668  -14.2929   19.9580 N   0  0  0  0  0  0  0  0  0  0  0  0
  -25.1116  -10.1889   18.5514 N   0  0  0  0  0  0  0  0  0  0  0  0
  -24.5384  -18.4771   21.3475 N   0  0  0  0  0  0  0  0  0  0  0  0
  -29.8980  -31.4399   19.4631 N   0  0  0  0  0  0  0  0  0  0  0  0
  -24.1477  -31.3112   23.1209 N   0  0  0  0  0  0  0  0  0  0  0  0
  -25.6012  -23.4864   22.4211 N   0  3  1  0  0  0  0  0  0  0  0  0
  -21.1728  -29.3876   22.4018 N   0  3  0  0  0  0  0  0  0  0  0  0
  -26.3833  -12.0260   18.0350 O   0  0  0  0  0  0  0  0  0  0  0  0
  -29.3694  -30.9653   21.6807 O   0  0  0  0  0  0  0  0  0  0  0  0
  -26.0213  -32.6757   21.4366 O   0  0  0  0  0  0  0  0  0  0  0  0
  -23.7429  -29.0595   23.4988 O   0  0  0  0  0  0  0  0  0  0  0  0
  -24.4478  -19.2219   23.5427 O   0  0  0  0  0  0  0  0  0  0  0  0
  -21.7066   -6.6876   21.2312 O   0  0  0  0  0  0  0  0  0  0  0  0
  -28.2156  -24.4924   21.1560 O   0  0  0  0  0  0  0  0  0  1  0  0
  -21.8166   -3.8820   25.9768 F   0  0  0  0  0  0  0  0  0  0  0  0
  -22.8213   -4.1610   21.3596 F   0  0  0  0  0  0  0  0  0  0  0  0
  -25.3523  -21.3819   18.8543 S   0  0  0  0  0  0  0  0  0  0  0  0
  1  2  1  0  0  0  0
  1  5  2  0  0  0  0
  2  6  2  0  0  0  0
  3  8  2  0  0  0  0
  3 16  1  0  0  0  0
  4  9  1  0  0  0  0
  4 16  2  0  0  0  0
  5 18  1  0  0  0  0
  6 20  1  0  0  0  0
  7 10  2  0  0  0  0
  7 19  1  0  0  0  0
  8 22  1  0  0  0  0
  9 22  2  0  0  0  0
 10 23  1  0  0  0  0
 11 12  2  0  0  0  0
 11 24  1  0  0  0  0
 12 25  1  0  0  0  0
 13 21  1  0  0  0  0
 13 23  2  0  0  0  0
 14 25  2  0  0  0  0
 14 26  1  0  0  0  0
 15 28  2  0  0  0  0
 15 86  1  0  0  0  0
 16 27  1  0  0  0  0
 17 27  1  0  0  0  0
 17 29  2  0  0  0  0
 17 31  1  0  0  0  0
 18 20  2  0  0  0  0
 18 36  1  0  0  0  0
 19 21  2  0  0  0  0
 19 37  1  0  0  0  0
 20 49  1  0  0  0  0
 21 38  1  0  0  0  0
 22 82  1  0  0  0  0
 23 83  1  0  0  0  0
 24 26  2  0  0  0  0
 24 82  1  0  0  0  0
 25 84  1  0  0  0  0
 26 85  1  0  0  0  0
 27 65  2  0  0  0  0
 28 66  1  0  0  0  0
 28 72  1  0  0  0  0
 29 67  1  0  0  0  0
 29 70  1  0  0  0  0
 30 50  1  0  0  0  0
 30 66  2  0  0  0  0
 30 86  1  0  0  0  0
 31 71  1  0  0  0  0
 31 77  2  0  0  0  0
 32 51  1  0  0  0  0
 32 73  1  0  0  0  0
 32 78  2  0  0  0  0
 33 61  1  0  0  0  0
 33 68  1  0  0  0  0
 33 79  2  0  0  0  0
 34 62  1  0  0  0  0
 34 74  1  0  0  0  0
 34 80  2  0  0  0  0
 35 69  1  0  0  0  0
 35 72  1  0  0  0  0
 35 81  2  0  0  0  0
 36 39  1  0  0  0  0
 37 51  1  0  0  0  0
 38 68  1  0  0  0  0
 39 43  1  0  0  0  0
 40 42  1  0  0  0  0
 40 44  1  0  0  0  0
 41 45  1  0  0  0  0
 41 46  1  0  0  0  0
 42 48  1  0  0  0  0
 43 49  1  0  0  0  0
 44 50  1  0  0  0  0
 45 52  1  0  0  0  0
 46 69  1  0  0  0  0
 47 52  1  0  0  0  0
 47 69  1  0  0  0  0
 48 75  1  0  0  0  0
 49 73  1  0  0  0  0
 50 75  1  0  0  0  0
 51 68  1  0  0  0  0
 52 67  1  0  0  0  0
 53 62  1  0  0  0  0
 54 63  1  0  0  0  0
 55 63  1  0  0  0  0
 56 63  1  0  0  0  0
 57 64  1  0  0  0  0
 58 64  1  0  0  0  0
 59 76  1  0  0  0  0
 60 64  1  0  0  0  0
 60 75  1  0  0  0  0
 61 63  1  0  0  0  0
 61 74  1  0  0  0  0
 62 76  1  0  0  0  0
 64 83  1  0  0  0  0
 65 67  1  0  0  0  0
M  CHG  2  75   1  76   1
M  ISO  4  35 100  64 101  72 100  83 101
M  END
> <Batch ID>
0150

> <Smiles>
CNC(C)C(=O)NC(C(=O)N1Cc2cc([101O:1][101C:1](C)(C)CN3CCCCC3c3nc([100NH:0][100C:0](=O)N4CCCC(n5nc(-c6ccc(Oc7ccc(F)cc7F)cc6)c(C(N)=O)c5N)C4)cs3)ccc2CC1C(=O)NC1CCCc2ccccc21)C(C)(C)C

> <Shape>
0.220

> <Color>
0.110

> <Negative vol penalty>
0.000

$$$$

  -OEChem-04052303213D

 89 98  0     1  0  0  0  0  0999 V2000
  -16.8958  -30.1060   24.4212 C   0  0  0  0  0  0  0  0  0  0  0  0
  -17.9436  -29.5383   25.1390 C   0  0  0  0  0  0  0  0  0  0  0  0
  -23.2025   -9.7048   20.5069 C   0  0  0  0  0  0  0  0  0  0  0  0
  -23.7661  -10.2931   22.7814 C   0  0  0  0  0  0  0  0  0  0  0  0
  -16.9083  -30.0722   23.0274 C   0  0  0  0  0  0  0  0  0  0  0  0
  -19.0040  -28.9355   24.4634 C   0  0  0  0  0  0  0  0  0  0  0  0
  -26.0594  -27.8215   25.0088 C   0  0  0  0  0  0  0  0  0  0  0  0
  -22.4730   -8.6102   20.9707 C   0  0  0  0  0  0  0  0  0  0  0  0
  -23.0366   -9.1985   23.2453 C   0  0  0  0  0  0  0  0  0  0  0  0
  -26.9931  -26.7871   24.9639 C   0  0  0  0  0  0  0  0  0  0  0  0
  -19.7929   -8.4143   23.7784 C   0  0  0  0  0  0  0  0  0  0  0  0
  -18.9415   -8.6180   24.8643 C   0  0  0  0  0  0  0  0  0  0  0  0
  -26.9467  -26.8581   22.5531 C   0  0  0  0  0  0  0  0  0  0  0  0
  -31.5242  -17.9942   21.0190 C   0  0  0  0  0  0  0  0  0  0  0  0
  -20.1706   -6.9726   26.1367 C   0  0  0  0  0  0  0  0  0  0  0  0
  -23.8491  -10.5463   21.4122 C   0  0  0  0  0  0  0  0  0  0  0  0
  -24.1286  -12.9837   20.7134 C   0  0  0  0  0  0  0  0  0  0  0  0
  -17.9741  -29.4772   22.3342 C   0  0  0  0  0  0  0  0  0  0  0  0
  -25.5533  -28.3754   23.8241 C   0  0  0  0  0  0  0  0  0  0  0  0
  -19.0301  -28.8925   23.0590 C   0  0  0  0  0  0  0  0  0  0  0  0
  -26.0086  -27.9011   22.5857 C   0  0  0  0  0  0  0  0  0  0  0  0
  -31.5211  -19.3777   21.3596 C   0  0  0  0  0  0  0  0  0  0  0  0
  -22.3900   -8.3570   22.3399 C   0  0  0  0  0  0  0  0  0  0  0  0
  -27.4348  -26.3033   23.7359 C   0  0  0  0  0  0  0  0  0  0  0  0
  -20.8331   -7.4896   23.8716 C   0  0  0  0  0  0  0  0  0  0  0  0
  -19.1303   -7.8972   26.0434 C   0  0  0  0  0  0  0  0  0  0  0  0
  -21.0220   -6.7688   25.0508 C   0  0  0  0  0  0  0  0  0  0  0  0
  -24.6033  -11.6768   20.9336 C   0  0  0  0  0  0  0  0  0  0  0  0
  -25.2259  -13.6763   20.2632 C   0  0  0  0  0  0  0  0  0  0  0  0
  -30.3106  -19.7799   21.8797 C   0  0  0  0  0  0  0  0  0  0  0  0
  -30.3158  -17.3915   21.2920 C   0  0  0  0  0  0  0  0  0  0  0  0
  -22.8133  -13.5234   20.8993 C   0  0  0  0  0  0  0  0  0  0  0  0
  -22.6707  -28.5938   22.5025 C   0  0  0  0  0  0  0  0  0  0  0  0
  -24.2328  -30.4308   20.3328 C   0  0  0  0  0  0  0  0  0  0  0  0
  -27.1785  -31.2532   18.8184 C   0  0  0  0  0  0  0  0  0  0  0  0
  -30.6264  -14.9920   20.5904 C   0  0  0  0  0  0  0  0  0  0  0  0
  -17.9204  -29.4231   20.8279 C   0  0  0  0  0  0  0  0  0  0  0  0
  -24.5666  -29.5088   23.8897 C   0  0  0  0  0  0  0  0  0  0  0  0
  -25.5115  -28.4755   21.2851 C   0  0  0  0  0  0  0  0  0  0  0  0
  -19.2643  -29.0965   20.1818 C   0  0  0  0  0  0  0  0  0  0  0  0
  -29.7837  -12.0342   18.7964 C   0  0  0  0  0  0  0  0  0  0  0  0
  -19.9260  -27.9197   20.8918 C   0  0  0  0  0  0  0  0  0  0  0  0
  -28.3218  -11.7850   19.1744 C   0  0  0  0  0  0  0  0  0  0  0  0
  -30.2471  -23.1162   23.4722 C   0  0  0  0  0  0  0  0  0  0  0  0
  -30.5876  -12.5853   19.9727 C   0  0  0  0  0  0  0  0  0  0  0  0
  -30.7355  -21.6750   23.4048 C   0  0  0  0  0  0  0  0  0  0  0  0
  -28.5515  -13.5260   20.9919 C   0  0  0  0  0  0  0  0  0  0  0  0
  -20.2103  -28.2513   22.3617 C   0  0  1  0  0  0  0  0  0  0  0  0
  -23.7332  -29.6497   22.6196 C   0  0  1  0  0  0  0  0  0  0  0  0
  -27.6866  -13.0316   19.8209 C   0  0  2  0  0  0  0  0  0  0  0  0
  -28.7926  -23.0285   22.9858 C   0  0  1  0  0  0  0  0  0  0  0  0
  -28.9095  -21.9722   21.8040 C   0  0  0  0  0  0  0  0  0  0  0  0
  -27.9003  -22.5395   24.1538 C   0  0  0  0  0  0  0  0  0  0  0  0
  -29.3918  -22.6330   20.4941 C   0  0  0  0  0  0  0  0  0  0  0  0
  -27.5605  -21.2723   21.5685 C   0  0  0  0  0  0  0  0  0  0  0  0
  -28.1334  -32.7646   17.0574 C   0  0  0  0  0  0  0  0  0  0  0  0
  -33.5718  -19.8040   19.9601 C   0  0  0  0  0  0  0  0  0  0  0  0
  -33.6155  -20.2780   22.4319 C   0  0  0  0  0  0  0  0  0  0  0  0
  -32.3675  -21.7724   20.8857 C   0  0  0  0  0  0  0  0  0  0  0  0
  -23.0852  -28.6211   18.1607 C   0  0  0  0  0  0  0  0  0  0  0  0
  -24.7856  -29.5575   16.5796 C   0  0  0  0  0  0  0  0  0  0  0  0
  -23.0748  -31.0585   17.6009 C   0  0  0  0  0  0  0  0  0  0  0  0
  -28.9412  -32.6078   20.7721 C   0  0  0  0  0  0  0  0  0  0  0  0
  -28.2859  -24.4163   22.5651 C   0  0  0  0  0  0  0  0  0  1  0  0
  -24.9576  -30.1690   19.0346 C   0  0  1  0  0  0  0  0  0  0  0  0
  -27.8257  -32.5973   18.5373 C   0  0  2  0  0  0  0  0  0  0  0  0
  -32.6947  -20.2651   21.1689 C   0  0  0  0  0  0  0  0  0  0  0  0
  -23.9839  -29.8392   17.8683 C   0  0  0  0  0  0  0  0  0  0  0  0
  -25.9011  -11.5445   20.6468 N   0  0  0  0  0  0  0  0  0  0  0  0
  -26.2512  -12.7772   20.2417 N   0  0  0  0  0  0  0  0  0  0  0  0
  -29.9713  -21.0531   22.3112 N   0  0  3  0  0  0  0  0  0  0  0  0
  -24.5427  -29.5779   21.4016 N   0  0  0  0  0  0  0  0  0  0  0  0
  -29.9280  -13.7675   20.5316 N   0  0  0  0  0  0  0  0  0  0  0  0
  -25.4041  -14.9607   19.8876 N   0  0  0  0  0  0  0  0  0  0  0  0
  -21.8026  -12.6735   21.3688 N   0  0  0  0  0  0  0  0  0  0  0  0
  -29.8867  -16.0533   21.1110 N   0  0  0  0  0  0  0  0  0  0  0  0
  -21.3825  -29.0928   22.4725 N   0  0  0  0  0  0  0  0  0  0  0  0
  -25.8022  -31.3345   18.7965 N   0  0  0  0  0  0  0  0  0  0  0  0
  -29.0994  -32.7285   19.2999 N   0  3  0  0  0  0  0  0  0  0  0  0
  -22.5385  -14.7197   20.6406 O   0  0  0  0  0  0  0  0  0  0  0  0
  -22.9957  -27.4138   22.4422 O   0  0  0  0  0  0  0  0  0  0  0  0
  -23.4268  -31.3623   20.3981 O   0  0  0  0  0  0  0  0  0  0  0  0
  -27.8288  -30.2324   19.0320 O   0  0  0  0  0  0  0  0  0  0  0  0
  -31.7857  -15.0981   20.1819 O   0  0  0  0  0  0  0  0  0  0  0  0
  -21.6780   -7.2891   22.7929 O   0  0  0  0  0  0  0  0  0  0  0  0
  -28.3456  -25.2933   23.6892 O   0  0  0  0  0  0  0  0  0  1  0  0
  -18.3136   -8.0941   27.0867 F   0  0  0  0  0  0  0  0  0  0  0  0
  -22.0203   -5.8800   25.1467 F   0  0  0  0  0  0  0  0  0  0  0  0
  -29.1843  -18.4922   21.9558 S   0  0  0  0  0  0  0  0  0  0  0  0
  1  2  1  0  0  0  0
  1  5  2  0  0  0  0
  2  6  2  0  0  0  0
  3  8  2  0  0  0  0
  3 16  1  0  0  0  0
  4  9  1  0  0  0  0
  4 16  2  0  0  0  0
  5 18  1  0  0  0  0
  6 20  1  0  0  0  0
  7 10  2  0  0  0  0
  7 19  1  0  0  0  0
  8 23  1  0  0  0  0
  9 23  2  0  0  0  0
 10 24  1  0  0  0  0
 11 12  2  0  0  0  0
 11 25  1  0  0  0  0
 12 26  1  0  0  0  0
 13 21  1  0  0  0  0
 13 24  2  0  0  0  0
 14 22  1  0  0  0  0
 14 31  2  0  0  0  0
 15 26  2  0  0  0  0
 15 27  1  0  0  0  0
 16 28  1  0  0  0  0
 17 28  1  0  0  0  0
 17 29  2  0  0  0  0
 17 32  1  0  0  0  0
 18 20  2  0  0  0  0
 18 37  1  0  0  0  0
 19 21  2  0  0  0  0
 19 38  1  0  0  0  0
 20 48  1  0  0  0  0
 21 39  1  0  0  0  0
 22 30  2  0  0  0  0
 22 67  1  0  0  0  0
 23 85  1  0  0  0  0
 24 86  1  0  0  0  0
 25 27  2  0  0  0  0
 25 85  1  0  0  0  0
 26 87  1  0  0  0  0
 27 88  1  0  0  0  0
 28 69  2  0  0  0  0
 29 70  1  0  0  0  0
 29 74  1  0  0  0  0
 30 71  1  0  0  0  0
 30 89  1  0  0  0  0
 31 76  1  0  0  0  0
 31 89  1  0  0  0  0
 32 75  1  0  0  0  0
 32 80  2  0  0  0  0
 33 49  1  0  0  0  0
 33 77  1  0  0  0  0
 33 81  2  0  0  0  0
 34 65  1  0  0  0  0
 34 72  1  0  0  0  0
 34 82  2  0  0  0  0
 35 66  1  0  0  0  0
 35 78  1  0  0  0  0
 35 83  2  0  0  0  0
 36 73  1  0  0  0  0
 36 76  1  0  0  0  0
 36 84  2  0  0  0  0
 37 40  1  0  0  0  0
 38 49  1  0  0  0  0
 39 72  1  0  0  0  0
 40 42  1  0  0  0  0
 41 43  1  0  0  0  0
 41 45  1  0  0  0  0
 42 48  1  0  0  0  0
 43 50  1  0  0  0  0
 44 46  1  0  0  0  0
 44 51  1  0  0  0  0
 45 73  1  0  0  0  0
 46 71  1  0  0  0  0
 47 50  1  0  0  0  0
 47 73  1  0  0  0  0
 48 77  1  0  0  0  0
 49 72  1  0  0  0  0
 50 70  1  0  0  0  0
 51 52  1  0  0  0  0
 51 53  1  0  0  0  0
 51 64  1  0  0  0  0
 52 54  1  0  0  0  0
 52 55  1  0  0  0  0
 52 71  1  0  0  0  0
 56 66  1  0  0  0  0
 57 67  1  0  0  0  0
 58 67  1  0  0  0  0
 59 67  1  0  0  0  0
 60 68  1  0  0  0  0
 61 68  1  0  0  0  0
 62 68  1  0  0  0  0
 63 79  1  0  0  0  0
 64 86  1  0  0  0  0
 65 68  1  0  0  0  0
 65 78  1  0  0  0  0
 66 79  1  0  0  0  0
 69 70  1  0  0  0  0
M  CHG  1  79   1
M  ISO  4  36 100  64 101  76 100  86 101
M  END
> <Batch ID>
0150

> <Smiles>
CNC(C)C(=O)NC(C(=O)N1Cc2cc([101O:1][101CH2:1]C3(C)CCN(c4sc([100NH:0][100C:0](=O)N5CCCC(n6nc(-c7ccc(Oc8ccc(F)cc8F)cc7)c(C(N)=O)c6N)C5)cc4C(C)(C)C)C3(C)C)ccc2CC1C(=O)NC1CCCc2ccccc21)C(C)(C)C

> <Shape>
0.281

> <Color>
0.198

> <Negative vol penalty>
0.000

$$$$

  -OEChem-04052303213D

 87 96  0     1  0  0  0  0  0999 V2000
  -23.4202  -33.4500   28.0432 C   0  0  0  0  0  0  0  0  0  0  0  0
  -24.4397  -32.7153   27.4463 C   0  0  0  0  0  0  0  0  0  0  0  0
  -25.0453  -11.8337   21.0657 C   0  0  0  0  0  0  0  0  0  0  0  0
  -25.2312  -13.0949   23.1180 C   0  0  0  0  0  0  0  0  0  0  0  0
  -22.0889  -33.1627   27.7448 C   0  0  0  0  0  0  0  0  0  0  0  0
  -24.1284  -31.6922   26.5514 C   0  0  0  0  0  0  0  0  0  0  0  0
  -27.3133  -30.0490   21.5853 C   0  0  0  0  0  0  0  0  0  0  0  0
  -28.2578  -20.6438   23.2234 C   0  0  0  0  0  0  0  0  0  0  0  0
  -29.0074  -21.3701   24.1487 C   0  0  0  0  0  0  0  0  0  0  0  0
  -25.3813  -10.6669   21.7523 C   0  0  0  0  0  0  0  0  0  0  0  0
  -25.5671  -11.9281   23.8046 C   0  0  0  0  0  0  0  0  0  0  0  0
  -28.2374  -29.0300   21.3584 C   0  0  0  0  0  0  0  0  0  0  0  0
  -23.8465   -8.4433   23.7852 C   0  0  0  0  0  0  0  0  0  0  0  0
  -23.0891   -7.3001   23.5300 C   0  0  0  0  0  0  0  0  0  0  0  0
  -29.8455  -21.2102   21.4926 C   0  0  0  0  0  0  0  0  0  0  0  0
  -26.4780  -27.6415   20.4662 C   0  0  0  0  0  0  0  0  0  0  0  0
  -25.0772   -6.1506   22.7794 C   0  0  0  0  0  0  0  0  0  0  0  0
  -24.9703  -13.0477   21.7486 C   0  0  0  0  0  0  0  0  0  0  0  0
  -30.5951  -21.9366   22.4179 C   0  0  0  0  0  0  0  0  0  0  0  0
  -23.3336  -14.7779   20.8346 C   0  0  0  0  0  0  0  0  0  0  0  0
  -21.7614  -32.1420   26.8385 C   0  0  0  0  0  0  0  0  0  0  0  0
  -25.9605  -29.8676   21.2639 C   0  0  0  0  0  0  0  0  0  0  0  0
  -22.7914  -31.3902   26.2417 C   0  0  0  0  0  0  0  0  0  0  0  0
  -25.5393  -28.6607   20.6876 C   0  0  0  0  0  0  0  0  0  0  0  0
  -28.6769  -20.5637   21.8953 C   0  0  0  0  0  0  0  0  0  0  0  0
  -30.1760  -22.0165   23.7459 C   0  0  0  0  0  0  0  0  0  0  0  0
  -25.6422  -10.7141   23.1217 C   0  0  0  0  0  0  0  0  0  0  0  0
  -27.8193  -27.8250   20.8014 C   0  0  0  0  0  0  0  0  0  0  0  0
  -25.2192   -8.4402   23.5374 C   0  0  0  0  0  0  0  0  0  0  0  0
  -23.7045   -6.1538   23.0271 C   0  0  0  0  0  0  0  0  0  0  0  0
  -25.8345   -7.2939   23.0345 C   0  0  0  0  0  0  0  0  0  0  0  0
  -24.6238  -14.2534   21.0398 C   0  0  0  0  0  0  0  0  0  0  0  0
  -23.5411  -15.9267   20.1109 C   0  0  0  0  0  0  0  0  0  0  0  0
  -31.8253  -22.6116   21.9674 C   0  0  0  0  0  0  0  0  0  0  0  0
  -22.0614  -14.2720   21.2602 C   0  0  0  0  0  0  0  0  0  0  0  0
  -23.2459  -29.8425   22.9174 C   0  0  0  0  0  0  0  0  0  0  0  0
  -21.9076  -29.6228   19.9707 C   0  0  0  0  0  0  0  0  0  0  0  0
  -22.2451  -28.7272   16.6949 C   0  0  0  0  0  0  0  0  0  0  0  0
  -28.1897  -19.6462   19.6003 C   0  0  0  0  0  0  0  0  0  0  0  0
  -20.3065  -31.8368   26.5835 C   0  0  0  0  0  0  0  0  0  0  0  0
  -24.9809  -30.9864   21.4902 C   0  0  0  0  0  0  0  0  0  0  0  0
  -24.1018  -28.4233   20.3059 C   0  0  0  0  0  0  0  0  0  0  0  0
  -20.0720  -30.9848   25.3389 C   0  0  0  0  0  0  0  0  0  0  0  0
  -26.5823  -17.8725   16.9646 C   0  0  0  0  0  0  0  0  0  0  0  0
  -21.0403  -29.8065   25.3083 C   0  0  0  0  0  0  0  0  0  0  0  0
  -25.7754  -16.7947   17.6922 C   0  0  0  0  0  0  0  0  0  0  0  0
  -32.3933  -26.0371   20.9768 C   0  0  0  0  0  0  0  0  0  0  0  0
  -27.9240  -18.1338   17.6466 C   0  0  0  0  0  0  0  0  0  0  0  0
  -32.9280  -24.6094   21.0506 C   0  0  0  0  0  0  0  0  0  0  0  0
  -27.0360  -17.3569   19.8092 C   0  0  0  0  0  0  0  0  0  0  0  0
  -30.5005  -24.6221   21.4444 C   0  0  0  0  0  0  0  0  0  0  0  0
  -22.4946  -30.2890   25.2470 C   0  0  1  0  0  0  0  0  0  0  0  0
  -23.5378  -30.5040   21.6003 C   0  0  1  0  0  0  0  0  0  0  0  0
  -25.6486  -17.1051   19.1966 C   0  0  2  0  0  0  0  0  0  0  0  0
  -30.9125  -25.8542   20.6315 C   0  0  1  0  0  0  0  0  0  0  0  0
  -20.9669  -28.6301   14.5375 C   0  0  0  0  0  0  0  0  0  0  0  0
  -20.4096  -27.1603   20.9718 C   0  0  0  0  0  0  0  0  0  0  0  0
  -19.9230  -26.5729   18.5872 C   0  0  0  0  0  0  0  0  0  0  0  0
  -19.0488  -28.7022   19.5487 C   0  0  0  0  0  0  0  0  0  0  0  0
  -24.1293  -30.5788   15.3608 C   0  0  0  0  0  0  0  0  0  0  0  0
  -30.0753  -27.0855   20.9412 C   0  0  0  0  0  0  0  0  0  1  0  0
  -21.5191  -28.4873   19.0549 C   0  0  1  0  0  0  0  0  0  0  0  0
  -21.8980  -29.4574   15.4101 C   0  0  2  0  0  0  0  0  0  0  0  0
  -20.2519  -27.7341   19.5495 C   0  0  0  0  0  0  0  0  0  0  0  0
  -25.5801  -15.0070   20.4907 N   0  0  0  0  0  0  0  0  0  0  0  0
  -24.8904  -16.0167   19.9332 N   0  0  0  0  0  0  0  0  0  0  0  0
  -31.7581  -23.8527   21.5212 N   0  0  0  0  0  0  0  0  0  0  0  0
  -23.1809  -29.5452   20.5526 N   0  0  0  0  0  0  0  0  0  0  0  0
  -27.7251  -18.4249   19.0681 N   0  0  0  0  0  0  0  0  0  0  0  0
  -30.9212  -22.7479   24.6968 N   0  0  0  0  0  0  0  0  0  0  0  0
  -22.6992  -16.8584   19.6154 N   0  0  0  0  0  0  0  0  0  0  0  0
  -22.0286  -13.0792   21.9953 N   0  0  0  0  0  0  0  0  0  0  0  0
  -27.9149  -19.8262   20.9556 N   0  0  0  0  0  0  0  0  0  0  0  0
  -22.8297  -30.7148   23.9050 N   0  0  0  0  0  0  0  0  0  0  0  0
  -21.3886  -29.0646   17.7215 N   0  0  0  0  0  0  0  0  0  0  0  0
  -32.9839  -21.9610   22.0191 N   0  3  0  0  0  0  0  0  0  0  0  0
  -23.1342  -29.7515   14.6313 N   0  3  0  0  0  0  0  0  0  0  0  0
  -20.9842  -14.8517   20.9824 O   0  0  0  0  0  0  0  0  0  0  0  0
  -23.3863  -28.6302   23.0290 O   0  0  0  0  0  0  0  0  0  0  0  0
  -21.1136  -30.5482   20.1570 O   0  0  0  0  0  0  0  0  0  0  0  0
  -23.1800  -27.9337   16.7784 O   0  0  0  0  0  0  0  0  0  0  0  0
  -28.7633  -20.4834   18.8989 O   0  0  0  0  0  0  0  0  0  0  0  0
  -30.8034  -25.5601   19.2390 O   0  0  0  0  0  0  0  0  0  0  0  0
  -25.9698   -9.5757   23.7920 O   0  0  0  0  0  0  0  0  0  0  0  0
  -28.7191  -26.8284   20.5795 O   0  0  0  0  0  0  0  0  0  1  0  0
  -22.9773   -5.0555   22.7836 F   0  0  0  0  0  0  0  0  0  0  0  0
  -27.1531   -7.2845   22.7956 F   0  0  0  0  0  0  0  0  0  0  0  0
  1  2  1  0  0  0  0
  1  5  2  0  0  0  0
  2  6  2  0  0  0  0
  3 10  2  0  0  0  0
  3 18  1  0  0  0  0
  4 11  1  0  0  0  0
  4 18  2  0  0  0  0
  5 21  1  0  0  0  0
  6 23  1  0  0  0  0
  7 12  2  0  0  0  0
  7 22  1  0  0  0  0
  8  9  2  0  0  0  0
  8 25  1  0  0  0  0
  9 26  1  0  0  0  0
 10 27  1  0  0  0  0
 11 27  2  0  0  0  0
 12 28  1  0  0  0  0
 13 14  2  0  0  0  0
 13 29  1  0  0  0  0
 14 30  1  0  0  0  0
 15 19  1  0  0  0  0
 15 25  2  0  0  0  0
 16 24  1  0  0  0  0
 16 28  2  0  0  0  0
 17 30  2  0  0  0  0
 17 31  1  0  0  0  0
 18 32  1  0  0  0  0
 19 26  2  0  0  0  0
 19 34  1  0  0  0  0
 20 32  1  0  0  0  0
 20 33  2  0  0  0  0
 20 35  1  0  0  0  0
 21 23  2  0  0  0  0
 21 40  1  0  0  0  0
 22 24  2  0  0  0  0
 22 41  1  0  0  0  0
 23 52  1  0  0  0  0
 24 42  1  0  0  0  0
 25 73  1  0  0  0  0
 26 70  1  0  0  0  0
 27 84  1  0  0  0  0
 28 85  1  0  0  0  0
 29 31  2  0  0  0  0
 29 84  1  0  0  0  0
 30 86  1  0  0  0  0
 31 87  1  0  0  0  0
 32 65  2  0  0  0  0
 33 66  1  0  0  0  0
 33 71  1  0  0  0  0
 34 67  1  0  0  0  0
 34 76  2  0  0  0  0
 35 72  1  0  0  0  0
 35 78  2  0  0  0  0
 36 53  1  0  0  0  0
 36 74  1  0  0  0  0
 36 79  2  0  0  0  0
 37 62  1  0  0  0  0
 37 68  1  0  0  0  0
 37 80  2  0  0  0  0
 38 63  1  0  0  0  0
 38 75  1  0  0  0  0
 38 81  2  0  0  0  0
 39 69  1  0  0  0  0
 39 73  1  0  0  0  0
 39 82  2  0  0  0  0
 40 43  1  0  0  0  0
 41 53  1  0  0  0  0
 42 68  1  0  0  0  0
 43 45  1  0  0  0  0
 44 46  1  0  0  0  0
 44 48  1  0  0  0  0
 45 52  1  0  0  0  0
 46 54  1  0  0  0  0
 47 49  1  0  0  0  0
 47 55  1  0  0  0  0
 48 69  1  0  0  0  0
 49 67  1  0  0  0  0
 50 54  1  0  0  0  0
 50 69  1  0  0  0  0
 51 55  1  0  0  0  0
 51 67  1  0  0  0  0
 52 74  1  0  0  0  0
 53 68  1  0  0  0  0
 54 66  1  0  0  0  0
 55 61  1  0  0  0  0
 55 83  1  0  0  0  0
 56 63  1  0  0  0  0
 57 64  1  0  0  0  0
 58 64  1  0  0  0  0
 59 64  1  0  0  0  0
 60 77  1  0  0  0  0
 61 85  1  0  0  0  0
 62 64  1  0  0  0  0
 62 75  1  0  0  0  0
 63 77  1  0  0  0  0
 65 66  1  0  0  0  0
M  CHG  2  76   1  77   1
M  ISO  4  39 100  61 101  73 100  85 101
M  END
> <Batch ID>
0150

> <Smiles>
CNC(C)C(=O)NC(C(=O)N1Cc2cc([101O:1][101CH2:1]C3(O)CCN(C(=N)c4cc([100NH:0][100C:0](=O)N5CCCC(n6nc(-c7ccc(Oc8ccc(F)cc8F)cc7)c(C(N)=O)c6N)C5)ccc4N)C3)ccc2CC1C(=O)NC1CCCc2ccccc21)C(C)(C)C

> <Shape>
0.211

> <Color>
0.102

> <Negative vol penalty>
0.000

$$$$

  -OEChem-04052303213D

 89 98  0     1  0  0  0  0  0999 V2000
  -27.3530  -34.2177   25.2101 C   0  0  0  0  0  0  0  0  0  0  0  0
  -27.6518  -32.9792   24.6512 C   0  0  0  0  0  0  0  0  0  0  0  0
  -23.6842   -9.7301   22.6331 C   0  0  0  0  0  0  0  0  0  0  0  0
  -23.4326  -10.1765   20.2721 C   0  0  0  0  0  0  0  0  0  0  0  0
  -26.0595  -34.4865   25.6555 C   0  0  0  0  0  0  0  0  0  0  0  0
  -26.6572  -32.0083   24.5384 C   0  0  0  0  0  0  0  0  0  0  0  0
  -26.6723  -29.7282   20.0167 C   0  0  0  0  0  0  0  0  0  0  0  0
  -22.9054   -8.5808   22.4989 C   0  0  0  0  0  0  0  0  0  0  0  0
  -22.6538   -9.0271   20.1378 C   0  0  0  0  0  0  0  0  0  0  0  0
  -27.6418  -28.7499   19.8001 C   0  0  0  0  0  0  0  0  0  0  0  0
  -23.3132   -5.4101   21.3976 C   0  0  0  0  0  0  0  0  0  0  0  0
  -23.7620   -4.2463   22.0218 C   0  0  0  0  0  0  0  0  0  0  0  0
  -26.0036  -27.0363   20.2462 C   0  0  0  0  0  0  0  0  0  0  0  0
  -27.4877  -20.4650   19.7111 C   0  0  0  0  0  0  0  0  0  0  0  0
  -21.7343   -4.1675   23.3330 C   0  0  0  0  0  0  0  0  0  0  0  0
  -23.9478  -10.5280   21.5197 C   0  0  0  0  0  0  0  0  0  0  0  0
  -26.1499  -11.8157   21.5276 C   0  0  0  0  0  0  0  0  0  0  0  0
  -25.0463  -33.5218   25.5392 C   0  0  0  0  0  0  0  0  0  0  0  0
  -25.3617  -29.3675   20.3609 C   0  0  0  0  0  0  0  0  0  0  0  0
  -25.3492  -32.2640   24.9838 C   0  0  0  0  0  0  0  0  0  0  0  0
  -25.0188  -28.0118   20.4640 C   0  0  0  0  0  0  0  0  0  0  0  0
  -28.6285  -20.9507   19.0092 C   0  0  0  0  0  0  0  0  0  0  0  0
  -22.3902   -8.2293   21.2512 C   0  0  0  0  0  0  0  0  0  0  0  0
  -27.3083  -27.4038   19.9177 C   0  0  0  0  0  0  0  0  0  0  0  0
  -22.0749   -5.9527   21.7410 C   0  0  0  0  0  0  0  0  0  0  0  0
  -22.9726   -3.6250   22.9895 C   0  0  0  0  0  0  0  0  0  0  0  0
  -21.2854   -5.3314   22.7087 C   0  0  0  0  0  0  0  0  0  0  0  0
  -24.7518  -11.7157   21.6579 C   0  0  0  0  0  0  0  0  0  0  0  0
  -29.3510  -19.9320   18.4281 C   0  0  0  0  0  0  0  0  0  0  0  0
  -26.4213  -13.1438   21.7489 C   0  0  0  0  0  0  0  0  0  0  0  0
  -27.3816  -19.0933   19.6395 C   0  0  0  0  0  0  0  0  0  0  0  0
  -27.1169  -10.7990   21.2328 C   0  0  0  0  0  0  0  0  0  0  0  0
  -29.2037  -25.5341   17.1989 C   0  0  0  0  0  0  0  0  0  0  0  0
  -23.4835  -29.8711   22.8753 C   0  0  0  0  0  0  0  0  0  0  0  0
  -21.2562  -28.4285   21.0097 C   0  0  0  0  0  0  0  0  0  0  0  0
  -20.5768  -26.3179   18.4154 C   0  0  0  0  0  0  0  0  0  0  0  0
  -25.3059  -18.5411   20.9559 C   0  0  0  0  0  0  0  0  0  0  0  0
  -23.6743  -33.8415   26.0779 C   0  0  0  0  0  0  0  0  0  0  0  0
  -24.3210  -30.4341   20.5650 C   0  0  0  0  0  0  0  0  0  0  0  0
  -23.6209  -27.5716   20.8113 C   0  0  0  0  0  0  0  0  0  0  0  0
  -22.5878  -32.8921   25.5796 C   0  0  0  0  0  0  0  0  0  0  0  0
  -23.4670  -16.8620   23.5008 C   0  0  0  0  0  0  0  0  0  0  0  0
  -23.0528  -31.4435   25.6903 C   0  0  0  0  0  0  0  0  0  0  0  0
  -23.7524  -15.3817   23.2375 C   0  0  0  0  0  0  0  0  0  0  0  0
  -30.1251  -24.3181   19.2282 C   0  0  0  0  0  0  0  0  0  0  0  0
  -23.3461  -17.6561   22.2014 C   0  0  0  0  0  0  0  0  0  0  0  0
  -29.8277  -22.9692   19.8842 C   0  0  0  0  0  0  0  0  0  0  0  0
  -24.7619  -16.0278   21.0126 C   0  0  0  0  0  0  0  0  0  0  0  0
  -28.4958  -23.1831   17.8687 C   0  0  0  0  0  0  0  0  0  0  0  0
  -24.2916  -31.1938   24.8216 C   0  0  1  0  0  0  0  0  0  0  0  0
  -23.1438  -29.9655   21.4147 C   0  0  1  0  0  0  0  0  0  0  0  0
  -24.9565  -15.1992   22.2929 C   0  0  2  0  0  0  0  0  0  0  0  0
  -28.8983  -24.5851   18.3537 C   0  0  2  0  0  0  0  0  0  0  0  0
  -28.0623  -25.8664   16.2763 C   0  0  0  0  0  0  0  0  0  0  0  0
  -18.6611  -25.3055   17.1494 C   0  0  0  0  0  0  0  0  0  0  0  0
  -31.4731  -21.2319   18.0370 C   0  0  0  0  0  0  0  0  0  0  0  0
  -30.2742  -20.1682   16.0960 C   0  0  0  0  0  0  0  0  0  0  0  0
  -31.5435  -18.7680   17.7114 C   0  0  0  0  0  0  0  0  0  0  0  0
  -20.7521  -26.4998   23.3196 C   0  0  0  0  0  0  0  0  0  0  0  0
  -19.5769  -24.9865   21.7080 C   0  0  0  0  0  0  0  0  0  0  0  0
  -18.6883  -27.2769   22.1402 C   0  0  0  0  0  0  0  0  0  0  0  0
  -21.4388  -27.5734   15.8778 C   0  0  0  0  0  0  0  0  0  0  0  0
  -27.8039  -25.1924   19.1965 C   0  0  0  0  0  0  0  0  0  1  0  0
  -20.8071  -27.0043   20.7882 C   0  0  1  0  0  0  0  0  0  0  0  0
  -19.6522  -26.4568   17.2194 C   0  0  2  0  0  0  0  0  0  0  0  0
  -30.5896  -20.0106   17.6198 C   0  0  0  0  0  0  0  0  0  0  0  0
  -19.9830  -26.4499   21.9843 C   0  0  0  0  0  0  0  0  0  0  0  0
  -24.1751  -12.8869   21.9402 N   0  0  0  0  0  0  0  0  0  0  0  0
  -25.2161  -13.7355   21.9893 N   0  0  0  0  0  0  0  0  0  0  0  0
  -28.9649  -22.2860   18.9258 N   0  0  3  0  0  0  0  0  0  0  0  0
  -22.6403  -28.6521   21.0076 N   0  0  0  0  0  0  0  0  0  0  0  0
  -24.5242  -17.4379   21.3592 N   0  0  0  0  0  0  0  0  0  0  0  0
  -27.5708  -13.8516   21.7594 N   0  0  0  0  0  0  0  0  0  0  0  0
  -26.6670   -9.4867   21.0334 N   0  0  0  0  0  0  0  0  0  0  0  0
  -26.4190  -18.2079   20.1849 N   0  0  0  0  0  0  0  0  0  0  0  0
  -23.9149  -31.0606   23.4306 N   0  0  0  0  0  0  0  0  0  0  0  0
  -20.0939  -26.9944   19.5155 N   0  0  0  0  0  0  0  0  0  0  0  0
  -20.4404  -26.4760   15.9548 N   0  3  0  0  0  0  0  0  0  0  0  0
  -28.3453  -11.0438   21.1649 O   0  0  0  0  0  0  0  0  0  0  0  0
  -30.3272  -26.0060   17.0314 O   0  0  0  0  0  0  0  0  0  0  0  0
  -23.3616  -28.7988   23.4558 O   0  0  0  0  0  0  0  0  0  0  0  0
  -20.4098  -29.3112   21.1713 O   0  0  0  0  0  0  0  0  0  0  0  0
  -21.6209  -25.6705   18.3785 O   0  0  0  0  0  0  0  0  0  0  0  0
  -25.0249  -19.6938   21.2941 O   0  0  0  0  0  0  0  0  0  0  0  0
  -21.6303   -7.1077   21.1198 O   0  0  0  0  0  0  0  0  0  0  0  0
  -28.2528  -26.4469   19.7075 O   0  0  0  0  0  0  0  0  0  1  0  0
  -23.4031   -2.5065   23.5878 F   0  0  0  0  0  0  0  0  0  0  0  0
  -20.0944   -5.8473   23.0420 F   0  0  0  0  0  0  0  0  0  0  0  0
  -28.6540  -18.3971   18.7293 S   0  0  0  0  0  0  0  0  0  0  0  0
  1  2  1  0  0  0  0
  1  5  2  0  0  0  0
  2  6  2  0  0  0  0
  3  8  2  0  0  0  0
  3 16  1  0  0  0  0
  4  9  1  0  0  0  0
  4 16  2  0  0  0  0
  5 18  1  0  0  0  0
  6 20  1  0  0  0  0
  7 10  2  0  0  0  0
  7 19  1  0  0  0  0
  8 23  1  0  0  0  0
  9 23  2  0  0  0  0
 10 24  1  0  0  0  0
 11 12  2  0  0  0  0
 11 25  1  0  0  0  0
 12 26  1  0  0  0  0
 13 21  1  0  0  0  0
 13 24  2  0  0  0  0
 14 22  1  0  0  0  0
 14 31  2  0  0  0  0
 15 26  2  0  0  0  0
 15 27  1  0  0  0  0
 16 28  1  0  0  0  0
 17 28  1  0  0  0  0
 17 30  2  0  0  0  0
 17 32  1  0  0  0  0
 18 20  2  0  0  0  0
 18 38  1  0  0  0  0
 19 21  2  0  0  0  0
 19 39  1  0  0  0  0
 20 50  1  0  0  0  0
 21 40  1  0  0  0  0
 22 29  2  0  0  0  0
 22 70  1  0  0  0  0
 23 85  1  0  0  0  0
 24 86  1  0  0  0  0
 25 27  2  0  0  0  0
 25 85  1  0  0  0  0
 26 87  1  0  0  0  0
 27 88  1  0  0  0  0
 28 68  2  0  0  0  0
 29 66  1  0  0  0  0
 29 89  1  0  0  0  0
 30 69  1  0  0  0  0
 30 73  1  0  0  0  0
 31 75  1  0  0  0  0
 31 89  1  0  0  0  0
 32 74  1  0  0  0  0
 32 79  2  0  0  0  0
 33 53  1  0  0  0  0
 33 54  1  0  0  0  0
 33 80  2  0  0  0  0
 34 51  1  0  0  0  0
 34 76  1  0  0  0  0
 34 81  2  0  0  0  0
 35 64  1  0  0  0  0
 35 71  1  0  0  0  0
 35 82  2  0  0  0  0
 36 65  1  0  0  0  0
 36 77  1  0  0  0  0
 36 83  2  0  0  0  0
 37 72  1  0  0  0  0
 37 75  1  0  0  0  0
 37 84  2  0  0  0  0
 38 41  1  0  0  0  0
 39 51  1  0  0  0  0
 40 71  1  0  0  0  0
 41 43  1  0  0  0  0
 42 44  1  0  0  0  0
 42 46  1  0  0  0  0
 43 50  1  0  0  0  0
 44 52  1  0  0  0  0
 45 47  1  0  0  0  0
 45 53  1  0  0  0  0
 46 72  1  0  0  0  0
 47 70  1  0  0  0  0
 48 52  1  0  0  0  0
 48 72  1  0  0  0  0
 49 53  1  0  0  0  0
 49 70  1  0  0  0  0
 50 76  1  0  0  0  0
 51 71  1  0  0  0  0
 52 69  1  0  0  0  0
 53 63  1  0  0  0  0
 55 65  1  0  0  0  0
 56 66  1  0  0  0  0
 57 66  1  0  0  0  0
 58 66  1  0  0  0  0
 59 67  1  0  0  0  0
 60 67  1  0  0  0  0
 61 67  1  0  0  0  0
 62 78  1  0  0  0  0
 63 86  1  0  0  0  0
 64 67  1  0  0  0  0
 64 77  1  0  0  0  0
 65 78  1  0  0  0  0
 68 69  1  0  0  0  0
M  CHG  1  78   1
M  ISO  4  37 100  63 101  75 100  86 101
M  END
> <Batch ID>
0150

> <Smiles>
CNC(C)C(=O)NC(C(=O)N1Cc2cc([101O:1][101CH2:1]C3(C(C)=O)CCN(c4cc([100NH:0][100C:0](=O)N5CCCC(n6nc(-c7ccc(Oc8ccc(F)cc8F)cc7)c(C(N)=O)c6N)C5)sc4C(C)(C)C)C3)ccc2CC1C(=O)NC1CCCc2ccccc21)C(C)(C)C

> <Shape>
0.308

> <Color>
0.097

> <Negative vol penalty>
0.000

$$$$

  -OEChem-04052303213D

 85 94  0     1  0  0  0  0  0999 V2000
  -29.7064  -33.5601   25.4302 C   0  0  0  0  0  0  0  0  0  0  0  0
  -29.4238  -32.2824   24.9579 C   0  0  0  0  0  0  0  0  0  0  0  0
  -22.8147   -9.7270   20.0482 C   0  0  0  0  0  0  0  0  0  0  0  0
  -24.5280   -8.9497   21.5640 C   0  0  0  0  0  0  0  0  0  0  0  0
  -28.6656  -34.4446   25.7101 C   0  0  0  0  0  0  0  0  0  0  0  0
  -28.1001  -31.8881   24.7661 C   0  0  0  0  0  0  0  0  0  0  0  0
  -27.4095  -29.4754   20.3676 C   0  0  0  0  0  0  0  0  0  0  0  0
  -21.8406   -9.1086   20.8320 C   0  0  0  0  0  0  0  0  0  0  0  0
  -23.5539   -8.3314   22.3479 C   0  0  0  0  0  0  0  0  0  0  0  0
  -27.8086  -28.1411   20.3038 C   0  0  0  0  0  0  0  0  0  0  0  0
  -21.7153   -5.4954   22.2591 C   0  0  0  0  0  0  0  0  0  0  0  0
  -21.9664   -4.1958   22.6990 C   0  0  0  0  0  0  0  0  0  0  0  0
  -25.5198  -27.4476   20.6194 C   0  0  0  0  0  0  0  0  0  0  0  0
  -27.3294  -18.9821   19.5487 C   0  0  0  0  0  0  0  0  0  0  0  0
  -21.8064   -4.9410   24.9917 C   0  0  0  0  0  0  0  0  0  0  0  0
  -25.2608  -18.0793   18.9935 C   0  0  0  0  0  0  0  0  0  0  0  0
  -24.1584   -9.6475   20.4142 C   0  0  0  0  0  0  0  0  0  0  0  0
  -25.4559  -10.0294   18.2512 C   0  0  0  0  0  0  0  0  0  0  0  0
  -27.3289  -34.0643   25.5125 C   0  0  0  0  0  0  0  0  0  0  0  0
  -26.0618  -29.8063   20.5690 C   0  0  0  0  0  0  0  0  0  0  0  0
  -27.0404  -32.7680   25.0448 C   0  0  0  0  0  0  0  0  0  0  0  0
  -25.1058  -28.7869   20.6828 C   0  0  0  0  0  0  0  0  0  0  0  0
  -26.5309  -17.8060   19.4515 C   0  0  0  0  0  0  0  0  0  0  0  0
  -22.2102   -8.4108   21.9819 C   0  0  0  0  0  0  0  0  0  0  0  0
  -26.8641  -27.1269   20.4326 C   0  0  0  0  0  0  0  0  0  0  0  0
  -21.5099   -6.5179   23.1854 C   0  0  0  0  0  0  0  0  0  0  0  0
  -22.0119   -3.9186   24.0653 C   0  0  0  0  0  0  0  0  0  0  0  0
  -21.5554   -6.2406   24.5517 C   0  0  0  0  0  0  0  0  0  0  0  0
  -25.1651  -10.2856   19.6046 C   0  0  0  0  0  0  0  0  0  0  0  0
  -26.4843  -10.8893   17.9522 C   0  0  0  0  0  0  0  0  0  0  0  0
  -26.6391  -20.1096   19.1610 C   0  0  0  0  0  0  0  0  0  0  0  0
  -24.8504   -9.0975   17.3453 C   0  0  0  0  0  0  0  0  0  0  0  0
  -24.4457  -31.3571   22.8245 C   0  0  0  0  0  0  0  0  0  0  0  0
  -21.9680  -30.9722   20.7666 C   0  0  0  0  0  0  0  0  0  0  0  0
  -20.7019  -28.3555   18.6295 C   0  0  0  0  0  0  0  0  0  0  0  0
  -28.2277  -16.1231   20.2483 C   0  0  0  0  0  0  0  0  0  0  0  0
  -26.2359  -35.0387   25.8738 C   0  0  0  0  0  0  0  0  0  0  0  0
  -25.6437  -31.2506   20.6088 C   0  0  0  0  0  0  0  0  0  0  0  0
  -23.6436  -29.0895   20.8801 C   0  0  0  0  0  0  0  0  0  0  0  0
  -24.8748  -34.6721   25.2879 C   0  0  0  0  0  0  0  0  0  0  0  0
  -30.1801  -13.1573   19.9850 C   0  0  0  0  0  0  0  0  0  0  0  0
  -24.5803  -33.1916   25.5075 C   0  0  0  0  0  0  0  0  0  0  0  0
  -29.1426  -12.0619   19.7283 C   0  0  0  0  0  0  0  0  0  0  0  0
  -26.8040  -23.8102   18.6212 C   0  0  0  0  0  0  0  0  0  0  0  0
  -28.7160  -23.0695   20.0631 C   0  0  0  0  0  0  0  0  0  0  0  0
  -29.6580  -14.2173   20.9533 C   0  0  0  0  0  0  0  0  0  0  0  0
  -26.6044  -22.3674   18.1500 C   0  0  0  0  0  0  0  0  0  0  0  0
  -28.5145  -21.6308   19.5838 C   0  0  0  0  0  0  0  0  0  0  0  0
  -27.3281  -13.7149   20.3301 C   0  0  0  0  0  0  0  0  0  0  0  0
  -25.6183  -32.3118   24.8004 C   0  0  1  0  0  0  0  0  0  0  0  0
  -24.3181  -31.4693   21.3316 C   0  0  1  0  0  0  0  0  0  0  0  0
  -27.7845  -12.6588   19.3103 C   0  0  2  0  0  0  0  0  0  0  0  0
  -28.2537  -24.0986   19.0247 C   0  0  0  0  0  0  0  0  0  0  0  0
  -19.3539  -28.4837   16.5167 C   0  0  0  0  0  0  0  0  0  0  0  0
  -19.5667  -30.6549   22.6222 C   0  0  0  0  0  0  0  0  0  0  0  0
  -18.5039  -29.1999   20.8839 C   0  0  0  0  0  0  0  0  0  0  0  0
  -19.0247  -31.5835   20.3642 C   0  0  0  0  0  0  0  0  0  0  0  0
  -22.6836  -26.7480   17.1304 C   0  0  0  0  0  0  0  0  0  0  0  0
  -30.4337  -24.2485   18.1597 C   0  0  0  0  0  0  0  0  0  0  0  0
  -28.3903  -25.5215   19.5669 C   0  0  0  0  0  0  0  0  0  1  0  0
  -20.9141  -29.9136   20.5483 C   0  0  1  0  0  0  0  0  0  0  0  0
  -20.7437  -28.3212   17.1125 C   0  0  2  0  0  0  0  0  0  0  0  0
  -19.5280  -30.3315   21.1152 C   0  0  0  0  0  0  0  0  0  0  0  0
  -25.9459  -11.2339   20.1291 N   0  0  0  0  0  0  0  0  0  0  0  0
  -26.7374  -11.5811   19.1001 N   0  0  0  0  0  0  0  0  0  0  0  0
  -27.1314  -21.4206   19.1374 N   0  0  0  0  0  0  0  0  0  0  0  0
  -23.2853  -30.5169   20.9185 N   0  0  0  0  0  0  0  0  0  0  0  0
  -28.3708  -14.7405   20.4906 N   0  0  0  0  0  0  0  0  0  0  0  0
  -27.1879  -11.1135   16.8221 N   0  0  0  0  0  0  0  0  0  0  0  0
  -23.8060   -8.2903   17.8163 N   0  0  0  0  0  0  0  0  0  0  0  0
  -26.9691  -16.4993   19.7804 N   0  0  0  0  0  0  0  0  0  0  0  0
  -25.3438  -32.2478   23.3809 N   0  0  0  0  0  0  0  0  0  0  0  0
  -20.9130  -29.6277   19.1177 N   0  0  0  0  0  0  0  0  0  0  0  0
  -21.3096  -27.0264   16.6390 N   0  3  0  0  0  0  0  0  0  0  0  0
  -25.2355   -8.9724   16.1581 O   0  0  0  0  0  0  0  0  0  0  0  0
  -23.7777  -30.5251   23.4272 O   0  0  0  0  0  0  0  0  0  0  0  0
  -21.6356  -32.1599   20.7939 O   0  0  0  0  0  0  0  0  0  0  0  0
  -20.4983  -27.3545   19.3131 O   0  0  0  0  0  0  0  0  0  0  0  0
  -29.1619  -16.9114   20.4158 O   0  0  0  0  0  0  0  0  0  0  0  0
  -21.2600   -7.8075   22.7471 O   0  0  0  0  0  0  0  0  0  0  0  0
  -27.2511  -25.8237   20.3714 O   0  0  0  0  0  0  0  0  0  1  0  0
  -29.0720  -23.9923   17.8573 O   0  0  0  0  0  0  0  0  0  0  0  0
  -22.2515   -2.6702   24.4876 F   0  0  0  0  0  0  0  0  0  0  0  0
  -21.3576   -7.2185   25.4464 F   0  0  0  0  0  0  0  0  0  0  0  0
  -25.0351  -19.7481   18.6827 S   0  0  0  0  0  0  0  0  0  0  0  0
  1  2  1  0  0  0  0
  1  5  2  0  0  0  0
  2  6  2  0  0  0  0
  3  8  2  0  0  0  0
  3 17  1  0  0  0  0
  4  9  1  0  0  0  0
  4 17  2  0  0  0  0
  5 19  1  0  0  0  0
  6 21  1  0  0  0  0
  7 10  2  0  0  0  0
  7 20  1  0  0  0  0
  8 24  1  0  0  0  0
  9 24  2  0  0  0  0
 10 25  1  0  0  0  0
 11 12  2  0  0  0  0
 11 26  1  0  0  0  0
 12 27  1  0  0  0  0
 13 22  1  0  0  0  0
 13 25  2  0  0  0  0
 14 23  1  0  0  0  0
 14 31  2  0  0  0  0
 15 27  2  0  0  0  0
 15 28  1  0  0  0  0
 16 23  2  0  0  0  0
 16 85  1  0  0  0  0
 17 29  1  0  0  0  0
 18 29  1  0  0  0  0
 18 30  2  0  0  0  0
 18 32  1  0  0  0  0
 19 21  2  0  0  0  0
 19 37  1  0  0  0  0
 20 22  2  0  0  0  0
 20 38  1  0  0  0  0
 21 50  1  0  0  0  0
 22 39  1  0  0  0  0
 23 71  1  0  0  0  0
 24 80  1  0  0  0  0
 25 81  1  0  0  0  0
 26 28  2  0  0  0  0
 26 80  1  0  0  0  0
 27 83  1  0  0  0  0
 28 84  1  0  0  0  0
 29 64  2  0  0  0  0
 30 65  1  0  0  0  0
 30 69  1  0  0  0  0
 31 66  1  0  0  0  0
 31 85  1  0  0  0  0
 32 70  1  0  0  0  0
 32 75  2  0  0  0  0
 33 51  1  0  0  0  0
 33 72  1  0  0  0  0
 33 76  2  0  0  0  0
 34 61  1  0  0  0  0
 34 67  1  0  0  0  0
 34 77  2  0  0  0  0
 35 62  1  0  0  0  0
 35 73  1  0  0  0  0
 35 78  2  0  0  0  0
 36 68  1  0  0  0  0
 36 71  1  0  0  0  0
 36 79  2  0  0  0  0
 37 40  1  0  0  0  0
 38 51  1  0  0  0  0
 39 67  1  0  0  0  0
 40 42  1  0  0  0  0
 41 43  1  0  0  0  0
 41 46  1  0  0  0  0
 42 50  1  0  0  0  0
 43 52  1  0  0  0  0
 44 47  1  0  0  0  0
 44 53  1  0  0  0  0
 45 48  1  0  0  0  0
 45 53  1  0  0  0  0
 46 68  1  0  0  0  0
 47 66  1  0  0  0  0
 48 66  1  0  0  0  0
 49 52  1  0  0  0  0
 49 68  1  0  0  0  0
 50 72  1  0  0  0  0
 51 67  1  0  0  0  0
 52 65  1  0  0  0  0
 53 60  1  0  0  0  0
 53 82  1  0  0  0  0
 54 62  1  0  0  0  0
 55 63  1  0  0  0  0
 56 63  1  0  0  0  0
 57 63  1  0  0  0  0
 58 74  1  0  0  0  0
 59 82  1  0  0  0  0
 60 81  1  0  0  0  0
 61 63  1  0  0  0  0
 61 73  1  0  0  0  0
 62 74  1  0  0  0  0
 64 65  1  0  0  0  0
M  CHG  1  74   1
M  ISO  4  36 100  60 101  71 100  81 101
M  END
> <Batch ID>
0150

> <Smiles>
CNC(C)C(=O)NC(C(=O)N1Cc2cc([101O:1][101CH2:1]C3(OC)CCN(c4cc([100NH:0][100C:0](=O)N5CCCC(n6nc(-c7ccc(Oc8ccc(F)cc8F)cc7)c(C(N)=O)c6N)C5)cs4)CC3)ccc2CC1C(=O)NC1CCCc2ccccc21)C(C)(C)C

> <Shape>
0.314

> <Color>
0.104

> <Negative vol penalty>
0.000

$$$$

  -OEChem-04052303213D

 85 94  0     1  0  0  0  0  0999 V2000
  -18.8630  -24.0835   24.3949 C   0  0  0  0  0  0  0  0  0  0  0  0
  -20.1952  -24.0454   23.9958 C   0  0  0  0  0  0  0  0  0  0  0  0
  -23.1496   -9.8027   21.0251 C   0  0  0  0  0  0  0  0  0  0  0  0
  -23.8079  -10.5443   23.2282 C   0  0  0  0  0  0  0  0  0  0  0  0
  -18.1039  -25.2325   24.1772 C   0  0  0  0  0  0  0  0  0  0  0  0
  -20.7687  -25.1560   23.3778 C   0  0  0  0  0  0  0  0  0  0  0  0
  -25.3668  -26.2367   25.2039 C   0  0  0  0  0  0  0  0  0  0  0  0
  -22.4223   -8.7574   21.5942 C   0  0  0  0  0  0  0  0  0  0  0  0
  -23.0805   -9.4990   23.7974 C   0  0  0  0  0  0  0  0  0  0  0  0
  -26.4291  -25.4503   24.7602 C   0  0  0  0  0  0  0  0  0  0  0  0
  -23.0575   -5.7134   22.9189 C   0  0  0  0  0  0  0  0  0  0  0  0
  -23.1891   -4.4473   22.3484 C   0  0  0  0  0  0  0  0  0  0  0  0
  -31.6358  -19.3656   20.8647 C   0  0  0  0  0  0  0  0  0  0  0  0
  -31.6056  -17.9617   20.6236 C   0  0  0  0  0  0  0  0  0  0  0  0
  -27.0490  -27.1801   23.1973 C   0  0  0  0  0  0  0  0  0  0  0  0
  -20.8191   -4.4118   21.8805 C   0  0  0  0  0  0  0  0  0  0  0  0
  -23.8425  -10.6961   21.8421 C   0  0  0  0  0  0  0  0  0  0  0  0
  -24.1311  -13.0713   20.9573 C   0  0  0  0  0  0  0  0  0  0  0  0
  -18.6711  -26.3612   23.5650 C   0  0  0  0  0  0  0  0  0  0  0  0
  -25.1307  -27.4983   24.6391 C   0  0  0  0  0  0  0  0  0  0  0  0
  -20.0161  -26.3208   23.1506 C   0  0  0  0  0  0  0  0  0  0  0  0
  -25.9846  -27.9817   23.6374 C   0  0  0  0  0  0  0  0  0  0  0  0
  -22.3876   -8.6056   22.9804 C   0  0  0  0  0  0  0  0  0  0  0  0
  -27.2687  -25.9207   23.7548 C   0  0  0  0  0  0  0  0  0  0  0  0
  -21.8067   -6.3286   22.9702 C   0  0  0  0  0  0  0  0  0  0  0  0
  -22.0700   -3.7965   21.8292 C   0  0  0  0  0  0  0  0  0  0  0  0
  -20.6875   -5.6778   22.4510 C   0  0  0  0  0  0  0  0  0  0  0  0
  -24.5945  -11.7757   21.2547 C   0  0  0  0  0  0  0  0  0  0  0  0
  -25.2205  -13.7102   20.4176 C   0  0  0  0  0  0  0  0  0  0  0  0
  -30.4523  -19.8244   21.3998 C   0  0  0  0  0  0  0  0  0  0  0  0
  -30.4000  -17.4008   20.9840 C   0  0  0  0  0  0  0  0  0  0  0  0
  -22.8319  -13.6458   21.1515 C   0  0  0  0  0  0  0  0  0  0  0  0
  -28.4026  -23.6047   20.9429 C   0  0  0  0  0  0  0  0  0  0  0  0
  -22.7375  -28.8164   23.0146 C   0  0  0  0  0  0  0  0  0  0  0  0
  -24.5290  -31.5039   23.3158 C   0  0  0  0  0  0  0  0  0  0  0  0
  -27.6092  -32.8944   23.7907 C   0  0  0  0  0  0  0  0  0  0  0  0
  -30.6484  -14.9517   20.4486 C   0  0  0  0  0  0  0  0  0  0  0  0
  -17.7977  -27.5637   23.3081 C   0  0  0  0  0  0  0  0  0  0  0  0
  -23.9966  -28.3456   25.1475 C   0  0  0  0  0  0  0  0  0  0  0  0
  -25.7863  -29.3376   23.0126 C   0  0  0  0  0  0  0  0  0  0  0  0
  -18.5853  -28.8308   22.9855 C   0  0  0  0  0  0  0  0  0  0  0  0
  -29.6946  -11.8868   18.9078 C   0  0  0  0  0  0  0  0  0  0  0  0
  -19.6737  -28.5359   21.9582 C   0  0  0  0  0  0  0  0  0  0  0  0
  -28.2446  -11.6912   19.3565 C   0  0  0  0  0  0  0  0  0  0  0  0
  -30.4328  -23.3910   22.3517 C   0  0  0  0  0  0  0  0  0  0  0  0
  -30.5507  -12.5076   20.0103 C   0  0  0  0  0  0  0  0  0  0  0  0
  -31.0905  -22.2398   21.5900 C   0  0  0  0  0  0  0  0  0  0  0  0
  -28.5689  -13.5550   21.0323 C   0  0  0  0  0  0  0  0  0  0  0  0
  -28.8767  -21.5560   22.3059 C   0  0  0  0  0  0  0  0  0  0  0  0
  -20.6809  -27.5142   22.4995 C   0  0  1  0  0  0  0  0  0  0  0  0
  -23.5410  -29.3992   24.1427 C   0  0  1  0  0  0  0  0  0  0  0  0
  -27.6528  -12.9923   19.9332 C   0  0  2  0  0  0  0  0  0  0  0  0
  -28.9354  -23.0913   22.2580 C   0  0  2  0  0  0  0  0  0  0  0  0
  -26.9356  -23.3969   20.6797 C   0  0  0  0  0  0  0  0  0  0  0  0
  -28.7637  -35.1167   23.9516 C   0  0  0  0  0  0  0  0  0  0  0  0
  -24.3414  -31.8179   20.2866 C   0  0  0  0  0  0  0  0  0  0  0  0
  -26.2433  -33.4416   20.4071 C   0  0  0  0  0  0  0  0  0  0  0  0
  -24.0973  -33.9484   21.5734 C   0  0  0  0  0  0  0  0  0  0  0  0
  -28.5131  -32.3551   26.5567 C   0  0  0  0  0  0  0  0  0  0  0  0
  -28.1415  -23.7391   23.3881 C   0  0  0  0  0  0  0  0  0  1  0  0
  -25.6205  -32.1577   22.5034 C   0  0  1  0  0  0  0  0  0  0  0  0
  -28.0849  -33.9949   24.7219 C   0  0  2  0  0  0  0  0  0  0  0  0
  -25.0785  -32.8150   21.2028 C   0  0  0  0  0  0  0  0  0  0  0  0
  -25.8784  -11.6003   20.9307 N   0  0  0  0  0  0  0  0  0  0  0  0
  -26.2309  -12.7941   20.4240 N   0  0  0  0  0  0  0  0  0  0  0  0
  -30.1593  -21.1272   21.7461 N   0  0  3  0  0  0  0  0  0  0  0  0
  -24.6598  -30.1259   23.5391 N   0  0  0  0  0  0  0  0  0  0  0  0
  -29.9302  -13.7385   20.5052 N   0  0  0  0  0  0  0  0  0  0  0  0
  -25.4033  -14.9607   19.9429 N   0  0  0  0  0  0  0  0  0  0  0  0
  -21.8274  -12.8499   21.7188 N   0  0  0  0  0  0  0  0  0  0  0  0
  -29.9446  -16.0606   20.9172 N   0  0  0  0  0  0  0  0  0  0  0  0
  -21.5983  -28.1486   23.4216 N   0  0  0  0  0  0  0  0  0  0  0  0
  -26.2996  -33.0841   23.4029 N   0  0  0  0  0  0  0  0  0  0  0  0
  -29.0557  -33.4509   25.7131 N   0  3  0  0  0  0  0  0  0  0  0  0
  -22.5651  -14.8248   20.8165 O   0  0  0  0  0  0  0  0  0  0  0  0
  -29.1312  -24.1673   20.1271 O   0  0  0  0  0  0  0  0  0  0  0  0
  -23.1219  -28.9631   21.8603 O   0  0  0  0  0  0  0  0  0  0  0  0
  -23.5983  -32.1918   23.7428 O   0  0  0  0  0  0  0  0  0  0  0  0
  -28.3286  -31.9620   23.4392 O   0  0  0  0  0  0  0  0  0  0  0  0
  -31.7927  -15.0077   19.9910 O   0  0  0  0  0  0  0  0  0  0  0  0
  -21.6778   -7.5859   23.5361 O   0  0  0  0  0  0  0  0  0  0  0  0
  -28.3059  -25.1549   23.3194 O   0  0  0  0  0  0  0  0  0  1  0  0
  -22.1968   -2.5814   21.2801 F   0  0  0  0  0  0  0  0  0  0  0  0
  -19.4834   -6.2644   22.4963 F   0  0  0  0  0  0  0  0  0  0  0  0
  -29.3112  -18.5649   21.6097 S   0  0  0  0  0  0  0  0  0  0  0  0
  1  2  1  0  0  0  0
  1  5  2  0  0  0  0
  2  6  2  0  0  0  0
  3  8  2  0  0  0  0
  3 17  1  0  0  0  0
  4  9  1  0  0  0  0
  4 17  2  0  0  0  0
  5 19  1  0  0  0  0
  6 21  1  0  0  0  0
  7 10  2  0  0  0  0
  7 20  1  0  0  0  0
  8 23  1  0  0  0  0
  9 23  2  0  0  0  0
 10 24  1  0  0  0  0
 11 12  2  0  0  0  0
 11 25  1  0  0  0  0
 12 26  1  0  0  0  0
 13 14  1  0  0  0  0
 13 30  2  0  0  0  0
 14 31  2  0  0  0  0
 15 22  1  0  0  0  0
 15 24  2  0  0  0  0
 16 26  2  0  0  0  0
 16 27  1  0  0  0  0
 17 28  1  0  0  0  0
 18 28  1  0  0  0  0
 18 29  2  0  0  0  0
 18 32  1  0  0  0  0
 19 21  2  0  0  0  0
 19 38  1  0  0  0  0
 20 22  2  0  0  0  0
 20 39  1  0  0  0  0
 21 50  1  0  0  0  0
 22 40  1  0  0  0  0
 23 81  1  0  0  0  0
 24 82  1  0  0  0  0
 25 27  2  0  0  0  0
 25 81  1  0  0  0  0
 26 83  1  0  0  0  0
 27 84  1  0  0  0  0
 28 64  2  0  0  0  0
 29 65  1  0  0  0  0
 29 69  1  0  0  0  0
 30 66  1  0  0  0  0
 30 85  1  0  0  0  0
 31 71  1  0  0  0  0
 31 85  1  0  0  0  0
 32 70  1  0  0  0  0
 32 75  2  0  0  0  0
 33 53  1  0  0  0  0
 33 54  1  0  0  0  0
 33 76  2  0  0  0  0
 34 51  1  0  0  0  0
 34 72  1  0  0  0  0
 34 77  2  0  0  0  0
 35 61  1  0  0  0  0
 35 67  1  0  0  0  0
 35 78  2  0  0  0  0
 36 62  1  0  0  0  0
 36 73  1  0  0  0  0
 36 79  2  0  0  0  0
 37 68  1  0  0  0  0
 37 71  1  0  0  0  0
 37 80  2  0  0  0  0
 38 41  1  0  0  0  0
 39 51  1  0  0  0  0
 40 67  1  0  0  0  0
 41 43  1  0  0  0  0
 42 44  1  0  0  0  0
 42 46  1  0  0  0  0
 43 50  1  0  0  0  0
 44 52  1  0  0  0  0
 45 47  1  0  0  0  0
 45 53  1  0  0  0  0
 46 68  1  0  0  0  0
 47 66  1  0  0  0  0
 48 52  1  0  0  0  0
 48 68  1  0  0  0  0
 49 53  1  0  0  0  0
 49 66  1  0  0  0  0
 50 72  1  0  0  0  0
 51 67  1  0  0  0  0
 52 65  1  0  0  0  0
 53 60  1  0  0  0  0
 55 62  1  0  0  0  0
 56 63  1  0  0  0  0
 57 63  1  0  0  0  0
 58 63  1  0  0  0  0
 59 74  1  0  0  0  0
 60 82  1  0  0  0  0
 61 63  1  0  0  0  0
 61 73  1  0  0  0  0
 62 74  1  0  0  0  0
 64 65  1  0  0  0  0
M  CHG  1  74   1
M  ISO  4  37 100  60 101  71 100  82 101
M  END
> <Batch ID>
0150

> <Smiles>
CNC(C)C(=O)NC(C(=O)N1Cc2cc([101O:1][101CH2:1]C3(C(C)=O)CCN(c4ccc([100NH:0][100C:0](=O)N5CCCC(n6nc(-c7ccc(Oc8ccc(F)cc8F)cc7)c(C(N)=O)c6N)C5)s4)C3)ccc2CC1C(=O)NC1CCCc2ccccc21)C(C)(C)C

> <Shape>
0.313

> <Color>
0.206

> <Negative vol penalty>
0.000

$$$$

  -OEChem-04052303213D

 87 96  0     1  0  0  0  0  0999 V2000
  -24.7475  -19.0578   16.8918 C   0  0  0  0  0  0  0  0  0  0  0  0
  -24.1424  -20.2473   17.2844 C   0  0  0  0  0  0  0  0  0  0  0  0
  -29.1336  -17.3845   19.0716 C   0  0  0  0  0  0  0  0  0  0  0  0
  -29.9054  -17.9623   21.2869 C   0  0  0  0  0  0  0  0  0  0  0  0
  -24.0761  -17.8473   17.0586 C   0  0  0  0  0  0  0  0  0  0  0  0
  -22.8649  -20.2272   17.8431 C   0  0  0  0  0  0  0  0  0  0  0  0
  -22.4864  -23.2108   22.0201 C   0  0  0  0  0  0  0  0  0  0  0  0
  -25.0211  -27.8178   22.6166 C   0  0  0  0  0  0  0  0  0  0  0  0
  -26.0948  -26.9525   22.3820 C   0  0  0  0  0  0  0  0  0  0  0  0
  -29.7660  -16.1455   19.1743 C   0  0  0  0  0  0  0  0  0  0  0  0
  -30.5377  -16.7232   21.3897 C   0  0  0  0  0  0  0  0  0  0  0  0
  -22.3636  -24.5880   21.8415 C   0  0  0  0  0  0  0  0  0  0  0  0
  -29.1727  -13.1607   20.6481 C   0  0  0  0  0  0  0  0  0  0  0  0
  -28.4602  -12.0334   20.2396 C   0  0  0  0  0  0  0  0  0  0  0  0
  -26.7890  -28.3121   20.5238 C   0  0  0  0  0  0  0  0  0  0  0  0
  -19.9756  -24.4062   22.1286 C   0  0  0  0  0  0  0  0  0  0  0  0
  -30.1589  -11.5578   18.5888 C   0  0  0  0  0  0  0  0  0  0  0  0
  -29.2033  -18.2929   20.1278 C   0  0  0  0  0  0  0  0  0  0  0  0
  -25.7135  -29.1791   20.7642 C   0  0  0  0  0  0  0  0  0  0  0  0
  -27.2318  -19.8888   20.3994 C   0  0  0  0  0  0  0  0  0  0  0  0
  -22.7937  -17.8113   17.6286 C   0  0  0  0  0  0  0  0  0  0  0  0
  -21.3518  -22.4176   22.2444 C   0  0  0  0  0  0  0  0  0  0  0  0
  -22.1752  -19.0152   18.0165 C   0  0  0  0  0  0  0  0  0  0  0  0
  -20.0873  -23.0199   22.3145 C   0  0  0  0  0  0  0  0  0  0  0  0
  -24.8073  -28.9598   21.8237 C   0  0  0  0  0  0  0  0  0  0  0  0
  -26.9793  -27.2014   21.3392 C   0  0  0  0  0  0  0  0  0  0  0  0
  -30.4680  -15.8149   20.3334 C   0  0  0  0  0  0  0  0  0  0  0  0
  -21.1078  -25.1856   21.8935 C   0  0  0  0  0  0  0  0  0  0  0  0
  -30.3784  -13.4867   20.0269 C   0  0  0  0  0  0  0  0  0  0  0  0
  -28.9533  -11.2319   19.2100 C   0  0  0  0  0  0  0  0  0  0  0  0
  -30.8715  -12.6852   18.9973 C   0  0  0  0  0  0  0  0  0  0  0  0
  -28.5508  -19.5732   20.0220 C   0  0  0  0  0  0  0  0  0  0  0  0
  -27.0984  -21.2224   20.0990 C   0  0  0  0  0  0  0  0  0  0  0  0
  -25.4988  -30.3193   19.8394 C   0  0  0  0  0  0  0  0  0  0  0  0
  -26.2177  -19.0514   20.9706 C   0  0  0  0  0  0  0  0  0  0  0  0
  -19.9101  -19.9653   20.7769 C   0  0  0  0  0  0  0  0  0  0  0  0
  -18.0362  -20.1020   23.5197 C   0  0  0  0  0  0  0  0  0  0  0  0
  -16.4865  -17.5639   22.4897 C   0  0  0  0  0  0  0  0  0  0  0  0
  -29.0470  -26.4383   20.1189 C   0  0  0  0  0  0  0  0  0  0  0  0
  -22.0882  -16.4835   17.7453 C   0  0  0  0  0  0  0  0  0  0  0  0
  -21.5093  -20.9374   22.4647 C   0  0  0  0  0  0  0  0  0  0  0  0
  -18.8400  -22.2134   22.5563 C   0  0  0  0  0  0  0  0  0  0  0  0
  -20.8895  -16.5116   18.6901 C   0  0  0  0  0  0  0  0  0  0  0  0
  -30.1076  -24.3212   17.4600 C   0  0  0  0  0  0  0  0  0  0  0  0
  -20.0197  -17.7336   18.4126 C   0  0  0  0  0  0  0  0  0  0  0  0
  -29.6886  -22.9232   17.9205 C   0  0  0  0  0  0  0  0  0  0  0  0
  -30.5871  -25.1827   18.6268 C   0  0  0  0  0  0  0  0  0  0  0  0
  -29.2345  -23.8750   20.2173 C   0  0  0  0  0  0  0  0  0  0  0  0
  -23.9087  -31.1923   21.5319 C   0  0  0  0  0  0  0  0  0  0  0  0
  -20.8006  -19.0319   18.6493 C   0  0  1  0  0  0  0  0  0  0  0  0
  -20.2234  -20.1460   22.2351 C   0  0  1  0  0  0  0  0  0  0  0  0
  -28.6827  -22.9918   19.0863 C   0  0  2  0  0  0  0  0  0  0  0  0
  -14.1302  -17.8272   23.3117 C   0  0  0  0  0  0  0  0  0  0  0  0
  -20.3393  -19.1662   25.2877 C   0  0  0  0  0  0  0  0  0  0  0  0
  -19.2326  -16.9245   25.4214 C   0  0  0  0  0  0  0  0  0  0  0  0
  -18.0728  -18.9416   26.3208 C   0  0  0  0  0  0  0  0  0  0  0  0
  -20.6417  -28.5357   23.8188 C   0  0  0  0  0  0  0  0  0  0  0  0
  -20.8184  -29.4082   21.4829 C   0  0  0  0  0  0  0  0  0  0  0  0
  -16.1805  -14.6488   22.8991 C   0  0  0  0  0  0  0  0  0  0  0  0
  -22.7720  -29.6162   23.0909 C   0  0  0  0  0  0  0  0  0  0  0  0
  -22.0836  -27.3410   22.1345 C   0  0  0  0  0  0  0  0  0  1  0  0
  -18.2812  -18.6442   23.8187 C   0  0  1  0  0  0  0  0  0  0  0  0
  -15.1296  -16.8997   22.6382 C   0  0  2  0  0  0  0  0  0  0  0  0
  -18.9882  -18.4305   25.1869 C   0  0  0  0  0  0  0  0  0  0  0  0
  -21.5970  -28.7242   22.6219 C   0  0  0  0  0  0  0  0  0  0  0  0
  -29.2084  -20.6218   19.5200 N   0  0  0  0  0  0  0  0  0  0  0  0
  -28.2988  -21.6093   19.5798 N   0  0  0  0  0  0  0  0  0  0  0  0
  -24.5135  -31.2058   20.2191 N   0  0  0  0  0  0  0  0  0  0  0  0
  -23.7448  -29.8373   22.0326 N   0  0  2  0  0  0  0  0  0  0  0  0
  -19.0550  -20.7902   22.8486 N   0  0  0  0  0  0  0  0  0  0  0  0
  -29.5815  -25.2046   19.6913 N   0  0  0  0  0  0  0  0  0  0  0  0
  -26.0727  -22.0900   20.2308 N   0  0  0  0  0  0  0  0  0  0  0  0
  -26.5222  -17.7053   21.2148 N   0  0  0  0  0  0  0  0  0  0  0  0
  -28.0751  -26.3320   21.1133 N   0  0  0  0  0  0  0  0  0  0  0  0
  -20.8984  -19.3118   20.0658 N   0  0  0  0  0  0  0  0  0  0  0  0
  -16.9867  -17.9810   23.7050 N   0  0  0  0  0  0  0  0  0  0  0  0
  -15.2465  -15.6603   23.4574 N   0  3  0  0  0  0  0  0  0  0  0  0
  -26.1449  -30.4265   18.8025 O   0  0  0  0  0  0  0  0  0  0  0  0
  -25.0702  -19.4801   21.2408 O   0  0  0  0  0  0  0  0  0  0  0  0
  -18.8495  -20.3863   20.3301 O   0  0  0  0  0  0  0  0  0  0  0  0
  -16.9749  -20.6207   23.8771 O   0  0  0  0  0  0  0  0  0  0  0  0
  -17.0483  -17.6960   21.4045 O   0  0  0  0  0  0  0  0  0  0  0  0
  -29.4039  -27.5083   19.6193 O   0  0  0  0  0  0  0  0  0  0  0  0
  -31.0850  -14.6058   20.4341 O   0  0  0  0  0  0  0  0  0  0  0  0
  -20.9852  -26.5298   21.7201 O   0  0  0  0  0  0  0  0  0  1  0  0
  -28.2697  -10.1484   18.8188 F   0  0  0  0  0  0  0  0  0  0  0  0
  -32.0298  -12.9927   18.3975 F   0  0  0  0  0  0  0  0  0  0  0  0
  1  2  1  0  0  0  0
  1  5  2  0  0  0  0
  2  6  2  0  0  0  0
  3 10  2  0  0  0  0
  3 18  1  0  0  0  0
  4 11  1  0  0  0  0
  4 18  2  0  0  0  0
  5 21  1  0  0  0  0
  6 23  1  0  0  0  0
  7 12  2  0  0  0  0
  7 22  1  0  0  0  0
  8  9  2  0  0  0  0
  8 25  1  0  0  0  0
  9 26  1  0  0  0  0
 10 27  1  0  0  0  0
 11 27  2  0  0  0  0
 12 28  1  0  0  0  0
 13 14  2  0  0  0  0
 13 29  1  0  0  0  0
 14 30  1  0  0  0  0
 15 19  1  0  0  0  0
 15 26  2  0  0  0  0
 16 24  1  0  0  0  0
 16 28  2  0  0  0  0
 17 30  2  0  0  0  0
 17 31  1  0  0  0  0
 18 32  1  0  0  0  0
 19 25  2  0  0  0  0
 19 34  1  0  0  0  0
 20 32  1  0  0  0  0
 20 33  2  0  0  0  0
 20 35  1  0  0  0  0
 21 23  2  0  0  0  0
 21 40  1  0  0  0  0
 22 24  2  0  0  0  0
 22 41  1  0  0  0  0
 23 50  1  0  0  0  0
 24 42  1  0  0  0  0
 25 69  1  0  0  0  0
 26 74  1  0  0  0  0
 27 84  1  0  0  0  0
 28 85  1  0  0  0  0
 29 31  2  0  0  0  0
 29 84  1  0  0  0  0
 30 86  1  0  0  0  0
 31 87  1  0  0  0  0
 32 66  2  0  0  0  0
 33 67  1  0  0  0  0
 33 72  1  0  0  0  0
 34 68  1  0  0  0  0
 34 78  2  0  0  0  0
 35 73  1  0  0  0  0
 35 79  2  0  0  0  0
 36 51  1  0  0  0  0
 36 75  1  0  0  0  0
 36 80  2  0  0  0  0
 37 62  1  0  0  0  0
 37 70  1  0  0  0  0
 37 81  2  0  0  0  0
 38 63  1  0  0  0  0
 38 76  1  0  0  0  0
 38 82  2  0  0  0  0
 39 71  1  0  0  0  0
 39 74  1  0  0  0  0
 39 83  2  0  0  0  0
 40 43  1  0  0  0  0
 41 51  1  0  0  0  0
 42 70  1  0  0  0  0
 43 45  1  0  0  0  0
 44 46  1  0  0  0  0
 44 47  1  0  0  0  0
 45 50  1  0  0  0  0
 46 52  1  0  0  0  0
 47 71  1  0  0  0  0
 48 52  1  0  0  0  0
 48 71  1  0  0  0  0
 49 68  1  0  0  0  0
 49 69  1  0  0  0  0
 50 75  1  0  0  0  0
 51 70  1  0  0  0  0
 52 67  1  0  0  0  0
 53 63  1  0  0  0  0
 54 64  1  0  0  0  0
 55 64  1  0  0  0  0
 56 64  1  0  0  0  0
 57 65  1  0  0  0  0
 58 65  1  0  0  0  0
 59 77  1  0  0  0  0
 60 65  1  0  0  0  0
 60 69  1  0  0  0  0
 61 65  1  0  0  0  0
 61 85  1  0  0  0  0
 62 64  1  0  0  0  0
 62 76  1  0  0  0  0
 63 77  1  0  0  0  0
 66 67  1  0  0  0  0
M  CHG  1  77   1
M  ISO  4  39 100  61 101  74 100  85 101
M  END
> <Batch ID>
0150

> <Smiles>
CNC(C)C(=O)NC(C(=O)N1Cc2cc([101O:1][101CH2:1]C(C)(C)CN3CNC(=O)c4cc([100NH:0][100C:0](=O)N5CCCC(n6nc(-c7ccc(Oc8ccc(F)cc8F)cc7)c(C(N)=O)c6N)C5)ccc43)ccc2CC1C(=O)NC1CCCc2ccccc21)C(C)(C)C

> <Shape>
0.224

> <Color>
0.058

> <Negative vol penalty>
0.000

$$$$

  -OEChem-04052303213D

 85 94  0     1  0  0  0  0  0999 V2000
  -29.9113  -34.8370   25.6264 C   0  0  0  0  0  0  0  0  0  0  0  0
  -29.5023  -33.5152   25.4823 C   0  0  0  0  0  0  0  0  0  0  0  0
  -23.7808   -9.5764   20.9242 C   0  0  0  0  0  0  0  0  0  0  0  0
  -24.2522  -10.4043   23.1444 C   0  0  0  0  0  0  0  0  0  0  0  0
  -28.9726  -35.8663   25.5687 C   0  0  0  0  0  0  0  0  0  0  0  0
  -28.1539  -33.2217   25.2816 C   0  0  0  0  0  0  0  0  0  0  0  0
  -27.4356  -29.7907   21.6268 C   0  0  0  0  0  0  0  0  0  0  0  0
  -23.2429   -8.4121   21.4726 C   0  0  0  0  0  0  0  0  0  0  0  0
  -23.7143   -9.2400   23.6928 C   0  0  0  0  0  0  0  0  0  0  0  0
  -27.6704  -28.4555   21.9519 C   0  0  0  0  0  0  0  0  0  0  0  0
  -20.3478   -7.4531   22.9326 C   0  0  0  0  0  0  0  0  0  0  0  0
  -19.1388   -6.9904   22.4131 C   0  0  0  0  0  0  0  0  0  0  0  0
  -30.4063  -20.5121   20.9904 C   0  0  0  0  0  0  0  0  0  0  0  0
  -30.6342  -19.1279   20.7410 C   0  0  0  0  0  0  0  0  0  0  0  0
  -25.2988  -28.1124   22.2296 C   0  0  0  0  0  0  0  0  0  0  0  0
  -20.2045   -4.9167   21.7798 C   0  0  0  0  0  0  0  0  0  0  0  0
  -24.2855  -10.5725   21.7601 C   0  0  0  0  0  0  0  0  0  0  0  0
  -24.1582  -12.9688   20.8945 C   0  0  0  0  0  0  0  0  0  0  0  0
  -27.6134  -35.5859   25.3575 C   0  0  0  0  0  0  0  0  0  0  0  0
  -26.1293  -30.3004   21.6113 C   0  0  0  0  0  0  0  0  0  0  0  0
  -27.1959  -34.2481   25.2224 C   0  0  0  0  0  0  0  0  0  0  0  0
  -25.0499  -29.4538   21.9015 C   0  0  0  0  0  0  0  0  0  0  0  0
  -23.2096   -8.2439   22.8569 C   0  0  0  0  0  0  0  0  0  0  0  0
  -26.6022  -27.6168   22.2562 C   0  0  0  0  0  0  0  0  0  0  0  0
  -21.4852   -6.6476   22.8755 C   0  0  0  0  0  0  0  0  0  0  0  0
  -19.0671   -5.7222   21.8368 C   0  0  0  0  0  0  0  0  0  0  0  0
  -21.4135   -5.3794   22.2992 C   0  0  0  0  0  0  0  0  0  0  0  0
  -24.8418  -11.7752   21.1943 C   0  0  0  0  0  0  0  0  0  0  0  0
  -25.1249  -13.7983   20.3808 C   0  0  0  0  0  0  0  0  0  0  0  0
  -29.1495  -20.7454   21.5036 C   0  0  0  0  0  0  0  0  0  0  0  0
  -29.5427  -18.3558   21.0735 C   0  0  0  0  0  0  0  0  0  0  0  0
  -22.7733  -13.2982   21.0652 C   0  0  0  0  0  0  0  0  0  0  0  0
  -24.5846  -32.5620   23.2245 C   0  0  0  0  0  0  0  0  0  0  0  0
  -22.2059  -31.8900   21.1240 C   0  0  0  0  0  0  0  0  0  0  0  0
  -20.7743  -29.6448   18.9894 C   0  0  0  0  0  0  0  0  0  0  0  0
  -30.2385  -15.9964   20.5299 C   0  0  0  0  0  0  0  0  0  0  0  0
  -26.6291  -36.7287   25.3499 C   0  0  0  0  0  0  0  0  0  0  0  0
  -25.8907  -31.7364   21.2324 C   0  0  0  0  0  0  0  0  0  0  0  0
  -23.6270  -29.9469   21.8791 C   0  0  0  0  0  0  0  0  0  0  0  0
  -25.2707  -36.3586   24.7598 C   0  0  0  0  0  0  0  0  0  0  0  0
  -29.8824  -12.8241   18.9530 C   0  0  0  0  0  0  0  0  0  0  0  0
  -24.7835  -35.0315   25.3327 C   0  0  0  0  0  0  0  0  0  0  0  0
  -28.4831  -12.3666   19.3709 C   0  0  0  0  0  0  0  0  0  0  0  0
  -27.4224  -23.5442   23.1933 C   0  0  0  0  0  0  0  0  0  0  0  0
  -30.5913  -13.5788   20.0762 C   0  0  0  0  0  0  0  0  0  0  0  0
  -27.6247  -22.0565   22.9369 C   0  0  0  0  0  0  0  0  0  0  0  0
  -28.4340  -14.2430   21.0631 C   0  0  0  0  0  0  0  0  0  0  0  0
  -25.7456  -33.8912   24.9784 C   0  0  1  0  0  0  0  0  0  0  0  0
  -24.5613  -32.2777   21.7493 C   0  0  1  0  0  0  0  0  0  0  0  0
  -27.6556  -13.5345   19.9425 C   0  0  2  0  0  0  0  0  0  0  0  0
  -27.6885  -24.1870   21.8236 C   0  0  1  0  0  0  0  0  0  0  0  0
  -28.9192  -23.3298   21.2974 C   0  0  0  0  0  0  0  0  0  0  0  0
  -26.4223  -24.0387   20.9439 C   0  0  0  0  0  0  0  0  0  0  0  0
  -30.2567  -23.8332   21.8828 C   0  0  0  0  0  0  0  0  0  0  0  0
  -28.9798  -23.3571   19.7609 C   0  0  0  0  0  0  0  0  0  0  0  0
  -18.8167  -29.3681   17.4439 C   0  0  0  0  0  0  0  0  0  0  0  0
  -20.3702  -31.4798   23.5265 C   0  0  0  0  0  0  0  0  0  0  0  0
  -18.7596  -30.3101   22.0080 C   0  0  0  0  0  0  0  0  0  0  0  0
  -19.3265  -32.7071   21.6137 C   0  0  0  0  0  0  0  0  0  0  0  0
  -22.5342  -29.2648   16.6405 C   0  0  0  0  0  0  0  0  0  0  0  0
  -27.9680  -25.6889   21.9842 C   0  0  0  0  0  0  0  0  0  1  0  0
  -21.0446  -30.9259   21.0966 C   0  0  1  0  0  0  0  0  0  0  0  0
  -20.2732  -29.7887   17.5637 C   0  0  2  0  0  0  0  0  0  0  0  0
  -19.9021  -31.3466   22.0636 C   0  0  0  0  0  0  0  0  0  0  0  0
  -26.1422  -11.8368   20.8957 N   0  0  0  0  0  0  0  0  0  0  0  0
  -26.2835  -13.0790   20.4029 N   0  0  0  0  0  0  0  0  0  0  0  0
  -28.6172  -21.9771   21.8528 N   0  0  3  0  0  0  0  0  0  0  0  0
  -23.4456  -31.3603   21.5089 N   0  0  0  0  0  0  0  0  0  0  0  0
  -29.7498  -14.6733   20.5651 N   0  0  0  0  0  0  0  0  0  0  0  0
  -25.0884  -15.0655   19.9168 N   0  0  0  0  0  0  0  0  0  0  0  0
  -21.9180  -12.3293   21.6074 N   0  0  0  0  0  0  0  0  0  0  0  0
  -29.3377  -16.9563   20.9900 N   0  0  0  0  0  0  0  0  0  0  0  0
  -25.5507  -33.4732   23.6067 N   0  0  0  0  0  0  0  0  0  0  0  0
  -20.6362  -30.8183   19.7002 N   0  0  0  0  0  0  0  0  0  0  0  0
  -21.0838  -28.9435   16.6420 N   0  3  0  0  0  0  0  0  0  0  0  0
  -22.3049  -14.4129   20.7313 O   0  0  0  0  0  0  0  0  0  0  0  0
  -23.7844  -31.9978   23.9613 O   0  0  0  0  0  0  0  0  0  0  0  0
  -22.0213  -33.0682   20.8084 O   0  0  0  0  0  0  0  0  0  0  0  0
  -21.2381  -28.5953   19.4297 O   0  0  0  0  0  0  0  0  0  0  0  0
  -31.3626  -16.2618   20.0962 O   0  0  0  0  0  0  0  0  0  0  0  0
  -22.6846   -7.1081   23.3923 O   0  0  0  0  0  0  0  0  0  0  0  0
  -26.8286  -26.3132   22.5745 O   0  0  0  0  0  0  0  0  0  1  0  0
  -17.9056   -5.2774   21.3394 F   0  0  0  0  0  0  0  0  0  0  0  0
  -22.5026   -4.6006   22.2426 F   0  0  0  0  0  0  0  0  0  0  0  0
  -28.2502  -19.2992   21.6832 S   0  0  0  0  0  0  0  0  0  0  0  0
  1  2  1  0  0  0  0
  1  5  2  0  0  0  0
  2  6  2  0  0  0  0
  3  8  2  0  0  0  0
  3 17  1  0  0  0  0
  4  9  1  0  0  0  0
  4 17  2  0  0  0  0
  5 19  1  0  0  0  0
  6 21  1  0  0  0  0
  7 10  2  0  0  0  0
  7 20  1  0  0  0  0
  8 23  1  0  0  0  0
  9 23  2  0  0  0  0
 10 24  1  0  0  0  0
 11 12  2  0  0  0  0
 11 25  1  0  0  0  0
 12 26  1  0  0  0  0
 13 14  1  0  0  0  0
 13 30  2  0  0  0  0
 14 31  2  0  0  0  0
 15 22  1  0  0  0  0
 15 24  2  0  0  0  0
 16 26  2  0  0  0  0
 16 27  1  0  0  0  0
 17 28  1  0  0  0  0
 18 28  1  0  0  0  0
 18 29  2  0  0  0  0
 18 32  1  0  0  0  0
 19 21  2  0  0  0  0
 19 37  1  0  0  0  0
 20 22  2  0  0  0  0
 20 38  1  0  0  0  0
 21 48  1  0  0  0  0
 22 39  1  0  0  0  0
 23 81  1  0  0  0  0
 24 82  1  0  0  0  0
 25 27  2  0  0  0  0
 25 81  1  0  0  0  0
 26 83  1  0  0  0  0
 27 84  1  0  0  0  0
 28 65  2  0  0  0  0
 29 66  1  0  0  0  0
 29 70  1  0  0  0  0
 30 67  1  0  0  0  0
 30 85  1  0  0  0  0
 31 72  1  0  0  0  0
 31 85  1  0  0  0  0
 32 71  1  0  0  0  0
 32 76  2  0  0  0  0
 33 49  1  0  0  0  0
 33 73  1  0  0  0  0
 33 77  2  0  0  0  0
 34 62  1  0  0  0  0
 34 68  1  0  0  0  0
 34 78  2  0  0  0  0
 35 63  1  0  0  0  0
 35 74  1  0  0  0  0
 35 79  2  0  0  0  0
 36 69  1  0  0  0  0
 36 72  1  0  0  0  0
 36 80  2  0  0  0  0
 37 40  1  0  0  0  0
 38 49  1  0  0  0  0
 39 68  1  0  0  0  0
 40 42  1  0  0  0  0
 41 43  1  0  0  0  0
 41 45  1  0  0  0  0
 42 48  1  0  0  0  0
 43 50  1  0  0  0  0
 44 46  1  0  0  0  0
 44 51  1  0  0  0  0
 45 69  1  0  0  0  0
 46 67  1  0  0  0  0
 47 50  1  0  0  0  0
 47 69  1  0  0  0  0
 48 73  1  0  0  0  0
 49 68  1  0  0  0  0
 50 66  1  0  0  0  0
 51 52  1  0  0  0  0
 51 53  1  0  0  0  0
 51 61  1  0  0  0  0
 52 54  1  0  0  0  0
 52 55  1  0  0  0  0
 52 67  1  0  0  0  0
 56 63  1  0  0  0  0
 57 64  1  0  0  0  0
 58 64  1  0  0  0  0
 59 64  1  0  0  0  0
 60 75  1  0  0  0  0
 61 82  1  0  0  0  0
 62 64  1  0  0  0  0
 62 74  1  0  0  0  0
 63 75  1  0  0  0  0
 65 66  1  0  0  0  0
M  CHG  1  75   1
M  ISO  4  36 100  61 101  72 100  82 101
M  END
> <Batch ID>
0150

> <Smiles>
CNC(C)C(=O)NC(C(=O)N1Cc2cc([101O:1][101CH2:1]C3(C)CCN(c4ccc([100NH:0][100C:0](=O)N5CCCC(n6nc(-c7ccc(Oc8ccc(F)cc8F)cc7)c(C(N)=O)c6N)C5)s4)C3(C)C)ccc2CC1C(=O)NC1CCCc2ccccc21)C(C)(C)C

> <Shape>
0.308

> <Color>
0.156

> <Negative vol penalty>
0.000

$$$$

  -OEChem-04052303213D

 88 96  0     1  0  0  0  0  0999 V2000
  -18.4165  -31.1728   26.6546 C   0  0  0  0  0  0  0  0  0  0  0  0
  -18.7136  -29.9095   26.1533 C   0  0  0  0  0  0  0  0  0  0  0  0
  -22.9724   -9.9109   19.9980 C   0  0  0  0  0  0  0  0  0  0  0  0
  -23.6891   -9.9674   22.3046 C   0  0  0  0  0  0  0  0  0  0  0  0
  -18.4675  -32.2845   25.8147 C   0  0  0  0  0  0  0  0  0  0  0  0
  -19.0607  -29.7571   24.8114 C   0  0  0  0  0  0  0  0  0  0  0  0
  -25.3931  -26.8898   22.9218 C   0  0  0  0  0  0  0  0  0  0  0  0
  -22.1841   -8.7928   20.2703 C   0  0  0  0  0  0  0  0  0  0  0  0
  -22.9007   -8.8494   22.5769 C   0  0  0  0  0  0  0  0  0  0  0  0
  -26.4950  -26.1576   22.4793 C   0  0  0  0  0  0  0  0  0  0  0  0
  -23.0856   -5.5028   22.1332 C   0  0  0  0  0  0  0  0  0  0  0  0
  -23.6514   -4.4812   22.8960 C   0  0  0  0  0  0  0  0  0  0  0  0
  -25.8737  -26.5902   20.1826 C   0  0  0  0  0  0  0  0  0  0  0  0
  -28.8442  -17.8500   22.9410 C   0  0  0  0  0  0  0  0  0  0  0  0
  -29.8681  -19.0772   21.1293 C   0  0  0  0  0  0  0  0  0  0  0  0
  -27.9740  -20.0115   22.3026 C   0  0  0  0  0  0  0  0  0  0  0  0
  -21.9255   -4.7694   24.5619 C   0  0  0  0  0  0  0  0  0  0  0  0
  -23.7249  -10.4981   21.0152 C   0  0  0  0  0  0  0  0  0  0  0  0
  -24.1570  -13.0047   20.8203 C   0  0  0  0  0  0  0  0  0  0  0  0
  -18.8248  -32.1469   24.4641 C   0  0  0  0  0  0  0  0  0  0  0  0
  -24.5349  -27.4886   21.9953 C   0  0  0  0  0  0  0  0  0  0  0  0
  -19.1152  -30.8678   23.9523 C   0  0  0  0  0  0  0  0  0  0  0  0
  -24.7754  -27.3352   20.6200 C   0  0  0  0  0  0  0  0  0  0  0  0
  -29.8168  -17.9476   21.9460 C   0  0  0  0  0  0  0  0  0  0  0  0
  -27.9228  -18.8819   23.1193 C   0  0  0  0  0  0  0  0  0  0  0  0
  -28.9467  -20.1092   21.3075 C   0  0  0  0  0  0  0  0  0  0  0  0
  -22.1482   -8.2621   21.5598 C   0  0  0  0  0  0  0  0  0  0  0  0
  -26.7346  -26.0080   21.1131 C   0  0  0  0  0  0  0  0  0  0  0  0
  -21.9399   -6.1577   22.5848 C   0  0  0  0  0  0  0  0  0  0  0  0
  -23.0713   -4.1144   24.1103 C   0  0  0  0  0  0  0  0  0  0  0  0
  -21.3598   -5.7910   23.7991 C   0  0  0  0  0  0  0  0  0  0  0  0
  -24.5399  -11.6527   20.7343 C   0  0  0  0  0  0  0  0  0  0  0  0
  -25.2813  -13.7039   20.4548 C   0  0  0  0  0  0  0  0  0  0  0  0
  -22.8978  -13.5774   21.1971 C   0  0  0  0  0  0  0  0  0  0  0  0
  -21.4827  -29.5926   21.4182 C   0  0  0  0  0  0  0  0  0  0  0  0
  -23.5798  -30.4823   19.3637 C   0  0  0  0  0  0  0  0  0  0  0  0
  -28.1648  -22.3695   20.5179 C   0  0  0  0  0  0  0  0  0  0  0  0
  -26.2998  -31.4524   17.5478 C   0  0  0  0  0  0  0  0  0  0  0  0
  -30.7535  -14.5860   20.6518 C   0  0  0  0  0  0  0  0  0  0  0  0
  -18.8202  -33.3714   23.5837 C   0  0  0  0  0  0  0  0  0  0  0  0
  -23.3013  -28.2346   22.4259 C   0  0  0  0  0  0  0  0  0  0  0  0
  -23.8060  -27.9680   19.6594 C   0  0  0  0  0  0  0  0  0  0  0  0
  -19.5612  -33.1752   22.2636 C   0  0  0  0  0  0  0  0  0  0  0  0
  -29.6252  -12.1141   18.3958 C   0  0  0  0  0  0  0  0  0  0  0  0
  -19.1547  -31.8562   21.6141 C   0  0  0  0  0  0  0  0  0  0  0  0
  -28.1671  -11.8882   18.8030 C   0  0  0  0  0  0  0  0  0  0  0  0
  -30.5212  -12.3502   19.6104 C   0  0  0  0  0  0  0  0  0  0  0  0
  -28.6163  -13.1881   20.9248 C   0  0  0  0  0  0  0  0  0  0  0  0
  -19.5201  -30.6653   22.5083 C   0  0  1  0  0  0  0  0  0  0  0  0
  -22.9713  -29.4313   21.5158 C   0  0  1  0  0  0  0  0  0  0  0  0
  -27.6607  -13.0083   19.7332 C   0  0  2  0  0  0  0  0  0  0  0  0
  -27.0115  -33.0993   15.7933 C   0  0  0  0  0  0  0  0  0  0  0  0
  -27.5310  -18.6432   25.5962 C   0  0  0  0  0  0  0  0  0  0  0  0
  -25.9716  -17.5304   23.9635 C   0  0  0  0  0  0  0  0  0  0  0  0
  -25.9048  -19.9944   24.2880 C   0  0  0  0  0  0  0  0  0  0  0  0
  -22.1677  -28.8175   17.2333 C   0  0  0  0  0  0  0  0  0  0  0  0
  -23.6445  -29.8885   15.5186 C   0  0  0  0  0  0  0  0  0  0  0  0
  -22.0738  -31.2884   16.8588 C   0  0  0  0  0  0  0  0  0  0  0  0
  -28.2948  -32.6877   19.3513 C   0  0  0  0  0  0  0  0  0  0  0  0
  -28.5695  -23.3764   19.4472 C   0  0  0  0  0  0  0  0  0  0  0  0
  -27.6949  -24.6210   19.4363 C   0  0  0  0  0  0  0  0  0  1  0  0
  -30.8149  -16.8295   21.7529 C   0  0  2  0  0  0  0  0  0  0  0  0
  -24.1307  -30.3247   17.9690 C   0  0  1  0  0  0  0  0  0  0  0  0
  -26.8991  -32.8220   17.2843 C   0  0  2  0  0  0  0  0  0  0  0  0
  -26.8830  -18.7775   24.1833 C   0  0  0  0  0  0  0  0  0  0  0  0
  -23.0154  -30.0658   16.9171 C   0  0  0  0  0  0  0  0  0  0  0  0
  -25.8082  -11.4998   20.3445 N   0  0  0  0  0  0  0  0  0  0  0  0
  -26.2321  -12.7647   20.1823 N   0  0  0  0  0  0  0  0  0  0  0  0
  -23.4439  -29.3156   20.1258 N   0  0  0  0  0  0  0  0  0  0  0  0
  -29.9815  -13.4327   20.4358 N   0  0  0  0  0  0  0  0  0  0  0  0
  -25.5395  -15.0242   20.3429 N   0  0  0  0  0  0  0  0  0  0  0  0
  -21.8485  -12.7152   21.5435 N   0  0  0  0  0  0  0  0  0  0  0  0
  -28.9988  -21.2553   20.4789 N   0  0  0  0  0  0  0  0  0  0  0  0
  -20.9355  -30.3784   22.4145 N   0  0  0  0  0  0  0  0  0  0  0  0
  -24.9320  -31.5159   17.7096 N   0  0  0  0  0  0  0  0  0  0  0  0
  -30.1583  -15.5668   21.4385 N   0  0  0  0  0  0  0  0  0  0  0  0
  -31.6923  -16.6301   22.9425 N   0  3  0  0  0  0  0  0  0  0  0  0
  -28.2602  -32.9159   17.8838 N   0  3  0  0  0  0  0  0  0  0  0  0
  -22.7037  -14.8166   21.2099 O   0  0  0  0  0  0  0  0  0  0  0  0
  -20.8743  -29.0461   20.5056 O   0  0  0  0  0  0  0  0  0  0  0  0
  -23.2721  -31.6075   19.7670 O   0  0  0  0  0  0  0  0  0  0  0  0
  -27.2242  -22.5688   21.2793 O   0  0  0  0  0  0  0  0  0  0  0  0
  -26.9769  -30.4280   17.6007 O   0  0  0  0  0  0  0  0  0  0  0  0
  -31.8824  -14.7334   20.1719 O   0  0  0  0  0  0  0  0  0  0  0  0
  -21.3789   -7.1713   21.8259 O   0  0  0  0  0  0  0  0  0  0  0  0
  -27.8147  -25.2957   20.6880 O   0  0  0  0  0  0  0  0  0  1  0  0
  -23.6138   -3.1323   24.8420 F   0  0  0  0  0  0  0  0  0  0  0  0
  -20.2583   -6.4158   24.2376 F   0  0  0  0  0  0  0  0  0  0  0  0
  1  2  1  0  0  0  0
  1  5  2  0  0  0  0
  2  6  2  0  0  0  0
  3  8  2  0  0  0  0
  3 18  1  0  0  0  0
  4  9  1  0  0  0  0
  4 18  2  0  0  0  0
  5 20  1  0  0  0  0
  6 22  1  0  0  0  0
  7 10  2  0  0  0  0
  7 21  1  0  0  0  0
  8 27  1  0  0  0  0
  9 27  2  0  0  0  0
 10 28  1  0  0  0  0
 11 12  2  0  0  0  0
 11 29  1  0  0  0  0
 12 30  1  0  0  0  0
 13 23  1  0  0  0  0
 13 28  2  0  0  0  0
 14 24  1  0  0  0  0
 14 25  2  0  0  0  0
 15 24  2  0  0  0  0
 15 26  1  0  0  0  0
 16 25  1  0  0  0  0
 16 26  2  0  0  0  0
 17 30  2  0  0  0  0
 17 31  1  0  0  0  0
 18 32  1  0  0  0  0
 19 32  1  0  0  0  0
 19 33  2  0  0  0  0
 19 34  1  0  0  0  0
 20 22  2  0  0  0  0
 20 40  1  0  0  0  0
 21 23  2  0  0  0  0
 21 41  1  0  0  0  0
 22 49  1  0  0  0  0
 23 42  1  0  0  0  0
 24 62  1  0  0  0  0
 25 65  1  0  0  0  0
 26 73  1  0  0  0  0
 27 85  1  0  0  0  0
 28 86  1  0  0  0  0
 29 31  2  0  0  0  0
 29 85  1  0  0  0  0
 30 87  1  0  0  0  0
 31 88  1  0  0  0  0
 32 67  2  0  0  0  0
 33 68  1  0  0  0  0
 33 71  1  0  0  0  0
 34 72  1  0  0  0  0
 34 79  2  0  0  0  0
 35 50  1  0  0  0  0
 35 74  1  0  0  0  0
 35 80  2  0  0  0  0
 36 63  1  0  0  0  0
 36 69  1  0  0  0  0
 36 81  2  0  0  0  0
 37 60  1  0  0  0  0
 37 73  1  0  0  0  0
 37 82  2  0  0  0  0
 38 64  1  0  0  0  0
 38 75  1  0  0  0  0
 38 83  2  0  0  0  0
 39 70  1  0  0  0  0
 39 76  1  0  0  0  0
 39 84  2  0  0  0  0
 40 43  1  0  0  0  0
 41 50  1  0  0  0  0
 42 69  1  0  0  0  0
 43 45  1  0  0  0  0
 44 46  1  0  0  0  0
 44 47  1  0  0  0  0
 45 49  1  0  0  0  0
 46 51  1  0  0  0  0
 47 70  1  0  0  0  0
 48 51  1  0  0  0  0
 48 70  1  0  0  0  0
 49 74  1  0  0  0  0
 50 69  1  0  0  0  0
 51 68  1  0  0  0  0
 52 64  1  0  0  0  0
 53 65  1  0  0  0  0
 54 65  1  0  0  0  0
 55 65  1  0  0  0  0
 56 66  1  0  0  0  0
 57 66  1  0  0  0  0
 58 66  1  0  0  0  0
 59 78  1  0  0  0  0
 60 61  1  0  0  0  0
 61 86  1  0  0  0  0
 62 76  1  0  0  0  0
 62 77  1  0  0  0  0
 63 66  1  0  0  0  0
 63 75  1  0  0  0  0
 64 78  1  0  0  0  0
 67 68  1  0  0  0  0
M  CHG  2  77   1  78   1
M  ISO  4  39 100  61 101  76 100  86 101
M  END
> <Batch ID>
0150

> <Smiles>
CNC(C)C(=O)NC(C(=O)N1Cc2cc([101O:1][101CH2:1]CC(=O)Nc3cc(C(N)[100NH:0][100C:0](=O)N4CCCC(n5nc(-c6ccc(Oc7ccc(F)cc7F)cc6)c(C(N)=O)c5N)C4)cc(C(C)(C)C)c3)ccc2CC1C(=O)NC1CCCc2ccccc21)C(C)(C)C

> <Shape>
0.298

> <Color>
0.194

> <Negative vol penalty>
0.000

$$$$

  -OEChem-04052303213D

 81 89  0     1  0  0  0  0  0999 V2000
  -29.6870  -36.1320   21.3868 C   0  0  0  0  0  0  0  0  0  0  0  0
  -29.7423  -34.7429   21.3353 C   0  0  0  0  0  0  0  0  0  0  0  0
  -23.8564   -9.4846   22.4251 C   0  0  0  0  0  0  0  0  0  0  0  0
  -23.2504   -9.9894   20.1415 C   0  0  0  0  0  0  0  0  0  0  0  0
  -28.6862  -36.7618   22.1256 C   0  0  0  0  0  0  0  0  0  0  0  0
  -28.7974  -33.9826   22.0235 C   0  0  0  0  0  0  0  0  0  0  0  0
  -26.9831  -30.1582   19.2439 C   0  0  0  0  0  0  0  0  0  0  0  0
  -23.0321   -8.3598   22.3953 C   0  0  0  0  0  0  0  0  0  0  0  0
  -22.4260   -8.8646   20.1116 C   0  0  0  0  0  0  0  0  0  0  0  0
  -27.7881  -29.0273   19.1144 C   0  0  0  0  0  0  0  0  0  0  0  0
  -23.1666   -5.2043   21.1880 C   0  0  0  0  0  0  0  0  0  0  0  0
  -23.6729   -4.0154   21.7132 C   0  0  0  0  0  0  0  0  0  0  0  0
  -26.4911  -27.9164   20.8182 C   0  0  0  0  0  0  0  0  0  0  0  0
  -21.8750   -3.9622   23.3262 C   0  0  0  0  0  0  0  0  0  0  0  0
  -28.2672  -18.3784   18.1483 C   0  0  0  0  0  0  0  0  0  0  0  0
  -23.9655  -10.2995   21.2982 C   0  0  0  0  0  0  0  0  0  0  0  0
  -26.1791  -11.5271   20.9812 C   0  0  0  0  0  0  0  0  0  0  0  0
  -27.7228  -36.0089   22.8153 C   0  0  0  0  0  0  0  0  0  0  0  0
  -25.9311  -30.1806   20.1707 C   0  0  0  0  0  0  0  0  0  0  0  0
  -27.7836  -34.6029   22.7733 C   0  0  0  0  0  0  0  0  0  0  0  0
  -25.6726  -29.0479   20.9557 C   0  0  0  0  0  0  0  0  0  0  0  0
  -22.3169   -8.0498   21.2385 C   0  0  0  0  0  0  0  0  0  0  0  0
  -27.5440  -27.9072   19.9037 C   0  0  0  0  0  0  0  0  0  0  0  0
  -22.0145   -5.7722   21.7320 C   0  0  0  0  0  0  0  0  0  0  0  0
  -23.0271   -3.3944   22.7822 C   0  0  0  0  0  0  0  0  0  0  0  0
  -21.3687   -5.1512   22.8010 C   0  0  0  0  0  0  0  0  0  0  0  0
  -24.8165  -11.4618   21.3286 C   0  0  0  0  0  0  0  0  0  0  0  0
  -27.3369  -18.8048   19.0729 C   0  0  0  0  0  0  0  0  0  0  0  0
  -26.5215  -12.8423   21.1802 C   0  0  0  0  0  0  0  0  0  0  0  0
  -28.2621  -20.7408   18.6191 C   0  0  0  0  0  0  0  0  0  0  0  0
  -27.0569  -10.4916   20.5198 C   0  0  0  0  0  0  0  0  0  0  0  0
  -25.2406  -31.9225   22.7384 C   0  0  0  0  0  0  0  0  0  0  0  0
  -28.3812  -24.4384   19.2484 C   0  0  0  0  0  0  0  0  0  0  0  0
  -22.4584  -30.2576   22.6390 C   0  0  0  0  0  0  0  0  0  0  0  0
  -20.7968  -27.4491   21.6399 C   0  0  0  0  0  0  0  0  0  0  0  0
  -25.4579  -18.2837   20.6679 C   0  0  0  0  0  0  0  0  0  0  0  0
  -26.6883  -36.7340   23.6391 C   0  0  0  0  0  0  0  0  0  0  0  0
  -25.0552  -31.3986   20.2793 C   0  0  0  0  0  0  0  0  0  0  0  0
  -24.5430  -29.0138   21.9513 C   0  0  0  0  0  0  0  0  0  0  0  0
  -25.5016  -35.8588   24.0343 C   0  0  0  0  0  0  0  0  0  0  0  0
  -23.9919  -16.5989   23.4409 C   0  0  0  0  0  0  0  0  0  0  0  0
  -25.9843  -34.5115   24.5622 C   0  0  0  0  0  0  0  0  0  0  0  0
  -24.1878  -15.1176   23.1100 C   0  0  0  0  0  0  0  0  0  0  0  0
  -23.6923  -17.4245   22.1909 C   0  0  0  0  0  0  0  0  0  0  0  0
  -24.8544  -15.7853   20.7654 C   0  0  0  0  0  0  0  0  0  0  0  0
  -26.7619  -33.7439   23.4862 C   0  0  1  0  0  0  0  0  0  0  0  0
  -24.3326  -31.4974   21.6193 C   0  0  1  0  0  0  0  0  0  0  0  0
  -25.2227  -14.9237   21.9843 C   0  0  2  0  0  0  0  0  0  0  0  0
  -18.5402  -26.3556   21.7378 C   0  0  0  0  0  0  0  0  0  0  0  0
  -22.9603  -29.4879   25.5486 C   0  0  0  0  0  0  0  0  0  0  0  0
  -21.2427  -27.6841   25.2950 C   0  0  0  0  0  0  0  0  0  0  0  0
  -20.5877  -30.0753   25.0193 C   0  0  0  0  0  0  0  0  0  0  0  0
  -20.5345  -27.4610   18.6920 C   0  0  0  0  0  0  0  0  0  0  0  0
  -27.8276  -23.0465   19.4680 C   0  0  0  0  0  0  0  0  0  0  0  0
  -27.7215  -25.5404   20.0544 C   0  0  0  0  0  0  0  0  0  1  0  0
  -21.9710  -28.9542   23.2243 C   0  0  1  0  0  0  0  0  0  0  0  0
  -19.4628  -27.2635   20.9395 C   0  0  2  0  0  0  0  0  0  0  0  0
  -21.7130  -29.0514   24.7545 C   0  0  0  0  0  0  0  0  0  0  0  0
  -24.3267  -12.6416   21.7189 N   0  0  0  0  0  0  0  0  0  0  0  0
  -27.3328  -20.1591   19.3444 N   0  0  0  0  0  0  0  0  0  0  0  0
  -25.3874  -13.4606   21.6180 N   0  0  0  0  0  0  0  0  0  0  0  0
  -23.7186  -30.2314   22.0250 N   0  0  0  0  0  0  0  0  0  0  0  0
  -24.7164  -17.1932   21.1698 N   0  0  0  0  0  0  0  0  0  0  0  0
  -27.6791  -13.5186   21.0217 N   0  0  0  0  0  0  0  0  0  0  0  0
  -26.5421   -9.1965   20.3710 N   0  0  0  0  0  0  0  0  0  0  0  0
  -26.4257  -17.9378   19.7253 N   0  0  0  0  0  0  0  0  0  0  0  0
  -28.5343  -22.1012   18.6421 N   0  0  0  0  0  0  0  0  0  0  0  0
  -25.8506  -33.1454   22.5343 N   0  0  0  0  0  0  0  0  0  0  0  0
  -20.7999  -28.5691   22.4442 N   0  0  0  0  0  0  0  0  0  0  0  0
  -19.6649  -26.6603   19.5918 N   0  3  0  0  0  0  0  0  0  0  0  0
  -28.2661  -10.7048   20.2633 O   0  0  0  0  0  0  0  0  0  0  0  0
  -25.3765  -31.1954   23.7155 O   0  0  0  0  0  0  0  0  0  0  0  0
  -29.3047  -24.6718   18.4696 O   0  0  0  0  0  0  0  0  0  0  0  0
  -21.7441  -31.2603   22.7172 O   0  0  0  0  0  0  0  0  0  0  0  0
  -21.7404  -26.6757   21.4914 O   0  0  0  0  0  0  0  0  0  0  0  0
  -25.2681  -19.4358   21.0663 O   0  0  0  0  0  0  0  0  0  0  0  0
  -21.5126   -6.9521   21.2090 O   0  0  0  0  0  0  0  0  0  0  0  0
  -28.3287  -26.8023   19.7798 O   0  0  0  0  0  0  0  0  0  1  0  0
  -23.5126   -2.2519   23.2854 F   0  0  0  0  0  0  0  0  0  0  0  0
  -20.2609   -5.6913   23.3270 F   0  0  0  0  0  0  0  0  0  0  0  0
  -29.1780  -19.7194   17.5882 S   0  0  0  0  0  0  0  0  0  0  0  0
  1  2  1  0  0  0  0
  1  5  2  0  0  0  0
  2  6  2  0  0  0  0
  3  8  2  0  0  0  0
  3 16  1  0  0  0  0
  4  9  1  0  0  0  0
  4 16  2  0  0  0  0
  5 18  1  0  0  0  0
  6 20  1  0  0  0  0
  7 10  2  0  0  0  0
  7 19  1  0  0  0  0
  8 22  1  0  0  0  0
  9 22  2  0  0  0  0
 10 23  1  0  0  0  0
 11 12  2  0  0  0  0
 11 24  1  0  0  0  0
 12 25  1  0  0  0  0
 13 21  1  0  0  0  0
 13 23  2  0  0  0  0
 14 25  2  0  0  0  0
 14 26  1  0  0  0  0
 15 28  2  0  0  0  0
 15 81  1  0  0  0  0
 16 27  1  0  0  0  0
 17 27  1  0  0  0  0
 17 29  2  0  0  0  0
 17 31  1  0  0  0  0
 18 20  2  0  0  0  0
 18 37  1  0  0  0  0
 19 21  2  0  0  0  0
 19 38  1  0  0  0  0
 20 46  1  0  0  0  0
 21 39  1  0  0  0  0
 22 77  1  0  0  0  0
 23 78  1  0  0  0  0
 24 26  2  0  0  0  0
 24 77  1  0  0  0  0
 25 79  1  0  0  0  0
 26 80  1  0  0  0  0
 27 59  2  0  0  0  0
 28 60  1  0  0  0  0
 28 66  1  0  0  0  0
 29 61  1  0  0  0  0
 29 64  1  0  0  0  0
 30 60  2  0  0  0  0
 30 67  1  0  0  0  0
 30 81  1  0  0  0  0
 31 65  1  0  0  0  0
 31 71  2  0  0  0  0
 32 47  1  0  0  0  0
 32 68  1  0  0  0  0
 32 72  2  0  0  0  0
 33 54  1  0  0  0  0
 33 55  1  0  0  0  0
 33 73  2  0  0  0  0
 34 56  1  0  0  0  0
 34 62  1  0  0  0  0
 34 74  2  0  0  0  0
 35 57  1  0  0  0  0
 35 69  1  0  0  0  0
 35 75  2  0  0  0  0
 36 63  1  0  0  0  0
 36 66  1  0  0  0  0
 36 76  2  0  0  0  0
 37 40  1  0  0  0  0
 38 47  1  0  0  0  0
 39 62  1  0  0  0  0
 40 42  1  0  0  0  0
 41 43  1  0  0  0  0
 41 44  1  0  0  0  0
 42 46  1  0  0  0  0
 43 48  1  0  0  0  0
 44 63  1  0  0  0  0
 45 48  1  0  0  0  0
 45 63  1  0  0  0  0
 46 68  1  0  0  0  0
 47 62  1  0  0  0  0
 48 61  1  0  0  0  0
 49 57  1  0  0  0  0
 50 58  1  0  0  0  0
 51 58  1  0  0  0  0
 52 58  1  0  0  0  0
 53 70  1  0  0  0  0
 54 67  1  0  0  0  0
 55 78  1  0  0  0  0
 56 58  1  0  0  0  0
 56 69  1  0  0  0  0
 57 70  1  0  0  0  0
 59 61  1  0  0  0  0
M  CHG  1  70   1
M  ISO  4  36 100  55 101  66 100  78 101
M  END
> <Batch ID>
0150

> <Smiles>
CNC(C)C(=O)NC(C(=O)N1Cc2cc([101O:1][101CH2:1]C(=O)CNc3nc([100NH:0][100C:0](=O)N4CCCC(n5nc(-c6ccc(Oc7ccc(F)cc7F)cc6)c(C(N)=O)c5N)C4)cs3)ccc2CC1C(=O)NC1CCCc2ccccc21)C(C)(C)C

> <Shape>
0.305

> <Color>
0.102

> <Negative vol penalty>
0.000

$$$$

  -OEChem-04052303213D

 83 92  0     1  0  0  0  0  0999 V2000
  -31.2470  -36.4019   24.3695 C   0  0  0  0  0  0  0  0  0  0  0  0
  -31.4790  -35.0319   24.4385 C   0  0  0  0  0  0  0  0  0  0  0  0
  -23.2428   -9.7119   19.9772 C   0  0  0  0  0  0  0  0  0  0  0  0
  -23.7192  -10.0160   22.3262 C   0  0  0  0  0  0  0  0  0  0  0  0
  -30.0393  -36.9271   24.8274 C   0  0  0  0  0  0  0  0  0  0  0  0
  -30.5038  -34.1864   24.9663 C   0  0  0  0  0  0  0  0  0  0  0  0
  -29.2340  -28.4666   23.1838 C   0  0  0  0  0  0  0  0  0  0  0  0
  -22.5398   -8.5435   20.2710 C   0  0  0  0  0  0  0  0  0  0  0  0
  -23.0162   -8.8476   22.6200 C   0  0  0  0  0  0  0  0  0  0  0  0
  -29.6051  -27.2219   23.6907 C   0  0  0  0  0  0  0  0  0  0  0  0
  -23.5574   -5.5131   22.4820 C   0  0  0  0  0  0  0  0  0  0  0  0
  -24.1382   -4.6151   23.3774 C   0  0  0  0  0  0  0  0  0  0  0  0
  -31.1815  -19.4495   22.3537 C   0  0  0  0  0  0  0  0  0  0  0  0
  -31.2440  -18.1241   21.8347 C   0  0  0  0  0  0  0  0  0  0  0  0
  -27.5290  -27.1078   24.9138 C   0  0  0  0  0  0  0  0  0  0  0  0
  -22.2365   -4.8522   24.8487 C   0  0  0  0  0  0  0  0  0  0  0  0
  -23.8325  -10.4481   21.0048 C   0  0  0  0  0  0  0  0  0  0  0  0
  -24.0446  -12.9636   20.6371 C   0  0  0  0  0  0  0  0  0  0  0  0
  -29.0450  -36.0865   25.3521 C   0  0  0  0  0  0  0  0  0  0  0  0
  -28.0104  -29.0471   23.5473 C   0  0  0  0  0  0  0  0  0  0  0  0
  -29.2822  -34.7010   25.4328 C   0  0  0  0  0  0  0  0  0  0  0  0
  -27.1436  -28.3587   24.4081 C   0  0  0  0  0  0  0  0  0  0  0  0
  -22.4265   -8.1114   21.5924 C   0  0  0  0  0  0  0  0  0  0  0  0
  -28.7539  -26.5436   24.5581 C   0  0  0  0  0  0  0  0  0  0  0  0
  -22.3161   -6.0807   22.7699 C   0  0  0  0  0  0  0  0  0  0  0  0
  -23.4778   -4.2846   24.5608 C   0  0  0  0  0  0  0  0  0  0  0  0
  -21.6557   -5.7502   23.9532 C   0  0  0  0  0  0  0  0  0  0  0  0
  -24.5593  -11.6549   20.7020 C   0  0  0  0  0  0  0  0  0  0  0  0
  -25.1290  -13.7435   20.3171 C   0  0  0  0  0  0  0  0  0  0  0  0
  -29.9432  -19.7404   22.8823 C   0  0  0  0  0  0  0  0  0  0  0  0
  -30.0509  -17.4522   21.9867 C   0  0  0  0  0  0  0  0  0  0  0  0
  -22.7061  -13.4324   20.8475 C   0  0  0  0  0  0  0  0  0  0  0  0
  -27.1513  -31.7050   25.0643 C   0  0  0  0  0  0  0  0  0  0  0  0
  -24.1651  -30.7514   24.2304 C   0  0  0  0  0  0  0  0  0  0  0  0
  -22.0755  -28.1954   23.3660 C   0  0  0  0  0  0  0  0  0  0  0  0
  -30.4673  -15.1758   20.9911 C   0  0  0  0  0  0  0  0  0  0  0  0
  -27.7743  -36.7057   25.8782 C   0  0  0  0  0  0  0  0  0  0  0  0
  -27.6129  -30.3783   22.9708 C   0  0  0  0  0  0  0  0  0  0  0  0
  -25.8099  -28.9294   24.8133 C   0  0  0  0  0  0  0  0  0  0  0  0
  -26.6438  -35.6996   26.0780 C   0  0  0  0  0  0  0  0  0  0  0  0
  -29.7830  -12.4522   18.8024 C   0  0  0  0  0  0  0  0  0  0  0  0
  -27.1563  -34.4569   26.7990 C   0  0  0  0  0  0  0  0  0  0  0  0
  -28.3206  -12.1096   19.0961 C   0  0  0  0  0  0  0  0  0  0  0  0
  -28.2017  -22.6850   24.2617 C   0  0  0  0  0  0  0  0  0  0  0  0
  -30.5324  -12.8703   20.0662 C   0  0  0  0  0  0  0  0  0  0  0  0
  -28.2254  -21.1787   24.0040 C   0  0  0  0  0  0  0  0  0  0  0  0
  -28.4354  -13.6049   21.1303 C   0  0  0  0  0  0  0  0  0  0  0  0
  -30.4228  -22.1064   23.5725 C   0  0  0  0  0  0  0  0  0  0  0  0
  -28.2391  -33.7487   25.9759 C   0  0  1  0  0  0  0  0  0  0  0  0
  -26.5711  -31.1074   23.8137 C   0  0  1  0  0  0  0  0  0  0  0  0
  -27.6228  -13.2404   19.8771 C   0  0  2  0  0  0  0  0  0  0  0  0
  -29.6691  -23.0435   24.5385 C   0  0  2  0  0  0  0  0  0  0  0  0
  -30.0446  -22.7408   25.9991 C   0  0  0  0  0  0  0  0  0  0  0  0
  -19.6820  -27.7197   22.7812 C   0  0  0  0  0  0  0  0  0  0  0  0
  -23.3991  -31.0002   27.1734 C   0  0  0  0  0  0  0  0  0  0  0  0
  -21.3562  -29.6378   26.6850 C   0  0  0  0  0  0  0  0  0  0  0  0
  -21.6753  -31.8472   25.5716 C   0  0  0  0  0  0  0  0  0  0  0  0
  -22.8097  -27.1940   20.6795 C   0  0  0  0  0  0  0  0  0  0  0  0
  -29.9540  -24.5157   24.2366 C   0  0  0  0  0  0  0  0  0  1  0  0
  -23.1036  -29.8848   24.8638 C   0  0  1  0  0  0  0  0  0  0  0  0
  -21.0636  -28.0575   22.2429 C   0  0  2  0  0  0  0  0  0  0  0  0
  -22.4095  -30.5823   26.0675 C   0  0  0  0  0  0  0  0  0  0  0  0
  -25.8687  -11.6023   20.4437 N   0  0  0  0  0  0  0  0  0  0  0  0
  -26.1860  -12.8878   20.2134 N   0  0  0  0  0  0  0  0  0  0  0  0
  -29.5576  -20.9319   23.4601 N   0  0  3  0  0  0  0  0  0  0  0  0
  -25.4692  -30.2366   24.2280 N   0  0  0  0  0  0  0  0  0  0  0  0
  -29.8151  -13.9479   20.7511 N   0  0  0  0  0  0  0  0  0  0  0  0
  -25.2719  -15.0709   20.1171 N   0  0  0  0  0  0  0  0  0  0  0  0
  -21.7133  -12.4968   21.1691 N   0  0  0  0  0  0  0  0  0  0  0  0
  -29.6753  -16.1361   21.6199 N   0  0  0  0  0  0  0  0  0  0  0  0
  -27.6397  -32.9873   24.9009 N   0  0  0  0  0  0  0  0  0  0  0  0
  -22.1940  -29.5023   23.7891 N   0  0  0  0  0  0  0  0  0  0  0  0
  -21.4779  -26.9789   21.3017 N   0  3  0  0  0  0  0  0  0  0  0  0
  -22.3962  -14.6428   20.7368 O   0  0  0  0  0  0  0  0  0  0  0  0
  -27.1542  -31.0517   26.1011 O   0  0  0  0  0  0  0  0  0  0  0  0
  -23.8475  -31.8418   23.7488 O   0  0  0  0  0  0  0  0  0  0  0  0
  -22.6959  -27.2387   23.8247 O   0  0  0  0  0  0  0  0  0  0  0  0
  -31.6333  -15.3711   20.6386 O   0  0  0  0  0  0  0  0  0  0  0  0
  -21.7404   -6.9714   21.8794 O   0  0  0  0  0  0  0  0  0  0  0  0
  -29.1139  -25.3289   25.0548 O   0  0  0  0  0  0  0  0  0  1  0  0
  -24.0350   -3.4211   25.4199 F   0  0  0  0  0  0  0  0  0  0  0  0
  -20.4625   -6.2914   24.2347 F   0  0  0  0  0  0  0  0  0  0  0  0
  -28.8624  -18.4186   22.7520 S   0  0  0  0  0  0  0  0  0  0  0  0
  1  2  1  0  0  0  0
  1  5  2  0  0  0  0
  2  6  2  0  0  0  0
  3  8  2  0  0  0  0
  3 17  1  0  0  0  0
  4  9  1  0  0  0  0
  4 17  2  0  0  0  0
  5 19  1  0  0  0  0
  6 21  1  0  0  0  0
  7 10  2  0  0  0  0
  7 20  1  0  0  0  0
  8 23  1  0  0  0  0
  9 23  2  0  0  0  0
 10 24  1  0  0  0  0
 11 12  2  0  0  0  0
 11 25  1  0  0  0  0
 12 26  1  0  0  0  0
 13 14  1  0  0  0  0
 13 30  2  0  0  0  0
 14 31  2  0  0  0  0
 15 22  1  0  0  0  0
 15 24  2  0  0  0  0
 16 26  2  0  0  0  0
 16 27  1  0  0  0  0
 17 28  1  0  0  0  0
 18 28  1  0  0  0  0
 18 29  2  0  0  0  0
 18 32  1  0  0  0  0
 19 21  2  0  0  0  0
 19 37  1  0  0  0  0
 20 22  2  0  0  0  0
 20 38  1  0  0  0  0
 21 49  1  0  0  0  0
 22 39  1  0  0  0  0
 23 79  1  0  0  0  0
 24 80  1  0  0  0  0
 25 27  2  0  0  0  0
 25 79  1  0  0  0  0
 26 81  1  0  0  0  0
 27 82  1  0  0  0  0
 28 63  2  0  0  0  0
 29 64  1  0  0  0  0
 29 68  1  0  0  0  0
 30 65  1  0  0  0  0
 30 83  1  0  0  0  0
 31 70  1  0  0  0  0
 31 83  1  0  0  0  0
 32 69  1  0  0  0  0
 32 74  2  0  0  0  0
 33 50  1  0  0  0  0
 33 71  1  0  0  0  0
 33 75  2  0  0  0  0
 34 60  1  0  0  0  0
 34 66  1  0  0  0  0
 34 76  2  0  0  0  0
 35 61  1  0  0  0  0
 35 72  1  0  0  0  0
 35 77  2  0  0  0  0
 36 67  1  0  0  0  0
 36 70  1  0  0  0  0
 36 78  2  0  0  0  0
 37 40  1  0  0  0  0
 38 50  1  0  0  0  0
 39 66  1  0  0  0  0
 40 42  1  0  0  0  0
 41 43  1  0  0  0  0
 41 45  1  0  0  0  0
 42 49  1  0  0  0  0
 43 51  1  0  0  0  0
 44 46  1  0  0  0  0
 44 52  1  0  0  0  0
 45 67  1  0  0  0  0
 46 65  1  0  0  0  0
 47 51  1  0  0  0  0
 47 67  1  0  0  0  0
 48 52  1  0  0  0  0
 48 65  1  0  0  0  0
 49 71  1  0  0  0  0
 50 66  1  0  0  0  0
 51 64  1  0  0  0  0
 52 53  1  0  0  0  0
 52 59  1  0  0  0  0
 54 61  1  0  0  0  0
 55 62  1  0  0  0  0
 56 62  1  0  0  0  0
 57 62  1  0  0  0  0
 58 73  1  0  0  0  0
 59 80  1  0  0  0  0
 60 62  1  0  0  0  0
 60 72  1  0  0  0  0
 61 73  1  0  0  0  0
 63 64  1  0  0  0  0
M  CHG  1  73   1
M  ISO  4  36 100  59 101  70 100  80 101
M  END
> <Batch ID>
0150

> <Smiles>
CNC(C)C(=O)NC(C(=O)N1Cc2cc([101O:1][101CH2:1]C3(C)CCN(c4ccc([100NH:0][100C:0](=O)N5CCCC(n6nc(-c7ccc(Oc8ccc(F)cc8F)cc7)c(C(N)=O)c6N)C5)s4)C3)ccc2CC1C(=O)NC1CCCc2ccccc21)C(C)(C)C

> <Shape>
0.287

> <Color>
0.203

> <Negative vol penalty>
0.000

$$$$

  -OEChem-04052303213D

 89 98  0     1  0  0  0  0  0999 V2000
  -24.4890  -23.6670   18.9140 C   0  0  0  0  0  0  0  0  0  0  0  0
  -24.4914  -22.3112   19.2258 C   0  0  0  0  0  0  0  0  0  0  0  0
  -25.2237  -30.9998   21.0129 C   0  0  0  0  0  0  0  0  0  0  0  0
  -24.6999  -29.2476   22.5916 C   0  0  0  0  0  0  0  0  0  0  0  0
  -23.4714  -24.4899   19.3949 C   0  0  0  0  0  0  0  0  0  0  0  0
  -23.4767  -21.7776   20.0195 C   0  0  0  0  0  0  0  0  0  0  0  0
  -21.6820  -17.4060   18.1996 C   0  0  0  0  0  0  0  0  0  0  0  0
  -24.5996  -31.9326   21.8411 C   0  0  0  0  0  0  0  0  0  0  0  0
  -24.0759  -30.1804   23.4199 C   0  0  0  0  0  0  0  0  0  0  0  0
  -22.4472  -16.2619   18.4214 C   0  0  0  0  0  0  0  0  0  0  0  0
  -23.4609  -34.8348   23.7107 C   0  0  0  0  0  0  0  0  0  0  0  0
  -24.1170  -36.0453   23.9338 C   0  0  0  0  0  0  0  0  0  0  0  0
  -21.0056  -15.6615   20.2600 C   0  0  0  0  0  0  0  0  0  0  0  0
  -28.3150  -15.1541   20.8453 C   0  0  0  0  0  0  0  0  0  0  0  0
  -25.9901  -34.8542   24.8876 C   0  0  0  0  0  0  0  0  0  0  0  0
  -29.0823  -13.0332   21.4067 C   0  0  0  0  0  0  0  0  0  0  0  0
  -25.2738  -29.6572   21.3881 C   0  0  0  0  0  0  0  0  0  0  0  0
  -25.5759  -28.3720   19.2053 C   0  0  0  0  0  0  0  0  0  0  0  0
  -22.4384  -23.9643   20.1870 C   0  0  0  0  0  0  0  0  0  0  0  0
  -20.5774  -17.6925   19.0145 C   0  0  0  0  0  0  0  0  0  0  0  0
  -22.4450  -22.5945   20.5126 C   0  0  0  0  0  0  0  0  0  0  0  0
  -20.2264  -16.8085   20.0448 C   0  0  0  0  0  0  0  0  0  0  0  0
  -27.9698  -13.8112   21.1732 C   0  0  0  0  0  0  0  0  0  0  0  0
  -24.0258  -31.5230   23.0446 C   0  0  0  0  0  0  0  0  0  0  0  0
  -22.1108  -15.3909   19.4536 C   0  0  0  0  0  0  0  0  0  0  0  0
  -24.0693  -33.6340   24.0761 C   0  0  0  0  0  0  0  0  0  0  0  0
  -25.3816  -36.0550   24.5223 C   0  0  0  0  0  0  0  0  0  0  0  0
  -25.3340  -33.6437   24.6645 C   0  0  0  0  0  0  0  0  0  0  0  0
  -25.9177  -28.6930   20.5327 C   0  0  0  0  0  0  0  0  0  0  0  0
  -29.6784  -15.3514   20.8408 C   0  0  0  0  0  0  0  0  0  0  0  0
  -26.4829  -27.4071   18.8410 C   0  0  0  0  0  0  0  0  0  0  0  0
  -24.5319  -28.8989   18.3758 C   0  0  0  0  0  0  0  0  0  0  0  0
  -30.4388  -16.5944   20.5511 C   0  0  0  0  0  0  0  0  0  0  0  0
  -19.8030  -20.0565   20.9934 C   0  0  0  0  0  0  0  0  0  0  0  0
  -16.9673  -18.4877   21.1341 C   0  0  0  0  0  0  0  0  0  0  0  0
  -25.4623  -14.0093   21.0415 C   0  0  0  0  0  0  0  0  0  0  0  0
  -15.2577  -15.5555   20.7793 C   0  0  0  0  0  0  0  0  0  0  0  0
  -29.2846  -22.9116   19.7089 C   0  0  0  0  0  0  0  0  0  0  0  0
  -21.3858  -24.9020   20.7230 C   0  0  0  0  0  0  0  0  0  0  0  0
  -19.7462  -18.9169   18.7453 C   0  0  0  0  0  0  0  0  0  0  0  0
  -19.0380  -17.0602   20.9352 C   0  0  0  0  0  0  0  0  0  0  0  0
  -20.1431  -24.1870   21.2472 C   0  0  0  0  0  0  0  0  0  0  0  0
  -30.6958  -25.8014   21.1204 C   0  0  0  0  0  0  0  0  0  0  0  0
  -20.5383  -23.0121   22.1361 C   0  0  0  0  0  0  0  0  0  0  0  0
  -29.5441  -26.7975   20.9883 C   0  0  0  0  0  0  0  0  0  0  0  0
  -29.9564  -20.0833   21.6900 C   0  0  0  0  0  0  0  0  0  0  0  0
  -30.0634  -19.5728   19.2202 C   0  0  0  0  0  0  0  0  0  0  0  0
  -30.2068  -24.4115   21.5318 C   0  0  0  0  0  0  0  0  0  0  0  0
  -30.5103  -21.4825   21.4063 C   0  0  0  0  0  0  0  0  0  0  0  0
  -30.6392  -20.9672   18.9914 C   0  0  0  0  0  0  0  0  0  0  0  0
  -27.9932  -24.8619   20.5237 C   0  0  0  0  0  0  0  0  0  0  0  0
  -21.3482  -21.9738   21.3503 C   0  0  1  0  0  0  0  0  0  0  0  0
  -18.9482  -19.3767   19.9615 C   0  0  1  0  0  0  0  0  0  0  0  0
  -28.4474  -26.2531   20.0556 C   0  0  1  0  0  0  0  0  0  0  0  0
  -30.3995  -19.0731   20.6283 C   0  0  0  0  0  0  0  0  0  0  0  0
  -13.2842  -14.0091   20.6712 C   0  0  0  0  0  0  0  0  0  0  0  0
  -17.2604  -18.4880   24.1712 C   0  0  0  0  0  0  0  0  0  0  0  0
  -15.4901  -16.7205   24.2725 C   0  0  0  0  0  0  0  0  0  0  0  0
  -14.9498  -18.9727   23.3461 C   0  0  0  0  0  0  0  0  0  0  0  0
  -14.8707  -16.0638   17.8895 C   0  0  0  0  0  0  0  0  0  0  0  0
  -24.2609  -13.0909   21.2344 C   0  0  0  0  0  0  0  0  0  0  0  0
  -22.9300  -13.7936   21.0135 C   0  0  0  0  0  0  0  0  0  1  0  0
  -16.3932  -17.3925   22.0001 C   0  0  1  0  0  0  0  0  0  0  0  0
  -13.9623  -15.2254   20.0599 C   0  0  2  0  0  0  0  0  0  0  0  0
  -16.0470  -17.8894   23.4321 C   0  0  0  0  0  0  0  0  0  0  0  0
  -26.9604  -27.9890   20.9813 N   0  0  0  0  0  0  0  0  0  0  0  0
  -27.2815  -27.2160   19.9300 N   0  0  0  0  0  0  0  0  0  0  0  0
  -18.2603  -18.2740   20.6360 N   0  0  0  0  0  0  0  0  0  0  0  0
  -29.1345  -23.9516   20.6385 N   0  0  0  0  0  0  0  0  0  0  0  0
  -30.1981  -21.8968   20.0313 N   0  0  0  0  0  0  0  0  0  0  0  0
  -26.6672  -26.7118   17.6986 N   0  0  0  0  0  0  0  0  0  0  0  0
  -24.8114  -30.0187   17.5806 N   0  0  0  0  0  0  0  0  0  0  0  0
  -26.6812  -13.3245   21.2542 N   0  0  0  0  0  0  0  0  0  0  0  0
  -29.8014  -17.7837   20.8721 N   0  0  0  0  0  0  0  0  0  0  0  0
  -20.4730  -21.1701   20.5240 N   0  0  0  0  0  0  0  0  0  0  0  0
  -15.2570  -16.8454   21.2665 N   0  0  0  0  0  0  0  0  0  0  0  0
  -14.2265  -14.9425   18.6208 N   0  3  0  0  0  0  0  0  0  0  0  0
  -23.3805  -28.4018   18.3531 O   0  0  0  0  0  0  0  0  0  0  0  0
  -31.5517  -16.5112   20.0383 O   0  0  0  0  0  0  0  0  0  0  0  0
  -19.8500  -19.6049   22.1316 O   0  0  0  0  0  0  0  0  0  0  0  0
  -16.2905  -19.4926   20.9021 O   0  0  0  0  0  0  0  0  0  0  0  0
  -25.3384  -15.1916   20.7395 O   0  0  0  0  0  0  0  0  0  0  0  0
  -16.1767  -14.7484   20.9004 O   0  0  0  0  0  0  0  0  0  0  0  0
  -28.6400  -22.8905   18.6529 O   0  0  0  0  0  0  0  0  0  0  0  0
  -23.4170  -32.4330   23.8532 O   0  0  0  0  0  0  0  0  0  0  0  0
  -22.8617  -14.2659   19.6743 O   0  0  0  0  0  0  0  0  0  1  0  0
  -26.0123  -37.2174   24.7351 F   0  0  0  0  0  0  0  0  0  0  0  0
  -25.9241  -32.4932   25.0166 F   0  0  0  0  0  0  0  0  0  0  0  0
  -30.5358  -13.9213   21.2306 S   0  0  0  0  0  0  0  0  0  0  0  0
  1  2  1  0  0  0  0
  1  5  2  0  0  0  0
  2  6  2  0  0  0  0
  3  8  2  0  0  0  0
  3 17  1  0  0  0  0
  4  9  1  0  0  0  0
  4 17  2  0  0  0  0
  5 19  1  0  0  0  0
  6 21  1  0  0  0  0
  7 10  2  0  0  0  0
  7 20  1  0  0  0  0
  8 24  1  0  0  0  0
  9 24  2  0  0  0  0
 10 25  1  0  0  0  0
 11 12  2  0  0  0  0
 11 26  1  0  0  0  0
 12 27  1  0  0  0  0
 13 22  1  0  0  0  0
 13 25  2  0  0  0  0
 14 23  1  0  0  0  0
 14 30  2  0  0  0  0
 15 27  2  0  0  0  0
 15 28  1  0  0  0  0
 16 23  2  0  0  0  0
 16 89  1  0  0  0  0
 17 29  1  0  0  0  0
 18 29  1  0  0  0  0
 18 31  2  0  0  0  0
 18 32  1  0  0  0  0
 19 21  2  0  0  0  0
 19 39  1  0  0  0  0
 20 22  2  0  0  0  0
 20 40  1  0  0  0  0
 21 52  1  0  0  0  0
 22 41  1  0  0  0  0
 23 73  1  0  0  0  0
 24 85  1  0  0  0  0
 25 86  1  0  0  0  0
 26 28  2  0  0  0  0
 26 85  1  0  0  0  0
 27 87  1  0  0  0  0
 28 88  1  0  0  0  0
 29 66  2  0  0  0  0
 30 33  1  0  0  0  0
 30 89  1  0  0  0  0
 31 67  1  0  0  0  0
 31 71  1  0  0  0  0
 32 72  1  0  0  0  0
 32 78  2  0  0  0  0
 33 74  1  0  0  0  0
 33 79  2  0  0  0  0
 34 53  1  0  0  0  0
 34 75  1  0  0  0  0
 34 80  2  0  0  0  0
 35 63  1  0  0  0  0
 35 68  1  0  0  0  0
 35 81  2  0  0  0  0
 36 61  1  0  0  0  0
 36 73  1  0  0  0  0
 36 82  2  0  0  0  0
 37 64  1  0  0  0  0
 37 76  1  0  0  0  0
 37 83  2  0  0  0  0
 38 69  1  0  0  0  0
 38 70  1  0  0  0  0
 38 84  2  0  0  0  0
 39 42  1  0  0  0  0
 40 53  1  0  0  0  0
 41 68  1  0  0  0  0
 42 44  1  0  0  0  0
 43 45  1  0  0  0  0
 43 48  1  0  0  0  0
 44 52  1  0  0  0  0
 45 54  1  0  0  0  0
 46 49  1  0  0  0  0
 46 55  1  0  0  0  0
 47 50  1  0  0  0  0
 47 55  1  0  0  0  0
 48 69  1  0  0  0  0
 49 70  1  0  0  0  0
 50 70  1  0  0  0  0
 51 54  1  0  0  0  0
 51 69  1  0  0  0  0
 52 75  1  0  0  0  0
 53 68  1  0  0  0  0
 54 67  1  0  0  0  0
 55 74  1  0  0  0  0
 56 64  1  0  0  0  0
 57 65  1  0  0  0  0
 58 65  1  0  0  0  0
 59 65  1  0  0  0  0
 60 77  1  0  0  0  0
 61 62  1  0  0  0  0
 62 86  1  0  0  0  0
 63 65  1  0  0  0  0
 63 76  1  0  0  0  0
 64 77  1  0  0  0  0
 66 67  1  0  0  0  0
M  CHG  1  77   1
M  ISO  4  38 100  62 101  70 100  86 101
M  END
> <Batch ID>
0150

> <Smiles>
CNC(C)C(=O)NC(C(=O)N1Cc2cc([101O:1][101CH2:1]CC(=O)Nc3csc(C(=O)NC4CC[100N:0]([100C:0](=O)N5CCCC(n6nc(-c7ccc(Oc8ccc(F)cc8F)cc7)c(C(N)=O)c6N)C5)CC4)c3)ccc2CC1C(=O)NC1CCCc2ccccc21)C(C)(C)C

> <Shape>
0.226

> <Color>
0.073

> <Negative vol penalty>
0.000

$$$$

  -OEChem-04052303213D

 83 92  0     1  0  0  0  0  0999 V2000
  -27.3083  -24.0761   17.5321 C   0  0  0  0  0  0  0  0  0  0  0  0
  -26.1221  -24.5201   18.1077 C   0  0  0  0  0  0  0  0  0  0  0  0
  -26.8170  -18.0335   21.1670 C   0  0  0  0  0  0  0  0  0  0  0  0
  -26.3203  -20.3804   21.4536 C   0  0  0  0  0  0  0  0  0  0  0  0
  -28.5313  -24.4124   18.1110 C   0  0  0  0  0  0  0  0  0  0  0  0
  -26.1582  -25.2998   19.2632 C   0  0  0  0  0  0  0  0  0  0  0  0
  -23.0143  -29.2630   19.0316 C   0  0  0  0  0  0  0  0  0  0  0  0
  -28.0099  -18.3644   20.5244 C   0  0  0  0  0  0  0  0  0  0  0  0
  -27.5133  -20.7114   20.8110 C   0  0  0  0  0  0  0  0  0  0  0  0
  -21.6599  -29.0149   19.2501 C   0  0  0  0  0  0  0  0  0  0  0  0
  -31.0142  -18.5950   18.4885 C   0  0  0  0  0  0  0  0  0  0  0  0
  -31.3350  -17.9066   17.3186 C   0  0  0  0  0  0  0  0  0  0  0  0
  -16.1995  -23.4565   20.7660 C   0  0  0  0  0  0  0  0  0  0  0  0
  -16.6313  -22.1114   20.5805 C   0  0  0  0  0  0  0  0  0  0  0  0
  -21.8884  -29.7995   21.5197 C   0  0  0  0  0  0  0  0  0  0  0  0
  -29.3053  -18.7145   16.2867 C   0  0  0  0  0  0  0  0  0  0  0  0
  -25.9721  -19.0415   21.6315 C   0  0  0  0  0  0  0  0  0  0  0  0
  -24.5455  -18.4911   23.6735 C   0  0  0  0  0  0  0  0  0  0  0  0
  -28.5828  -25.2046   19.2687 C   0  0  0  0  0  0  0  0  0  0  0  0
  -23.8197  -29.7719   20.0606 C   0  0  0  0  0  0  0  0  0  0  0  0
  -27.3830  -25.6458   19.8588 C   0  0  0  0  0  0  0  0  0  0  0  0
  -23.2522  -30.0556   21.3110 C   0  0  0  0  0  0  0  0  0  0  0  0
  -28.3581  -19.7033   20.3464 C   0  0  0  0  0  0  0  0  0  0  0  0
  -21.0974  -29.2805   20.4951 C   0  0  0  0  0  0  0  0  0  0  0  0
  -29.8389  -19.3431   18.5576 C   0  0  0  0  0  0  0  0  0  0  0  0
  -30.4806  -17.9664   16.2177 C   0  0  0  0  0  0  0  0  0  0  0  0
  -28.9845  -19.4029   17.4567 C   0  0  0  0  0  0  0  0  0  0  0  0
  -24.7394  -18.7003   22.2949 C   0  0  0  0  0  0  0  0  0  0  0  0
  -23.2095  -18.1948   23.7913 C   0  0  0  0  0  0  0  0  0  0  0  0
  -17.2218  -24.2735   21.1959 C   0  0  0  0  0  0  0  0  0  0  0  0
  -17.9675  -21.9517   20.8757 C   0  0  0  0  0  0  0  0  0  0  0  0
  -17.0153  -28.2006   22.5928 C   0  0  0  0  0  0  0  0  0  0  0  0
  -18.1618  -27.8239   22.0027 C   0  0  0  0  0  0  0  0  0  0  0  0
  -25.4887  -18.5587   24.7512 C   0  0  0  0  0  0  0  0  0  0  0  0
  -26.3754  -28.7255   21.6346 C   0  0  0  0  0  0  0  0  0  0  0  0
  -26.2980  -31.6907   22.9475 C   0  0  0  0  0  0  0  0  0  0  0  0
  -24.4677  -34.4573   23.7495 C   0  0  0  0  0  0  0  0  0  0  0  0
  -18.4273  -19.5101   20.4587 C   0  0  0  0  0  0  0  0  0  0  0  0
  -29.9266  -25.5028   19.8851 C   0  0  0  0  0  0  0  0  0  0  0  0
  -25.2732  -30.0591   19.8009 C   0  0  0  0  0  0  0  0  0  0  0  0
  -24.0692  -30.6215   22.4427 C   0  0  0  0  0  0  0  0  0  0  0  0
  -15.7709  -27.3707   22.5454 C   0  0  0  0  0  0  0  0  0  0  0  0
  -18.3055  -26.5049   21.2781 C   0  0  0  0  0  0  0  0  0  0  0  0
  -29.8927  -26.6457   20.8965 C   0  0  0  0  0  0  0  0  0  0  0  0
  -19.5736  -16.2588   21.3487 C   0  0  0  0  0  0  0  0  0  0  0  0
  -28.7164  -26.4773   21.8530 C   0  0  0  0  0  0  0  0  0  0  0  0
  -21.0087  -16.4977   21.8236 C   0  0  0  0  0  0  0  0  0  0  0  0
  -15.8226  -26.2965   21.4602 C   0  0  0  0  0  0  0  0  0  0  0  0
  -19.2053  -17.1670   20.1769 C   0  0  0  0  0  0  0  0  0  0  0  0
  -20.8742  -18.8378   20.8786 C   0  0  0  0  0  0  0  0  0  0  0  0
  -27.3820  -26.5142   21.0982 C   0  0  1  0  0  0  0  0  0  0  0  0
  -26.1121  -30.0947   21.0746 C   0  0  1  0  0  0  0  0  0  0  0  0
  -21.2696  -17.9915   22.0997 C   0  0  2  0  0  0  0  0  0  0  0  0
  -24.6715  -36.7029   24.8509 C   0  0  0  0  0  0  0  0  0  0  0  0
  -26.3234  -30.3431   25.6849 C   0  0  0  0  0  0  0  0  0  0  0  0
  -25.5772  -32.5144   26.6834 C   0  0  0  0  0  0  0  0  0  0  0  0
  -27.7730  -32.3733   25.5081 C   0  0  0  0  0  0  0  0  0  0  0  0
  -23.6924  -35.8734   21.2691 C   0  0  0  0  0  0  0  0  0  0  0  0
  -19.3882  -28.6883   22.0391 C   0  0  0  0  0  0  0  0  0  1  0  0
  -25.6373  -32.3077   24.1566 C   0  0  1  0  0  0  0  0  0  0  0  0
  -24.7336  -35.9369   23.5386 C   0  0  2  0  0  0  0  0  0  0  0  0
  -26.3125  -31.8721   25.4877 C   0  0  0  0  0  0  0  0  0  0  0  0
  -23.6165  -18.5495   21.5875 N   0  0  0  0  0  0  0  0  0  0  0  0
  -22.7042  -18.2424   22.5253 N   0  0  0  0  0  0  0  0  0  0  0  0
  -17.1330  -25.6401   21.4710 N   0  0  1  0  0  0  0  0  0  0  0  0
  -25.4871  -30.8793   22.1414 N   0  0  0  0  0  0  0  0  0  0  0  0
  -19.4752  -18.5668   20.5124 N   0  0  0  0  0  0  0  0  0  0  0  0
  -22.4295  -17.9008   24.8531 N   0  0  0  0  0  0  0  0  0  0  0  0
  -26.8211  -18.8762   24.4541 N   0  0  0  0  0  0  0  0  0  0  0  0
  -18.7955  -20.8027   20.8305 N   0  0  0  0  0  0  0  0  0  0  0  0
  -27.0291  -27.8768   20.7618 N   0  0  0  0  0  0  0  0  0  0  0  0
  -25.6368  -33.7490   23.9305 N   0  0  0  0  0  0  0  0  0  0  0  0
  -23.7247  -36.5169   22.6077 N   0  3  0  0  0  0  0  0  0  0  0  0
  -25.1631  -18.3277   25.9404 O   0  0  0  0  0  0  0  0  0  0  0  0
  -26.0136  -28.4592   22.7748 O   0  0  0  0  0  0  0  0  0  0  0  0
  -27.4878  -31.9260   22.7225 O   0  0  0  0  0  0  0  0  0  0  0  0
  -23.3359  -33.9783   23.7569 O   0  0  0  0  0  0  0  0  0  0  0  0
  -17.2810  -19.1890   20.1349 O   0  0  0  0  0  0  0  0  0  0  0  0
  -29.5222  -20.0266   19.7196 O   0  0  0  0  0  0  0  0  0  0  0  0
  -19.7757  -29.0386   20.7112 O   0  0  0  0  0  0  0  0  0  1  0  0
  -30.7896  -17.3066   15.0937 F   0  0  0  0  0  0  0  0  0  0  0  0
  -27.8546  -20.1209   17.5167 F   0  0  0  0  0  0  0  0  0  0  0  0
  -18.6952  -23.4193   21.3743 S   0  0  0  0  0  0  0  0  0  0  0  0
  1  2  1  0  0  0  0
  1  5  2  0  0  0  0
  2  6  2  0  0  0  0
  3  8  2  0  0  0  0
  3 17  1  0  0  0  0
  4  9  1  0  0  0  0
  4 17  2  0  0  0  0
  5 19  1  0  0  0  0
  6 21  1  0  0  0  0
  7 10  2  0  0  0  0
  7 20  1  0  0  0  0
  8 23  1  0  0  0  0
  9 23  2  0  0  0  0
 10 24  1  0  0  0  0
 11 12  2  0  0  0  0
 11 25  1  0  0  0  0
 12 26  1  0  0  0  0
 13 14  1  0  0  0  0
 13 30  2  0  0  0  0
 14 31  2  0  0  0  0
 15 22  1  0  0  0  0
 15 24  2  0  0  0  0
 16 26  2  0  0  0  0
 16 27  1  0  0  0  0
 17 28  1  0  0  0  0
 18 28  1  0  0  0  0
 18 29  2  0  0  0  0
 18 34  1  0  0  0  0
 19 21  2  0  0  0  0
 19 39  1  0  0  0  0
 20 22  2  0  0  0  0
 20 40  1  0  0  0  0
 21 51  1  0  0  0  0
 22 41  1  0  0  0  0
 23 79  1  0  0  0  0
 24 80  1  0  0  0  0
 25 27  2  0  0  0  0
 25 79  1  0  0  0  0
 26 81  1  0  0  0  0
 27 82  1  0  0  0  0
 28 63  2  0  0  0  0
 29 64  1  0  0  0  0
 29 68  1  0  0  0  0
 30 65  1  0  0  0  0
 30 83  1  0  0  0  0
 31 70  1  0  0  0  0
 31 83  1  0  0  0  0
 32 33  2  0  0  0  0
 32 42  1  0  0  0  0
 33 43  1  0  0  0  0
 33 59  1  0  0  0  0
 34 69  1  0  0  0  0
 34 74  2  0  0  0  0
 35 52  1  0  0  0  0
 35 71  1  0  0  0  0
 35 75  2  0  0  0  0
 36 60  1  0  0  0  0
 36 66  1  0  0  0  0
 36 76  2  0  0  0  0
 37 61  1  0  0  0  0
 37 72  1  0  0  0  0
 37 77  2  0  0  0  0
 38 67  1  0  0  0  0
 38 70  1  0  0  0  0
 38 78  2  0  0  0  0
 39 44  1  0  0  0  0
 40 52  1  0  0  0  0
 41 66  1  0  0  0  0
 42 48  1  0  0  0  0
 43 65  1  0  0  0  0
 44 46  1  0  0  0  0
 45 47  1  0  0  0  0
 45 49  1  0  0  0  0
 46 51  1  0  0  0  0
 47 53  1  0  0  0  0
 48 65  1  0  0  0  0
 49 67  1  0  0  0  0
 50 53  1  0  0  0  0
 50 67  1  0  0  0  0
 51 71  1  0  0  0  0
 52 66  1  0  0  0  0
 53 64  1  0  0  0  0
 54 61  1  0  0  0  0
 55 62  1  0  0  0  0
 56 62  1  0  0  0  0
 57 62  1  0  0  0  0
 58 73  1  0  0  0  0
 59 80  1  0  0  0  0
 60 62  1  0  0  0  0
 60 72  1  0  0  0  0
 61 73  1  0  0  0  0
 63 64  1  0  0  0  0
M  CHG  1  73   1
M  ISO  4  38 100  59 101  70 100  80 101
M  END
> <Batch ID>
0150

> <Smiles>
CNC(C)C(=O)NC(C(=O)N1Cc2cc([101O:1][101CH2:1]C3=CCCN(c4ccc([100NH:0][100C:0](=O)N5CCCC(n6nc(-c7ccc(Oc8ccc(F)cc8F)cc7)c(C(N)=O)c6N)C5)s4)C3)ccc2CC1C(=O)NC1CCCc2ccccc21)C(C)(C)C

> <Shape>
0.231

> <Color>
0.066

> <Negative vol penalty>
0.000

$$$$

  -OEChem-04052303213D

 86 95  0     1  0  0  0  0  0999 V2000
  -34.6439  -26.3915   30.6899 C   0  0  0  0  0  0  0  0  0  0  0  0
  -34.0357  -25.1405   30.7159 C   0  0  0  0  0  0  0  0  0  0  0  0
  -23.2864   -9.8010   19.9139 C   0  0  0  0  0  0  0  0  0  0  0  0
  -23.7377   -9.9426   22.2831 C   0  0  0  0  0  0  0  0  0  0  0  0
  -33.9622  -27.4859   30.1594 C   0  0  0  0  0  0  0  0  0  0  0  0
  -32.7449  -24.9836   30.2123 C   0  0  0  0  0  0  0  0  0  0  0  0
  -32.2829  -20.8664   27.3002 C   0  0  0  0  0  0  0  0  0  0  0  0
  -32.8144  -12.2717   23.6880 C   0  0  0  0  0  0  0  0  0  0  0  0
  -33.5868  -11.9573   24.8061 C   0  0  0  0  0  0  0  0  0  0  0  0
  -22.5597   -8.6288   20.1223 C   0  0  0  0  0  0  0  0  0  0  0  0
  -23.0109   -8.7704   22.4916 C   0  0  0  0  0  0  0  0  0  0  0  0
  -32.1717  -19.6371   27.9486 C   0  0  0  0  0  0  0  0  0  0  0  0
  -19.4781   -7.7700   21.2175 C   0  0  0  0  0  0  0  0  0  0  0  0
  -18.2489   -7.6456   20.5701 C   0  0  0  0  0  0  0  0  0  0  0  0
  -30.8882  -12.5964   25.1099 C   0  0  0  0  0  0  0  0  0  0  0  0
  -29.7826  -19.6858   27.6181 C   0  0  0  0  0  0  0  0  0  0  0  0
  -19.0495   -5.6720   19.4294 C   0  0  0  0  0  0  0  0  0  0  0  0
  -23.8755  -10.4579   20.9943 C   0  0  0  0  0  0  0  0  0  0  0  0
  -31.6606  -12.2818   26.2280 C   0  0  0  0  0  0  0  0  0  0  0  0
  -24.1358  -12.9877   20.7944 C   0  0  0  0  0  0  0  0  0  0  0  0
  -32.6661  -27.3403   29.6403 C   0  0  0  0  0  0  0  0  0  0  0  0
  -31.1417  -21.5208   26.8148 C   0  0  0  0  0  0  0  0  0  0  0  0
  -32.0447  -26.0773   29.6756 C   0  0  0  0  0  0  0  0  0  0  0  0
  -29.8823  -20.9220   26.9617 C   0  0  0  0  0  0  0  0  0  0  0  0
  -31.4651  -12.5913   23.8399 C   0  0  0  0  0  0  0  0  0  0  0  0
  -33.0099  -11.9623   26.0761 C   0  0  0  0  0  0  0  0  0  0  0  0
  -22.4219   -8.1136   21.4112 C   0  0  0  0  0  0  0  0  0  0  0  0
  -30.9212  -19.0480   28.1102 C   0  0  0  0  0  0  0  0  0  0  0  0
  -20.4931   -6.8455   20.9708 C   0  0  0  0  0  0  0  0  0  0  0  0
  -18.0346   -6.5966   19.6761 C   0  0  0  0  0  0  0  0  0  0  0  0
  -20.2787   -5.7965   20.0768 C   0  0  0  0  0  0  0  0  0  0  0  0
  -24.6268  -11.6684   20.7795 C   0  0  0  0  0  0  0  0  0  0  0  0
  -25.2374  -13.7671   20.5388 C   0  0  0  0  0  0  0  0  0  0  0  0
  -31.5858  -14.5821   27.8315 C   0  0  0  0  0  0  0  0  0  0  0  0
  -31.4428  -15.5494   28.7428 C   0  0  0  0  0  0  0  0  0  0  0  0
  -31.0276  -12.2929   27.5589 C   0  0  0  0  0  0  0  0  0  0  0  0
  -22.8029  -13.4659   21.0193 C   0  0  0  0  0  0  0  0  0  0  0  0
  -29.7177  -24.2964   27.4248 C   0  0  0  0  0  0  0  0  0  0  0  0
  -27.8312  -23.4319   24.9315 C   0  0  0  0  0  0  0  0  0  0  0  0
  -26.5522  -20.9272   22.9984 C   0  0  0  0  0  0  0  0  0  0  0  0
  -31.0977  -12.9511   21.3738 C   0  0  0  0  0  0  0  0  0  0  0  0
  -31.9508  -28.5621   29.1203 C   0  0  0  0  0  0  0  0  0  0  0  0
  -31.2814  -22.8336   26.0941 C   0  0  0  0  0  0  0  0  0  0  0  0
  -28.6285  -21.5740   26.4407 C   0  0  0  0  0  0  0  0  0  0  0  0
  -30.7117  -15.0347   29.9504 C   0  0  0  0  0  0  0  0  0  0  0  0
  -30.7295  -28.2349   28.2650 C   0  0  0  0  0  0  0  0  0  0  0  0
  -29.4638  -13.6546   18.2895 C   0  0  0  0  0  0  0  0  0  0  0  0
  -29.8733  -27.1696   28.9423 C   0  0  0  0  0  0  0  0  0  0  0  0
  -27.9925  -13.3510   18.5812 C   0  0  0  0  0  0  0  0  0  0  0  0
  -30.4326  -13.5627   29.6056 C   0  0  0  0  0  0  0  0  0  0  0  0
  -30.3968  -12.6794   19.0052 C   0  0  0  0  0  0  0  0  0  0  0  0
  -28.7038  -12.2528   20.7433 C   0  0  0  0  0  0  0  0  0  0  0  0
  -30.6551  -25.8619   29.1163 C   0  0  1  0  0  0  0  0  0  0  0  0
  -29.9961  -23.6554   26.0947 C   0  0  1  0  0  0  0  0  0  0  0  0
  -27.7277  -13.2487   20.0961 C   0  0  2  0  0  0  0  0  0  0  0  0
  -25.0087  -20.5269   21.0607 C   0  0  0  0  0  0  0  0  0  0  0  0
  -25.4276  -23.8815   26.7564 C   0  0  0  0  0  0  0  0  0  0  0  0
  -24.0363  -22.5865   25.1269 C   0  0  0  0  0  0  0  0  0  0  0  0
  -25.1307  -24.7125   24.4164 C   0  0  0  0  0  0  0  0  0  0  0  0
  -28.7192  -19.7431   21.3671 C   0  0  0  0  0  0  0  0  0  0  0  0
  -31.9161  -16.9534   28.6380 C   0  0  0  0  0  0  0  0  0  1  0  0
  -26.5479  -22.6511   24.7823 C   0  0  1  0  0  0  0  0  0  0  0  0
  -26.4464  -20.7713   21.4921 C   0  0  2  0  0  0  0  0  0  0  0  0
  -25.3088  -23.4463   25.2822 C   0  0  0  0  0  0  0  0  0  0  0  0
  -25.9384  -11.6092   20.5337 N   0  0  0  0  0  0  0  0  0  0  0  0
  -26.2807  -12.9010   20.3917 N   0  0  0  0  0  0  0  0  0  0  0  0
  -31.0246  -13.4060   28.2655 N   0  0  0  0  0  0  0  0  0  0  0  0
  -28.8164  -22.8598   25.7488 N   0  0  0  0  0  0  0  0  0  0  0  0
  -30.0903  -12.6383   20.4367 N   0  0  0  0  0  0  0  0  0  0  0  0
  -33.8076  -11.6403   27.1962 N   0  0  0  0  0  0  0  0  0  0  0  0
  -25.4058  -15.1019   20.4277 N   0  0  0  0  0  0  0  0  0  0  0  0
  -21.7901  -12.5294   21.2674 N   0  0  0  0  0  0  0  0  0  0  0  0
  -30.6807  -12.9103   22.7038 N   0  0  0  0  0  0  0  0  0  0  0  0
  -30.7196  -25.1411   27.8630 N   0  0  0  0  0  0  0  0  0  0  0  0
  -26.4749  -22.2494   23.3817 N   0  0  0  0  0  0  0  0  0  0  0  0
  -30.4679  -11.1806   28.0255 N   0  3  0  0  0  0  0  0  0  0  0  0
  -27.2772  -19.6235   21.0304 N   0  3  0  0  0  0  0  0  0  0  0  0
  -22.5155  -14.6864   20.9844 O   0  0  0  0  0  0  0  0  0  0  0  0
  -28.6706  -24.0445   28.0095 O   0  0  0  0  0  0  0  0  0  0  0  0
  -27.9578  -24.5063   24.3389 O   0  0  0  0  0  0  0  0  0  0  0  0
  -26.6860  -19.9712   23.7592 O   0  0  0  0  0  0  0  0  0  0  0  0
  -32.2385  -13.2608   21.0210 O   0  0  0  0  0  0  0  0  0  0  0  0
  -21.7126   -6.9699   21.6150 O   0  0  0  0  0  0  0  0  0  0  0  0
  -30.8097  -17.8485   28.7432 O   0  0  0  0  0  0  0  0  0  1  0  0
  -16.8536   -6.4764   19.0556 F   0  0  0  0  0  0  0  0  0  0  0  0
  -21.2496   -4.9045   19.8367 F   0  0  0  0  0  0  0  0  0  0  0  0
  1  2  1  0  0  0  0
  1  5  2  0  0  0  0
  2  6  2  0  0  0  0
  3 10  2  0  0  0  0
  3 18  1  0  0  0  0
  4 11  1  0  0  0  0
  4 18  2  0  0  0  0
  5 21  1  0  0  0  0
  6 23  1  0  0  0  0
  7 12  2  0  0  0  0
  7 22  1  0  0  0  0
  8  9  2  0  0  0  0
  8 25  1  0  0  0  0
  9 26  1  0  0  0  0
 10 27  1  0  0  0  0
 11 27  2  0  0  0  0
 12 28  1  0  0  0  0
 13 14  2  0  0  0  0
 13 29  1  0  0  0  0
 14 30  1  0  0  0  0
 15 19  1  0  0  0  0
 15 25  2  0  0  0  0
 16 24  1  0  0  0  0
 16 28  2  0  0  0  0
 17 30  2  0  0  0  0
 17 31  1  0  0  0  0
 18 32  1  0  0  0  0
 19 26  2  0  0  0  0
 19 36  1  0  0  0  0
 20 32  1  0  0  0  0
 20 33  2  0  0  0  0
 20 37  1  0  0  0  0
 21 23  2  0  0  0  0
 21 42  1  0  0  0  0
 22 24  2  0  0  0  0
 22 43  1  0  0  0  0
 23 53  1  0  0  0  0
 24 44  1  0  0  0  0
 25 73  1  0  0  0  0
 26 70  1  0  0  0  0
 27 83  1  0  0  0  0
 28 84  1  0  0  0  0
 29 31  2  0  0  0  0
 29 83  1  0  0  0  0
 30 85  1  0  0  0  0
 31 86  1  0  0  0  0
 32 65  2  0  0  0  0
 33 66  1  0  0  0  0
 33 71  1  0  0  0  0
 34 35  2  0  0  0  0
 34 67  1  0  0  0  0
 35 45  1  0  0  0  0
 35 61  1  0  0  0  0
 36 67  1  0  0  0  0
 36 76  2  0  0  0  0
 37 72  1  0  0  0  0
 37 78  2  0  0  0  0
 38 54  1  0  0  0  0
 38 74  1  0  0  0  0
 38 79  2  0  0  0  0
 39 62  1  0  0  0  0
 39 68  1  0  0  0  0
 39 80  2  0  0  0  0
 40 63  1  0  0  0  0
 40 75  1  0  0  0  0
 40 81  2  0  0  0  0
 41 69  1  0  0  0  0
 41 73  1  0  0  0  0
 41 82  2  0  0  0  0
 42 46  1  0  0  0  0
 43 54  1  0  0  0  0
 44 68  1  0  0  0  0
 45 50  1  0  0  0  0
 46 48  1  0  0  0  0
 47 49  1  0  0  0  0
 47 51  1  0  0  0  0
 48 53  1  0  0  0  0
 49 55  1  0  0  0  0
 50 67  1  0  0  0  0
 51 69  1  0  0  0  0
 52 55  1  0  0  0  0
 52 69  1  0  0  0  0
 53 74  1  0  0  0  0
 54 68  1  0  0  0  0
 55 66  1  0  0  0  0
 56 63  1  0  0  0  0
 57 64  1  0  0  0  0
 58 64  1  0  0  0  0
 59 64  1  0  0  0  0
 60 77  1  0  0  0  0
 61 84  1  0  0  0  0
 62 64  1  0  0  0  0
 62 75  1  0  0  0  0
 63 77  1  0  0  0  0
 65 66  1  0  0  0  0
M  CHG  2  76   1  77   1
M  ISO  4  41 100  61 101  73 100  84 101
M  END
> <Batch ID>
0150

> <Smiles>
CNC(C)C(=O)NC(C(=O)N1Cc2cc([101O:1][101CH2:1]C3=CN(C(=N)c4cc([100NH:0][100C:0](=O)N5CCCC(n6nc(-c7ccc(Oc8ccc(F)cc8F)cc7)c(C(N)=O)c6N)C5)ccc4N)CC3)ccc2CC1C(=O)NC1CCCc2ccccc21)C(C)(C)C

> <Shape>
0.125

> <Color>
0.164

> <Negative vol penalty>
0.000

$$$$

  -OEChem-04052303213D

 84 93  0     1  0  0  0  0  0999 V2000
  -27.1919  -31.2228   26.0939 C   0  0  0  0  0  0  0  0  0  0  0  0
  -26.6715  -30.2555   25.2402 C   0  0  0  0  0  0  0  0  0  0  0  0
  -22.9935   -9.8775   19.9926 C   0  0  0  0  0  0  0  0  0  0  0  0
  -23.7115   -9.9494   22.2984 C   0  0  0  0  0  0  0  0  0  0  0  0
  -28.4984  -31.6766   25.9174 C   0  0  0  0  0  0  0  0  0  0  0  0
  -27.4569  -29.7422   24.2087 C   0  0  0  0  0  0  0  0  0  0  0  0
  -27.1329  -24.7016   23.8442 C   0  0  0  0  0  0  0  0  0  0  0  0
  -22.2229   -8.7479   20.2678 C   0  0  0  0  0  0  0  0  0  0  0  0
  -22.9408   -8.8198   22.5736 C   0  0  0  0  0  0  0  0  0  0  0  0
  -25.9962  -24.1795   23.2287 C   0  0  0  0  0  0  0  0  0  0  0  0
  -23.1771   -5.4757   22.1358 C   0  0  0  0  0  0  0  0  0  0  0  0
  -23.7594   -4.4644   22.8999 C   0  0  0  0  0  0  0  0  0  0  0  0
  -27.8630  -17.5936   20.4384 C   0  0  0  0  0  0  0  0  0  0  0  0
  -26.8145  -18.5528   20.5416 C   0  0  0  0  0  0  0  0  0  0  0  0
  -27.2473  -23.8764   21.1886 C   0  0  0  0  0  0  0  0  0  0  0  0
  -22.0308   -4.7289   24.5671 C   0  0  0  0  0  0  0  0  0  0  0  0
  -23.7378  -10.4783   21.0079 C   0  0  0  0  0  0  0  0  0  0  0  0
  -24.1309  -12.9909   20.8080 C   0  0  0  0  0  0  0  0  0  0  0  0
  -29.3035  -31.1616   24.8892 C   0  0  0  0  0  0  0  0  0  0  0  0
  -28.3346  -24.8254   23.1321 C   0  0  0  0  0  0  0  0  0  0  0  0
  -28.7749  -30.1904   24.0174 C   0  0  0  0  0  0  0  0  0  0  0  0
  -28.3986  -24.3980   21.7982 C   0  0  0  0  0  0  0  0  0  0  0  0
  -22.1965   -8.2191   21.5583 C   0  0  0  0  0  0  0  0  0  0  0  0
  -26.0524  -23.7695   21.8999 C   0  0  0  0  0  0  0  0  0  0  0  0
  -22.0218   -6.1137   22.5873 C   0  0  0  0  0  0  0  0  0  0  0  0
  -23.1862   -4.0910   24.1155 C   0  0  0  0  0  0  0  0  0  0  0  0
  -21.4486   -5.7402   23.8029 C   0  0  0  0  0  0  0  0  0  0  0  0
  -24.5345  -11.6448   20.7241 C   0  0  0  0  0  0  0  0  0  0  0  0
  -28.8956  -17.8600   21.3104 C   0  0  0  0  0  0  0  0  0  0  0  0
  -25.2438  -13.7067   20.4400 C   0  0  0  0  0  0  0  0  0  0  0  0
  -27.0856  -19.5157   21.4889 C   0  0  0  0  0  0  0  0  0  0  0  0
  -22.8632  -13.5447   21.1850 C   0  0  0  0  0  0  0  0  0  0  0  0
  -30.1951  -27.2567   22.2770 C   0  0  0  0  0  0  0  0  0  0  0  0
  -32.1500  -24.8868   21.2357 C   0  0  0  0  0  0  0  0  0  0  0  0
  -32.4792  -21.6631   20.1652 C   0  0  0  0  0  0  0  0  0  0  0  0
  -30.6682  -14.6983   20.7093 C   0  0  0  0  0  0  0  0  0  0  0  0
  -30.6938  -31.7173   24.7084 C   0  0  0  0  0  0  0  0  0  0  0  0
  -29.5591  -25.3658   23.8185 C   0  0  0  0  0  0  0  0  0  0  0  0
  -29.6699  -24.4910   20.9959 C   0  0  0  0  0  0  0  0  0  0  0  0
  -31.5858  -30.8507   23.8232 C   0  0  0  0  0  0  0  0  0  0  0  0
  -29.6148  -12.2241   18.3733 C   0  0  0  0  0  0  0  0  0  0  0  0
  -30.8397  -30.4326   22.5602 C   0  0  0  0  0  0  0  0  0  0  0  0
  -28.1707  -11.9392   18.7922 C   0  0  0  0  0  0  0  0  0  0  0  0
  -30.5109  -12.4817   19.5824 C   0  0  0  0  0  0  0  0  0  0  0  0
  -28.5753  -13.2565   20.9141 C   0  0  0  0  0  0  0  0  0  0  0  0
  -29.6041  -29.5913   22.9022 C   0  0  1  0  0  0  0  0  0  0  0  0
  -30.1436  -17.0207   21.4304 C   0  0  1  0  0  0  0  0  0  0  0  0
  -30.5927  -25.9235   22.8448 C   0  0  1  0  0  0  0  0  0  0  0  0
  -27.6323  -13.0466   19.7176 C   0  0  2  0  0  0  0  0  0  0  0  0
  -30.4919  -16.2591   22.6827 C   0  0  0  0  0  0  0  0  0  0  0  0
  -29.5640  -16.2440   23.8733 C   0  0  0  0  0  0  0  0  0  0  0  0
  -31.9479  -16.1447   23.0510 C   0  0  0  0  0  0  0  0  0  0  0  0
  -33.6347  -19.5588   19.4343 C   0  0  0  0  0  0  0  0  0  0  0  0
  -22.8718  -22.1319   21.6537 C   0  0  0  0  0  0  0  0  0  0  0  0
  -32.1888  -26.2818   18.5223 C   0  0  0  0  0  0  0  0  0  0  0  0
  -33.0910  -24.1690   17.5271 C   0  0  0  0  0  0  0  0  0  0  0  0
  -34.4019  -25.3854   19.2662 C   0  0  0  0  0  0  0  0  0  0  0  0
  -32.7468  -20.7040   22.9523 C   0  0  0  0  0  0  0  0  0  0  0  0
  -24.9908  -20.8451   21.2237 C   0  0  0  0  0  0  0  0  0  0  0  0
  -32.3147  -24.1283   19.9409 C   0  0  1  0  0  0  0  0  0  0  0  0
  -33.4503  -20.5649   20.5597 C   0  0  2  0  0  0  0  0  0  0  0  0
  -24.3766  -22.0822   21.8747 C   0  0  1  0  0  0  0  0  0  1  0  0
  -32.9745  -24.9910   18.8284 C   0  0  0  0  0  0  0  0  0  0  0  0
  -25.8047  -11.5108   20.3333 N   0  0  0  0  0  0  0  0  0  0  0  0
  -26.2088  -12.7819   20.1683 N   0  0  0  0  0  0  0  0  0  0  0  0
  -30.8384  -25.0320   21.7094 N   0  0  0  0  0  0  0  0  0  0  0  0
  -29.9399  -13.5222   20.4370 N   0  0  0  0  0  0  0  0  0  0  0  0
  -29.9769  -15.5961   21.5190 N   0  0  0  0  0  0  0  0  0  0  0  0
  -25.4814  -15.0306   20.3255 N   0  0  0  0  0  0  0  0  0  0  0  0
  -21.8278  -12.6669   21.5340 N   0  0  0  0  0  0  0  0  0  0  0  0
  -26.2911  -20.5626   21.8249 N   0  0  0  0  0  0  0  0  0  0  0  0
  -29.9906  -28.2358   23.2304 N   0  0  0  0  0  0  0  0  0  0  0  0
  -33.0516  -22.9131   20.2706 N   0  0  0  0  0  0  0  0  0  0  0  0
  -32.9510  -19.8392   21.7617 N   0  3  0  0  0  0  0  0  0  0  0  0
  -22.6500  -14.7808   21.1957 O   0  0  0  0  0  0  0  0  0  0  0  0
  -30.0836  -27.3877   21.0637 O   0  0  0  0  0  0  0  0  0  0  0  0
  -33.1490  -25.3280   21.8094 O   0  0  0  0  0  0  0  0  0  0  0  0
  -31.3293  -21.4346   19.7966 O   0  0  0  0  0  0  0  0  0  0  0  0
  -31.7951  -14.9106   20.2558 O   0  0  0  0  0  0  0  0  0  0  0  0
  -21.4445   -7.1169   21.8272 O   0  0  0  0  0  0  0  0  0  0  0  0
  -24.9380  -23.2573   21.2931 O   0  0  0  0  0  0  0  0  0  1  0  0
  -23.7446   -3.1187   24.8485 F   0  0  0  0  0  0  0  0  0  0  0  0
  -20.3380   -6.3487   24.2414 F   0  0  0  0  0  0  0  0  0  0  0  0
  -28.5990  -19.2615   22.2485 S   0  0  0  0  0  0  0  0  0  0  0  0
  1  2  1  0  0  0  0
  1  5  2  0  0  0  0
  2  6  2  0  0  0  0
  3  8  2  0  0  0  0
  3 17  1  0  0  0  0
  4  9  1  0  0  0  0
  4 17  2  0  0  0  0
  5 19  1  0  0  0  0
  6 21  1  0  0  0  0
  7 10  2  0  0  0  0
  7 20  1  0  0  0  0
  8 23  1  0  0  0  0
  9 23  2  0  0  0  0
 10 24  1  0  0  0  0
 11 12  2  0  0  0  0
 11 25  1  0  0  0  0
 12 26  1  0  0  0  0
 13 14  1  0  0  0  0
 13 29  2  0  0  0  0
 14 31  2  0  0  0  0
 15 22  1  0  0  0  0
 15 24  2  0  0  0  0
 16 26  2  0  0  0  0
 16 27  1  0  0  0  0
 17 28  1  0  0  0  0
 18 28  1  0  0  0  0
 18 30  2  0  0  0  0
 18 32  1  0  0  0  0
 19 21  2  0  0  0  0
 19 37  1  0  0  0  0
 20 22  2  0  0  0  0
 20 38  1  0  0  0  0
 21 46  1  0  0  0  0
 22 39  1  0  0  0  0
 23 80  1  0  0  0  0
 24 81  1  0  0  0  0
 25 27  2  0  0  0  0
 25 80  1  0  0  0  0
 26 82  1  0  0  0  0
 27 83  1  0  0  0  0
 28 64  2  0  0  0  0
 29 47  1  0  0  0  0
 29 84  1  0  0  0  0
 30 65  1  0  0  0  0
 30 69  1  0  0  0  0
 31 71  1  0  0  0  0
 31 84  1  0  0  0  0
 32 70  1  0  0  0  0
 32 75  2  0  0  0  0
 33 48  1  0  0  0  0
 33 72  1  0  0  0  0
 33 76  2  0  0  0  0
 34 60  1  0  0  0  0
 34 66  1  0  0  0  0
 34 77  2  0  0  0  0
 35 61  1  0  0  0  0
 35 73  1  0  0  0  0
 35 78  2  0  0  0  0
 36 67  1  0  0  0  0
 36 68  1  0  0  0  0
 36 79  2  0  0  0  0
 37 40  1  0  0  0  0
 38 48  1  0  0  0  0
 39 66  1  0  0  0  0
 40 42  1  0  0  0  0
 41 43  1  0  0  0  0
 41 44  1  0  0  0  0
 42 46  1  0  0  0  0
 43 49  1  0  0  0  0
 44 67  1  0  0  0  0
 45 49  1  0  0  0  0
 45 67  1  0  0  0  0
 46 72  1  0  0  0  0
 47 50  1  0  0  0  0
 47 68  1  0  0  0  0
 48 66  1  0  0  0  0
 49 65  1  0  0  0  0
 50 51  1  0  0  0  0
 50 52  1  0  0  0  0
 50 68  1  0  0  0  0
 53 61  1  0  0  0  0
 54 62  1  0  0  0  0
 55 63  1  0  0  0  0
 56 63  1  0  0  0  0
 57 63  1  0  0  0  0
 58 74  1  0  0  0  0
 59 62  1  0  0  0  0
 59 71  1  0  0  0  0
 60 63  1  0  0  0  0
 60 73  1  0  0  0  0
 61 74  1  0  0  0  0
 62 81  1  0  0  0  0
 64 65  1  0  0  0  0
M  CHG  1  74   1
M  ISO  4  36 100  62 101  68 100  81 101
M  END
> <Batch ID>
0150

> <Smiles>
CNC(C)C(=O)NC(C(=O)N1Cc2cc([101O:1][101CH:1](C)CNc3ccc(C4[100N:0]([100C:0](=O)N5CCCC(n6nc(-c7ccc(Oc8ccc(F)cc8F)cc7)c(C(N)=O)c6N)C5)C4(C)C)s3)ccc2CC1C(=O)NC1CCCc2ccccc21)C(C)(C)C

> <Shape>
0.256

> <Color>
0.201

> <Negative vol penalty>
0.000

$$$$

  -OEChem-04052303213D

 84 93  0     1  0  0  0  0  0999 V2000
  -15.9175  -31.1474   23.3008 C   0  0  0  0  0  0  0  0  0  0  0  0
  -16.5916  -30.4530   22.3013 C   0  0  0  0  0  0  0  0  0  0  0  0
  -26.5634  -12.7845   21.6498 C   0  0  0  0  0  0  0  0  0  0  0  0
  -26.1244  -13.8088   19.5061 C   0  0  0  0  0  0  0  0  0  0  0  0
  -16.6319  -31.9248   24.2113 C   0  0  0  0  0  0  0  0  0  0  0  0
  -17.9806  -30.5367   22.2112 C   0  0  0  0  0  0  0  0  0  0  0  0
  -28.6490  -23.8357   18.7852 C   0  0  0  0  0  0  0  0  0  0  0  0
  -21.8297  -26.1056   20.4631 C   0  0  0  0  0  0  0  0  0  0  0  0
  -29.1475  -22.7887   19.5603 C   0  0  0  0  0  0  0  0  0  0  0  0
  -25.2944  -12.2059   21.6333 C   0  0  0  0  0  0  0  0  0  0  0  0
  -24.8553  -13.2301   19.4896 C   0  0  0  0  0  0  0  0  0  0  0  0
  -22.4570  -25.8335   19.2481 C   0  0  0  0  0  0  0  0  0  0  0  0
  -22.3066  -10.1656   21.9874 C   0  0  0  0  0  0  0  0  0  0  0  0
  -22.2008   -8.8238   22.3534 C   0  0  0  0  0  0  0  0  0  0  0  0
  -24.4286  -26.9941   20.0128 C   0  0  0  0  0  0  0  0  0  0  0  0
  -28.8289  -21.2675   17.7106 C   0  0  0  0  0  0  0  0  0  0  0  0
  -23.6770   -8.2132   20.5409 C   0  0  0  0  0  0  0  0  0  0  0  0
  -26.9784  -13.5860   20.5863 C   0  0  0  0  0  0  0  0  0  0  0  0
  -29.4813  -13.6343   20.0957 C   0  0  0  0  0  0  0  0  0  0  0  0
  -18.0312  -32.0103   24.1383 C   0  0  0  0  0  0  0  0  0  0  0  0
  -22.4944  -26.8348   21.4596 C   0  0  0  0  0  0  0  0  0  0  0  0
  -18.7143  -31.3170   23.1208 C   0  0  0  0  0  0  0  0  0  0  0  0
  -28.2403  -23.5985   17.4727 C   0  0  0  0  0  0  0  0  0  0  0  0
  -23.8085  -27.2720   21.2405 C   0  0  0  0  0  0  0  0  0  0  0  0
  -29.2376  -21.5046   19.0231 C   0  0  0  0  0  0  0  0  0  0  0  0
  -28.3303  -22.3145   16.9355 C   0  0  0  0  0  0  0  0  0  0  0  0
  -24.4403  -12.4286   20.5532 C   0  0  0  0  0  0  0  0  0  0  0  0
  -23.7555  -26.2802   19.0216 C   0  0  0  0  0  0  0  0  0  0  0  0
  -23.0975  -10.5313   20.8981 C   0  0  0  0  0  0  0  0  0  0  0  0
  -22.8861   -7.8476   21.6302 C   0  0  0  0  0  0  0  0  0  0  0  0
  -23.7827   -9.5550   20.1749 C   0  0  0  0  0  0  0  0  0  0  0  0
  -28.2890  -14.1845   20.6030 C   0  0  0  0  0  0  0  0  0  0  0  0
  -30.4363  -14.5870   20.3544 C   0  0  0  0  0  0  0  0  0  0  0  0
  -29.7056  -12.3748   19.4485 C   0  0  0  0  0  0  0  0  0  0  0  0
  -26.2419  -24.9464   16.7609 C   0  0  0  0  0  0  0  0  0  0  0  0
  -21.9844  -29.6077   22.9274 C   0  0  0  0  0  0  0  0  0  0  0  0
  -24.5174  -28.6759   24.7269 C   0  0  0  0  0  0  0  0  0  0  0  0
  -27.3430  -26.7804   24.9906 C   0  0  0  0  0  0  0  0  0  0  0  0
  -30.1920  -20.5068   21.1301 C   0  0  0  0  0  0  0  0  0  0  0  0
  -18.7561  -32.9010   25.1158 C   0  0  0  0  0  0  0  0  0  0  0  0
  -21.8136  -27.0970   22.7750 C   0  0  0  0  0  0  0  0  0  0  0  0
  -24.5730  -28.0412   22.2857 C   0  0  0  0  0  0  0  0  0  0  0  0
  -20.2583  -32.6376   25.1816 C   0  0  0  0  0  0  0  0  0  0  0  0
  -31.4761  -18.1092   23.4280 C   0  0  0  0  0  0  0  0  0  0  0  0
  -20.8440  -32.5334   23.7771 C   0  0  0  0  0  0  0  0  0  0  0  0
  -30.9180  -16.7799   22.9146 C   0  0  0  0  0  0  0  0  0  0  0  0
  -28.3693  -25.0439   15.3426 C   0  0  0  0  0  0  0  0  0  0  0  0
  -28.5759  -25.9623   16.5031 C   0  0  0  0  0  0  0  0  0  0  0  0
  -30.4744  -19.2496   23.2549 C   0  0  0  0  0  0  0  0  0  0  0  0
  -29.3839  -18.0780   21.3821 C   0  0  0  0  0  0  0  0  0  0  0  0
  -20.2225  -31.3628   23.0057 C   0  0  1  0  0  0  0  0  0  0  0  0
  -22.3981  -28.2915   23.5226 C   0  0  1  0  0  0  0  0  0  0  0  0
  -30.3816  -16.9120   21.4757 C   0  0  2  0  0  0  0  0  0  0  0  0
  -27.7140  -24.7282   16.6711 C   0  0  0  0  0  0  0  0  0  0  0  0
  -29.2245  -26.2578   26.5668 C   0  0  0  0  0  0  0  0  0  0  0  0
  -25.8174  -31.3543   24.0591 C   0  0  0  0  0  0  0  0  0  0  0  0
  -28.0026  -30.4071   24.8314 C   0  0  0  0  0  0  0  0  0  0  0  0
  -26.1017  -30.6197   26.4327 C   0  0  0  0  0  0  0  0  0  0  0  0
  -26.5967  -23.9193   25.1171 C   0  0  0  0  0  0  0  0  0  0  0  0
  -25.7901  -25.8794   17.8572 C   0  0  0  0  0  0  0  0  0  1  0  0
  -26.0146  -28.8450   24.6341 C   0  0  1  0  0  0  0  0  0  0  0  0
  -27.8375  -25.8568   26.0893 C   0  0  2  0  0  0  0  0  0  0  0  0
  -26.4693  -30.2938   24.9687 C   0  0  0  0  0  0  0  0  0  0  0  0
  -28.4676  -15.3930   21.1433 N   0  0  0  0  0  0  0  0  0  0  0  0
  -29.7834  -15.6099   20.9769 N   0  0  0  0  0  0  0  0  0  0  0  0
  -23.8621  -28.2780   23.5530 N   0  0  0  0  0  0  0  0  0  0  0  0
  -30.0132  -19.3166   21.8665 N   0  0  0  0  0  0  0  0  0  0  0  0
  -27.9203  -22.0543   15.6090 N   0  0  0  0  0  0  0  0  0  0  0  0
  -31.7625  -14.6411   20.1078 N   0  0  0  0  0  0  0  0  0  0  0  0
  -28.6141  -11.5156   19.2624 N   0  0  0  0  0  0  0  0  0  0  0  0
  -29.7440  -20.4415   19.8111 N   0  0  0  0  0  0  0  0  0  0  0  0
  -20.8018  -30.1088   23.4372 N   0  0  0  0  0  0  0  0  0  0  0  0
  -26.5952  -27.8222   25.4973 N   0  0  0  0  0  0  0  0  0  0  0  0
  -27.8981  -24.4517   25.5964 N   0  3  0  0  0  0  0  0  0  0  0  0
  -30.8433  -12.0147   19.0619 O   0  0  0  0  0  0  0  0  0  0  0  0
  -25.4859  -24.3859   15.9773 O   0  0  0  0  0  0  0  0  0  0  0  0
  -22.6869  -30.1307   22.0703 O   0  0  0  0  0  0  0  0  0  0  0  0
  -23.9510  -28.8821   25.8032 O   0  0  0  0  0  0  0  0  0  0  0  0
  -27.5980  -26.5981   23.8022 O   0  0  0  0  0  0  0  0  0  0  0  0
  -30.7295  -21.5011   21.6244 O   0  0  0  0  0  0  0  0  0  0  0  0
  -23.2020  -11.8639   20.5365 O   0  0  0  0  0  0  0  0  0  0  0  0
  -24.3698  -26.0165   17.8363 O   0  0  0  0  0  0  0  0  0  1  0  0
  -22.7857   -6.5592   21.9827 F   0  0  0  0  0  0  0  0  0  0  0  0
  -24.5450   -9.9003   19.1283 F   0  0  0  0  0  0  0  0  0  0  0  0
  1  2  1  0  0  0  0
  1  5  2  0  0  0  0
  2  6  2  0  0  0  0
  3 10  2  0  0  0  0
  3 18  1  0  0  0  0
  4 11  1  0  0  0  0
  4 18  2  0  0  0  0
  5 20  1  0  0  0  0
  6 22  1  0  0  0  0
  7  9  2  0  0  0  0
  7 23  1  0  0  0  0
  8 12  2  0  0  0  0
  8 21  1  0  0  0  0
  9 25  1  0  0  0  0
 10 27  1  0  0  0  0
 11 27  2  0  0  0  0
 12 28  1  0  0  0  0
 13 14  2  0  0  0  0
 13 29  1  0  0  0  0
 14 30  1  0  0  0  0
 15 24  1  0  0  0  0
 15 28  2  0  0  0  0
 16 25  2  0  0  0  0
 16 26  1  0  0  0  0
 17 30  2  0  0  0  0
 17 31  1  0  0  0  0
 18 32  1  0  0  0  0
 19 32  1  0  0  0  0
 19 33  2  0  0  0  0
 19 34  1  0  0  0  0
 20 22  2  0  0  0  0
 20 40  1  0  0  0  0
 21 24  2  0  0  0  0
 21 41  1  0  0  0  0
 22 51  1  0  0  0  0
 23 26  2  0  0  0  0
 23 54  1  0  0  0  0
 24 42  1  0  0  0  0
 25 71  1  0  0  0  0
 26 68  1  0  0  0  0
 27 81  1  0  0  0  0
 28 82  1  0  0  0  0
 29 31  2  0  0  0  0
 29 81  1  0  0  0  0
 30 83  1  0  0  0  0
 31 84  1  0  0  0  0
 32 64  2  0  0  0  0
 33 65  1  0  0  0  0
 33 69  1  0  0  0  0
 34 70  1  0  0  0  0
 34 75  2  0  0  0  0
 35 54  1  0  0  0  0
 35 60  1  0  0  0  0
 35 76  2  0  0  0  0
 36 52  1  0  0  0  0
 36 72  1  0  0  0  0
 36 77  2  0  0  0  0
 37 61  1  0  0  0  0
 37 66  1  0  0  0  0
 37 78  2  0  0  0  0
 38 62  1  0  0  0  0
 38 73  1  0  0  0  0
 38 79  2  0  0  0  0
 39 67  1  0  0  0  0
 39 71  1  0  0  0  0
 39 80  2  0  0  0  0
 40 43  1  0  0  0  0
 41 52  1  0  0  0  0
 42 66  1  0  0  0  0
 43 45  1  0  0  0  0
 44 46  1  0  0  0  0
 44 49  1  0  0  0  0
 45 51  1  0  0  0  0
 46 53  1  0  0  0  0
 47 48  1  0  0  0  0
 47 54  1  0  0  0  0
 48 54  1  0  0  0  0
 49 67  1  0  0  0  0
 50 53  1  0  0  0  0
 50 67  1  0  0  0  0
 51 72  1  0  0  0  0
 52 66  1  0  0  0  0
 53 65  1  0  0  0  0
 55 62  1  0  0  0  0
 56 63  1  0  0  0  0
 57 63  1  0  0  0  0
 58 63  1  0  0  0  0
 59 74  1  0  0  0  0
 60 82  1  0  0  0  0
 61 63  1  0  0  0  0
 61 73  1  0  0  0  0
 62 74  1  0  0  0  0
 64 65  1  0  0  0  0
M  CHG  1  74   1
M  ISO  4  39 100  60 101  71 100  82 101
M  END
> <Batch ID>
0150

> <Smiles>
CNC(C)C(=O)NC(C(=O)N1Cc2cc([101O:1][101CH2:1]C(=O)C3(c4ccc([100NH:0][100C:0](=O)N5CCCC(n6nc(-c7ccc(Oc8ccc(F)cc8F)cc7)c(C(N)=O)c6N)C5)cc4N)CC3)ccc2CC1C(=O)NC1CCCc2ccccc21)C(C)(C)C

> <Shape>
0.262

> <Color>
0.063

> <Negative vol penalty>
0.000

$$$$

  -OEChem-04052303213D

 85 93  0     1  0  0  0  0  0999 V2000
  -19.5340  -21.3815   32.0472 C   0  0  0  0  0  0  0  0  0  0  0  0
  -20.3068  -21.8282   30.9801 C   0  0  0  0  0  0  0  0  0  0  0  0
  -23.0724   -9.8698   19.9430 C   0  0  0  0  0  0  0  0  0  0  0  0
  -23.8346   -9.8779   22.2356 C   0  0  0  0  0  0  0  0  0  0  0  0
  -18.9591  -20.1119   32.0067 C   0  0  0  0  0  0  0  0  0  0  0  0
  -20.5060  -21.0051   29.8724 C   0  0  0  0  0  0  0  0  0  0  0  0
  -21.0209  -22.7594   24.0274 C   0  0  0  0  0  0  0  0  0  0  0  0
  -22.3290   -8.7167   20.1942 C   0  0  0  0  0  0  0  0  0  0  0  0
  -23.0911   -8.7247   22.4868 C   0  0  0  0  0  0  0  0  0  0  0  0
  -22.1271  -22.9699   23.2053 C   0  0  0  0  0  0  0  0  0  0  0  0
  -19.3823   -7.9201   21.6488 C   0  0  0  0  0  0  0  0  0  0  0  0
  -18.0750   -7.8735   21.1649 C   0  0  0  0  0  0  0  0  0  0  0  0
  -21.8896  -20.7368   22.3243 C   0  0  0  0  0  0  0  0  0  0  0  0
  -31.5082  -18.4261   20.0468 C   0  0  0  0  0  0  0  0  0  0  0  0
  -29.2959  -18.6671   20.9872 C   0  0  0  0  0  0  0  0  0  0  0  0
  -30.0135  -20.1242   19.1987 C   0  0  0  0  0  0  0  0  0  0  0  0
  -18.6337   -5.9300   19.8429 C   0  0  0  0  0  0  0  0  0  0  0  0
  -23.8253  -10.4504   20.9637 C   0  0  0  0  0  0  0  0  0  0  0  0
  -24.1665  -12.9756   20.8424 C   0  0  0  0  0  0  0  0  0  0  0  0
  -19.1435  -19.2766   30.8937 C   0  0  0  0  0  0  0  0  0  0  0  0
  -20.3464  -21.5301   24.0121 C   0  0  0  0  0  0  0  0  0  0  0  0
  -19.9342  -19.7226   29.8175 C   0  0  0  0  0  0  0  0  0  0  0  0
  -20.7737  -20.5141   23.1454 C   0  0  0  0  0  0  0  0  0  0  0  0
  -30.5316  -18.0208   20.9564 C   0  0  0  0  0  0  0  0  0  0  0  0
  -31.2492  -19.4779   19.1679 C   0  0  0  0  0  0  0  0  0  0  0  0
  -29.0368  -19.7188   20.1083 C   0  0  0  0  0  0  0  0  0  0  0  0
  -22.3383   -8.1441   21.4661 C   0  0  0  0  0  0  0  0  0  0  0  0
  -22.5633  -21.9575   22.3556 C   0  0  0  0  0  0  0  0  0  0  0  0
  -20.3154   -6.9718   21.2297 C   0  0  0  0  0  0  0  0  0  0  0  0
  -17.7006   -6.8784   20.2620 C   0  0  0  0  0  0  0  0  0  0  0  0
  -19.9411   -5.9767   20.3268 C   0  0  0  0  0  0  0  0  0  0  0  0
  -24.5939  -11.6413   20.7047 C   0  0  0  0  0  0  0  0  0  0  0  0
  -25.2582  -13.7251   20.4777 C   0  0  0  0  0  0  0  0  0  0  0  0
  -24.7227  -21.3363   21.7060 C   0  0  0  0  0  0  0  0  0  1  0  0
  -22.8964  -13.4914   21.2624 C   0  0  0  0  0  0  0  0  0  0  0  0
  -25.5490  -21.0187   20.7020 C   0  0  0  0  0  0  0  0  0  0  0  0
  -26.7060  -20.1044   20.9737 C   0  0  0  0  0  0  0  0  0  0  0  0
  -19.7898  -19.2500   26.1557 C   0  0  0  0  0  0  0  0  0  0  0  0
  -17.9530  -18.0118   23.7861 C   0  0  0  0  0  0  0  0  0  0  0  0
  -17.2890  -17.8004   20.4452 C   0  0  0  0  0  0  0  0  0  0  0  0
  -30.7420  -14.7452   20.6601 C   0  0  0  0  0  0  0  0  0  0  0  0
  -18.5412  -17.8940   30.9160 C   0  0  0  0  0  0  0  0  0  0  0  0
  -19.1386  -21.3282   24.8857 C   0  0  0  0  0  0  0  0  0  0  0  0
  -20.0718  -19.1833   23.0764 C   0  0  0  0  0  0  0  0  0  0  0  0
  -18.4914  -17.2291   29.5428 C   0  0  0  0  0  0  0  0  0  0  0  0
  -29.6023  -12.3595   18.2754 C   0  0  0  0  0  0  0  0  0  0  0  0
  -19.8270  -17.3889   28.8235 C   0  0  0  0  0  0  0  0  0  0  0  0
  -28.1654  -12.0657   18.7099 C   0  0  0  0  0  0  0  0  0  0  0  0
  -30.5207  -12.5810   19.4753 C   0  0  0  0  0  0  0  0  0  0  0  0
  -28.6202  -13.3123   20.8635 C   0  0  0  0  0  0  0  0  0  0  0  0
  -20.1530  -18.8686   28.5875 C   0  0  1  0  0  0  0  0  0  0  0  0
  -18.8404  -19.8578   25.1623 C   0  0  1  0  0  0  0  0  0  0  0  0
  -27.6449  -13.1371   19.6869 C   0  0  2  0  0  0  0  0  0  0  0  0
  -15.7506  -16.6799   18.8096 C   0  0  0  0  0  0  0  0  0  0  0  0
  -19.5053  -15.4057   24.1152 C   0  0  0  0  0  0  0  0  0  0  0  0
  -18.6153  -14.6760   21.8918 C   0  0  0  0  0  0  0  0  0  0  0  0
  -17.0439  -15.1184   23.7780 C   0  0  0  0  0  0  0  0  0  0  0  0
  -16.2276  -20.3928   19.4901 C   0  0  0  0  0  0  0  0  0  0  0  0
  -30.8087  -16.8962   21.8960 C   0  0  0  0  0  0  0  0  0  0  0  0
  -18.1883  -17.0623   22.6363 C   0  0  1  0  0  0  0  0  0  0  0  0
  -15.9902  -17.9127   19.6673 C   0  0  2  0  0  0  0  0  0  0  0  0
  -18.3528  -15.5899   23.1078 C   0  0  0  0  0  0  0  0  0  0  0  0
  -25.8583  -11.5456   20.2852 N   0  0  0  0  0  0  0  0  0  0  0  0
  -26.2349  -12.8291   20.1560 N   0  0  0  0  0  0  0  0  0  0  0  0
  -18.8998  -19.0321   23.9545 N   0  0  0  0  0  0  0  0  0  0  0  0
  -29.9708  -13.6098   20.3614 N   0  0  0  0  0  0  0  0  0  0  0  0
  -32.2372  -19.8876   18.2481 N   0  0  0  0  0  0  0  0  0  0  0  0
  -25.4683  -15.0566   20.4039 N   0  0  0  0  0  0  0  0  0  0  0  0
  -21.8850  -12.5821   21.6010 N   0  0  0  0  0  0  0  0  0  0  0  0
  -27.7823  -20.3742   20.1396 N   0  0  0  0  0  0  0  0  0  0  0  0
  -19.3885  -19.3827   27.4714 N   0  0  0  0  0  0  0  0  0  0  0  0
  -17.0872  -17.2712   21.7024 N   0  0  0  0  0  0  0  0  0  0  0  0
  -30.1435  -15.6742   21.5023 N   0  0  0  0  0  0  0  0  0  0  0  0
  -16.0219  -19.1065   18.7759 N   0  3  0  0  0  0  0  0  0  0  0  0
  -22.6600  -14.7220   21.3195 O   0  0  0  0  0  0  0  0  0  0  0  0
  -26.6380  -19.2439   21.8447 O   0  0  0  0  0  0  0  0  0  0  0  0
  -20.8100  -18.6999   25.7580 O   0  0  0  0  0  0  0  0  0  0  0  0
  -16.9616  -17.8583   24.5039 O   0  0  0  0  0  0  0  0  0  0  0  0
  -18.3744  -18.1442   19.9825 O   0  0  0  0  0  0  0  0  0  0  0  0
  -31.8774  -14.9207   20.2052 O   0  0  0  0  0  0  0  0  0  0  0  0
  -25.3782  -21.4996   19.4198 O   0  0  0  0  0  0  0  0  0  0  0  0
  -21.6128   -7.0190   21.7116 O   0  0  0  0  0  0  0  0  0  0  0  0
  -23.6431  -22.1601   21.5526 O   0  0  0  0  0  0  0  0  0  1  0  0
  -16.4447   -6.8328   19.7985 F   0  0  0  0  0  0  0  0  0  0  0  0
  -20.8328   -5.0621   19.9214 F   0  0  0  0  0  0  0  0  0  0  0  0
  1  2  1  0  0  0  0
  1  5  2  0  0  0  0
  2  6  2  0  0  0  0
  3  8  2  0  0  0  0
  3 18  1  0  0  0  0
  4  9  1  0  0  0  0
  4 18  2  0  0  0  0
  5 20  1  0  0  0  0
  6 22  1  0  0  0  0
  7 10  2  0  0  0  0
  7 21  1  0  0  0  0
  8 27  1  0  0  0  0
  9 27  2  0  0  0  0
 10 28  1  0  0  0  0
 11 12  2  0  0  0  0
 11 29  1  0  0  0  0
 12 30  1  0  0  0  0
 13 23  1  0  0  0  0
 13 28  2  0  0  0  0
 14 24  2  0  0  0  0
 14 25  1  0  0  0  0
 15 24  1  0  0  0  0
 15 26  2  0  0  0  0
 16 25  2  0  0  0  0
 16 26  1  0  0  0  0
 17 30  2  0  0  0  0
 17 31  1  0  0  0  0
 18 32  1  0  0  0  0
 19 32  1  0  0  0  0
 19 33  2  0  0  0  0
 19 35  1  0  0  0  0
 20 22  2  0  0  0  0
 20 42  1  0  0  0  0
 21 23  2  0  0  0  0
 21 43  1  0  0  0  0
 22 51  1  0  0  0  0
 23 44  1  0  0  0  0
 24 59  1  0  0  0  0
 25 67  1  0  0  0  0
 26 70  1  0  0  0  0
 27 82  1  0  0  0  0
 28 83  1  0  0  0  0
 29 31  2  0  0  0  0
 29 82  1  0  0  0  0
 30 84  1  0  0  0  0
 31 85  1  0  0  0  0
 32 63  2  0  0  0  0
 33 64  1  0  0  0  0
 33 68  1  0  0  0  0
 34 36  2  0  0  0  0
 34 83  1  0  0  0  0
 35 69  1  0  0  0  0
 35 75  2  0  0  0  0
 36 37  1  0  0  0  0
 36 81  1  0  0  0  0
 37 70  1  0  0  0  0
 37 76  2  0  0  0  0
 38 52  1  0  0  0  0
 38 71  1  0  0  0  0
 38 77  2  0  0  0  0
 39 60  1  0  0  0  0
 39 65  1  0  0  0  0
 39 78  2  0  0  0  0
 40 61  1  0  0  0  0
 40 72  1  0  0  0  0
 40 79  2  0  0  0  0
 41 66  1  0  0  0  0
 41 73  1  0  0  0  0
 41 80  2  0  0  0  0
 42 45  1  0  0  0  0
 43 52  1  0  0  0  0
 44 65  1  0  0  0  0
 45 47  1  0  0  0  0
 46 48  1  0  0  0  0
 46 49  1  0  0  0  0
 47 51  1  0  0  0  0
 48 53  1  0  0  0  0
 49 66  1  0  0  0  0
 50 53  1  0  0  0  0
 50 66  1  0  0  0  0
 51 71  1  0  0  0  0
 52 65  1  0  0  0  0
 53 64  1  0  0  0  0
 54 61  1  0  0  0  0
 55 62  1  0  0  0  0
 56 62  1  0  0  0  0
 57 62  1  0  0  0  0
 58 74  1  0  0  0  0
 59 73  1  0  0  0  0
 60 62  1  0  0  0  0
 60 72  1  0  0  0  0
 61 74  1  0  0  0  0
 63 64  1  0  0  0  0
M  CHG  1  74   1
M  ISO  4  34 101  41 100  73 100  83 101
M  END
> <Batch ID>
0150

> <Smiles>
CNC(C)C(=O)NC(C(=O)N1Cc2cc([101O:1][101CH2:1]C(=O)C(=O)Nc3cc(N)cc(C[100NH:0][100C:0](=O)N4CCCC(n5nc(-c6ccc(Oc7ccc(F)cc7F)cc6)c(C(N)=O)c5N)C4)c3)ccc2CC1C(=O)NC1CCCc2ccccc21)C(C)(C)C

> <Shape>
0.173

> <Color>
0.180

> <Negative vol penalty>
0.000

$$$$

  -OEChem-04052303213D

 88 96  0     1  0  0  0  0  0999 V2000
  -16.7870  -26.7854   28.2685 C   0  0  0  0  0  0  0  0  0  0  0  0
  -18.0188  -26.1649   28.0865 C   0  0  0  0  0  0  0  0  0  0  0  0
  -22.9987   -9.8946   19.9812 C   0  0  0  0  0  0  0  0  0  0  0  0
  -23.7191   -9.9504   22.2866 C   0  0  0  0  0  0  0  0  0  0  0  0
  -16.1255  -27.3520   27.1798 C   0  0  0  0  0  0  0  0  0  0  0  0
  -18.5893  -26.1097   26.8153 C   0  0  0  0  0  0  0  0  0  0  0  0
  -24.5504  -26.3910   25.4398 C   0  0  0  0  0  0  0  0  0  0  0  0
  -22.2307   -8.7613   20.2485 C   0  0  0  0  0  0  0  0  0  0  0  0
  -22.9510   -8.8171   22.5540 C   0  0  0  0  0  0  0  0  0  0  0  0
  -25.4943  -25.4059   25.1526 C   0  0  0  0  0  0  0  0  0  0  0  0
  -23.1936   -5.4769   22.0904 C   0  0  0  0  0  0  0  0  0  0  0  0
  -23.7788   -4.4610   22.8462 C   0  0  0  0  0  0  0  0  0  0  0  0
  -29.8768  -17.4515   23.0955 C   0  0  0  0  0  0  0  0  0  0  0  0
  -31.8472  -18.3501   24.1663 C   0  0  0  0  0  0  0  0  0  0  0  0
  -25.1201  -25.7437   22.7936 C   0  0  0  0  0  0  0  0  0  0  0  0
  -32.0557  -16.5516   22.5666 C   0  0  0  0  0  0  0  0  0  0  0  0
  -22.0515   -4.7092   24.5172 C   0  0  0  0  0  0  0  0  0  0  0  0
  -23.7429  -10.4891   21.0002 C   0  0  0  0  0  0  0  0  0  0  0  0
  -30.4641  -18.3505   23.9856 C   0  0  0  0  0  0  0  0  0  0  0  0
  -24.1307  -13.0039   20.8191 C   0  0  0  0  0  0  0  0  0  0  0  0
  -16.6927  -27.3121   25.8963 C   0  0  0  0  0  0  0  0  0  0  0  0
  -23.8752  -27.0533   24.4045 C   0  0  0  0  0  0  0  0  0  0  0  0
  -17.9341  -26.6750   25.7081 C   0  0  0  0  0  0  0  0  0  0  0  0
  -24.1700  -26.7386   23.0702 C   0  0  0  0  0  0  0  0  0  0  0  0
  -30.6726  -16.5520   22.3860 C   0  0  0  0  0  0  0  0  0  0  0  0
  -22.2068   -8.2226   21.5349 C   0  0  0  0  0  0  0  0  0  0  0  0
  -25.7772  -25.0801   23.8294 C   0  0  0  0  0  0  0  0  0  0  0  0
  -22.0375   -6.1090   22.5481 C   0  0  0  0  0  0  0  0  0  0  0  0
  -23.2077   -4.0771   24.0595 C   0  0  0  0  0  0  0  0  0  0  0  0
  -32.6431  -17.4507   23.4568 C   0  0  0  0  0  0  0  0  0  0  0  0
  -21.4664   -5.7252   23.7614 C   0  0  0  0  0  0  0  0  0  0  0  0
  -24.5369  -11.6594   20.7245 C   0  0  0  0  0  0  0  0  0  0  0  0
  -25.2418  -13.7248   20.4554 C   0  0  0  0  0  0  0  0  0  0  0  0
  -29.6221  -19.3022   24.7380 C   0  0  0  0  0  0  0  0  0  0  0  0
  -22.8623  -13.5523   21.2017 C   0  0  0  0  0  0  0  0  0  0  0  0
  -20.8358  -27.3035   23.5085 C   0  0  0  0  0  0  0  0  0  0  0  0
  -28.3063  -22.4220   24.1723 C   0  0  0  0  0  0  0  0  0  0  0  0
  -22.0445  -29.4317   21.3796 C   0  0  0  0  0  0  0  0  0  0  0  0
  -24.7371  -30.5340   19.5959 C   0  0  0  0  0  0  0  0  0  0  0  0
  -30.7215  -14.6820   20.6987 C   0  0  0  0  0  0  0  0  0  0  0  0
  -15.9180  -27.8967   24.7418 C   0  0  0  0  0  0  0  0  0  0  0  0
  -22.8793  -28.1323   24.7305 C   0  0  0  0  0  0  0  0  0  0  0  0
  -23.4876  -27.4344   21.9219 C   0  0  0  0  0  0  0  0  0  0  0  0
  -16.7655  -28.1248   23.4929 C   0  0  0  0  0  0  0  0  0  0  0  0
  -29.6062  -12.2246   18.3761 C   0  0  0  0  0  0  0  0  0  0  0  0
  -17.6230  -26.8982   23.1983 C   0  0  0  0  0  0  0  0  0  0  0  0
  -28.1545  -11.9691   18.7878 C   0  0  0  0  0  0  0  0  0  0  0  0
  -30.5043  -12.4701   19.5872 C   0  0  0  0  0  0  0  0  0  0  0  0
  -28.5868  -13.2636   20.9149 C   0  0  0  0  0  0  0  0  0  0  0  0
  -18.5969  -26.6166   24.3489 C   0  0  1  0  0  0  0  0  0  0  0  0
  -21.8784  -28.3810   23.6063 C   0  0  1  0  0  0  0  0  0  0  0  0
  -27.6315  -13.0752   19.7251 C   0  0  2  0  0  0  0  0  0  0  0  0
  -25.4078  -32.2692   17.9117 C   0  0  0  0  0  0  0  0  0  0  0  0
  -31.0374  -23.2736   25.2765 C   0  0  0  0  0  0  0  0  0  0  0  0
  -30.6511  -21.7173   27.2037 C   0  0  0  0  0  0  0  0  0  0  0  0
  -20.6575  -27.8318   19.1827 C   0  0  0  0  0  0  0  0  0  0  0  0
  -22.1049  -29.0055   17.5106 C   0  0  0  0  0  0  0  0  0  0  0  0
  -20.5123  -30.3141   18.9156 C   0  0  0  0  0  0  0  0  0  0  0  0
  -26.7148  -31.7307   21.4441 C   0  0  0  0  0  0  0  0  0  0  0  0
  -27.3355  -23.4839   24.6538 C   0  0  0  0  0  0  0  0  0  1  0  0
  -29.0567  -21.6515   25.2458 C   0  0  2  0  0  0  0  0  0  0  0  0
  -22.5930  -29.3454   19.9758 C   0  0  1  0  0  0  0  0  0  0  0  0
  -25.3075  -31.9256   19.3897 C   0  0  2  0  0  0  0  0  0  0  0  0
  -29.9765  -22.5374   26.1003 C   0  0  0  0  0  0  0  0  0  0  0  0
  -21.4785  -29.1096   18.9176 C   0  0  0  0  0  0  0  0  0  0  0  0
  -25.8069  -11.5309   20.3313 N   0  0  0  0  0  0  0  0  0  0  0  0
  -26.2083  -12.8040   20.1756 N   0  0  0  0  0  0  0  0  0  0  0  0
  -22.5170  -28.4777   22.2921 N   0  0  0  0  0  0  0  0  0  0  0  0
  -29.9484  -13.5335   20.4269 N   0  0  0  0  0  0  0  0  0  0  0  0
  -25.4765  -15.0500   20.3507 N   0  0  0  0  0  0  0  0  0  0  0  0
  -21.8291  -12.6698   21.5451 N   0  0  0  0  0  0  0  0  0  0  0  0
  -30.0763  -15.6396   21.4806 N   0  0  0  0  0  0  0  0  0  0  0  0
  -29.8360  -20.6144   24.5714 N   0  0  0  0  0  0  0  0  0  0  0  0
  -19.7209  -27.5265   24.2938 N   0  0  0  0  0  0  0  0  0  0  0  0
  -23.3690  -30.5627   19.7652 N   0  0  0  0  0  0  0  0  0  0  0  0
  -28.6883  -18.8080   25.5511 N   0  3  0  0  0  0  0  0  0  0  0  0
  -26.6692  -32.0212   19.9879 N   0  3  0  0  0  0  0  0  0  0  0  0
  -22.6466  -14.7878   21.2221 O   0  0  0  0  0  0  0  0  0  0  0  0
  -21.0279  -26.3418   22.7738 O   0  0  0  0  0  0  0  0  0  0  0  0
  -28.4685  -22.1974   22.9725 O   0  0  0  0  0  0  0  0  0  0  0  0
  -21.2324  -30.3174   21.6582 O   0  0  0  0  0  0  0  0  0  0  0  0
  -25.4350  -29.5223   19.6022 O   0  0  0  0  0  0  0  0  0  0  0  0
  -31.8612  -14.8189   20.2467 O   0  0  0  0  0  0  0  0  0  0  0  0
  -21.4573   -7.1169   21.7963 O   0  0  0  0  0  0  0  0  0  0  0  0
  -26.6975  -24.1185   23.5463 O   0  0  0  0  0  0  0  0  0  1  0  0
  -23.7688   -3.1005   24.7844 F   0  0  0  0  0  0  0  0  0  0  0  0
  -33.9712  -17.4503   23.6304 F   0  0  0  0  0  0  0  0  0  0  0  0
  -20.3551   -6.3280   24.2057 F   0  0  0  0  0  0  0  0  0  0  0  0
  1  2  1  0  0  0  0
  1  5  2  0  0  0  0
  2  6  2  0  0  0  0
  3  8  2  0  0  0  0
  3 18  1  0  0  0  0
  4  9  1  0  0  0  0
  4 18  2  0  0  0  0
  5 21  1  0  0  0  0
  6 23  1  0  0  0  0
  7 10  2  0  0  0  0
  7 22  1  0  0  0  0
  8 26  1  0  0  0  0
  9 26  2  0  0  0  0
 10 27  1  0  0  0  0
 11 12  2  0  0  0  0
 11 28  1  0  0  0  0
 12 29  1  0  0  0  0
 13 19  2  0  0  0  0
 13 25  1  0  0  0  0
 14 19  1  0  0  0  0
 14 30  2  0  0  0  0
 15 24  1  0  0  0  0
 15 27  2  0  0  0  0
 16 25  2  0  0  0  0
 16 30  1  0  0  0  0
 17 29  2  0  0  0  0
 17 31  1  0  0  0  0
 18 32  1  0  0  0  0
 19 34  1  0  0  0  0
 20 32  1  0  0  0  0
 20 33  2  0  0  0  0
 20 35  1  0  0  0  0
 21 23  2  0  0  0  0
 21 41  1  0  0  0  0
 22 24  2  0  0  0  0
 22 42  1  0  0  0  0
 23 50  1  0  0  0  0
 24 43  1  0  0  0  0
 25 72  1  0  0  0  0
 26 84  1  0  0  0  0
 27 85  1  0  0  0  0
 28 31  2  0  0  0  0
 28 84  1  0  0  0  0
 29 86  1  0  0  0  0
 30 87  1  0  0  0  0
 31 88  1  0  0  0  0
 32 66  2  0  0  0  0
 33 67  1  0  0  0  0
 33 70  1  0  0  0  0
 34 73  1  0  0  0  0
 34 76  2  0  0  0  0
 35 71  1  0  0  0  0
 35 78  2  0  0  0  0
 36 51  1  0  0  0  0
 36 74  1  0  0  0  0
 36 79  2  0  0  0  0
 37 60  1  0  0  0  0
 37 61  1  0  0  0  0
 37 80  2  0  0  0  0
 38 62  1  0  0  0  0
 38 68  1  0  0  0  0
 38 81  2  0  0  0  0
 39 63  1  0  0  0  0
 39 75  1  0  0  0  0
 39 82  2  0  0  0  0
 40 69  1  0  0  0  0
 40 72  1  0  0  0  0
 40 83  2  0  0  0  0
 41 44  1  0  0  0  0
 42 51  1  0  0  0  0
 43 68  1  0  0  0  0
 44 46  1  0  0  0  0
 45 47  1  0  0  0  0
 45 48  1  0  0  0  0
 46 50  1  0  0  0  0
 47 52  1  0  0  0  0
 48 69  1  0  0  0  0
 49 52  1  0  0  0  0
 49 69  1  0  0  0  0
 50 74  1  0  0  0  0
 51 68  1  0  0  0  0
 52 67  1  0  0  0  0
 53 63  1  0  0  0  0
 54 64  1  0  0  0  0
 55 64  1  0  0  0  0
 56 65  1  0  0  0  0
 57 65  1  0  0  0  0
 58 65  1  0  0  0  0
 59 77  1  0  0  0  0
 60 85  1  0  0  0  0
 61 64  1  0  0  0  0
 61 73  1  0  0  0  0
 62 65  1  0  0  0  0
 62 75  1  0  0  0  0
 63 77  1  0  0  0  0
 66 67  1  0  0  0  0
M  CHG  2  76   1  77   1
M  ISO  4  40 100  60 101  72 100  85 101
M  END
> <Batch ID>
0150

> <Smiles>
CNC(C)C(=O)NC(C(=O)N1Cc2cc([101O:1][101CH2:1]C(=O)C(NC(=N)c3cc(F)cc([100NH:0][100C:0](=O)N4CCCC(n5nc(-c6ccc(Oc7ccc(F)cc7F)cc6)c(C(N)=O)c5N)C4)c3)C(C)C)ccc2CC1C(=O)NC1CCCc2ccccc21)C(C)(C)C

> <Shape>
0.267

> <Color>
0.186

> <Negative vol penalty>
0.000

$$$$

  -OEChem-04052303213D

 83 92  0     1  0  0  0  0  0999 V2000
  -28.1651  -34.1777   26.4503 C   0  0  0  0  0  0  0  0  0  0  0  0
  -28.4805  -33.0987   25.6307 C   0  0  0  0  0  0  0  0  0  0  0  0
  -26.2259  -19.1420   16.9176 C   0  0  0  0  0  0  0  0  0  0  0  0
  -24.2086   -9.6516   21.6095 C   0  0  0  0  0  0  0  0  0  0  0  0
  -23.2231  -11.0157   19.8760 C   0  0  0  0  0  0  0  0  0  0  0  0
  -26.8670  -34.3259   26.9370 C   0  0  0  0  0  0  0  0  0  0  0  0
  -27.4980  -32.1667   25.2982 C   0  0  0  0  0  0  0  0  0  0  0  0
  -26.9281  -29.1499   19.9991 C   0  0  0  0  0  0  0  0  0  0  0  0
  -26.6684  -20.3362   17.4865 C   0  0  0  0  0  0  0  0  0  0  0  0
  -26.7197  -17.9230   17.3823 C   0  0  0  0  0  0  0  0  0  0  0  0
  -22.9367   -9.3548   22.0991 C   0  0  0  0  0  0  0  0  0  0  0  0
  -21.9512  -10.7189   20.3655 C   0  0  0  0  0  0  0  0  0  0  0  0
  -27.3040  -27.8664   19.6053 C   0  0  0  0  0  0  0  0  0  0  0  0
  -20.3805   -7.2896   21.3028 C   0  0  0  0  0  0  0  0  0  0  0  0
  -20.1053   -5.9619   21.6295 C   0  0  0  0  0  0  0  0  0  0  0  0
  -25.0773  -27.0732   20.0870 C   0  0  0  0  0  0  0  0  0  0  0  0
  -28.0985  -19.0925   18.9848 C   0  0  0  0  0  0  0  0  0  0  0  0
  -19.6564   -6.6163   23.9114 C   0  0  0  0  0  0  0  0  0  0  0  0
  -24.3519  -10.4821   20.4980 C   0  0  0  0  0  0  0  0  0  0  0  0
  -26.3901  -10.0761   19.0186 C   0  0  0  0  0  0  0  0  0  0  0  0
  -25.8659  -33.4006   26.6024 C   0  0  0  0  0  0  0  0  0  0  0  0
  -25.6249  -29.4029   20.4509 C   0  0  0  0  0  0  0  0  0  0  0  0
  -26.1856  -32.3020   25.7819 C   0  0  0  0  0  0  0  0  0  0  0  0
  -24.6867  -28.3613   20.4835 C   0  0  0  0  0  0  0  0  0  0  0  0
  -27.6047  -20.3115   18.5201 C   0  0  0  0  0  0  0  0  0  0  0  0
  -27.6560  -17.8983   18.4159 C   0  0  0  0  0  0  0  0  0  0  0  0
  -21.8080   -9.8884   21.4771 C   0  0  0  0  0  0  0  0  0  0  0  0
  -26.3794  -26.8272   19.6520 C   0  0  0  0  0  0  0  0  0  0  0  0
  -20.2938   -8.2808   22.2805 C   0  0  0  0  0  0  0  0  0  0  0  0
  -19.7432   -5.6252   22.9338 C   0  0  0  0  0  0  0  0  0  0  0  0
  -19.9317   -7.9442   23.5848 C   0  0  0  0  0  0  0  0  0  0  0  0
  -25.6655  -10.7896   19.9922 C   0  0  0  0  0  0  0  0  0  0  0  0
  -27.5693  -10.7688   18.8921 C   0  0  0  0  0  0  0  0  0  0  0  0
  -28.2033  -23.7355   19.6555 C   0  0  0  0  0  0  0  0  0  0  0  0
  -27.7630  -24.9644   19.9458 C   0  0  0  0  0  0  0  0  0  1  0  0
  -26.0293   -8.8931   18.2934 C   0  0  0  0  0  0  0  0  0  0  0  0
  -24.3554  -30.4201   23.1816 C   0  0  0  0  0  0  0  0  0  0  0  0
  -21.6090  -30.4136   21.4554 C   0  0  0  0  0  0  0  0  0  0  0  0
  -19.8649  -29.1872   18.7906 C   0  0  0  0  0  0  0  0  0  0  0  0
  -29.0906  -16.4580   19.9039 C   0  0  0  0  0  0  0  0  0  0  0  0
  -24.4885  -33.5767   27.1911 C   0  0  0  0  0  0  0  0  0  0  0  0
  -25.2277  -30.7985   20.8467 C   0  0  0  0  0  0  0  0  0  0  0  0
  -23.2694  -28.5848   20.9414 C   0  0  0  0  0  0  0  0  0  0  0  0
  -29.3206  -23.0332   20.3600 C   0  0  0  0  0  0  0  0  0  0  0  0
  -27.5754  -22.8107   18.6566 C   0  0  0  0  0  0  0  0  0  0  0  0
  -23.4150  -32.7507   26.4871 C   0  0  0  0  0  0  0  0  0  0  0  0
  -30.5539  -13.5676   21.3808 C   0  0  0  0  0  0  0  0  0  0  0  0
  -23.8970  -31.3192   26.2741 C   0  0  0  0  0  0  0  0  0  0  0  0
  -29.5351  -12.4610   21.0984 C   0  0  0  0  0  0  0  0  0  0  0  0
  -28.9230  -21.5641   20.2472 C   0  0  0  0  0  0  0  0  0  0  0  0
  -29.8733  -14.9029   21.6770 C   0  0  0  0  0  0  0  0  0  0  0  0
  -27.8854  -14.2369   20.3831 C   0  0  0  0  0  0  0  0  0  0  0  0
  -25.1414  -31.2835   25.3788 C   0  0  1  0  0  0  0  0  0  0  0  0
  -24.0192  -30.8346   21.7771 C   0  0  1  0  0  0  0  0  0  0  0  0
  -28.5249  -12.8880   20.0155 C   0  0  2  0  0  0  0  0  0  0  0  0
  -17.6302  -29.3416   17.6593 C   0  0  0  0  0  0  0  0  0  0  0  0
  -20.3822  -28.6822   23.6479 C   0  0  0  0  0  0  0  0  0  0  0  0
  -18.5412  -28.0937   22.0565 C   0  0  0  0  0  0  0  0  0  0  0  0
  -18.8706  -30.4648   22.7579 C   0  0  0  0  0  0  0  0  0  0  0  0
  -21.0743  -30.1886   16.2819 C   0  0  0  0  0  0  0  0  0  0  0  0
  -20.5268  -29.3999   21.1720 C   0  0  1  0  0  0  0  0  0  0  0  0
  -19.0509  -29.8816   17.7138 C   0  0  2  0  0  0  0  0  0  0  0  0
  -19.6074  -29.1552   22.4017 C   0  0  0  0  0  0  0  0  0  0  0  0
  -26.3291  -11.8538   20.4517 N   0  0  0  0  0  0  0  0  0  0  0  0
  -27.4830  -11.8142   19.7639 N   0  0  0  0  0  0  0  0  0  0  0  0
  -28.0422  -21.4940   19.0837 N   0  0  3  0  0  0  0  0  0  0  0  0
  -22.9311  -29.9655   21.3242 N   0  0  0  0  0  0  0  0  0  0  0  0
  -28.9339  -15.2446   20.6066 N   0  0  0  0  0  0  0  0  0  0  0  0
  -28.6614  -10.5796   18.1214 N   0  0  0  0  0  0  0  0  0  0  0  0
  -24.7801   -8.3097   18.5455 N   0  0  0  0  0  0  0  0  0  0  0  0
  -28.1582  -16.6598   18.8867 N   0  0  0  0  0  0  0  0  0  0  0  0
  -24.7708  -31.4602   23.9910 N   0  0  0  0  0  0  0  0  0  0  0  0
  -19.8236  -29.8746   19.9852 N   0  0  0  0  0  0  0  0  0  0  0  0
  -19.6811  -29.6817   16.3782 N   0  3  0  0  0  0  0  0  0  0  0  0
  -26.7989   -8.3595   17.4588 O   0  0  0  0  0  0  0  0  0  0  0  0
  -24.2446  -29.2440   23.5074 O   0  0  0  0  0  0  0  0  0  0  0  0
  -21.2930  -31.5625   21.7741 O   0  0  0  0  0  0  0  0  0  0  0  0
  -20.4734  -28.1378   18.5929 O   0  0  0  0  0  0  0  0  0  0  0  0
  -30.0025  -17.2466   20.1658 O   0  0  0  0  0  0  0  0  0  0  0  0
  -20.5667   -9.5987   21.9544 O   0  0  0  0  0  0  0  0  0  0  0  0
  -26.7438  -25.5733   19.2689 O   0  0  0  0  0  0  0  0  0  1  0  0
  -19.4774   -4.3503   23.2470 F   0  0  0  0  0  0  0  0  0  0  0  0
  -19.8456   -8.8922   24.5280 F   0  0  0  0  0  0  0  0  0  0  0  0
  1  2  1  0  0  0  0
  1  6  2  0  0  0  0
  2  7  2  0  0  0  0
  3  9  2  0  0  0  0
  3 10  1  0  0  0  0
  4 11  2  0  0  0  0
  4 19  1  0  0  0  0
  5 12  1  0  0  0  0
  5 19  2  0  0  0  0
  6 21  1  0  0  0  0
  7 23  1  0  0  0  0
  8 13  2  0  0  0  0
  8 22  1  0  0  0  0
  9 25  1  0  0  0  0
 10 26  2  0  0  0  0
 11 27  1  0  0  0  0
 12 27  2  0  0  0  0
 13 28  1  0  0  0  0
 14 15  2  0  0  0  0
 14 29  1  0  0  0  0
 15 30  1  0  0  0  0
 16 24  1  0  0  0  0
 16 28  2  0  0  0  0
 17 25  2  0  0  0  0
 17 26  1  0  0  0  0
 18 30  2  0  0  0  0
 18 31  1  0  0  0  0
 19 32  1  0  0  0  0
 20 32  1  0  0  0  0
 20 33  2  0  0  0  0
 20 36  1  0  0  0  0
 21 23  2  0  0  0  0
 21 41  1  0  0  0  0
 22 24  2  0  0  0  0
 22 42  1  0  0  0  0
 23 53  1  0  0  0  0
 24 43  1  0  0  0  0
 25 66  1  0  0  0  0
 26 71  1  0  0  0  0
 27 80  1  0  0  0  0
 28 81  1  0  0  0  0
 29 31  2  0  0  0  0
 29 80  1  0  0  0  0
 30 82  1  0  0  0  0
 31 83  1  0  0  0  0
 32 64  2  0  0  0  0
 33 65  1  0  0  0  0
 33 69  1  0  0  0  0
 34 35  2  0  0  0  0
 34 44  1  0  0  0  0
 34 45  1  0  0  0  0
 35 81  1  0  0  0  0
 36 70  1  0  0  0  0
 36 75  2  0  0  0  0
 37 54  1  0  0  0  0
 37 72  1  0  0  0  0
 37 76  2  0  0  0  0
 38 61  1  0  0  0  0
 38 67  1  0  0  0  0
 38 77  2  0  0  0  0
 39 62  1  0  0  0  0
 39 73  1  0  0  0  0
 39 78  2  0  0  0  0
 40 68  1  0  0  0  0
 40 71  1  0  0  0  0
 40 79  2  0  0  0  0
 41 46  1  0  0  0  0
 42 54  1  0  0  0  0
 43 67  1  0  0  0  0
 44 50  1  0  0  0  0
 45 66  1  0  0  0  0
 46 48  1  0  0  0  0
 47 49  1  0  0  0  0
 47 51  1  0  0  0  0
 48 53  1  0  0  0  0
 49 55  1  0  0  0  0
 50 66  1  0  0  0  0
 51 68  1  0  0  0  0
 52 55  1  0  0  0  0
 52 68  1  0  0  0  0
 53 72  1  0  0  0  0
 54 67  1  0  0  0  0
 55 65  1  0  0  0  0
 56 62  1  0  0  0  0
 57 63  1  0  0  0  0
 58 63  1  0  0  0  0
 59 63  1  0  0  0  0
 60 74  1  0  0  0  0
 61 63  1  0  0  0  0
 61 73  1  0  0  0  0
 62 74  1  0  0  0  0
 64 65  1  0  0  0  0
M  CHG  1  74   1
M  ISO  4  35 101  40 100  71 100  81 101
M  END
> <Batch ID>
0150

> <Smiles>
CNC(C)C(=O)NC(C(=O)N1Cc2cc([101O:1][101CH:1]=C3CCN(c4cccc([100NH:0][100C:0](=O)N5CCCC(n6nc(-c7ccc(Oc8ccc(F)cc8F)cc7)c(C(N)=O)c6N)C5)c4)C3)ccc2CC1C(=O)NC1CCCc2ccccc21)C(C)(C)C

> <Shape>
0.291

> <Color>
0.079

> <Negative vol penalty>
0.000

$$$$

  -OEChem-04052303213D

 81 89  0     1  0  0  0  0  0999 V2000
  -23.8771  -20.4116   22.5766 C   0  0  0  0  0  0  0  0  0  0  0  0
  -24.7006  -21.4356   23.0306 C   0  0  0  0  0  0  0  0  0  0  0  0
  -24.2219  -12.5433   21.4984 C   0  0  0  0  0  0  0  0  0  0  0  0
  -26.5091  -12.2434   20.7804 C   0  0  0  0  0  0  0  0  0  0  0  0
  -23.0286  -20.6329   21.4939 C   0  0  0  0  0  0  0  0  0  0  0  0
  -24.6671  -22.6848   22.4099 C   0  0  0  0  0  0  0  0  0  0  0  0
  -27.2693  -26.2939   24.5089 C   0  0  0  0  0  0  0  0  0  0  0  0
  -24.0233  -11.1638   21.4421 C   0  0  0  0  0  0  0  0  0  0  0  0
  -26.3106  -10.8638   20.7241 C   0  0  0  0  0  0  0  0  0  0  0  0
  -28.6624  -26.3369   24.4746 C   0  0  0  0  0  0  0  0  0  0  0  0
  -24.7407   -8.4641   23.3474 C   0  0  0  0  0  0  0  0  0  0  0  0
  -24.0758   -7.8608   24.4149 C   0  0  0  0  0  0  0  0  0  0  0  0
  -28.5619  -28.0377   22.7668 C   0  0  0  0  0  0  0  0  0  0  0  0
  -22.3549   -7.0873   22.9059 C   0  0  0  0  0  0  0  0  0  0  0  0
  -29.5719  -23.8335   19.5143 C   0  0  0  0  0  0  0  0  0  0  0  0
  -25.4648  -13.0831   21.1675 C   0  0  0  0  0  0  0  0  0  0  0  0
  -26.1157  -15.2589   22.3293 C   0  0  0  0  0  0  0  0  0  0  0  0
  -22.9944  -21.8819   20.8522 C   0  0  0  0  0  0  0  0  0  0  0  0
  -26.5108  -27.1161   23.6633 C   0  0  0  0  0  0  0  0  0  0  0  0
  -23.8001  -22.9351   21.3309 C   0  0  0  0  0  0  0  0  0  0  0  0
  -27.1593  -28.0051   22.7942 C   0  0  0  0  0  0  0  0  0  0  0  0
  -25.0676  -10.3241   21.0550 C   0  0  0  0  0  0  0  0  0  0  0  0
  -29.3089  -27.2068   23.6014 C   0  0  0  0  0  0  0  0  0  0  0  0
  -24.2126   -8.3791   22.0591 C   0  0  0  0  0  0  0  0  0  0  0  0
  -22.8829   -7.1724   24.1942 C   0  0  0  0  0  0  0  0  0  0  0  0
  -23.0197   -7.6906   21.8384 C   0  0  0  0  0  0  0  0  0  0  0  0
  -25.6704  -14.5080   21.2249 C   0  0  0  0  0  0  0  0  0  0  0  0
  -26.1438  -16.5547   21.8747 C   0  0  0  0  0  0  0  0  0  0  0  0
  -29.6520  -23.6011   20.8713 C   0  0  0  0  0  0  0  0  0  0  0  0
  -28.5240  -21.9081   19.5815 C   0  0  0  0  0  0  0  0  0  0  0  0
  -26.4723  -14.8239   23.6481 C   0  0  0  0  0  0  0  0  0  0  0  0
  -24.4173  -26.6068   21.3263 C   0  0  0  0  0  0  0  0  0  0  0  0
  -24.0742  -29.8297   21.4593 C   0  0  0  0  0  0  0  0  0  0  0  0
  -25.4143  -32.8537   22.3000 C   0  0  0  0  0  0  0  0  0  0  0  0
  -30.8755  -25.5714   21.8511 C   0  0  0  0  0  0  0  0  0  0  0  0
  -27.4078  -20.3217   17.9740 C   0  0  0  0  0  0  0  0  0  0  0  0
  -22.0515  -22.0690   19.6899 C   0  0  0  0  0  0  0  0  0  0  0  0
  -25.0087  -27.0770   23.7315 C   0  0  0  0  0  0  0  0  0  0  0  0
  -26.3907  -28.9231   21.8803 C   0  0  0  0  0  0  0  0  0  0  0  0
  -22.4064  -23.2737   18.8243 C   0  0  0  0  0  0  0  0  0  0  0  0
  -24.3163  -18.5919   17.6165 C   0  0  0  0  0  0  0  0  0  0  0  0
  -22.6175  -24.4992   19.7007 C   0  0  0  0  0  0  0  0  0  0  0  0
  -24.4296  -17.4370   18.6143 C   0  0  0  0  0  0  0  0  0  0  0  0
  -25.6544  -18.8936   16.9439 C   0  0  0  0  0  0  0  0  0  0  0  0
  -26.8887  -17.9646   18.8629 C   0  0  0  0  0  0  0  0  0  0  0  0
  -23.8030  -24.2928   20.6519 C   0  0  1  0  0  0  0  0  0  0  0  0
  -24.3393  -27.5897   22.4601 C   0  0  1  0  0  0  0  0  0  0  0  0
  -25.5805  -17.6664   19.6135 C   0  0  2  0  0  0  0  0  0  0  0  0
  -24.9120  -35.3119   22.2549 C   0  0  0  0  0  0  0  0  0  0  0  0
  -32.8499  -26.2867   23.2475 C   0  0  0  0  0  0  0  0  0  0  0  0
  -24.6430  -29.8885   18.4622 C   0  0  0  0  0  0  0  0  0  0  0  0
  -25.0674  -32.3479   18.6616 C   0  0  0  0  0  0  0  0  0  0  0  0
  -22.8154  -31.4243   19.2075 C   0  0  0  0  0  0  0  0  0  0  0  0
  -25.5932  -33.0622   25.2467 C   0  0  0  0  0  0  0  0  0  0  0  0
  -24.7435  -31.0047   20.7881 C   0  0  1  0  0  0  0  0  0  0  0  0
  -24.8419  -34.0300   23.0701 C   0  0  2  0  0  0  0  0  0  0  0  0
  -31.3482  -26.0428   23.2239 C   0  0  1  0  0  0  0  0  0  1  0  0
  -24.3321  -31.1478   19.2956 C   0  0  0  0  0  0  0  0  0  0  0  0
  -28.9258  -22.8635   18.7730 N   0  0  0  0  0  0  0  0  0  0  0  0
  -25.4325  -15.2639   20.1496 N   0  0  0  0  0  0  0  0  0  0  0  0
  -25.7294  -16.5032   20.5763 N   0  0  0  0  0  0  0  0  0  0  0  0
  -24.9240  -28.8432   21.9795 N   0  0  0  0  0  0  0  0  0  0  0  0
  -26.6956  -19.1039   17.9521 N   0  0  0  0  0  0  0  0  0  0  0  0
  -26.4823  -17.7216   22.4629 N   0  0  0  0  0  0  0  0  0  0  0  0
  -26.3861  -13.4574   23.9471 N   0  0  0  0  0  0  0  0  0  0  0  0
  -30.2232  -24.3454   21.9309 N   0  0  0  0  0  0  0  0  0  0  0  0
  -27.8222  -20.7245   19.2431 N   0  0  0  0  0  0  0  0  0  0  0  0
  -23.8406  -25.3819   21.6028 N   0  0  0  0  0  0  0  0  0  0  0  0
  -24.4361  -32.1721   21.6073 N   0  0  0  0  0  0  0  0  0  0  0  0
  -25.5985  -34.2369   24.3373 N   0  3  0  0  0  0  0  0  0  0  0  0
  -26.8401  -15.6255   24.5401 O   0  0  0  0  0  0  0  0  0  0  0  0
  -24.9592  -26.9359   20.2776 O   0  0  0  0  0  0  0  0  0  0  0  0
  -22.8431  -29.7921   21.5261 O   0  0  0  0  0  0  0  0  0  0  0  0
  -26.6101  -32.5701   22.3088 O   0  0  0  0  0  0  0  0  0  0  0  0
  -31.0664  -26.2488   20.8452 O   0  0  0  0  0  0  0  0  0  0  0  0
  -27.6097  -20.9740   16.9465 O   0  0  0  0  0  0  0  0  0  0  0  0
  -24.8743   -8.9779   21.0002 O   0  0  0  0  0  0  0  0  0  0  0  0
  -30.6686  -27.2502   23.5653 O   0  0  0  0  0  0  0  0  0  1  0  0
  -22.2453   -6.5918   25.2191 F   0  0  0  0  0  0  0  0  0  0  0  0
  -22.5082   -7.6045   20.6028 F   0  0  0  0  0  0  0  0  0  0  0  0
  -28.8889  -22.1116   21.2459 S   0  0  0  0  0  0  0  0  0  0  0  0
  1  2  1  0  0  0  0
  1  5  2  0  0  0  0
  2  6  2  0  0  0  0
  3  8  2  0  0  0  0
  3 16  1  0  0  0  0
  4  9  1  0  0  0  0
  4 16  2  0  0  0  0
  5 18  1  0  0  0  0
  6 20  1  0  0  0  0
  7 10  2  0  0  0  0
  7 19  1  0  0  0  0
  8 22  1  0  0  0  0
  9 22  2  0  0  0  0
 10 23  1  0  0  0  0
 11 12  2  0  0  0  0
 11 24  1  0  0  0  0
 12 25  1  0  0  0  0
 13 21  1  0  0  0  0
 13 23  2  0  0  0  0
 14 25  2  0  0  0  0
 14 26  1  0  0  0  0
 15 29  2  0  0  0  0
 15 59  1  0  0  0  0
 16 27  1  0  0  0  0
 17 27  1  0  0  0  0
 17 28  2  0  0  0  0
 17 31  1  0  0  0  0
 18 20  2  0  0  0  0
 18 37  1  0  0  0  0
 19 21  2  0  0  0  0
 19 38  1  0  0  0  0
 20 46  1  0  0  0  0
 21 39  1  0  0  0  0
 22 77  1  0  0  0  0
 23 78  1  0  0  0  0
 24 26  2  0  0  0  0
 24 77  1  0  0  0  0
 25 79  1  0  0  0  0
 26 80  1  0  0  0  0
 27 60  2  0  0  0  0
 28 61  1  0  0  0  0
 28 64  1  0  0  0  0
 29 66  1  0  0  0  0
 29 81  1  0  0  0  0
 30 59  2  0  0  0  0
 30 67  1  0  0  0  0
 30 81  1  0  0  0  0
 31 65  1  0  0  0  0
 31 71  2  0  0  0  0
 32 47  1  0  0  0  0
 32 68  1  0  0  0  0
 32 72  2  0  0  0  0
 33 55  1  0  0  0  0
 33 62  1  0  0  0  0
 33 73  2  0  0  0  0
 34 56  1  0  0  0  0
 34 69  1  0  0  0  0
 34 74  2  0  0  0  0
 35 57  1  0  0  0  0
 35 66  1  0  0  0  0
 35 75  2  0  0  0  0
 36 63  1  0  0  0  0
 36 67  1  0  0  0  0
 36 76  2  0  0  0  0
 37 40  1  0  0  0  0
 38 47  1  0  0  0  0
 39 62  1  0  0  0  0
 40 42  1  0  0  0  0
 41 43  1  0  0  0  0
 41 44  1  0  0  0  0
 42 46  1  0  0  0  0
 43 48  1  0  0  0  0
 44 63  1  0  0  0  0
 45 48  1  0  0  0  0
 45 63  1  0  0  0  0
 46 68  1  0  0  0  0
 47 62  1  0  0  0  0
 48 61  1  0  0  0  0
 49 56  1  0  0  0  0
 50 57  1  0  0  0  0
 51 58  1  0  0  0  0
 52 58  1  0  0  0  0
 53 58  1  0  0  0  0
 54 70  1  0  0  0  0
 55 58  1  0  0  0  0
 55 69  1  0  0  0  0
 56 70  1  0  0  0  0
 57 78  1  0  0  0  0
 60 61  1  0  0  0  0
M  CHG  1  70   1
M  ISO  4  36 100  57 101  67 100  78 101
M  END
> <Batch ID>
0150

> <Smiles>
CNC(C)C(=O)NC(C(=O)N1Cc2cc([101O:1][101CH:1](C)C(=O)Nc3cnc([100NH:0][100C:0](=O)N4CCCC(n5nc(-c6ccc(Oc7ccc(F)cc7F)cc6)c(C(N)=O)c5N)C4)s3)ccc2CC1C(=O)NC1CCCc2ccccc21)C(C)(C)C

> <Shape>
0.194

> <Color>
0.059

> <Negative vol penalty>
0.000

$$$$

  -OEChem-04052303213D

 86 95  0     1  0  0  0  0  0999 V2000
  -32.0540  -24.9481   17.7252 C   0  0  0  0  0  0  0  0  0  0  0  0
  -30.8940  -24.6300   18.4242 C   0  0  0  0  0  0  0  0  0  0  0  0
  -28.3089  -13.5413   19.9909 C   0  0  0  0  0  0  0  0  0  0  0  0
  -27.4712  -13.7742   22.2451 C   0  0  0  0  0  0  0  0  0  0  0  0
  -32.7799  -26.0892   18.0640 C   0  0  0  0  0  0  0  0  0  0  0  0
  -30.4598  -25.4524   19.4632 C   0  0  0  0  0  0  0  0  0  0  0  0
  -25.4808  -26.3572   19.2737 C   0  0  0  0  0  0  0  0  0  0  0  0
  -29.0368  -14.7218   20.1394 C   0  0  0  0  0  0  0  0  0  0  0  0
  -28.1992  -14.9547   22.3936 C   0  0  0  0  0  0  0  0  0  0  0  0
  -24.6325  -25.3481   19.7276 C   0  0  0  0  0  0  0  0  0  0  0  0
  -28.4347  -18.0466   20.0508 C   0  0  0  0  0  0  0  0  0  0  0  0
  -28.3937  -18.9683   19.0047 C   0  0  0  0  0  0  0  0  0  0  0  0
  -21.8943  -18.0822   18.0241 C   0  0  0  0  0  0  0  0  0  0  0  0
  -21.8328  -16.7934   17.4424 C   0  0  0  0  0  0  0  0  0  0  0  0
  -24.3884  -26.5070   21.8292 C   0  0  0  0  0  0  0  0  0  0  0  0
  -30.7898  -18.7888   18.7525 C   0  0  0  0  0  0  0  0  0  0  0  0
  -27.5260  -13.0675   21.0437 C   0  0  0  0  0  0  0  0  0  0  0  0
  -27.2038  -10.5409   21.1860 C   0  0  0  0  0  0  0  0  0  0  0  0
  -32.3492  -26.9312   19.1014 C   0  0  0  0  0  0  0  0  0  0  0  0
  -25.7984  -27.4451   20.0996 C   0  0  0  0  0  0  0  0  0  0  0  0
  -31.1814  -26.6052   19.8171 C   0  0  0  0  0  0  0  0  0  0  0  0
  -25.2389  -27.5299   21.3825 C   0  0  0  0  0  0  0  0  0  0  0  0
  -28.9819  -15.4286   21.3407 C   0  0  0  0  0  0  0  0  0  0  0  0
  -24.0885  -25.4215   21.0065 C   0  0  0  0  0  0  0  0  0  0  0  0
  -29.6533  -17.4960   20.4478 C   0  0  0  0  0  0  0  0  0  0  0  0
  -29.5712  -19.3394   18.3556 C   0  0  0  0  0  0  0  0  0  0  0  0
  -30.8308  -17.8671   19.7987 C   0  0  0  0  0  0  0  0  0  0  0  0
  -26.7734  -11.8484   20.8908 C   0  0  0  0  0  0  0  0  0  0  0  0
  -26.1293   -9.7461   20.8697 C   0  0  0  0  0  0  0  0  0  0  0  0
  -22.2147  -17.8891   19.3477 C   0  0  0  0  0  0  0  0  0  0  0  0
  -22.1204  -15.9045   18.4520 C   0  0  0  0  0  0  0  0  0  0  0  0
  -28.4624  -10.0856   21.7002 C   0  0  0  0  0  0  0  0  0  0  0  0
  -28.4787  -28.5934   21.3648 C   0  0  0  0  0  0  0  0  0  0  0  0
  -26.5319  -31.0034   22.3262 C   0  0  0  0  0  0  0  0  0  0  0  0
  -23.3726  -32.0492   23.0826 C   0  0  0  0  0  0  0  0  0  0  0  0
  -22.5059  -13.6580   19.5446 C   0  0  0  0  0  0  0  0  0  0  0  0
  -33.1928  -28.1281   19.4625 C   0  0  0  0  0  0  0  0  0  0  0  0
  -26.6937  -28.5389   19.5853 C   0  0  0  0  0  0  0  0  0  0  0  0
  -25.5323  -28.6871   22.3007 C   0  0  0  0  0  0  0  0  0  0  0  0
  -32.4613  -29.1495   20.3296 C   0  0  0  0  0  0  0  0  0  0  0  0
  -22.4543  -10.2332   17.7742 C   0  0  0  0  0  0  0  0  0  0  0  0
  -31.7270  -28.4528   21.4707 C   0  0  0  0  0  0  0  0  0  0  0  0
  -23.7623   -9.8399   18.4490 C   0  0  0  0  0  0  0  0  0  0  0  0
  -22.8664  -19.6366   22.5535 C   0  0  0  0  0  0  0  0  0  0  0  0
  -22.2332  -11.7392   17.8860 C   0  0  0  0  0  0  0  0  0  0  0  0
  -22.7488  -18.3437   21.7457 C   0  0  0  0  0  0  0  0  0  0  0  0
  -22.7154  -11.2962   20.2950 C   0  0  0  0  0  0  0  0  0  0  0  0
  -30.6647  -27.4858   20.9341 C   0  0  1  0  0  0  0  0  0  0  0  0
  -27.3577  -29.3412   20.7000 C   0  0  1  0  0  0  0  0  0  0  0  0
  -23.7649  -10.2221   19.9426 C   0  0  2  0  0  0  0  0  0  0  0  0
  -22.4403  -20.2470   20.2589 C   0  0  2  0  0  0  0  0  0  0  0  0
  -23.2540  -20.6782   21.5036 C   0  0  1  0  0  0  0  0  0  0  0  0
  -21.0103  -20.7913   20.2266 C   0  0  0  0  0  0  0  0  0  0  0  0
  -22.1007  -34.0621   23.8749 C   0  0  0  0  0  0  0  0  0  0  0  0
  -27.5540  -30.5300   25.1619 C   0  0  0  0  0  0  0  0  0  0  0  0
  -25.6106  -31.8612   26.0100 C   0  0  0  0  0  0  0  0  0  0  0  0
  -27.3066  -32.9372   24.5305 C   0  0  0  0  0  0  0  0  0  0  0  0
  -21.7517  -32.1432   20.6081 C   0  0  0  0  0  0  0  0  0  0  0  0
  -25.4520  -20.7068   22.3373 C   0  0  0  0  0  0  0  0  0  0  0  0
  -23.0384  -22.1083   21.9801 C   0  0  0  0  0  0  0  0  0  0  0  0
  -23.4758  -23.1246   20.9363 C   0  0  0  0  0  0  0  0  0  1  0  0
  -25.6819  -31.2695   23.5451 C   0  0  1  0  0  0  0  0  0  0  0  0
  -22.5931  -33.2831   22.6652 C   0  0  2  0  0  0  0  0  0  0  0  0
  -26.5341  -31.6266   24.7955 C   0  0  0  0  0  0  0  0  0  0  0  0
  -25.5230  -11.8863   20.4227 N   0  0  0  0  0  0  0  0  0  0  0  0
  -25.1585  -10.5927   20.4214 N   0  0  0  0  0  0  0  0  0  0  0  0
  -22.4068  -18.7780   20.3894 N   0  0  3  0  0  0  0  0  0  0  0  0
  -26.4183  -29.7283   21.7545 N   0  0  0  0  0  0  0  0  0  0  0  0
  -22.5112  -12.2769   19.2259 N   0  0  0  0  0  0  0  0  0  0  0  0
  -25.9296   -8.4125   20.9340 N   0  0  0  0  0  0  0  0  0  0  0  0
  -29.4567  -11.0356   21.9707 N   0  0  0  0  0  0  0  0  0  0  0  0
  -22.2047  -14.4893   18.4624 N   0  0  0  0  0  0  0  0  0  0  0  0
  -29.4902  -28.2135   20.5034 N   0  0  0  0  0  0  0  0  0  0  0  0
  -24.7261  -32.3017   23.1587 N   0  0  0  0  0  0  0  0  0  0  0  0
  -21.4120  -32.8960   21.8429 N   0  3  0  0  0  0  0  0  0  0  0  0
  -28.7040   -8.8707   21.8980 O   0  0  0  0  0  0  0  0  0  0  0  0
  -28.4303  -28.3785   22.5703 O   0  0  0  0  0  0  0  0  0  0  0  0
  -27.2643  -31.8965   21.8931 O   0  0  0  0  0  0  0  0  0  0  0  0
  -22.8344  -30.9704   23.3211 O   0  0  0  0  0  0  0  0  0  0  0  0
  -22.7456  -14.0605   20.6849 O   0  0  0  0  0  0  0  0  0  0  0  0
  -22.3545  -16.5644   19.6166 O   0  0  0  0  0  0  0  0  0  0  0  0
  -29.6923  -16.5804   21.4861 O   0  0  0  0  0  0  0  0  0  0  0  0
  -23.2608  -24.4376   21.4523 O   0  0  0  0  0  0  0  0  0  1  0  0
  -24.6434  -20.5240   21.1878 O   0  0  0  0  0  0  0  0  0  0  0  0
  -29.5314  -20.2234   17.3500 F   0  0  0  0  0  0  0  0  0  0  0  0
  -32.0043  -17.3406   20.1748 F   0  0  0  0  0  0  0  0  0  0  0  0
  1  2  1  0  0  0  0
  1  5  2  0  0  0  0
  2  6  2  0  0  0  0
  3  8  2  0  0  0  0
  3 17  1  0  0  0  0
  4  9  1  0  0  0  0
  4 17  2  0  0  0  0
  5 19  1  0  0  0  0
  6 21  1  0  0  0  0
  7 10  2  0  0  0  0
  7 20  1  0  0  0  0
  8 23  1  0  0  0  0
  9 23  2  0  0  0  0
 10 24  1  0  0  0  0
 11 12  2  0  0  0  0
 11 25  1  0  0  0  0
 12 26  1  0  0  0  0
 13 14  1  0  0  0  0
 13 30  2  0  0  0  0
 14 31  2  0  0  0  0
 15 22  1  0  0  0  0
 15 24  2  0  0  0  0
 16 26  2  0  0  0  0
 16 27  1  0  0  0  0
 17 28  1  0  0  0  0
 18 28  1  0  0  0  0
 18 29  2  0  0  0  0
 18 32  1  0  0  0  0
 19 21  2  0  0  0  0
 19 37  1  0  0  0  0
 20 22  2  0  0  0  0
 20 38  1  0  0  0  0
 21 48  1  0  0  0  0
 22 39  1  0  0  0  0
 23 82  1  0  0  0  0
 24 83  1  0  0  0  0
 25 27  2  0  0  0  0
 25 82  1  0  0  0  0
 26 85  1  0  0  0  0
 27 86  1  0  0  0  0
 28 65  2  0  0  0  0
 29 66  1  0  0  0  0
 29 70  1  0  0  0  0
 30 67  1  0  0  0  0
 30 81  1  0  0  0  0
 31 72  1  0  0  0  0
 31 81  1  0  0  0  0
 32 71  1  0  0  0  0
 32 76  2  0  0  0  0
 33 49  1  0  0  0  0
 33 73  1  0  0  0  0
 33 77  2  0  0  0  0
 34 62  1  0  0  0  0
 34 68  1  0  0  0  0
 34 78  2  0  0  0  0
 35 63  1  0  0  0  0
 35 74  1  0  0  0  0
 35 79  2  0  0  0  0
 36 69  1  0  0  0  0
 36 72  1  0  0  0  0
 36 80  2  0  0  0  0
 37 40  1  0  0  0  0
 38 49  1  0  0  0  0
 39 68  1  0  0  0  0
 40 42  1  0  0  0  0
 41 43  1  0  0  0  0
 41 45  1  0  0  0  0
 42 48  1  0  0  0  0
 43 50  1  0  0  0  0
 44 46  1  0  0  0  0
 44 52  1  0  0  0  0
 45 69  1  0  0  0  0
 46 67  1  0  0  0  0
 47 50  1  0  0  0  0
 47 69  1  0  0  0  0
 48 73  1  0  0  0  0
 49 68  1  0  0  0  0
 50 66  1  0  0  0  0
 51 52  1  0  0  0  0
 51 53  1  0  0  0  0
 51 67  1  0  0  0  0
 52 60  1  0  0  0  0
 52 84  1  0  0  0  0
 54 63  1  0  0  0  0
 55 64  1  0  0  0  0
 56 64  1  0  0  0  0
 57 64  1  0  0  0  0
 58 75  1  0  0  0  0
 59 84  1  0  0  0  0
 60 61  1  0  0  0  0
 61 83  1  0  0  0  0
 62 64  1  0  0  0  0
 62 74  1  0  0  0  0
 63 75  1  0  0  0  0
 65 66  1  0  0  0  0
M  CHG  1  75   1
M  ISO  4  36 100  61 101  72 100  83 101
M  END
> <Batch ID>
0150

> <Smiles>
CNC(C)C(=O)NC(C(=O)N1Cc2cc([101O:1][101CH2:1]CC3(OC)CCN(c4ccc([100NH:0][100C:0](=O)N5CCCC(n6nc(-c7ccc(Oc8ccc(F)cc8F)cc7)c(C(N)=O)c6N)C5)o4)C3C)ccc2CC1C(=O)NC1CCCc2ccccc21)C(C)(C)C

> <Shape>
0.233

> <Color>
0.055

> <Negative vol penalty>
0.000

$$$$

  -OEChem-04052303213D

 85 94  0     1  0  0  0  0  0999 V2000
  -26.6503  -29.2271   25.3643 C   0  0  0  0  0  0  0  0  0  0  0  0
  -26.3246  -27.9291   25.7412 C   0  0  0  0  0  0  0  0  0  0  0  0
  -28.8538  -26.3309   18.1862 C   0  0  0  0  0  0  0  0  0  0  0  0
  -28.3834  -25.7415   20.4815 C   0  0  0  0  0  0  0  0  0  0  0  0
  -27.8731  -29.4837   24.7477 C   0  0  0  0  0  0  0  0  0  0  0  0
  -27.2264  -26.8892   25.5124 C   0  0  0  0  0  0  0  0  0  0  0  0
  -26.6784  -20.8931   26.4470 C   0  0  0  0  0  0  0  0  0  0  0  0
  -28.1566  -27.5277   18.3505 C   0  0  0  0  0  0  0  0  0  0  0  0
  -27.6862  -26.9384   20.6459 C   0  0  0  0  0  0  0  0  0  0  0  0
  -26.2691  -19.7723   25.7258 C   0  0  0  0  0  0  0  0  0  0  0  0
  -25.4758  -29.6728   21.5662 C   0  0  0  0  0  0  0  0  0  0  0  0
  -24.2456  -29.6217   22.2216 C   0  0  0  0  0  0  0  0  0  0  0  0
  -28.5686  -19.2937   25.1760 C   0  0  0  0  0  0  0  0  0  0  0  0
  -23.4043  -28.1210   20.5254 C   0  0  0  0  0  0  0  0  0  0  0  0
  -27.9556  -11.6224   19.0526 C   0  0  0  0  0  0  0  0  0  0  0  0
  -28.9672  -25.4378   19.2516 C   0  0  0  0  0  0  0  0  0  0  0  0
  -31.0587  -23.9782   19.3064 C   0  0  0  0  0  0  0  0  0  0  0  0
  -28.7845  -28.4439   24.5004 C   0  0  0  0  0  0  0  0  0  0  0  0
  -28.0373  -21.2292   26.5292 C   0  0  0  0  0  0  0  0  0  0  0  0
  -28.4757  -27.1318   24.9130 C   0  0  0  0  0  0  0  0  0  0  0  0
  -28.9928  -20.4177   25.9010 C   0  0  0  0  0  0  0  0  0  0  0  0
  -27.9066  -13.6441   20.1981 C   0  0  0  0  0  0  0  0  0  0  0  0
  -27.2797  -12.3832   19.9809 C   0  0  0  0  0  0  0  0  0  0  0  0
  -27.5727  -27.8315   19.5804 C   0  0  0  0  0  0  0  0  0  0  0  0
  -27.2139  -18.9741   25.0877 C   0  0  0  0  0  0  0  0  0  0  0  0
  -25.6703  -28.9481   20.3903 C   0  0  0  0  0  0  0  0  0  0  0  0
  -23.2099  -28.8458   21.7012 C   0  0  0  0  0  0  0  0  0  0  0  0
  -24.6345  -28.1722   19.8699 C   0  0  0  0  0  0  0  0  0  0  0  0
  -29.6869  -24.2010   19.0823 C   0  0  0  0  0  0  0  0  0  0  0  0
  -29.0381  -13.7989   19.4275 C   0  0  0  0  0  0  0  0  0  0  0  0
  -31.2449  -22.6513   19.0047 C   0  0  0  0  0  0  0  0  0  0  0  0
  -32.0740  -24.8893   19.7480 C   0  0  0  0  0  0  0  0  0  0  0  0
  -29.7902  -23.7216   25.6241 C   0  0  0  0  0  0  0  0  0  0  0  0
  -32.1420  -22.1486   27.2106 C   0  0  0  0  0  0  0  0  0  0  0  0
  -33.3615  -19.1878   28.3909 C   0  0  0  0  0  0  0  0  0  0  0  0
  -29.7085  -17.4161   19.4279 C   0  0  0  0  0  0  0  0  0  0  0  0
  -30.0970  -28.7791   23.8369 C   0  0  0  0  0  0  0  0  0  0  0  0
  -28.4649  -22.4263   27.3333 C   0  0  0  0  0  0  0  0  0  0  0  0
  -30.4656  -20.7238   25.9756 C   0  0  0  0  0  0  0  0  0  0  0  0
  -30.7896  -27.5589   23.2388 C   0  0  0  0  0  0  0  0  0  0  0  0
  -28.1686  -19.3194   16.7627 C   0  0  0  0  0  0  0  0  0  0  0  0
  -30.8416  -26.4362   24.2641 C   0  0  0  0  0  0  0  0  0  0  0  0
  -28.5448  -20.7497   17.1537 C   0  0  0  0  0  0  0  0  0  0  0  0
  -26.1919  -16.3903   21.9656 C   0  0  0  0  0  0  0  0  0  0  0  0
  -27.8593  -18.4729   17.9939 C   0  0  0  0  0  0  0  0  0  0  0  0
  -26.1277  -15.2281   20.9752 C   0  0  0  0  0  0  0  0  0  0  0  0
  -29.3292  -19.8651   19.3992 C   0  0  0  0  0  0  0  0  0  0  0  0
  -28.2220  -15.1372   22.1921 C   0  0  0  0  0  0  0  0  0  0  0  0
  -29.4279  -25.9800   24.6467 C   0  0  1  0  0  0  0  0  0  0  0  0
  -29.8314  -22.9655   26.9218 C   0  0  1  0  0  0  0  0  0  0  0  0
  -29.6754  -20.7657   18.1996 C   0  0  2  0  0  0  0  0  0  0  0  0
  -27.1935  -15.9227   23.0315 C   0  0  2  0  0  0  0  0  0  0  0  0
  -26.5137  -15.0056   24.0624 C   0  0  0  0  0  0  0  0  0  0  0  0
  -35.3244  -18.2130   29.6133 C   0  0  0  0  0  0  0  0  0  0  0  0
  -33.8252  -22.3645   24.6749 C   0  0  0  0  0  0  0  0  0  0  0  0
  -35.3328  -20.5972   25.6086 C   0  0  0  0  0  0  0  0  0  0  0  0
  -35.0807  -22.7751   26.7985 C   0  0  0  0  0  0  0  0  0  0  0  0
  -31.6539  -18.2403   30.6148 C   0  0  0  0  0  0  0  0  0  0  0  0
  -29.9680  -14.9494   19.3553 C   0  0  0  0  0  0  0  0  0  0  0  0
  -27.8384  -17.1068   23.7539 C   0  0  0  0  0  0  0  0  0  1  0  0
  -33.1756  -21.1134   26.8379 C   0  0  1  0  0  0  0  0  0  0  0  0
  -33.9275  -18.7997   29.7450 C   0  0  2  0  0  0  0  0  0  0  0  0
  -34.3257  -21.7076   25.9768 C   0  0  0  0  0  0  0  0  0  0  0  0
  -29.0469  -23.1036   18.6698 N   0  0  0  0  0  0  0  0  0  0  0  0
  -30.0210  -22.1784   18.6324 N   0  0  0  0  0  0  0  0  0  0  0  0
  -27.4434  -14.6033   21.0743 N   0  0  3  0  0  0  0  0  0  0  0  0
  -30.8332  -21.9086   26.7686 N   0  0  0  0  0  0  0  0  0  0  0  0
  -28.9825  -18.5157   18.9409 N   0  0  0  0  0  0  0  0  0  0  0  0
  -26.1521  -11.9631   20.6034 N   0  0  0  0  0  0  0  0  0  0  0  0
  -32.3344  -21.8545   19.0242 N   0  0  0  0  0  0  0  0  0  0  0  0
  -31.7109  -26.2166   20.0136 N   0  0  0  0  0  0  0  0  0  0  0  0
  -29.5129  -25.0679   25.7659 N   0  0  0  0  0  0  0  0  0  0  0  0
  -33.6177  -20.5088   28.0899 N   0  0  0  0  0  0  0  0  0  0  0  0
  -29.3125  -16.1729   18.9499 N   0  0  0  0  0  0  0  0  0  0  0  0
  -33.0526  -17.7874   30.4013 N   0  3  0  0  0  0  0  0  0  0  0  0
  -33.2710  -24.5407   19.8866 O   0  0  0  0  0  0  0  0  0  0  0  0
  -29.9964  -23.1279   24.5721 O   0  0  0  0  0  0  0  0  0  0  0  0
  -32.4818  -23.1303   27.8758 O   0  0  0  0  0  0  0  0  0  0  0  0
  -32.7561  -18.3971   27.6706 O   0  0  0  0  0  0  0  0  0  0  0  0
  -30.6445  -17.5338   20.2262 O   0  0  0  0  0  0  0  0  0  0  0  0
  -26.8925  -28.9993   19.7412 O   0  0  0  0  0  0  0  0  0  0  0  0
  -26.8170  -17.8800   24.3826 O   0  0  0  0  0  0  0  0  0  1  0  0
  -22.0291  -28.7955   22.3316 F   0  0  0  0  0  0  0  0  0  0  0  0
  -24.8158  -27.4729   18.7412 F   0  0  0  0  0  0  0  0  0  0  0  0
  -29.3402  -12.4279   18.4471 S   0  0  0  0  0  0  0  0  0  0  0  0
  1  2  1  0  0  0  0
  1  5  2  0  0  0  0
  2  6  2  0  0  0  0
  3  8  2  0  0  0  0
  3 16  1  0  0  0  0
  4  9  1  0  0  0  0
  4 16  2  0  0  0  0
  5 18  1  0  0  0  0
  6 20  1  0  0  0  0
  7 10  2  0  0  0  0
  7 19  1  0  0  0  0
  8 24  1  0  0  0  0
  9 24  2  0  0  0  0
 10 25  1  0  0  0  0
 11 12  2  0  0  0  0
 11 26  1  0  0  0  0
 12 27  1  0  0  0  0
 13 21  1  0  0  0  0
 13 25  2  0  0  0  0
 14 27  2  0  0  0  0
 14 28  1  0  0  0  0
 15 23  2  0  0  0  0
 15 85  1  0  0  0  0
 16 29  1  0  0  0  0
 17 29  1  0  0  0  0
 17 31  2  0  0  0  0
 17 32  1  0  0  0  0
 18 20  2  0  0  0  0
 18 37  1  0  0  0  0
 19 21  2  0  0  0  0
 19 38  1  0  0  0  0
 20 49  1  0  0  0  0
 21 39  1  0  0  0  0
 22 23  1  0  0  0  0
 22 30  2  0  0  0  0
 22 66  1  0  0  0  0
 23 69  1  0  0  0  0
 24 81  1  0  0  0  0
 25 82  1  0  0  0  0
 26 28  2  0  0  0  0
 26 81  1  0  0  0  0
 27 83  1  0  0  0  0
 28 84  1  0  0  0  0
 29 64  2  0  0  0  0
 30 59  1  0  0  0  0
 30 85  1  0  0  0  0
 31 65  1  0  0  0  0
 31 70  1  0  0  0  0
 32 71  1  0  0  0  0
 32 76  2  0  0  0  0
 33 50  1  0  0  0  0
 33 72  1  0  0  0  0
 33 77  2  0  0  0  0
 34 61  1  0  0  0  0
 34 67  1  0  0  0  0
 34 78  2  0  0  0  0
 35 62  1  0  0  0  0
 35 73  1  0  0  0  0
 35 79  2  0  0  0  0
 36 68  1  0  0  0  0
 36 74  1  0  0  0  0
 36 80  2  0  0  0  0
 37 40  1  0  0  0  0
 38 50  1  0  0  0  0
 39 67  1  0  0  0  0
 40 42  1  0  0  0  0
 41 43  1  0  0  0  0
 41 45  1  0  0  0  0
 42 49  1  0  0  0  0
 43 51  1  0  0  0  0
 44 46  1  0  0  0  0
 44 52  1  0  0  0  0
 45 68  1  0  0  0  0
 46 66  1  0  0  0  0
 47 51  1  0  0  0  0
 47 68  1  0  0  0  0
 48 52  1  0  0  0  0
 48 66  1  0  0  0  0
 49 72  1  0  0  0  0
 50 67  1  0  0  0  0
 51 65  1  0  0  0  0
 52 53  1  0  0  0  0
 52 60  1  0  0  0  0
 54 62  1  0  0  0  0
 55 63  1  0  0  0  0
 56 63  1  0  0  0  0
 57 63  1  0  0  0  0
 58 75  1  0  0  0  0
 59 74  1  0  0  0  0
 60 82  1  0  0  0  0
 61 63  1  0  0  0  0
 61 73  1  0  0  0  0
 62 75  1  0  0  0  0
 64 65  1  0  0  0  0
M  CHG  1  75   1
M  ISO  4  36 100  60 101  74 100  82 101
M  END
> <Batch ID>
0150

> <Smiles>
CNC(C)C(=O)NC(C(=O)N1Cc2cc([101O:1][101CH2:1]C3(C)CCN(c4c(N)csc4C[100NH:0][100C:0](=O)N4CCCC(n5nc(-c6ccc(Oc7ccc(F)cc7F)cc6)c(C(N)=O)c5N)C4)C3)ccc2CC1C(=O)NC1CCCc2ccccc21)C(C)(C)C

> <Shape>
0.184

> <Color>
0.064

> <Negative vol penalty>
0.000

$$$$

  -OEChem-04052303213D

 83 91  0     1  0  0  0  0  0999 V2000
  -23.7380  -22.4430   17.1861 C   0  0  0  0  0  0  0  0  0  0  0  0
  -24.9582  -21.7825   17.2873 C   0  0  0  0  0  0  0  0  0  0  0  0
  -25.3358  -27.4694   19.5392 C   0  0  0  0  0  0  0  0  0  0  0  0
  -27.3091  -28.2999   20.6587 C   0  0  0  0  0  0  0  0  0  0  0  0
  -22.7118  -22.1506   18.0836 C   0  0  0  0  0  0  0  0  0  0  0  0
  -25.1533  -20.8299   18.2867 C   0  0  0  0  0  0  0  0  0  0  0  0
  -28.4960  -15.7135   17.8935 C   0  0  0  0  0  0  0  0  0  0  0  0
  -24.7733  -28.7450   19.5844 C   0  0  0  0  0  0  0  0  0  0  0  0
  -26.7466  -29.5755   20.7039 C   0  0  0  0  0  0  0  0  0  0  0  0
  -29.7919  -15.4057   18.3057 C   0  0  0  0  0  0  0  0  0  0  0  0
  -25.6820  -32.9726   21.4364 C   0  0  0  0  0  0  0  0  0  0  0  0
  -25.7752  -33.6802   22.6348 C   0  0  0  0  0  0  0  0  0  0  0  0
  -28.9125  -14.4579   20.3423 C   0  0  0  0  0  0  0  0  0  0  0  0
  -24.5469  -31.9320   23.7626 C   0  0  0  0  0  0  0  0  0  0  0  0
  -33.0692  -17.8290   22.2382 C   0  0  0  0  0  0  0  0  0  0  0  0
  -26.6037  -27.2468   20.0765 C   0  0  0  0  0  0  0  0  0  0  0  0
  -27.9911  -25.3908   19.0098 C   0  0  0  0  0  0  0  0  0  0  0  0
  -22.8912  -21.1869   19.0885 C   0  0  0  0  0  0  0  0  0  0  0  0
  -27.3977  -15.4051   18.7090 C   0  0  0  0  0  0  0  0  0  0  0  0
  -24.1291  -20.5252   19.1992 C   0  0  0  0  0  0  0  0  0  0  0  0
  -27.6036  -14.7605   19.9370 C   0  0  0  0  0  0  0  0  0  0  0  0
  -25.4787  -29.7981   20.1666 C   0  0  0  0  0  0  0  0  0  0  0  0
  -30.0005  -14.7804   19.5315 C   0  0  0  0  0  0  0  0  0  0  0  0
  -25.0212  -31.7447   21.4010 C   0  0  0  0  0  0  0  0  0  0  0  0
  -25.2077  -33.1599   23.7979 C   0  0  0  0  0  0  0  0  0  0  0  0
  -24.4537  -31.2243   22.5641 C   0  0  0  0  0  0  0  0  0  0  0  0
  -27.1851  -25.9293   20.0306 C   0  0  0  0  0  0  0  0  0  0  0  0
  -28.2841  -24.1192   19.4384 C   0  0  0  0  0  0  0  0  0  0  0  0
  -33.3104  -18.1614   20.9216 C   0  0  0  0  0  0  0  0  0  0  0  0
  -31.5760  -19.4206   22.0210 C   0  0  0  0  0  0  0  0  0  0  0  0
  -28.4353  -25.9867   17.7837 C   0  0  0  0  0  0  0  0  0  0  0  0
  -25.1339  -17.1014   20.1587 C   0  0  0  0  0  0  0  0  0  0  0  0
  -33.4547  -15.3543   20.4850 C   0  0  0  0  0  0  0  0  0  0  0  0
  -23.9436  -14.1708   20.8778 C   0  0  0  0  0  0  0  0  0  0  0  0
  -24.5260  -10.8391   21.3330 C   0  0  0  0  0  0  0  0  0  0  0  0
  -29.8279  -20.5600   23.4325 C   0  0  0  0  0  0  0  0  0  0  0  0
  -21.7689  -20.9387   20.0649 C   0  0  0  0  0  0  0  0  0  0  0  0
  -26.0042  -15.7196   18.2380 C   0  0  0  0  0  0  0  0  0  0  0  0
  -26.4568  -14.3899   20.8403 C   0  0  0  0  0  0  0  0  0  0  0  0
  -21.9293  -19.6466   20.8617 C   0  0  0  0  0  0  0  0  0  0  0  0
  -26.3747  -21.4110   23.2648 C   0  0  0  0  0  0  0  0  0  0  0  0
  -23.3517  -19.5237   21.3989 C   0  0  0  0  0  0  0  0  0  0  0  0
  -26.3440  -22.6180   22.3244 C   0  0  0  0  0  0  0  0  0  0  0  0
  -27.6129  -21.4204   24.1595 C   0  0  0  0  0  0  0  0  0  0  0  0
  -28.8607  -22.7569   22.5084 C   0  0  0  0  0  0  0  0  0  0  0  0
  -24.3707  -19.4677   20.2544 C   0  0  1  0  0  0  0  0  0  0  0  0
  -24.9971  -15.8242   19.3792 C   0  0  1  0  0  0  0  0  0  0  0  0
  -27.6648  -22.7568   21.5423 C   0  0  2  0  0  0  0  0  0  0  0  0
  -23.3642   -8.7028   21.9527 C   0  0  0  0  0  0  0  0  0  0  0  0
  -35.7422  -16.1417   21.2549 C   0  0  0  0  0  0  0  0  0  0  0  0
  -35.2568  -15.8038   18.8042 C   0  0  0  0  0  0  0  0  0  0  0  0
  -23.9125  -15.0391   23.8027 C   0  0  0  0  0  0  0  0  0  0  0  0
  -23.6694  -12.6308   24.4426 C   0  0  0  0  0  0  0  0  0  0  0  0
  -21.9010  -13.7415   23.0782 C   0  0  0  0  0  0  0  0  0  0  0  0
  -25.1792   -9.5927   18.7293 C   0  0  0  0  0  0  0  0  0  0  0  0
  -32.3129  -15.3337   19.4814 C   0  0  0  0  0  0  0  0  0  1  0  0
  -24.1265  -13.1915   22.0120 C   0  0  1  0  0  0  0  0  0  0  0  0
  -23.8025   -9.6098   20.8134 C   0  0  2  0  0  0  0  0  0  0  0  0
  -34.6811  -16.2214   20.1579 C   0  0  0  0  0  0  0  0  0  0  0  0
  -23.4243  -13.6593   23.3179 C   0  0  0  0  0  0  0  0  0  0  0  0
  -32.0752  -18.5503   22.8704 N   0  0  0  0  0  0  0  0  0  0  0  0
  -26.9791  -25.0700   21.0323 N   0  0  0  0  0  0  0  0  0  0  0  0
  -27.6598  -23.9787   20.6429 N   0  0  0  0  0  0  0  0  0  0  0  0
  -25.1136  -14.7239   20.3384 N   0  0  0  0  0  0  0  0  0  0  0  0
  -28.8261  -21.5501   23.3494 N   0  0  0  0  0  0  0  0  0  0  0  0
  -29.0123  -23.1187   18.8987 N   0  0  0  0  0  0  0  0  0  0  0  0
  -28.0424  -27.3016   17.4992 N   0  0  0  0  0  0  0  0  0  0  0  0
  -34.2385  -17.6035   20.0661 N   0  0  0  0  0  0  0  0  0  0  0  0
  -30.5402  -20.3599   22.2504 N   0  0  0  0  0  0  0  0  0  0  0  0
  -24.3871  -18.1499   19.6563 N   0  0  0  0  0  0  0  0  0  0  0  0
  -23.6644  -11.9001   21.5148 N   0  0  0  0  0  0  0  0  0  0  0  0
  -24.6920   -8.8297   19.9072 N   0  3  0  0  0  0  0  0  0  0  0  0
  -29.1457  -25.3657   16.9571 O   0  0  0  0  0  0  0  0  0  0  0  0
  -25.8619  -17.1329   21.1440 O   0  0  0  0  0  0  0  0  0  0  0  0
  -33.3758  -14.7178   21.5385 O   0  0  0  0  0  0  0  0  0  0  0  0
  -22.8050  -14.4298   20.4801 O   0  0  0  0  0  0  0  0  0  0  0  0
  -25.7340  -10.8552   21.5588 O   0  0  0  0  0  0  0  0  0  0  0  0
  -30.0203  -19.9168   24.4674 O   0  0  0  0  0  0  0  0  0  0  0  0
  -24.9302  -31.0430   20.2107 O   0  0  0  0  0  0  0  0  0  0  0  0
  -31.2643  -14.4794   19.9364 O   0  0  0  0  0  0  0  0  0  1  0  0
  -25.2986  -33.8388   24.9490 F   0  0  0  0  0  0  0  0  0  0  0  0
  -23.8186  -30.0446   22.5367 F   0  0  0  0  0  0  0  0  0  0  0  0
  -32.2544  -19.4259   20.4447 S   0  0  0  0  0  0  0  0  0  0  0  0
  1  2  1  0  0  0  0
  1  5  2  0  0  0  0
  2  6  2  0  0  0  0
  3  8  2  0  0  0  0
  3 16  1  0  0  0  0
  4  9  1  0  0  0  0
  4 16  2  0  0  0  0
  5 18  1  0  0  0  0
  6 20  1  0  0  0  0
  7 10  2  0  0  0  0
  7 19  1  0  0  0  0
  8 22  1  0  0  0  0
  9 22  2  0  0  0  0
 10 23  1  0  0  0  0
 11 12  2  0  0  0  0
 11 24  1  0  0  0  0
 12 25  1  0  0  0  0
 13 21  1  0  0  0  0
 13 23  2  0  0  0  0
 14 25  2  0  0  0  0
 14 26  1  0  0  0  0
 15 29  2  0  0  0  0
 15 61  1  0  0  0  0
 16 27  1  0  0  0  0
 17 27  1  0  0  0  0
 17 28  2  0  0  0  0
 17 31  1  0  0  0  0
 18 20  2  0  0  0  0
 18 37  1  0  0  0  0
 19 21  2  0  0  0  0
 19 38  1  0  0  0  0
 20 46  1  0  0  0  0
 21 39  1  0  0  0  0
 22 79  1  0  0  0  0
 23 80  1  0  0  0  0
 24 26  2  0  0  0  0
 24 79  1  0  0  0  0
 25 81  1  0  0  0  0
 26 82  1  0  0  0  0
 27 62  2  0  0  0  0
 28 63  1  0  0  0  0
 28 66  1  0  0  0  0
 29 68  1  0  0  0  0
 29 83  1  0  0  0  0
 30 61  2  0  0  0  0
 30 69  1  0  0  0  0
 30 83  1  0  0  0  0
 31 67  1  0  0  0  0
 31 73  2  0  0  0  0
 32 47  1  0  0  0  0
 32 70  1  0  0  0  0
 32 74  2  0  0  0  0
 33 56  1  0  0  0  0
 33 59  1  0  0  0  0
 33 75  2  0  0  0  0
 34 57  1  0  0  0  0
 34 64  1  0  0  0  0
 34 76  2  0  0  0  0
 35 58  1  0  0  0  0
 35 71  1  0  0  0  0
 35 77  2  0  0  0  0
 36 65  1  0  0  0  0
 36 69  1  0  0  0  0
 36 78  2  0  0  0  0
 37 40  1  0  0  0  0
 38 47  1  0  0  0  0
 39 64  1  0  0  0  0
 40 42  1  0  0  0  0
 41 43  1  0  0  0  0
 41 44  1  0  0  0  0
 42 46  1  0  0  0  0
 43 48  1  0  0  0  0
 44 65  1  0  0  0  0
 45 48  1  0  0  0  0
 45 65  1  0  0  0  0
 46 70  1  0  0  0  0
 47 64  1  0  0  0  0
 48 63  1  0  0  0  0
 49 58  1  0  0  0  0
 50 59  1  0  0  0  0
 51 59  1  0  0  0  0
 52 60  1  0  0  0  0
 53 60  1  0  0  0  0
 54 60  1  0  0  0  0
 55 72  1  0  0  0  0
 56 80  1  0  0  0  0
 57 60  1  0  0  0  0
 57 71  1  0  0  0  0
 58 72  1  0  0  0  0
 59 68  1  0  0  0  0
 62 63  1  0  0  0  0
M  CHG  1  72   1
M  ISO  4  36 100  56 101  69 100  80 101
M  END
> <Batch ID>
0150

> <Smiles>
CNC(C)C(=O)NC(C(=O)N1Cc2cc([101O:1][101CH2:1]C(=O)C(C)(C)Nc3cnc([100NH:0][100C:0](=O)N4CCCC(n5nc(-c6ccc(Oc7ccc(F)cc7F)cc6)c(C(N)=O)c5N)C4)s3)ccc2CC1C(=O)NC1CCCc2ccccc21)C(C)(C)C

> <Shape>
0.193

> <Color>
0.068

> <Negative vol penalty>
0.000

$$$$

  -OEChem-04052303213D

 85 94  0     1  0  0  0  0  0999 V2000
  -27.3655  -30.5075   28.4255 C   0  0  0  0  0  0  0  0  0  0  0  0
  -27.5711  -29.7007   27.3109 C   0  0  0  0  0  0  0  0  0  0  0  0
  -24.5264   -9.4929   20.9873 C   0  0  0  0  0  0  0  0  0  0  0  0
  -25.0173  -10.3080   23.2080 C   0  0  0  0  0  0  0  0  0  0  0  0
  -26.0977  -31.0267   28.6845 C   0  0  0  0  0  0  0  0  0  0  0  0
  -26.5086  -29.4118   26.4553 C   0  0  0  0  0  0  0  0  0  0  0  0
  -27.7749  -29.8436   21.5711 C   0  0  0  0  0  0  0  0  0  0  0  0
  -24.2916   -8.2198   21.5064 C   0  0  0  0  0  0  0  0  0  0  0  0
  -24.7824   -9.0349   23.7272 C   0  0  0  0  0  0  0  0  0  0  0  0
  -28.5039  -28.7974   21.0075 C   0  0  0  0  0  0  0  0  0  0  0  0
  -23.2114   -4.8392   22.2939 C   0  0  0  0  0  0  0  0  0  0  0  0
  -22.0834   -4.1532   21.8438 C   0  0  0  0  0  0  0  0  0  0  0  0
  -26.4811  -27.9257   20.0239 C   0  0  0  0  0  0  0  0  0  0  0  0
  -29.2227  -20.2705   20.8263 C   0  0  0  0  0  0  0  0  0  0  0  0
  -20.6713   -5.9256   22.6815 C   0  0  0  0  0  0  0  0  0  0  0  0
  -24.8893  -10.5370   21.8380 C   0  0  0  0  0  0  0  0  0  0  0  0
  -24.1938  -12.8871   21.1301 C   0  0  0  0  0  0  0  0  0  0  0  0
  -25.0213  -30.7519   27.8263 C   0  0  0  0  0  0  0  0  0  0  0  0
  -26.3894  -29.9328   21.3741 C   0  0  0  0  0  0  0  0  0  0  0  0
  -25.2249  -29.9267   26.7038 C   0  0  0  0  0  0  0  0  0  0  0  0
  -25.7371  -28.9754   20.5841 C   0  0  0  0  0  0  0  0  0  0  0  0
  -28.7391  -21.5640   21.1772 C   0  0  0  0  0  0  0  0  0  0  0  0
  -24.4196   -7.9907   22.8764 C   0  0  0  0  0  0  0  0  0  0  0  0
  -27.8566  -27.8366   20.2361 C   0  0  0  0  0  0  0  0  0  0  0  0
  -23.0694   -6.0684   22.9378 C   0  0  0  0  0  0  0  0  0  0  0  0
  -20.8133   -4.6964   22.0375 C   0  0  0  0  0  0  0  0  0  0  0  0
  -21.7993   -6.6116   23.1316 C   0  0  0  0  0  0  0  0  0  0  0  0
  -25.1326  -11.8523   21.3022 C   0  0  0  0  0  0  0  0  0  0  0  0
  -27.5137  -21.5058   21.8038 C   0  0  0  0  0  0  0  0  0  0  0  0
  -24.9184  -13.9219   20.5910 C   0  0  0  0  0  0  0  0  0  0  0  0
  -28.3485  -19.2728   21.1984 C   0  0  0  0  0  0  0  0  0  0  0  0
  -22.7921  -12.9108   21.4307 C   0  0  0  0  0  0  0  0  0  0  0  0
  -26.7775  -22.6387   22.2731 C   0  0  0  0  0  0  0  0  0  0  0  0
  -23.8442  -29.8658   23.2770 C   0  0  0  0  0  0  0  0  0  0  0  0
  -22.2603  -30.5684   20.5348 C   0  0  0  0  0  0  0  0  0  0  0  0
  -22.1917  -30.4773   17.1239 C   0  0  0  0  0  0  0  0  0  0  0  0
  -29.4624  -17.1371   20.4607 C   0  0  0  0  0  0  0  0  0  0  0  0
  -23.6586  -31.2970   28.1734 C   0  0  0  0  0  0  0  0  0  0  0  0
  -25.6216  -31.0824   21.9668 C   0  0  0  0  0  0  0  0  0  0  0  0
  -24.2547  -29.0373   20.3255 C   0  0  0  0  0  0  0  0  0  0  0  0
  -22.6696  -31.2497   27.0116 C   0  0  0  0  0  0  0  0  0  0  0  0
  -29.6247  -14.0294   18.7307 C   0  0  0  0  0  0  0  0  0  0  0  0
  -22.7144  -29.8871   26.3275 C   0  0  0  0  0  0  0  0  0  0  0  0
  -28.3932  -13.2710   19.2314 C   0  0  0  0  0  0  0  0  0  0  0  0
  -31.1596  -24.3231   20.8344 C   0  0  0  0  0  0  0  0  0  0  0  0
  -30.2622  -14.8687   19.8366 C   0  0  0  0  0  0  0  0  0  0  0  0
  -30.8851  -22.8209   20.8542 C   0  0  0  0  0  0  0  0  0  0  0  0
  -28.7915  -24.0209   20.6702 C   0  0  0  0  0  0  0  0  0  0  0  0
  -28.1132  -15.0229   21.0312 C   0  0  0  0  0  0  0  0  0  0  0  0
  -24.1031  -29.6109   25.7385 C   0  0  1  0  0  0  0  0  0  0  0  0
  -24.1332  -30.7878   22.1264 C   0  0  1  0  0  0  0  0  0  0  0  0
  -29.9311  -24.8928   20.1311 C   0  0  1  0  0  0  0  0  0  0  0  0
  -27.3986  -14.2142   19.9362 C   0  0  2  0  0  0  0  0  0  0  0  0
  -20.7487  -31.0933   15.1655 C   0  0  0  0  0  0  0  0  0  0  0  0
  -20.4724  -28.1608   21.0981 C   0  0  0  0  0  0  0  0  0  0  0  0
  -19.7122  -28.2557   18.7145 C   0  0  0  0  0  0  0  0  0  0  0  0
  -19.2671  -30.1776   20.2412 C   0  0  0  0  0  0  0  0  0  0  0  0
  -24.2361  -32.3294   16.0519 C   0  0  0  0  0  0  0  0  0  0  0  0
  -29.7265  -26.3752   20.3899 C   0  0  0  0  0  0  0  0  0  1  0  0
  -21.6248  -29.7594   19.4299 C   0  0  1  0  0  0  0  0  0  0  0  0
  -21.8655  -31.5439   16.0942 C   0  0  2  0  0  0  0  0  0  0  0  0
  -20.2968  -29.0858   19.8772 C   0  0  0  0  0  0  0  0  0  0  0  0
  -26.3599  -12.1981   20.9046 N   0  0  0  0  0  0  0  0  0  0  0  0
  -26.1972  -13.4618   20.4771 N   0  0  0  0  0  0  0  0  0  0  0  0
  -29.4286  -22.7286   20.9143 N   0  0  3  0  0  0  0  0  0  0  0  0
  -23.5467  -30.1769   20.9319 N   0  0  0  0  0  0  0  0  0  0  0  0
  -29.2616  -15.7405   20.4558 N   0  0  0  0  0  0  0  0  0  0  0  0
  -24.5799  -15.1714   20.2080 N   0  0  0  0  0  0  0  0  0  0  0  0
  -22.2072  -11.7621   21.9808 N   0  0  0  0  0  0  0  0  0  0  0  0
  -25.8898  -23.2723   21.4746 N   0  0  0  0  0  0  0  0  0  0  0  0
  -28.4290  -17.8662   21.0481 N   0  0  0  0  0  0  0  0  0  0  0  0
  -24.2806  -30.3383   24.5001 N   0  0  0  0  0  0  0  0  0  0  0  0
  -21.4835  -30.6620   18.2925 N   0  0  0  0  0  0  0  0  0  0  0  0
  -26.9465  -23.1080   23.5294 N   0  3  0  0  0  0  0  0  0  0  0  0
  -23.0675  -31.8519   15.2688 N   0  3  0  0  0  0  0  0  0  0  0  0
  -22.0760  -13.9152   21.2026 O   0  0  0  0  0  0  0  0  0  0  0  0
  -23.2666  -28.8049   23.0707 O   0  0  0  0  0  0  0  0  0  0  0  0
  -21.6411  -31.5172   21.0224 O   0  0  0  0  0  0  0  0  0  0  0  0
  -22.9918  -29.5689   16.9115 O   0  0  0  0  0  0  0  0  0  0  0  0
  -30.4637  -17.6505   19.9549 O   0  0  0  0  0  0  0  0  0  0  0  0
  -24.1903   -6.7486   23.3834 O   0  0  0  0  0  0  0  0  0  0  0  0
  -28.5657  -26.8141   19.6854 O   0  0  0  0  0  0  0  0  0  1  0  0
  -19.7303   -4.0382   21.6039 F   0  0  0  0  0  0  0  0  0  0  0  0
  -21.6566   -7.7926   23.7485 F   0  0  0  0  0  0  0  0  0  0  0  0
  -26.9513  -19.8966   21.9670 S   0  0  0  0  0  0  0  0  0  0  0  0
  1  2  1  0  0  0  0
  1  5  2  0  0  0  0
  2  6  2  0  0  0  0
  3  8  2  0  0  0  0
  3 16  1  0  0  0  0
  4  9  1  0  0  0  0
  4 16  2  0  0  0  0
  5 18  1  0  0  0  0
  6 20  1  0  0  0  0
  7 10  2  0  0  0  0
  7 19  1  0  0  0  0
  8 23  1  0  0  0  0
  9 23  2  0  0  0  0
 10 24  1  0  0  0  0
 11 12  2  0  0  0  0
 11 25  1  0  0  0  0
 12 26  1  0  0  0  0
 13 21  1  0  0  0  0
 13 24  2  0  0  0  0
 14 22  1  0  0  0  0
 14 31  2  0  0  0  0
 15 26  2  0  0  0  0
 15 27  1  0  0  0  0
 16 28  1  0  0  0  0
 17 28  1  0  0  0  0
 17 30  2  0  0  0  0
 17 32  1  0  0  0  0
 18 20  2  0  0  0  0
 18 38  1  0  0  0  0
 19 21  2  0  0  0  0
 19 39  1  0  0  0  0
 20 50  1  0  0  0  0
 21 40  1  0  0  0  0
 22 29  2  0  0  0  0
 22 65  1  0  0  0  0
 23 81  1  0  0  0  0
 24 82  1  0  0  0  0
 25 27  2  0  0  0  0
 25 81  1  0  0  0  0
 26 83  1  0  0  0  0
 27 84  1  0  0  0  0
 28 63  2  0  0  0  0
 29 33  1  0  0  0  0
 29 85  1  0  0  0  0
 30 64  1  0  0  0  0
 30 68  1  0  0  0  0
 31 71  1  0  0  0  0
 31 85  1  0  0  0  0
 32 69  1  0  0  0  0
 32 76  2  0  0  0  0
 33 70  1  0  0  0  0
 33 74  2  0  0  0  0
 34 51  1  0  0  0  0
 34 72  1  0  0  0  0
 34 77  2  0  0  0  0
 35 60  1  0  0  0  0
 35 66  1  0  0  0  0
 35 78  2  0  0  0  0
 36 61  1  0  0  0  0
 36 73  1  0  0  0  0
 36 79  2  0  0  0  0
 37 67  1  0  0  0  0
 37 71  1  0  0  0  0
 37 80  2  0  0  0  0
 38 41  1  0  0  0  0
 39 51  1  0  0  0  0
 40 66  1  0  0  0  0
 41 43  1  0  0  0  0
 42 44  1  0  0  0  0
 42 46  1  0  0  0  0
 43 50  1  0  0  0  0
 44 53  1  0  0  0  0
 45 47  1  0  0  0  0
 45 52  1  0  0  0  0
 46 67  1  0  0  0  0
 47 65  1  0  0  0  0
 48 52  1  0  0  0  0
 48 65  1  0  0  0  0
 49 53  1  0  0  0  0
 49 67  1  0  0  0  0
 50 72  1  0  0  0  0
 51 66  1  0  0  0  0
 52 59  1  0  0  0  0
 53 64  1  0  0  0  0
 54 61  1  0  0  0  0
 55 62  1  0  0  0  0
 56 62  1  0  0  0  0
 57 62  1  0  0  0  0
 58 75  1  0  0  0  0
 59 82  1  0  0  0  0
 60 62  1  0  0  0  0
 60 73  1  0  0  0  0
 61 75  1  0  0  0  0
 63 64  1  0  0  0  0
M  CHG  2  74   1  75   1
M  ISO  4  37 100  59 101  71 100  82 101
M  END
> <Batch ID>
0150

> <Smiles>
CNC(C)C(=O)NC(C(=O)N1Cc2cc([101O:1][101CH2:1]C3CCN(c4cc([100NH:0][100C:0](=O)N5CCCC(n6nc(-c7ccc(Oc8ccc(F)cc8F)cc7)c(C(N)=O)c6N)C5)sc4C(=N)N)C3)ccc2CC1C(=O)NC1CCCc2ccccc21)C(C)(C)C

> <Shape>
0.306

> <Color>
0.145

> <Negative vol penalty>
0.000

$$$$

  -OEChem-04052303213D

 91100  0     1  0  0  0  0  0999 V2000
  -28.2196  -36.5939   26.4437 C   0  0  0  0  0  0  0  0  0  0  0  0
  -28.6791  -35.4186   25.8581 C   0  0  0  0  0  0  0  0  0  0  0  0
  -24.6869   -8.4705   21.4258 C   0  0  0  0  0  0  0  0  0  0  0  0
  -23.1706  -10.2183   20.7307 C   0  0  0  0  0  0  0  0  0  0  0  0
  -26.8572  -36.7643   26.6861 C   0  0  0  0  0  0  0  0  0  0  0  0
  -27.7765  -34.4124   25.5157 C   0  0  0  0  0  0  0  0  0  0  0  0
  -28.1271  -30.6314   20.7108 C   0  0  0  0  0  0  0  0  0  0  0  0
  -23.7695   -8.0589   22.3924 C   0  0  0  0  0  0  0  0  0  0  0  0
  -22.2531   -9.8066   21.6974 C   0  0  0  0  0  0  0  0  0  0  0  0
  -28.5784  -29.3187   20.5812 C   0  0  0  0  0  0  0  0  0  0  0  0
  -20.9160   -6.2485   22.5077 C   0  0  0  0  0  0  0  0  0  0  0  0
  -20.6725   -4.8805   22.6294 C   0  0  0  0  0  0  0  0  0  0  0  0
  -26.3125  -28.5235   20.8107 C   0  0  0  0  0  0  0  0  0  0  0  0
  -26.1595  -19.8487   19.0616 C   0  0  0  0  0  0  0  0  0  0  0  0
  -25.8702  -17.5364   18.4242 C   0  0  0  0  0  0  0  0  0  0  0  0
  -27.9677  -18.2760   19.3678 C   0  0  0  0  0  0  0  0  0  0  0  0
  -21.4295   -4.9498   24.9227 C   0  0  0  0  0  0  0  0  0  0  0  0
  -24.3875   -9.5502   20.5949 C   0  0  0  0  0  0  0  0  0  0  0  0
  -25.4272   -9.5272   18.2656 C   0  0  0  0  0  0  0  0  0  0  0  0
  -25.9364  -35.7637   26.3376 C   0  0  0  0  0  0  0  0  0  0  0  0
  -26.7642  -30.8999   20.9025 C   0  0  0  0  0  0  0  0  0  0  0  0
  -26.4006  -34.5690   25.7549 C   0  0  0  0  0  0  0  0  0  0  0  0
  -25.8462  -29.8407   20.9399 C   0  0  0  0  0  0  0  0  0  0  0  0
  -25.3639  -18.8315   18.5346 C   0  0  0  0  0  0  0  0  0  0  0  0
  -27.4614  -19.5710   19.4782 C   0  0  0  0  0  0  0  0  0  0  0  0
  -27.1721  -17.2587   18.8407 C   0  0  0  0  0  0  0  0  0  0  0  0
  -22.5525   -8.7269   22.5282 C   0  0  0  0  0  0  0  0  0  0  0  0
  -27.6714  -28.2643   20.6341 C   0  0  0  0  0  0  0  0  0  0  0  0
  -21.4164   -6.9671   23.5934 C   0  0  0  0  0  0  0  0  0  0  0  0
  -20.9292   -4.2311   23.8369 C   0  0  0  0  0  0  0  0  0  0  0  0
  -21.6731   -6.3178   24.8009 C   0  0  0  0  0  0  0  0  0  0  0  0
  -25.3351   -9.9762   19.5966 C   0  0  0  0  0  0  0  0  0  0  0  0
  -26.4809  -10.2324   17.7374 C   0  0  0  0  0  0  0  0  0  0  0  0
  -28.2631  -24.8382   21.5277 C   0  0  0  0  0  0  0  0  0  0  0  0
  -27.8777  -26.1189   21.5425 C   0  0  0  0  0  0  0  0  0  1  0  0
  -24.6315   -8.5591   17.5688 C   0  0  0  0  0  0  0  0  0  0  0  0
  -27.9245  -21.9372   20.1930 C   0  0  0  0  0  0  0  0  0  0  0  0
  -25.0484  -32.2598   23.2070 C   0  0  0  0  0  0  0  0  0  0  0  0
  -22.6256  -31.8989   21.0804 C   0  0  0  0  0  0  0  0  0  0  0  0
  -21.3610  -30.2313   18.3848 C   0  0  0  0  0  0  0  0  0  0  0  0
  -28.9569  -15.4988   19.0936 C   0  0  0  0  0  0  0  0  0  0  0  0
  -24.4786  -35.9736   26.6624 C   0  0  0  0  0  0  0  0  0  0  0  0
  -26.2902  -32.3230   21.0138 C   0  0  0  0  0  0  0  0  0  0  0  0
  -24.3700  -30.0767   21.1236 C   0  0  0  0  0  0  0  0  0  0  0  0
  -28.0249  -23.8651   22.6448 C   0  0  0  0  0  0  0  0  0  0  0  0
  -29.0113  -24.1878   20.3960 C   0  0  0  0  0  0  0  0  0  0  0  0
  -23.5464  -35.0143   25.9269 C   0  0  0  0  0  0  0  0  0  0  0  0
  -28.9730  -22.7164   22.3136 C   0  0  0  0  0  0  0  0  0  0  0  0
  -30.5909  -12.3366   19.0081 C   0  0  0  0  0  0  0  0  0  0  0  0
  -24.0742  -33.5858   26.0132 C   0  0  0  0  0  0  0  0  0  0  0  0
  -29.4368  -11.3316   19.0220 C   0  0  0  0  0  0  0  0  0  0  0  0
  -30.2920  -13.5557   19.8789 C   0  0  0  0  0  0  0  0  0  0  0  0
  -27.8665  -13.2253   19.6011 C   0  0  0  0  0  0  0  0  0  0  0  0
  -25.4499  -33.4647   25.3465 C   0  0  1  0  0  0  0  0  0  0  0  0
  -29.0623  -22.7128   20.7902 C   0  0  1  0  0  0  0  0  0  0  0  0
  -24.9441  -32.4509   21.7203 C   0  0  1  0  0  0  0  0  0  0  0  0
  -28.0943  -12.0106   18.6867 C   0  0  2  0  0  0  0  0  0  0  0  0
  -19.3425  -30.1357   16.8969 C   0  0  0  0  0  0  0  0  0  0  0  0
  -22.7799  -17.4905   19.5861 C   0  0  0  0  0  0  0  0  0  0  0  0
  -23.1437  -19.8147   20.4163 C   0  0  0  0  0  0  0  0  0  0  0  0
  -21.4713  -19.3724   18.6013 C   0  0  0  0  0  0  0  0  0  0  0  0
  -21.0741  -30.4644   23.2816 C   0  0  0  0  0  0  0  0  0  0  0  0
  -19.5289  -29.5814   21.5207 C   0  0  0  0  0  0  0  0  0  0  0  0
  -19.7091  -32.0403   21.9004 C   0  0  0  0  0  0  0  0  0  0  0  0
  -22.9564  -30.8972   15.9826 C   0  0  0  0  0  0  0  0  0  0  0  0
  -23.9721  -19.1292   18.0881 C   0  0  0  0  0  0  0  0  0  0  0  0
  -21.6174  -30.8156   20.7821 C   0  0  1  0  0  0  0  0  0  0  0  0
  -20.7279  -30.7297   17.0982 C   0  0  2  0  0  0  0  0  0  0  0  0
  -22.8469  -18.9733   19.1629 C   0  0  0  0  0  0  0  0  0  0  0  0
  -20.5104  -30.7205   21.8697 C   0  0  0  0  0  0  0  0  0  0  0  0
  -26.2568  -10.8955   19.8956 N   0  0  0  0  0  0  0  0  0  0  0  0
  -26.9382  -11.0297   18.7451 N   0  0  0  0  0  0  0  0  0  0  0  0
  -23.9565  -31.4854   21.2339 N   0  0  0  0  0  0  0  0  0  0  0  0
  -29.0074  -14.1490   19.5013 N   0  0  0  0  0  0  0  0  0  0  0  0
  -27.0516  -10.2421   16.5141 N   0  0  0  0  0  0  0  0  0  0  0  0
  -23.5887   -7.9286   18.2610 N   0  0  0  0  0  0  0  0  0  0  0  0
  -28.2682  -20.6034   20.0126 N   0  0  0  0  0  0  0  0  0  0  0  0
  -27.6870  -15.9434   18.7273 N   0  0  0  0  0  0  0  0  0  0  0  0
  -25.3117  -33.4220   23.9066 N   0  0  0  0  0  0  0  0  0  0  0  0
  -21.1144  -31.0847   19.4393 N   0  0  0  0  0  0  0  0  0  0  0  0
  -21.5727  -30.3592   15.9277 N   0  3  0  0  0  0  0  0  0  0  0  0
  -24.8496   -8.2501   16.3728 O   0  0  0  0  0  0  0  0  0  0  0  0
  -26.8593  -22.4863   19.9306 O   0  0  0  0  0  0  0  0  0  0  0  0
  -24.8995  -31.1409   23.6842 O   0  0  0  0  0  0  0  0  0  0  0  0
  -22.2473  -33.0699   21.1669 O   0  0  0  0  0  0  0  0  0  0  0  0
  -22.0064  -29.1873   18.4487 O   0  0  0  0  0  0  0  0  0  0  0  0
  -29.9705  -16.2004   19.0450 O   0  0  0  0  0  0  0  0  0  0  0  0
  -21.6569   -8.3254   23.4712 O   0  0  0  0  0  0  0  0  0  0  0  0
  -28.1093  -26.9820   20.5085 O   0  0  0  0  0  0  0  0  0  1  0  0
  -20.6938   -2.9177   23.9541 F   0  0  0  0  0  0  0  0  0  0  0  0
  -22.1527   -7.0032   25.8479 F   0  0  0  0  0  0  0  0  0  0  0  0
  1  2  1  0  0  0  0
  1  5  2  0  0  0  0
  2  6  2  0  0  0  0
  3  8  2  0  0  0  0
  3 18  1  0  0  0  0
  4  9  1  0  0  0  0
  4 18  2  0  0  0  0
  5 20  1  0  0  0  0
  6 22  1  0  0  0  0
  7 10  2  0  0  0  0
  7 21  1  0  0  0  0
  8 27  1  0  0  0  0
  9 27  2  0  0  0  0
 10 28  1  0  0  0  0
 11 12  2  0  0  0  0
 11 29  1  0  0  0  0
 12 30  1  0  0  0  0
 13 23  1  0  0  0  0
 13 28  2  0  0  0  0
 14 24  2  0  0  0  0
 14 25  1  0  0  0  0
 15 24  1  0  0  0  0
 15 26  2  0  0  0  0
 16 25  2  0  0  0  0
 16 26  1  0  0  0  0
 17 30  2  0  0  0  0
 17 31  1  0  0  0  0
 18 32  1  0  0  0  0
 19 32  1  0  0  0  0
 19 33  2  0  0  0  0
 19 36  1  0  0  0  0
 20 22  2  0  0  0  0
 20 42  1  0  0  0  0
 21 23  2  0  0  0  0
 21 43  1  0  0  0  0
 22 54  1  0  0  0  0
 23 44  1  0  0  0  0
 24 66  1  0  0  0  0
 25 77  1  0  0  0  0
 26 78  1  0  0  0  0
 27 88  1  0  0  0  0
 28 89  1  0  0  0  0
 29 31  2  0  0  0  0
 29 88  1  0  0  0  0
 30 90  1  0  0  0  0
 31 91  1  0  0  0  0
 32 71  2  0  0  0  0
 33 72  1  0  0  0  0
 33 75  1  0  0  0  0
 34 35  2  0  0  0  0
 34 45  1  0  0  0  0
 34 46  1  0  0  0  0
 35 89  1  0  0  0  0
 36 76  1  0  0  0  0
 36 82  2  0  0  0  0
 37 55  1  0  0  0  0
 37 77  1  0  0  0  0
 37 83  2  0  0  0  0
 38 56  1  0  0  0  0
 38 79  1  0  0  0  0
 38 84  2  0  0  0  0
 39 67  1  0  0  0  0
 39 73  1  0  0  0  0
 39 85  2  0  0  0  0
 40 68  1  0  0  0  0
 40 80  1  0  0  0  0
 40 86  2  0  0  0  0
 41 74  1  0  0  0  0
 41 78  1  0  0  0  0
 41 87  2  0  0  0  0
 42 47  1  0  0  0  0
 43 56  1  0  0  0  0
 44 73  1  0  0  0  0
 45 48  1  0  0  0  0
 46 55  1  0  0  0  0
 47 50  1  0  0  0  0
 48 55  1  0  0  0  0
 49 51  1  0  0  0  0
 49 52  1  0  0  0  0
 50 54  1  0  0  0  0
 51 57  1  0  0  0  0
 52 74  1  0  0  0  0
 53 57  1  0  0  0  0
 53 74  1  0  0  0  0
 54 79  1  0  0  0  0
 56 73  1  0  0  0  0
 57 72  1  0  0  0  0
 58 68  1  0  0  0  0
 59 69  1  0  0  0  0
 60 69  1  0  0  0  0
 61 69  1  0  0  0  0
 62 70  1  0  0  0  0
 63 70  1  0  0  0  0
 64 70  1  0  0  0  0
 65 81  1  0  0  0  0
 66 69  1  0  0  0  0
 67 70  1  0  0  0  0
 67 80  1  0  0  0  0
 68 81  1  0  0  0  0
 71 72  1  0  0  0  0
M  CHG  1  81   1
M  ISO  4  35 101  41 100  78 100  89 101
M  END
> <Batch ID>
0150

> <Smiles>
CNC(C)C(=O)NC(C(=O)N1Cc2cc([101O:1][101CH:1]=C3CCC(C(=O)Nc4cc(CC(C)(C)C)cc([100NH:0][100C:0](=O)N5CCCC(n6nc(-c7ccc(Oc8ccc(F)cc8F)cc7)c(C(N)=O)c6N)C5)c4)C3)ccc2CC1C(=O)NC1CCCc2ccccc21)C(C)(C)C

> <Shape>
0.267

> <Color>
0.082

> <Negative vol penalty>
0.000

$$$$

  -OEChem-04052303213D

 85 93  0     1  0  0  0  0  0999 V2000
  -32.2771  -31.5700   19.6213 C   0  0  0  0  0  0  0  0  0  0  0  0
  -31.3817  -30.5270   19.8355 C   0  0  0  0  0  0  0  0  0  0  0  0
  -23.0033   -9.8906   19.9806 C   0  0  0  0  0  0  0  0  0  0  0  0
  -23.7334   -9.9411   22.2831 C   0  0  0  0  0  0  0  0  0  0  0  0
  -33.3491  -31.3984   18.7465 C   0  0  0  0  0  0  0  0  0  0  0  0
  -31.5573  -29.3120   19.1742 C   0  0  0  0  0  0  0  0  0  0  0  0
  -30.9521  -25.3265   22.2392 C   0  0  0  0  0  0  0  0  0  0  0  0
  -22.2400   -8.7540   20.2475 C   0  0  0  0  0  0  0  0  0  0  0  0
  -22.9701   -8.8045   22.5501 C   0  0  0  0  0  0  0  0  0  0  0  0
  -29.6448  -24.9580   22.5539 C   0  0  0  0  0  0  0  0  0  0  0  0
  -23.2213   -5.4666   22.0744 C   0  0  0  0  0  0  0  0  0  0  0  0
  -23.8129   -4.4501   22.8242 C   0  0  0  0  0  0  0  0  0  0  0  0
  -29.7480  -23.2035   20.9016 C   0  0  0  0  0  0  0  0  0  0  0  0
  -28.7492  -18.7368   24.4116 C   0  0  0  0  0  0  0  0  0  0  0  0
  -22.0922   -4.6873   24.5035 C   0  0  0  0  0  0  0  0  0  0  0  0
  -23.7500  -10.4841   20.9984 C   0  0  0  0  0  0  0  0  0  0  0  0
  -24.1290  -13.0008   20.8240 C   0  0  0  0  0  0  0  0  0  0  0  0
  -33.5434  -30.1775   18.0815 C   0  0  0  0  0  0  0  0  0  0  0  0
  -31.6645  -24.6420   21.2440 C   0  0  0  0  0  0  0  0  0  0  0  0
  -32.6322  -29.1243   18.2886 C   0  0  0  0  0  0  0  0  0  0  0  0
  -31.0650  -23.5636   20.5779 C   0  0  0  0  0  0  0  0  0  0  0  0
  -29.5887  -17.6589   24.0069 C   0  0  0  0  0  0  0  0  0  0  0  0
  -22.2234   -8.2110   21.5323 C   0  0  0  0  0  0  0  0  0  0  0  0
  -29.0415  -23.8982   21.8831 C   0  0  0  0  0  0  0  0  0  0  0  0
  -22.0652   -6.0936   22.5391 C   0  0  0  0  0  0  0  0  0  0  0  0
  -23.2483   -4.0604   24.0387 C   0  0  0  0  0  0  0  0  0  0  0  0
  -21.5006   -5.7039   23.7536 C   0  0  0  0  0  0  0  0  0  0  0  0
  -24.5391  -11.6579   20.7231 C   0  0  0  0  0  0  0  0  0  0  0  0
  -29.9554  -17.7576   22.6828 C   0  0  0  0  0  0  0  0  0  0  0  0
  -25.2362  -13.7263   20.4578 C   0  0  0  0  0  0  0  0  0  0  0  0
  -28.5064  -19.6183   23.3811 C   0  0  0  0  0  0  0  0  0  0  0  0
  -22.8606  -13.5438   21.2138 C   0  0  0  0  0  0  0  0  0  0  0  0
  -32.9516  -25.4468   18.4513 C   0  0  0  0  0  0  0  0  0  0  0  0
  -34.0928  -22.4117   18.5446 C   0  0  0  0  0  0  0  0  0  0  0  0
  -33.7716  -19.2312   19.7396 C   0  0  0  0  0  0  0  0  0  0  0  0
  -27.0137  -21.3897   24.3765 C   0  0  0  0  0  0  0  0  0  0  0  0
  -30.7309  -14.6737   20.6951 C   0  0  0  0  0  0  0  0  0  0  0  0
  -34.6897  -30.0549   17.1091 C   0  0  0  0  0  0  0  0  0  0  0  0
  -33.0832  -25.0347   20.9350 C   0  0  0  0  0  0  0  0  0  0  0  0
  -31.7940  -22.7834   19.5157 C   0  0  0  0  0  0  0  0  0  0  0  0
  -35.0189  -28.6122   16.7343 C   0  0  0  0  0  0  0  0  0  0  0  0
  -29.5908  -12.2496   18.3498 C   0  0  0  0  0  0  0  0  0  0  0  0
  -33.7445  -27.8435   16.3997 C   0  0  0  0  0  0  0  0  0  0  0  0
  -28.1438  -11.9861   18.7704 C   0  0  0  0  0  0  0  0  0  0  0  0
  -30.4953  -12.4860   19.5573 C   0  0  0  0  0  0  0  0  0  0  0  0
  -28.5863  -13.2757   20.9011 C   0  0  0  0  0  0  0  0  0  0  0  0
  -32.8032  -27.7832   17.6087 C   0  0  1  0  0  0  0  0  0  0  0  0
  -33.5349  -24.5975   19.5450 C   0  0  1  0  0  0  0  0  0  0  0  0
  -27.6251  -13.0869   19.7150 C   0  0  2  0  0  0  0  0  0  0  0  0
  -34.8334  -16.9612   19.6089 C   0  0  0  0  0  0  0  0  0  0  0  0
  -25.5116  -23.2570   25.1604 C   0  0  0  0  0  0  0  0  0  0  0  0
  -25.3265  -22.4209   22.7890 C   0  0  0  0  0  0  0  0  0  0  0  0
  -32.8588  -21.9962   15.7852 C   0  0  0  0  0  0  0  0  0  0  0  0
  -33.1078  -19.5278   16.1223 C   0  0  0  0  0  0  0  0  0  0  0  0
  -35.1294  -20.9886   16.0751 C   0  0  0  0  0  0  0  0  0  0  0  0
  -34.3560  -19.2097   22.6408 C   0  0  0  0  0  0  0  0  0  0  0  0
  -30.8111  -16.8517   21.8822 C   0  0  0  0  0  0  0  0  0  0  0  0
  -27.3296  -23.7605   23.5282 C   0  0  0  0  0  0  0  0  0  1  0  0
  -33.5908  -21.0661   18.0798 C   0  0  1  0  0  0  0  0  0  0  0  0
  -34.7803  -18.2820   20.3609 C   0  0  2  0  0  0  0  0  0  0  0  0
  -26.2901  -22.6974   23.9567 C   0  0  0  0  0  0  0  0  0  0  0  0
  -33.6570  -20.9104   16.5342 C   0  0  0  0  0  0  0  0  0  0  0  0
  -25.8078  -11.5347   20.3241 N   0  0  0  0  0  0  0  0  0  0  0  0
  -26.2044  -12.8096   20.1708 N   0  0  0  0  0  0  0  0  0  0  0  0
  -33.1770  -23.2097   19.2449 N   0  0  0  0  0  0  0  0  0  0  0  0
  -29.9479  -13.5426   20.4116 N   0  0  0  0  0  0  0  0  0  0  0  0
  -29.9764  -16.6579   24.8319 N   0  0  0  0  0  0  0  0  0  0  0  0
  -25.4663  -15.0527   20.3565 N   0  0  0  0  0  0  0  0  0  0  0  0
  -21.8317  -12.6569   21.5587 N   0  0  0  0  0  0  0  0  0  0  0  0
  -27.7372  -20.8069   23.3400 N   0  0  0  0  0  0  0  0  0  0  0  0
  -33.2606  -26.7895   18.5563 N   0  0  0  0  0  0  0  0  0  0  0  0
  -34.3598  -20.0674   18.8144 N   0  0  0  0  0  0  0  0  0  0  0  0
  -30.1341  -15.6303   21.5072 N   0  0  0  0  0  0  0  0  0  0  0  0
  -34.4214  -18.0009   21.7797 N   0  3  0  0  0  0  0  0  0  0  0  0
  -22.6410  -14.7786   21.2392 O   0  0  0  0  0  0  0  0  0  0  0  0
  -32.2729  -24.9224   17.5761 O   0  0  0  0  0  0  0  0  0  0  0  0
  -35.2569  -22.7397   18.3018 O   0  0  0  0  0  0  0  0  0  0  0  0
  -32.5804  -19.2285   20.0419 O   0  0  0  0  0  0  0  0  0  0  0  0
  -26.9164  -20.9507   25.5210 O   0  0  0  0  0  0  0  0  0  0  0  0
  -31.8750  -14.8228   20.2527 O   0  0  0  0  0  0  0  0  0  0  0  0
  -21.4786   -7.1021   21.7931 O   0  0  0  0  0  0  0  0  0  0  0  0
  -27.7654  -23.5369   22.1879 O   0  0  0  0  0  0  0  0  0  1  0  0
  -23.8157   -3.0832   24.7580 F   0  0  0  0  0  0  0  0  0  0  0  0
  -20.3893   -6.3017   24.2047 F   0  0  0  0  0  0  0  0  0  0  0  0
  -29.2886  -19.1453   21.9331 S   0  0  0  0  0  0  0  0  0  0  0  0
  1  2  1  0  0  0  0
  1  5  2  0  0  0  0
  2  6  2  0  0  0  0
  3  8  2  0  0  0  0
  3 16  1  0  0  0  0
  4  9  1  0  0  0  0
  4 16  2  0  0  0  0
  5 18  1  0  0  0  0
  6 20  1  0  0  0  0
  7 10  2  0  0  0  0
  7 19  1  0  0  0  0
  8 23  1  0  0  0  0
  9 23  2  0  0  0  0
 10 24  1  0  0  0  0
 11 12  2  0  0  0  0
 11 25  1  0  0  0  0
 12 26  1  0  0  0  0
 13 21  1  0  0  0  0
 13 24  2  0  0  0  0
 14 22  1  0  0  0  0
 14 31  2  0  0  0  0
 15 26  2  0  0  0  0
 15 27  1  0  0  0  0
 16 28  1  0  0  0  0
 17 28  1  0  0  0  0
 17 30  2  0  0  0  0
 17 32  1  0  0  0  0
 18 20  2  0  0  0  0
 18 38  1  0  0  0  0
 19 21  2  0  0  0  0
 19 39  1  0  0  0  0
 20 47  1  0  0  0  0
 21 40  1  0  0  0  0
 22 29  2  0  0  0  0
 22 67  1  0  0  0  0
 23 81  1  0  0  0  0
 24 82  1  0  0  0  0
 25 27  2  0  0  0  0
 25 81  1  0  0  0  0
 26 83  1  0  0  0  0
 27 84  1  0  0  0  0
 28 63  2  0  0  0  0
 29 57  1  0  0  0  0
 29 85  1  0  0  0  0
 30 64  1  0  0  0  0
 30 68  1  0  0  0  0
 31 70  1  0  0  0  0
 31 85  1  0  0  0  0
 32 69  1  0  0  0  0
 32 75  2  0  0  0  0
 33 48  1  0  0  0  0
 33 71  1  0  0  0  0
 33 76  2  0  0  0  0
 34 59  1  0  0  0  0
 34 65  1  0  0  0  0
 34 77  2  0  0  0  0
 35 60  1  0  0  0  0
 35 72  1  0  0  0  0
 35 78  2  0  0  0  0
 36 61  1  0  0  0  0
 36 70  1  0  0  0  0
 36 79  2  0  0  0  0
 37 66  1  0  0  0  0
 37 73  1  0  0  0  0
 37 80  2  0  0  0  0
 38 41  1  0  0  0  0
 39 48  1  0  0  0  0
 40 65  1  0  0  0  0
 41 43  1  0  0  0  0
 42 44  1  0  0  0  0
 42 45  1  0  0  0  0
 43 47  1  0  0  0  0
 44 49  1  0  0  0  0
 45 66  1  0  0  0  0
 46 49  1  0  0  0  0
 46 66  1  0  0  0  0
 47 71  1  0  0  0  0
 48 65  1  0  0  0  0
 49 64  1  0  0  0  0
 50 60  1  0  0  0  0
 51 61  1  0  0  0  0
 52 61  1  0  0  0  0
 53 62  1  0  0  0  0
 54 62  1  0  0  0  0
 55 62  1  0  0  0  0
 56 74  1  0  0  0  0
 57 73  1  0  0  0  0
 58 61  1  0  0  0  0
 58 82  1  0  0  0  0
 59 62  1  0  0  0  0
 59 72  1  0  0  0  0
 60 74  1  0  0  0  0
 63 64  1  0  0  0  0
M  CHG  1  74   1
M  ISO  4  37 100  58 101  73 100  82 101
M  END
> <Batch ID>
0150

> <Smiles>
CNC(C)C(=O)NC(C(=O)N1Cc2cc([101O:1][101CH2:1]C(C)(C)C(=O)Nc3cc(N)c(C[100NH:0][100C:0](=O)N4CCCC(n5nc(-c6ccc(Oc7ccc(F)cc7F)cc6)c(C(N)=O)c5N)C4)s3)ccc2CC1C(=O)NC1CCCc2ccccc21)C(C)(C)C

> <Shape>
0.197

> <Color>
0.186

> <Negative vol penalty>
0.000

$$$$

  -OEChem-04052303213D

 84 93  0     1  0  0  0  0  0999 V2000
  -31.5795  -32.2525   15.1259 C   0  0  0  0  0  0  0  0  0  0  0  0
  -31.8788  -31.4144   16.1952 C   0  0  0  0  0  0  0  0  0  0  0  0
  -23.2327   -9.7466   19.9823 C   0  0  0  0  0  0  0  0  0  0  0  0
  -24.0100   -9.8153   22.2688 C   0  0  0  0  0  0  0  0  0  0  0  0
  -30.2525  -32.5735   14.8434 C   0  0  0  0  0  0  0  0  0  0  0  0
  -30.8511  -30.8977   16.9834 C   0  0  0  0  0  0  0  0  0  0  0  0
  -30.6734  -25.3890   19.6533 C   0  0  0  0  0  0  0  0  0  0  0  0
  -22.5601   -8.5537   20.2467 C   0  0  0  0  0  0  0  0  0  0  0  0
  -23.3373   -8.6223   22.5333 C   0  0  0  0  0  0  0  0  0  0  0  0
  -30.9502  -24.9672   20.9531 C   0  0  0  0  0  0  0  0  0  0  0  0
  -20.1668   -7.6407   23.1696 C   0  0  0  0  0  0  0  0  0  0  0  0
  -19.4233   -7.5651   24.3473 C   0  0  0  0  0  0  0  0  0  0  0  0
  -31.5212  -19.2098   22.2723 C   0  0  0  0  0  0  0  0  0  0  0  0
  -31.5011  -17.9435   21.6193 C   0  0  0  0  0  0  0  0  0  0  0  0
  -28.6023  -25.1020   21.4903 C   0  0  0  0  0  0  0  0  0  0  0  0
  -20.7826   -5.7095   25.0863 C   0  0  0  0  0  0  0  0  0  0  0  0
  -23.9578  -10.3774   20.9933 C   0  0  0  0  0  0  0  0  0  0  0  0
  -24.1495  -12.9173   20.8528 C   0  0  0  0  0  0  0  0  0  0  0  0
  -29.2074  -32.0527   15.6226 C   0  0  0  0  0  0  0  0  0  0  0  0
  -29.3581  -25.6814   19.2648 C   0  0  0  0  0  0  0  0  0  0  0  0
  -29.5089  -31.2131   16.7119 C   0  0  0  0  0  0  0  0  0  0  0  0
  -28.3112  -25.5248   20.1844 C   0  0  0  0  0  0  0  0  0  0  0  0
  -22.6123   -7.9915   21.5222 C   0  0  0  0  0  0  0  0  0  0  0  0
  -29.9149  -24.8264   21.8726 C   0  0  0  0  0  0  0  0  0  0  0  0
  -21.2181   -6.7507   22.9501 C   0  0  0  0  0  0  0  0  0  0  0  0
  -19.7312   -6.5995   25.3057 C   0  0  0  0  0  0  0  0  0  0  0  0
  -21.5260   -5.7851   23.9085 C   0  0  0  0  0  0  0  0  0  0  0  0
  -24.6533  -11.6095   20.7206 C   0  0  0  0  0  0  0  0  0  0  0  0
  -25.1926  -13.7269   20.4748 C   0  0  0  0  0  0  0  0  0  0  0  0
  -30.3647  -19.4439   22.9831 C   0  0  0  0  0  0  0  0  0  0  0  0
  -30.3299  -17.2579   21.8562 C   0  0  0  0  0  0  0  0  0  0  0  0
  -30.7113  -21.7368   24.0090 C   0  0  0  0  0  0  0  0  0  0  0  0
  -22.8544  -13.3607   21.2793 C   0  0  0  0  0  0  0  0  0  0  0  0
  -27.8501  -28.2815   18.2308 C   0  0  0  0  0  0  0  0  0  0  0  0
  -25.3848  -26.2136   17.8199 C   0  0  0  0  0  0  0  0  0  0  0  0
  -23.8948  -23.2711   18.6964 C   0  0  0  0  0  0  0  0  0  0  0  0
  -30.5892  -15.0930   20.5944 C   0  0  0  0  0  0  0  0  0  0  0  0
  -27.7915  -32.4660   15.3077 C   0  0  0  0  0  0  0  0  0  0  0  0
  -29.0728  -26.1096   17.8514 C   0  0  0  0  0  0  0  0  0  0  0  0
  -26.8794  -25.8065   19.8114 C   0  0  0  0  0  0  0  0  0  0  0  0
  -26.7375  -31.5765   15.9621 C   0  0  0  0  0  0  0  0  0  0  0  0
  -29.5988  -12.6005   18.2526 C   0  0  0  0  0  0  0  0  0  0  0  0
  -27.0769  -31.3381   17.4300 C   0  0  0  0  0  0  0  0  0  0  0  0
  -28.1824  -12.2280   18.6968 C   0  0  0  0  0  0  0  0  0  0  0  0
  -28.7889  -21.7516   25.4181 C   0  0  0  0  0  0  0  0  0  0  0  0
  -30.5089  -12.8915   19.4446 C   0  0  0  0  0  0  0  0  0  0  0  0
  -28.6607  -20.6298   24.4055 C   0  0  0  0  0  0  0  0  0  0  0  0
  -28.5743  -13.5129   20.8375 C   0  0  0  0  0  0  0  0  0  0  0  0
  -28.4203  -30.6129   17.5750 C   0  0  1  0  0  0  0  0  0  0  0  0
  -27.7600  -26.8741   17.7121 C   0  0  1  0  0  0  0  0  0  0  0  0
  -27.6035  -13.2741   19.6695 C   0  0  2  0  0  0  0  0  0  0  0  0
  -29.8180  -22.6970   24.7931 C   0  0  1  0  0  0  0  0  0  0  0  0
  -30.6074  -23.4545   25.8580 C   0  0  0  0  0  0  0  0  0  0  0  0
  -21.8695  -21.8691   18.2168 C   0  0  0  0  0  0  0  0  0  0  0  0
  -23.6778  -28.1124   19.4904 C   0  0  0  0  0  0  0  0  0  0  0  0
  -22.0179  -26.2596   19.7736 C   0  0  0  0  0  0  0  0  0  0  0  0
  -22.5174  -27.1471   17.4964 C   0  0  0  0  0  0  0  0  0  0  0  0
  -25.5444  -21.0109   17.7324 C   0  0  0  0  0  0  0  0  0  0  0  0
  -29.1623  -23.6784   23.8147 C   0  0  0  0  0  0  0  0  0  1  0  0
  -24.2428  -25.7273   18.6792 C   0  0  1  0  0  0  0  0  0  0  0  0
  -23.3216  -22.1432   17.8575 C   0  0  2  0  0  0  0  0  0  0  0  0
  -23.1411  -26.8081   18.8678 C   0  0  0  0  0  0  0  0  0  0  0  0
  -25.9181  -11.5850   20.2919 N   0  0  0  0  0  0  0  0  0  0  0  0
  -26.2178  -12.8875   20.1514 N   0  0  0  0  0  0  0  0  0  0  0  0
  -29.9648  -20.5637   23.7735 N   0  0  0  0  0  0  0  0  0  0  0  0
  -26.6522  -26.2285   18.4194 N   0  0  0  0  0  0  0  0  0  0  0  0
  -29.8977  -13.8941   20.3197 N   0  0  0  0  0  0  0  0  0  0  0  0
  -25.3238  -15.0679   20.3907 N   0  0  0  0  0  0  0  0  0  0  0  0
  -21.9006  -12.3962   21.6317 N   0  0  0  0  0  0  0  0  0  0  0  0
  -29.8954  -15.9844   21.4120 N   0  0  0  0  0  0  0  0  0  0  0  0
  -28.2667  -29.2026   17.2887 N   0  0  0  0  0  0  0  0  0  0  0  0
  -23.7686  -24.4912   18.0665 N   0  0  0  0  0  0  0  0  0  0  0  0
  -24.1024  -20.8917   18.0693 N   0  3  0  0  0  0  0  0  0  0  0  0
  -31.8381  -22.0310   23.6348 O   0  0  0  0  0  0  0  0  0  0  0  0
  -22.5467  -14.5757   21.3301 O   0  0  0  0  0  0  0  0  0  0  0  0
  -27.5615  -28.5146   19.3987 O   0  0  0  0  0  0  0  0  0  0  0  0
  -25.1618  -26.5605   16.6574 O   0  0  0  0  0  0  0  0  0  0  0  0
  -24.4003  -23.0886   19.8017 O   0  0  0  0  0  0  0  0  0  0  0  0
  -31.7025  -15.3242   20.1157 O   0  0  0  0  0  0  0  0  0  0  0  0
  -21.9558   -6.8275   21.7807 O   0  0  0  0  0  0  0  0  0  0  0  0
  -30.1824  -24.4155   23.1421 O   0  0  0  0  0  0  0  0  0  1  0  0
  -19.0181   -6.5280   26.4373 F   0  0  0  0  0  0  0  0  0  0  0  0
  -22.5357   -4.9280   23.7038 F   0  0  0  0  0  0  0  0  0  0  0  0
  -29.2610  -18.1402   22.8618 S   0  0  0  0  0  0  0  0  0  0  0  0
  1  2  1  0  0  0  0
  1  5  2  0  0  0  0
  2  6  2  0  0  0  0
  3  8  2  0  0  0  0
  3 17  1  0  0  0  0
  4  9  1  0  0  0  0
  4 17  2  0  0  0  0
  5 19  1  0  0  0  0
  6 21  1  0  0  0  0
  7 10  2  0  0  0  0
  7 20  1  0  0  0  0
  8 23  1  0  0  0  0
  9 23  2  0  0  0  0
 10 24  1  0  0  0  0
 11 12  2  0  0  0  0
 11 25  1  0  0  0  0
 12 26  1  0  0  0  0
 13 14  1  0  0  0  0
 13 30  2  0  0  0  0
 14 31  2  0  0  0  0
 15 22  1  0  0  0  0
 15 24  2  0  0  0  0
 16 26  2  0  0  0  0
 16 27  1  0  0  0  0
 17 28  1  0  0  0  0
 18 28  1  0  0  0  0
 18 29  2  0  0  0  0
 18 33  1  0  0  0  0
 19 21  2  0  0  0  0
 19 38  1  0  0  0  0
 20 22  2  0  0  0  0
 20 39  1  0  0  0  0
 21 49  1  0  0  0  0
 22 40  1  0  0  0  0
 23 80  1  0  0  0  0
 24 81  1  0  0  0  0
 25 27  2  0  0  0  0
 25 80  1  0  0  0  0
 26 82  1  0  0  0  0
 27 83  1  0  0  0  0
 28 63  2  0  0  0  0
 29 64  1  0  0  0  0
 29 68  1  0  0  0  0
 30 65  1  0  0  0  0
 30 84  1  0  0  0  0
 31 70  1  0  0  0  0
 31 84  1  0  0  0  0
 32 52  1  0  0  0  0
 32 65  1  0  0  0  0
 32 74  2  0  0  0  0
 33 69  1  0  0  0  0
 33 75  2  0  0  0  0
 34 50  1  0  0  0  0
 34 71  1  0  0  0  0
 34 76  2  0  0  0  0
 35 60  1  0  0  0  0
 35 66  1  0  0  0  0
 35 77  2  0  0  0  0
 36 61  1  0  0  0  0
 36 72  1  0  0  0  0
 36 78  2  0  0  0  0
 37 67  1  0  0  0  0
 37 70  1  0  0  0  0
 37 79  2  0  0  0  0
 38 41  1  0  0  0  0
 39 50  1  0  0  0  0
 40 66  1  0  0  0  0
 41 43  1  0  0  0  0
 42 44  1  0  0  0  0
 42 46  1  0  0  0  0
 43 49  1  0  0  0  0
 44 51  1  0  0  0  0
 45 47  1  0  0  0  0
 45 52  1  0  0  0  0
 46 67  1  0  0  0  0
 47 65  1  0  0  0  0
 48 51  1  0  0  0  0
 48 67  1  0  0  0  0
 49 71  1  0  0  0  0
 50 66  1  0  0  0  0
 51 64  1  0  0  0  0
 52 53  1  0  0  0  0
 52 59  1  0  0  0  0
 54 61  1  0  0  0  0
 55 62  1  0  0  0  0
 56 62  1  0  0  0  0
 57 62  1  0  0  0  0
 58 73  1  0  0  0  0
 59 81  1  0  0  0  0
 60 62  1  0  0  0  0
 60 72  1  0  0  0  0
 61 73  1  0  0  0  0
 63 64  1  0  0  0  0
M  CHG  1  73   1
M  ISO  4  37 100  59 101  70 100  81 101
M  END
> <Batch ID>
0150

> <Smiles>
CNC(C)C(=O)NC(C(=O)N1Cc2cc([101O:1][101CH2:1]C3(C)CCN(c4ccc([100NH:0][100C:0](=O)N5CCCC(n6nc(-c7ccc(Oc8ccc(F)cc8F)cc7)c(C(N)=O)c6N)C5)s4)C3=O)ccc2CC1C(=O)NC1CCCc2ccccc21)C(C)(C)C

> <Shape>
0.223

> <Color>
0.181

> <Negative vol penalty>
0.000

$$$$

  -OEChem-04052303213D

 84 93  0     1  0  0  0  0  0999 V2000
  -24.4058  -35.0784   20.6862 C   0  0  0  0  0  0  0  0  0  0  0  0
  -25.2795  -34.0254   20.9376 C   0  0  0  0  0  0  0  0  0  0  0  0
  -23.1908   -9.6977   20.5800 C   0  0  0  0  0  0  0  0  0  0  0  0
  -23.8125  -10.2793   22.8411 C   0  0  0  0  0  0  0  0  0  0  0  0
  -23.0984  -35.0280   21.1678 C   0  0  0  0  0  0  0  0  0  0  0  0
  -24.8465  -32.9217   21.6717 C   0  0  0  0  0  0  0  0  0  0  0  0
  -26.5306  -27.0864   20.8852 C   0  0  0  0  0  0  0  0  0  0  0  0
  -22.4695   -8.6043   21.0595 C   0  0  0  0  0  0  0  0  0  0  0  0
  -23.0912   -9.1859   23.3206 C   0  0  0  0  0  0  0  0  0  0  0  0
  -27.4667  -26.2844   21.5366 C   0  0  0  0  0  0  0  0  0  0  0  0
  -19.8592   -8.4108   23.9324 C   0  0  0  0  0  0  0  0  0  0  0  0
  -19.0357   -8.6149   25.0395 C   0  0  0  0  0  0  0  0  0  0  0  0
  -31.5486  -17.9606   20.9033 C   0  0  0  0  0  0  0  0  0  0  0  0
  -25.7197  -25.4002   22.9457 C   0  0  0  0  0  0  0  0  0  0  0  0
  -20.2906   -6.9628   26.2776 C   0  0  0  0  0  0  0  0  0  0  0  0
  -23.8623  -10.5351   21.4708 C   0  0  0  0  0  0  0  0  0  0  0  0
  -31.5585  -19.3427   21.2497 C   0  0  0  0  0  0  0  0  0  0  0  0
  -24.1321  -12.9732   20.7704 C   0  0  0  0  0  0  0  0  0  0  0  0
  -22.6463  -33.9189   21.8999 C   0  0  0  0  0  0  0  0  0  0  0  0
  -25.1816  -27.0594   21.2672 C   0  0  0  0  0  0  0  0  0  0  0  0
  -23.5322  -32.8571   22.1646 C   0  0  0  0  0  0  0  0  0  0  0  0
  -24.7681  -26.2010   22.2959 C   0  0  0  0  0  0  0  0  0  0  0  0
  -22.4197   -8.3485   22.4298 C   0  0  0  0  0  0  0  0  0  0  0  0
  -27.0618  -25.4432   22.5689 C   0  0  0  0  0  0  0  0  0  0  0  0
  -20.8985   -7.4827   23.9978 C   0  0  0  0  0  0  0  0  0  0  0  0
  -19.2513   -7.8909   26.2121 C   0  0  0  0  0  0  0  0  0  0  0  0
  -21.1142   -6.7587   25.1704 C   0  0  0  0  0  0  0  0  0  0  0  0
  -24.6080  -11.6644   20.9760 C   0  0  0  0  0  0  0  0  0  0  0  0
  -25.2202  -13.6634   20.2946 C   0  0  0  0  0  0  0  0  0  0  0  0
  -30.3629  -19.7462   21.8022 C   0  0  0  0  0  0  0  0  0  0  0  0
  -30.3458  -17.3603   21.2045 C   0  0  0  0  0  0  0  0  0  0  0  0
  -32.6929  -20.2002   21.0393 C   0  0  0  0  0  0  0  0  0  0  0  0
  -22.8236  -13.5166   20.9899 C   0  0  0  0  0  0  0  0  0  0  0  0
  -23.1396  -29.1935   22.4418 C   0  0  0  0  0  0  0  0  0  0  0  0
  -20.9983  -26.7914   22.0330 C   0  0  0  0  0  0  0  0  0  0  0  0
  -20.4236  -23.4391   21.7524 C   0  0  0  0  0  0  0  0  0  0  0  0
  -30.6313  -14.9614   20.4905 C   0  0  0  0  0  0  0  0  0  0  0  0
  -21.2383  -33.9308   22.4404 C   0  0  0  0  0  0  0  0  0  0  0  0
  -24.1797  -27.9109   20.5367 C   0  0  0  0  0  0  0  0  0  0  0  0
  -23.3282  -26.1198   22.7303 C   0  0  0  0  0  0  0  0  0  0  0  0
  -20.7466  -32.5572   22.8895 C   0  0  0  0  0  0  0  0  0  0  0  0
  -29.7349  -12.0101   18.7118 C   0  0  0  0  0  0  0  0  0  0  0  0
  -21.8063  -31.8623   23.7386 C   0  0  0  0  0  0  0  0  0  0  0  0
  -28.2821  -11.7647   19.1254 C   0  0  0  0  0  0  0  0  0  0  0  0
  -30.5695  -12.5562   19.8689 C   0  0  0  0  0  0  0  0  0  0  0  0
  -30.7784  -22.2457   22.2783 C   0  0  0  0  0  0  0  0  0  0  0  0
  -28.7790  -21.6449   22.5325 C   0  0  0  0  0  0  0  0  0  0  0  0
  -28.5623  -13.5010   20.9402 C   0  0  0  0  0  0  0  0  0  0  0  0
  -23.0923  -31.6316   22.9359 C   0  0  1  0  0  0  0  0  0  0  0  0
  -22.9193  -28.1827   21.3521 C   0  0  1  0  0  0  0  0  0  0  0  0
  -29.5694  -22.8868   22.9841 C   0  0  0  0  0  0  0  0  0  0  0  0
  -27.6670  -13.0119   19.7901 C   0  0  2  0  0  0  0  0  0  0  0  0
  -18.5664  -21.7762   21.4641 C   0  0  0  0  0  0  0  0  0  0  0  0
  -20.2259  -27.1497   24.9630 C   0  0  0  0  0  0  0  0  0  0  0  0
  -19.1093  -24.9108   24.8702 C   0  0  0  0  0  0  0  0  0  0  0  0
  -18.2989  -26.7680   23.4153 C   0  0  0  0  0  0  0  0  0  0  0  0
  -21.5384  -22.4638   19.1902 C   0  0  0  0  0  0  0  0  0  0  0  0
  -29.0995  -24.2230   22.4465 C   0  0  0  0  0  0  0  0  0  1  0  0
  -20.5011  -25.6464   22.8821 C   0  0  1  0  0  0  0  0  0  0  0  0
  -19.6023  -22.6376   20.7586 C   0  0  2  0  0  0  0  0  0  0  0  0
  -19.5613  -26.1214   24.0260 C   0  0  0  0  0  0  0  0  0  0  0  0
  -25.8979  -11.5286   20.6568 N   0  0  0  0  0  0  0  0  0  0  0  0
  -26.2417  -12.7610   20.2457 N   0  0  0  0  0  0  0  0  0  0  0  0
  -30.0335  -21.0323   22.2518 N   0  0  0  0  0  0  0  0  0  0  0  0
  -22.3875  -26.9765   21.9896 N   0  0  0  0  0  0  0  0  0  0  0  0
  -29.9277  -13.7392   20.4465 N   0  0  0  0  0  0  0  0  0  0  0  0
  -25.3931  -14.9480   19.9173 N   0  0  0  0  0  0  0  0  0  0  0  0
  -33.6344  -20.3445   21.9931 N   0  0  0  0  0  0  0  0  0  0  0  0
  -21.8222  -12.6688   21.4825 N   0  0  0  0  0  0  0  0  0  0  0  0
  -29.9081  -16.0239   21.0315 N   0  0  0  0  0  0  0  0  0  0  0  0
  -22.9364  -30.5015   22.0453 N   0  0  0  0  0  0  0  0  0  0  0  0
  -19.8892  -24.6926   21.9633 N   0  0  0  0  0  0  0  0  0  0  0  0
  -32.8407  -20.8771   19.8831 N   0  3  0  0  0  0  0  0  0  0  0  0
  -20.4864  -21.7464   19.9555 N   0  3  0  0  0  0  0  0  0  0  0  0
  -22.5463  -14.7143   20.7406 O   0  0  0  0  0  0  0  0  0  0  0  0
  -23.4682  -28.8146   23.5599 O   0  0  0  0  0  0  0  0  0  0  0  0
  -20.1846  -27.4911   21.4248 O   0  0  0  0  0  0  0  0  0  0  0  0
  -21.4357  -22.9960   22.2908 O   0  0  0  0  0  0  0  0  0  0  0  0
  -31.7804  -15.0648   20.0536 O   0  0  0  0  0  0  0  0  0  0  0  0
  -21.7158   -7.2818   22.8981 O   0  0  0  0  0  0  0  0  0  0  0  0
  -27.9736  -24.6598   23.2067 O   0  0  0  0  0  0  0  0  0  1  0  0
  -18.4613   -8.0881   27.2756 F   0  0  0  0  0  0  0  0  0  0  0  0
  -22.1118   -5.8666   25.2397 F   0  0  0  0  0  0  0  0  0  0  0  0
  -29.2351  -18.4614   21.9018 S   0  0  0  0  0  0  0  0  0  0  0  0
  1  2  1  0  0  0  0
  1  5  2  0  0  0  0
  2  6  2  0  0  0  0
  3  8  2  0  0  0  0
  3 16  1  0  0  0  0
  4  9  1  0  0  0  0
  4 16  2  0  0  0  0
  5 19  1  0  0  0  0
  6 21  1  0  0  0  0
  7 10  2  0  0  0  0
  7 20  1  0  0  0  0
  8 23  1  0  0  0  0
  9 23  2  0  0  0  0
 10 24  1  0  0  0  0
 11 12  2  0  0  0  0
 11 25  1  0  0  0  0
 12 26  1  0  0  0  0
 13 17  1  0  0  0  0
 13 31  2  0  0  0  0
 14 22  1  0  0  0  0
 14 24  2  0  0  0  0
 15 26  2  0  0  0  0
 15 27  1  0  0  0  0
 16 28  1  0  0  0  0
 17 30  2  0  0  0  0
 17 32  1  0  0  0  0
 18 28  1  0  0  0  0
 18 29  2  0  0  0  0
 18 33  1  0  0  0  0
 19 21  2  0  0  0  0
 19 38  1  0  0  0  0
 20 22  2  0  0  0  0
 20 39  1  0  0  0  0
 21 49  1  0  0  0  0
 22 40  1  0  0  0  0
 23 80  1  0  0  0  0
 24 81  1  0  0  0  0
 25 27  2  0  0  0  0
 25 80  1  0  0  0  0
 26 82  1  0  0  0  0
 27 83  1  0  0  0  0
 28 62  2  0  0  0  0
 29 63  1  0  0  0  0
 29 67  1  0  0  0  0
 30 64  1  0  0  0  0
 30 84  1  0  0  0  0
 31 70  1  0  0  0  0
 31 84  1  0  0  0  0
 32 68  1  0  0  0  0
 32 73  2  0  0  0  0
 33 69  1  0  0  0  0
 33 75  2  0  0  0  0
 34 50  1  0  0  0  0
 34 71  1  0  0  0  0
 34 76  2  0  0  0  0
 35 59  1  0  0  0  0
 35 65  1  0  0  0  0
 35 77  2  0  0  0  0
 36 60  1  0  0  0  0
 36 72  1  0  0  0  0
 36 78  2  0  0  0  0
 37 66  1  0  0  0  0
 37 70  1  0  0  0  0
 37 79  2  0  0  0  0
 38 41  1  0  0  0  0
 39 50  1  0  0  0  0
 40 65  1  0  0  0  0
 41 43  1  0  0  0  0
 42 44  1  0  0  0  0
 42 45  1  0  0  0  0
 43 49  1  0  0  0  0
 44 52  1  0  0  0  0
 45 66  1  0  0  0  0
 46 51  1  0  0  0  0
 46 64  1  0  0  0  0
 47 51  1  0  0  0  0
 47 64  1  0  0  0  0
 48 52  1  0  0  0  0
 48 66  1  0  0  0  0
 49 71  1  0  0  0  0
 50 65  1  0  0  0  0
 51 58  1  0  0  0  0
 52 63  1  0  0  0  0
 53 60  1  0  0  0  0
 54 61  1  0  0  0  0
 55 61  1  0  0  0  0
 56 61  1  0  0  0  0
 57 74  1  0  0  0  0
 58 81  1  0  0  0  0
 59 61  1  0  0  0  0
 59 72  1  0  0  0  0
 60 74  1  0  0  0  0
 62 63  1  0  0  0  0
M  CHG  2  73   1  74   1
M  ISO  4  37 100  58 101  70 100  81 101
M  END
> <Batch ID>
0150

> <Smiles>
CNC(C)C(=O)NC(C(=O)N1Cc2cc([101O:1][101CH2:1]C3CN(c4sc([100NH:0][100C:0](=O)N5CCCC(n6nc(-c7ccc(Oc8ccc(F)cc8F)cc7)c(C(N)=O)c6N)C5)cc4C(=N)N)C3)ccc2CC1C(=O)NC1CCCc2ccccc21)C(C)(C)C

> <Shape>
0.248

> <Color>
0.172

> <Negative vol penalty>
0.000

$$$$

  -OEChem-04052303213D

 88 97  0     1  0  0  0  0  0999 V2000
  -28.0414  -34.7138   21.7667 C   0  0  0  0  0  0  0  0  0  0  0  0
  -28.1898  -33.3535   22.0178 C   0  0  0  0  0  0  0  0  0  0  0  0
  -32.3680  -17.9721   23.1739 C   0  0  0  0  0  0  0  0  0  0  0  0
  -23.1608   -9.7243   20.1130 C   0  0  0  0  0  0  0  0  0  0  0  0
  -23.7855  -10.0340   22.4262 C   0  0  0  0  0  0  0  0  0  0  0  0
  -31.5117  -18.9030   23.7619 C   0  0  0  0  0  0  0  0  0  0  0  0
  -26.8466  -35.3550   22.0910 C   0  0  0  0  0  0  0  0  0  0  0  0
  -27.1438  -32.6339   22.5943 C   0  0  0  0  0  0  0  0  0  0  0  0
  -26.3507  -28.1875   20.3040 C   0  0  0  0  0  0  0  0  0  0  0  0
  -31.8505  -16.9682   22.3552 C   0  0  0  0  0  0  0  0  0  0  0  0
  -22.4258   -8.5918   20.4630 C   0  0  0  0  0  0  0  0  0  0  0  0
  -23.0504   -8.9014   22.7763 C   0  0  0  0  0  0  0  0  0  0  0  0
  -27.2265  -27.1474   20.6121 C   0  0  0  0  0  0  0  0  0  0  0  0
  -19.8084   -8.0998   23.2935 C   0  0  0  0  0  0  0  0  0  0  0  0
  -18.9854   -8.1848   24.4165 C   0  0  0  0  0  0  0  0  0  0  0  0
  -29.6205  -17.8263   22.7126 C   0  0  0  0  0  0  0  0  0  0  0  0
  -25.5954  -26.2335   22.1365 C   0  0  0  0  0  0  0  0  0  0  0  0
  -20.2184   -6.3861   25.4563 C   0  0  0  0  0  0  0  0  0  0  0  0
  -23.8407  -10.4454   21.0946 C   0  0  0  0  0  0  0  0  0  0  0  0
  -30.1380  -18.8302   23.5312 C   0  0  0  0  0  0  0  0  0  0  0  0
  -24.1408  -12.9446   20.6799 C   0  0  0  0  0  0  0  0  0  0  0  0
  -25.7819  -34.6409   22.6630 C   0  0  0  0  0  0  0  0  0  0  0  0
  -25.0928  -28.2646   20.9191 C   0  0  0  0  0  0  0  0  0  0  0  0
  -25.9341  -33.2664   22.9278 C   0  0  0  0  0  0  0  0  0  0  0  0
  -24.7045  -27.2742   21.8326 C   0  0  0  0  0  0  0  0  0  0  0  0
  -30.4768  -16.8953   22.1246 C   0  0  0  0  0  0  0  0  0  0  0  0
  -22.3705   -8.1803   21.7947 C   0  0  0  0  0  0  0  0  0  0  0  0
  -26.8501  -26.1718   21.5306 C   0  0  0  0  0  0  0  0  0  0  0  0
  -20.8364   -7.1579   23.2519 C   0  0  0  0  0  0  0  0  0  0  0  0
  -19.1904   -7.3280   25.4979 C   0  0  0  0  0  0  0  0  0  0  0  0
  -21.0414   -6.3011   24.3333 C   0  0  0  0  0  0  0  0  0  0  0  0
  -24.6007  -11.6151   20.7335 C   0  0  0  0  0  0  0  0  0  0  0  0
  -25.2377  -13.6718   20.2873 C   0  0  0  0  0  0  0  0  0  0  0  0
  -29.2325  -19.8137   24.1516 C   0  0  0  0  0  0  0  0  0  0  0  0
  -22.8384  -13.4747   20.9602 C   0  0  0  0  0  0  0  0  0  0  0  0
  -23.6516  -30.3627   22.8228 C   0  0  0  0  0  0  0  0  0  0  0  0
  -21.0958  -28.4128   22.3887 C   0  0  0  0  0  0  0  0  0  0  0  0
  -19.9227  -25.3033   21.6131 C   0  0  0  0  0  0  0  0  0  0  0  0
  -30.6635  -14.8736   20.6333 C   0  0  0  0  0  0  0  0  0  0  0  0
  -24.5266  -35.3871   23.0399 C   0  0  0  0  0  0  0  0  0  0  0  0
  -24.1491  -29.3781   20.5559 C   0  0  0  0  0  0  0  0  0  0  0  0
  -23.3572  -27.3002   22.5053 C   0  0  0  0  0  0  0  0  0  0  0  0
  -23.3315  -34.4747   23.3032 C   0  0  0  0  0  0  0  0  0  0  0  0
  -29.7353  -12.1578   18.5261 C   0  0  0  0  0  0  0  0  0  0  0  0
  -23.7371  -33.3089   24.1994 C   0  0  0  0  0  0  0  0  0  0  0  0
  -28.2789  -11.8839   18.9081 C   0  0  0  0  0  0  0  0  0  0  0  0
  -28.6738  -22.3937   21.6829 C   0  0  0  0  0  0  0  0  0  0  0  0
  -30.5743  -12.5569   19.7388 C   0  0  0  0  0  0  0  0  0  0  0  0
  -29.5220  -21.2279   22.1775 C   0  0  0  0  0  0  0  0  0  0  0  0
  -28.5766  -13.3961   20.9111 C   0  0  0  0  0  0  0  0  0  0  0  0
  -24.8134  -32.4464   23.5293 C   0  0  1  0  0  0  0  0  0  0  0  0
  -23.0957  -29.6419   21.6274 C   0  0  1  0  0  0  0  0  0  0  0  0
  -27.6775  -13.0535   19.7119 C   0  0  2  0  0  0  0  0  0  0  0  0
  -28.3324  -23.1410   22.9713 C   0  0  2  0  0  0  0  0  0  0  0  0
  -28.0339  -22.0089   23.9908 C   0  0  0  0  0  0  0  0  0  0  0  0
  -26.6009  -21.4693   23.9215 C   0  0  0  0  0  0  0  0  0  0  0  0
  -28.3904  -22.4258   25.4176 C   0  0  0  0  0  0  0  0  0  0  0  0
  -17.7879  -24.0055   21.3771 C   0  0  0  0  0  0  0  0  0  0  0  0
  -20.8609  -28.2516   25.4266 C   0  0  0  0  0  0  0  0  0  0  0  0
  -19.3792  -26.2545   25.1363 C   0  0  0  0  0  0  0  0  0  0  0  0
  -18.6801  -28.4675   24.2216 C   0  0  0  0  0  0  0  0  0  0  0  0
  -20.4431  -24.7436   18.7539 C   0  0  0  0  0  0  0  0  0  0  0  0
  -27.2528  -24.1908   22.7833 C   0  0  0  0  0  0  0  0  0  1  0  0
  -20.5494  -27.1939   23.0920 C   0  0  1  0  0  0  0  0  0  0  0  0
  -18.8326  -24.8467   20.6604 C   0  0  2  0  0  0  0  0  0  0  0  0
  -19.8936  -27.5422   24.4581 C   0  0  0  0  0  0  0  0  0  0  0  0
  -25.8894  -11.5016   20.4012 N   0  0  0  0  0  0  0  0  0  0  0  0
  -26.2486  -12.7689   20.1351 N   0  0  0  0  0  0  0  0  0  0  0  0
  -28.9507  -20.9352   23.5071 N   0  0  0  0  0  0  0  0  0  0  0  0
  -22.4723  -28.4126   22.1219 N   0  0  0  0  0  0  0  0  0  0  0  0
  -29.9455  -13.6731   20.4485 N   0  0  0  0  0  0  0  0  0  0  0  0
  -25.4266  -14.9892   20.0607 N   0  0  0  0  0  0  0  0  0  0  0  0
  -21.8261  -12.5879   21.3515 N   0  0  0  0  0  0  0  0  0  0  0  0
  -29.9520  -15.8753   21.2928 N   0  0  0  0  0  0  0  0  0  0  0  0
  -24.2208  -31.5867   22.5272 N   0  0  0  0  0  0  0  0  0  0  0  0
  -19.6488  -26.5456   22.1449 N   0  0  0  0  0  0  0  0  0  0  0  0
  -28.7115  -19.5584   25.3481 N   0  3  0  0  0  0  0  0  0  0  0  0
  -19.4164  -24.0316   19.5577 N   0  3  0  0  0  0  0  0  0  0  0  0
  -22.5758  -14.6964   20.8505 O   0  0  0  0  0  0  0  0  0  0  0  0
  -23.5688  -29.8473   23.9315 O   0  0  0  0  0  0  0  0  0  0  0  0
  -20.3284  -29.3282   22.0808 O   0  0  0  0  0  0  0  0  0  0  0  0
  -20.9160  -24.6241   21.8635 O   0  0  0  0  0  0  0  0  0  0  0  0
  -31.8145  -15.0128   20.2116 O   0  0  0  0  0  0  0  0  0  0  0  0
  -21.6531   -7.0753   22.1367 O   0  0  0  0  0  0  0  0  0  0  0  0
  -27.7033  -25.1559   21.8336 O   0  0  0  0  0  0  0  0  0  1  0  0
  -18.4009   -7.4108   26.5768 F   0  0  0  0  0  0  0  0  0  0  0  0
  -22.0282   -5.3950   24.2997 F   0  0  0  0  0  0  0  0  0  0  0  0
  -29.4734  -23.7895   23.3619 F   0  0  0  0  0  0  0  0  0  0  0  0
  1  2  1  0  0  0  0
  1  7  2  0  0  0  0
  2  8  2  0  0  0  0
  3  6  2  0  0  0  0
  3 10  1  0  0  0  0
  4 11  2  0  0  0  0
  4 19  1  0  0  0  0
  5 12  1  0  0  0  0
  5 19  2  0  0  0  0
  6 20  1  0  0  0  0
  7 22  1  0  0  0  0
  8 24  1  0  0  0  0
  9 13  2  0  0  0  0
  9 23  1  0  0  0  0
 10 26  2  0  0  0  0
 11 27  1  0  0  0  0
 12 27  2  0  0  0  0
 13 28  1  0  0  0  0
 14 15  2  0  0  0  0
 14 29  1  0  0  0  0
 15 30  1  0  0  0  0
 16 20  2  0  0  0  0
 16 26  1  0  0  0  0
 17 25  1  0  0  0  0
 17 28  2  0  0  0  0
 18 30  2  0  0  0  0
 18 31  1  0  0  0  0
 19 32  1  0  0  0  0
 20 34  1  0  0  0  0
 21 32  1  0  0  0  0
 21 33  2  0  0  0  0
 21 35  1  0  0  0  0
 22 24  2  0  0  0  0
 22 40  1  0  0  0  0
 23 25  2  0  0  0  0
 23 41  1  0  0  0  0
 24 51  1  0  0  0  0
 25 42  1  0  0  0  0
 26 74  1  0  0  0  0
 27 84  1  0  0  0  0
 28 85  1  0  0  0  0
 29 31  2  0  0  0  0
 29 84  1  0  0  0  0
 30 86  1  0  0  0  0
 31 87  1  0  0  0  0
 32 67  2  0  0  0  0
 33 68  1  0  0  0  0
 33 72  1  0  0  0  0
 34 69  1  0  0  0  0
 34 77  2  0  0  0  0
 35 73  1  0  0  0  0
 35 79  2  0  0  0  0
 36 52  1  0  0  0  0
 36 75  1  0  0  0  0
 36 80  2  0  0  0  0
 37 64  1  0  0  0  0
 37 70  1  0  0  0  0
 37 81  2  0  0  0  0
 38 65  1  0  0  0  0
 38 76  1  0  0  0  0
 38 82  2  0  0  0  0
 39 71  1  0  0  0  0
 39 74  1  0  0  0  0
 39 83  2  0  0  0  0
 40 43  1  0  0  0  0
 41 52  1  0  0  0  0
 42 70  1  0  0  0  0
 43 45  1  0  0  0  0
 44 46  1  0  0  0  0
 44 48  1  0  0  0  0
 45 51  1  0  0  0  0
 46 53  1  0  0  0  0
 47 49  1  0  0  0  0
 47 54  1  0  0  0  0
 48 71  1  0  0  0  0
 49 69  1  0  0  0  0
 50 53  1  0  0  0  0
 50 71  1  0  0  0  0
 51 75  1  0  0  0  0
 52 70  1  0  0  0  0
 53 68  1  0  0  0  0
 54 55  1  0  0  0  0
 54 63  1  0  0  0  0
 54 88  1  0  0  0  0
 55 56  1  0  0  0  0
 55 57  1  0  0  0  0
 55 69  1  0  0  0  0
 58 65  1  0  0  0  0
 59 66  1  0  0  0  0
 60 66  1  0  0  0  0
 61 66  1  0  0  0  0
 62 78  1  0  0  0  0
 63 85  1  0  0  0  0
 64 66  1  0  0  0  0
 64 76  1  0  0  0  0
 65 78  1  0  0  0  0
 67 68  1  0  0  0  0
M  CHG  2  77   1  78   1
M  ISO  4  39 100  63 101  74 100  85 101
M  END
> <Batch ID>
0150

> <Smiles>
CNC(C)C(=O)NC(C(=O)N1Cc2cc([101O:1][101CH2:1]C3(F)CCN(C(=N)c4cccc([100NH:0][100C:0](=O)N5CCCC(n6nc(-c7ccc(Oc8ccc(F)cc8F)cc7)c(C(N)=O)c6N)C5)c4)C3(C)C)ccc2CC1C(=O)NC1CCCc2ccccc21)C(C)(C)C

> <Shape>
0.326

> <Color>
0.179

> <Negative vol penalty>
0.000

$$$$

  -OEChem-04052303213D

 85 94  0     1  0  0  0  0  0999 V2000
  -28.4333  -32.9061   26.3212 C   0  0  0  0  0  0  0  0  0  0  0  0
  -28.4669  -31.7419   25.5603 C   0  0  0  0  0  0  0  0  0  0  0  0
  -22.5492  -13.1827   22.8286 C   0  0  0  0  0  0  0  0  0  0  0  0
  -24.2934  -11.6835   23.5682 C   0  0  0  0  0  0  0  0  0  0  0  0
  -27.2120  -33.4160   26.7597 C   0  0  0  0  0  0  0  0  0  0  0  0
  -27.2790  -31.0862   25.2385 C   0  0  0  0  0  0  0  0  0  0  0  0
  -27.1046  -29.6533   20.3845 C   0  0  0  0  0  0  0  0  0  0  0  0
  -21.8212  -12.9067   23.9859 C   0  0  0  0  0  0  0  0  0  0  0  0
  -23.5655  -11.4076   24.7256 C   0  0  0  0  0  0  0  0  0  0  0  0
  -27.8222  -28.5113   20.0316 C   0  0  0  0  0  0  0  0  0  0  0  0
  -20.9241   -9.4912   25.6098 C   0  0  0  0  0  0  0  0  0  0  0  0
  -20.8182   -8.1582   26.0064 C   0  0  0  0  0  0  0  0  0  0  0  0
  -25.7870  -27.2181   20.1021 C   0  0  0  0  0  0  0  0  0  0  0  0
  -29.4884  -20.1559   19.8396 C   0  0  0  0  0  0  0  0  0  0  0  0
  -21.8952   -8.6958   28.1012 C   0  0  0  0  0  0  0  0  0  0  0  0
  -27.6784  -21.6111   19.9325 C   0  0  0  0  0  0  0  0  0  0  0  0
  -23.7853  -12.5710   22.6197 C   0  0  0  0  0  0  0  0  0  0  0  0
  -24.1348  -12.6335   20.0935 C   0  0  0  0  0  0  0  0  0  0  0  0
  -26.0079  -32.7715   26.4349 C   0  0  0  0  0  0  0  0  0  0  0  0
  -25.7223  -29.5840   20.6099 C   0  0  0  0  0  0  0  0  0  0  0  0
  -26.0406  -31.5872   25.6742 C   0  0  0  0  0  0  0  0  0  0  0  0
  -25.0538  -28.3612   20.4552 C   0  0  0  0  0  0  0  0  0  0  0  0
  -29.0331  -21.4998   19.7093 C   0  0  0  0  0  0  0  0  0  0  0  0
  -22.3293  -12.0192   24.9345 C   0  0  0  0  0  0  0  0  0  0  0  0
  -27.1639  -27.2928   19.8931 C   0  0  0  0  0  0  0  0  0  0  0  0
  -21.5156  -10.4266   26.4589 C   0  0  0  0  0  0  0  0  0  0  0  0
  -21.3037   -7.7604   27.2520 C   0  0  0  0  0  0  0  0  0  0  0  0
  -22.0012  -10.0289   27.7046 C   0  0  0  0  0  0  0  0  0  0  0  0
  -24.5375  -12.8553   21.4241 C   0  0  0  0  0  0  0  0  0  0  0  0
  -25.1957  -13.0674   19.3368 C   0  0  0  0  0  0  0  0  0  0  0  0
  -28.4641  -19.2913   20.1577 C   0  0  0  0  0  0  0  0  0  0  0  0
  -30.5298  -24.8108   17.8551 C   0  0  0  0  0  0  0  0  0  0  0  0
  -29.8809  -24.9932   19.0150 C   0  0  0  0  0  0  0  0  0  0  0  0
  -31.1446  -23.5000   17.5459 C   0  0  0  0  0  0  0  0  0  0  0  0
  -22.9110  -12.0845   19.5868 C   0  0  0  0  0  0  0  0  0  0  0  0
  -23.8262  -30.1247   23.1031 C   0  0  0  0  0  0  0  0  0  0  0  0
  -21.4732  -29.6196   20.9281 C   0  0  0  0  0  0  0  0  0  0  0  0
  -20.5133  -28.2064   17.9738 C   0  0  0  0  0  0  0  0  0  0  0  0
  -29.5603  -17.0288   20.3182 C   0  0  0  0  0  0  0  0  0  0  0  0
  -24.7156  -33.3344   26.9715 C   0  0  0  0  0  0  0  0  0  0  0  0
  -24.9583  -30.8304   20.9638 C   0  0  0  0  0  0  0  0  0  0  0  0
  -23.5676  -28.2376   20.6662 C   0  0  0  0  0  0  0  0  0  0  0  0
  -31.0512  -22.3909   18.5651 C   0  0  0  0  0  0  0  0  0  0  0  0
  -23.4751  -32.7859   26.2712 C   0  0  0  0  0  0  0  0  0  0  0  0
  -29.9537  -13.5843   19.5070 C   0  0  0  0  0  0  0  0  0  0  0  0
  -23.5646  -31.2691   26.1369 C   0  0  0  0  0  0  0  0  0  0  0  0
  -28.5711  -12.9874   19.7797 C   0  0  0  0  0  0  0  0  0  0  0  0
  -30.3130  -14.6692   20.5207 C   0  0  0  0  0  0  0  0  0  0  0  0
  -27.9315  -15.1385   20.9421 C   0  0  0  0  0  0  0  0  0  0  0  0
  -24.7716  -30.8610   25.2837 C   0  0  1  0  0  0  0  0  0  0  0  0
  -29.6897  -23.8907   20.0423 C   0  0  2  0  0  0  0  0  0  0  0  0
  -23.6382  -30.5412   21.6717 C   0  0  1  0  0  0  0  0  0  0  0  0
  -27.4982  -14.0865   19.9080 C   0  0  2  0  0  0  0  0  0  0  0  0
  -30.6625  -24.0520   21.2138 C   0  0  0  0  0  0  0  0  0  0  0  0
  -18.5176  -27.9339   16.4770 C   0  0  0  0  0  0  0  0  0  0  0  0
  -20.3324  -27.5277   22.8341 C   0  0  0  0  0  0  0  0  0  0  0  0
  -18.9590  -26.6475   20.9348 C   0  0  0  0  0  0  0  0  0  0  0  0
  -18.6203  -28.9846   21.7383 C   0  0  0  0  0  0  0  0  0  0  0  0
  -21.8553  -29.6036   15.7364 C   0  0  0  0  0  0  0  0  0  0  0  0
  -29.2665  -26.3257   19.3457 C   0  0  0  0  0  0  0  0  0  1  0  0
  -20.7116  -28.4118   20.4381 C   0  0  1  0  0  0  0  0  0  0  0  0
  -19.7493  -28.7696   16.7890 C   0  0  2  0  0  0  0  0  0  0  0  0
  -19.6841  -27.8945   21.4842 C   0  0  0  0  0  0  0  0  0  0  0  0
  -25.7591  -13.3884   21.5110 N   0  0  0  0  0  0  0  0  0  0  0  0
  -26.1331  -13.5053   20.2255 N   0  0  0  0  0  0  0  0  0  0  0  0
  -29.8600  -22.5781   19.3929 N   0  0  3  0  0  0  0  0  0  0  0  0
  -22.8657  -29.4833   21.0172 N   0  0  0  0  0  0  0  0  0  0  0  0
  -29.2530  -15.6778   20.5851 N   0  0  0  0  0  0  0  0  0  0  0  0
  -25.4090  -13.1131   18.0046 N   0  0  0  0  0  0  0  0  0  0  0  0
  -22.8311  -10.6990   19.3906 N   0  0  0  0  0  0  0  0  0  0  0  0
  -28.4663  -17.8914   20.3772 N   0  0  0  0  0  0  0  0  0  0  0  0
  -24.4871  -31.0583   23.8785 N   0  0  0  0  0  0  0  0  0  0  0  0
  -20.1220  -28.7923   19.1590 N   0  0  0  0  0  0  0  0  0  0  0  0
  -20.6178  -28.7969   15.5783 N   0  3  0  0  0  0  0  0  0  0  0  0
  -31.7646  -23.3548   16.4932 O   0  0  0  0  0  0  0  0  0  0  0  0
  -21.9235  -12.8031   19.3006 O   0  0  0  0  0  0  0  0  0  0  0  0
  -23.4017  -29.0376   23.4768 O   0  0  0  0  0  0  0  0  0  0  0  0
  -20.8559  -30.6485   21.2144 O   0  0  0  0  0  0  0  0  0  0  0  0
  -21.3688  -27.3314   17.8597 O   0  0  0  0  0  0  0  0  0  0  0  0
  -30.7043  -17.3894   20.0297 O   0  0  0  0  0  0  0  0  0  0  0  0
  -21.6193  -11.7499   26.0640 O   0  0  0  0  0  0  0  0  0  0  0  0
  -27.8621  -26.1764   19.5494 O   0  0  0  0  0  0  0  0  0  1  0  0
  -21.2005   -6.4805   27.6334 F   0  0  0  0  0  0  0  0  0  0  0  0
  -22.5694  -10.9231   28.5251 F   0  0  0  0  0  0  0  0  0  0  0  0
  -26.9610  -20.0997   20.2975 S   0  0  0  0  0  0  0  0  0  0  0  0
  1  2  1  0  0  0  0
  1  5  2  0  0  0  0
  2  6  2  0  0  0  0
  3  8  2  0  0  0  0
  3 17  1  0  0  0  0
  4  9  1  0  0  0  0
  4 17  2  0  0  0  0
  5 19  1  0  0  0  0
  6 21  1  0  0  0  0
  7 10  2  0  0  0  0
  7 20  1  0  0  0  0
  8 24  1  0  0  0  0
  9 24  2  0  0  0  0
 10 25  1  0  0  0  0
 11 12  2  0  0  0  0
 11 26  1  0  0  0  0
 12 27  1  0  0  0  0
 13 22  1  0  0  0  0
 13 25  2  0  0  0  0
 14 23  1  0  0  0  0
 14 31  2  0  0  0  0
 15 27  2  0  0  0  0
 15 28  1  0  0  0  0
 16 23  2  0  0  0  0
 16 85  1  0  0  0  0
 17 29  1  0  0  0  0
 18 29  1  0  0  0  0
 18 30  2  0  0  0  0
 18 35  1  0  0  0  0
 19 21  2  0  0  0  0
 19 40  1  0  0  0  0
 20 22  2  0  0  0  0
 20 41  1  0  0  0  0
 21 50  1  0  0  0  0
 22 42  1  0  0  0  0
 23 66  1  0  0  0  0
 24 81  1  0  0  0  0
 25 82  1  0  0  0  0
 26 28  2  0  0  0  0
 26 81  1  0  0  0  0
 27 83  1  0  0  0  0
 28 84  1  0  0  0  0
 29 64  2  0  0  0  0
 30 65  1  0  0  0  0
 30 69  1  0  0  0  0
 31 71  1  0  0  0  0
 31 85  1  0  0  0  0
 32 33  2  0  0  0  0
 32 34  1  0  0  0  0
 33 51  1  0  0  0  0
 33 60  1  0  0  0  0
 34 43  1  0  0  0  0
 34 75  2  0  0  0  0
 35 70  1  0  0  0  0
 35 76  2  0  0  0  0
 36 52  1  0  0  0  0
 36 72  1  0  0  0  0
 36 77  2  0  0  0  0
 37 61  1  0  0  0  0
 37 67  1  0  0  0  0
 37 78  2  0  0  0  0
 38 62  1  0  0  0  0
 38 73  1  0  0  0  0
 38 79  2  0  0  0  0
 39 68  1  0  0  0  0
 39 71  1  0  0  0  0
 39 80  2  0  0  0  0
 40 44  1  0  0  0  0
 41 52  1  0  0  0  0
 42 67  1  0  0  0  0
 43 66  1  0  0  0  0
 44 46  1  0  0  0  0
 45 47  1  0  0  0  0
 45 48  1  0  0  0  0
 46 50  1  0  0  0  0
 47 53  1  0  0  0  0
 48 68  1  0  0  0  0
 49 53  1  0  0  0  0
 49 68  1  0  0  0  0
 50 72  1  0  0  0  0
 51 54  1  0  0  0  0
 51 66  1  0  0  0  0
 52 67  1  0  0  0  0
 53 65  1  0  0  0  0
 55 62  1  0  0  0  0
 56 63  1  0  0  0  0
 57 63  1  0  0  0  0
 58 63  1  0  0  0  0
 59 74  1  0  0  0  0
 60 82  1  0  0  0  0
 61 63  1  0  0  0  0
 61 73  1  0  0  0  0
 62 74  1  0  0  0  0
 64 65  1  0  0  0  0
M  CHG  1  74   1
M  ISO  4  39 100  60 101  71 100  82 101
M  END
> <Batch ID>
0150

> <Smiles>
CNC(C)C(=O)NC(C(=O)N1Cc2cc([101O:1][101CH2:1]C3=C(C)N(c4csc([100NH:0][100C:0](=O)N5CCCC(n6nc(-c7ccc(Oc8ccc(F)cc8F)cc7)c(C(N)=O)c6N)C5)c4)CC(=O)C3)ccc2CC1C(=O)NC1CCCc2ccccc21)C(C)(C)C

> <Shape>
0.320

> <Color>
0.086

> <Negative vol penalty>
0.000

$$$$

  -OEChem-04052303213D

 85 94  0     1  0  0  0  0  0999 V2000
  -17.8590  -24.8228   21.1555 C   0  0  0  0  0  0  0  0  0  0  0  0
  -19.2097  -24.6097   20.8998 C   0  0  0  0  0  0  0  0  0  0  0  0
  -22.7318  -10.5357   21.0853 C   0  0  0  0  0  0  0  0  0  0  0  0
  -24.5978   -9.1205   21.6788 C   0  0  0  0  0  0  0  0  0  0  0  0
  -17.4487  -25.9861   21.8053 C   0  0  0  0  0  0  0  0  0  0  0  0
  -20.1510  -25.5605   21.2928 C   0  0  0  0  0  0  0  0  0  0  0  0
  -24.2061  -23.4820   23.5021 C   0  0  0  0  0  0  0  0  0  0  0  0
  -21.8867   -9.4260   21.0962 C   0  0  0  0  0  0  0  0  0  0  0  0
  -23.7527   -8.0108   21.6898 C   0  0  0  0  0  0  0  0  0  0  0  0
  -25.1566  -22.8970   22.6665 C   0  0  0  0  0  0  0  0  0  0  0  0
  -22.0175   -4.8614   22.2271 C   0  0  0  0  0  0  0  0  0  0  0  0
  -22.1326   -3.9682   23.2922 C   0  0  0  0  0  0  0  0  0  0  0  0
  -26.5279  -24.8728   22.8530 C   0  0  0  0  0  0  0  0  0  0  0  0
  -31.3085  -19.3704   20.6085 C   0  0  0  0  0  0  0  0  0  0  0  0
  -21.5874   -5.7422   24.8390 C   0  0  0  0  0  0  0  0  0  0  0  0
  -24.0873  -10.3829   21.3766 C   0  0  0  0  0  0  0  0  0  0  0  0
  -25.2622  -12.3790   22.4457 C   0  0  0  0  0  0  0  0  0  0  0  0
  -18.3863  -26.9471   22.2151 C   0  0  0  0  0  0  0  0  0  0  0  0
  -24.4047  -24.7734   24.0114 C   0  0  0  0  0  0  0  0  0  0  0  0
  -19.7528  -26.7384   21.9475 C   0  0  0  0  0  0  0  0  0  0  0  0
  -25.5796  -25.4710   23.6968 C   0  0  0  0  0  0  0  0  0  0  0  0
  -32.1577  -18.2410   20.4249 C   0  0  0  0  0  0  0  0  0  0  0  0
  -22.3972   -8.1636   21.3984 C   0  0  0  0  0  0  0  0  0  0  0  0
  -26.3163  -23.5935   22.3395 C   0  0  0  0  0  0  0  0  0  0  0  0
  -21.6875   -6.1951   22.4679 C   0  0  0  0  0  0  0  0  0  0  0  0
  -21.9175   -4.4085   24.5981 C   0  0  0  0  0  0  0  0  0  0  0  0
  -21.4723   -6.6355   23.7738 C   0  0  0  0  0  0  0  0  0  0  0  0
  -24.9609  -11.5287   21.3649 C   0  0  0  0  0  0  0  0  0  0  0  0
  -31.4904  -17.0533   20.6289 C   0  0  0  0  0  0  0  0  0  0  0  0
  -26.1316  -13.3046   21.9224 C   0  0  0  0  0  0  0  0  0  0  0  0
  -30.0243  -19.0027   20.9456 C   0  0  0  0  0  0  0  0  0  0  0  0
  -24.7977  -12.3360   23.8015 C   0  0  0  0  0  0  0  0  0  0  0  0
  -22.8753  -27.5476   23.7497 C   0  0  0  0  0  0  0  0  0  0  0  0
  -25.0471  -28.5084   25.9593 C   0  0  0  0  0  0  0  0  0  0  0  0
  -28.7770  -21.1736   21.2006 C   0  0  0  0  0  0  0  0  0  0  0  0
  -28.1071  -28.0569   27.4013 C   0  0  0  0  0  0  0  0  0  0  0  0
  -30.4976  -14.6448   18.8181 C   0  0  0  0  0  0  0  0  0  0  0  0
  -17.8906  -28.2110   22.8720 C   0  0  0  0  0  0  0  0  0  0  0  0
  -23.3823  -25.3798   24.9329 C   0  0  0  0  0  0  0  0  0  0  0  0
  -25.8499  -26.8519   24.2339 C   0  0  0  0  0  0  0  0  0  0  0  0
  -18.9865  -28.9945   23.5900 C   0  0  0  0  0  0  0  0  0  0  0  0
  -32.2925  -13.6191   21.7973 C   0  0  0  0  0  0  0  0  0  0  0  0
  -27.4445  -14.2873   17.1507 C   0  0  0  0  0  0  0  0  0  0  0  0
  -20.2233  -29.1154   22.7054 C   0  0  0  0  0  0  0  0  0  0  0  0
  -32.5443  -15.1194   21.8791 C   0  0  0  0  0  0  0  0  0  0  0  0
  -26.5451  -13.5908   18.1700 C   0  0  0  0  0  0  0  0  0  0  0  0
  -28.8609  -13.7288   17.2057 C   0  0  0  0  0  0  0  0  0  0  0  0
  -30.9621  -13.5397   21.0650 C   0  0  0  0  0  0  0  0  0  0  0  0
  -28.6049  -13.1450   19.5988 C   0  0  0  0  0  0  0  0  0  0  0  0
  -20.8063  -27.7348   22.3804 C   0  0  1  0  0  0  0  0  0  0  0  0
  -32.0185  -15.6398   20.5348 C   0  0  1  0  0  0  0  0  0  0  0  0
  -23.4492  -26.9032   24.9798 C   0  0  1  0  0  0  0  0  0  0  0  0
  -27.1545  -13.6696   19.5796 C   0  0  2  0  0  0  0  0  0  0  0  0
  -33.5899  -18.3449   20.0575 C   0  0  0  0  0  0  0  0  0  0  0  0
  -29.6198  -29.0220   29.1556 C   0  0  0  0  0  0  0  0  0  0  0  0
  -25.7551  -30.8065   24.0811 C   0  0  0  0  0  0  0  0  0  0  0  0
  -27.8537  -31.1482   25.4030 C   0  0  0  0  0  0  0  0  0  0  0  0
  -25.6310  -31.4353   26.4984 C   0  0  0  0  0  0  0  0  0  0  0  0
  -28.0950  -25.5416   28.9608 C   0  0  0  0  0  0  0  0  0  0  0  0
  -27.3663  -21.6121   21.5473 C   0  0  0  0  0  0  0  0  0  1  0  0
  -26.4304  -29.1108   25.9072 C   0  0  1  0  0  0  0  0  0  0  0  0
  -28.5362  -27.9979   28.8562 C   0  0  2  0  0  0  0  0  0  0  0  0
  -26.4118  -30.6000   25.4606 C   0  0  0  0  0  0  0  0  0  0  0  0
  -25.5878  -11.8828   20.2399 N   0  0  0  0  0  0  0  0  0  0  0  0
  -26.2917  -12.9658   20.6110 N   0  0  0  0  0  0  0  0  0  0  0  0
  -24.8172  -27.4047   25.1258 N   0  0  0  0  0  0  0  0  0  0  0  0
  -29.4120  -13.7985   18.5596 N   0  0  0  0  0  0  0  0  0  0  0  0
  -31.0039  -14.6582   20.1211 N   0  0  0  0  0  0  0  0  0  0  0  0
  -26.7671  -14.3670   22.4606 N   0  0  0  0  0  0  0  0  0  0  0  0
  -23.9076  -11.3184   24.1708 N   0  0  0  0  0  0  0  0  0  0  0  0
  -28.9162  -19.7602   21.2060 N   0  0  0  0  0  0  0  0  0  0  0  0
  -21.5537  -27.2234   23.5093 N   0  0  0  0  0  0  0  0  0  0  0  0
  -27.0221  -28.8887   27.2221 N   0  0  0  0  0  0  0  0  0  0  0  0
  -29.0650  -26.6441   29.1858 N   0  3  0  0  0  0  0  0  0  0  0  0
  -25.1485  -13.1848   24.6559 O   0  0  0  0  0  0  0  0  0  0  0  0
  -23.5790  -28.2854   23.0699 O   0  0  0  0  0  0  0  0  0  0  0  0
  -24.2039  -28.9947   26.7170 O   0  0  0  0  0  0  0  0  0  0  0  0
  -29.6602  -21.9879   20.9525 O   0  0  0  0  0  0  0  0  0  0  0  0
  -28.6797  -27.4308   26.5120 O   0  0  0  0  0  0  0  0  0  0  0  0
  -31.0039  -15.3377   17.9263 O   0  0  0  0  0  0  0  0  0  0  0  0
  -21.5728   -7.0806   21.4094 O   0  0  0  0  0  0  0  0  0  0  0  0
  -27.2550  -23.0192   21.5152 O   0  0  0  0  0  0  0  0  0  1  0  0
  -22.0265   -3.5502   25.6207 F   0  0  0  0  0  0  0  0  0  0  0  0
  -21.1538   -7.9153   24.0114 F   0  0  0  0  0  0  0  0  0  0  0  0
  -29.8467  -17.3021   21.0398 S   0  0  0  0  0  0  0  0  0  0  0  0
  1  2  1  0  0  0  0
  1  5  2  0  0  0  0
  2  6  2  0  0  0  0
  3  8  2  0  0  0  0
  3 16  1  0  0  0  0
  4  9  1  0  0  0  0
  4 16  2  0  0  0  0
  5 18  1  0  0  0  0
  6 20  1  0  0  0  0
  7 10  2  0  0  0  0
  7 19  1  0  0  0  0
  8 23  1  0  0  0  0
  9 23  2  0  0  0  0
 10 24  1  0  0  0  0
 11 12  2  0  0  0  0
 11 25  1  0  0  0  0
 12 26  1  0  0  0  0
 13 21  1  0  0  0  0
 13 24  2  0  0  0  0
 14 22  1  0  0  0  0
 14 31  2  0  0  0  0
 15 26  2  0  0  0  0
 15 27  1  0  0  0  0
 16 28  1  0  0  0  0
 17 28  1  0  0  0  0
 17 30  2  0  0  0  0
 17 32  1  0  0  0  0
 18 20  2  0  0  0  0
 18 38  1  0  0  0  0
 19 21  2  0  0  0  0
 19 39  1  0  0  0  0
 20 50  1  0  0  0  0
 21 40  1  0  0  0  0
 22 29  2  0  0  0  0
 22 54  1  0  0  0  0
 23 81  1  0  0  0  0
 24 82  1  0  0  0  0
 25 27  2  0  0  0  0
 25 81  1  0  0  0  0
 26 83  1  0  0  0  0
 27 84  1  0  0  0  0
 28 64  2  0  0  0  0
 29 51  1  0  0  0  0
 29 85  1  0  0  0  0
 30 65  1  0  0  0  0
 30 69  1  0  0  0  0
 31 71  1  0  0  0  0
 31 85  1  0  0  0  0
 32 70  1  0  0  0  0
 32 75  2  0  0  0  0
 33 52  1  0  0  0  0
 33 72  1  0  0  0  0
 33 76  2  0  0  0  0
 34 61  1  0  0  0  0
 34 66  1  0  0  0  0
 34 77  2  0  0  0  0
 35 60  1  0  0  0  0
 35 71  1  0  0  0  0
 35 78  2  0  0  0  0
 36 62  1  0  0  0  0
 36 73  1  0  0  0  0
 36 79  2  0  0  0  0
 37 67  1  0  0  0  0
 37 68  1  0  0  0  0
 37 80  2  0  0  0  0
 38 41  1  0  0  0  0
 39 52  1  0  0  0  0
 40 66  1  0  0  0  0
 41 44  1  0  0  0  0
 42 45  1  0  0  0  0
 42 48  1  0  0  0  0
 43 46  1  0  0  0  0
 43 47  1  0  0  0  0
 44 50  1  0  0  0  0
 45 51  1  0  0  0  0
 46 53  1  0  0  0  0
 47 67  1  0  0  0  0
 48 68  1  0  0  0  0
 49 53  1  0  0  0  0
 49 67  1  0  0  0  0
 50 72  1  0  0  0  0
 51 68  1  0  0  0  0
 52 66  1  0  0  0  0
 53 65  1  0  0  0  0
 55 62  1  0  0  0  0
 56 63  1  0  0  0  0
 57 63  1  0  0  0  0
 58 63  1  0  0  0  0
 59 74  1  0  0  0  0
 60 82  1  0  0  0  0
 61 63  1  0  0  0  0
 61 73  1  0  0  0  0
 62 74  1  0  0  0  0
 64 65  1  0  0  0  0
M  CHG  1  74   1
M  ISO  4  37 100  60 101  68 100  82 101
M  END
> <Batch ID>
0150

> <Smiles>
CNC(C)C(=O)NC(C(=O)N1Cc2cc([101O:1][101CH2:1]C(=O)Nc3cc(C)c(C4CCC[100N:0]4[100C:0](=O)N4CCCC(n5nc(-c6ccc(Oc7ccc(F)cc7F)cc6)c(C(N)=O)c5N)C4)s3)ccc2CC1C(=O)NC1CCCc2ccccc21)C(C)(C)C

> <Shape>
0.281

> <Color>
0.134

> <Negative vol penalty>
0.000

$$$$

  -OEChem-04052303213D

 83 92  0     1  0  0  0  0  0999 V2000
  -37.6551  -29.6894   11.9560 C   0  0  0  0  0  0  0  0  0  0  0  0
  -37.5649  -29.5082   13.3324 C   0  0  0  0  0  0  0  0  0  0  0  0
  -23.0754   -9.8685   19.9401 C   0  0  0  0  0  0  0  0  0  0  0  0
  -23.8348   -9.8742   22.2336 C   0  0  0  0  0  0  0  0  0  0  0  0
  -37.5453  -28.5934   11.1012 C   0  0  0  0  0  0  0  0  0  0  0  0
  -37.3637  -28.2311   13.8547 C   0  0  0  0  0  0  0  0  0  0  0  0
  -39.0070  -24.2050   19.5474 C   0  0  0  0  0  0  0  0  0  0  0  0
  -22.3311   -8.7154   20.1894 C   0  0  0  0  0  0  0  0  0  0  0  0
  -23.0905   -8.7212   22.4830 C   0  0  0  0  0  0  0  0  0  0  0  0
  -38.3967  -23.4103   20.5169 C   0  0  0  0  0  0  0  0  0  0  0  0
  -21.1044   -5.9842   23.8180 C   0  0  0  0  0  0  0  0  0  0  0  0
  -20.3479   -5.9403   24.9890 C   0  0  0  0  0  0  0  0  0  0  0  0
  -38.3010  -21.5804   18.9480 C   0  0  0  0  0  0  0  0  0  0  0  0
  -31.8757  -17.4540   21.6215 C   0  0  0  0  0  0  0  0  0  0  0  0
  -19.1041   -7.8783   24.2581 C   0  0  0  0  0  0  0  0  0  0  0  0
  -29.8668  -17.7841   22.7431 C   0  0  0  0  0  0  0  0  0  0  0  0
  -23.8273  -10.4478   20.9622 C   0  0  0  0  0  0  0  0  0  0  0  0
  -24.1700  -12.9729   20.8433 C   0  0  0  0  0  0  0  0  0  0  0  0
  -37.3523  -27.3009   11.6137 C   0  0  0  0  0  0  0  0  0  0  0  0
  -39.2594  -23.6959   18.2654 C   0  0  0  0  0  0  0  0  0  0  0  0
  -37.2499  -27.1170   13.0059 C   0  0  0  0  0  0  0  0  0  0  0  0
  -38.9169  -22.3698   17.9648 C   0  0  0  0  0  0  0  0  0  0  0  0
  -30.5864  -16.9334   21.9331 C   0  0  0  0  0  0  0  0  0  0  0  0
  -22.3386   -8.1418   21.4608 C   0  0  0  0  0  0  0  0  0  0  0  0
  -38.0410  -22.0987   20.2163 C   0  0  0  0  0  0  0  0  0  0  0  0
  -20.8608   -6.9751   22.8670 C   0  0  0  0  0  0  0  0  0  0  0  0
  -19.3477   -6.8874   25.2091 C   0  0  0  0  0  0  0  0  0  0  0  0
  -19.8607   -7.9222   23.0870 C   0  0  0  0  0  0  0  0  0  0  0  0
  -24.5968  -11.6386   20.7051 C   0  0  0  0  0  0  0  0  0  0  0  0
  -25.2624  -13.7222   20.4806 C   0  0  0  0  0  0  0  0  0  0  0  0
  -32.0922  -18.6829   22.2052 C   0  0  0  0  0  0  0  0  0  0  0  0
  -22.8996  -13.4890   21.2622 C   0  0  0  0  0  0  0  0  0  0  0  0
  -38.3033  -24.4422   15.3272 C   0  0  0  0  0  0  0  0  0  0  0  0
  -40.4584  -22.1744   14.4699 C   0  0  0  0  0  0  0  0  0  0  0  0
  -42.2318  -19.3893   15.3331 C   0  0  0  0  0  0  0  0  0  0  0  0
  -30.7289  -14.7661   20.6568 C   0  0  0  0  0  0  0  0  0  0  0  0
  -37.1922  -26.1535   10.6481 C   0  0  0  0  0  0  0  0  0  0  0  0
  -39.9426  -24.5575   17.2391 C   0  0  0  0  0  0  0  0  0  0  0  0
  -39.1846  -21.7693   16.6098 C   0  0  0  0  0  0  0  0  0  0  0  0
  -37.3545  -24.7823   11.2991 C   0  0  0  0  0  0  0  0  0  0  0  0
  -29.6143  -12.3535   18.2874 C   0  0  0  0  0  0  0  0  0  0  0  0
  -36.5557  -24.7094   12.5966 C   0  0  0  0  0  0  0  0  0  0  0  0
  -28.1745  -12.0622   18.7166 C   0  0  0  0  0  0  0  0  0  0  0  0
  -34.6706  -21.3194   22.1035 C   0  0  0  0  0  0  0  0  0  0  0  0
  -30.5292  -12.5816   19.4894 C   0  0  0  0  0  0  0  0  0  0  0  0
  -33.4037  -20.7504   22.7445 C   0  0  0  0  0  0  0  0  0  0  0  0
  -28.6221  -13.3061   20.8705 C   0  0  0  0  0  0  0  0  0  0  0  0
  -34.4165  -19.0605   21.3308 C   0  0  0  0  0  0  0  0  0  0  0  0
  -37.0567  -25.7438   13.6117 C   0  0  1  0  0  0  0  0  0  0  0  0
  -39.6852  -24.0990   15.8070 C   0  0  1  0  0  0  0  0  0  0  0  0
  -27.6495  -13.1336   19.6924 C   0  0  2  0  0  0  0  0  0  0  0  0
  -35.4850  -20.0727   21.7636 C   0  0  1  0  0  0  0  0  0  0  0  0
  -43.8827  -17.7405   14.4094 C   0  0  0  0  0  0  0  0  0  0  0  0
  -38.2244  -20.8283   12.8865 C   0  0  0  0  0  0  0  0  0  0  0  0
  -39.6331  -18.7609   12.7903 C   0  0  0  0  0  0  0  0  0  0  0  0
  -40.4425  -20.8698   11.7321 C   0  0  0  0  0  0  0  0  0  0  0  0
  -44.2618  -20.1090   17.3628 C   0  0  0  0  0  0  0  0  0  0  0  0
  -36.5437  -20.3153   20.6992 C   0  0  0  0  0  0  0  0  0  1  0  0
  -40.4100  -20.6812   14.2530 C   0  0  1  0  0  0  0  0  0  0  0  0
  -43.7010  -19.0417   15.1753 C   0  0  2  0  0  0  0  0  0  0  0  0
  -39.6706  -20.2967   12.9405 C   0  0  0  0  0  0  0  0  0  0  0  0
  -25.8617  -11.5425   20.2871 N   0  0  0  0  0  0  0  0  0  0  0  0
  -26.2391  -12.8260   20.1594 N   0  0  0  0  0  0  0  0  0  0  0  0
  -33.2328  -19.4511   22.1002 N   0  0  3  0  0  0  0  0  0  0  0  0
  -39.8490  -22.6537   15.6382 N   0  0  0  0  0  0  0  0  0  0  0  0
  -29.9703  -13.6123   20.3670 N   0  0  0  0  0  0  0  0  0  0  0  0
  -25.4733  -15.0536   20.4082 N   0  0  0  0  0  0  0  0  0  0  0  0
  -21.8873  -12.5800   21.5989 N   0  0  0  0  0  0  0  0  0  0  0  0
  -30.0816  -15.6911   21.4754 N   0  0  0  0  0  0  0  0  0  0  0  0
  -38.2809  -25.2883   14.2350 N   0  0  0  0  0  0  0  0  0  0  0  0
  -41.7904  -20.2141   14.3200 N   0  0  0  0  0  0  0  0  0  0  0  0
  -44.3448  -18.8945   16.5113 N   0  3  0  0  0  0  0  0  0  0  0  0
  -22.6637  -14.7196   21.3200 O   0  0  0  0  0  0  0  0  0  0  0  0
  -37.3294  -23.9729   15.9043 O   0  0  0  0  0  0  0  0  0  0  0  0
  -41.0224  -22.8885   13.6372 O   0  0  0  0  0  0  0  0  0  0  0  0
  -41.5434  -18.9681   16.2600 O   0  0  0  0  0  0  0  0  0  0  0  0
  -31.8581  -14.9347   20.1895 O   0  0  0  0  0  0  0  0  0  0  0  0
  -36.1225  -19.5825   22.9436 O   0  0  0  0  0  0  0  0  0  0  0  0
  -21.6123   -7.0168   21.7046 O   0  0  0  0  0  0  0  0  0  0  0  0
  -37.4447  -21.3211   21.1606 O   0  0  0  0  0  0  0  0  0  1  0  0
  -18.6203   -6.8442   26.3330 F   0  0  0  0  0  0  0  0  0  0  0  0
  -19.6213   -8.8758   22.1765 F   0  0  0  0  0  0  0  0  0  0  0  0
  -30.7448  -19.2039   23.1246 S   0  0  0  0  0  0  0  0  0  0  0  0
  1  2  1  0  0  0  0
  1  5  2  0  0  0  0
  2  6  2  0  0  0  0
  3  8  2  0  0  0  0
  3 17  1  0  0  0  0
  4  9  1  0  0  0  0
  4 17  2  0  0  0  0
  5 19  1  0  0  0  0
  6 21  1  0  0  0  0
  7 10  2  0  0  0  0
  7 20  1  0  0  0  0
  8 24  1  0  0  0  0
  9 24  2  0  0  0  0
 10 25  1  0  0  0  0
 11 12  2  0  0  0  0
 11 26  1  0  0  0  0
 12 27  1  0  0  0  0
 13 22  1  0  0  0  0
 13 25  2  0  0  0  0
 14 23  1  0  0  0  0
 14 31  2  0  0  0  0
 15 27  2  0  0  0  0
 15 28  1  0  0  0  0
 16 23  2  0  0  0  0
 16 83  1  0  0  0  0
 17 29  1  0  0  0  0
 18 29  1  0  0  0  0
 18 30  2  0  0  0  0
 18 32  1  0  0  0  0
 19 21  2  0  0  0  0
 19 37  1  0  0  0  0
 20 22  2  0  0  0  0
 20 38  1  0  0  0  0
 21 49  1  0  0  0  0
 22 39  1  0  0  0  0
 23 69  1  0  0  0  0
 24 79  1  0  0  0  0
 25 80  1  0  0  0  0
 26 28  2  0  0  0  0
 26 79  1  0  0  0  0
 27 81  1  0  0  0  0
 28 82  1  0  0  0  0
 29 62  2  0  0  0  0
 30 63  1  0  0  0  0
 30 67  1  0  0  0  0
 31 64  1  0  0  0  0
 31 83  1  0  0  0  0
 32 68  1  0  0  0  0
 32 73  2  0  0  0  0
 33 50  1  0  0  0  0
 33 70  1  0  0  0  0
 33 74  2  0  0  0  0
 34 59  1  0  0  0  0
 34 65  1  0  0  0  0
 34 75  2  0  0  0  0
 35 60  1  0  0  0  0
 35 71  1  0  0  0  0
 35 76  2  0  0  0  0
 36 66  1  0  0  0  0
 36 69  1  0  0  0  0
 36 77  2  0  0  0  0
 37 40  1  0  0  0  0
 38 50  1  0  0  0  0
 39 65  1  0  0  0  0
 40 42  1  0  0  0  0
 41 43  1  0  0  0  0
 41 45  1  0  0  0  0
 42 49  1  0  0  0  0
 43 51  1  0  0  0  0
 44 46  1  0  0  0  0
 44 52  1  0  0  0  0
 45 66  1  0  0  0  0
 46 64  1  0  0  0  0
 47 51  1  0  0  0  0
 47 66  1  0  0  0  0
 48 52  1  0  0  0  0
 48 64  1  0  0  0  0
 49 70  1  0  0  0  0
 50 65  1  0  0  0  0
 51 63  1  0  0  0  0
 52 58  1  0  0  0  0
 52 78  1  0  0  0  0
 53 60  1  0  0  0  0
 54 61  1  0  0  0  0
 55 61  1  0  0  0  0
 56 61  1  0  0  0  0
 57 72  1  0  0  0  0
 58 80  1  0  0  0  0
 59 61  1  0  0  0  0
 59 71  1  0  0  0  0
 60 72  1  0  0  0  0
 62 63  1  0  0  0  0
M  CHG  1  72   1
M  ISO  4  36 100  58 101  69 100  80 101
M  END
> <Batch ID>
0150

> <Smiles>
CNC(C)C(=O)NC(C(=O)N1Cc2cc([101O:1][101CH2:1]C3(O)CCN(c4cc([100NH:0][100C:0](=O)N5CCCC(n6nc(-c7ccc(Oc8ccc(F)cc8F)cc7)c(C(N)=O)c6N)C5)cs4)C3)ccc2CC1C(=O)NC1CCCc2ccccc21)C(C)(C)C

> <Shape>
0.162

> <Color>
0.188

> <Negative vol penalty>
0.000

$$$$

  -OEChem-04052303213D

 84 93  0     1  0  0  0  0  0999 V2000
  -20.5729  -11.8715   34.6230 C   0  0  0  0  0  0  0  0  0  0  0  0
  -21.1781  -12.3668   33.4724 C   0  0  0  0  0  0  0  0  0  0  0  0
  -23.3804  -10.1460   22.2588 C   0  0  0  0  0  0  0  0  0  0  0  0
  -23.5555   -9.5560   19.9225 C   0  0  0  0  0  0  0  0  0  0  0  0
  -20.9228  -12.3868   35.8703 C   0  0  0  0  0  0  0  0  0  0  0  0
  -22.1329  -13.3785   33.5685 C   0  0  0  0  0  0  0  0  0  0  0  0
  -27.0861  -14.1131   30.0425 C   0  0  0  0  0  0  0  0  0  0  0  0
  -22.6429   -8.9862   22.4964 C   0  0  0  0  0  0  0  0  0  0  0  0
  -22.8181   -8.3961   20.1601 C   0  0  0  0  0  0  0  0  0  0  0  0
  -27.3393  -14.9259   28.9384 C   0  0  0  0  0  0  0  0  0  0  0  0
  -19.5728   -7.5520   20.5925 C   0  0  0  0  0  0  0  0  0  0  0  0
  -18.5538   -7.2364   19.6939 C   0  0  0  0  0  0  0  0  0  0  0  0
  -28.3509  -16.5682   30.3871 C   0  0  0  0  0  0  0  0  0  0  0  0
  -19.6525   -5.1465   19.1818 C   0  0  0  0  0  0  0  0  0  0  0  0
  -28.3368  -18.4539   20.0840 C   0  0  0  0  0  0  0  0  0  0  0  0
  -23.8366  -10.4310   20.9718 C   0  0  0  0  0  0  0  0  0  0  0  0
  -24.1846  -12.9579   20.9385 C   0  0  0  0  0  0  0  0  0  0  0  0
  -21.8894  -13.3986   35.9826 C   0  0  0  0  0  0  0  0  0  0  0  0
  -27.4542  -14.5273   31.3307 C   0  0  0  0  0  0  0  0  0  0  0  0
  -22.4951  -13.9087   34.8185 C   0  0  0  0  0  0  0  0  0  0  0  0
  -28.1035  -15.7577   31.5055 C   0  0  0  0  0  0  0  0  0  0  0  0
  -22.3618   -8.1112   21.4472 C   0  0  0  0  0  0  0  0  0  0  0  0
  -27.9692  -16.1549   29.1109 C   0  0  0  0  0  0  0  0  0  0  0  0
  -20.6318   -6.6648   20.7857 C   0  0  0  0  0  0  0  0  0  0  0  0
  -18.5936   -6.0337   18.9885 C   0  0  0  0  0  0  0  0  0  0  0  0
  -20.6716   -5.4621   20.0804 C   0  0  0  0  0  0  0  0  0  0  0  0
  -24.5980  -11.6292   20.7255 C   0  0  0  0  0  0  0  0  0  0  0  0
  -29.4669  -16.6933   21.2780 C   0  0  0  0  0  0  0  0  0  0  0  0
  -28.8633  -17.6571   22.0582 C   0  0  0  0  0  0  0  0  0  0  0  0
  -25.2613  -13.7186   20.5530 C   0  0  0  0  0  0  0  0  0  0  0  0
  -22.9386  -13.4597   21.4401 C   0  0  0  0  0  0  0  0  0  0  0  0
  -30.2092  -15.5315   21.6423 C   0  0  0  0  0  0  0  0  0  0  0  0
  -30.7829  -14.6108   20.6341 C   0  0  0  0  0  0  0  0  0  0  0  0
  -25.8808  -15.1549   34.0204 C   0  0  0  0  0  0  0  0  0  0  0  0
  -28.8713  -15.4570   35.2403 C   0  0  0  0  0  0  0  0  0  0  0  0
  -32.1782  -16.0885   34.6813 C   0  0  0  0  0  0  0  0  0  0  0  0
  -22.2004  -13.9570   37.3486 C   0  0  0  0  0  0  0  0  0  0  0  0
  -27.1980  -13.6271   32.5081 C   0  0  0  0  0  0  0  0  0  0  0  0
  -28.5371  -16.2394   32.8651 C   0  0  0  0  0  0  0  0  0  0  0  0
  -23.4935  -14.7670   37.3956 C   0  0  0  0  0  0  0  0  0  0  0  0
  -29.4796  -12.4592   18.0790 C   0  0  0  0  0  0  0  0  0  0  0  0
  -23.5577  -15.7386   36.2214 C   0  0  0  0  0  0  0  0  0  0  0  0
  -28.0731  -12.1299   18.5782 C   0  0  0  0  0  0  0  0  0  0  0  0
  -29.6648  -17.7857   25.6564 C   0  0  0  0  0  0  0  0  0  0  0  0
  -30.4621  -12.6080   19.2361 C   0  0  0  0  0  0  0  0  0  0  0  0
  -29.9172  -18.2984   24.2389 C   0  0  0  0  0  0  0  0  0  0  0  0
  -28.6306  -13.2870   20.7635 C   0  0  0  0  0  0  0  0  0  0  0  0
  -27.8889  -16.9716   24.2685 C   0  0  0  0  0  0  0  0  0  0  0  0
  -23.5533  -14.9886   34.8839 C   0  0  1  0  0  0  0  0  0  0  0  0
  -27.1534  -14.3777   33.8355 C   0  0  1  0  0  0  0  0  0  0  0  0
  -27.6043  -13.1564   19.6247 C   0  0  2  0  0  0  0  0  0  0  0  0
  -28.1560  -17.5023   25.6920 C   0  0  2  0  0  0  0  0  0  0  0  0
  -27.3589  -18.7914   25.9539 C   0  0  0  0  0  0  0  0  0  0  0  0
  -34.3726  -16.3033   35.8795 C   0  0  0  0  0  0  0  0  0  0  0  0
  -28.0409  -18.2093   36.2628 C   0  0  0  0  0  0  0  0  0  0  0  0
  -30.4653  -18.7434   36.5870 C   0  0  0  0  0  0  0  0  0  0  0  0
  -29.4201  -16.8736   37.8653 C   0  0  0  0  0  0  0  0  0  0  0  0
  -33.3617  -13.8439   33.1582 C   0  0  0  0  0  0  0  0  0  0  0  0
  -27.8047  -16.4636   26.7586 C   0  0  0  0  0  0  0  0  0  1  0  0
  -29.8549  -16.5923   35.3906 C   0  0  1  0  0  0  0  0  0  0  0  0
  -33.4328  -15.3658   35.1374 C   0  0  2  0  0  0  0  0  0  0  0  0
  -29.4355  -17.5967   36.5009 C   0  0  0  0  0  0  0  0  0  0  0  0
  -28.2151  -18.6677   21.3753 N   0  0  0  0  0  0  0  0  0  0  0  0
  -25.8404  -11.5470   20.2420 N   0  0  0  0  0  0  0  0  0  0  0  0
  -30.4575  -15.1664   22.8878 N   0  0  0  0  0  0  0  0  0  0  0  0
  -26.2168  -12.8337   20.1479 N   0  0  0  0  0  0  0  0  0  0  0  0
  -28.8828  -17.6515   23.4373 N   0  0  3  0  0  0  0  0  0  0  0  0
  -29.9700  -13.5618   20.2281 N   0  0  0  0  0  0  0  0  0  0  0  0
  -28.2587  -15.3263   33.9859 N   0  0  0  0  0  0  0  0  0  0  0  0
  -25.4744  -15.0513   20.5243 N   0  0  0  0  0  0  0  0  0  0  0  0
  -21.9143  -13.7396   20.5254 N   0  0  0  0  0  0  0  0  0  0  0  0
  -24.8616  -14.4331   34.6116 N   0  0  0  0  0  0  0  0  0  0  0  0
  -31.1599  -15.9761   35.6043 N   0  0  0  0  0  0  0  0  0  0  0  0
  -34.1604  -14.8014   33.9657 N   0  3  0  0  0  0  0  0  0  0  0  0
  -22.7453  -13.6697   22.6616 O   0  0  0  0  0  0  0  0  0  0  0  0
  -31.9197  -14.8751   20.2649 O   0  0  0  0  0  0  0  0  0  0  0  0
  -25.8281  -16.3234   33.6551 O   0  0  0  0  0  0  0  0  0  0  0  0
  -28.6597  -14.7093   36.1983 O   0  0  0  0  0  0  0  0  0  0  0  0
  -32.1096  -16.6954   33.6148 O   0  0  0  0  0  0  0  0  0  0  0  0
  -21.6424   -6.9792   21.6788 O   0  0  0  0  0  0  0  0  0  0  0  0
  -28.2170  -16.9505   28.0350 O   0  0  0  0  0  0  0  0  0  1  0  0
  -17.6141   -5.7301   18.1268 F   0  0  0  0  0  0  0  0  0  0  0  0
  -21.6857   -4.6053   20.2627 F   0  0  0  0  0  0  0  0  0  0  0  0
  -29.2176  -17.0560   19.6203 S   0  0  0  0  0  0  0  0  0  0  0  0
  1  2  1  0  0  0  0
  1  5  2  0  0  0  0
  2  6  2  0  0  0  0
  3  8  2  0  0  0  0
  3 16  1  0  0  0  0
  4  9  1  0  0  0  0
  4 16  2  0  0  0  0
  5 18  1  0  0  0  0
  6 20  1  0  0  0  0
  7 10  2  0  0  0  0
  7 19  1  0  0  0  0
  8 22  1  0  0  0  0
  9 22  2  0  0  0  0
 10 23  1  0  0  0  0
 11 12  2  0  0  0  0
 11 24  1  0  0  0  0
 12 25  1  0  0  0  0
 13 21  1  0  0  0  0
 13 23  2  0  0  0  0
 14 25  2  0  0  0  0
 14 26  1  0  0  0  0
 15 63  2  0  0  0  0
 15 84  1  0  0  0  0
 16 27  1  0  0  0  0
 17 27  1  0  0  0  0
 17 30  2  0  0  0  0
 17 31  1  0  0  0  0
 18 20  2  0  0  0  0
 18 37  1  0  0  0  0
 19 21  2  0  0  0  0
 19 38  1  0  0  0  0
 20 49  1  0  0  0  0
 21 39  1  0  0  0  0
 22 80  1  0  0  0  0
 23 81  1  0  0  0  0
 24 26  2  0  0  0  0
 24 80  1  0  0  0  0
 25 82  1  0  0  0  0
 26 83  1  0  0  0  0
 27 64  2  0  0  0  0
 28 29  2  0  0  0  0
 28 32  1  0  0  0  0
 28 84  1  0  0  0  0
 29 63  1  0  0  0  0
 29 67  1  0  0  0  0
 30 66  1  0  0  0  0
 30 70  1  0  0  0  0
 31 71  1  0  0  0  0
 31 75  2  0  0  0  0
 32 33  1  0  0  0  0
 32 65  2  0  0  0  0
 33 68  1  0  0  0  0
 33 76  2  0  0  0  0
 34 50  1  0  0  0  0
 34 72  1  0  0  0  0
 34 77  2  0  0  0  0
 35 60  1  0  0  0  0
 35 69  1  0  0  0  0
 35 78  2  0  0  0  0
 36 61  1  0  0  0  0
 36 73  1  0  0  0  0
 36 79  2  0  0  0  0
 37 40  1  0  0  0  0
 38 50  1  0  0  0  0
 39 69  1  0  0  0  0
 40 42  1  0  0  0  0
 41 43  1  0  0  0  0
 41 45  1  0  0  0  0
 42 49  1  0  0  0  0
 43 51  1  0  0  0  0
 44 46  1  0  0  0  0
 44 52  1  0  0  0  0
 45 68  1  0  0  0  0
 46 67  1  0  0  0  0
 47 51  1  0  0  0  0
 47 68  1  0  0  0  0
 48 52  1  0  0  0  0
 48 67  1  0  0  0  0
 49 72  1  0  0  0  0
 50 69  1  0  0  0  0
 51 66  1  0  0  0  0
 52 53  1  0  0  0  0
 52 59  1  0  0  0  0
 54 61  1  0  0  0  0
 55 62  1  0  0  0  0
 56 62  1  0  0  0  0
 57 62  1  0  0  0  0
 58 74  1  0  0  0  0
 59 81  1  0  0  0  0
 60 62  1  0  0  0  0
 60 73  1  0  0  0  0
 61 74  1  0  0  0  0
 64 66  1  0  0  0  0
M  CHG  1  74   1
M  ISO  4  32 100  33 100  59 101  81 101
M  END
> <Batch ID>
0150

> <Smiles>
CNC(C)C(=O)NC(C(=O)N1Cc2cc([101O:1][101CH2:1]C3(C)CCN(c4ncsc4[100C:0](=N)[100C:0](=O)N4CCCC(n5nc(-c6ccc(Oc7ccc(F)cc7F)cc6)c(C(N)=O)c5N)C4)C3)ccc2CC1C(=O)NC1CCCc2ccccc21)C(C)(C)C

> <Shape>
0.158

> <Color>
0.154

> <Negative vol penalty>
0.000

$$$$

  -OEChem-04052303213D

 83 91  0     1  0  0  0  0  0999 V2000
  -26.1157  -35.1272   22.2182 C   0  0  0  0  0  0  0  0  0  0  0  0
  -26.7104  -33.8722   22.2999 C   0  0  0  0  0  0  0  0  0  0  0  0
  -26.4809  -12.3134   21.7222 C   0  0  0  0  0  0  0  0  0  0  0  0
  -25.7185  -13.9636   20.1308 C   0  0  0  0  0  0  0  0  0  0  0  0
  -24.7571  -35.2729   22.4953 C   0  0  0  0  0  0  0  0  0  0  0  0
  -25.9470  -32.7622   22.6598 C   0  0  0  0  0  0  0  0  0  0  0  0
  -26.8647  -28.7387   19.7249 C   0  0  0  0  0  0  0  0  0  0  0  0
  -25.2543  -11.6561   21.6284 C   0  0  0  0  0  0  0  0  0  0  0  0
  -24.4918  -13.3062   20.0369 C   0  0  0  0  0  0  0  0  0  0  0  0
  -28.0272  -28.0138   19.9834 C   0  0  0  0  0  0  0  0  0  0  0  0
  -23.7213   -9.5370   19.4854 C   0  0  0  0  0  0  0  0  0  0  0  0
  -23.7381   -8.1479   19.3605 C   0  0  0  0  0  0  0  0  0  0  0  0
  -29.4099  -23.0841   19.8564 C   0  0  0  0  0  0  0  0  0  0  0  0
  -26.7304  -26.3753   21.1886 C   0  0  0  0  0  0  0  0  0  0  0  0
  -22.4706   -7.9485   21.4077 C   0  0  0  0  0  0  0  0  0  0  0  0
  -26.7131  -13.4672   20.9735 C   0  0  0  0  0  0  0  0  0  0  0  0
  -28.7607  -21.9176   20.3543 C   0  0  0  0  0  0  0  0  0  0  0  0
  -29.1275  -13.9219   20.2869 C   0  0  0  0  0  0  0  0  0  0  0  0
  -23.9745  -34.1626   22.8494 C   0  0  0  0  0  0  0  0  0  0  0  0
  -25.6256  -28.2922   20.2064 C   0  0  0  0  0  0  0  0  0  0  0  0
  -24.5769  -32.8934   22.9432 C   0  0  0  0  0  0  0  0  0  0  0  0
  -25.5532  -27.0949   20.9326 C   0  0  0  0  0  0  0  0  0  0  0  0
  -24.2597  -12.1525   20.7857 C   0  0  0  0  0  0  0  0  0  0  0  0
  -27.9606  -26.8335   20.7179 C   0  0  0  0  0  0  0  0  0  0  0  0
  -23.0792  -10.1319   20.5715 C   0  0  0  0  0  0  0  0  0  0  0  0
  -23.1127   -7.3536   20.3216 C   0  0  0  0  0  0  0  0  0  0  0  0
  -22.4538   -9.3376   21.5326 C   0  0  0  0  0  0  0  0  0  0  0  0
  -27.9798  -14.1470   21.0704 C   0  0  0  0  0  0  0  0  0  0  0  0
  -30.0528  -14.8153   20.7687 C   0  0  0  0  0  0  0  0  0  0  0  0
  -30.4180  -23.5119   20.6920 C   0  0  0  0  0  0  0  0  0  0  0  0
  -29.2977  -21.4980   21.5516 C   0  0  0  0  0  0  0  0  0  0  0  0
  -27.6699  -21.2383   19.7032 C   0  0  0  0  0  0  0  0  0  0  0  0
  -29.3383  -12.9887   19.2189 C   0  0  0  0  0  0  0  0  0  0  0  0
  -23.4462  -29.4534   22.2077 C   0  0  0  0  0  0  0  0  0  0  0  0
  -21.7485  -26.8621   21.2459 C   0  0  0  0  0  0  0  0  0  0  0  0
  -21.7653  -23.7087   19.9410 C   0  0  0  0  0  0  0  0  0  0  0  0
  -29.5780  -20.0566   23.5986 C   0  0  0  0  0  0  0  0  0  0  0  0
  -22.5201  -34.3772   23.1859 C   0  0  0  0  0  0  0  0  0  0  0  0
  -24.3771  -29.0715   19.8961 C   0  0  0  0  0  0  0  0  0  0  0  0
  -24.2448  -26.5618   21.4546 C   0  0  0  0  0  0  0  0  0  0  0  0
  -21.7007  -33.0893   23.1955 C   0  0  0  0  0  0  0  0  0  0  0  0
  -31.2737  -17.1519   24.7667 C   0  0  0  0  0  0  0  0  0  0  0  0
  -22.4336  -31.9959   23.9663 C   0  0  0  0  0  0  0  0  0  0  0  0
  -30.7304  -16.0322   23.8760 C   0  0  0  0  0  0  0  0  0  0  0  0
  -30.1960  -18.1801   25.1059 C   0  0  0  0  0  0  0  0  0  0  0  0
  -28.9451  -17.6229   23.0580 C   0  0  0  0  0  0  0  0  0  0  0  0
  -23.7767  -31.6613   23.3063 C   0  0  1  0  0  0  0  0  0  0  0  0
  -23.2400  -28.7925   20.8741 C   0  0  1  0  0  0  0  0  0  0  0  0
  -30.0102  -16.5976   22.6362 C   0  0  2  0  0  0  0  0  0  0  0  0
  -27.1034  -21.7436   18.3685 C   0  0  0  0  0  0  0  0  0  0  0  0
  -20.2260  -21.8311   19.3067 C   0  0  0  0  0  0  0  0  0  0  0  0
  -21.4166  -26.1420   24.1923 C   0  0  0  0  0  0  0  0  0  0  0  0
  -20.7336  -23.8407   23.4810 C   0  0  0  0  0  0  0  0  0  0  0  0
  -19.3652  -25.8123   22.8003 C   0  0  0  0  0  0  0  0  0  0  0  0
  -22.6036  -23.8251   17.1051 C   0  0  0  0  0  0  0  0  0  0  0  0
  -21.6184  -25.4340   21.7176 C   0  0  1  0  0  0  0  0  0  0  0  0
  -20.9541  -23.0762   18.8246 C   0  0  2  0  0  0  0  0  0  0  0  0
  -20.8085  -25.3180   23.0398 C   0  0  0  0  0  0  0  0  0  0  0  0
  -28.1574  -15.1079   21.9809 N   0  0  0  0  0  0  0  0  0  0  0  0
  -27.0959  -20.1676   20.2199 N   0  0  0  0  0  0  0  0  0  0  0  0
  -29.4275  -15.4945   21.7726 N   0  0  0  0  0  0  0  0  0  0  0  0
  -23.0529  -27.3630   21.1304 N   0  0  0  0  0  0  0  0  0  0  0  0
  -29.5603  -18.6746   23.8827 N   0  0  0  0  0  0  0  0  0  0  0  0
  -31.3321  -15.0782   20.4273 N   0  0  0  0  0  0  0  0  0  0  0  0
  -28.2818  -12.1445   18.8510 N   0  0  0  0  0  0  0  0  0  0  0  0
  -28.9714  -20.4050   22.3922 N   0  0  0  0  0  0  0  0  0  0  0  0
  -31.2439  -24.6658   20.4412 N   0  0  0  0  0  0  0  0  0  0  0  0
  -23.5734  -30.8278   22.1408 N   0  0  0  0  0  0  0  0  0  0  0  0
  -21.0506  -24.6855   20.6015 N   0  0  0  0  0  0  0  0  0  0  0  0
  -21.8431  -22.6919   17.6920 N   0  3  0  0  0  0  0  0  0  0  0  0
  -30.4365  -12.8946   18.6200 O   0  0  0  0  0  0  0  0  0  0  0  0
  -23.4854  -28.7675   23.2224 O   0  0  0  0  0  0  0  0  0  0  0  0
  -20.7305  -27.5071   20.9825 O   0  0  0  0  0  0  0  0  0  0  0  0
  -22.9165  -23.3676   20.2035 O   0  0  0  0  0  0  0  0  0  0  0  0
  -30.1171  -20.8679   24.3556 O   0  0  0  0  0  0  0  0  0  0  0  0
  -31.2458  -27.2257   20.3147 O   0  0  0  0  0  0  0  0  0  0  0  0
  -29.9177  -25.9382   18.6072 O   0  0  0  0  0  0  0  0  0  0  0  0
  -23.0627  -11.5112   20.6937 O   0  0  0  0  0  0  0  0  0  0  0  0
  -29.0939  -26.1244   20.9722 O   0  0  0  0  0  0  0  0  0  1  0  0
  -23.1276   -6.0197   20.2007 F   0  0  0  0  0  0  0  0  0  0  0  0
  -21.8344   -9.9034   22.5776 F   0  0  0  0  0  0  0  0  0  0  0  0
  -30.5788  -22.5089   22.0705 S   0  0  0  0  0  0  0  0  0  0  0  0
  -30.3930  -26.1014   19.9697 S   0  0  0  0  0  0  0  0  0  1  0  0
  1  2  1  0  0  0  0
  1  5  2  0  0  0  0
  2  6  2  0  0  0  0
  3  8  2  0  0  0  0
  3 16  1  0  0  0  0
  4  9  1  0  0  0  0
  4 16  2  0  0  0  0
  5 19  1  0  0  0  0
  6 21  1  0  0  0  0
  7 10  2  0  0  0  0
  7 20  1  0  0  0  0
  8 23  1  0  0  0  0
  9 23  2  0  0  0  0
 10 24  1  0  0  0  0
 11 12  2  0  0  0  0
 11 25  1  0  0  0  0
 12 26  1  0  0  0  0
 13 17  1  0  0  0  0
 13 30  2  0  0  0  0
 14 22  1  0  0  0  0
 14 24  2  0  0  0  0
 15 26  2  0  0  0  0
 15 27  1  0  0  0  0
 16 28  1  0  0  0  0
 17 31  2  0  0  0  0
 17 32  1  0  0  0  0
 18 28  1  0  0  0  0
 18 29  2  0  0  0  0
 18 33  1  0  0  0  0
 19 21  2  0  0  0  0
 19 38  1  0  0  0  0
 20 22  2  0  0  0  0
 20 39  1  0  0  0  0
 21 47  1  0  0  0  0
 22 40  1  0  0  0  0
 23 78  1  0  0  0  0
 24 79  1  0  0  0  0
 25 27  2  0  0  0  0
 25 78  1  0  0  0  0
 26 80  1  0  0  0  0
 27 81  1  0  0  0  0
 28 59  2  0  0  0  0
 29 61  1  0  0  0  0
 29 64  1  0  0  0  0
 30 67  1  0  0  0  0
 30 82  1  0  0  0  0
 31 66  1  0  0  0  0
 31 82  1  0  0  0  0
 32 50  1  0  0  0  0
 32 60  2  0  0  0  0
 33 65  1  0  0  0  0
 33 71  2  0  0  0  0
 34 48  1  0  0  0  0
 34 68  1  0  0  0  0
 34 72  2  0  0  0  0
 35 56  1  0  0  0  0
 35 62  1  0  0  0  0
 35 73  2  0  0  0  0
 36 57  1  0  0  0  0
 36 69  1  0  0  0  0
 36 74  2  0  0  0  0
 37 63  1  0  0  0  0
 37 66  1  0  0  0  0
 37 75  2  0  0  0  0
 38 41  1  0  0  0  0
 39 48  1  0  0  0  0
 40 62  1  0  0  0  0
 41 43  1  0  0  0  0
 42 44  1  0  0  0  0
 42 45  1  0  0  0  0
 43 47  1  0  0  0  0
 44 49  1  0  0  0  0
 45 63  1  0  0  0  0
 46 49  1  0  0  0  0
 46 63  1  0  0  0  0
 47 68  1  0  0  0  0
 48 62  1  0  0  0  0
 49 61  1  0  0  0  0
 51 57  1  0  0  0  0
 52 58  1  0  0  0  0
 53 58  1  0  0  0  0
 54 58  1  0  0  0  0
 55 70  1  0  0  0  0
 56 58  1  0  0  0  0
 56 69  1  0  0  0  0
 57 70  1  0  0  0  0
 59 61  1  0  0  0  0
 67 83  1  0  0  0  0
 76 83  2  0  0  0  0
 77 83  2  0  0  0  0
 79 83  1  0  0  0  0
M  CHG  1  70   1
M  ISO  4  37 100  66 100  79 101  83 101
M  END
> <Batch ID>
0150

> <Smiles>
CNC(C)C(=O)NC(C(=O)N1Cc2cc([101O:1][101S:1](=O)(=O)Nc3cc(C(C)=N)c([100NH:0][100C:0](=O)N4CCCC(n5nc(-c6ccc(Oc7ccc(F)cc7F)cc6)c(C(N)=O)c5N)C4)s3)ccc2CC1C(=O)NC1CCCc2ccccc21)C(C)(C)C

> <Shape>
0.297

> <Color>
0.063

> <Negative vol penalty>
0.000

$$$$

  -OEChem-04052303213D

 81 89  0     1  0  0  0  0  0999 V2000
  -20.7501  -20.5029   34.5910 C   0  0  0  0  0  0  0  0  0  0  0  0
  -21.8641  -20.8489   33.8329 C   0  0  0  0  0  0  0  0  0  0  0  0
  -23.1900   -9.8193   19.9315 C   0  0  0  0  0  0  0  0  0  0  0  0
  -23.5673   -9.9997   22.3110 C   0  0  0  0  0  0  0  0  0  0  0  0
  -20.5881  -19.1898   35.0309 C   0  0  0  0  0  0  0  0  0  0  0  0
  -22.8175  -19.8821   33.5152 C   0  0  0  0  0  0  0  0  0  0  0  0
  -26.0831  -19.4901   28.3492 C   0  0  0  0  0  0  0  0  0  0  0  0
  -22.4236   -8.6727   20.1399 C   0  0  0  0  0  0  0  0  0  0  0  0
  -22.8009   -8.8531   22.5195 C   0  0  0  0  0  0  0  0  0  0  0  0
  -27.3811  -19.8847   28.0278 C   0  0  0  0  0  0  0  0  0  0  0  0
  -21.2429   -5.7694   23.6478 C   0  0  0  0  0  0  0  0  0  0  0  0
  -21.7389   -4.8095   24.5300 C   0  0  0  0  0  0  0  0  0  0  0  0
  -28.1662  -17.6488   28.4790 C   0  0  0  0  0  0  0  0  0  0  0  0
  -30.7373  -15.2535   24.9495 C   0  0  0  0  0  0  0  0  0  0  0  0
  -23.6981   -4.5454   23.1411 C   0  0  0  0  0  0  0  0  0  0  0  0
  -32.4349  -16.7679   24.4729 C   0  0  0  0  0  0  0  0  0  0  0  0
  -23.7619  -10.4828   21.0170 C   0  0  0  0  0  0  0  0  0  0  0  0
  -24.1008  -12.9994   20.7733 C   0  0  0  0  0  0  0  0  0  0  0  0
  -21.5350  -18.2043   34.7102 C   0  0  0  0  0  0  0  0  0  0  0  0
  -25.8182  -18.1724   28.7491 C   0  0  0  0  0  0  0  0  0  0  0  0
  -22.6687  -18.5549   33.9523 C   0  0  0  0  0  0  0  0  0  0  0  0
  -26.8636  -17.2393   28.8025 C   0  0  0  0  0  0  0  0  0  0  0  0
  -31.1967  -16.5983   25.0523 C   0  0  0  0  0  0  0  0  0  0  0  0
  -22.2290   -8.1896   21.4339 C   0  0  0  0  0  0  0  0  0  0  0  0
  -28.4233  -18.9648   28.0954 C   0  0  0  0  0  0  0  0  0  0  0  0
  -21.9744   -6.1172   22.5122 C   0  0  0  0  0  0  0  0  0  0  0  0
  -22.9665   -4.1976   24.2767 C   0  0  0  0  0  0  0  0  0  0  0  0
  -23.2020   -5.5053   22.2589 C   0  0  0  0  0  0  0  0  0  0  0  0
  -24.5542  -11.6670   20.8023 C   0  0  0  0  0  0  0  0  0  0  0  0
  -31.6419  -14.4464   24.2950 C   0  0  0  0  0  0  0  0  0  0  0  0
  -25.2321  -13.7421   20.5385 C   0  0  0  0  0  0  0  0  0  0  0  0
  -22.7755  -13.5194   20.9436 C   0  0  0  0  0  0  0  0  0  0  0  0
  -24.6829  -16.8148   31.3895 C   0  0  0  0  0  0  0  0  0  0  0  0
  -24.7892  -14.1224   29.5835 C   0  0  0  0  0  0  0  0  0  0  0  0
  -26.1511  -12.4668   26.9281 C   0  0  0  0  0  0  0  0  0  0  0  0
  -31.0464  -12.7519   21.5700 C   0  0  0  0  0  0  0  0  0  0  0  0
  -21.3410  -16.8087   35.2481 C   0  0  0  0  0  0  0  0  0  0  0  0
  -24.4083  -17.7557   29.0667 C   0  0  0  0  0  0  0  0  0  0  0  0
  -26.6286  -15.8075   29.2064 C   0  0  0  0  0  0  0  0  0  0  0  0
  -22.2064  -15.7617   34.5517 C   0  0  0  0  0  0  0  0  0  0  0  0
  -29.5203  -13.4693   18.4342 C   0  0  0  0  0  0  0  0  0  0  0  0
  -23.6430  -16.2577   34.4211 C   0  0  0  0  0  0  0  0  0  0  0  0
  -28.0336  -13.2090   18.6829 C   0  0  0  0  0  0  0  0  0  0  0  0
  -30.4013  -12.4799   19.1938 C   0  0  0  0  0  0  0  0  0  0  0  0
  -28.6471  -12.1372   20.8906 C   0  0  0  0  0  0  0  0  0  0  0  0
  -23.7120  -17.5290   33.5663 C   0  0  1  0  0  0  0  0  0  0  0  0
  -24.3370  -16.5193   29.9575 C   0  0  1  0  0  0  0  0  0  0  0  0
  -27.7199  -13.1450   20.1899 C   0  0  2  0  0  0  0  0  0  0  0  0
  -26.0653  -10.2668   25.7240 C   0  0  0  0  0  0  0  0  0  0  0  0
  -30.3819  -21.2853   26.5843 C   0  0  0  0  0  0  0  0  0  0  0  0
  -26.4243  -12.8389   31.8171 C   0  0  0  0  0  0  0  0  0  0  0  0
  -27.0994  -11.0504   30.2004 C   0  0  0  0  0  0  0  0  0  0  0  0
  -24.6958  -11.3454   30.7991 C   0  0  0  0  0  0  0  0  0  0  0  0
  -25.2601  -13.7465   24.4126 C   0  0  0  0  0  0  0  0  0  0  0  0
  -31.5357  -13.0031   23.9900 C   0  0  0  0  0  0  0  0  0  0  0  0
  -30.9593  -18.9786   25.7617 C   0  0  0  0  0  0  0  0  0  0  0  0
  -25.8224  -13.0548   29.3157 C   0  0  1  0  0  0  0  0  0  0  0  0
  -25.5135  -11.6821   25.7957 C   0  0  2  0  0  0  0  0  0  0  0  0
  -29.9136  -19.8425   26.4631 C   0  0  1  0  0  0  0  0  0  1  0  0
  -26.0155  -12.0997   30.5273 C   0  0  0  0  0  0  0  0  0  0  0  0
  -25.8708  -11.5659   20.6016 N   0  0  0  0  0  0  0  0  0  0  0  0
  -26.2544  -12.8442   20.4443 N   0  0  0  0  0  0  0  0  0  0  0  0
  -25.2338  -15.4503   29.5135 N   0  0  0  0  0  0  0  0  0  0  0  0
  -30.0542  -12.4688   20.6169 N   0  0  0  0  0  0  0  0  0  0  0  0
  -25.4421  -15.0689   20.4053 N   0  0  0  0  0  0  0  0  0  0  0  0
  -21.7287  -12.6172   21.1773 N   0  0  0  0  0  0  0  0  0  0  0  0
  -30.4844  -17.6172   25.6625 N   0  0  0  0  0  0  0  0  0  0  0  0
  -23.6032  -17.1998   32.1612 N   0  0  0  0  0  0  0  0  0  0  0  0
  -25.4088  -12.3854   28.0872 N   0  0  0  0  0  0  0  0  0  0  0  0
  -30.6317  -12.7266   22.8959 N   0  0  0  0  0  0  0  0  0  0  0  0
  -25.7714  -12.3538   24.4906 N   0  3  0  0  0  0  0  0  0  0  0  0
  -22.5244  -14.7464   20.8738 O   0  0  0  0  0  0  0  0  0  0  0  0
  -25.8432  -16.7006   31.7667 O   0  0  0  0  0  0  0  0  0  0  0  0
  -23.6288  -13.7905   29.8381 O   0  0  0  0  0  0  0  0  0  0  0  0
  -27.2044  -13.0867   26.7984 O   0  0  0  0  0  0  0  0  0  0  0  0
  -32.2141  -13.0135   21.2618 O   0  0  0  0  0  0  0  0  0  0  0  0
  -21.4810   -7.0709   21.6377 O   0  0  0  0  0  0  0  0  0  0  0  0
  -29.6913  -19.3475   27.7829 O   0  0  0  0  0  0  0  0  0  1  0  0
  -23.4434   -3.2770   25.1248 F   0  0  0  0  0  0  0  0  0  0  0  0
  -23.9099   -5.8361   21.1702 F   0  0  0  0  0  0  0  0  0  0  0  0
  -33.0383  -15.3097   23.8081 S   0  0  0  0  0  0  0  0  0  0  0  0
  1  2  1  0  0  0  0
  1  5  2  0  0  0  0
  2  6  2  0  0  0  0
  3  8  2  0  0  0  0
  3 17  1  0  0  0  0
  4  9  1  0  0  0  0
  4 17  2  0  0  0  0
  5 19  1  0  0  0  0
  6 21  1  0  0  0  0
  7 10  2  0  0  0  0
  7 20  1  0  0  0  0
  8 24  1  0  0  0  0
  9 24  2  0  0  0  0
 10 25  1  0  0  0  0
 11 12  2  0  0  0  0
 11 26  1  0  0  0  0
 12 27  1  0  0  0  0
 13 22  1  0  0  0  0
 13 25  2  0  0  0  0
 14 23  1  0  0  0  0
 14 30  2  0  0  0  0
 15 27  2  0  0  0  0
 15 28  1  0  0  0  0
 16 23  2  0  0  0  0
 16 81  1  0  0  0  0
 17 29  1  0  0  0  0
 18 29  1  0  0  0  0
 18 31  2  0  0  0  0
 18 32  1  0  0  0  0
 19 21  2  0  0  0  0
 19 37  1  0  0  0  0
 20 22  2  0  0  0  0
 20 38  1  0  0  0  0
 21 46  1  0  0  0  0
 22 39  1  0  0  0  0
 23 67  1  0  0  0  0
 24 77  1  0  0  0  0
 25 78  1  0  0  0  0
 26 28  2  0  0  0  0
 26 77  1  0  0  0  0
 27 79  1  0  0  0  0
 28 80  1  0  0  0  0
 29 61  2  0  0  0  0
 30 55  1  0  0  0  0
 30 81  1  0  0  0  0
 31 62  1  0  0  0  0
 31 65  1  0  0  0  0
 32 66  1  0  0  0  0
 32 72  2  0  0  0  0
 33 47  1  0  0  0  0
 33 68  1  0  0  0  0
 33 73  2  0  0  0  0
 34 57  1  0  0  0  0
 34 63  1  0  0  0  0
 34 74  2  0  0  0  0
 35 58  1  0  0  0  0
 35 69  1  0  0  0  0
 35 75  2  0  0  0  0
 36 64  1  0  0  0  0
 36 70  1  0  0  0  0
 36 76  2  0  0  0  0
 37 40  1  0  0  0  0
 38 47  1  0  0  0  0
 39 63  1  0  0  0  0
 40 42  1  0  0  0  0
 41 43  1  0  0  0  0
 41 44  1  0  0  0  0
 42 46  1  0  0  0  0
 43 48  1  0  0  0  0
 44 64  1  0  0  0  0
 45 48  1  0  0  0  0
 45 64  1  0  0  0  0
 46 68  1  0  0  0  0
 47 63  1  0  0  0  0
 48 62  1  0  0  0  0
 49 58  1  0  0  0  0
 50 59  1  0  0  0  0
 51 60  1  0  0  0  0
 52 60  1  0  0  0  0
 53 60  1  0  0  0  0
 54 71  1  0  0  0  0
 55 70  1  0  0  0  0
 56 59  1  0  0  0  0
 56 67  1  0  0  0  0
 57 60  1  0  0  0  0
 57 69  1  0  0  0  0
 58 71  1  0  0  0  0
 59 78  1  0  0  0  0
 61 62  1  0  0  0  0
M  CHG  1  71   1
M  ISO  4  36 100  59 101  70 100  78 101
M  END
> <Batch ID>
0150

> <Smiles>
CNC(C)C(=O)NC(C(=O)N1Cc2cc([101O:1][101CH:1](C)CNc3csc(C[100NH:0][100C:0](=O)N4CCCC(n5nc(-c6ccc(Oc7ccc(F)cc7F)cc6)c(C(N)=O)c5N)C4)c3)ccc2CC1C(=O)NC1CCCc2ccccc21)C(C)(C)C

> <Shape>
0.142

> <Color>
0.186

> <Negative vol penalty>
0.000

$$$$

  -OEChem-04052303213D

 83 91  0     1  0  0  0  0  0999 V2000
  -19.5830  -34.3486   22.2050 C   0  0  0  0  0  0  0  0  0  0  0  0
  -20.8827  -34.0157   21.8370 C   0  0  0  0  0  0  0  0  0  0  0  0
  -24.5350  -13.4025   21.3994 C   0  0  0  0  0  0  0  0  0  0  0  0
  -26.6768  -12.9855   20.3622 C   0  0  0  0  0  0  0  0  0  0  0  0
  -18.8546  -33.4968   23.0344 C   0  0  0  0  0  0  0  0  0  0  0  0
  -21.4551  -32.8311   22.2992 C   0  0  0  0  0  0  0  0  0  0  0  0
  -25.3884  -29.2256   19.2934 C   0  0  0  0  0  0  0  0  0  0  0  0
  -29.2973  -22.0449   17.6124 C   0  0  0  0  0  0  0  0  0  0  0  0
  -27.5165  -22.9865   16.2785 C   0  0  0  0  0  0  0  0  0  0  0  0
  -29.7605  -23.3287   17.9002 C   0  0  0  0  0  0  0  0  0  0  0  0
  -27.9797  -24.2704   16.5664 C   0  0  0  0  0  0  0  0  0  0  0  0
  -24.4097  -12.0435   21.6871 C   0  0  0  0  0  0  0  0  0  0  0  0
  -26.5515  -11.6264   20.6499 C   0  0  0  0  0  0  0  0  0  0  0  0
  -26.7767  -29.1066   19.3416 C   0  0  0  0  0  0  0  0  0  0  0  0
  -23.5645   -9.2165   20.0385 C   0  0  0  0  0  0  0  0  0  0  0  0
  -22.3356   -8.6103   19.7780 C   0  0  0  0  0  0  0  0  0  0  0  0
  -26.5595  -27.2704   20.8909 C   0  0  0  0  0  0  0  0  0  0  0  0
  -22.1300   -8.0237   22.1127 C   0  0  0  0  0  0  0  0  0  0  0  0
  -25.6686  -13.8736   20.7369 C   0  0  0  0  0  0  0  0  0  0  0  0
  -26.3841  -16.2678   21.2496 C   0  0  0  0  0  0  0  0  0  0  0  0
  -19.4150  -32.2966   23.4990 C   0  0  0  0  0  0  0  0  0  0  0  0
  -24.5742  -28.3735   20.0532 C   0  0  0  0  0  0  0  0  0  0  0  0
  -20.7341  -31.9631   23.1366 C   0  0  0  0  0  0  0  0  0  0  0  0
  -25.1611  -27.3789   20.8485 C   0  0  0  0  0  0  0  0  0  0  0  0
  -28.1753  -21.8738   16.8014 C   0  0  0  0  0  0  0  0  0  0  0  0
  -29.1018  -24.4414   17.3773 C   0  0  0  0  0  0  0  0  0  0  0  0
  -25.4179  -11.1554   21.3124 C   0  0  0  0  0  0  0  0  0  0  0  0
  -27.3625  -28.1308   20.1427 C   0  0  0  0  0  0  0  0  0  0  0  0
  -24.0763   -9.2262   21.3361 C   0  0  0  0  0  0  0  0  0  0  0  0
  -21.6183   -8.0139   20.8150 C   0  0  0  0  0  0  0  0  0  0  0  0
  -23.3590   -8.6299   22.3732 C   0  0  0  0  0  0  0  0  0  0  0  0
  -25.7984  -15.2773   20.4388 C   0  0  0  0  0  0  0  0  0  0  0  0
  -26.2582  -17.4259   20.5220 C   0  0  0  0  0  0  0  0  0  0  0  0
  -26.9882  -16.1516   22.5447 C   0  0  0  0  0  0  0  0  0  0  0  0
  -22.4693  -28.7854   22.3991 C   0  0  0  0  0  0  0  0  0  0  0  0
  -21.9639  -25.6091   21.9772 C   0  0  0  0  0  0  0  0  0  0  0  0
  -23.1617  -22.6042   20.8897 C   0  0  0  0  0  0  0  0  0  0  0  0
  -26.6078  -20.2241   15.7208 C   0  0  0  0  0  0  0  0  0  0  0  0
  -18.6057  -31.4308   24.4319 C   0  0  0  0  0  0  0  0  0  0  0  0
  -23.0775  -28.4973   19.9695 C   0  0  0  0  0  0  0  0  0  0  0  0
  -24.3308  -26.4261   21.6678 C   0  0  0  0  0  0  0  0  0  0  0  0
  -19.1520  -30.0125   24.5743 C   0  0  0  0  0  0  0  0  0  0  0  0
  -23.6064  -18.4059   16.3233 C   0  0  0  0  0  0  0  0  0  0  0  0
  -20.6612  -30.0413   24.7940 C   0  0  0  0  0  0  0  0  0  0  0  0
  -23.9573  -17.5114   17.5144 C   0  0  0  0  0  0  0  0  0  0  0  0
  -24.7880  -18.5689   15.3689 C   0  0  0  0  0  0  0  0  0  0  0  0
  -26.3875  -18.1236   17.1889 C   0  0  0  0  0  0  0  0  0  0  0  0
  -21.3809  -30.6749   23.5974 C   0  0  1  0  0  0  0  0  0  0  0  0
  -22.3607  -27.9111   21.1819 C   0  0  1  0  0  0  0  0  0  0  0  0
  -25.2485  -17.9824   18.2118 C   0  0  2  0  0  0  0  0  0  0  0  0
  -22.5334  -20.1812   20.7108 C   0  0  0  0  0  0  0  0  0  0  0  0
  -22.4767  -25.2580   24.9645 C   0  0  0  0  0  0  0  0  0  0  0  0
  -22.7780  -22.8067   24.5538 C   0  0  0  0  0  0  0  0  0  0  0  0
  -20.5860  -23.8916   24.0630 C   0  0  0  0  0  0  0  0  0  0  0  0
  -31.6263  -27.7602   20.1148 C   0  0  0  0  0  0  0  0  0  0  0  0
  -31.5001  -28.0098   17.6307 C   0  0  0  0  0  0  0  0  0  0  0  0
  -23.3809  -22.6455   17.9386 C   0  0  0  0  0  0  0  0  0  0  0  0
  -30.4180  -26.0250   18.7864 C   0  0  0  0  0  0  0  0  0  0  0  0
  -29.4447  -28.3835   19.0216 C   0  0  0  0  0  0  0  0  0  1  0  0
  -22.5603  -24.3462   22.5504 C   0  0  1  0  0  0  0  0  0  0  0  0
  -22.5433  -21.5316   20.0114 C   0  0  2  0  0  0  0  0  0  0  0  0
  -22.1162  -24.0947   24.0191 C   0  0  0  0  0  0  0  0  0  0  0  0
  -30.7303  -27.5384   18.8785 C   0  0  0  0  0  0  0  0  0  0  0  0
  -25.3346  -15.7636   19.2845 N   0  0  0  0  0  0  0  0  0  0  0  0
  -25.6288  -17.0724   19.3648 N   0  0  0  0  0  0  0  0  0  0  0  0
  -22.8720  -26.5913   21.5572 N   0  0  0  0  0  0  0  0  0  0  0  0
  -25.9742  -19.0214   16.0989 N   0  0  0  0  0  0  0  0  0  0  0  0
  -26.6254  -18.7019   20.7655 N   0  0  0  0  0  0  0  0  0  0  0  0
  -27.0342  -14.8881   23.1495 N   0  0  0  0  0  0  0  0  0  0  0  0
  -27.7059  -20.5695   16.5079 N   0  0  0  0  0  0  0  0  0  0  0  0
  -29.5616  -25.7159   17.6641 N   0  0  0  0  0  0  0  0  0  0  0  0
  -21.4681  -29.7321   22.5029 N   0  0  0  0  0  0  0  0  0  0  0  0
  -22.2078  -23.2728   21.6274 N   0  0  0  0  0  0  0  0  0  0  0  0
  -23.3101  -21.3970   18.7406 N   0  3  0  0  0  0  0  0  0  0  0  0
  -27.4581  -17.1417   23.1549 O   0  0  0  0  0  0  0  0  0  0  0  0
  -23.3921  -28.6128   23.1866 O   0  0  0  0  0  0  0  0  0  0  0  0
  -20.7376  -25.7170   21.8983 O   0  0  0  0  0  0  0  0  0  0  0  0
  -24.3704  -22.8241   20.9213 O   0  0  0  0  0  0  0  0  0  0  0  0
  -26.1894  -20.9119   14.7860 O   0  0  0  0  0  0  0  0  0  0  0  0
  -25.2961   -9.8292   21.5933 O   0  0  0  0  0  0  0  0  0  0  0  0
  -28.7174  -28.0130   20.1921 O   0  0  0  0  0  0  0  0  0  1  0  0
  -20.4375   -7.4332   20.5650 F   0  0  0  0  0  0  0  0  0  0  0  0
  -23.8449   -8.6372   23.6220 F   0  0  0  0  0  0  0  0  0  0  0  0
  1  2  1  0  0  0  0
  1  5  2  0  0  0  0
  2  6  2  0  0  0  0
  3 12  2  0  0  0  0
  3 19  1  0  0  0  0
  4 13  1  0  0  0  0
  4 19  2  0  0  0  0
  5 21  1  0  0  0  0
  6 23  1  0  0  0  0
  7 14  2  0  0  0  0
  7 22  1  0  0  0  0
  8 10  2  0  0  0  0
  8 25  1  0  0  0  0
  9 11  1  0  0  0  0
  9 25  2  0  0  0  0
 10 26  1  0  0  0  0
 11 26  2  0  0  0  0
 12 27  1  0  0  0  0
 13 27  2  0  0  0  0
 14 28  1  0  0  0  0
 15 16  2  0  0  0  0
 15 29  1  0  0  0  0
 16 30  1  0  0  0  0
 17 24  1  0  0  0  0
 17 28  2  0  0  0  0
 18 30  2  0  0  0  0
 18 31  1  0  0  0  0
 19 32  1  0  0  0  0
 20 32  1  0  0  0  0
 20 33  2  0  0  0  0
 20 34  1  0  0  0  0
 21 23  2  0  0  0  0
 21 39  1  0  0  0  0
 22 24  2  0  0  0  0
 22 40  1  0  0  0  0
 23 48  1  0  0  0  0
 24 41  1  0  0  0  0
 25 70  1  0  0  0  0
 26 71  1  0  0  0  0
 27 80  1  0  0  0  0
 28 81  1  0  0  0  0
 29 31  2  0  0  0  0
 29 80  1  0  0  0  0
 30 82  1  0  0  0  0
 31 83  1  0  0  0  0
 32 64  2  0  0  0  0
 33 65  1  0  0  0  0
 33 68  1  0  0  0  0
 34 69  1  0  0  0  0
 34 75  2  0  0  0  0
 35 49  1  0  0  0  0
 35 72  1  0  0  0  0
 35 76  2  0  0  0  0
 36 60  1  0  0  0  0
 36 66  1  0  0  0  0
 36 77  2  0  0  0  0
 37 61  1  0  0  0  0
 37 73  1  0  0  0  0
 37 78  2  0  0  0  0
 38 67  1  0  0  0  0
 38 70  1  0  0  0  0
 38 79  2  0  0  0  0
 39 42  1  0  0  0  0
 40 49  1  0  0  0  0
 41 66  1  0  0  0  0
 42 44  1  0  0  0  0
 43 45  1  0  0  0  0
 43 46  1  0  0  0  0
 44 48  1  0  0  0  0
 45 50  1  0  0  0  0
 46 67  1  0  0  0  0
 47 50  1  0  0  0  0
 47 67  1  0  0  0  0
 48 72  1  0  0  0  0
 49 66  1  0  0  0  0
 50 65  1  0  0  0  0
 51 61  1  0  0  0  0
 52 62  1  0  0  0  0
 53 62  1  0  0  0  0
 54 62  1  0  0  0  0
 55 63  1  0  0  0  0
 56 63  1  0  0  0  0
 57 74  1  0  0  0  0
 58 63  1  0  0  0  0
 58 71  1  0  0  0  0
 59 63  1  0  0  0  0
 59 81  1  0  0  0  0
 60 62  1  0  0  0  0
 60 73  1  0  0  0  0
 61 74  1  0  0  0  0
 64 65  1  0  0  0  0
M  CHG  1  74   1
M  ISO  4  38 100  59 101  70 100  81 101
M  END
> <Batch ID>
0150

> <Smiles>
CNC(C)C(=O)NC(C(=O)N1Cc2cc([101O:1][101CH2:1]C(C)(C)CNc3ccc([100NH:0][100C:0](=O)N4CCCC(n5nc(-c6ccc(Oc7ccc(F)cc7F)cc6)c(C(N)=O)c5N)C4)cc3)ccc2CC1C(=O)NC1CCCc2ccccc21)C(C)(C)C

> <Shape>
0.196

> <Color>
0.089

> <Negative vol penalty>
0.000

$$$$

  -OEChem-04052303213D

 82 90  0     1  0  0  0  0  0999 V2000
  -28.4487  -24.0091   18.0003 C   0  0  0  0  0  0  0  0  0  0  0  0
  -27.3698  -24.8835   18.0669 C   0  0  0  0  0  0  0  0  0  0  0  0
  -27.8052  -14.6362   21.3799 C   0  0  0  0  0  0  0  0  0  0  0  0
  -26.0120  -15.0420   19.8125 C   0  0  0  0  0  0  0  0  0  0  0  0
  -29.3805  -23.9778   19.0356 C   0  0  0  0  0  0  0  0  0  0  0  0
  -27.2288  -25.7351   19.1632 C   0  0  0  0  0  0  0  0  0  0  0  0
  -23.6432  -29.0959   18.9358 C   0  0  0  0  0  0  0  0  0  0  0  0
  -27.4891  -13.2777   21.3898 C   0  0  0  0  0  0  0  0  0  0  0  0
  -25.6959  -13.6834   19.8224 C   0  0  0  0  0  0  0  0  0  0  0  0
  -22.2929  -28.7659   19.0444 C   0  0  0  0  0  0  0  0  0  0  0  0
  -24.0496  -11.5232   21.8358 C   0  0  0  0  0  0  0  0  0  0  0  0
  -22.7038  -11.1717   21.9401 C   0  0  0  0  0  0  0  0  0  0  0  0
  -21.5497  -22.3730   19.9909 C   0  0  0  0  0  0  0  0  0  0  0  0
  -20.6012  -23.4219   19.9335 C   0  0  0  0  0  0  0  0  0  0  0  0
  -22.2806  -29.5882   21.3122 C   0  0  0  0  0  0  0  0  0  0  0  0
  -22.8383  -10.0267   19.8170 C   0  0  0  0  0  0  0  0  0  0  0  0
  -27.0666  -15.5184   20.5912 C   0  0  0  0  0  0  0  0  0  0  0  0
  -28.2923  -17.5795   19.7212 C   0  0  0  0  0  0  0  0  0  0  0  0
  -29.2433  -24.8210   20.1506 C   0  0  0  0  0  0  0  0  0  0  0  0
  -24.3261  -29.6653   20.0201 C   0  0  0  0  0  0  0  0  0  0  0  0
  -28.1718  -25.7353   20.2069 C   0  0  0  0  0  0  0  0  0  0  0  0
  -23.6388  -29.9268   21.2140 C   0  0  0  0  0  0  0  0  0  0  0  0
  -26.4345  -12.8013   20.6111 C   0  0  0  0  0  0  0  0  0  0  0  0
  -21.6122  -29.0094   20.2337 C   0  0  0  0  0  0  0  0  0  0  0  0
  -24.7897  -11.1265   20.7220 C   0  0  0  0  0  0  0  0  0  0  0  0
  -22.0982  -10.4234   20.9308 C   0  0  0  0  0  0  0  0  0  0  0  0
  -24.1841  -10.3782   19.7126 C   0  0  0  0  0  0  0  0  0  0  0  0
  -27.3922  -16.9219   20.5810 C   0  0  0  0  0  0  0  0  0  0  0  0
  -28.2446  -18.8945   20.1149 C   0  0  0  0  0  0  0  0  0  0  0  0
  -22.2964  -22.5948   21.1246 C   0  0  0  0  0  0  0  0  0  0  0  0
  -20.8357  -24.2098   21.0364 C   0  0  0  0  0  0  0  0  0  0  0  0
  -29.0992  -17.0491   18.6614 C   0  0  0  0  0  0  0  0  0  0  0  0
  -26.7994  -28.7982   21.8187 C   0  0  0  0  0  0  0  0  0  0  0  0
  -26.4296  -31.7670   23.0723 C   0  0  0  0  0  0  0  0  0  0  0  0
  -24.3717  -34.4223   23.6738 C   0  0  0  0  0  0  0  0  0  0  0  0
  -24.0792  -22.1864   22.8569 C   0  0  0  0  0  0  0  0  0  0  0  0
  -30.2853  -24.7511   21.2390 C   0  0  0  0  0  0  0  0  0  0  0  0
  -25.7759  -30.0401   19.8780 C   0  0  0  0  0  0  0  0  0  0  0  0
  -24.3212  -30.5551   22.4006 C   0  0  0  0  0  0  0  0  0  0  0  0
  -29.8143  -25.3655   22.5532 C   0  0  0  0  0  0  0  0  0  0  0  0
  -27.4170  -21.6243   23.9617 C   0  0  0  0  0  0  0  0  0  0  0  0
  -29.2226  -26.7440   22.3000 C   0  0  0  0  0  0  0  0  0  0  0  0
  -27.8734  -20.4182   23.1375 C   0  0  0  0  0  0  0  0  0  0  0  0
  -25.9450  -21.5175   24.3558 C   0  0  0  0  0  0  0  0  0  0  0  0
  -25.4760  -20.0719   22.4169 C   0  0  0  0  0  0  0  0  0  0  0  0
  -27.9813  -26.6493   21.4039 C   0  0  1  0  0  0  0  0  0  0  0  0
  -26.5006  -30.1420   21.2166 C   0  0  1  0  0  0  0  0  0  0  0  0
  -26.9350  -20.1655   21.9412 C   0  0  2  0  0  0  0  0  0  0  0  0
  -24.3437  -36.6882   24.7520 C   0  0  0  0  0  0  0  0  0  0  0  0
  -26.3068  -30.4537   25.8237 C   0  0  0  0  0  0  0  0  0  0  0  0
  -25.3471  -32.5849   26.7212 C   0  0  0  0  0  0  0  0  0  0  0  0
  -27.6387  -32.5686   25.7358 C   0  0  0  0  0  0  0  0  0  0  0  0
  -17.5057  -27.9112   20.7332 C   0  0  0  0  0  0  0  0  0  0  0  0
  -18.1614  -26.9840   22.9601 C   0  0  0  0  0  0  0  0  0  0  0  0
  -23.7228  -35.7599   21.1148 C   0  0  0  0  0  0  0  0  0  0  0  0
  -19.1155  -26.0042   20.8211 C   0  0  0  0  0  0  0  0  0  0  0  0
  -19.8185  -28.3285   21.6390 C   0  0  0  0  0  0  0  0  0  1  0  0
  -25.6327  -32.3547   24.2119 C   0  0  1  0  0  0  0  0  0  0  0  0
  -24.5631  -35.9132   23.4620 C   0  0  2  0  0  0  0  0  0  0  0  0
  -26.2186  -31.9769   25.6016 C   0  0  0  0  0  0  0  0  0  0  0  0
  -18.6694  -27.3000   21.5411 C   0  0  0  0  0  0  0  0  0  0  0  0
  -26.8151  -17.7508   21.4551 N   0  0  0  0  0  0  0  0  0  0  0  0
  -27.3539  -18.9427   21.1466 N   0  0  0  0  0  0  0  0  0  0  0  0
  -25.7409  -30.8977   22.2146 N   0  0  0  0  0  0  0  0  0  0  0  0
  -25.1160  -21.2825   23.1716 N   0  0  0  0  0  0  0  0  0  0  0  0
  -28.8783  -20.0027   19.6758 N   0  0  0  0  0  0  0  0  0  0  0  0
  -29.0270  -15.6761   18.3897 N   0  0  0  0  0  0  0  0  0  0  0  0
  -23.3799  -21.8782   21.6905 N   0  0  0  0  0  0  0  0  0  0  0  0
  -20.2223  -25.3639   21.4944 N   0  0  0  0  0  0  0  0  0  0  0  0
  -27.5753  -27.9826   21.0174 N   0  0  0  0  0  0  0  0  0  0  0  0
  -25.5627  -33.7906   23.9633 N   0  0  0  0  0  0  0  0  0  0  0  0
  -23.6025  -36.4188   22.4408 N   0  3  0  0  0  0  0  0  0  0  0  0
  -29.8740  -17.7686   17.9864 O   0  0  0  0  0  0  0  0  0  0  0  0
  -26.3597  -28.5223   22.9288 O   0  0  0  0  0  0  0  0  0  0  0  0
  -27.6174  -32.0738   22.9437 O   0  0  0  0  0  0  0  0  0  0  0  0
  -23.2748  -33.8736   23.5945 O   0  0  0  0  0  0  0  0  0  0  0  0
  -23.8479  -23.1770   23.5549 O   0  0  0  0  0  0  0  0  0  0  0  0
  -21.8674  -23.7123   21.7677 O   0  0  0  0  0  0  0  0  0  0  0  0
  -26.1259  -11.4757   20.6203 O   0  0  0  0  0  0  0  0  0  0  0  0
  -20.2944  -28.6877   20.3425 O   0  0  0  0  0  0  0  0  0  1  0  0
  -20.8062  -10.0846   21.0318 F   0  0  0  0  0  0  0  0  0  0  0  0
  -24.8904   -9.9932   18.6408 F   0  0  0  0  0  0  0  0  0  0  0  0
  1  2  1  0  0  0  0
  1  5  2  0  0  0  0
  2  6  2  0  0  0  0
  3  8  2  0  0  0  0
  3 17  1  0  0  0  0
  4  9  1  0  0  0  0
  4 17  2  0  0  0  0
  5 19  1  0  0  0  0
  6 21  1  0  0  0  0
  7 10  2  0  0  0  0
  7 20  1  0  0  0  0
  8 23  1  0  0  0  0
  9 23  2  0  0  0  0
 10 24  1  0  0  0  0
 11 12  2  0  0  0  0
 11 25  1  0  0  0  0
 12 26  1  0  0  0  0
 13 14  1  0  0  0  0
 13 30  2  0  0  0  0
 14 31  2  0  0  0  0
 15 22  1  0  0  0  0
 15 24  2  0  0  0  0
 16 26  2  0  0  0  0
 16 27  1  0  0  0  0
 17 28  1  0  0  0  0
 18 28  1  0  0  0  0
 18 29  2  0  0  0  0
 18 32  1  0  0  0  0
 19 21  2  0  0  0  0
 19 37  1  0  0  0  0
 20 22  2  0  0  0  0
 20 38  1  0  0  0  0
 21 46  1  0  0  0  0
 22 39  1  0  0  0  0
 23 79  1  0  0  0  0
 24 80  1  0  0  0  0
 25 27  2  0  0  0  0
 25 79  1  0  0  0  0
 26 81  1  0  0  0  0
 27 82  1  0  0  0  0
 28 62  2  0  0  0  0
 29 63  1  0  0  0  0
 29 66  1  0  0  0  0
 30 68  1  0  0  0  0
 30 78  1  0  0  0  0
 31 69  1  0  0  0  0
 31 78  1  0  0  0  0
 32 67  1  0  0  0  0
 32 73  2  0  0  0  0
 33 47  1  0  0  0  0
 33 70  1  0  0  0  0
 33 74  2  0  0  0  0
 34 58  1  0  0  0  0
 34 64  1  0  0  0  0
 34 75  2  0  0  0  0
 35 59  1  0  0  0  0
 35 71  1  0  0  0  0
 35 76  2  0  0  0  0
 36 65  1  0  0  0  0
 36 68  1  0  0  0  0
 36 77  2  0  0  0  0
 37 40  1  0  0  0  0
 38 47  1  0  0  0  0
 39 64  1  0  0  0  0
 40 42  1  0  0  0  0
 41 43  1  0  0  0  0
 41 44  1  0  0  0  0
 42 46  1  0  0  0  0
 43 48  1  0  0  0  0
 44 65  1  0  0  0  0
 45 48  1  0  0  0  0
 45 65  1  0  0  0  0
 46 70  1  0  0  0  0
 47 64  1  0  0  0  0
 48 63  1  0  0  0  0
 49 59  1  0  0  0  0
 50 60  1  0  0  0  0
 51 60  1  0  0  0  0
 52 60  1  0  0  0  0
 53 61  1  0  0  0  0
 54 61  1  0  0  0  0
 55 72  1  0  0  0  0
 56 61  1  0  0  0  0
 56 69  1  0  0  0  0
 57 61  1  0  0  0  0
 57 80  1  0  0  0  0
 58 60  1  0  0  0  0
 58 71  1  0  0  0  0
 59 72  1  0  0  0  0
 62 63  1  0  0  0  0
M  CHG  1  72   1
M  ISO  4  36 100  57 101  68 100  80 101
M  END
> <Batch ID>
0150

> <Smiles>
CNC(C)C(=O)NC(C(=O)N1Cc2cc([101O:1][101CH2:1]C(C)(C)CNc3ccc([100NH:0][100C:0](=O)N4CCCC(n5nc(-c6ccc(Oc7ccc(F)cc7F)cc6)c(C(N)=O)c5N)C4)o3)ccc2CC1C(=O)NC1CCCc2ccccc21)C(C)(C)C

> <Shape>
0.306

> <Color>
0.076

> <Negative vol penalty>
0.000

$$$$

  -OEChem-04052303213D

 84 92  0     1  0  0  0  0  0999 V2000
  -28.5517  -38.1504   20.4574 C   0  0  0  0  0  0  0  0  0  0  0  0
  -28.9754  -36.8496   20.2051 C   0  0  0  0  0  0  0  0  0  0  0  0
  -24.2213   -8.5874   21.2177 C   0  0  0  0  0  0  0  0  0  0  0  0
  -25.2217   -9.4475   23.2417 C   0  0  0  0  0  0  0  0  0  0  0  0
  -27.5877  -38.3910   21.4355 C   0  0  0  0  0  0  0  0  0  0  0  0
  -28.4361  -35.7886   20.9315 C   0  0  0  0  0  0  0  0  0  0  0  0
  -27.3283  -30.1198   18.8957 C   0  0  0  0  0  0  0  0  0  0  0  0
  -24.1762   -7.3125   21.7817 C   0  0  0  0  0  0  0  0  0  0  0  0
  -25.1766   -8.1726   23.8057 C   0  0  0  0  0  0  0  0  0  0  0  0
  -28.0433  -28.9278   19.0042 C   0  0  0  0  0  0  0  0  0  0  0  0
  -22.2416   -5.6313   23.9871 C   0  0  0  0  0  0  0  0  0  0  0  0
  -21.0639   -4.8987   23.8399 C   0  0  0  0  0  0  0  0  0  0  0  0
  -26.7071  -28.3073   20.9143 C   0  0  0  0  0  0  0  0  0  0  0  0
  -28.3476  -19.5092   19.8021 C   0  0  0  0  0  0  0  0  0  0  0  0
  -22.2853   -3.1691   22.6764 C   0  0  0  0  0  0  0  0  0  0  0  0
  -24.7441   -9.6550   21.9476 C   0  0  0  0  0  0  0  0  0  0  0  0
  -23.7985  -11.9678   21.4332 C   0  0  0  0  0  0  0  0  0  0  0  0
  -27.0292  -37.3313   22.1676 C   0  0  0  0  0  0  0  0  0  0  0  0
  -26.3029  -30.4200   19.8039 C   0  0  0  0  0  0  0  0  0  0  0  0
  -27.4646  -36.0152   21.9212 C   0  0  0  0  0  0  0  0  0  0  0  0
  -25.9789  -29.5026   20.8137 C   0  0  0  0  0  0  0  0  0  0  0  0
  -27.5751  -18.5096   20.4403 C   0  0  0  0  0  0  0  0  0  0  0  0
  -24.6538   -7.1051   23.0757 C   0  0  0  0  0  0  0  0  0  0  0  0
  -27.7346  -28.0226   20.0154 C   0  0  0  0  0  0  0  0  0  0  0  0
  -23.4412   -5.1329   23.4789 C   0  0  0  0  0  0  0  0  0  0  0  0
  -21.0857   -3.6675   23.1846 C   0  0  0  0  0  0  0  0  0  0  0  0
  -23.4631   -3.9018   22.8235 C   0  0  0  0  0  0  0  0  0  0  0  0
  -24.7914  -10.9721   21.3653 C   0  0  0  0  0  0  0  0  0  0  0  0
  -26.6952  -19.1738   21.2627 C   0  0  0  0  0  0  0  0  0  0  0  0
  -24.3219  -13.0232   20.7271 C   0  0  0  0  0  0  0  0  0  0  0  0
  -27.8844  -20.7130   20.2798 C   0  0  0  0  0  0  0  0  0  0  0  0
  -22.5178  -11.9410   22.0771 C   0  0  0  0  0  0  0  0  0  0  0  0
  -25.6809  -18.7052   22.1461 C   0  0  0  0  0  0  0  0  0  0  0  0
  -25.8050  -32.7140   21.9471 C   0  0  0  0  0  0  0  0  0  0  0  0
  -28.2944  -24.4392   20.1072 C   0  0  0  0  0  0  0  0  0  0  0  0
  -22.9045  -31.2882   22.2236 C   0  0  0  0  0  0  0  0  0  0  0  0
  -21.0145  -28.4704   21.8564 C   0  0  0  0  0  0  0  0  0  0  0  0
  -28.5532  -16.4097   19.4503 C   0  0  0  0  0  0  0  0  0  0  0  0
  -26.0243  -37.6454   23.2476 C   0  0  0  0  0  0  0  0  0  0  0  0
  -25.5234  -31.6979   19.6571 C   0  0  0  0  0  0  0  0  0  0  0  0
  -24.8735  -29.7683   21.8016 C   0  0  0  0  0  0  0  0  0  0  0  0
  -25.2300  -36.4278   23.7132 C   0  0  0  0  0  0  0  0  0  0  0  0
  -28.4007  -13.2898   17.7415 C   0  0  0  0  0  0  0  0  0  0  0  0
  -26.1613  -35.2450   23.9593 C   0  0  0  0  0  0  0  0  0  0  0  0
  -27.3665  -12.4906   18.5375 C   0  0  0  0  0  0  0  0  0  0  0  0
  -29.2614  -14.1664   18.6495 C   0  0  0  0  0  0  0  0  0  0  0  0
  -27.4774  -14.2521   20.3464 C   0  0  0  0  0  0  0  0  0  0  0  0
  -26.8851  -34.8354   22.6710 C   0  0  1  0  0  0  0  0  0  0  0  0
  -24.8418  -32.1340   20.9503 C   0  0  1  0  0  0  0  0  0  0  0  0
  -26.5438  -13.4031   19.4682 C   0  0  2  0  0  0  0  0  0  0  0  0
  -24.8717  -19.7233   22.9237 C   0  0  0  0  0  0  0  0  0  0  0  0
  -18.6854  -27.6020   22.2005 C   0  0  0  0  0  0  0  0  0  0  0  0
  -23.4155  -31.1148   25.2267 C   0  0  0  0  0  0  0  0  0  0  0  0
  -21.5623  -29.4378   25.3746 C   0  0  0  0  0  0  0  0  0  0  0  0
  -21.0817  -31.7602   24.6011 C   0  0  0  0  0  0  0  0  0  0  0  0
  -20.6849  -27.8788   18.9754 C   0  0  0  0  0  0  0  0  0  0  0  0
  -27.6436  -23.1728   20.6218 C   0  0  0  0  0  0  0  0  0  0  0  0
  -27.7381  -25.7348   20.6649 C   0  0  0  0  0  0  0  0  0  1  0  0
  -22.3348  -30.1803   23.0761 C   0  0  1  0  0  0  0  0  0  0  0  0
  -19.6544  -28.2455   21.2209 C   0  0  2  0  0  0  0  0  0  0  0  0
  -22.1207  -30.6189   24.5524 C   0  0  0  0  0  0  0  0  0  0  0  0
  -25.8642  -11.3602   20.6708 N   0  0  0  0  0  0  0  0  0  0  0  0
  -25.5485  -12.6115   20.2957 N   0  0  0  0  0  0  0  0  0  0  0  0
  -24.1445  -31.0344   21.6204 N   0  0  0  0  0  0  0  0  0  0  0  0
  -28.4142  -15.0064   19.4990 N   0  0  0  0  0  0  0  0  0  0  0  0
  -23.8478  -14.2540   20.4392 N   0  0  0  0  0  0  0  0  0  0  0  0
  -22.1369  -10.7773   22.7590 N   0  0  0  0  0  0  0  0  0  0  0  0
  -27.6721  -17.1054   20.2775 N   0  0  0  0  0  0  0  0  0  0  0  0
  -28.2580  -22.0220   20.0109 N   0  0  0  0  0  0  0  0  0  0  0  0
  -26.0005  -34.0755   21.8140 N   0  0  0  0  0  0  0  0  0  0  0  0
  -21.1202  -29.7315   22.4040 N   0  0  0  0  0  0  0  0  0  0  0  0
  -19.7792  -27.3570   20.0310 N   0  3  0  0  0  0  0  0  0  0  0  0
  -21.7274  -12.9142   22.0347 O   0  0  0  0  0  0  0  0  0  0  0  0
  -25.3828  -17.5095   22.3569 O   0  0  0  0  0  0  0  0  0  0  0  0
  -26.3308  -31.9809   22.7764 O   0  0  0  0  0  0  0  0  0  0  0  0
  -29.2143  -24.4298   19.2902 O   0  0  0  0  0  0  0  0  0  0  0  0
  -22.2693  -32.3374   22.0917 O   0  0  0  0  0  0  0  0  0  0  0  0
  -21.8939  -27.6119   21.8693 O   0  0  0  0  0  0  0  0  0  0  0  0
  -29.3735  -16.9552   18.7077 O   0  0  0  0  0  0  0  0  0  0  0  0
  -26.8770  -20.5173   21.1706 O   0  0  0  0  0  0  0  0  0  0  0  0
  -24.6098   -5.8612   23.6265 O   0  0  0  0  0  0  0  0  0  0  0  0
  -28.4313  -26.8587   20.1239 O   0  0  0  0  0  0  0  0  0  1  0  0
  -19.9549   -2.9633   23.0447 F   0  0  0  0  0  0  0  0  0  0  0  0
  -24.6127   -3.4173   22.3342 F   0  0  0  0  0  0  0  0  0  0  0  0
  1  2  1  0  0  0  0
  1  5  2  0  0  0  0
  2  6  2  0  0  0  0
  3  8  2  0  0  0  0
  3 16  1  0  0  0  0
  4  9  1  0  0  0  0
  4 16  2  0  0  0  0
  5 18  1  0  0  0  0
  6 20  1  0  0  0  0
  7 10  2  0  0  0  0
  7 19  1  0  0  0  0
  8 23  1  0  0  0  0
  9 23  2  0  0  0  0
 10 24  1  0  0  0  0
 11 12  2  0  0  0  0
 11 25  1  0  0  0  0
 12 26  1  0  0  0  0
 13 21  1  0  0  0  0
 13 24  2  0  0  0  0
 14 22  1  0  0  0  0
 14 31  2  0  0  0  0
 15 26  2  0  0  0  0
 15 27  1  0  0  0  0
 16 28  1  0  0  0  0
 17 28  1  0  0  0  0
 17 30  2  0  0  0  0
 17 32  1  0  0  0  0
 18 20  2  0  0  0  0
 18 39  1  0  0  0  0
 19 21  2  0  0  0  0
 19 40  1  0  0  0  0
 20 48  1  0  0  0  0
 21 41  1  0  0  0  0
 22 29  2  0  0  0  0
 22 68  1  0  0  0  0
 23 81  1  0  0  0  0
 24 82  1  0  0  0  0
 25 27  2  0  0  0  0
 25 81  1  0  0  0  0
 26 83  1  0  0  0  0
 27 84  1  0  0  0  0
 28 62  2  0  0  0  0
 29 33  1  0  0  0  0
 29 80  1  0  0  0  0
 30 63  1  0  0  0  0
 30 66  1  0  0  0  0
 31 69  1  0  0  0  0
 31 80  1  0  0  0  0
 32 67  1  0  0  0  0
 32 73  2  0  0  0  0
 33 51  1  0  0  0  0
 33 74  2  0  0  0  0
 34 49  1  0  0  0  0
 34 70  1  0  0  0  0
 34 75  2  0  0  0  0
 35 57  1  0  0  0  0
 35 58  1  0  0  0  0
 35 76  2  0  0  0  0
 36 59  1  0  0  0  0
 36 64  1  0  0  0  0
 36 77  2  0  0  0  0
 37 60  1  0  0  0  0
 37 71  1  0  0  0  0
 37 78  2  0  0  0  0
 38 65  1  0  0  0  0
 38 68  1  0  0  0  0
 38 79  2  0  0  0  0
 39 42  1  0  0  0  0
 40 49  1  0  0  0  0
 41 64  1  0  0  0  0
 42 44  1  0  0  0  0
 43 45  1  0  0  0  0
 43 46  1  0  0  0  0
 44 48  1  0  0  0  0
 45 50  1  0  0  0  0
 46 65  1  0  0  0  0
 47 50  1  0  0  0  0
 47 65  1  0  0  0  0
 48 70  1  0  0  0  0
 49 64  1  0  0  0  0
 50 63  1  0  0  0  0
 52 60  1  0  0  0  0
 53 61  1  0  0  0  0
 54 61  1  0  0  0  0
 55 61  1  0  0  0  0
 56 72  1  0  0  0  0
 57 69  1  0  0  0  0
 58 82  1  0  0  0  0
 59 61  1  0  0  0  0
 59 71  1  0  0  0  0
 60 72  1  0  0  0  0
 62 63  1  0  0  0  0
M  CHG  1  72   1
M  ISO  4  38 100  58 101  68 100  82 101
M  END
> <Batch ID>
0150

> <Smiles>
CNC(C)C(=O)NC(C(=O)N1Cc2cc([101O:1][101CH2:1]C(=O)CNc3cc([100NH:0][100C:0](=O)N4CCCC(n5nc(-c6ccc(Oc7ccc(F)cc7F)cc6)c(C(N)=O)c5N)C4)c(C(C)=O)o3)ccc2CC1C(=O)NC1CCCc2ccccc21)C(C)(C)C

> <Shape>
0.312

> <Color>
0.086

> <Negative vol penalty>
0.000

$$$$

  -OEChem-04052303213D

 84 93  0     1  0  0  0  0  0999 V2000
  -30.3457  -24.1818   17.8674 C   0  0  0  0  0  0  0  0  0  0  0  0
  -29.0912  -24.2120   18.4680 C   0  0  0  0  0  0  0  0  0  0  0  0
  -24.4394   -9.3965   21.6278 C   0  0  0  0  0  0  0  0  0  0  0  0
  -22.5316  -10.2644   20.4262 C   0  0  0  0  0  0  0  0  0  0  0  0
  -31.3763  -24.9763   18.3681 C   0  0  0  0  0  0  0  0  0  0  0  0
  -28.8668  -25.0360   19.5703 C   0  0  0  0  0  0  0  0  0  0  0  0
  -24.5000  -27.5788   19.2382 C   0  0  0  0  0  0  0  0  0  0  0  0
  -23.7620   -8.1951   21.8357 C   0  0  0  0  0  0  0  0  0  0  0  0
  -21.8541   -9.0630   20.6340 C   0  0  0  0  0  0  0  0  0  0  0  0
  -23.3313  -26.8782   19.5331 C   0  0  0  0  0  0  0  0  0  0  0  0
  -23.0388   -5.4050   20.0678 C   0  0  0  0  0  0  0  0  0  0  0  0
  -23.7404   -4.2192   19.8503 C   0  0  0  0  0  0  0  0  0  0  0  0
  -21.3222  -19.9200   22.1417 C   0  0  0  0  0  0  0  0  0  0  0  0
  -23.3071  -27.8583   21.7372 C   0  0  0  0  0  0  0  0  0  0  0  0
  -23.3741   -3.5805   22.1514 C   0  0  0  0  0  0  0  0  0  0  0  0
  -19.6484  -19.7335   20.5398 C   0  0  0  0  0  0  0  0  0  0  0  0
  -23.8242  -10.4312   20.9231 C   0  0  0  0  0  0  0  0  0  0  0  0
  -20.2496  -20.5640   21.4598 C   0  0  0  0  0  0  0  0  0  0  0  0
  -25.3568  -12.0024   19.6231 C   0  0  0  0  0  0  0  0  0  0  0  0
  -31.1618  -25.8177   19.4711 C   0  0  0  0  0  0  0  0  0  0  0  0
  -25.0881  -28.4174   20.1960 C   0  0  0  0  0  0  0  0  0  0  0  0
  -29.8959  -25.8415   20.0870 C   0  0  0  0  0  0  0  0  0  0  0  0
  -24.4819  -28.5704   21.4511 C   0  0  0  0  0  0  0  0  0  0  0  0
  -22.4693   -8.0283   21.3388 C   0  0  0  0  0  0  0  0  0  0  0  0
  -22.7362  -27.0156   20.7837 C   0  0  0  0  0  0  0  0  0  0  0  0
  -22.5050   -5.6786   21.3271 C   0  0  0  0  0  0  0  0  0  0  0  0
  -23.9080   -3.3070   20.8921 C   0  0  0  0  0  0  0  0  0  0  0  0
  -22.6726   -4.7664   22.3688 C   0  0  0  0  0  0  0  0  0  0  0  0
  -24.5233  -11.6727   20.7086 C   0  0  0  0  0  0  0  0  0  0  0  0
  -25.7730  -13.2845   19.8867 C   0  0  0  0  0  0  0  0  0  0  0  0
  -21.4998  -18.6215   21.7168 C   0  0  0  0  0  0  0  0  0  0  0  0
  -19.8335  -21.9555   21.7106 C   0  0  0  0  0  0  0  0  0  0  0  0
  -25.7221  -11.2197   18.4787 C   0  0  0  0  0  0  0  0  0  0  0  0
  -27.8805  -28.4770   21.7135 C   0  0  0  0  0  0  0  0  0  0  0  0
  -26.7643  -31.3056   22.8429 C   0  0  0  0  0  0  0  0  0  0  0  0
  -24.0753  -33.2826   23.5553 C   0  0  0  0  0  0  0  0  0  0  0  0
  -23.4341  -17.7598   23.0815 C   0  0  0  0  0  0  0  0  0  0  0  0
  -32.3195  -26.6229   20.0060 C   0  0  0  0  0  0  0  0  0  0  0  0
  -26.3342  -29.1869   19.8531 C   0  0  0  0  0  0  0  0  0  0  0  0
  -25.0622  -29.4738   22.5073 C   0  0  0  0  0  0  0  0  0  0  0  0
  -31.8957  -27.7490   20.9455 C   0  0  0  0  0  0  0  0  0  0  0  0
  -26.6347  -16.2667   23.5334 C   0  0  0  0  0  0  0  0  0  0  0  0
  -30.8792  -27.2411   21.9631 C   0  0  0  0  0  0  0  0  0  0  0  0
  -26.5343  -14.9520   22.7564 C   0  0  0  0  0  0  0  0  0  0  0  0
  -22.5266  -24.1289   20.6940 C   0  0  0  0  0  0  0  0  0  0  0  0
  -25.3197  -16.6169   24.2276 C   0  0  0  0  0  0  0  0  0  0  0  0
  -22.0781  -22.7206   21.0602 C   0  0  0  0  0  0  0  0  0  0  0  0
  -24.0392  -15.3114   22.5768 C   0  0  0  0  0  0  0  0  0  0  0  0
  -20.3762  -24.3557   21.7439 C   0  0  0  0  0  0  0  0  0  0  0  0
  -29.6065  -26.7409   21.2692 C   0  0  1  0  0  0  0  0  0  0  0  0
  -27.1293  -29.6152   21.0826 C   0  0  1  0  0  0  0  0  0  0  0  0
  -25.3201  -14.9496   21.8072 C   0  0  2  0  0  0  0  0  0  0  0  0
  -21.7438  -25.0409   21.6470 C   0  0  1  0  0  0  0  0  0  1  0  0
  -22.4154  -25.1738   23.0124 C   0  0  0  0  0  0  0  0  0  0  0  0
  -23.4769  -35.5267   24.5056 C   0  0  0  0  0  0  0  0  0  0  0  0
  -27.3302  -30.2633   25.6543 C   0  0  0  0  0  0  0  0  0  0  0  0
  -25.8708  -32.0899   26.5498 C   0  0  0  0  0  0  0  0  0  0  0  0
  -27.9451  -32.6594   25.2866 C   0  0  0  0  0  0  0  0  0  0  0  0
  -22.7908  -34.1386   21.0301 C   0  0  0  0  0  0  0  0  0  0  0  0
  -25.9502  -31.7322   24.0405 C   0  0  1  0  0  0  0  0  0  0  0  0
  -23.7847  -34.7391   23.2415 C   0  0  2  0  0  0  0  0  0  0  0  0
  -26.7639  -31.6676   25.3638 C   0  0  0  0  0  0  0  0  0  0  0  0
  -24.4154  -12.6653   21.5959 N   0  0  0  0  0  0  0  0  0  0  0  0
  -25.1866  -13.6312   21.0683 N   0  0  0  0  0  0  0  0  0  0  0  0
  -20.6976  -22.9356   21.5185 N   0  0  0  0  0  0  0  0  0  0  0  0
  -26.2849  -30.2000   22.1263 N   0  0  0  0  0  0  0  0  0  0  0  0
  -24.2152  -16.5994   23.2660 N   0  0  0  0  0  0  0  0  0  0  0  0
  -26.5797  -14.1378   19.2208 N   0  0  0  0  0  0  0  0  0  0  0  0
  -25.2050   -9.9221   18.3639 N   0  0  0  0  0  0  0  0  0  0  0  0
  -22.4338  -17.6344   22.1181 N   0  0  0  0  0  0  0  0  0  0  0  0
  -28.7787  -27.8573   20.8658 N   0  0  0  0  0  0  0  0  0  0  0  0
  -25.4247  -33.0563   23.7262 N   0  0  0  0  0  0  0  0  0  0  0  0
  -18.5942  -22.2023   22.1246 N   0  3  0  0  0  0  0  0  0  0  0  0
  -22.6157  -34.8480   22.3236 N   0  3  0  0  0  0  0  0  0  0  0  0
  -26.4976  -11.6521   17.5926 O   0  0  0  0  0  0  0  0  0  0  0  0
  -27.6625  -28.1838   22.8832 O   0  0  0  0  0  0  0  0  0  0  0  0
  -27.7841  -31.9347   22.5498 O   0  0  0  0  0  0  0  0  0  0  0  0
  -23.1932  -32.4314   23.6438 O   0  0  0  0  0  0  0  0  0  0  0  0
  -23.6551  -18.7976   23.7109 O   0  0  0  0  0  0  0  0  0  0  0  0
  -21.8081   -6.8560   21.5412 O   0  0  0  0  0  0  0  0  0  0  0  0
  -21.5957  -26.3325   21.0743 O   0  0  0  0  0  0  0  0  0  1  0  0
  -24.5804   -2.1676   20.6827 F   0  0  0  0  0  0  0  0  0  0  0  0
  -22.1609   -5.0232   23.5805 F   0  0  0  0  0  0  0  0  0  0  0  0
  -20.3766  -18.1841   20.5006 S   0  0  0  0  0  0  0  0  0  0  0  0
  1  2  1  0  0  0  0
  1  5  2  0  0  0  0
  2  6  2  0  0  0  0
  3  8  2  0  0  0  0
  3 17  1  0  0  0  0
  4  9  1  0  0  0  0
  4 17  2  0  0  0  0
  5 20  1  0  0  0  0
  6 22  1  0  0  0  0
  7 10  2  0  0  0  0
  7 21  1  0  0  0  0
  8 24  1  0  0  0  0
  9 24  2  0  0  0  0
 10 25  1  0  0  0  0
 11 12  2  0  0  0  0
 11 26  1  0  0  0  0
 12 27  1  0  0  0  0
 13 18  1  0  0  0  0
 13 31  2  0  0  0  0
 14 23  1  0  0  0  0
 14 25  2  0  0  0  0
 15 27  2  0  0  0  0
 15 28  1  0  0  0  0
 16 18  2  0  0  0  0
 16 84  1  0  0  0  0
 17 29  1  0  0  0  0
 18 32  1  0  0  0  0
 19 29  1  0  0  0  0
 19 30  2  0  0  0  0
 19 33  1  0  0  0  0
 20 22  2  0  0  0  0
 20 38  1  0  0  0  0
 21 23  2  0  0  0  0
 21 39  1  0  0  0  0
 22 50  1  0  0  0  0
 23 40  1  0  0  0  0
 24 80  1  0  0  0  0
 25 81  1  0  0  0  0
 26 28  2  0  0  0  0
 26 80  1  0  0  0  0
 27 82  1  0  0  0  0
 28 83  1  0  0  0  0
 29 63  2  0  0  0  0
 30 64  1  0  0  0  0
 30 68  1  0  0  0  0
 31 70  1  0  0  0  0
 31 84  1  0  0  0  0
 32 65  1  0  0  0  0
 32 73  2  0  0  0  0
 33 69  1  0  0  0  0
 33 75  2  0  0  0  0
 34 51  1  0  0  0  0
 34 71  1  0  0  0  0
 34 76  2  0  0  0  0
 35 60  1  0  0  0  0
 35 66  1  0  0  0  0
 35 77  2  0  0  0  0
 36 61  1  0  0  0  0
 36 72  1  0  0  0  0
 36 78  2  0  0  0  0
 37 67  1  0  0  0  0
 37 70  1  0  0  0  0
 37 79  2  0  0  0  0
 38 41  1  0  0  0  0
 39 51  1  0  0  0  0
 40 66  1  0  0  0  0
 41 43  1  0  0  0  0
 42 44  1  0  0  0  0
 42 46  1  0  0  0  0
 43 50  1  0  0  0  0
 44 52  1  0  0  0  0
 45 47  1  0  0  0  0
 45 53  1  0  0  0  0
 46 67  1  0  0  0  0
 47 65  1  0  0  0  0
 48 52  1  0  0  0  0
 48 67  1  0  0  0  0
 49 53  1  0  0  0  0
 49 65  1  0  0  0  0
 50 71  1  0  0  0  0
 51 66  1  0  0  0  0
 52 64  1  0  0  0  0
 53 54  1  0  0  0  0
 53 81  1  0  0  0  0
 55 61  1  0  0  0  0
 56 62  1  0  0  0  0
 57 62  1  0  0  0  0
 58 62  1  0  0  0  0
 59 74  1  0  0  0  0
 60 62  1  0  0  0  0
 60 72  1  0  0  0  0
 61 74  1  0  0  0  0
 63 64  1  0  0  0  0
M  CHG  2  73   1  74   1
M  ISO  4  37 100  53 101  70 100  81 101
M  END
> <Batch ID>
0150

> <Smiles>
CNC(C)C(=O)NC(C(=O)N1Cc2cc([101O:1][101C:1]3(C)CCN(C(=N)c4csc([100NH:0][100C:0](=O)N5CCCC(n6nc(-c7ccc(Oc8ccc(F)cc8F)cc7)c(C(N)=O)c6N)C5)c4)C3)ccc2CC1C(=O)NC1CCCc2ccccc21)C(C)(C)C

> <Shape>
0.261

> <Color>
0.100

> <Negative vol penalty>
0.000

$$$$

  -OEChem-04052303213D

 86 95  0     1  0  0  0  0  0999 V2000
  -22.3227  -38.3505   18.0692 C   0  0  0  0  0  0  0  0  0  0  0  0
  -23.4574  -37.5964   17.7878 C   0  0  0  0  0  0  0  0  0  0  0  0
  -22.6876  -10.0268   20.5444 C   0  0  0  0  0  0  0  0  0  0  0  0
  -24.5179   -8.7118   21.4151 C   0  0  0  0  0  0  0  0  0  0  0  0
  -21.8471  -38.4307   19.3774 C   0  0  0  0  0  0  0  0  0  0  0  0
  -24.1178  -36.9228   18.8148 C   0  0  0  0  0  0  0  0  0  0  0  0
  -24.9992  -29.7767   18.5962 C   0  0  0  0  0  0  0  0  0  0  0  0
  -26.0948  -19.2870   20.3286 C   0  0  0  0  0  0  0  0  0  0  0  0
  -26.3351  -17.9131   20.3090 C   0  0  0  0  0  0  0  0  0  0  0  0
  -21.8155   -9.4043   21.4374 C   0  0  0  0  0  0  0  0  0  0  0  0
  -23.6458   -8.0893   22.3082 C   0  0  0  0  0  0  0  0  0  0  0  0
  -25.3926  -28.4402   18.5259 C   0  0  0  0  0  0  0  0  0  0  0  0
  -21.3288   -5.6286   22.2215 C   0  0  0  0  0  0  0  0  0  0  0  0
  -21.4202   -4.2434   22.3574 C   0  0  0  0  0  0  0  0  0  0  0  0
  -26.4216  -28.6172   20.7072 C   0  0  0  0  0  0  0  0  0  0  0  0
  -28.7107  -18.3265   20.4606 C   0  0  0  0  0  0  0  0  0  0  0  0
  -21.9254   -4.5071   24.7053 C   0  0  0  0  0  0  0  0  0  0  0  0
  -24.0388   -9.6805   20.5332 C   0  0  0  0  0  0  0  0  0  0  0  0
  -24.8645  -10.3166   18.2048 C   0  0  0  0  0  0  0  0  0  0  0  0
  -22.4964  -37.7500   20.4193 C   0  0  0  0  0  0  0  0  0  0  0  0
  -25.3025  -30.5352   19.7303 C   0  0  0  0  0  0  0  0  0  0  0  0
  -23.6513  -36.9951   20.1383 C   0  0  0  0  0  0  0  0  0  0  0  0
  -26.0193  -29.9530   20.7886 C   0  0  0  0  0  0  0  0  0  0  0  0
  -28.4704  -19.7004   20.4802 C   0  0  0  0  0  0  0  0  0  0  0  0
  -27.1624  -20.1806   20.4141 C   0  0  0  0  0  0  0  0  0  0  0  0
  -27.6431  -17.4329   20.3751 C   0  0  0  0  0  0  0  0  0  0  0  0
  -22.2946   -8.4356   22.3193 C   0  0  0  0  0  0  0  0  0  0  0  0
  -26.1023  -27.8619   19.5787 C   0  0  0  0  0  0  0  0  0  0  0  0
  -21.5358   -6.4531   23.3275 C   0  0  0  0  0  0  0  0  0  0  0  0
  -21.7184   -3.6827   23.5993 C   0  0  0  0  0  0  0  0  0  0  0  0
  -21.8340   -5.8923   24.5693 C   0  0  0  0  0  0  0  0  0  0  0  0
  -24.9401  -10.3228   19.6105 C   0  0  0  0  0  0  0  0  0  0  0  0
  -25.9437  -11.0633   17.7996 C   0  0  0  0  0  0  0  0  0  0  0  0
  -23.9045   -9.6917   17.3424 C   0  0  0  0  0  0  0  0  0  0  0  0
  -25.0496  -33.8470   21.4751 C   0  0  0  0  0  0  0  0  0  0  0  0
  -24.6049  -31.6825   23.6030 C   0  0  0  0  0  0  0  0  0  0  0  0
  -23.7507  -29.0163   25.5520 C   0  0  0  0  0  0  0  0  0  0  0  0
  -29.1233  -15.3948   20.4136 C   0  0  0  0  0  0  0  0  0  0  0  0
  -21.9726  -37.9049   21.8251 C   0  0  0  0  0  0  0  0  0  0  0  0
  -24.9523  -31.9956   19.8230 C   0  0  0  0  0  0  0  0  0  0  0  0
  -26.3535  -30.8168   21.9739 C   0  0  0  0  0  0  0  0  0  0  0  0
  -22.5127  -36.8574   22.7953 C   0  0  0  0  0  0  0  0  0  0  0  0
  -30.3647  -12.3012   19.1622 C   0  0  0  0  0  0  0  0  0  0  0  0
  -24.0220  -36.7078   22.6335 C   0  0  0  0  0  0  0  0  0  0  0  0
  -29.1069  -11.4443   19.0015 C   0  0  0  0  0  0  0  0  0  0  0  0
  -26.3596  -23.5537   21.7715 C   0  0  0  0  0  0  0  0  0  0  0  0
  -27.1472  -23.7810   19.3985 C   0  0  0  0  0  0  0  0  0  0  0  0
  -30.2857  -13.1986   20.3960 C   0  0  0  0  0  0  0  0  0  0  0  0
  -26.0707  -22.0735   21.5255 C   0  0  0  0  0  0  0  0  0  0  0  0
  -26.8608  -22.2969   19.1673 C   0  0  0  0  0  0  0  0  0  0  0  0
  -27.8234  -13.1774   20.3191 C   0  0  0  0  0  0  0  0  0  0  0  0
  -24.3808  -36.2301   21.2212 C   0  0  1  0  0  0  0  0  0  0  0  0
  -24.5839  -32.4384   21.2503 C   0  0  1  0  0  0  0  0  0  0  0  0
  -27.8287  -12.3041   19.0538 C   0  0  2  0  0  0  0  0  0  0  0  0
  -26.2543  -24.3736   20.4868 C   0  0  0  0  0  0  0  0  0  0  0  0
  -29.6322  -20.6354   20.5709 C   0  0  0  0  0  0  0  0  0  0  0  0
  -23.0673  -28.4266   27.8935 C   0  0  0  0  0  0  0  0  0  0  0  0
  -27.4904  -32.0300   24.5287 C   0  0  0  0  0  0  0  0  0  0  0  0
  -26.9608  -30.5723   26.4940 C   0  0  0  0  0  0  0  0  0  0  0  0
  -25.7669  -32.7421   26.1951 C   0  0  0  0  0  0  0  0  0  0  0  0
  -21.1525  -27.9284   24.6436 C   0  0  0  0  0  0  0  0  0  0  0  0
  -26.5826  -25.8402   20.7361 C   0  0  0  0  0  0  0  0  0  1  0  0
  -25.2212  -30.8059   24.6636 C   0  0  1  0  0  0  0  0  0  0  0  0
  -22.5850  -28.7924   26.4983 C   0  0  2  0  0  0  0  0  0  0  0  0
  -26.3557  -31.5282   25.4438 C   0  0  0  0  0  0  0  0  0  0  0  0
  -25.9848  -11.0182   20.0676 N   0  0  0  0  0  0  0  0  0  0  0  0
  -26.5757  -11.4558   18.9427 N   0  0  0  0  0  0  0  0  0  0  0  0
  -26.9027  -21.5566   20.4318 N   0  0  0  0  0  0  0  0  0  0  0  0
  -25.1936  -31.6477   22.3330 N   0  0  0  0  0  0  0  0  0  0  0  0
  -29.0512  -13.9862   20.3753 N   0  0  0  0  0  0  0  0  0  0  0  0
  -26.4042  -11.4158   16.5806 N   0  0  0  0  0  0  0  0  0  0  0  0
  -22.8588   -8.9622   17.9242 N   0  0  0  0  0  0  0  0  0  0  0  0
  -27.8869  -16.0372   20.3558 N   0  0  0  0  0  0  0  0  0  0  0  0
  -24.1359  -34.8097   21.0907 N   0  0  0  0  0  0  0  0  0  0  0  0
  -24.1202  -30.3438   25.5017 N   0  0  0  0  0  0  0  0  0  0  0  0
  -21.7155  -27.6905   25.9977 N   0  3  0  0  0  0  0  0  0  0  0  0
  -23.9814   -9.7641   16.0925 O   0  0  0  0  0  0  0  0  0  0  0  0
  -26.1558  -34.0470   21.9629 O   0  0  0  0  0  0  0  0  0  0  0  0
  -23.6315  -32.3844   23.8913 O   0  0  0  0  0  0  0  0  0  0  0  0
  -24.2828  -28.1041   24.9232 O   0  0  0  0  0  0  0  0  0  0  0  0
  -30.2037  -15.9882   20.4645 O   0  0  0  0  0  0  0  0  0  0  0  0
  -21.4439   -7.8281   23.1911 O   0  0  0  0  0  0  0  0  0  0  0  0
  -26.4793  -26.5553   19.5055 O   0  0  0  0  0  0  0  0  0  1  0  0
  -21.8046   -2.3524   23.7300 F   0  0  0  0  0  0  0  0  0  0  0  0
  -22.0327   -6.6792   25.6357 F   0  0  0  0  0  0  0  0  0  0  0  0
  -24.9607  -24.3145   20.0516 F   0  0  0  0  0  0  0  0  0  0  0  0
  1  2  1  0  0  0  0
  1  5  2  0  0  0  0
  2  6  2  0  0  0  0
  3 10  2  0  0  0  0
  3 18  1  0  0  0  0
  4 11  1  0  0  0  0
  4 18  2  0  0  0  0
  5 20  1  0  0  0  0
  6 22  1  0  0  0  0
  7 12  2  0  0  0  0
  7 21  1  0  0  0  0
  8  9  2  0  0  0  0
  8 25  1  0  0  0  0
  9 26  1  0  0  0  0
 10 27  1  0  0  0  0
 11 27  2  0  0  0  0
 12 28  1  0  0  0  0
 13 14  2  0  0  0  0
 13 29  1  0  0  0  0
 14 30  1  0  0  0  0
 15 23  1  0  0  0  0
 15 28  2  0  0  0  0
 16 24  1  0  0  0  0
 16 26  2  0  0  0  0
 17 30  2  0  0  0  0
 17 31  1  0  0  0  0
 18 32  1  0  0  0  0
 19 32  1  0  0  0  0
 19 33  2  0  0  0  0
 19 34  1  0  0  0  0
 20 22  2  0  0  0  0
 20 39  1  0  0  0  0
 21 23  2  0  0  0  0
 21 40  1  0  0  0  0
 22 52  1  0  0  0  0
 23 41  1  0  0  0  0
 24 25  2  0  0  0  0
 24 56  1  0  0  0  0
 25 68  1  0  0  0  0
 26 73  1  0  0  0  0
 27 82  1  0  0  0  0
 28 83  1  0  0  0  0
 29 31  2  0  0  0  0
 29 82  1  0  0  0  0
 30 84  1  0  0  0  0
 31 85  1  0  0  0  0
 32 66  2  0  0  0  0
 33 67  1  0  0  0  0
 33 71  1  0  0  0  0
 34 72  1  0  0  0  0
 34 77  2  0  0  0  0
 35 53  1  0  0  0  0
 35 74  1  0  0  0  0
 35 78  2  0  0  0  0
 36 63  1  0  0  0  0
 36 69  1  0  0  0  0
 36 79  2  0  0  0  0
 37 64  1  0  0  0  0
 37 75  1  0  0  0  0
 37 80  2  0  0  0  0
 38 70  1  0  0  0  0
 38 73  1  0  0  0  0
 38 81  2  0  0  0  0
 39 42  1  0  0  0  0
 40 53  1  0  0  0  0
 41 69  1  0  0  0  0
 42 44  1  0  0  0  0
 43 45  1  0  0  0  0
 43 48  1  0  0  0  0
 44 52  1  0  0  0  0
 45 54  1  0  0  0  0
 46 49  1  0  0  0  0
 46 55  1  0  0  0  0
 47 50  1  0  0  0  0
 47 55  1  0  0  0  0
 48 70  1  0  0  0  0
 49 68  1  0  0  0  0
 50 68  1  0  0  0  0
 51 54  1  0  0  0  0
 51 70  1  0  0  0  0
 52 74  1  0  0  0  0
 53 69  1  0  0  0  0
 54 67  1  0  0  0  0
 55 62  1  0  0  0  0
 55 86  1  0  0  0  0
 57 64  1  0  0  0  0
 58 65  1  0  0  0  0
 59 65  1  0  0  0  0
 60 65  1  0  0  0  0
 61 76  1  0  0  0  0
 62 83  1  0  0  0  0
 63 65  1  0  0  0  0
 63 75  1  0  0  0  0
 64 76  1  0  0  0  0
 66 67  1  0  0  0  0
M  CHG  1  76   1
M  ISO  4  38 100  62 101  73 100  83 101
M  END
> <Batch ID>
0150

> <Smiles>
CNC(C)C(=O)NC(C(=O)N1Cc2cc([101O:1][101CH2:1]C3(F)CCN(c4ccc([100NH:0][100C:0](=O)N5CCCC(n6nc(-c7ccc(Oc8ccc(F)cc8F)cc7)c(C(N)=O)c6N)C5)cc4C)CC3)ccc2CC1C(=O)NC1CCCc2ccccc21)C(C)(C)C

> <Shape>
0.283

> <Color>
0.124

> <Negative vol penalty>
0.000

$$$$

  -OEChem-04052303213D

 82 90  0     1  0  0  0  0  0999 V2000
  -23.0648  -35.6904   20.9109 C   0  0  0  0  0  0  0  0  0  0  0  0
  -23.4341  -34.9641   19.7832 C   0  0  0  0  0  0  0  0  0  0  0  0
  -22.6573  -10.8084   21.1050 C   0  0  0  0  0  0  0  0  0  0  0  0
  -24.5327   -9.4653   21.8234 C   0  0  0  0  0  0  0  0  0  0  0  0
  -23.7580  -35.5170   22.1081 C   0  0  0  0  0  0  0  0  0  0  0  0
  -24.4976  -34.0648   19.8518 C   0  0  0  0  0  0  0  0  0  0  0  0
  -24.7160  -26.4395   18.1686 C   0  0  0  0  0  0  0  0  0  0  0  0
  -21.7946   -9.9993   21.8444 C   0  0  0  0  0  0  0  0  0  0  0  0
  -23.6700   -8.6561   22.5628 C   0  0  0  0  0  0  0  0  0  0  0  0
  -24.8403  -25.0548   18.0533 C   0  0  0  0  0  0  0  0  0  0  0  0
  -21.5081   -6.1251   21.9704 C   0  0  0  0  0  0  0  0  0  0  0  0
  -21.6774   -4.7436   21.8787 C   0  0  0  0  0  0  0  0  0  0  0  0
  -26.6515  -25.0731   19.6555 C   0  0  0  0  0  0  0  0  0  0  0  0
  -22.0873   -4.6360   24.2572 C   0  0  0  0  0  0  0  0  0  0  0  0
  -24.0264  -10.5414   21.0945 C   0  0  0  0  0  0  0  0  0  0  0  0
  -24.8898  -11.6023   18.9412 C   0  0  0  0  0  0  0  0  0  0  0  0
  -24.8243  -34.6080   22.1940 C   0  0  0  0  0  0  0  0  0  0  0  0
  -25.5498  -27.1452   19.0404 C   0  0  0  0  0  0  0  0  0  0  0  0
  -25.2065  -33.8801   21.0510 C   0  0  0  0  0  0  0  0  0  0  0  0
  -26.5234  -26.4587   19.7845 C   0  0  0  0  0  0  0  0  0  0  0  0
  -22.3009   -8.9232   22.5733 C   0  0  0  0  0  0  0  0  0  0  0  0
  -25.8058  -24.3734   18.7947 C   0  0  0  0  0  0  0  0  0  0  0  0
  -21.6285   -6.7621   23.2055 C   0  0  0  0  0  0  0  0  0  0  0  0
  -21.9670   -3.9990   23.0221 C   0  0  0  0  0  0  0  0  0  0  0  0
  -21.9181   -6.0175   24.3489 C   0  0  0  0  0  0  0  0  0  0  0  0
  -24.9180  -11.3765   20.3305 C   0  0  0  0  0  0  0  0  0  0  0  0
  -25.9355  -12.4629   18.7120 C   0  0  0  0  0  0  0  0  0  0  0  0
  -29.1350  -20.6106   20.8133 C   0  0  0  0  0  0  0  0  0  0  0  0
  -23.9981  -11.0809   17.9469 C   0  0  0  0  0  0  0  0  0  0  0  0
  -26.5092  -30.4671   20.4967 C   0  0  0  0  0  0  0  0  0  0  0  0
  -27.9057  -22.2558   19.8178 C   0  0  0  0  0  0  0  0  0  0  0  0
  -26.6013  -28.4296   22.7881 C   0  0  0  0  0  0  0  0  0  0  0  0
  -26.1747  -25.9660   25.1089 C   0  0  0  0  0  0  0  0  0  0  0  0
  -28.7950  -16.9000   19.9051 C   0  0  0  0  0  0  0  0  0  0  0  0
  -25.5740  -34.4894   23.4973 C   0  0  0  0  0  0  0  0  0  0  0  0
  -25.4926  -28.6447   19.1506 C   0  0  0  0  0  0  0  0  0  0  0  0
  -27.4215  -27.2634   20.6839 C   0  0  0  0  0  0  0  0  0  0  0  0
  -29.7536  -19.8674   21.9656 C   0  0  0  0  0  0  0  0  0  0  0  0
  -26.4487  -33.2415   23.5855 C   0  0  0  0  0  0  0  0  0  0  0  0
  -29.7155  -13.9472   21.7029 C   0  0  0  0  0  0  0  0  0  0  0  0
  -27.2584  -33.0655   22.3048 C   0  0  0  0  0  0  0  0  0  0  0  0
  -28.5235  -13.0373   21.4166 C   0  0  0  0  0  0  0  0  0  0  0  0
  -29.6065  -18.3549   21.8137 C   0  0  0  0  0  0  0  0  0  0  0  0
  -29.2989  -15.4070   21.8942 C   0  0  0  0  0  0  0  0  0  0  0  0
  -27.2861  -15.0289   20.4968 C   0  0  0  0  0  0  0  0  0  0  0  0
  -30.1579  -18.9178   19.4894 C   0  0  0  0  0  0  0  0  0  0  0  0
  -26.3388  -32.8769   21.0923 C   0  0  1  0  0  0  0  0  0  0  0  0
  -25.7822  -29.1568   20.5730 C   0  0  1  0  0  0  0  0  0  0  0  0
  -27.7004  -13.5741   20.2341 C   0  0  2  0  0  0  0  0  0  0  0  0
  -26.1343  -20.0456   18.6487 C   0  0  0  0  0  0  0  0  0  0  0  0
  -26.3755  -25.5228   27.5707 C   0  0  0  0  0  0  0  0  0  0  0  0
  -29.6357  -28.2876   22.5113 C   0  0  0  0  0  0  0  0  0  0  0  0
  -29.6960  -26.9595   24.6328 C   0  0  0  0  0  0  0  0  0  0  0  0
  -28.8292  -29.2985   24.6519 C   0  0  0  0  0  0  0  0  0  0  0  0
  -23.2942  -25.3297   25.3471 C   0  0  0  0  0  0  0  0  0  0  0  0
  -25.7504  -20.9109   19.8439 C   0  0  0  0  0  0  0  0  0  0  0  0
  -26.3801  -22.3058   19.8212 C   0  0  2  0  0  0  0  0  0  1  0  0
  -27.4393  -27.4702   23.5948 C   0  0  1  0  0  0  0  0  0  0  0  0
  -25.4504  -25.9531   26.4430 C   0  0  2  0  0  0  0  0  0  0  0  0
  -28.8845  -27.9951   23.8255 C   0  0  0  0  0  0  0  0  0  0  0  0
  -25.9036  -12.0399   20.9408 N   0  0  0  0  0  0  0  0  0  0  0  0
  -28.4138  -21.6705   20.9581 N   0  0  0  0  0  0  0  0  0  0  0  0
  -26.5045  -12.6910   19.9303 N   0  0  0  0  0  0  0  0  0  0  0  0
  -26.6358  -28.2833   21.3960 N   0  0  0  0  0  0  0  0  0  0  0  0
  -28.4494  -15.8695   20.7905 N   0  0  0  0  0  0  0  0  0  0  0  0
  -29.5973  -17.9384   20.4081 N   0  0  0  0  0  0  0  0  0  0  0  0
  -26.4146  -13.0391   17.5891 N   0  0  0  0  0  0  0  0  0  0  0  0
  -24.3352   -9.8777   17.3122 N   0  0  0  0  0  0  0  0  0  0  0  0
  -25.8204  -31.5262   21.0564 N   0  0  0  0  0  0  0  0  0  0  0  0
  -26.6948  -27.2104   24.8222 N   0  0  0  0  0  0  0  0  0  0  0  0
  -24.2963  -25.0114   26.3966 N   0  3  0  0  0  0  0  0  0  0  0  0
  -22.9421  -11.6732   17.6189 O   0  0  0  0  0  0  0  0  0  0  0  0
  -27.6149  -30.5148   19.9704 O   0  0  0  0  0  0  0  0  0  0  0  0
  -28.5570  -22.7312   18.8890 O   0  0  0  0  0  0  0  0  0  0  0  0
  -25.9377  -29.2899   23.3735 O   0  0  0  0  0  0  0  0  0  0  0  0
  -26.2726  -24.9708   24.3944 O   0  0  0  0  0  0  0  0  0  0  0  0
  -28.3829  -16.9080   18.7380 O   0  0  0  0  0  0  0  0  0  0  0  0
  -29.3998  -20.1375   19.5734 O   0  0  0  0  0  0  0  0  0  0  0  0
  -21.4594   -8.1336   23.2950 O   0  0  0  0  0  0  0  0  0  0  0  0
  -25.9197  -23.0097   18.6797 O   0  0  0  0  0  0  0  0  0  1  0  0
  -22.1279   -2.6722   22.9341 F   0  0  0  0  0  0  0  0  0  0  0  0
  -22.0338   -6.6237   25.5384 F   0  0  0  0  0  0  0  0  0  0  0  0
  1  2  1  0  0  0  0
  1  5  2  0  0  0  0
  2  6  2  0  0  0  0
  3  8  2  0  0  0  0
  3 15  1  0  0  0  0
  4  9  1  0  0  0  0
  4 15  2  0  0  0  0
  5 17  1  0  0  0  0
  6 19  1  0  0  0  0
  7 10  2  0  0  0  0
  7 18  1  0  0  0  0
  8 21  1  0  0  0  0
  9 21  2  0  0  0  0
 10 22  1  0  0  0  0
 11 12  2  0  0  0  0
 11 23  1  0  0  0  0
 12 24  1  0  0  0  0
 13 20  1  0  0  0  0
 13 22  2  0  0  0  0
 14 24  2  0  0  0  0
 14 25  1  0  0  0  0
 15 26  1  0  0  0  0
 16 26  1  0  0  0  0
 16 27  2  0  0  0  0
 16 29  1  0  0  0  0
 17 19  2  0  0  0  0
 17 35  1  0  0  0  0
 18 20  2  0  0  0  0
 18 36  1  0  0  0  0
 19 47  1  0  0  0  0
 20 37  1  0  0  0  0
 21 79  1  0  0  0  0
 22 80  1  0  0  0  0
 23 25  2  0  0  0  0
 23 79  1  0  0  0  0
 24 81  1  0  0  0  0
 25 82  1  0  0  0  0
 26 61  2  0  0  0  0
 27 63  1  0  0  0  0
 27 67  1  0  0  0  0
 28 38  1  0  0  0  0
 28 62  2  0  0  0  0
 28 78  1  0  0  0  0
 29 68  1  0  0  0  0
 29 72  2  0  0  0  0
 30 48  1  0  0  0  0
 30 69  1  0  0  0  0
 30 73  2  0  0  0  0
 31 57  1  0  0  0  0
 31 62  1  0  0  0  0
 31 74  2  0  0  0  0
 32 58  1  0  0  0  0
 32 64  1  0  0  0  0
 32 75  2  0  0  0  0
 33 59  1  0  0  0  0
 33 70  1  0  0  0  0
 33 76  2  0  0  0  0
 34 65  1  0  0  0  0
 34 66  1  0  0  0  0
 34 77  2  0  0  0  0
 35 39  1  0  0  0  0
 36 48  1  0  0  0  0
 37 64  1  0  0  0  0
 38 43  1  0  0  0  0
 39 41  1  0  0  0  0
 40 42  1  0  0  0  0
 40 44  1  0  0  0  0
 41 47  1  0  0  0  0
 42 49  1  0  0  0  0
 43 66  1  0  0  0  0
 44 65  1  0  0  0  0
 45 49  1  0  0  0  0
 45 65  1  0  0  0  0
 46 66  1  0  0  0  0
 46 78  1  0  0  0  0
 47 69  1  0  0  0  0
 48 64  1  0  0  0  0
 49 63  1  0  0  0  0
 50 56  1  0  0  0  0
 51 59  1  0  0  0  0
 52 60  1  0  0  0  0
 53 60  1  0  0  0  0
 54 60  1  0  0  0  0
 55 71  1  0  0  0  0
 56 57  1  0  0  0  0
 57 80  1  0  0  0  0
 58 60  1  0  0  0  0
 58 70  1  0  0  0  0
 59 71  1  0  0  0  0
 61 63  1  0  0  0  0
M  CHG  1  71   1
M  ISO  4  34 100  57 101  66 100  80 101
M  END
> <Batch ID>
0150

> <Smiles>
CC[101CH:1](C(=O)NC1=CC[100N:0]([100C:0](=O)N2CCCC(n3nc(-c4ccc(Oc5ccc(F)cc5F)cc4)c(C(N)=O)c3N)C2)CO1)[101O:1]c1ccc2c(c1)CN(C(=O)C(NC(=O)C(C)NC)C(C)(C)C)C(C(=O)NC1CCCc3ccccc31)C2

> <Shape>
0.262

> <Color>
0.075

> <Negative vol penalty>
0.000

$$$$

  -OEChem-04052303213D

 87 95  0     1  0  0  0  0  0999 V2000
  -18.2965  -29.9310   18.9044 C   0  0  0  0  0  0  0  0  0  0  0  0
  -19.6545  -29.7178   18.6905 C   0  0  0  0  0  0  0  0  0  0  0  0
  -24.5901   -9.5944   21.6794 C   0  0  0  0  0  0  0  0  0  0  0  0
  -24.6323  -10.8607   23.7365 C   0  0  0  0  0  0  0  0  0  0  0  0
  -17.8365  -30.2646   20.1776 C   0  0  0  0  0  0  0  0  0  0  0  0
  -20.5535  -29.8393   19.7495 C   0  0  0  0  0  0  0  0  0  0  0  0
  -23.9247  -26.0626   19.8787 C   0  0  0  0  0  0  0  0  0  0  0  0
  -24.2798   -8.4392   22.3968 C   0  0  0  0  0  0  0  0  0  0  0  0
  -24.3220   -9.7055   24.4540 C   0  0  0  0  0  0  0  0  0  0  0  0
  -24.9875  -26.1267   18.9786 C   0  0  0  0  0  0  0  0  0  0  0  0
  -23.1212   -5.2292   23.6494 C   0  0  0  0  0  0  0  0  0  0  0  0
  -22.1115   -4.4069   23.1494 C   0  0  0  0  0  0  0  0  0  0  0  0
  -26.4146  -26.9666   20.7327 C   0  0  0  0  0  0  0  0  0  0  0  0
  -29.1383  -20.3257   20.1577 C   0  0  0  0  0  0  0  0  0  0  0  0
  -20.5373   -6.2309   23.3286 C   0  0  0  0  0  0  0  0  0  0  0  0
  -27.0000  -20.1378   20.8094 C   0  0  0  0  0  0  0  0  0  0  0  0
  -24.7665  -10.8051   22.3492 C   0  0  0  0  0  0  0  0  0  0  0  0
  -24.1834  -12.9258   21.0567 C   0  0  0  0  0  0  0  0  0  0  0  0
  -18.7291  -30.3807   21.2548 C   0  0  0  0  0  0  0  0  0  0  0  0
  -24.0964  -26.4610   21.2122 C   0  0  0  0  0  0  0  0  0  0  0  0
  -20.1052  -30.1761   21.0380 C   0  0  0  0  0  0  0  0  0  0  0  0
  -25.3531  -26.9042   21.6484 C   0  0  0  0  0  0  0  0  0  0  0  0
  -28.1474  -19.4142   20.5760 C   0  0  0  0  0  0  0  0  0  0  0  0
  -24.1457   -8.4947   23.7841 C   0  0  0  0  0  0  0  0  0  0  0  0
  -26.2319  -26.5815   19.4048 C   0  0  0  0  0  0  0  0  0  0  0  0
  -22.8389   -6.5524   23.9890 C   0  0  0  0  0  0  0  0  0  0  0  0
  -20.8196   -4.9078   22.9890 C   0  0  0  0  0  0  0  0  0  0  0  0
  -21.5470   -7.0532   23.8286 C   0  0  0  0  0  0  0  0  0  0  0  0
  -25.0876  -11.9987   21.6087 C   0  0  0  0  0  0  0  0  0  0  0  0
  -28.5667  -21.5790   20.1489 C   0  0  0  0  0  0  0  0  0  0  0  0
  -24.9819  -13.8705   20.4598 C   0  0  0  0  0  0  0  0  0  0  0  0
  -22.7499  -12.9325   21.0815 C   0  0  0  0  0  0  0  0  0  0  0  0
  -29.3079  -22.7962   19.7620 C   0  0  0  0  0  0  0  0  0  0  0  0
  -22.8346  -28.7199   23.0585 C   0  0  0  0  0  0  0  0  0  0  0  0
  -26.3029  -22.5012   20.6808 C   0  0  0  0  0  0  0  0  0  0  0  0
  -24.5615  -27.2450   25.3747 C   0  0  0  0  0  0  0  0  0  0  0  0
  -27.2234  -25.2713   26.1908 C   0  0  0  0  0  0  0  0  0  0  0  0
  -29.4156  -17.2384   20.5130 C   0  0  0  0  0  0  0  0  0  0  0  0
  -18.1907  -30.7898   22.6029 C   0  0  0  0  0  0  0  0  0  0  0  0
  -22.9470  -26.3606   22.1772 C   0  0  0  0  0  0  0  0  0  0  0  0
  -25.5948  -27.3243   23.0744 C   0  0  0  0  0  0  0  0  0  0  0  0
  -19.1630  -30.5314   23.7511 C   0  0  0  0  0  0  0  0  0  0  0  0
  -29.9558  -13.8620   19.5205 C   0  0  0  0  0  0  0  0  0  0  0  0
  -20.5607  -31.0227   23.3878 C   0  0  0  0  0  0  0  0  0  0  0  0
  -28.6631  -13.1525   19.9299 C   0  0  0  0  0  0  0  0  0  0  0  0
  -30.3557  -14.9382   20.5282 C   0  0  0  0  0  0  0  0  0  0  0  0
  -28.0150  -15.2098   21.2469 C   0  0  0  0  0  0  0  0  0  0  0  0
  -21.1085  -30.2742   22.1666 C   0  0  1  0  0  0  0  0  0  0  0  0
  -23.1002  -27.2778   23.3865 C   0  0  1  0  0  0  0  0  0  0  0  0
  -27.5369  -14.1614   20.2290 C   0  0  2  0  0  0  0  0  0  0  0  0
  -24.8758  -22.1108   20.4439 C   0  0  0  0  0  0  0  0  0  0  0  0
  -28.4008  -24.2707   28.1681 C   0  0  0  0  0  0  0  0  0  0  0  0
  -25.7870  -29.9642   26.0180 C   0  0  0  0  0  0  0  0  0  0  0  0
  -27.5856  -28.7747   27.2902 C   0  0  0  0  0  0  0  0  0  0  0  0
  -25.2080  -28.5811   28.0196 C   0  0  0  0  0  0  0  0  0  0  0  0
  -29.4664  -26.6056   16.5973 C   0  0  0  0  0  0  0  0  0  0  0  0
  -28.6814  -24.3400   15.8847 C   0  0  0  0  0  0  0  0  0  0  0  0
  -26.7291  -22.5138   25.2364 C   0  0  0  0  0  0  0  0  0  0  0  0
  -29.5110  -24.7309   18.2414 C   0  0  0  0  0  0  0  0  0  0  0  0
  -27.2810  -25.6967   17.4625 C   0  0  0  0  0  0  0  0  0  1  0  0
  -25.9615  -27.3901   25.9206 C   0  0  1  0  0  0  0  0  0  0  0  0
  -27.3388  -24.0611   27.1000 C   0  0  2  0  0  0  0  0  0  0  0  0
  -26.1308  -28.6715   26.7847 C   0  0  0  0  0  0  0  0  0  0  0  0
  -28.7265  -25.3344   17.0585 C   0  0  0  0  0  0  0  0  0  0  0  0
  -26.3630  -12.3248   21.3823 N   0  0  0  0  0  0  0  0  0  0  0  0
  -27.2480  -21.4742   20.5490 N   0  0  0  0  0  0  0  0  0  0  0  0
  -26.2658  -13.4674   20.6815 N   0  0  0  0  0  0  0  0  0  0  0  0
  -24.4380  -27.2140   23.9784 N   0  0  0  0  0  0  0  0  0  0  0  0
  -29.2412  -15.8600   20.7587 N   0  0  0  0  0  0  0  0  0  0  0  0
  -24.7040  -14.9984   19.7720 N   0  0  0  0  0  0  0  0  0  0  0  0
  -22.0881  -11.8861   21.7384 N   0  0  0  0  0  0  0  0  0  0  0  0
  -30.3875  -23.1261   20.4709 N   0  0  0  0  0  0  0  0  0  0  0  0
  -28.2773  -18.0123   20.7362 N   0  0  0  0  0  0  0  0  0  0  0  0
  -21.5729  -28.9575   22.5474 N   0  0  0  0  0  0  0  0  0  0  0  0
  -26.2541  -26.1487   26.6290 N   0  0  0  0  0  0  0  0  0  0  0  0
  -28.8599  -23.5091   18.7220 N   0  3  0  0  0  0  0  0  0  0  0  0
  -27.7005  -22.8513   26.3085 N   0  3  0  0  0  0  0  0  0  0  0  0
  -22.0755  -13.8308   20.5232 O   0  0  0  0  0  0  0  0  0  0  0  0
  -23.7090  -29.5554   23.2560 O   0  0  0  0  0  0  0  0  0  0  0  0
  -26.6809  -23.6268   20.9742 O   0  0  0  0  0  0  0  0  0  0  0  0
  -23.6132  -27.1550   26.1584 O   0  0  0  0  0  0  0  0  0  0  0  0
  -27.9256  -25.4249   25.1939 O   0  0  0  0  0  0  0  0  0  0  0  0
  -30.4873  -17.6946   20.1064 O   0  0  0  0  0  0  0  0  0  0  0  0
  -23.8426   -7.3677   24.4845 O   0  0  0  0  0  0  0  0  0  0  0  0
  -27.2708  -26.6457   18.5282 O   0  0  0  0  0  0  0  0  0  1  0  0
  -19.8504   -4.1185   22.5074 F   0  0  0  0  0  0  0  0  0  0  0  0
  -21.2701   -8.3239   24.1520 F   0  0  0  0  0  0  0  0  0  0  0  0
  1  2  1  0  0  0  0
  1  5  2  0  0  0  0
  2  6  2  0  0  0  0
  3  8  2  0  0  0  0
  3 17  1  0  0  0  0
  4  9  1  0  0  0  0
  4 17  2  0  0  0  0
  5 19  1  0  0  0  0
  6 21  1  0  0  0  0
  7 10  2  0  0  0  0
  7 20  1  0  0  0  0
  8 24  1  0  0  0  0
  9 24  2  0  0  0  0
 10 25  1  0  0  0  0
 11 12  2  0  0  0  0
 11 26  1  0  0  0  0
 12 27  1  0  0  0  0
 13 22  1  0  0  0  0
 13 25  2  0  0  0  0
 14 23  1  0  0  0  0
 14 30  2  0  0  0  0
 15 27  2  0  0  0  0
 15 28  1  0  0  0  0
 16 23  2  0  0  0  0
 16 66  1  0  0  0  0
 17 29  1  0  0  0  0
 18 29  1  0  0  0  0
 18 31  2  0  0  0  0
 18 32  1  0  0  0  0
 19 21  2  0  0  0  0
 19 39  1  0  0  0  0
 20 22  2  0  0  0  0
 20 40  1  0  0  0  0
 21 48  1  0  0  0  0
 22 41  1  0  0  0  0
 23 73  1  0  0  0  0
 24 84  1  0  0  0  0
 25 85  1  0  0  0  0
 26 28  2  0  0  0  0
 26 84  1  0  0  0  0
 27 86  1  0  0  0  0
 28 87  1  0  0  0  0
 29 65  2  0  0  0  0
 30 33  1  0  0  0  0
 30 66  1  0  0  0  0
 31 67  1  0  0  0  0
 31 70  1  0  0  0  0
 32 71  1  0  0  0  0
 32 78  2  0  0  0  0
 33 72  1  0  0  0  0
 33 76  2  0  0  0  0
 34 49  1  0  0  0  0
 34 74  1  0  0  0  0
 34 79  2  0  0  0  0
 35 51  1  0  0  0  0
 35 66  1  0  0  0  0
 35 80  2  0  0  0  0
 36 61  1  0  0  0  0
 36 68  1  0  0  0  0
 36 81  2  0  0  0  0
 37 62  1  0  0  0  0
 37 75  1  0  0  0  0
 37 82  2  0  0  0  0
 38 69  1  0  0  0  0
 38 73  1  0  0  0  0
 38 83  2  0  0  0  0
 39 42  1  0  0  0  0
 40 49  1  0  0  0  0
 41 68  1  0  0  0  0
 42 44  1  0  0  0  0
 43 45  1  0  0  0  0
 43 46  1  0  0  0  0
 44 48  1  0  0  0  0
 45 50  1  0  0  0  0
 46 69  1  0  0  0  0
 47 50  1  0  0  0  0
 47 69  1  0  0  0  0
 48 74  1  0  0  0  0
 49 68  1  0  0  0  0
 50 67  1  0  0  0  0
 52 62  1  0  0  0  0
 53 63  1  0  0  0  0
 54 63  1  0  0  0  0
 55 63  1  0  0  0  0
 56 64  1  0  0  0  0
 57 64  1  0  0  0  0
 58 77  1  0  0  0  0
 59 64  1  0  0  0  0
 59 76  1  0  0  0  0
 60 64  1  0  0  0  0
 60 85  1  0  0  0  0
 61 63  1  0  0  0  0
 61 75  1  0  0  0  0
 62 77  1  0  0  0  0
 65 67  1  0  0  0  0
M  CHG  2  76   1  77   1
M  ISO  4  38 100  60 101  73 100  85 101
M  END
> <Batch ID>
0150

> <Smiles>
CNC(C)C(=O)NC(C(=O)N1Cc2cc([101O:1][101CH2:1]C(C)(C)CNC(=N)c3cc([100NH:0][100C:0](=O)N4CCCC(n5nc(-c6ccc(Oc7ccc(F)cc7F)cc6)c(C(N)=O)c5N)C4)cn3C(C)=O)ccc2CC1C(=O)NC1CCCc2ccccc21)C(C)(C)C

> <Shape>
0.255

> <Color>
0.111

> <Negative vol penalty>
0.000

$$$$

  -OEChem-04052303213D

 85 94  0     1  0  0  0  0  0999 V2000
  -29.0190  -37.7590   21.7689 C   0  0  0  0  0  0  0  0  0  0  0  0
  -29.3509  -36.4759   21.3459 C   0  0  0  0  0  0  0  0  0  0  0  0
  -24.5450   -8.8998   21.6435 C   0  0  0  0  0  0  0  0  0  0  0  0
  -22.9119   -9.7863   20.0995 C   0  0  0  0  0  0  0  0  0  0  0  0
  -28.0765  -37.9360   22.7810 C   0  0  0  0  0  0  0  0  0  0  0  0
  -28.7413  -35.3690   21.9354 C   0  0  0  0  0  0  0  0  0  0  0  0
  -27.2383  -30.1010   19.1978 C   0  0  0  0  0  0  0  0  0  0  0  0
  -23.7582   -7.7620   21.8225 C   0  0  0  0  0  0  0  0  0  0  0  0
  -22.1251   -8.6485   20.2784 C   0  0  0  0  0  0  0  0  0  0  0  0
  -27.8692  -28.8589   19.1432 C   0  0  0  0  0  0  0  0  0  0  0  0
  -20.9887   -6.8968   23.5562 C   0  0  0  0  0  0  0  0  0  0  0  0
  -20.7990   -6.4395   24.8602 C   0  0  0  0  0  0  0  0  0  0  0  0
  -27.1146  -20.1382   17.1223 C   0  0  0  0  0  0  0  0  0  0  0  0
  -26.7161  -18.8176   17.4391 C   0  0  0  0  0  0  0  0  0  0  0  0
  -26.4982  -28.0889   20.9726 C   0  0  0  0  0  0  0  0  0  0  0  0
  -21.8160   -4.3294   24.2682 C   0  0  0  0  0  0  0  0  0  0  0  0
  -24.1218   -9.9120   20.7821 C   0  0  0  0  0  0  0  0  0  0  0  0
  -25.9454  -11.2800   19.6373 C   0  0  0  0  0  0  0  0  0  0  0  0
  -27.4478  -36.8311   23.3765 C   0  0  0  0  0  0  0  0  0  0  0  0
  -26.2385  -30.3503   20.1490 C   0  0  0  0  0  0  0  0  0  0  0  0
  -27.7904  -35.5314   22.9573 C   0  0  0  0  0  0  0  0  0  0  0  0
  -25.8544  -29.3341   21.0355 C   0  0  0  0  0  0  0  0  0  0  0  0
  -22.5483   -7.6363   21.1399 C   0  0  0  0  0  0  0  0  0  0  0  0
  -27.5012  -27.8536   20.0326 C   0  0  0  0  0  0  0  0  0  0  0  0
  -21.5920   -6.0704   22.6081 C   0  0  0  0  0  0  0  0  0  0  0  0
  -21.2127   -5.1559   25.2163 C   0  0  0  0  0  0  0  0  0  0  0  0
  -22.0057   -4.7867   22.9642 C   0  0  0  0  0  0  0  0  0  0  0  0
  -24.9338  -11.0878   20.5972 C   0  0  0  0  0  0  0  0  0  0  0  0
  -26.4083  -12.5509   19.8760 C   0  0  0  0  0  0  0  0  0  0  0  0
  -26.9588  -20.8713   18.2756 C   0  0  0  0  0  0  0  0  0  0  0  0
  -26.3453  -18.8379   18.7635 C   0  0  0  0  0  0  0  0  0  0  0  0
  -26.4238  -10.3894   18.6206 C   0  0  0  0  0  0  0  0  0  0  0  0
  -25.9063  -32.3759   22.5759 C   0  0  0  0  0  0  0  0  0  0  0  0
  -22.9147  -31.1278   22.6996 C   0  0  0  0  0  0  0  0  0  0  0  0
  -20.8332  -28.5172   21.9937 C   0  0  0  0  0  0  0  0  0  0  0  0
  -25.5109  -17.9375   20.9634 C   0  0  0  0  0  0  0  0  0  0  0  0
  -26.4700  -37.0705   24.4996 C   0  0  0  0  0  0  0  0  0  0  0  0
  -25.5489  -31.6867   20.1773 C   0  0  0  0  0  0  0  0  0  0  0  0
  -24.7726  -29.5444   22.0622 C   0  0  0  0  0  0  0  0  0  0  0  0
  -25.5945  -35.8600   24.8132 C   0  0  0  0  0  0  0  0  0  0  0  0
  -25.5316  -15.7048   23.7368 C   0  0  0  0  0  0  0  0  0  0  0  0
  -26.4422  -34.5945   24.8938 C   0  0  0  0  0  0  0  0  0  0  0  0
  -25.4611  -14.3204   23.0883 C   0  0  0  0  0  0  0  0  0  0  0  0
  -27.6331  -24.5018   18.0857 C   0  0  0  0  0  0  0  0  0  0  0  0
  -24.6935  -16.7308   22.9761 C   0  0  0  0  0  0  0  0  0  0  0  0
  -27.6987  -23.0966   17.5017 C   0  0  0  0  0  0  0  0  0  0  0  0
  -24.9085  -15.4380   20.8900 C   0  0  0  0  0  0  0  0  0  0  0  0
  -27.1326  -34.3067   23.5552 C   0  0  1  0  0  0  0  0  0  0  0  0
  -24.9026  -31.9971   21.5239 C   0  0  1  0  0  0  0  0  0  0  0  0
  -25.7888  -14.3856   21.5837 C   0  0  2  0  0  0  0  0  0  0  0  0
  -27.8246  -24.2766   19.5932 C   0  0  1  0  0  0  0  0  0  0  0  0
  -26.9734  -22.9561   19.8339 C   0  0  0  0  0  0  0  0  0  0  0  0
  -29.3341  -24.0902   19.8861 C   0  0  0  0  0  0  0  0  0  0  0  0
  -25.4689  -23.2679   19.9905 C   0  0  0  0  0  0  0  0  0  0  0  0
  -27.4814  -22.2038   21.0753 C   0  0  0  0  0  0  0  0  0  0  0  0
  -18.4504  -27.7727   22.2497 C   0  0  0  0  0  0  0  0  0  0  0  0
  -23.4203  -30.5322   25.6491 C   0  0  0  0  0  0  0  0  0  0  0  0
  -21.4558  -28.9808   25.6007 C   0  0  0  0  0  0  0  0  0  0  0  0
  -21.1352  -31.4112   25.1391 C   0  0  0  0  0  0  0  0  0  0  0  0
  -20.4558  -28.3278   19.0644 C   0  0  0  0  0  0  0  0  0  0  0  0
  -27.3479  -25.5060   20.3813 C   0  0  0  0  0  0  0  0  0  1  0  0
  -22.2719  -29.9603   23.4085 C   0  0  1  0  0  0  0  0  0  0  0  0
  -19.4590  -28.4700   21.3502 C   0  0  2  0  0  0  0  0  0  0  0  0
  -22.0926  -30.2175   24.9314 C   0  0  0  0  0  0  0  0  0  0  0  0
  -24.7637  -12.1514   21.3870 N   0  0  0  0  0  0  0  0  0  0  0  0
  -25.6747  -13.0241   20.9239 N   0  0  0  0  0  0  0  0  0  0  0  0
  -27.1907  -22.2084   18.5600 N   0  0  3  0  0  0  0  0  0  0  0  0
  -24.1326  -30.8702   22.0544 N   0  0  0  0  0  0  0  0  0  0  0  0
  -25.0619  -16.7396   21.5587 N   0  0  0  0  0  0  0  0  0  0  0  0
  -27.3674  -13.2986   19.2898 N   0  0  0  0  0  0  0  0  0  0  0  0
  -25.8375   -9.1209   18.5137 N   0  0  0  0  0  0  0  0  0  0  0  0
  -25.8636  -17.8167   19.6197 N   0  0  0  0  0  0  0  0  0  0  0  0
  -26.1952  -33.7265   22.6175 N   0  0  0  0  0  0  0  0  0  0  0  0
  -21.0273  -29.6864   22.6982 N   0  0  0  0  0  0  0  0  0  0  0  0
  -19.5189  -27.7367   20.0542 N   0  3  0  0  0  0  0  0  0  0  0  0
  -27.3552  -10.7029   17.8410 O   0  0  0  0  0  0  0  0  0  0  0  0
  -26.3821  -31.5073   23.2976 O   0  0  0  0  0  0  0  0  0  0  0  0
  -22.3533  -32.2262   22.7116 O   0  0  0  0  0  0  0  0  0  0  0  0
  -21.6510  -27.6061   21.8854 O   0  0  0  0  0  0  0  0  0  0  0  0
  -25.6034  -18.9866   21.6060 O   0  0  0  0  0  0  0  0  0  0  0  0
  -26.4903  -20.0860   19.2808 O   0  0  0  0  0  0  0  0  0  0  0  0
  -21.7804   -6.5261   21.3141 O   0  0  0  0  0  0  0  0  0  0  0  0
  -28.1159  -26.6405   19.9819 O   0  0  0  0  0  0  0  0  0  1  0  0
  -21.0318   -4.7174   26.4689 F   0  0  0  0  0  0  0  0  0  0  0  0
  -22.5870   -3.9887   22.0581 F   0  0  0  0  0  0  0  0  0  0  0  0
  1  2  1  0  0  0  0
  1  5  2  0  0  0  0
  2  6  2  0  0  0  0
  3  8  2  0  0  0  0
  3 17  1  0  0  0  0
  4  9  1  0  0  0  0
  4 17  2  0  0  0  0
  5 19  1  0  0  0  0
  6 21  1  0  0  0  0
  7 10  2  0  0  0  0
  7 20  1  0  0  0  0
  8 23  1  0  0  0  0
  9 23  2  0  0  0  0
 10 24  1  0  0  0  0
 11 12  2  0  0  0  0
 11 25  1  0  0  0  0
 12 26  1  0  0  0  0
 13 14  1  0  0  0  0
 13 30  2  0  0  0  0
 14 31  2  0  0  0  0
 15 22  1  0  0  0  0
 15 24  2  0  0  0  0
 16 26  2  0  0  0  0
 16 27  1  0  0  0  0
 17 28  1  0  0  0  0
 18 28  1  0  0  0  0
 18 29  2  0  0  0  0
 18 32  1  0  0  0  0
 19 21  2  0  0  0  0
 19 37  1  0  0  0  0
 20 22  2  0  0  0  0
 20 38  1  0  0  0  0
 21 48  1  0  0  0  0
 22 39  1  0  0  0  0
 23 82  1  0  0  0  0
 24 83  1  0  0  0  0
 25 27  2  0  0  0  0
 25 82  1  0  0  0  0
 26 84  1  0  0  0  0
 27 85  1  0  0  0  0
 28 65  2  0  0  0  0
 29 66  1  0  0  0  0
 29 70  1  0  0  0  0
 30 67  1  0  0  0  0
 30 81  1  0  0  0  0
 31 72  1  0  0  0  0
 31 81  1  0  0  0  0
 32 71  1  0  0  0  0
 32 76  2  0  0  0  0
 33 49  1  0  0  0  0
 33 73  1  0  0  0  0
 33 77  2  0  0  0  0
 34 62  1  0  0  0  0
 34 68  1  0  0  0  0
 34 78  2  0  0  0  0
 35 63  1  0  0  0  0
 35 74  1  0  0  0  0
 35 79  2  0  0  0  0
 36 69  1  0  0  0  0
 36 72  1  0  0  0  0
 36 80  2  0  0  0  0
 37 40  1  0  0  0  0
 38 49  1  0  0  0  0
 39 68  1  0  0  0  0
 40 42  1  0  0  0  0
 41 43  1  0  0  0  0
 41 45  1  0  0  0  0
 42 48  1  0  0  0  0
 43 50  1  0  0  0  0
 44 46  1  0  0  0  0
 44 51  1  0  0  0  0
 45 69  1  0  0  0  0
 46 67  1  0  0  0  0
 47 50  1  0  0  0  0
 47 69  1  0  0  0  0
 48 73  1  0  0  0  0
 49 68  1  0  0  0  0
 50 66  1  0  0  0  0
 51 52  1  0  0  0  0
 51 53  1  0  0  0  0
 51 61  1  0  0  0  0
 52 54  1  0  0  0  0
 52 55  1  0  0  0  0
 52 67  1  0  0  0  0
 56 63  1  0  0  0  0
 57 64  1  0  0  0  0
 58 64  1  0  0  0  0
 59 64  1  0  0  0  0
 60 75  1  0  0  0  0
 61 83  1  0  0  0  0
 62 64  1  0  0  0  0
 62 74  1  0  0  0  0
 63 75  1  0  0  0  0
 65 66  1  0  0  0  0
M  CHG  1  75   1
M  ISO  4  36 100  61 101  72 100  83 101
M  END
> <Batch ID>
0150

> <Smiles>
CNC(C)C(=O)NC(C(=O)N1Cc2cc([101O:1][101CH2:1]C3(C)CCN(c4ccc([100NH:0][100C:0](=O)N5CCCC(n6nc(-c7ccc(Oc8ccc(F)cc8F)cc7)c(C(N)=O)c6N)C5)o4)C3(C)C)ccc2CC1C(=O)NC1CCCc2ccccc21)C(C)(C)C

> <Shape>
0.295

> <Color>
0.109

> <Negative vol penalty>
0.000

$$$$

  -OEChem-04052303213D

 84 92  0     1  0  0  0  0  0999 V2000
  -38.4144  -27.2146   19.9712 C   0  0  0  0  0  0  0  0  0  0  0  0
  -37.1320  -27.0712   20.4911 C   0  0  0  0  0  0  0  0  0  0  0  0
  -23.0792   -9.8597   19.9461 C   0  0  0  0  0  0  0  0  0  0  0  0
  -23.8348   -9.8799   22.2409 C   0  0  0  0  0  0  0  0  0  0  0  0
  -39.3132  -26.1505   20.0322 C   0  0  0  0  0  0  0  0  0  0  0  0
  -36.7473  -25.8630   21.0715 C   0  0  0  0  0  0  0  0  0  0  0  0
  -32.9808  -25.1041   25.8405 C   0  0  0  0  0  0  0  0  0  0  0  0
  -22.3371   -8.7064   20.2006 C   0  0  0  0  0  0  0  0  0  0  0  0
  -23.0926   -8.7266   22.4954 C   0  0  0  0  0  0  0  0  0  0  0  0
  -31.6268  -24.7826   25.9244 C   0  0  0  0  0  0  0  0  0  0  0  0
  -19.8649   -7.9256   23.0960 C   0  0  0  0  0  0  0  0  0  0  0  0
  -19.1059   -7.8902   24.2657 C   0  0  0  0  0  0  0  0  0  0  0  0
  -31.1342  -17.7088   20.5812 C   0  0  0  0  0  0  0  0  0  0  0  0
  -32.2036  -22.4621   26.2433 C   0  0  0  0  0  0  0  0  0  0  0  0
  -29.5069  -17.9041   22.3413 C   0  0  0  0  0  0  0  0  0  0  0  0
  -20.3497   -5.9590   25.0144 C   0  0  0  0  0  0  0  0  0  0  0  0
  -31.2624  -19.0879   20.6201 C   0  0  0  0  0  0  0  0  0  0  0  0
  -23.8281  -10.4465   20.9662 C   0  0  0  0  0  0  0  0  0  0  0  0
  -24.1652  -12.9716   20.8339 C   0  0  0  0  0  0  0  0  0  0  0  0
  -38.9425  -24.9319   20.6223 C   0  0  0  0  0  0  0  0  0  0  0  0
  -33.9578  -24.1037   25.9466 C   0  0  0  0  0  0  0  0  0  0  0  0
  -37.6416  -24.7811   21.1392 C   0  0  0  0  0  0  0  0  0  0  0  0
  -33.5695  -22.7738   26.1629 C   0  0  0  0  0  0  0  0  0  0  0  0
  -30.2376  -17.1134   21.4614 C   0  0  0  0  0  0  0  0  0  0  0  0
  -22.3438   -8.1399   21.4752 C   0  0  0  0  0  0  0  0  0  0  0  0
  -31.2379  -23.4611   26.1230 C   0  0  0  0  0  0  0  0  0  0  0  0
  -20.8663   -6.9777   22.8854 C   0  0  0  0  0  0  0  0  0  0  0  0
  -19.3483   -6.9069   25.2249 C   0  0  0  0  0  0  0  0  0  0  0  0
  -21.1087   -5.9944   23.8446 C   0  0  0  0  0  0  0  0  0  0  0  0
  -24.5953  -11.6375   20.7038 C   0  0  0  0  0  0  0  0  0  0  0  0
  -29.7081  -19.2744   22.3016 C   0  0  0  0  0  0  0  0  0  0  0  0
  -25.2566  -13.7214   20.4688 C   0  0  0  0  0  0  0  0  0  0  0  0
  -22.8930  -13.4871   21.2478 C   0  0  0  0  0  0  0  0  0  0  0  0
  -36.2198  -22.9647   24.0258 C   0  0  0  0  0  0  0  0  0  0  0  0
  -37.0436  -21.2516   26.6543 C   0  0  0  0  0  0  0  0  0  0  0  0
  -29.4530  -21.3101   23.7181 C   0  0  0  0  0  0  0  0  0  0  0  0
  -36.0992  -19.8870   29.6363 C   0  0  0  0  0  0  0  0  0  0  0  0
  -30.7204  -14.7785   20.6483 C   0  0  0  0  0  0  0  0  0  0  0  0
  -39.9330  -23.7945   20.6226 C   0  0  0  0  0  0  0  0  0  0  0  0
  -35.4150  -24.4706   25.8806 C   0  0  0  0  0  0  0  0  0  0  0  0
  -34.5797  -21.6656   26.3037 C   0  0  0  0  0  0  0  0  0  0  0  0
  -39.5700  -22.6710   21.5902 C   0  0  0  0  0  0  0  0  0  0  0  0
  -29.6151  -12.3504   18.2904 C   0  0  0  0  0  0  0  0  0  0  0  0
  -38.0961  -22.3030   21.4521 C   0  0  0  0  0  0  0  0  0  0  0  0
  -28.1752  -12.0582   18.7187 C   0  0  0  0  0  0  0  0  0  0  0  0
  -30.5275  -12.5871   19.4925 C   0  0  0  0  0  0  0  0  0  0  0  0
  -28.6166  -13.3150   20.8665 C   0  0  0  0  0  0  0  0  0  0  0  0
  -37.1951  -23.4944   21.7989 C   0  0  1  0  0  0  0  0  0  0  0  0
  -36.3091  -23.2985   25.4880 C   0  0  1  0  0  0  0  0  0  0  0  0
  -27.6463  -13.1338   19.6878 C   0  0  2  0  0  0  0  0  0  0  0  0
  -36.9816  -18.5114   31.5407 C   0  0  0  0  0  0  0  0  0  0  0  0
  -28.0288  -24.4400   25.5001 C   0  0  0  0  0  0  0  0  0  0  0  0
  -36.8680  -18.7457   24.9223 C   0  0  0  0  0  0  0  0  0  0  0  0
  -36.8121  -17.3830   27.0219 C   0  0  0  0  0  0  0  0  0  0  0  0
  -38.8064  -18.7883   26.5019 C   0  0  0  0  0  0  0  0  0  0  0  0
  -27.5740  -19.6337   23.5186 C   0  0  0  0  0  0  0  0  0  0  0  0
  -35.5903  -22.0523   31.5886 C   0  0  0  0  0  0  0  0  0  0  0  0
  -28.4828  -22.1505   24.5510 C   0  0  0  0  0  0  0  0  0  0  0  0
  -36.6551  -19.9064   27.2187 C   0  0  1  0  0  0  0  0  0  0  0  0
  -36.7484  -19.9167   31.0083 C   0  0  2  0  0  0  0  0  0  0  0  0
  -29.1046  -23.4501   25.0720 C   0  0  2  0  0  0  0  0  0  1  0  0
  -37.2661  -18.7262   26.4116 C   0  0  0  0  0  0  0  0  0  0  0  0
  -30.5700  -19.8889   21.4607 N   0  0  0  0  0  0  0  0  0  0  0  0
  -25.8612  -11.5420   20.2884 N   0  0  0  0  0  0  0  0  0  0  0  0
  -26.2358  -12.8256   20.1542 N   0  0  0  0  0  0  0  0  0  0  0  0
  -35.9920  -22.0739   26.2257 N   0  0  0  0  0  0  0  0  0  0  0  0
  -29.9649  -13.6214   20.3635 N   0  0  0  0  0  0  0  0  0  0  0  0
  -25.4646  -15.0528   20.3893 N   0  0  0  0  0  0  0  0  0  0  0  0
  -21.8822  -12.5777   21.5879 N   0  0  0  0  0  0  0  0  0  0  0  0
  -30.0697  -15.7065   21.4607 N   0  0  0  0  0  0  0  0  0  0  0  0
  -37.1108  -23.6635   23.2337 N   0  0  0  0  0  0  0  0  0  0  0  0
  -37.0372  -19.9287   28.6265 N   0  0  0  0  0  0  0  0  0  0  0  0
  -28.9408  -20.0902   23.2214 N   0  0  0  0  0  0  0  0  0  0  0  0
  -35.8820  -20.6480   31.9755 N   0  3  0  0  0  0  0  0  0  0  0  0
  -22.6542  -14.7175   21.2984 O   0  0  0  0  0  0  0  0  0  0  0  0
  -35.4040  -22.1335   23.6445 O   0  0  0  0  0  0  0  0  0  0  0  0
  -38.2358  -21.5641   26.6023 O   0  0  0  0  0  0  0  0  0  0  0  0
  -30.5893  -21.7369   23.4985 O   0  0  0  0  0  0  0  0  0  0  0  0
  -34.8820  -19.8286   29.4765 O   0  0  0  0  0  0  0  0  0  0  0  0
  -31.8501  -14.9470   20.1819 O   0  0  0  0  0  0  0  0  0  0  0  0
  -21.6196   -7.0146   21.7240 O   0  0  0  0  0  0  0  0  0  0  0  0
  -29.9170  -23.1445   26.2047 O   0  0  0  0  0  0  0  0  0  1  0  0
  -18.6203   -6.8740   26.3488 F   0  0  0  0  0  0  0  0  0  0  0  0
  -22.0702   -5.0818   23.6485 F   0  0  0  0  0  0  0  0  0  0  0  0
  1  2  1  0  0  0  0
  1  5  2  0  0  0  0
  2  6  2  0  0  0  0
  3  8  2  0  0  0  0
  3 18  1  0  0  0  0
  4  9  1  0  0  0  0
  4 18  2  0  0  0  0
  5 20  1  0  0  0  0
  6 22  1  0  0  0  0
  7 10  2  0  0  0  0
  7 21  1  0  0  0  0
  8 25  1  0  0  0  0
  9 25  2  0  0  0  0
 10 26  1  0  0  0  0
 11 12  2  0  0  0  0
 11 27  1  0  0  0  0
 12 28  1  0  0  0  0
 13 17  2  0  0  0  0
 13 24  1  0  0  0  0
 14 23  1  0  0  0  0
 14 26  2  0  0  0  0
 15 24  2  0  0  0  0
 15 31  1  0  0  0  0
 16 28  2  0  0  0  0
 16 29  1  0  0  0  0
 17 63  1  0  0  0  0
 18 30  1  0  0  0  0
 19 30  1  0  0  0  0
 19 32  2  0  0  0  0
 19 33  1  0  0  0  0
 20 22  2  0  0  0  0
 20 39  1  0  0  0  0
 21 23  2  0  0  0  0
 21 40  1  0  0  0  0
 22 48  1  0  0  0  0
 23 41  1  0  0  0  0
 24 70  1  0  0  0  0
 25 81  1  0  0  0  0
 26 82  1  0  0  0  0
 27 29  2  0  0  0  0
 27 81  1  0  0  0  0
 28 83  1  0  0  0  0
 29 84  1  0  0  0  0
 30 64  2  0  0  0  0
 31 63  2  0  0  0  0
 31 73  1  0  0  0  0
 32 65  1  0  0  0  0
 32 68  1  0  0  0  0
 33 69  1  0  0  0  0
 33 75  2  0  0  0  0
 34 49  1  0  0  0  0
 34 71  1  0  0  0  0
 34 76  2  0  0  0  0
 35 59  1  0  0  0  0
 35 66  1  0  0  0  0
 35 77  2  0  0  0  0
 36 58  1  0  0  0  0
 36 73  1  0  0  0  0
 36 78  2  0  0  0  0
 37 60  1  0  0  0  0
 37 72  1  0  0  0  0
 37 79  2  0  0  0  0
 38 67  1  0  0  0  0
 38 70  1  0  0  0  0
 38 80  2  0  0  0  0
 39 42  1  0  0  0  0
 40 49  1  0  0  0  0
 41 66  1  0  0  0  0
 42 44  1  0  0  0  0
 43 45  1  0  0  0  0
 43 46  1  0  0  0  0
 44 48  1  0  0  0  0
 45 50  1  0  0  0  0
 46 67  1  0  0  0  0
 47 50  1  0  0  0  0
 47 67  1  0  0  0  0
 48 71  1  0  0  0  0
 49 66  1  0  0  0  0
 50 65  1  0  0  0  0
 51 60  1  0  0  0  0
 52 61  1  0  0  0  0
 53 62  1  0  0  0  0
 54 62  1  0  0  0  0
 55 62  1  0  0  0  0
 56 73  1  0  0  0  0
 57 74  1  0  0  0  0
 58 61  1  0  0  0  0
 59 62  1  0  0  0  0
 59 72  1  0  0  0  0
 60 74  1  0  0  0  0
 61 82  1  0  0  0  0
 64 65  1  0  0  0  0
M  CHG  1  74   1
M  ISO  4  38 100  61 101  70 100  82 101
M  END
> <Batch ID>
0150

> <Smiles>
CNC(C)C(=O)NC(C(=O)N1Cc2cc([101O:1][101CH:1](C)CC(=O)N(C)c3cc([100NH:0][100C:0](=O)N4CCCC(n5nc(-c6ccc(Oc7ccc(F)cc7F)cc6)c(C(N)=O)c5N)C4)ccn3)ccc2CC1C(=O)NC1CCCc2ccccc21)C(C)(C)C

> <Shape>
0.175

> <Color>
0.192

> <Negative vol penalty>
0.000

$$$$

  -OEChem-04052303213D

 83 91  0     1  0  0  0  0  0999 V2000
  -23.5516  -34.6619   19.5438 C   0  0  0  0  0  0  0  0  0  0  0  0
  -24.4764  -33.6496   19.7790 C   0  0  0  0  0  0  0  0  0  0  0  0
  -22.5846  -10.3663   22.8085 C   0  0  0  0  0  0  0  0  0  0  0  0
  -24.3926  -10.0314   21.2413 C   0  0  0  0  0  0  0  0  0  0  0  0
  -22.3583  -34.6955   20.2640 C   0  0  0  0  0  0  0  0  0  0  0  0
  -24.2089  -32.6708   20.7354 C   0  0  0  0  0  0  0  0  0  0  0  0
  -25.3089  -28.0056   19.1010 C   0  0  0  0  0  0  0  0  0  0  0  0
  -22.0719   -9.1099   22.4855 C   0  0  0  0  0  0  0  0  0  0  0  0
  -23.8800   -8.7750   20.9183 C   0  0  0  0  0  0  0  0  0  0  0  0
  -26.6516  -27.6304   19.1030 C   0  0  0  0  0  0  0  0  0  0  0  0
  -20.4885   -5.8410   22.3380 C   0  0  0  0  0  0  0  0  0  0  0  0
  -20.0774   -5.0190   23.3873 C   0  0  0  0  0  0  0  0  0  0  0  0
  -26.3058  -26.4266   21.1647 C   0  0  0  0  0  0  0  0  0  0  0  0
  -29.6216  -18.3791   21.8291 C   0  0  0  0  0  0  0  0  0  0  0  0
  -30.6738  -20.5352   21.6112 C   0  0  0  0  0  0  0  0  0  0  0  0
  -22.3161   -5.0582   24.2950 C   0  0  0  0  0  0  0  0  0  0  0  0
  -23.7449  -10.8271   22.1863 C   0  0  0  0  0  0  0  0  0  0  0  0
  -25.2068  -12.4293   23.5292 C   0  0  0  0  0  0  0  0  0  0  0  0
  -22.0717  -33.7111   21.2228 C   0  0  0  0  0  0  0  0  0  0  0  0
  -24.4556  -27.6026   20.1382 C   0  0  0  0  0  0  0  0  0  0  0  0
  -23.0111  -32.6919   21.4700 C   0  0  0  0  0  0  0  0  0  0  0  0
  -24.9520  -26.7959   21.1721 C   0  0  0  0  0  0  0  0  0  0  0  0
  -30.7220  -19.2078   22.0263 C   0  0  0  0  0  0  0  0  0  0  0  0
  -22.7196   -8.3143   21.5405 C   0  0  0  0  0  0  0  0  0  0  0  0
  -27.1510  -26.8431   20.1365 C   0  0  0  0  0  0  0  0  0  0  0  0
  -21.8134   -6.2715   22.2672 C   0  0  0  0  0  0  0  0  0  0  0  0
  -20.9912   -4.6276   24.3658 C   0  0  0  0  0  0  0  0  0  0  0  0
  -22.7272   -5.8801   23.2457 C   0  0  0  0  0  0  0  0  0  0  0  0
  -24.2747  -12.1250   22.5191 C   0  0  0  0  0  0  0  0  0  0  0  0
  -25.3806  -13.7887   23.4379 C   0  0  0  0  0  0  0  0  0  0  0  0
  -28.4919  -18.9028   21.2167 C   0  0  0  0  0  0  0  0  0  0  0  0
  -29.5175  -21.0043   21.0042 C   0  0  0  0  0  0  0  0  0  0  0  0
  -25.8576  -11.5608   24.4661 C   0  0  0  0  0  0  0  0  0  0  0  0
  -22.7459  -29.1134   22.3514 C   0  0  0  0  0  0  0  0  0  0  0  0
  -30.0154  -24.6165   20.1178 C   0  0  0  0  0  0  0  0  0  0  0  0
  -21.6539  -26.1263   22.9893 C   0  0  0  0  0  0  0  0  0  0  0  0
  -22.1780  -22.7572   22.8430 C   0  0  0  0  0  0  0  0  0  0  0  0
  -26.1507  -18.4095   20.4282 C   0  0  0  0  0  0  0  0  0  0  0  0
  -20.7894  -33.8158   22.0099 C   0  0  0  0  0  0  0  0  0  0  0  0
  -23.0035  -27.9935   20.1074 C   0  0  0  0  0  0  0  0  0  0  0  0
  -24.0727  -26.3200   22.2985 C   0  0  0  0  0  0  0  0  0  0  0  0
  -20.4160  -32.5284   22.7402 C   0  0  0  0  0  0  0  0  0  0  0  0
  -22.8003  -17.2710   20.8230 C   0  0  0  0  0  0  0  0  0  0  0  0
  -21.6284  -31.9569   23.4684 C   0  0  0  0  0  0  0  0  0  0  0  0
  -22.9619  -15.8557   21.3826 C   0  0  0  0  0  0  0  0  0  0  0  0
  -23.8853  -17.6039   19.8004 C   0  0  0  0  0  0  0  0  0  0  0  0
  -25.4237  -15.9742   20.8235 C   0  0  0  0  0  0  0  0  0  0  0  0
  -22.7461  -31.5981   22.4817 C   0  0  1  0  0  0  0  0  0  0  0  0
  -22.3449  -27.9547   21.4830 C   0  0  1  0  0  0  0  0  0  0  0  0
  -24.3918  -15.6164   21.9056 C   0  0  2  0  0  0  0  0  0  0  0  0
  -21.1245  -20.5703   23.4790 C   0  0  0  0  0  0  0  0  0  0  0  0
  -22.4483  -26.5924   25.8982 C   0  0  0  0  0  0  0  0  0  0  0  0
  -22.2715  -24.1228   26.2694 C   0  0  0  0  0  0  0  0  0  0  0  0
  -20.2571  -25.4274   25.5890 C   0  0  0  0  0  0  0  0  0  0  0  0
  -22.0502  -21.8661   20.0236 C   0  0  0  0  0  0  0  0  0  0  0  0
  -30.4637  -23.2928   20.6999 C   0  0  0  0  0  0  0  0  0  0  0  0
  -28.7843  -25.2296   20.7566 C   0  0  0  0  0  0  0  0  0  1  0  0
  -22.0870  -25.0009   23.8975 C   0  0  1  0  0  0  0  0  0  0  0  0
  -21.2843  -21.6176   22.3880 C   0  0  2  0  0  0  0  0  0  0  0  0
  -21.7833  -25.2963   25.3935 C   0  0  0  0  0  0  0  0  0  0  0  0
  -23.8835  -13.2043   21.8364 N   0  0  0  0  0  0  0  0  0  0  0  0
  -24.5731  -14.2001   22.4186 N   0  0  0  0  0  0  0  0  0  0  0  0
  -28.4724  -20.1846   20.8267 N   0  3  0  0  0  0  0  0  0  0  0  0
  -22.6616  -26.7338   22.2269 N   0  0  0  0  0  0  0  0  0  0  0  0
  -25.2129  -17.3570   20.3673 N   0  0  0  0  0  0  0  0  0  0  0  0
  -31.8832  -18.7042   22.6478 N   0  0  0  0  0  0  0  0  0  0  0  0
  -26.1437  -14.6603   24.1309 N   0  0  0  0  0  0  0  0  0  0  0  0
  -25.5647  -10.1909   24.4221 N   0  0  0  0  0  0  0  0  0  0  0  0
  -27.3668  -18.0648   21.0170 N   0  0  0  0  0  0  0  0  0  0  0  0
  -29.4121  -22.3173   20.5682 N   0  0  0  0  0  0  0  0  0  0  0  0
  -22.4478  -30.3503   21.8121 N   0  0  0  0  0  0  0  0  0  0  0  0
  -21.4479  -23.7937   23.3850 N   0  0  0  0  0  0  0  0  0  0  0  0
  -21.8606  -20.9568   21.1830 N   0  3  0  0  0  0  0  0  0  0  0  0
  -26.6621  -11.9892   25.3279 O   0  0  0  0  0  0  0  0  0  0  0  0
  -23.2845  -28.9010   23.4314 O   0  0  0  0  0  0  0  0  0  0  0  0
  -30.6029  -25.1675   19.1877 O   0  0  0  0  0  0  0  0  0  0  0  0
  -20.4640  -26.4495   22.9521 O   0  0  0  0  0  0  0  0  0  0  0  0
  -23.4017  -22.7291   22.7322 O   0  0  0  0  0  0  0  0  0  0  0  0
  -25.8840  -19.5410   20.0150 O   0  0  0  0  0  0  0  0  0  0  0  0
  -22.2198   -7.0881   21.2253 O   0  0  0  0  0  0  0  0  0  0  0  0
  -28.4613  -26.4760   20.1413 O   0  0  0  0  0  0  0  0  0  1  0  0
  -20.5959   -3.8395   25.3742 F   0  0  0  0  0  0  0  0  0  0  0  0
  -24.0010   -6.2915   23.1836 F   0  0  0  0  0  0  0  0  0  0  0  0
  1  2  1  0  0  0  0
  1  5  2  0  0  0  0
  2  6  2  0  0  0  0
  3  8  2  0  0  0  0
  3 17  1  0  0  0  0
  4  9  1  0  0  0  0
  4 17  2  0  0  0  0
  5 19  1  0  0  0  0
  6 21  1  0  0  0  0
  7 10  2  0  0  0  0
  7 20  1  0  0  0  0
  8 24  1  0  0  0  0
  9 24  2  0  0  0  0
 10 25  1  0  0  0  0
 11 12  2  0  0  0  0
 11 26  1  0  0  0  0
 12 27  1  0  0  0  0
 13 22  1  0  0  0  0
 13 25  2  0  0  0  0
 14 23  1  0  0  0  0
 14 31  2  0  0  0  0
 15 23  2  0  0  0  0
 15 32  1  0  0  0  0
 16 27  2  0  0  0  0
 16 28  1  0  0  0  0
 17 29  1  0  0  0  0
 18 29  1  0  0  0  0
 18 30  2  0  0  0  0
 18 33  1  0  0  0  0
 19 21  2  0  0  0  0
 19 39  1  0  0  0  0
 20 22  2  0  0  0  0
 20 40  1  0  0  0  0
 21 48  1  0  0  0  0
 22 41  1  0  0  0  0
 23 66  1  0  0  0  0
 24 80  1  0  0  0  0
 25 81  1  0  0  0  0
 26 28  2  0  0  0  0
 26 80  1  0  0  0  0
 27 82  1  0  0  0  0
 28 83  1  0  0  0  0
 29 61  2  0  0  0  0
 30 62  1  0  0  0  0
 30 67  1  0  0  0  0
 31 63  1  0  0  0  0
 31 69  1  0  0  0  0
 32 63  2  0  0  0  0
 32 70  1  0  0  0  0
 33 68  1  0  0  0  0
 33 74  2  0  0  0  0
 34 49  1  0  0  0  0
 34 71  1  0  0  0  0
 34 75  2  0  0  0  0
 35 56  1  0  0  0  0
 35 57  1  0  0  0  0
 35 76  2  0  0  0  0
 36 58  1  0  0  0  0
 36 64  1  0  0  0  0
 36 77  2  0  0  0  0
 37 59  1  0  0  0  0
 37 72  1  0  0  0  0
 37 78  2  0  0  0  0
 38 65  1  0  0  0  0
 38 69  1  0  0  0  0
 38 79  2  0  0  0  0
 39 42  1  0  0  0  0
 40 49  1  0  0  0  0
 41 64  1  0  0  0  0
 42 44  1  0  0  0  0
 43 45  1  0  0  0  0
 43 46  1  0  0  0  0
 44 48  1  0  0  0  0
 45 50  1  0  0  0  0
 46 65  1  0  0  0  0
 47 50  1  0  0  0  0
 47 65  1  0  0  0  0
 48 71  1  0  0  0  0
 49 64  1  0  0  0  0
 50 62  1  0  0  0  0
 51 59  1  0  0  0  0
 52 60  1  0  0  0  0
 53 60  1  0  0  0  0
 54 60  1  0  0  0  0
 55 73  1  0  0  0  0
 56 70  1  0  0  0  0
 57 81  1  0  0  0  0
 58 60  1  0  0  0  0
 58 72  1  0  0  0  0
 59 73  1  0  0  0  0
 61 62  1  0  0  0  0
M  CHG  2  63   1  73   1
M  ISO  4  38 100  57 101  69 100  81 101
M  END
> <Batch ID>
0150

> <Smiles>
CNC(C)C(=O)NC(C(=O)N1Cc2cc([101O:1][101CH2:1]C(=O)CNc3cc(N)cc([100NH:0][100C:0](=O)N4CCCC(n5nc(-c6ccc(Oc7ccc(F)cc7F)cc6)c(C(N)=O)c5N)C4)n3)ccc2CC1C(=O)NC1CCCc2ccccc21)C(C)(C)C

> <Shape>
0.198

> <Color>
0.097

> <Negative vol penalty>
0.000

$$$$

  -OEChem-04052303213D

 87 96  0     1  0  0  0  0  0999 V2000
  -23.9769  -18.8886   25.4479 C   0  0  0  0  0  0  0  0  0  0  0  0
  -25.0736  -19.5894   24.9563 C   0  0  0  0  0  0  0  0  0  0  0  0
  -23.0738   -9.8647   20.1948 C   0  0  0  0  0  0  0  0  0  0  0  0
  -23.7478  -10.1523   22.4970 C   0  0  0  0  0  0  0  0  0  0  0  0
  -29.6979  -19.4532   21.6953 C   0  0  0  0  0  0  0  0  0  0  0  0
  -31.3916  -19.0343   20.0240 C   0  0  0  0  0  0  0  0  0  0  0  0
  -22.6854  -19.3424   25.1834 C   0  0  0  0  0  0  0  0  0  0  0  0
  -24.8792  -20.7440   24.1990 C   0  0  0  0  0  0  0  0  0  0  0  0
  -27.9708  -24.5121   25.5733 C   0  0  0  0  0  0  0  0  0  0  0  0
  -29.5144  -18.0796   21.8537 C   0  0  0  0  0  0  0  0  0  0  0  0
  -31.2081  -17.6607   20.1824 C   0  0  0  0  0  0  0  0  0  0  0  0
  -22.3079   -8.7567   20.5574 C   0  0  0  0  0  0  0  0  0  0  0  0
  -22.9819   -9.0444   22.8597 C   0  0  0  0  0  0  0  0  0  0  0  0
  -29.2896  -24.4491   25.1256 C   0  0  0  0  0  0  0  0  0  0  0  0
  -19.7246   -8.3498   23.4323 C   0  0  0  0  0  0  0  0  0  0  0  0
  -18.9241   -8.4612   24.5692 C   0  0  0  0  0  0  0  0  0  0  0  0
  -28.7622  -26.0172   23.3700 C   0  0  0  0  0  0  0  0  0  0  0  0
  -20.1149   -6.6224   25.5879 C   0  0  0  0  0  0  0  0  0  0  0  0
  -23.7938  -10.5624   21.1646 C   0  0  0  0  0  0  0  0  0  0  0  0
  -30.6365  -19.9306   20.7805 C   0  0  0  0  0  0  0  0  0  0  0  0
  -24.1689  -13.0506   20.7448 C   0  0  0  0  0  0  0  0  0  0  0  0
  -22.4754  -20.5085   24.4306 C   0  0  0  0  0  0  0  0  0  0  0  0
  -27.0335  -25.3212   24.9150 C   0  0  0  0  0  0  0  0  0  0  0  0
  -23.5837  -21.2131   23.9230 C   0  0  0  0  0  0  0  0  0  0  0  0
  -27.4327  -26.0908   23.8129 C   0  0  0  0  0  0  0  0  0  0  0  0
  -30.2695  -17.1833   21.0972 C   0  0  0  0  0  0  0  0  0  0  0  0
  -22.2619   -8.3466   21.8898 C   0  0  0  0  0  0  0  0  0  0  0  0
  -29.6848  -25.1995   24.0220 C   0  0  0  0  0  0  0  0  0  0  0  0
  -20.7201   -7.3746   23.3732 C   0  0  0  0  0  0  0  0  0  0  0  0
  -19.1193   -7.5976   25.6470 C   0  0  0  0  0  0  0  0  0  0  0  0
  -20.9153   -6.5109   24.4509 C   0  0  0  0  0  0  0  0  0  0  0  0
  -24.5856  -11.7067   20.7905 C   0  0  0  0  0  0  0  0  0  0  0  0
  -25.2823  -13.7415   20.3334 C   0  0  0  0  0  0  0  0  0  0  0  0
  -30.8304  -21.3820   20.6129 C   0  0  0  0  0  0  0  0  0  0  0  0
  -22.8897  -13.6232   21.0473 C   0  0  0  0  0  0  0  0  0  0  0  0
  -24.3129  -24.7913   23.3590 C   0  0  0  0  0  0  0  0  0  0  0  0
  -24.1802  -28.0314   23.2806 C   0  0  0  0  0  0  0  0  0  0  0  0
  -25.8540  -31.0033   23.3973 C   0  0  0  0  0  0  0  0  0  0  0  0
  -30.7499  -14.7637   20.5864 C   0  0  0  0  0  0  0  0  0  0  0  0
  -21.0598  -20.9338   24.1307 C   0  0  0  0  0  0  0  0  0  0  0  0
  -25.6212  -25.3987   25.4267 C   0  0  0  0  0  0  0  0  0  0  0  0
  -26.4700  -26.9906   23.0836 C   0  0  0  0  0  0  0  0  0  0  0  0
  -20.9482  -22.3738   23.6365 C   0  0  0  0  0  0  0  0  0  0  0  0
  -29.6968  -12.0811   18.4955 C   0  0  0  0  0  0  0  0  0  0  0  0
  -21.9951  -22.6523   22.5625 C   0  0  0  0  0  0  0  0  0  0  0  0
  -28.2389  -11.8551   18.9025 C   0  0  0  0  0  0  0  0  0  0  0  0
  -33.4829  -22.4103   22.8622 C   0  0  0  0  0  0  0  0  0  0  0  0
  -30.5691  -12.4517   19.6937 C   0  0  0  0  0  0  0  0  0  0  0  0
  -32.5445  -21.3154   22.3666 C   0  0  0  0  0  0  0  0  0  0  0  0
  -28.6205  -13.3556   20.8999 C   0  0  0  0  0  0  0  0  0  0  0  0
  -23.4142  -22.4836   23.1185 C   0  0  1  0  0  0  0  0  0  0  0  0
  -24.6262  -25.8609   24.3667 C   0  0  1  0  0  0  0  0  0  0  0  0
  -27.6902  -13.0434   19.7163 C   0  0  2  0  0  0  0  0  0  0  0  0
  -31.9580  -23.4728   21.3152 C   0  0  1  0  0  0  0  0  0  0  0  0
  -32.6996  -23.7232   22.6575 C   0  0  2  0  0  0  0  0  0  0  0  0
  -32.7485  -23.7891   20.0495 C   0  0  0  0  0  0  0  0  0  0  0  0
  -33.6421  -24.9301   22.6475 C   0  0  0  0  0  0  0  0  0  0  0  0
  -25.4796  -33.4813   23.2692 C   0  0  0  0  0  0  0  0  0  0  0  0
  -23.8246  -27.8189   20.2577 C   0  0  0  0  0  0  0  0  0  0  0  0
  -24.4065  -30.2481   20.0885 C   0  0  0  0  0  0  0  0  0  0  0  0
  -22.3809  -29.5382   21.3596 C   0  0  0  0  0  0  0  0  0  0  0  0
  -26.9195  -31.4224   26.1264 C   0  0  0  0  0  0  0  0  0  0  0  0
  -31.6725  -23.9142   23.7919 C   0  0  0  0  0  0  0  0  0  1  0  0
  -24.6724  -29.0990   22.3335 C   0  0  1  0  0  0  0  0  0  0  0  0
  -25.5963  -32.2741   24.1867 C   0  0  2  0  0  0  0  0  0  0  0  0
  -23.8390  -29.1577   21.0222 C   0  0  0  0  0  0  0  0  0  0  0  0
  -25.8639  -11.5509   20.4362 N   0  0  0  0  0  0  0  0  0  0  0  0
  -26.2601  -12.8059   20.1639 N   0  0  0  0  0  0  0  0  0  0  0  0
  -31.7231  -22.0085   21.3604 N   0  0  0  0  0  0  0  0  0  0  0  0
  -25.0988  -27.0274   23.6182 N   0  0  0  0  0  0  0  0  0  0  0  0
  -29.9897  -13.5876   20.4140 N   0  0  0  0  0  0  0  0  0  0  0  0
  -25.5106  -15.0520   20.1035 N   0  0  0  0  0  0  0  0  0  0  0  0
  -21.8555  -12.7700   21.4559 N   0  0  0  0  0  0  0  0  0  0  0  0
  -30.0832  -15.7879   21.2580 N   0  0  0  0  0  0  0  0  0  0  0  0
  -23.7879  -23.6371   23.9085 N   0  0  0  0  0  0  0  0  0  0  0  0
  -24.6814  -30.3451   23.0920 N   0  0  0  0  0  0  0  0  0  0  0  0
  -30.1059  -22.0382   19.7115 N   0  3  0  0  0  0  0  0  0  0  0  0
  -26.7076  -32.5206   25.1486 N   0  3  0  0  0  0  0  0  0  0  0  0
  -22.6656  -14.8529   20.9421 O   0  0  0  0  0  0  0  0  0  0  0  0
  -24.5299  -24.9983   22.1709 O   0  0  0  0  0  0  0  0  0  0  0  0
  -23.0257  -28.0903   23.7109 O   0  0  0  0  0  0  0  0  0  0  0  0
  -26.9823  -30.6335   23.0799 O   0  0  0  0  0  0  0  0  0  0  0  0
  -31.8975  -14.8651   20.1451 O   0  0  0  0  0  0  0  0  0  0  0  0
  -21.5145   -7.2657   22.2441 O   0  0  0  0  0  0  0  0  0  0  0  0
  -30.9713  -25.1393   23.5825 O   0  0  0  0  0  0  0  0  0  1  0  0
  -18.3516   -7.7057   26.7392 F   0  0  0  0  0  0  0  0  0  0  0  0
  -21.8709   -5.5728   24.4004 F   0  0  0  0  0  0  0  0  0  0  0  0
  1  2  1  0  0  0  0
  1  7  2  0  0  0  0
  2  8  2  0  0  0  0
  3 12  2  0  0  0  0
  3 19  1  0  0  0  0
  4 13  1  0  0  0  0
  4 19  2  0  0  0  0
  5 10  2  0  0  0  0
  5 20  1  0  0  0  0
  6 11  1  0  0  0  0
  6 20  2  0  0  0  0
  7 22  1  0  0  0  0
  8 24  1  0  0  0  0
  9 14  2  0  0  0  0
  9 23  1  0  0  0  0
 10 26  1  0  0  0  0
 11 26  2  0  0  0  0
 12 27  1  0  0  0  0
 13 27  2  0  0  0  0
 14 28  1  0  0  0  0
 15 16  2  0  0  0  0
 15 29  1  0  0  0  0
 16 30  1  0  0  0  0
 17 25  1  0  0  0  0
 17 28  2  0  0  0  0
 18 30  2  0  0  0  0
 18 31  1  0  0  0  0
 19 32  1  0  0  0  0
 20 34  1  0  0  0  0
 21 32  1  0  0  0  0
 21 33  2  0  0  0  0
 21 35  1  0  0  0  0
 22 24  2  0  0  0  0
 22 40  1  0  0  0  0
 23 25  2  0  0  0  0
 23 41  1  0  0  0  0
 24 51  1  0  0  0  0
 25 42  1  0  0  0  0
 26 74  1  0  0  0  0
 27 84  1  0  0  0  0
 28 85  1  0  0  0  0
 29 31  2  0  0  0  0
 29 84  1  0  0  0  0
 30 86  1  0  0  0  0
 31 87  1  0  0  0  0
 32 67  2  0  0  0  0
 33 68  1  0  0  0  0
 33 72  1  0  0  0  0
 34 69  1  0  0  0  0
 34 77  2  0  0  0  0
 35 73  1  0  0  0  0
 35 79  2  0  0  0  0
 36 52  1  0  0  0  0
 36 75  1  0  0  0  0
 36 80  2  0  0  0  0
 37 64  1  0  0  0  0
 37 70  1  0  0  0  0
 37 81  2  0  0  0  0
 38 65  1  0  0  0  0
 38 76  1  0  0  0  0
 38 82  2  0  0  0  0
 39 71  1  0  0  0  0
 39 74  1  0  0  0  0
 39 83  2  0  0  0  0
 40 43  1  0  0  0  0
 41 52  1  0  0  0  0
 42 70  1  0  0  0  0
 43 45  1  0  0  0  0
 44 46  1  0  0  0  0
 44 48  1  0  0  0  0
 45 51  1  0  0  0  0
 46 53  1  0  0  0  0
 47 49  1  0  0  0  0
 47 55  1  0  0  0  0
 48 71  1  0  0  0  0
 49 69  1  0  0  0  0
 50 53  1  0  0  0  0
 50 71  1  0  0  0  0
 51 75  1  0  0  0  0
 52 70  1  0  0  0  0
 53 68  1  0  0  0  0
 54 55  1  0  0  0  0
 54 56  1  0  0  0  0
 54 69  1  0  0  0  0
 55 57  1  0  0  0  0
 55 63  1  0  0  0  0
 58 65  1  0  0  0  0
 59 66  1  0  0  0  0
 60 66  1  0  0  0  0
 61 66  1  0  0  0  0
 62 78  1  0  0  0  0
 63 85  1  0  0  0  0
 64 66  1  0  0  0  0
 64 76  1  0  0  0  0
 65 78  1  0  0  0  0
 67 68  1  0  0  0  0
M  CHG  2  77   1  78   1
M  ISO  4  39 100  63 101  74 100  85 101
M  END
> <Batch ID>
0150

> <Smiles>
CNC(C)C(=O)NC(C(=O)N1Cc2cc([101O:1][101CH2:1]C3(C)CCN(C(=N)c4ccc([100NH:0][100C:0](=O)N5CCCC(n6nc(-c7ccc(Oc8ccc(F)cc8F)cc7)c(C(N)=O)c6N)C5)cc4)C3C)ccc2CC1C(=O)NC1CCCc2ccccc21)C(C)(C)C

> <Shape>
0.260

> <Color>
0.184

> <Negative vol penalty>
0.000

$$$$

  -OEChem-04052303213D

 84 93  0     1  0  0  0  0  0999 V2000
  -22.1738  -30.2942   13.7117 C   0  0  0  0  0  0  0  0  0  0  0  0
  -23.2770  -29.8082   14.4060 C   0  0  0  0  0  0  0  0  0  0  0  0
  -24.4706   -9.1440   20.0449 C   0  0  0  0  0  0  0  0  0  0  0  0
  -24.4620   -9.6600   22.4052 C   0  0  0  0  0  0  0  0  0  0  0  0
  -21.6637  -31.5567   14.0114 C   0  0  0  0  0  0  0  0  0  0  0  0
  -23.8714  -30.5849   15.3999 C   0  0  0  0  0  0  0  0  0  0  0  0
  -24.9238  -27.9222   19.5769 C   0  0  0  0  0  0  0  0  0  0  0  0
  -24.1830   -7.8104   20.3354 C   0  0  0  0  0  0  0  0  0  0  0  0
  -24.1743   -8.3265   22.6957 C   0  0  0  0  0  0  0  0  0  0  0  0
  -26.0559  -27.1091   19.5453 C   0  0  0  0  0  0  0  0  0  0  0  0
  -21.4689   -6.3014   22.6723 C   0  0  0  0  0  0  0  0  0  0  0  0
  -20.4766   -6.0454   23.6186 C   0  0  0  0  0  0  0  0  0  0  0  0
  -27.2911  -28.7923   20.7538 C   0  0  0  0  0  0  0  0  0  0  0  0
  -22.0859   -4.8761   24.9897 C   0  0  0  0  0  0  0  0  0  0  0  0
  -24.6102  -10.0688   21.0798 C   0  0  0  0  0  0  0  0  0  0  0  0
  -23.9856  -12.4848   20.5501 C   0  0  0  0  0  0  0  0  0  0  0  0
  -22.2462  -32.3453   15.0161 C   0  0  0  0  0  0  0  0  0  0  0  0
  -24.9700  -29.1832   20.1887 C   0  0  0  0  0  0  0  0  0  0  0  0
  -23.3694  -31.8596   15.7125 C   0  0  0  0  0  0  0  0  0  0  0  0
  -26.1575  -29.6184   20.7941 C   0  0  0  0  0  0  0  0  0  0  0  0
  -31.4494  -19.2478   22.4506 C   0  0  0  0  0  0  0  0  0  0  0  0
  -31.5993  -20.6489   22.4096 C   0  0  0  0  0  0  0  0  0  0  0  0
  -24.0348   -7.4016   21.6608 C   0  0  0  0  0  0  0  0  0  0  0  0
  -27.2406  -27.5453   20.1313 C   0  0  0  0  0  0  0  0  0  0  0  0
  -22.7697   -5.8447   22.8847 C   0  0  0  0  0  0  0  0  0  0  0  0
  -20.7851   -5.3327   24.7773 C   0  0  0  0  0  0  0  0  0  0  0  0
  -23.0782   -5.1321   24.0434 C   0  0  0  0  0  0  0  0  0  0  0  0
  -24.9079  -11.4464   20.7804 C   0  0  0  0  0  0  0  0  0  0  0  0
  -24.7654  -13.5901   20.3122 C   0  0  0  0  0  0  0  0  0  0  0  0
  -30.2950  -18.8398   21.8492 C   0  0  0  0  0  0  0  0  0  0  0  0
  -30.5213  -21.2339   21.7617 C   0  0  0  0  0  0  0  0  0  0  0  0
  -22.5522  -12.4531   20.5513 C   0  0  0  0  0  0  0  0  0  0  0  0
  -24.5664  -32.1750   19.1940 C   0  0  0  0  0  0  0  0  0  0  0  0
  -29.2890  -24.6298   20.7874 C   0  0  0  0  0  0  0  0  0  0  0  0
  -24.8354  -32.8499   22.3554 C   0  0  0  0  0  0  0  0  0  0  0  0
  -25.9904  -31.9184   25.4287 C   0  0  0  0  0  0  0  0  0  0  0  0
  -28.9219  -16.8388   21.5625 C   0  0  0  0  0  0  0  0  0  0  0  0
  -21.6887  -33.7231   15.2722 C   0  0  0  0  0  0  0  0  0  0  0  0
  -23.7326  -30.0370   20.2377 C   0  0  0  0  0  0  0  0  0  0  0  0
  -32.2101  -18.0944   22.9967 C   0  0  0  0  0  0  0  0  0  0  0  0
  -26.2536  -30.9552   21.4813 C   0  0  0  0  0  0  0  0  0  0  0  0
  -22.1458  -34.3286   16.5969 C   0  0  0  0  0  0  0  0  0  0  0  0
  -29.7168  -14.0303   19.4776 C   0  0  0  0  0  0  0  0  0  0  0  0
  -23.6500  -34.1481   16.7755 C   0  0  0  0  0  0  0  0  0  0  0  0
  -28.4692  -13.1674   19.6462 C   0  0  0  0  0  0  0  0  0  0  0  0
  -31.3479  -16.8758   22.5240 C   0  0  0  0  0  0  0  0  0  0  0  0
  -30.1106  -14.7463   20.7713 C   0  0  0  0  0  0  0  0  0  0  0  0
  -27.7550  -14.6530   21.5481 C   0  0  0  0  0  0  0  0  0  0  0  0
  -24.0266  -32.6621   16.8145 C   0  0  1  0  0  0  0  0  0  0  0  0
  -24.0365  -31.5186   20.4374 C   0  0  1  0  0  0  0  0  0  0  0  0
  -27.3143  -13.9940   20.2339 C   0  0  2  0  0  0  0  0  0  0  0  0
  -32.7499  -21.3840   22.9842 C   0  0  0  0  0  0  0  0  0  0  0  0
  -26.0897  -32.6929   27.8136 C   0  0  0  0  0  0  0  0  0  0  0  0
  -27.0327  -34.8340   21.6170 C   0  0  0  0  0  0  0  0  0  0  0  0
  -27.7251  -34.8558   24.0229 C   0  0  0  0  0  0  0  0  0  0  0  0
  -25.4473  -35.6399   23.3752 C   0  0  0  0  0  0  0  0  0  0  0  0
  -24.4660  -29.5659   26.3778 C   0  0  0  0  0  0  0  0  0  0  0  0
  -29.1696  -23.1218   20.8483 C   0  0  0  0  0  0  0  0  0  0  0  0
  -28.1521  -25.3492   20.0879 C   0  0  0  0  0  0  0  0  0  1  0  0
  -25.9796  -33.1699   23.2867 C   0  0  1  0  0  0  0  0  0  0  0  0
  -25.3164  -31.8783   26.7883 C   0  0  2  0  0  0  0  0  0  0  0  0
  -26.5452  -34.6004   23.0609 C   0  0  0  0  0  0  0  0  0  0  0  0
  -26.1766  -11.8555   20.6961 N   0  0  0  0  0  0  0  0  0  0  0  0
  -26.0570  -13.1632   20.4102 N   0  0  0  0  0  0  0  0  0  0  0  0
  -30.1309  -17.4668   21.8628 N   0  0  0  0  0  0  0  0  0  0  0  0
  -25.0185  -31.7563   21.4973 N   0  0  0  0  0  0  0  0  0  0  0  0
  -28.9710  -15.4497   21.3675 N   0  0  0  0  0  0  0  0  0  0  0  0
  -24.4654  -14.8759   20.0306 N   0  0  0  0  0  0  0  0  0  0  0  0
  -21.9111  -11.2349   20.8146 N   0  0  0  0  0  0  0  0  0  0  0  0
  -30.3261  -22.5588   21.5378 N   0  0  0  0  0  0  0  0  0  0  0  0
  -23.7144  -32.0954   18.1090 N   0  0  0  0  0  0  0  0  0  0  0  0
  -25.4856  -32.9291   24.6381 N   0  0  0  0  0  0  0  0  0  0  0  0
  -25.2219  -30.4740   27.2783 N   0  3  0  0  0  0  0  0  0  0  0  0
  -21.8605  -13.4712   20.3095 O   0  0  0  0  0  0  0  0  0  0  0  0
  -25.6661  -32.7152   19.2177 O   0  0  0  0  0  0  0  0  0  0  0  0
  -30.2412  -25.2418   21.2697 O   0  0  0  0  0  0  0  0  0  0  0  0
  -23.8138  -33.5403   22.3931 O   0  0  0  0  0  0  0  0  0  0  0  0
  -26.8786  -31.1342   25.1021 O   0  0  0  0  0  0  0  0  0  0  0  0
  -27.8403  -17.4384   21.5322 O   0  0  0  0  0  0  0  0  0  0  0  0
  -23.7539   -6.1004   21.9447 O   0  0  0  0  0  0  0  0  0  0  0  0
  -28.3588  -26.7458   20.1010 O   0  0  0  0  0  0  0  0  0  1  0  0
  -19.8325   -5.0882   25.6866 F   0  0  0  0  0  0  0  0  0  0  0  0
  -24.3263   -4.6918   24.2535 F   0  0  0  0  0  0  0  0  0  0  0  0
  -29.3582  -20.0666   21.2258 S   0  0  0  0  0  0  0  0  0  0  0  0
  1  2  1  0  0  0  0
  1  5  2  0  0  0  0
  2  6  2  0  0  0  0
  3  8  2  0  0  0  0
  3 15  1  0  0  0  0
  4  9  1  0  0  0  0
  4 15  2  0  0  0  0
  5 17  1  0  0  0  0
  6 19  1  0  0  0  0
  7 10  2  0  0  0  0
  7 18  1  0  0  0  0
  8 23  1  0  0  0  0
  9 23  2  0  0  0  0
 10 24  1  0  0  0  0
 11 12  2  0  0  0  0
 11 25  1  0  0  0  0
 12 26  1  0  0  0  0
 13 20  1  0  0  0  0
 13 24  2  0  0  0  0
 14 26  2  0  0  0  0
 14 27  1  0  0  0  0
 15 28  1  0  0  0  0
 16 28  1  0  0  0  0
 16 29  2  0  0  0  0
 16 32  1  0  0  0  0
 17 19  2  0  0  0  0
 17 38  1  0  0  0  0
 18 20  2  0  0  0  0
 18 39  1  0  0  0  0
 19 49  1  0  0  0  0
 20 41  1  0  0  0  0
 21 22  1  0  0  0  0
 21 30  2  0  0  0  0
 21 40  1  0  0  0  0
 22 31  2  0  0  0  0
 22 52  1  0  0  0  0
 23 80  1  0  0  0  0
 24 81  1  0  0  0  0
 25 27  2  0  0  0  0
 25 80  1  0  0  0  0
 26 82  1  0  0  0  0
 27 83  1  0  0  0  0
 28 63  2  0  0  0  0
 29 64  1  0  0  0  0
 29 68  1  0  0  0  0
 30 65  1  0  0  0  0
 30 84  1  0  0  0  0
 31 70  1  0  0  0  0
 31 84  1  0  0  0  0
 32 69  1  0  0  0  0
 32 74  2  0  0  0  0
 33 50  1  0  0  0  0
 33 71  1  0  0  0  0
 33 75  2  0  0  0  0
 34 58  1  0  0  0  0
 34 59  1  0  0  0  0
 34 76  2  0  0  0  0
 35 60  1  0  0  0  0
 35 66  1  0  0  0  0
 35 77  2  0  0  0  0
 36 61  1  0  0  0  0
 36 72  1  0  0  0  0
 36 78  2  0  0  0  0
 37 65  1  0  0  0  0
 37 67  1  0  0  0  0
 37 79  2  0  0  0  0
 38 42  1  0  0  0  0
 39 50  1  0  0  0  0
 40 46  1  0  0  0  0
 41 66  1  0  0  0  0
 42 44  1  0  0  0  0
 43 45  1  0  0  0  0
 43 47  1  0  0  0  0
 44 49  1  0  0  0  0
 45 51  1  0  0  0  0
 46 65  1  0  0  0  0
 47 67  1  0  0  0  0
 48 51  1  0  0  0  0
 48 67  1  0  0  0  0
 49 71  1  0  0  0  0
 50 66  1  0  0  0  0
 51 64  1  0  0  0  0
 53 61  1  0  0  0  0
 54 62  1  0  0  0  0
 55 62  1  0  0  0  0
 56 62  1  0  0  0  0
 57 73  1  0  0  0  0
 58 70  1  0  0  0  0
 59 81  1  0  0  0  0
 60 62  1  0  0  0  0
 60 72  1  0  0  0  0
 61 73  1  0  0  0  0
 63 64  1  0  0  0  0
M  CHG  1  73   1
M  ISO  4  37 100  59 101  65 100  81 101
M  END
> <Batch ID>
0150

> <Smiles>
CNC(C)C(=O)NC(C(=O)N1Cc2cc([101O:1][101CH2:1]C(=O)CNc3sc4c(c3C)CC[100N:0]4[100C:0](=O)N3CCCC(n4nc(-c5ccc(Oc6ccc(F)cc6F)cc5)c(C(N)=O)c4N)C3)ccc2CC1C(=O)NC1CCCc2ccccc21)C(C)(C)C

> <Shape>
0.317

> <Color>
0.140

> <Negative vol penalty>
0.000

$$$$

  -OEChem-04052303213D

 86 95  0     1  0  0  0  0  0999 V2000
  -33.5592  -34.5067   16.4786 C   0  0  0  0  0  0  0  0  0  0  0  0
  -32.8920  -33.2930   16.6099 C   0  0  0  0  0  0  0  0  0  0  0  0
  -24.7202   -9.2182   21.1945 C   0  0  0  0  0  0  0  0  0  0  0  0
  -24.8457  -10.2872   23.3575 C   0  0  0  0  0  0  0  0  0  0  0  0
  -33.6336  -35.3807   17.5623 C   0  0  0  0  0  0  0  0  0  0  0  0
  -32.2998  -32.9521   17.8255 C   0  0  0  0  0  0  0  0  0  0  0  0
  -27.1315  -29.7687   18.6382 C   0  0  0  0  0  0  0  0  0  0  0  0
  -24.5432   -7.9820   21.8157 C   0  0  0  0  0  0  0  0  0  0  0  0
  -24.6687   -9.0509   23.9788 C   0  0  0  0  0  0  0  0  0  0  0  0
  -26.8928  -28.4273   18.9339 C   0  0  0  0  0  0  0  0  0  0  0  0
  -22.0295   -6.2790   23.3037 C   0  0  0  0  0  0  0  0  0  0  0  0
  -21.0354   -5.4383   22.8031 C   0  0  0  0  0  0  0  0  0  0  0  0
  -26.7039  -28.9828   21.2737 C   0  0  0  0  0  0  0  0  0  0  0  0
  -28.0643  -21.3597   22.2124 C   0  0  0  0  0  0  0  0  0  0  0  0
  -22.7000   -3.7529   22.3278 C   0  0  0  0  0  0  0  0  0  0  0  0
  -24.8715  -10.3709   21.9654 C   0  0  0  0  0  0  0  0  0  0  0  0
  -24.0516  -12.5554   20.9343 C   0  0  0  0  0  0  0  0  0  0  0  0
  -33.0338  -35.0546   18.7889 C   0  0  0  0  0  0  0  0  0  0  0  0
  -27.1691  -30.7272   19.6611 C   0  0  0  0  0  0  0  0  0  0  0  0
  -32.3675  -33.8220   18.9270 C   0  0  0  0  0  0  0  0  0  0  0  0
  -26.9408  -30.3361   20.9881 C   0  0  0  0  0  0  0  0  0  0  0  0
  -28.6301  -20.1706   21.6682 C   0  0  0  0  0  0  0  0  0  0  0  0
  -24.5175   -7.8983   23.2078 C   0  0  0  0  0  0  0  0  0  0  0  0
  -26.6818  -28.0337   20.2521 C   0  0  0  0  0  0  0  0  0  0  0  0
  -23.3589   -5.8567   23.3163 C   0  0  0  0  0  0  0  0  0  0  0  0
  -21.3707   -4.1753   22.3152 C   0  0  0  0  0  0  0  0  0  0  0  0
  -23.6941   -4.5937   22.8284 C   0  0  0  0  0  0  0  0  0  0  0  0
  -25.0548  -11.6481   21.3243 C   0  0  0  0  0  0  0  0  0  0  0  0
  -26.6919  -21.2846   22.3046 C   0  0  0  0  0  0  0  0  0  0  0  0
  -24.7372  -13.6065   20.3761 C   0  0  0  0  0  0  0  0  0  0  0  0
  -27.6684  -19.2318   21.3654 C   0  0  0  0  0  0  0  0  0  0  0  0
  -22.6272  -12.4570   21.0651 C   0  0  0  0  0  0  0  0  0  0  0  0
  -29.3768  -32.7144   20.7930 C   0  0  0  0  0  0  0  0  0  0  0  0
  -26.9105  -33.8069   22.5947 C   0  0  0  0  0  0  0  0  0  0  0  0
  -23.8713  -33.1953   24.0215 C   0  0  0  0  0  0  0  0  0  0  0  0
  -28.9354  -17.2637   20.4340 C   0  0  0  0  0  0  0  0  0  0  0  0
  -33.1814  -36.0106   19.9460 C   0  0  0  0  0  0  0  0  0  0  0  0
  -27.4014  -32.1742   19.3226 C   0  0  0  0  0  0  0  0  0  0  0  0
  -26.9507  -31.3292   22.1204 C   0  0  0  0  0  0  0  0  0  0  0  0
  -32.2054  -35.7398   21.0882 C   0  0  0  0  0  0  0  0  0  0  0  0
  -29.6100  -14.0419   19.0766 C   0  0  0  0  0  0  0  0  0  0  0  0
  -32.1738  -34.2517   21.4218 C   0  0  0  0  0  0  0  0  0  0  0  0
  -28.4025  -13.2066   19.5083 C   0  0  0  0  0  0  0  0  0  0  0  0
  -24.3024  -25.3119   21.4884 C   0  0  0  0  0  0  0  0  0  0  0  0
  -30.0195  -15.0453   20.1533 C   0  0  0  0  0  0  0  0  0  0  0  0
  -27.7314  -15.0803   21.0657 C   0  0  0  0  0  0  0  0  0  0  0  0
  -23.9615  -24.0231   22.2223 C   0  0  0  0  0  0  0  0  0  0  0  0
  -25.8644  -23.6969   20.7108 C   0  0  0  0  0  0  0  0  0  0  0  0
  -31.6911  -33.4275   20.2221 C   0  0  1  0  0  0  0  0  0  0  0  0
  -27.9281  -32.9866   20.5016 C   0  0  1  0  0  0  0  0  0  0  0  0
  -27.2415  -14.0999   19.9876 C   0  0  2  0  0  0  0  0  0  0  0  0
  -25.0006  -24.8462   20.2166 C   0  0  2  0  0  0  0  0  0  0  0  0
  -22.1223  -34.2669   25.4672 C   0  0  0  0  0  0  0  0  0  0  0  0
  -28.6707  -33.3649   25.0476 C   0  0  0  0  0  0  0  0  0  0  0  0
  -26.6144  -33.5291   26.4664 C   0  0  0  0  0  0  0  0  0  0  0  0
  -27.3360  -35.4795   25.0887 C   0  0  0  0  0  0  0  0  0  0  0  0
  -21.8184  -32.9762   21.9010 C   0  0  0  0  0  0  0  0  0  0  0  0
  -24.6294  -23.9111   18.0928 C   0  0  0  0  0  0  0  0  0  0  0  0
  -25.7325  -22.3167   22.8196 C   0  0  0  0  0  0  0  0  0  0  0  0
  -25.7980  -25.9426   19.5433 C   0  0  0  0  0  0  0  0  0  1  0  0
  -26.3371  -33.4571   23.9467 C   0  0  1  0  0  0  0  0  0  0  0  0
  -22.5874  -34.0050   24.0432 C   0  0  2  0  0  0  0  0  0  0  0  0
  -27.2412  -33.9384   25.1164 C   0  0  0  0  0  0  0  0  0  0  0  0
  -26.2843  -12.0845   21.0378 N   0  0  0  0  0  0  0  0  0  0  0  0
  -26.0581  -13.2775   20.4619 N   0  0  0  0  0  0  0  0  0  0  0  0
  -27.1884  -32.7313   21.7393 N   0  0  0  0  0  0  0  0  0  0  0  0
  -28.8702  -15.8594   20.5549 N   0  0  0  0  0  0  0  0  0  0  0  0
  -29.9585  -19.9923   21.4741 N   0  0  0  0  0  0  0  0  0  0  0  0
  -24.3331  -14.7707   19.8249 N   0  0  0  0  0  0  0  0  0  0  0  0
  -22.0888  -11.3092   21.6628 N   0  0  0  0  0  0  0  0  0  0  0  0
  -27.7713  -17.9299   20.8157 N   0  0  0  0  0  0  0  0  0  0  0  0
  -30.2529  -33.5202   20.0911 N   0  0  0  0  0  0  0  0  0  0  0  0
  -24.9856  -34.0059   23.9712 N   0  0  0  0  0  0  0  0  0  0  0  0
  -24.9757  -23.0077   21.7311 N   0  3  1  0  0  0  0  0  0  0  0  0
  -21.5047  -33.2787   23.3212 N   0  3  0  0  0  0  0  0  0  0  0  0
  -21.8538  -13.3527   20.6491 O   0  0  0  0  0  0  0  0  0  0  0  0
  -29.6774  -31.8392   21.5963 O   0  0  0  0  0  0  0  0  0  0  0  0
  -27.0981  -34.9913   22.3055 O   0  0  0  0  0  0  0  0  0  0  0  0
  -23.8845  -31.9666   24.0503 O   0  0  0  0  0  0  0  0  0  0  0  0
  -29.9395  -17.8314   19.9965 O   0  0  0  0  0  0  0  0  0  0  0  0
  -24.3446   -6.6922   23.8144 O   0  0  0  0  0  0  0  0  0  0  0  0
  -26.4492  -26.7249   20.5435 O   0  0  0  0  0  0  0  0  0  1  0  0
  -24.0257  -24.3579   19.2971 O   0  0  0  0  0  0  0  0  0  0  0  0
  -20.4157   -3.3675   21.8359 F   0  0  0  0  0  0  0  0  0  0  0  0
  -24.9694   -4.1820   22.8390 F   0  0  0  0  0  0  0  0  0  0  0  0
  -26.0910  -19.7851   21.7366 S   0  0  0  0  0  0  0  0  0  0  0  0
  1  2  1  0  0  0  0
  1  5  2  0  0  0  0
  2  6  2  0  0  0  0
  3  8  2  0  0  0  0
  3 16  1  0  0  0  0
  4  9  1  0  0  0  0
  4 16  2  0  0  0  0
  5 18  1  0  0  0  0
  6 20  1  0  0  0  0
  7 10  2  0  0  0  0
  7 19  1  0  0  0  0
  8 23  1  0  0  0  0
  9 23  2  0  0  0  0
 10 24  1  0  0  0  0
 11 12  2  0  0  0  0
 11 25  1  0  0  0  0
 12 26  1  0  0  0  0
 13 21  1  0  0  0  0
 13 24  2  0  0  0  0
 14 22  1  0  0  0  0
 14 29  2  0  0  0  0
 15 26  2  0  0  0  0
 15 27  1  0  0  0  0
 16 28  1  0  0  0  0
 17 28  1  0  0  0  0
 17 30  2  0  0  0  0
 17 32  1  0  0  0  0
 18 20  2  0  0  0  0
 18 37  1  0  0  0  0
 19 21  2  0  0  0  0
 19 38  1  0  0  0  0
 20 49  1  0  0  0  0
 21 39  1  0  0  0  0
 22 31  2  0  0  0  0
 22 68  1  0  0  0  0
 23 81  1  0  0  0  0
 24 82  1  0  0  0  0
 25 27  2  0  0  0  0
 25 81  1  0  0  0  0
 26 84  1  0  0  0  0
 27 85  1  0  0  0  0
 28 64  2  0  0  0  0
 29 59  1  0  0  0  0
 29 86  1  0  0  0  0
 30 65  1  0  0  0  0
 30 69  1  0  0  0  0
 31 71  1  0  0  0  0
 31 86  1  0  0  0  0
 32 70  1  0  0  0  0
 32 76  2  0  0  0  0
 33 50  1  0  0  0  0
 33 72  1  0  0  0  0
 33 77  2  0  0  0  0
 34 61  1  0  0  0  0
 34 66  1  0  0  0  0
 34 78  2  0  0  0  0
 35 62  1  0  0  0  0
 35 73  1  0  0  0  0
 35 79  2  0  0  0  0
 36 67  1  0  0  0  0
 36 71  1  0  0  0  0
 36 80  2  0  0  0  0
 37 40  1  0  0  0  0
 38 50  1  0  0  0  0
 39 66  1  0  0  0  0
 40 42  1  0  0  0  0
 41 43  1  0  0  0  0
 41 45  1  0  0  0  0
 42 49  1  0  0  0  0
 43 51  1  0  0  0  0
 44 47  1  0  0  0  0
 44 52  1  0  0  0  0
 45 67  1  0  0  0  0
 46 51  1  0  0  0  0
 46 67  1  0  0  0  0
 47 74  1  0  0  0  0
 48 52  1  0  0  0  0
 48 74  1  0  0  0  0
 49 72  1  0  0  0  0
 50 66  1  0  0  0  0
 51 65  1  0  0  0  0
 52 60  1  0  0  0  0
 52 83  1  0  0  0  0
 53 62  1  0  0  0  0
 54 63  1  0  0  0  0
 55 63  1  0  0  0  0
 56 63  1  0  0  0  0
 57 75  1  0  0  0  0
 58 83  1  0  0  0  0
 59 74  1  0  0  0  0
 60 82  1  0  0  0  0
 61 63  1  0  0  0  0
 61 73  1  0  0  0  0
 62 75  1  0  0  0  0
 64 65  1  0  0  0  0
M  CHG  2  74   1  75   1
M  ISO  4  36 100  60 101  71 100  82 101
M  END
> <Batch ID>
0150

> <Smiles>
CNC(C)C(=O)NC(C(=O)N1Cc2cc([101O:1][101CH2:1]C3(OC)CCN(Cc4cc(N)c([100NH:0][100C:0](=O)N5CCCC(n6nc(-c7ccc(Oc8ccc(F)cc8F)cc7)c(C(N)=O)c6N)C5)s4)C3)ccc2CC1C(=O)NC1CCCc2ccccc21)C(C)(C)C

> <Shape>
0.222

> <Color>
0.107

> <Negative vol penalty>
0.000

$$$$

  -OEChem-04052303213D

 83 91  0     1  0  0  0  0  0999 V2000
  -27.3688  -33.6851   13.5371 C   0  0  0  0  0  0  0  0  0  0  0  0
  -27.9787  -32.6567   14.2482 C   0  0  0  0  0  0  0  0  0  0  0  0
  -23.5137  -13.8501   15.3746 C   0  0  0  0  0  0  0  0  0  0  0  0
  -22.8433  -11.8546   16.5601 C   0  0  0  0  0  0  0  0  0  0  0  0
  -26.4724  -34.5387   14.1789 C   0  0  0  0  0  0  0  0  0  0  0  0
  -27.6934  -32.4819   15.6019 C   0  0  0  0  0  0  0  0  0  0  0  0
  -27.3653  -27.1743   18.6397 C   0  0  0  0  0  0  0  0  0  0  0  0
  -22.7213  -13.4723   14.2906 C   0  0  0  0  0  0  0  0  0  0  0  0
  -22.0509  -11.4768   15.4761 C   0  0  0  0  0  0  0  0  0  0  0  0
  -28.2762  -26.5008   19.4523 C   0  0  0  0  0  0  0  0  0  0  0  0
  -22.4965  -10.0632   12.4373 C   0  0  0  0  0  0  0  0  0  0  0  0
  -22.5640   -8.7349   12.0170 C   0  0  0  0  0  0  0  0  0  0  0  0
  -28.7607  -18.9538   21.0508 C   0  0  0  0  0  0  0  0  0  0  0  0
  -28.5430  -20.2543   21.5907 C   0  0  0  0  0  0  0  0  0  0  0  0
  -27.2443  -27.4727   21.4042 C   0  0  0  0  0  0  0  0  0  0  0  0
  -20.2025   -8.4757   12.4570 C   0  0  0  0  0  0  0  0  0  0  0  0
  -23.5747  -13.0412   16.5093 C   0  0  0  0  0  0  0  0  0  0  0  0
  -24.0074  -14.2154   18.7323 C   0  0  0  0  0  0  0  0  0  0  0  0
  -26.1686  -34.3683   15.5388 C   0  0  0  0  0  0  0  0  0  0  0  0
  -26.3923  -28.0120   19.2035 C   0  0  0  0  0  0  0  0  0  0  0  0
  -26.7932  -33.3348   16.2629 C   0  0  0  0  0  0  0  0  0  0  0  0
  -26.3206  -28.1537   20.5967 C   0  0  0  0  0  0  0  0  0  0  0  0
  -21.9899  -12.2857   14.3413 C   0  0  0  0  0  0  0  0  0  0  0  0
  -28.2177  -26.6522   20.8346 C   0  0  0  0  0  0  0  0  0  0  0  0
  -21.2820  -10.5977   12.8675 C   0  0  0  0  0  0  0  0  0  0  0  0
  -21.4170   -7.9412   12.0268 C   0  0  0  0  0  0  0  0  0  0  0  0
  -20.1351   -9.8040   12.8773 C   0  0  0  0  0  0  0  0  0  0  0  0
  -24.3934  -13.4306   17.6292 C   0  0  0  0  0  0  0  0  0  0  0  0
  -30.0396  -18.5016   21.2901 C   0  0  0  0  0  0  0  0  0  0  0  0
  -25.1375  -14.2959   19.5087 C   0  0  0  0  0  0  0  0  0  0  0  0
  -29.6640  -20.7464   22.2225 C   0  0  0  0  0  0  0  0  0  0  0  0
  -30.6555  -17.2204   20.9015 C   0  0  0  0  0  0  0  0  0  0  0  0
  -22.7404  -14.8176   19.0287 C   0  0  0  0  0  0  0  0  0  0  0  0
  -25.7179  -31.1124   19.0120 C   0  0  0  0  0  0  0  0  0  0  0  0
  -23.1343  -30.2615   20.7793 C   0  0  0  0  0  0  0  0  0  0  0  0
  -29.2113  -23.1809   22.5136 C   0  0  0  0  0  0  0  0  0  0  0  0
  -21.7159  -28.0524   22.9599 C   0  0  0  0  0  0  0  0  0  0  0  0
  -30.6393  -15.1420   19.9159 C   0  0  0  0  0  0  0  0  0  0  0  0
  -25.2294  -35.3451   16.2008 C   0  0  0  0  0  0  0  0  0  0  0  0
  -25.4001  -28.7106   18.3147 C   0  0  0  0  0  0  0  0  0  0  0  0
  -25.2822  -29.0254   21.2527 C   0  0  0  0  0  0  0  0  0  0  0  0
  -24.6959  -34.8607   17.5465 C   0  0  0  0  0  0  0  0  0  0  0  0
  -29.5111  -11.7821   19.2503 C   0  0  0  0  0  0  0  0  0  0  0  0
  -25.8304  -34.3057   18.4020 C   0  0  0  0  0  0  0  0  0  0  0  0
  -28.0563  -11.9822   18.8259 C   0  0  0  0  0  0  0  0  0  0  0  0
  -30.3948  -12.9338   18.7811 C   0  0  0  0  0  0  0  0  0  0  0  0
  -28.4591  -14.4835   18.7978 C   0  0  0  0  0  0  0  0  0  0  0  0
  -26.4906  -33.0977   17.7265 C   0  0  1  0  0  0  0  0  0  0  0  0
  -24.7774  -29.9415   18.9662 C   0  0  1  0  0  0  0  0  0  0  0  0
  -27.5315  -13.3556   19.2810 C   0  0  1  0  0  0  0  0  0  0  0  0
  -19.6064  -27.6429   24.2558 C   0  0  0  0  0  0  0  0  0  0  0  0
  -23.9417  -32.4258   22.7728 C   0  0  0  0  0  0  0  0  0  0  0  0
  -22.4163  -31.3564   24.4454 C   0  0  0  0  0  0  0  0  0  0  0  0
  -21.4853  -32.2838   22.3251 C   0  0  0  0  0  0  0  0  0  0  0  0
  -30.7864  -21.9672   24.0705 C   0  0  0  0  0  0  0  0  0  0  0  0
  -21.2256  -25.4838   21.5739 C   0  0  0  0  0  0  0  0  0  0  0  0
  -29.4251  -24.4016   23.4091 C   0  0  0  0  0  0  0  0  0  0  0  0
  -28.6631  -25.6346   22.9375 C   0  0  0  0  0  0  0  0  0  1  0  0
  -22.8388  -30.1494   22.2555 C   0  0  1  0  0  0  0  0  0  0  0  0
  -20.3598  -27.3703   22.9632 C   0  0  2  0  0  0  0  0  0  0  0  0
  -22.6915  -31.5389   22.9375 C   0  0  0  0  0  0  0  0  0  0  0  0
  -25.6692  -13.0406   17.6951 N   0  0  0  0  0  0  0  0  0  0  0  0
  -29.9982  -16.3207   20.2458 N   0  0  0  0  0  0  0  0  0  0  0  0
  -26.0946  -13.5826   18.8490 N   0  0  0  0  0  0  0  0  0  0  0  0
  -24.3384  -29.6925   20.3407 N   0  0  0  0  0  0  0  0  0  0  0  0
  -29.8467  -14.2234   19.2036 N   0  0  0  0  0  0  0  0  0  0  0  0
  -25.3960  -14.9067   20.6845 N   0  0  0  0  0  0  0  0  0  0  0  0
  -21.6859  -14.6352   18.1238 N   0  0  0  0  0  0  0  0  0  0  0  0
  -25.6701  -31.9167   17.8894 N   0  0  0  0  0  0  0  0  0  0  0  0
  -21.6595  -29.2985   22.3722 N   0  0  0  0  0  0  0  0  0  0  0  0
  -29.8937  -22.0059   22.9015 N   0  0  0  0  0  0  0  0  0  0  0  0
  -20.5210  -25.8962   22.8150 N   0  3  0  0  0  0  0  0  0  0  0  0
  -22.5538  -15.5111   20.0572 O   0  0  0  0  0  0  0  0  0  0  0  0
  -26.4329  -31.2750   19.9938 O   0  0  0  0  0  0  0  0  0  0  0  0
  -22.3234  -30.8267   20.0414 O   0  0  0  0  0  0  0  0  0  0  0  0
  -28.4532  -23.2671   21.5444 O   0  0  0  0  0  0  0  0  0  0  0  0
  -22.7237  -27.5334   23.4347 O   0  0  0  0  0  0  0  0  0  0  0  0
  -31.8121  -14.8930   20.2053 O   0  0  0  0  0  0  0  0  0  0  0  0
  -21.2165  -11.9169   13.2838 O   0  0  0  0  0  0  0  0  0  0  0  0
  -29.1060  -25.9965   21.6301 O   0  0  0  0  0  0  0  0  0  1  0  0
  -21.4817   -6.6661   11.6216 F   0  0  0  0  0  0  0  0  0  0  0  0
  -18.9653  -10.3123   13.2885 F   0  0  0  0  0  0  0  0  0  0  0  0
  -30.9718  -19.6427   22.1627 S   0  0  0  0  0  0  0  0  0  0  0  0
  1  2  1  0  0  0  0
  1  5  2  0  0  0  0
  2  6  2  0  0  0  0
  3  8  2  0  0  0  0
  3 17  1  0  0  0  0
  4  9  1  0  0  0  0
  4 17  2  0  0  0  0
  5 19  1  0  0  0  0
  6 21  1  0  0  0  0
  7 10  2  0  0  0  0
  7 20  1  0  0  0  0
  8 23  1  0  0  0  0
  9 23  2  0  0  0  0
 10 24  1  0  0  0  0
 11 12  2  0  0  0  0
 11 25  1  0  0  0  0
 12 26  1  0  0  0  0
 13 14  1  0  0  0  0
 13 29  2  0  0  0  0
 14 31  2  0  0  0  0
 15 22  1  0  0  0  0
 15 24  2  0  0  0  0
 16 26  2  0  0  0  0
 16 27  1  0  0  0  0
 17 28  1  0  0  0  0
 18 28  1  0  0  0  0
 18 30  2  0  0  0  0
 18 33  1  0  0  0  0
 19 21  2  0  0  0  0
 19 39  1  0  0  0  0
 20 22  2  0  0  0  0
 20 40  1  0  0  0  0
 21 48  1  0  0  0  0
 22 41  1  0  0  0  0
 23 79  1  0  0  0  0
 24 80  1  0  0  0  0
 25 27  2  0  0  0  0
 25 79  1  0  0  0  0
 26 81  1  0  0  0  0
 27 82  1  0  0  0  0
 28 62  2  0  0  0  0
 29 32  1  0  0  0  0
 29 83  1  0  0  0  0
 30 64  1  0  0  0  0
 30 67  1  0  0  0  0
 31 71  1  0  0  0  0
 31 83  1  0  0  0  0
 32 63  2  0  0  0  0
 33 68  1  0  0  0  0
 33 73  2  0  0  0  0
 34 49  1  0  0  0  0
 34 69  1  0  0  0  0
 34 74  2  0  0  0  0
 35 59  1  0  0  0  0
 35 65  1  0  0  0  0
 35 75  2  0  0  0  0
 36 57  1  0  0  0  0
 36 71  1  0  0  0  0
 36 76  2  0  0  0  0
 37 60  1  0  0  0  0
 37 70  1  0  0  0  0
 37 77  2  0  0  0  0
 38 63  1  0  0  0  0
 38 66  1  0  0  0  0
 38 78  2  0  0  0  0
 39 42  1  0  0  0  0
 40 49  1  0  0  0  0
 41 65  1  0  0  0  0
 42 44  1  0  0  0  0
 43 45  1  0  0  0  0
 43 46  1  0  0  0  0
 44 48  1  0  0  0  0
 45 50  1  0  0  0  0
 46 66  1  0  0  0  0
 47 50  1  0  0  0  0
 47 66  1  0  0  0  0
 48 69  1  0  0  0  0
 49 65  1  0  0  0  0
 50 64  1  0  0  0  0
 51 60  1  0  0  0  0
 52 61  1  0  0  0  0
 53 61  1  0  0  0  0
 54 61  1  0  0  0  0
 55 71  1  0  0  0  0
 56 72  1  0  0  0  0
 57 58  1  0  0  0  0
 58 80  1  0  0  0  0
 59 61  1  0  0  0  0
 59 70  1  0  0  0  0
 60 72  1  0  0  0  0
 62 64  1  0  0  0  0
M  CHG  1  72   1
M  ISO  4  38 100  58 101  63 100  80 101
M  END
> <Batch ID>
0150

> <Smiles>
CNC(C)C(=O)NC(C(=O)N1Cc2cc([101O:1][101CH2:1]CC(=O)N(C)c3ccc(C=[100N:0][100C:0](=O)N4CCCC(n5nc(-c6ccc(Oc7ccc(F)cc7F)cc6)c(C(N)=O)c5N)C4)s3)ccc2CC1C(=O)NC1CCCc2ccccc21)C(C)(C)C

> <Shape>
0.198

> <Color>
0.104

> <Negative vol penalty>
0.000

$$$$

  -OEChem-04052303213D

 84 93  0     1  0  0  0  0  0999 V2000
  -36.5498  -33.6195   20.5869 C   0  0  0  0  0  0  0  0  0  0  0  0
  -35.7555  -32.5513   20.1825 C   0  0  0  0  0  0  0  0  0  0  0  0
  -23.0998   -9.8266   20.5606 C   0  0  0  0  0  0  0  0  0  0  0  0
  -23.8173  -10.3102   22.8163 C   0  0  0  0  0  0  0  0  0  0  0  0
  -36.4915  -34.0703   21.9049 C   0  0  0  0  0  0  0  0  0  0  0  0
  -34.9032  -31.9326   21.0964 C   0  0  0  0  0  0  0  0  0  0  0  0
  -29.3930  -29.5217   19.9424 C   0  0  0  0  0  0  0  0  0  0  0  0
  -22.3588   -8.7416   21.0288 C   0  0  0  0  0  0  0  0  0  0  0  0
  -23.0762   -9.2253   23.2846 C   0  0  0  0  0  0  0  0  0  0  0  0
  -28.9715  -28.2130   19.7115 C   0  0  0  0  0  0  0  0  0  0  0  0
  -19.8426   -8.5355   23.9836 C   0  0  0  0  0  0  0  0  0  0  0  0
  -19.0645   -8.7285   25.1250 C   0  0  0  0  0  0  0  0  0  0  0  0
  -28.3757  -28.0004   22.0393 C   0  0  0  0  0  0  0  0  0  0  0  0
  -20.3043   -6.9952   26.2633 C   0  0  0  0  0  0  0  0  0  0  0  0
  -31.7357  -19.0563   21.1540 C   0  0  0  0  0  0  0  0  0  0  0  0
  -23.8292  -10.6109   21.4543 C   0  0  0  0  0  0  0  0  0  0  0  0
  -24.1572  -13.0613   20.8255 C   0  0  0  0  0  0  0  0  0  0  0  0
  -35.6309  -33.4630   22.8330 C   0  0  0  0  0  0  0  0  0  0  0  0
  -29.3191  -30.0769   21.2280 C   0  0  0  0  0  0  0  0  0  0  0  0
  -34.8343  -32.3748   22.4284 C   0  0  0  0  0  0  0  0  0  0  0  0
  -28.7945  -29.3173   22.2835 C   0  0  0  0  0  0  0  0  0  0  0  0
  -22.3469   -8.4410   22.3909 C   0  0  0  0  0  0  0  0  0  0  0  0
  -28.4654  -27.4511   20.7606 C   0  0  0  0  0  0  0  0  0  0  0  0
  -20.8516   -7.5724   23.9819 C   0  0  0  0  0  0  0  0  0  0  0  0
  -19.2953   -7.9584   26.2649 C   0  0  0  0  0  0  0  0  0  0  0  0
  -21.0824   -6.8022   25.1218 C   0  0  0  0  0  0  0  0  0  0  0  0
  -24.5953  -11.7314   20.9711 C   0  0  0  0  0  0  0  0  0  0  0  0
  -30.6183  -19.5568   21.7889 C   0  0  0  0  0  0  0  0  0  0  0  0
  -25.2511  -13.7314   20.3348 C   0  0  0  0  0  0  0  0  0  0  0  0
  -30.5152  -17.2342   21.1586 C   0  0  0  0  0  0  0  0  0  0  0  0
  -22.8760  -13.6393   21.1086 C   0  0  0  0  0  0  0  0  0  0  0  0
  -31.4393  -31.2109   23.3070 C   0  0  0  0  0  0  0  0  0  0  0  0
  -28.7816  -32.0357   24.9739 C   0  0  0  0  0  0  0  0  0  0  0  0
  -25.4746  -31.4846   25.6119 C   0  0  0  0  0  0  0  0  0  0  0  0
  -30.7065  -14.8449   20.3833 C   0  0  0  0  0  0  0  0  0  0  0  0
  -35.6373  -33.9548   24.2587 C   0  0  0  0  0  0  0  0  0  0  0  0
  -29.7530  -31.4990   21.4552 C   0  0  0  0  0  0  0  0  0  0  0  0
  -28.6752  -29.8736   23.6780 C   0  0  0  0  0  0  0  0  0  0  0  0
  -34.4321  -33.4861   25.0700 C   0  0  0  0  0  0  0  0  0  0  0  0
  -29.6511  -11.9867   18.5409 C   0  0  0  0  0  0  0  0  0  0  0  0
  -34.1908  -31.9954   24.8549 C   0  0  0  0  0  0  0  0  0  0  0  0
  -28.2056  -11.7749   18.9969 C   0  0  0  0  0  0  0  0  0  0  0  0
  -29.6496  -23.7657   20.2012 C   0  0  0  0  0  0  0  0  0  0  0  0
  -30.5424  -12.4656   19.6854 C   0  0  0  0  0  0  0  0  0  0  0  0
  -28.6059  -13.4383   20.8570 C   0  0  0  0  0  0  0  0  0  0  0  0
  -30.0374  -22.2937   20.1985 C   0  0  0  0  0  0  0  0  0  0  0  0
  -28.7098  -22.8484   22.1740 C   0  0  0  0  0  0  0  0  0  0  0  0
  -33.8789  -31.6936   23.3841 C   0  0  1  0  0  0  0  0  0  0  0  0
  -30.1108  -31.7895   22.9095 C   0  0  1  0  0  0  0  0  0  0  0  0
  -27.6560  -13.0181   19.7235 C   0  0  2  0  0  0  0  0  0  0  0  0
  -28.3856  -23.8467   21.0631 C   0  0  2  0  0  0  0  0  0  0  0  0
  -27.1385  -23.4241   20.2688 C   0  0  0  0  0  0  0  0  0  0  0  0
  -23.5852  -32.2917   27.0528 C   0  0  0  0  0  0  0  0  0  0  0  0
  -29.9674  -30.5468   27.3587 C   0  0  0  0  0  0  0  0  0  0  0  0
  -27.6957  -30.5654   28.4111 C   0  0  0  0  0  0  0  0  0  0  0  0
  -28.8624  -32.7168   27.9282 C   0  0  0  0  0  0  0  0  0  0  0  0
  -23.8732  -32.2957   23.2590 C   0  0  0  0  0  0  0  0  0  0  0  0
  -30.3477  -20.9369   22.3116 C   0  0  0  0  0  0  0  0  0  0  0  0
  -28.1729  -25.2543   21.6232 C   0  0  0  0  0  0  0  0  0  1  0  0
  -27.9195  -31.3612   26.0137 C   0  0  1  0  0  0  0  0  0  0  0  0
  -24.2966  -32.4364   25.7165 C   0  0  2  0  0  0  0  0  0  0  0  0
  -28.6152  -31.2862   27.4022 C   0  0  0  0  0  0  0  0  0  0  0  0
  -31.6785  -17.7246   20.7922 N   0  0  0  0  0  0  0  0  0  0  0  0
  -25.8683  -11.5646   20.6025 N   0  0  0  0  0  0  0  0  0  0  0  0
  -26.2393  -12.7985   20.2204 N   0  0  0  0  0  0  0  0  0  0  0  0
  -29.1185  -31.2668   23.8509 N   0  0  0  0  0  0  0  0  0  0  0  0
  -29.9609  -13.6485   20.3237 N   0  0  0  0  0  0  0  0  0  0  0  0
  -25.4544  -15.0218   19.9942 N   0  0  0  0  0  0  0  0  0  0  0  0
  -21.8638  -12.8083   21.6079 N   0  0  0  0  0  0  0  0  0  0  0  0
  -30.0383  -15.9113   20.9840 N   0  0  0  0  0  0  0  0  0  0  0  0
  -32.5113  -32.0511   23.0738 N   0  0  0  0  0  0  0  0  0  0  0  0
  -26.6498  -32.0796   26.0196 N   0  0  0  0  0  0  0  0  0  0  0  0
  -29.4062  -21.7154   21.4500 N   0  3  2  0  0  0  0  0  0  0  0  0
  -23.3140  -32.1659   24.6292 N   0  3  0  0  0  0  0  0  0  0  0  0
  -22.6309  -14.8532   20.9088 O   0  0  0  0  0  0  0  0  0  0  0  0
  -31.4880  -30.0861   23.7910 O   0  0  0  0  0  0  0  0  0  0  0  0
  -29.1367  -33.2040   25.1483 O   0  0  0  0  0  0  0  0  0  0  0  0
  -25.3627  -30.3277   25.2124 O   0  0  0  0  0  0  0  0  0  0  0  0
  -31.8429  -14.9256   19.9100 O   0  0  0  0  0  0  0  0  0  0  0  0
  -21.6237   -7.3825   22.8482 O   0  0  0  0  0  0  0  0  0  0  0  0
  -28.0539  -26.1733   20.5380 O   0  0  0  0  0  0  0  0  0  1  0  0
  -18.5490   -8.1448   27.3614 F   0  0  0  0  0  0  0  0  0  0  0  0
  -22.0511   -5.8762   25.1266 F   0  0  0  0  0  0  0  0  0  0  0  0
  -29.4413  -18.3190   21.9428 S   0  0  0  0  0  0  0  0  0  0  0  0
  1  2  1  0  0  0  0
  1  5  2  0  0  0  0
  2  6  2  0  0  0  0
  3  8  2  0  0  0  0
  3 16  1  0  0  0  0
  4  9  1  0  0  0  0
  4 16  2  0  0  0  0
  5 18  1  0  0  0  0
  6 20  1  0  0  0  0
  7 10  2  0  0  0  0
  7 19  1  0  0  0  0
  8 22  1  0  0  0  0
  9 22  2  0  0  0  0
 10 23  1  0  0  0  0
 11 12  2  0  0  0  0
 11 24  1  0  0  0  0
 12 25  1  0  0  0  0
 13 21  1  0  0  0  0
 13 23  2  0  0  0  0
 14 25  2  0  0  0  0
 14 26  1  0  0  0  0
 15 28  2  0  0  0  0
 15 63  1  0  0  0  0
 16 27  1  0  0  0  0
 17 27  1  0  0  0  0
 17 29  2  0  0  0  0
 17 31  1  0  0  0  0
 18 20  2  0  0  0  0
 18 36  1  0  0  0  0
 19 21  2  0  0  0  0
 19 37  1  0  0  0  0
 20 48  1  0  0  0  0
 21 38  1  0  0  0  0
 22 80  1  0  0  0  0
 23 81  1  0  0  0  0
 24 26  2  0  0  0  0
 24 80  1  0  0  0  0
 25 82  1  0  0  0  0
 26 83  1  0  0  0  0
 27 64  2  0  0  0  0
 28 58  1  0  0  0  0
 28 84  1  0  0  0  0
 29 65  1  0  0  0  0
 29 68  1  0  0  0  0
 30 63  2  0  0  0  0
 30 70  1  0  0  0  0
 30 84  1  0  0  0  0
 31 69  1  0  0  0  0
 31 75  2  0  0  0  0
 32 49  1  0  0  0  0
 32 71  1  0  0  0  0
 32 76  2  0  0  0  0
 33 60  1  0  0  0  0
 33 66  1  0  0  0  0
 33 77  2  0  0  0  0
 34 61  1  0  0  0  0
 34 72  1  0  0  0  0
 34 78  2  0  0  0  0
 35 67  1  0  0  0  0
 35 70  1  0  0  0  0
 35 79  2  0  0  0  0
 36 39  1  0  0  0  0
 37 49  1  0  0  0  0
 38 66  1  0  0  0  0
 39 41  1  0  0  0  0
 40 42  1  0  0  0  0
 40 44  1  0  0  0  0
 41 48  1  0  0  0  0
 42 50  1  0  0  0  0
 43 46  1  0  0  0  0
 43 51  1  0  0  0  0
 44 67  1  0  0  0  0
 45 50  1  0  0  0  0
 45 67  1  0  0  0  0
 46 73  1  0  0  0  0
 47 51  1  0  0  0  0
 47 73  1  0  0  0  0
 48 71  1  0  0  0  0
 49 66  1  0  0  0  0
 50 65  1  0  0  0  0
 51 52  1  0  0  0  0
 51 59  1  0  0  0  0
 53 61  1  0  0  0  0
 54 62  1  0  0  0  0
 55 62  1  0  0  0  0
 56 62  1  0  0  0  0
 57 74  1  0  0  0  0
 58 73  1  0  0  0  0
 59 81  1  0  0  0  0
 60 62  1  0  0  0  0
 60 72  1  0  0  0  0
 61 74  1  0  0  0  0
 64 65  1  0  0  0  0
M  CHG  2  73   1  74   1
M  ISO  4  35 100  59 101  70 100  81 101
M  END
> <Batch ID>
0150

> <Smiles>
CNC(C)C(=O)NC(C(=O)N1Cc2cc([101O:1][101CH2:1]C3(C)CCN(Cc4cnc([100NH:0][100C:0](=O)N5CCCC(n6nc(-c7ccc(Oc8ccc(F)cc8F)cc7)c(C(N)=O)c6N)C5)s4)C3)ccc2CC1C(=O)NC1CCCc2ccccc21)C(C)(C)C

> <Shape>
0.272

> <Color>
0.169

> <Negative vol penalty>
0.000

$$$$

  -OEChem-04052303213D

 83 91  0     1  0  0  0  0  0999 V2000
  -28.4503  -23.9805   17.0890 C   0  0  0  0  0  0  0  0  0  0  0  0
  -27.2865  -24.6665   17.4176 C   0  0  0  0  0  0  0  0  0  0  0  0
  -26.2636  -13.5562   22.0478 C   0  0  0  0  0  0  0  0  0  0  0  0
  -24.7037  -15.1491   21.1169 C   0  0  0  0  0  0  0  0  0  0  0  0
  -29.5850  -24.1190   17.8855 C   0  0  0  0  0  0  0  0  0  0  0  0
  -27.2606  -25.5004   18.5360 C   0  0  0  0  0  0  0  0  0  0  0  0
  -23.2166  -28.2220   19.2013 C   0  0  0  0  0  0  0  0  0  0  0  0
  -25.2434  -12.6092   22.1369 C   0  0  0  0  0  0  0  0  0  0  0  0
  -23.6835  -14.2020   21.2060 C   0  0  0  0  0  0  0  0  0  0  0  0
  -21.9990  -27.6763   19.6054 C   0  0  0  0  0  0  0  0  0  0  0  0
  -23.6244  -10.4890   20.0593 C   0  0  0  0  0  0  0  0  0  0  0  0
  -23.9052   -9.1915   19.6313 C   0  0  0  0  0  0  0  0  0  0  0  0
  -22.3673  -28.5208   21.8348 C   0  0  0  0  0  0  0  0  0  0  0  0
  -23.4109   -8.3548   21.8433 C   0  0  0  0  0  0  0  0  0  0  0  0
  -24.1141  -23.8307   23.0275 C   0  0  0  0  0  0  0  0  0  0  0  0
  -25.9937  -14.8262   21.5378 C   0  0  0  0  0  0  0  0  0  0  0  0
  -27.9152  -16.0203   20.3590 C   0  0  0  0  0  0  0  0  0  0  0  0
  -29.5684  -24.9455   19.0211 C   0  0  0  0  0  0  0  0  0  0  0  0
  -24.0252  -28.9129   20.1152 C   0  0  0  0  0  0  0  0  0  0  0  0
  -28.4028  -25.6720   19.3388 C   0  0  0  0  0  0  0  0  0  0  0  0
  -23.5936  -29.0765   21.4392 C   0  0  0  0  0  0  0  0  0  0  0  0
  -23.9534  -12.9320   21.7160 C   0  0  0  0  0  0  0  0  0  0  0  0
  -21.5755  -27.8231   20.9230 C   0  0  0  0  0  0  0  0  0  0  0  0
  -23.2369  -10.7194   21.3794 C   0  0  0  0  0  0  0  0  0  0  0  0
  -23.7984   -8.1244   20.5232 C   0  0  0  0  0  0  0  0  0  0  0  0
  -23.1301   -9.6524   22.2713 C   0  0  0  0  0  0  0  0  0  0  0  0
  -27.0470  -15.8051   21.4461 C   0  0  0  0  0  0  0  0  0  0  0  0
  -25.4447  -23.3877   22.7794 C   0  0  0  0  0  0  0  0  0  0  0  0
  -28.7252  -17.0524   20.7655 C   0  0  0  0  0  0  0  0  0  0  0  0
  -23.4083  -23.8945   21.8457 C   0  0  0  0  0  0  0  0  0  0  0  0
  -27.9834  -15.3475   19.0947 C   0  0  0  0  0  0  0  0  0  0  0  0
  -26.9498  -28.4925   21.2873 C   0  0  0  0  0  0  0  0  0  0  0  0
  -26.3935  -31.3794   22.6579 C   0  0  0  0  0  0  0  0  0  0  0  0
  -21.0895  -24.6896   22.4248 C   0  0  0  0  0  0  0  0  0  0  0  0
  -24.1198  -33.6693   23.7687 C   0  0  0  0  0  0  0  0  0  0  0  0
  -28.0087  -21.4771   24.7353 C   0  0  0  0  0  0  0  0  0  0  0  0
  -30.8272  -25.0650   19.8435 C   0  0  0  0  0  0  0  0  0  0  0  0
  -25.3235  -29.5186   19.6569 C   0  0  0  0  0  0  0  0  0  0  0  0
  -24.4152  -29.8269   22.4542 C   0  0  0  0  0  0  0  0  0  0  0  0
  -30.5727  -25.6140   21.2435 C   0  0  0  0  0  0  0  0  0  0  0  0
  -30.5866  -19.0214   24.7087 C   0  0  0  0  0  0  0  0  0  0  0  0
  -29.7216  -26.8724   21.1616 C   0  0  0  0  0  0  0  0  0  0  0  0
  -30.0501  -17.9381   23.7714 C   0  0  0  0  0  0  0  0  0  0  0  0
  -29.4718  -19.6486   25.5429 C   0  0  0  0  0  0  0  0  0  0  0  0
  -27.7959  -19.0845   23.8264 C   0  0  0  0  0  0  0  0  0  0  0  0
  -28.3420  -26.5609   20.5679 C   0  0  1  0  0  0  0  0  0  0  0  0
  -26.3064  -29.7593   20.7986 C   0  0  1  0  0  0  0  0  0  0  0  0
  -28.8748  -18.4615   22.9241 C   0  0  2  0  0  0  0  0  0  0  0  0
  -23.9668  -35.9164   24.8753 C   0  0  0  0  0  0  0  0  0  0  0  0
  -18.6193  -26.4131   19.9628 C   0  0  0  0  0  0  0  0  0  0  0  0
  -27.1150  -30.1071   25.3357 C   0  0  0  0  0  0  0  0  0  0  0  0
  -26.0486  -32.0653   26.4744 C   0  0  0  0  0  0  0  0  0  0  0  0
  -28.0276  -32.4105   24.9956 C   0  0  0  0  0  0  0  0  0  0  0  0
  -22.6972  -34.8417   21.4534 C   0  0  0  0  0  0  0  0  0  0  0  0
  -26.4808  -23.2040   23.8175 C   0  0  0  0  0  0  0  0  0  0  0  0
  -19.7955  -24.9914   21.6752 C   0  0  0  0  0  0  0  0  0  0  0  0
  -25.7909  -31.8459   23.9611 C   0  0  1  0  0  0  0  0  0  0  0  0
  -24.0115  -35.1679   23.5522 C   0  0  2  0  0  0  0  0  0  0  0  0
  -19.9464  -26.1126   20.6471 C   0  0  2  0  0  0  0  0  0  1  0  0
  -26.7307  -31.5913   25.1733 C   0  0  0  0  0  0  0  0  0  0  0  0
  -27.2834  -16.6338   22.4666 N   0  0  0  0  0  0  0  0  0  0  0  0
  -25.7727  -23.1212   21.5174 N   0  0  0  0  0  0  0  0  0  0  0  0
  -28.3093  -17.3797   22.0226 N   0  0  0  0  0  0  0  0  0  0  0  0
  -25.6798  -30.3954   21.9592 N   0  0  0  0  0  0  0  0  0  0  0  0
  -28.3891  -20.1261   24.6795 N   0  0  0  0  0  0  0  0  0  0  0  0
  -29.7454  -17.7028   20.1668 N   0  0  0  0  0  0  0  0  0  0  0  0
  -27.0765  -14.3096   18.8404 N   0  0  0  0  0  0  0  0  0  0  0  0
  -22.0776  -24.2664   21.5397 N   0  0  0  0  0  0  0  0  0  0  0  0
  -27.6463  -27.8031   20.3132 N   0  0  0  0  0  0  0  0  0  0  0  0
  -25.4323  -33.2466   23.7668 N   0  0  0  0  0  0  0  0  0  0  0  0
  -26.9788  -21.8480   23.8795 N   0  0  0  0  0  0  0  0  0  0  0  0
  -22.7748  -35.4926   22.7866 N   0  3  0  0  0  0  0  0  0  0  0  0
  -28.8343  -15.6466   18.2229 O   0  0  0  0  0  0  0  0  0  0  0  0
  -26.8248  -28.1655   22.4617 O   0  0  0  0  0  0  0  0  0  0  0  0
  -27.4545  -31.8752   22.2705 O   0  0  0  0  0  0  0  0  0  0  0  0
  -21.1865  -24.8209   23.6403 O   0  0  0  0  0  0  0  0  0  0  0  0
  -23.1385  -32.9466   23.9275 O   0  0  0  0  0  0  0  0  0  0  0  0
  -28.5507  -22.2936   25.4880 O   0  0  0  0  0  0  0  0  0  0  0  0
  -22.9577  -12.0081   21.8026 O   0  0  0  0  0  0  0  0  0  0  0  0
  -20.3877  -27.2909   21.3202 O   0  0  0  0  0  0  0  0  0  1  0  0
  -24.0666   -6.8783   20.1116 F   0  0  0  0  0  0  0  0  0  0  0  0
  -22.7571   -9.8674   23.5403 F   0  0  0  0  0  0  0  0  0  0  0  0
  -24.4397  -23.4089   20.5674 S   0  0  0  0  0  0  0  0  0  0  0  0
  1  2  1  0  0  0  0
  1  5  2  0  0  0  0
  2  6  2  0  0  0  0
  3  8  2  0  0  0  0
  3 16  1  0  0  0  0
  4  9  1  0  0  0  0
  4 16  2  0  0  0  0
  5 18  1  0  0  0  0
  6 20  1  0  0  0  0
  7 10  2  0  0  0  0
  7 19  1  0  0  0  0
  8 22  1  0  0  0  0
  9 22  2  0  0  0  0
 10 23  1  0  0  0  0
 11 12  2  0  0  0  0
 11 24  1  0  0  0  0
 12 25  1  0  0  0  0
 13 21  1  0  0  0  0
 13 23  2  0  0  0  0
 14 25  2  0  0  0  0
 14 26  1  0  0  0  0
 15 28  1  0  0  0  0
 15 30  2  0  0  0  0
 16 27  1  0  0  0  0
 17 27  1  0  0  0  0
 17 29  2  0  0  0  0
 17 31  1  0  0  0  0
 18 20  2  0  0  0  0
 18 37  1  0  0  0  0
 19 21  2  0  0  0  0
 19 38  1  0  0  0  0
 20 46  1  0  0  0  0
 21 39  1  0  0  0  0
 22 79  1  0  0  0  0
 23 80  1  0  0  0  0
 24 26  2  0  0  0  0
 24 79  1  0  0  0  0
 25 81  1  0  0  0  0
 26 82  1  0  0  0  0
 27 61  2  0  0  0  0
 28 55  1  0  0  0  0
 28 62  2  0  0  0  0
 29 63  1  0  0  0  0
 29 66  1  0  0  0  0
 30 68  1  0  0  0  0
 30 83  1  0  0  0  0
 31 67  1  0  0  0  0
 31 73  2  0  0  0  0
 32 47  1  0  0  0  0
 32 69  1  0  0  0  0
 32 74  2  0  0  0  0
 33 57  1  0  0  0  0
 33 64  1  0  0  0  0
 33 75  2  0  0  0  0
 34 56  1  0  0  0  0
 34 68  1  0  0  0  0
 34 76  2  0  0  0  0
 35 58  1  0  0  0  0
 35 70  1  0  0  0  0
 35 77  2  0  0  0  0
 36 65  1  0  0  0  0
 36 71  1  0  0  0  0
 36 78  2  0  0  0  0
 37 40  1  0  0  0  0
 38 47  1  0  0  0  0
 39 64  1  0  0  0  0
 40 42  1  0  0  0  0
 41 43  1  0  0  0  0
 41 44  1  0  0  0  0
 42 46  1  0  0  0  0
 43 48  1  0  0  0  0
 44 65  1  0  0  0  0
 45 48  1  0  0  0  0
 45 65  1  0  0  0  0
 46 69  1  0  0  0  0
 47 64  1  0  0  0  0
 48 63  1  0  0  0  0
 49 58  1  0  0  0  0
 50 59  1  0  0  0  0
 51 60  1  0  0  0  0
 52 60  1  0  0  0  0
 53 60  1  0  0  0  0
 54 72  1  0  0  0  0
 55 71  1  0  0  0  0
 56 59  1  0  0  0  0
 57 60  1  0  0  0  0
 57 70  1  0  0  0  0
 58 72  1  0  0  0  0
 59 80  1  0  0  0  0
 61 63  1  0  0  0  0
 62 83  1  0  0  0  0
M  CHG  1  72   1
M  ISO  4  36 100  59 101  71 100  80 101
M  END
> <Batch ID>
0150

> <Smiles>
CNC(C)C(=O)NC(C(=O)N1Cc2cc([101O:1][101CH:1](C)CC(=O)Nc3cc(C[100NH:0][100C:0](=O)N4CCCC(n5nc(-c6ccc(Oc7ccc(F)cc7F)cc6)c(C(N)=O)c5N)C4)ns3)ccc2CC1C(=O)NC1CCCc2ccccc21)C(C)(C)C

> <Shape>
0.274

> <Color>
0.078

> <Negative vol penalty>
0.000

$$$$

  -OEChem-04052303213D

 83 91  0     1  0  0  0  0  0999 V2000
  -26.0139  -31.9025   11.8734 C   0  0  0  0  0  0  0  0  0  0  0  0
  -26.3158  -30.6964   12.4975 C   0  0  0  0  0  0  0  0  0  0  0  0
  -23.0450   -9.8946   19.8977 C   0  0  0  0  0  0  0  0  0  0  0  0
  -23.9218   -9.7519   22.1445 C   0  0  0  0  0  0  0  0  0  0  0  0
  -26.5041  -33.0985   12.3962 C   0  0  0  0  0  0  0  0  0  0  0  0
  -27.1091  -30.6854   13.6442 C   0  0  0  0  0  0  0  0  0  0  0  0
  -26.6220  -26.8846   18.4214 C   0  0  0  0  0  0  0  0  0  0  0  0
  -22.3240   -8.7186   20.1044 C   0  0  0  0  0  0  0  0  0  0  0  0
  -23.2008   -8.5759   22.3512 C   0  0  0  0  0  0  0  0  0  0  0  0
  -27.3098  -25.7230   18.7699 C   0  0  0  0  0  0  0  0  0  0  0  0
  -19.4607   -7.7902   21.6447 C   0  0  0  0  0  0  0  0  0  0  0  0
  -18.1310   -7.7627   21.2245 C   0  0  0  0  0  0  0  0  0  0  0  0
  -28.7723  -27.0201   20.1832 C   0  0  0  0  0  0  0  0  0  0  0  0
  -29.4993  -18.8494   20.8986 C   0  0  0  0  0  0  0  0  0  0  0  0
  -18.6371   -5.9220   19.7436 C   0  0  0  0  0  0  0  0  0  0  0  0
  -23.8439  -10.4113   20.9178 C   0  0  0  0  0  0  0  0  0  0  0  0
  -24.1593  -12.9424   20.9563 C   0  0  0  0  0  0  0  0  0  0  0  0
  -27.2958  -33.1030   13.5555 C   0  0  0  0  0  0  0  0  0  0  0  0
  -27.0117  -28.1263   18.9437 C   0  0  0  0  0  0  0  0  0  0  0  0
  -27.6115  -31.8824   14.1822 C   0  0  0  0  0  0  0  0  0  0  0  0
  -28.0862  -28.1957   19.8419 C   0  0  0  0  0  0  0  0  0  0  0  0
  -29.8843  -19.7787   19.9030 C   0  0  0  0  0  0  0  0  0  0  0  0
  -22.4019   -8.0592   21.3311 C   0  0  0  0  0  0  0  0  0  0  0  0
  -28.3869  -25.7910   19.6486 C   0  0  0  0  0  0  0  0  0  0  0  0
  -20.3787   -6.8836   21.1144 C   0  0  0  0  0  0  0  0  0  0  0  0
  -17.7192   -6.8286   20.2740 C   0  0  0  0  0  0  0  0  0  0  0  0
  -19.9669   -5.9495   20.1639 C   0  0  0  0  0  0  0  0  0  0  0  0
  -24.5894  -11.6258   20.7047 C   0  0  0  0  0  0  0  0  0  0  0  0
  -30.5751  -18.0105   21.0747 C   0  0  0  0  0  0  0  0  0  0  0  0
  -25.2254  -13.7276   20.5910 C   0  0  0  0  0  0  0  0  0  0  0  0
  -31.1680  -19.4416   19.5417 C   0  0  0  0  0  0  0  0  0  0  0  0
  -22.9081  -13.4136   21.4741 C   0  0  0  0  0  0  0  0  0  0  0  0
  -28.0829  -30.8473   17.6978 C   0  0  0  0  0  0  0  0  0  0  0  0
  -29.4495  -22.2689   19.8934 C   0  0  0  0  0  0  0  0  0  0  0  0
  -27.8119  -31.8998   20.7542 C   0  0  0  0  0  0  0  0  0  0  0  0
  -27.7108  -31.1436   24.0805 C   0  0  0  0  0  0  0  0  0  0  0  0
  -30.7035  -14.7935   20.5709 C   0  0  0  0  0  0  0  0  0  0  0  0
  -27.8421  -34.4165   14.0564 C   0  0  0  0  0  0  0  0  0  0  0  0
  -26.2426  -29.3663   18.5788 C   0  0  0  0  0  0  0  0  0  0  0  0
  -28.5316  -29.5014   20.4462 C   0  0  0  0  0  0  0  0  0  0  0  0
  -28.3653  -34.3520   15.4890 C   0  0  0  0  0  0  0  0  0  0  0  0
  -29.4632  -12.5666   18.0850 C   0  0  0  0  0  0  0  0  0  0  0  0
  -29.2444  -33.1203   15.6813 C   0  0  0  0  0  0  0  0  0  0  0  0
  -28.0523  -12.2274   18.5690 C   0  0  0  0  0  0  0  0  0  0  0  0
  -30.4392  -12.7145   19.2502 C   0  0  0  0  0  0  0  0  0  0  0  0
  -28.6057  -13.3264   20.7791 C   0  0  0  0  0  0  0  0  0  0  0  0
  -28.4484  -31.8316   15.4421 C   0  0  1  0  0  0  0  0  0  0  0  0
  -27.0489  -30.6473   18.7696 C   0  0  1  0  0  0  0  0  0  0  0  0
  -27.5736  -13.2224   19.6432 C   0  0  2  0  0  0  0  0  0  0  0  0
  -27.5197  -32.2184   26.3401 C   0  0  0  0  0  0  0  0  0  0  0  0
  -30.7229  -32.7958   20.5714 C   0  0  0  0  0  0  0  0  0  0  0  0
  -30.7536  -32.9690   23.0689 C   0  0  0  0  0  0  0  0  0  0  0  0
  -29.2072  -34.4058   21.7397 C   0  0  0  0  0  0  0  0  0  0  0  0
  -33.3808  -19.4830   18.3895 C   0  0  0  0  0  0  0  0  0  0  0  0
  -25.1978  -29.7010   24.6826 C   0  0  0  0  0  0  0  0  0  0  0  0
  -29.0497  -20.9067   19.3561 C   0  0  0  0  0  0  0  0  0  0  0  0
  -30.8161  -16.8542   21.9493 C   0  0  0  0  0  0  0  0  0  0  0  0
  -28.6096  -23.4353   19.4102 C   0  0  0  0  0  0  0  0  0  1  0  0
  -28.7224  -31.9341   21.9578 C   0  0  1  0  0  0  0  0  0  0  0  0
  -26.7647  -31.5803   25.1845 C   0  0  2  0  0  0  0  0  0  0  0  0
  -29.8446  -33.0017   21.8217 C   0  0  0  0  0  0  0  0  0  0  0  0
  -25.8317  -11.5734   20.2170 N   0  0  0  0  0  0  0  0  0  0  0  0
  -26.1915  -12.8670   20.1592 N   0  0  0  0  0  0  0  0  0  0  0  0
  -27.7517  -30.6868   20.0536 N   0  0  0  0  0  0  0  0  0  0  0  0
  -29.9269  -13.6731   20.2324 N   0  0  0  0  0  0  0  0  0  0  0  0
  -25.4214  -15.0632   20.6002 N   0  0  0  0  0  0  0  0  0  0  0  0
  -21.9221  -12.4718   21.7984 N   0  0  0  0  0  0  0  0  0  0  0  0
  -32.0272  -19.9770   18.6495 N   0  0  0  0  0  0  0  0  0  0  0  0
  -27.6193  -31.5295   16.5891 N   0  0  0  0  0  0  0  0  0  0  0  0
  -27.8582  -32.1202   23.1183 N   0  0  0  0  0  0  0  0  0  0  0  0
  -30.1412  -15.6551   21.5048 N   0  0  0  0  0  0  0  0  0  0  0  0
  -26.0050  -30.4101   25.7085 N   0  3  0  0  0  0  0  0  0  0  0  0
  -22.6655  -14.6345   21.6288 O   0  0  0  0  0  0  0  0  0  0  0  0
  -29.2176  -30.4161   17.8651 O   0  0  0  0  0  0  0  0  0  0  0  0
  -30.3908  -22.4290   20.6693 O   0  0  0  0  0  0  0  0  0  0  0  0
  -27.1719  -32.9099   20.4511 O   0  0  0  0  0  0  0  0  0  0  0  0
  -28.2666  -30.0475   24.0745 O   0  0  0  0  0  0  0  0  0  0  0  0
  -31.8131  -15.0128   20.0734 O   0  0  0  0  0  0  0  0  0  0  0  0
  -31.5964  -18.3648   20.2514 O   0  0  0  0  0  0  0  0  0  0  0  0
  -21.6983   -6.9117   21.5332 O   0  0  0  0  0  0  0  0  0  0  0  0
  -29.0604  -24.6589   19.9898 O   0  0  0  0  0  0  0  0  0  1  0  0
  -16.4418   -6.8013   19.8716 F   0  0  0  0  0  0  0  0  0  0  0  0
  -20.8439   -5.0753   19.6517 F   0  0  0  0  0  0  0  0  0  0  0  0
  1  2  1  0  0  0  0
  1  5  2  0  0  0  0
  2  6  2  0  0  0  0
  3  8  2  0  0  0  0
  3 16  1  0  0  0  0
  4  9  1  0  0  0  0
  4 16  2  0  0  0  0
  5 18  1  0  0  0  0
  6 20  1  0  0  0  0
  7 10  2  0  0  0  0
  7 19  1  0  0  0  0
  8 23  1  0  0  0  0
  9 23  2  0  0  0  0
 10 24  1  0  0  0  0
 11 12  2  0  0  0  0
 11 25  1  0  0  0  0
 12 26  1  0  0  0  0
 13 21  1  0  0  0  0
 13 24  2  0  0  0  0
 14 22  1  0  0  0  0
 14 29  2  0  0  0  0
 15 26  2  0  0  0  0
 15 27  1  0  0  0  0
 16 28  1  0  0  0  0
 17 28  1  0  0  0  0
 17 30  2  0  0  0  0
 17 32  1  0  0  0  0
 18 20  2  0  0  0  0
 18 38  1  0  0  0  0
 19 21  2  0  0  0  0
 19 39  1  0  0  0  0
 20 47  1  0  0  0  0
 21 40  1  0  0  0  0
 22 31  2  0  0  0  0
 22 56  1  0  0  0  0
 23 80  1  0  0  0  0
 24 81  1  0  0  0  0
 25 27  2  0  0  0  0
 25 80  1  0  0  0  0
 26 82  1  0  0  0  0
 27 83  1  0  0  0  0
 28 62  2  0  0  0  0
 29 57  1  0  0  0  0
 29 79  1  0  0  0  0
 30 63  1  0  0  0  0
 30 66  1  0  0  0  0
 31 68  1  0  0  0  0
 31 79  1  0  0  0  0
 32 67  1  0  0  0  0
 32 73  2  0  0  0  0
 33 48  1  0  0  0  0
 33 69  1  0  0  0  0
 33 74  2  0  0  0  0
 34 56  1  0  0  0  0
 34 58  1  0  0  0  0
 34 75  2  0  0  0  0
 35 59  1  0  0  0  0
 35 64  1  0  0  0  0
 35 76  2  0  0  0  0
 36 60  1  0  0  0  0
 36 70  1  0  0  0  0
 36 77  2  0  0  0  0
 37 65  1  0  0  0  0
 37 71  1  0  0  0  0
 37 78  2  0  0  0  0
 38 41  1  0  0  0  0
 39 48  1  0  0  0  0
 40 64  1  0  0  0  0
 41 43  1  0  0  0  0
 42 44  1  0  0  0  0
 42 45  1  0  0  0  0
 43 47  1  0  0  0  0
 44 49  1  0  0  0  0
 45 65  1  0  0  0  0
 46 49  1  0  0  0  0
 46 65  1  0  0  0  0
 47 69  1  0  0  0  0
 48 64  1  0  0  0  0
 49 63  1  0  0  0  0
 50 60  1  0  0  0  0
 51 61  1  0  0  0  0
 52 61  1  0  0  0  0
 53 61  1  0  0  0  0
 54 68  1  0  0  0  0
 55 72  1  0  0  0  0
 57 71  1  0  0  0  0
 58 81  1  0  0  0  0
 59 61  1  0  0  0  0
 59 70  1  0  0  0  0
 60 72  1  0  0  0  0
 62 63  1  0  0  0  0
M  CHG  1  72   1
M  ISO  4  37 100  58 101  71 100  81 101
M  END
> <Batch ID>
0150

> <Smiles>
CNc1oc(C[100NH:0][100C:0](=O)N2CCCC(n3nc(-c4ccc(Oc5ccc(F)cc5F)cc4)c(C(N)=O)c3N)C2)cc1CC(=O)[101CH2:1][101O:1]c1ccc2c(c1)CN(C(=O)C(NC(=O)C(C)NC)C(C)(C)C)C(C(=O)NC1CCCc3ccccc31)C2

> <Shape>
0.273

> <Color>
0.186

> <Negative vol penalty>
0.000

$$$$

  -OEChem-04052303213D

 84 93  0     1  0  0  0  0  0999 V2000
  -30.3031  -33.7032   29.3121 C   0  0  0  0  0  0  0  0  0  0  0  0
  -30.5980  -32.8680   28.2393 C   0  0  0  0  0  0  0  0  0  0  0  0
  -24.3873   -8.2310   21.4018 C   0  0  0  0  0  0  0  0  0  0  0  0
  -24.3015   -9.8676   23.1769 C   0  0  0  0  0  0  0  0  0  0  0  0
  -28.9911  -33.8082   29.7722 C   0  0  0  0  0  0  0  0  0  0  0  0
  -29.5812  -32.1364   27.6267 C   0  0  0  0  0  0  0  0  0  0  0  0
  -29.1272  -30.7265   21.6843 C   0  0  0  0  0  0  0  0  0  0  0  0
  -23.9796   -7.2405   22.2953 C   0  0  0  0  0  0  0  0  0  0  0  0
  -23.8938   -8.8772   24.0705 C   0  0  0  0  0  0  0  0  0  0  0  0
  -29.4463  -29.5746   20.9665 C   0  0  0  0  0  0  0  0  0  0  0  0
  -22.6133   -4.3512   24.0274 C   0  0  0  0  0  0  0  0  0  0  0  0
  -21.6213   -3.4658   23.6058 C   0  0  0  0  0  0  0  0  0  0  0  0
  -27.1524  -28.8458   21.1281 C   0  0  0  0  0  0  0  0  0  0  0  0
  -20.1002   -5.3173   23.2966 C   0  0  0  0  0  0  0  0  0  0  0  0
  -29.6847  -22.0195   19.7515 C   0  0  0  0  0  0  0  0  0  0  0  0
  -24.5483   -9.5445   21.8426 C   0  0  0  0  0  0  0  0  0  0  0  0
  -24.1464  -11.3875   20.1252 C   0  0  0  0  0  0  0  0  0  0  0  0
  -27.9562  -33.0849   29.1588 C   0  0  0  0  0  0  0  0  0  0  0  0
  -27.8184  -30.9418   22.1395 C   0  0  0  0  0  0  0  0  0  0  0  0
  -28.2544  -32.2308   28.0799 C   0  0  0  0  0  0  0  0  0  0  0  0
  -26.8187  -30.0024   21.8492 C   0  0  0  0  0  0  0  0  0  0  0  0
  -23.7329   -7.5636   23.6296 C   0  0  0  0  0  0  0  0  0  0  0  0
  -28.4595  -28.6327   20.6908 C   0  0  0  0  0  0  0  0  0  0  0  0
  -22.3487   -5.7196   24.0837 C   0  0  0  0  0  0  0  0  0  0  0  0
  -20.3648   -3.9489   23.2404 C   0  0  0  0  0  0  0  0  0  0  0  0
  -21.0922   -6.2027   23.7183 C   0  0  0  0  0  0  0  0  0  0  0  0
  -24.9699  -10.5680   20.9203 C   0  0  0  0  0  0  0  0  0  0  0  0
  -25.0231  -12.1862   19.4323 C   0  0  0  0  0  0  0  0  0  0  0  0
  -28.4927  -22.5942   20.1401 C   0  0  0  0  0  0  0  0  0  0  0  0
  -28.5465  -20.1859   20.1423 C   0  0  0  0  0  0  0  0  0  0  0  0
  -22.7168  -11.4237   20.0222 C   0  0  0  0  0  0  0  0  0  0  0  0
  -26.4620  -31.2675   24.9957 C   0  0  0  0  0  0  0  0  0  0  0  0
  -23.8210  -31.9327   23.2336 C   0  0  0  0  0  0  0  0  0  0  0  0
  -28.8356  -25.0837   20.0044 C   0  0  0  0  0  0  0  0  0  0  0  0
  -22.1577  -31.6094   20.2712 C   0  0  0  0  0  0  0  0  0  0  0  0
  -29.5757  -15.4044   19.3103 C   0  0  0  0  0  0  0  0  0  0  0  0
  -26.5612  -33.1947   29.7215 C   0  0  0  0  0  0  0  0  0  0  0  0
  -27.4847  -32.2022   22.8894 C   0  0  0  0  0  0  0  0  0  0  0  0
  -25.3941  -30.1962   22.2979 C   0  0  0  0  0  0  0  0  0  0  0  0
  -25.4809  -32.6727   28.7778 C   0  0  0  0  0  0  0  0  0  0  0  0
  -30.0288  -11.9239   18.9056 C   0  0  0  0  0  0  0  0  0  0  0  0
  -25.8867  -31.3218   28.1970 C   0  0  0  0  0  0  0  0  0  0  0  0
  -28.7035  -11.3168   19.3576 C   0  0  0  0  0  0  0  0  0  0  0  0
  -28.5076  -18.0480   21.6178 C   0  0  0  0  0  0  0  0  0  0  0  0
  -30.3982  -13.1214   19.7706 C   0  0  0  0  0  0  0  0  0  0  0  0
  -28.4287  -16.5638   21.2863 C   0  0  0  0  0  0  0  0  0  0  0  0
  -28.9393  -17.7974   19.2963 C   0  0  0  0  0  0  0  0  0  0  0  0
  -28.0077  -13.6159   20.2079 C   0  0  0  0  0  0  0  0  0  0  0  0
  -27.1748  -31.4400   27.3733 C   0  0  1  0  0  0  0  0  0  0  0  0
  -28.1945  -18.7204   20.2712 C   0  0  2  0  0  0  0  0  0  0  0  0
  -26.2304  -32.0722   23.7481 C   0  0  1  0  0  0  0  0  0  0  0  0
  -27.5974  -12.3833   19.3758 C   0  0  2  0  0  0  0  0  0  0  0  0
  -20.0031  -32.2295   19.1440 C   0  0  0  0  0  0  0  0  0  0  0  0
  -22.3713  -29.7647   24.8173 C   0  0  0  0  0  0  0  0  0  0  0  0
  -20.5900  -29.7684   23.0580 C   0  0  0  0  0  0  0  0  0  0  0  0
  -21.0222  -31.8281   24.3972 C   0  0  0  0  0  0  0  0  0  0  0  0
  -23.5636  -33.1644   18.1821 C   0  0  0  0  0  0  0  0  0  0  0  0
  -28.0176  -26.3352   20.2638 C   0  0  0  0  0  0  0  0  0  1  0  0
  -22.6971  -31.1167   22.6420 C   0  0  1  0  0  0  0  0  0  0  0  0
  -21.4485  -32.6286   19.3978 C   0  0  2  0  0  0  0  0  0  0  0  0
  -21.6973  -30.6146   23.7217 C   0  0  0  0  0  0  0  0  0  0  0  0
  -29.7175  -20.6386   19.7525 N   0  0  0  0  0  0  0  0  0  0  0  0
  -26.2699  -10.8225   20.7491 N   0  0  0  0  0  0  0  0  0  0  0  0
  -26.2699  -11.8109   19.8384 N   0  0  0  0  0  0  0  0  0  0  0  0
  -25.1189  -31.4415   23.0333 N   0  0  0  0  0  0  0  0  0  0  0  0
  -29.3272  -14.1191   19.8044 N   0  0  0  0  0  0  0  0  0  0  0  0
  -28.9108  -16.4734   19.9096 N   0  0  0  0  0  0  0  0  0  0  0  0
  -24.8415  -13.1657   18.5214 N   0  0  0  0  0  0  0  0  0  0  0  0
  -21.9679  -10.5344   20.8049 N   0  0  0  0  0  0  0  0  0  0  0  0
  -28.0979  -23.8951   20.2591 N   0  0  0  0  0  0  0  0  0  0  0  0
  -26.8936  -32.0145   26.0751 N   0  0  0  0  0  0  0  0  0  0  0  0
  -22.0912  -31.9468   21.6065 N   0  0  0  0  0  0  0  0  0  0  0  0
  -22.1392  -32.7542   18.0832 N   0  3  0  0  0  0  0  0  0  0  0  0
  -22.1218  -12.2097   19.2466 O   0  0  0  0  0  0  0  0  0  0  0  0
  -26.2624  -30.0585   24.9806 O   0  0  0  0  0  0  0  0  0  0  0  0
  -23.5576  -32.9714   23.8444 O   0  0  0  0  0  0  0  0  0  0  0  0
  -29.9986  -25.1447   19.6194 O   0  0  0  0  0  0  0  0  0  0  0  0
  -22.7118  -30.6118   19.8149 O   0  0  0  0  0  0  0  0  0  0  0  0
  -30.3904  -15.5956   18.3973 O   0  0  0  0  0  0  0  0  0  0  0  0
  -23.3348   -6.5974   24.5018 O   0  0  0  0  0  0  0  0  0  0  0  0
  -28.7716  -27.4955   19.9837 O   0  0  0  0  0  0  0  0  0  1  0  0
  -19.4128   -3.0987   22.8340 F   0  0  0  0  0  0  0  0  0  0  0  0
  -20.8325   -7.5164   23.7692 F   0  0  0  0  0  0  0  0  0  0  0  0
  -27.3593  -21.3652   20.5227 S   0  0  0  0  0  0  0  0  0  0  0  0
  1  2  1  0  0  0  0
  1  5  2  0  0  0  0
  2  6  2  0  0  0  0
  3  8  2  0  0  0  0
  3 16  1  0  0  0  0
  4  9  1  0  0  0  0
  4 16  2  0  0  0  0
  5 18  1  0  0  0  0
  6 20  1  0  0  0  0
  7 10  2  0  0  0  0
  7 19  1  0  0  0  0
  8 22  1  0  0  0  0
  9 22  2  0  0  0  0
 10 23  1  0  0  0  0
 11 12  2  0  0  0  0
 11 24  1  0  0  0  0
 12 25  1  0  0  0  0
 13 21  1  0  0  0  0
 13 23  2  0  0  0  0
 14 25  2  0  0  0  0
 14 26  1  0  0  0  0
 15 29  2  0  0  0  0
 15 62  1  0  0  0  0
 16 27  1  0  0  0  0
 17 27  1  0  0  0  0
 17 28  2  0  0  0  0
 17 31  1  0  0  0  0
 18 20  2  0  0  0  0
 18 37  1  0  0  0  0
 19 21  2  0  0  0  0
 19 38  1  0  0  0  0
 20 49  1  0  0  0  0
 21 39  1  0  0  0  0
 22 80  1  0  0  0  0
 23 81  1  0  0  0  0
 24 26  2  0  0  0  0
 24 80  1  0  0  0  0
 25 82  1  0  0  0  0
 26 83  1  0  0  0  0
 27 63  2  0  0  0  0
 28 64  1  0  0  0  0
 28 68  1  0  0  0  0
 29 70  1  0  0  0  0
 29 84  1  0  0  0  0
 30 50  1  0  0  0  0
 30 62  2  0  0  0  0
 30 84  1  0  0  0  0
 31 69  1  0  0  0  0
 31 74  2  0  0  0  0
 32 51  1  0  0  0  0
 32 71  1  0  0  0  0
 32 75  2  0  0  0  0
 33 59  1  0  0  0  0
 33 65  1  0  0  0  0
 33 76  2  0  0  0  0
 34 58  1  0  0  0  0
 34 70  1  0  0  0  0
 34 77  2  0  0  0  0
 35 60  1  0  0  0  0
 35 72  1  0  0  0  0
 35 78  2  0  0  0  0
 36 66  1  0  0  0  0
 36 67  1  0  0  0  0
 36 79  2  0  0  0  0
 37 40  1  0  0  0  0
 38 51  1  0  0  0  0
 39 65  1  0  0  0  0
 40 42  1  0  0  0  0
 41 43  1  0  0  0  0
 41 45  1  0  0  0  0
 42 49  1  0  0  0  0
 43 52  1  0  0  0  0
 44 46  1  0  0  0  0
 44 50  1  0  0  0  0
 45 66  1  0  0  0  0
 46 67  1  0  0  0  0
 47 50  1  0  0  0  0
 47 67  1  0  0  0  0
 48 52  1  0  0  0  0
 48 66  1  0  0  0  0
 49 71  1  0  0  0  0
 51 65  1  0  0  0  0
 52 64  1  0  0  0  0
 53 60  1  0  0  0  0
 54 61  1  0  0  0  0
 55 61  1  0  0  0  0
 56 61  1  0  0  0  0
 57 73  1  0  0  0  0
 58 81  1  0  0  0  0
 59 61  1  0  0  0  0
 59 72  1  0  0  0  0
 60 73  1  0  0  0  0
 63 64  1  0  0  0  0
M  CHG  1  73   1
M  ISO  4  36 100  58 101  67 100  81 101
M  END
> <Batch ID>
0150

> <Smiles>
CNC(C)C(=O)NC(C(=O)N1Cc2cc([101O:1][101CH2:1]C(=O)Nc3cnc(C4CC[100N:0]([100C:0](=O)N5CCCC(n6nc(-c7ccc(Oc8ccc(F)cc8F)cc7)c(C(N)=O)c6N)C5)C4)s3)ccc2CC1C(=O)NC1CCCc2ccccc21)C(C)(C)C

> <Shape>
0.314

> <Color>
0.090

> <Negative vol penalty>
0.000

$$$$

  -OEChem-04052303213D

 84 92  0     1  0  0  0  0  0999 V2000
  -17.5989  -31.7056   20.0462 C   0  0  0  0  0  0  0  0  0  0  0  0
  -18.9232  -31.6131   19.6301 C   0  0  0  0  0  0  0  0  0  0  0  0
  -23.2186  -13.6295   21.6004 C   0  0  0  0  0  0  0  0  0  0  0  0
  -22.0983  -15.7189   21.1352 C   0  0  0  0  0  0  0  0  0  0  0  0
  -17.2619  -31.4091   21.3662 C   0  0  0  0  0  0  0  0  0  0  0  0
  -19.9115  -31.2251   20.5341 C   0  0  0  0  0  0  0  0  0  0  0  0
  -24.9003  -27.8851   19.3253 C   0  0  0  0  0  0  0  0  0  0  0  0
  -22.2363  -13.3115   22.5382 C   0  0  0  0  0  0  0  0  0  0  0  0
  -21.1159  -15.4009   22.0730 C   0  0  0  0  0  0  0  0  0  0  0  0
  -26.2280  -28.2356   19.0840 C   0  0  0  0  0  0  0  0  0  0  0  0
  -19.0689  -12.1281   22.5240 C   0  0  0  0  0  0  0  0  0  0  0  0
  -18.5464  -10.8350   22.5024 C   0  0  0  0  0  0  0  0  0  0  0  0
  -26.7481  -27.8399   21.4062 C   0  0  0  0  0  0  0  0  0  0  0  0
  -28.6023  -22.9210   19.2744 C   0  0  0  0  0  0  0  0  0  0  0  0
  -19.3028  -10.4914   24.7710 C   0  0  0  0  0  0  0  0  0  0  0  0
  -26.6984  -24.1661   18.7978 C   0  0  0  0  0  0  0  0  0  0  0  0
  -23.1497  -14.8332   20.8989 C   0  0  0  0  0  0  0  0  0  0  0  0
  -24.1603  -14.8548   18.5568 C   0  0  0  0  0  0  0  0  0  0  0  0
  -18.2451  -31.0079   22.2844 C   0  0  0  0  0  0  0  0  0  0  0  0
  -24.4835  -27.5192   20.6133 C   0  0  0  0  0  0  0  0  0  0  0  0
  -19.5875  -30.9243   21.8680 C   0  0  0  0  0  0  0  0  0  0  0  0
  -25.4151  -27.4827   21.6606 C   0  0  0  0  0  0  0  0  0  0  0  0
  -28.0673  -24.2006   18.9480 C   0  0  0  0  0  0  0  0  0  0  0  0
  -21.1849  -14.1972   22.7745 C   0  0  0  0  0  0  0  0  0  0  0  0
  -27.1515  -28.2158   20.1251 C   0  0  0  0  0  0  0  0  0  0  0  0
  -19.7085  -12.6028   23.6692 C   0  0  0  0  0  0  0  0  0  0  0  0
  -18.6633  -10.0167   23.6259 C   0  0  0  0  0  0  0  0  0  0  0  0
  -19.8254  -11.7845   24.7927 C   0  0  0  0  0  0  0  0  0  0  0  0
  -24.1644  -15.1625   19.9305 C   0  0  0  0  0  0  0  0  0  0  0  0
  -25.3372  -15.3814   18.0834 C   0  0  0  0  0  0  0  0  0  0  0  0
  -27.6218  -21.9571   19.3614 C   0  0  0  0  0  0  0  0  0  0  0  0
  -23.1803  -14.1554   17.7782 C   0  0  0  0  0  0  0  0  0  0  0  0
  -22.4042  -28.6876   22.7144 C   0  0  0  0  0  0  0  0  0  0  0  0
  -23.1551  -25.9983   24.3656 C   0  0  0  0  0  0  0  0  0  0  0  0
  -30.2068  -25.5228   18.9201 C   0  0  0  0  0  0  0  0  0  0  0  0
  -25.4059  -23.5066   24.9754 C   0  0  0  0  0  0  0  0  0  0  0  0
  -28.8549  -19.8390   19.9439 C   0  0  0  0  0  0  0  0  0  0  0  0
  -17.8397  -30.7435   23.7128 C   0  0  0  0  0  0  0  0  0  0  0  0
  -23.0536  -27.1181   20.8514 C   0  0  0  0  0  0  0  0  0  0  0  0
  -25.0228  -27.0777   23.0572 C   0  0  0  0  0  0  0  0  0  0  0  0
  -18.8907  -29.9777   24.5124 C   0  0  0  0  0  0  0  0  0  0  0  0
  -29.7957  -16.4370   19.4769 C   0  0  0  0  0  0  0  0  0  0  0  0
  -20.2748  -30.5780   24.2874 C   0  0  0  0  0  0  0  0  0  0  0  0
  -28.4579  -15.6968   19.4091 C   0  0  0  0  0  0  0  0  0  0  0  0
  -29.7574  -17.5870   20.4817 C   0  0  0  0  0  0  0  0  0  0  0  0
  -27.3160  -17.7977   20.2274 C   0  0  0  0  0  0  0  0  0  0  0  0
  -20.6842  -30.4829   22.8127 C   0  0  1  0  0  0  0  0  0  0  0  0
  -22.6287  -27.2580   22.3100 C   0  0  1  0  0  0  0  0  0  0  0  0
  -27.2857  -16.6713   19.1814 C   0  0  2  0  0  0  0  0  0  0  0  0
  -26.3206  -21.3818   25.9479 C   0  0  0  0  0  0  0  0  0  0  0  0
  -23.7915  -27.7910   26.7512 C   0  0  0  0  0  0  0  0  0  0  0  0
  -25.0083  -25.8633   27.7864 C   0  0  0  0  0  0  0  0  0  0  0  0
  -22.5632  -25.6892   27.3240 C   0  0  0  0  0  0  0  0  0  0  0  0
  -31.8208  -27.1421   20.8771 C   0  0  0  0  0  0  0  0  0  0  0  0
  -31.2900  -29.2365   19.6268 C   0  0  0  0  0  0  0  0  0  0  0  0
  -24.2904  -21.8800   22.7689 C   0  0  0  0  0  0  0  0  0  0  0  0
  -30.6616  -26.9561   18.6757 C   0  0  0  0  0  0  0  0  0  0  0  0
  -29.4401  -27.9372   20.7088 C   0  0  0  0  0  0  0  0  0  1  0  0
  -24.1965  -25.6316   25.3951 C   0  0  1  0  0  0  0  0  0  0  0  0
  -25.2392  -22.0011   25.0762 C   0  0  2  0  0  0  0  0  0  0  0  0
  -23.8972  -26.2534   26.7884 C   0  0  0  0  0  0  0  0  0  0  0  0
  -30.7837  -27.8212   19.9563 C   0  0  0  0  0  0  0  0  0  0  0  0
  -25.2573  -15.8326   20.3055 N   0  0  0  0  0  0  0  0  0  0  0  0
  -25.9510  -15.9501   19.1605 N   0  0  0  0  0  0  0  0  0  0  0  0
  -23.6117  -26.7002   23.2410 N   0  0  0  0  0  0  0  0  0  0  0  0
  -28.6239  -18.4711   20.2014 N   0  0  0  0  0  0  0  0  0  0  0  0
  -25.8967  -15.4088   16.8551 N   0  0  0  0  0  0  0  0  0  0  0  0
  -22.0296  -13.6810   18.4225 N   0  0  0  0  0  0  0  0  0  0  0  0
  -28.8312  -25.3814   18.7914 N   0  0  0  0  0  0  0  0  0  0  0  0
  -27.7048  -20.5741   19.6583 N   0  0  0  0  0  0  0  0  0  0  0  0
  -21.1169  -29.1391   22.4939 N   0  0  0  0  0  0  0  0  0  0  0  0
  -24.2752  -24.1749   25.3952 N   0  0  0  0  0  0  0  0  0  0  0  0
  -25.3130  -21.3801   23.7235 N   0  3  0  0  0  0  0  0  0  0  0  0
  -23.3286  -13.9428   16.5509 O   0  0  0  0  0  0  0  0  0  0  0  0
  -23.3298  -29.3327   23.1926 O   0  0  0  0  0  0  0  0  0  0  0  0
  -21.9809  -25.6677   24.5489 O   0  0  0  0  0  0  0  0  0  0  0  0
  -31.0250  -24.6510   19.2007 O   0  0  0  0  0  0  0  0  0  0  0  0
  -26.4374  -24.0369   24.5688 O   0  0  0  0  0  0  0  0  0  0  0  0
  -29.9922  -20.3170   19.9477 O   0  0  0  0  0  0  0  0  0  0  0  0
  -20.2260  -13.8871   23.6894 O   0  0  0  0  0  0  0  0  0  0  0  0
  -28.4479  -28.5582   19.8925 O   0  0  0  0  0  0  0  0  0  1  0  0
  -18.1601   -8.7755   23.6055 F   0  0  0  0  0  0  0  0  0  0  0  0
  -20.4377  -12.2354   25.8961 F   0  0  0  0  0  0  0  0  0  0  0  0
  -26.0638  -22.5957   19.0500 S   0  0  0  0  0  0  0  0  0  0  0  0
  1  2  1  0  0  0  0
  1  5  2  0  0  0  0
  2  6  2  0  0  0  0
  3  8  2  0  0  0  0
  3 17  1  0  0  0  0
  4  9  1  0  0  0  0
  4 17  2  0  0  0  0
  5 19  1  0  0  0  0
  6 21  1  0  0  0  0
  7 10  2  0  0  0  0
  7 20  1  0  0  0  0
  8 24  1  0  0  0  0
  9 24  2  0  0  0  0
 10 25  1  0  0  0  0
 11 12  2  0  0  0  0
 11 26  1  0  0  0  0
 12 27  1  0  0  0  0
 13 22  1  0  0  0  0
 13 25  2  0  0  0  0
 14 23  1  0  0  0  0
 14 31  2  0  0  0  0
 15 27  2  0  0  0  0
 15 28  1  0  0  0  0
 16 23  2  0  0  0  0
 16 84  1  0  0  0  0
 17 29  1  0  0  0  0
 18 29  1  0  0  0  0
 18 30  2  0  0  0  0
 18 32  1  0  0  0  0
 19 21  2  0  0  0  0
 19 38  1  0  0  0  0
 20 22  2  0  0  0  0
 20 39  1  0  0  0  0
 21 47  1  0  0  0  0
 22 40  1  0  0  0  0
 23 69  1  0  0  0  0
 24 80  1  0  0  0  0
 25 81  1  0  0  0  0
 26 28  2  0  0  0  0
 26 80  1  0  0  0  0
 27 82  1  0  0  0  0
 28 83  1  0  0  0  0
 29 63  2  0  0  0  0
 30 64  1  0  0  0  0
 30 67  1  0  0  0  0
 31 70  1  0  0  0  0
 31 84  1  0  0  0  0
 32 68  1  0  0  0  0
 32 74  2  0  0  0  0
 33 48  1  0  0  0  0
 33 71  1  0  0  0  0
 33 75  2  0  0  0  0
 34 59  1  0  0  0  0
 34 65  1  0  0  0  0
 34 76  2  0  0  0  0
 35 57  1  0  0  0  0
 35 69  1  0  0  0  0
 35 77  2  0  0  0  0
 36 60  1  0  0  0  0
 36 72  1  0  0  0  0
 36 78  2  0  0  0  0
 37 66  1  0  0  0  0
 37 70  1  0  0  0  0
 37 79  2  0  0  0  0
 38 41  1  0  0  0  0
 39 48  1  0  0  0  0
 40 65  1  0  0  0  0
 41 43  1  0  0  0  0
 42 44  1  0  0  0  0
 42 45  1  0  0  0  0
 43 47  1  0  0  0  0
 44 49  1  0  0  0  0
 45 66  1  0  0  0  0
 46 49  1  0  0  0  0
 46 66  1  0  0  0  0
 47 71  1  0  0  0  0
 48 65  1  0  0  0  0
 49 64  1  0  0  0  0
 50 60  1  0  0  0  0
 51 61  1  0  0  0  0
 52 61  1  0  0  0  0
 53 61  1  0  0  0  0
 54 62  1  0  0  0  0
 55 62  1  0  0  0  0
 56 73  1  0  0  0  0
 57 62  1  0  0  0  0
 58 62  1  0  0  0  0
 58 81  1  0  0  0  0
 59 61  1  0  0  0  0
 59 72  1  0  0  0  0
 60 73  1  0  0  0  0
 63 64  1  0  0  0  0
M  CHG  1  73   1
M  ISO  4  37 100  58 101  70 100  81 101
M  END
> <Batch ID>
0150

> <Smiles>
CNC(C)C(=O)NC(C(=O)N1Cc2cc([101O:1][101CH2:1]C(C)(C)CC(=O)Nc3csc([100NH:0][100C:0](=O)N4CCCC(n5nc(-c6ccc(Oc7ccc(F)cc7F)cc6)c(C(N)=O)c5N)C4)c3)ccc2CC1C(=O)NC1CCCc2ccccc21)C(C)(C)C

> <Shape>
0.181

> <Color>
0.082

> <Negative vol penalty>
0.000

$$$$

  -OEChem-04052303213D

 84 93  0     1  0  0  0  0  0999 V2000
  -27.3999  -37.5176   18.9269 C   0  0  0  0  0  0  0  0  0  0  0  0
  -27.8685  -36.2147   18.7912 C   0  0  0  0  0  0  0  0  0  0  0  0
  -23.2791   -9.4681   19.6977 C   0  0  0  0  0  0  0  0  0  0  0  0
  -24.5596   -9.1111   21.7151 C   0  0  0  0  0  0  0  0  0  0  0  0
  -26.5879  -37.8561   20.0085 C   0  0  0  0  0  0  0  0  0  0  0  0
  -27.5262  -35.2498   19.7379 C   0  0  0  0  0  0  0  0  0  0  0  0
  -26.5107  -29.2960   18.7248 C   0  0  0  0  0  0  0  0  0  0  0  0
  -22.1576   -8.9095   20.3107 C   0  0  0  0  0  0  0  0  0  0  0  0
  -23.4380   -8.5525   22.3281 C   0  0  0  0  0  0  0  0  0  0  0  0
  -27.3155  -28.1678   18.8779 C   0  0  0  0  0  0  0  0  0  0  0  0
  -21.8019   -5.5939   22.3075 C   0  0  0  0  0  0  0  0  0  0  0  0
  -21.9787   -4.4146   23.0311 C   0  0  0  0  0  0  0  0  0  0  0  0
  -27.6799  -20.8180   19.7815 C   0  0  0  0  0  0  0  0  0  0  0  0
  -27.4247  -19.4168   19.8215 C   0  0  0  0  0  0  0  0  0  0  0  0
  -26.3444  -27.7773   21.0513 C   0  0  0  0  0  0  0  0  0  0  0  0
  -21.1886   -5.5213   25.0281 C   0  0  0  0  0  0  0  0  0  0  0  0
  -24.4801   -9.5688   20.3999 C   0  0  0  0  0  0  0  0  0  0  0  0
  -26.2875   -9.6893   18.6036 C   0  0  0  0  0  0  0  0  0  0  0  0
  -26.2276  -36.8925   20.9637 C   0  0  0  0  0  0  0  0  0  0  0  0
  -25.6231  -29.6801   19.7402 C   0  0  0  0  0  0  0  0  0  0  0  0
  -26.7097  -35.5761   20.8341 C   0  0  0  0  0  0  0  0  0  0  0  0
  -25.5276  -28.9093   20.9076 C   0  0  0  0  0  0  0  0  0  0  0  0
  -22.2370   -8.4518   21.6259 C   0  0  0  0  0  0  0  0  0  0  0  0
  -27.2345  -27.4100   20.0424 C   0  0  0  0  0  0  0  0  0  0  0  0
  -21.3185   -6.7370   22.9443 C   0  0  0  0  0  0  0  0  0  0  0  0
  -21.6720   -4.3783   24.3913 C   0  0  0  0  0  0  0  0  0  0  0  0
  -21.0118   -6.7007   24.3045 C   0  0  0  0  0  0  0  0  0  0  0  0
  -25.6392  -10.1452   19.7671 C   0  0  0  0  0  0  0  0  0  0  0  0
  -27.3236  -10.5719   18.4196 C   0  0  0  0  0  0  0  0  0  0  0  0
  -28.9585  -21.1231   20.1932 C   0  0  0  0  0  0  0  0  0  0  0  0
  -28.5184  -18.7042   20.2621 C   0  0  0  0  0  0  0  0  0  0  0  0
  -31.1540  -23.9454   21.3097 C   0  0  0  0  0  0  0  0  0  0  0  0
  -25.9805   -8.5681   17.7643 C   0  0  0  0  0  0  0  0  0  0  0  0
  -25.3104  -32.2421   21.5954 C   0  0  0  0  0  0  0  0  0  0  0  0
  -22.5970  -30.7405   22.5466 C   0  0  0  0  0  0  0  0  0  0  0  0
  -20.8748  -27.8149   22.8953 C   0  0  0  0  0  0  0  0  0  0  0  0
  -27.7770  -16.2889   20.2270 C   0  0  0  0  0  0  0  0  0  0  0  0
  -25.3864  -37.3170   22.1414 C   0  0  0  0  0  0  0  0  0  0  0  0
  -24.7426  -30.8844   19.5484 C   0  0  0  0  0  0  0  0  0  0  0  0
  -24.5762  -29.2676   22.0188 C   0  0  0  0  0  0  0  0  0  0  0  0
  -30.9045  -22.5694   20.7306 C   0  0  0  0  0  0  0  0  0  0  0  0
  -24.7627  -36.1468   22.8977 C   0  0  0  0  0  0  0  0  0  0  0  0
  -29.7934  -13.3068   21.5556 C   0  0  0  0  0  0  0  0  0  0  0  0
  -25.8017  -35.0583   23.1478 C   0  0  0  0  0  0  0  0  0  0  0  0
  -29.3860  -12.2493   20.5325 C   0  0  0  0  0  0  0  0  0  0  0  0
  -29.6264  -14.7232   21.0200 C   0  0  0  0  0  0  0  0  0  0  0  0
  -27.3911  -13.8341   20.3351 C   0  0  0  0  0  0  0  0  0  0  0  0
  -28.7768  -23.5504   19.7527 C   0  0  0  0  0  0  0  0  0  0  0  0
  -26.3400  -34.4954   21.8269 C   0  0  1  0  0  0  0  0  0  0  0  0
  -24.2449  -31.4762   20.8635 C   0  0  1  0  0  0  0  0  0  0  0  0
  -28.1476  -12.6528   19.7079 C   0  0  2  0  0  0  0  0  0  0  0  0
  -29.6991  -24.7411   19.4895 C   0  0  1  0  0  0  0  0  0  0  0  0
  -18.6958  -26.9003   23.7397 C   0  0  0  0  0  0  0  0  0  0  0  0
  -23.5865  -31.0400   25.4173 C   0  0  0  0  0  0  0  0  0  0  0  0
  -21.9020  -29.3197   26.1037 C   0  0  0  0  0  0  0  0  0  0  0  0
  -21.1438  -31.4762   25.1050 C   0  0  0  0  0  0  0  0  0  0  0  0
  -20.1367  -26.7863   20.2202 C   0  0  0  0  0  0  0  0  0  0  0  0
  -28.9033  -25.9877   19.1213 C   0  0  0  0  0  0  0  0  0  1  0  0
  -22.2480  -29.7466   23.6280 C   0  0  1  0  0  0  0  0  0  0  0  0
  -19.4505  -27.4350   22.5325 C   0  0  2  0  0  0  0  0  0  0  0  0
  -22.2395  -30.3897   25.0436 C   0  0  0  0  0  0  0  0  0  0  0  0
  -26.2153  -11.2330   20.2857 N   0  0  0  0  0  0  0  0  0  0  0  0
  -27.2366  -11.4678   19.4443 N   0  0  0  0  0  0  0  0  0  0  0  0
  -30.5239  -24.9781   20.6548 N   0  0  0  0  0  0  0  0  0  0  0  0
  -29.5244  -22.3997   20.2717 N   0  0  3  0  0  0  0  0  0  0  0  0
  -23.7409  -30.4575   21.7868 N   0  0  0  0  0  0  0  0  0  0  0  0
  -28.2724  -14.9936   20.5151 N   0  0  0  0  0  0  0  0  0  0  0  0
  -28.2917  -10.6612   17.4830 N   0  0  0  0  0  0  0  0  0  0  0  0
  -26.5684   -7.3308   18.0606 N   0  0  0  0  0  0  0  0  0  0  0  0
  -28.7022  -17.3117   20.4519 N   0  0  0  0  0  0  0  0  0  0  0  0
  -25.3866  -33.5762   21.2433 N   0  0  0  0  0  0  0  0  0  0  0  0
  -20.9770  -29.1469   23.2365 N   0  0  0  0  0  0  0  0  0  0  0  0
  -19.4477  -26.3860   21.4740 N   0  3  0  0  0  0  0  0  0  0  0  0
  -31.9128  -24.1162   22.2631 O   0  0  0  0  0  0  0  0  0  0  0  0
  -25.2207   -8.6646   16.7709 O   0  0  0  0  0  0  0  0  0  0  0  0
  -26.0105  -31.6658   22.4197 O   0  0  0  0  0  0  0  0  0  0  0  0
  -21.8770  -31.7277   22.3773 O   0  0  0  0  0  0  0  0  0  0  0  0
  -21.8030  -27.0095   22.8812 O   0  0  0  0  0  0  0  0  0  0  0  0
  -26.6323  -16.4655   19.8046 O   0  0  0  0  0  0  0  0  0  0  0  0
  -21.1427   -7.9069   22.2244 O   0  0  0  0  0  0  0  0  0  0  0  0
  -28.0194  -26.3088   20.1946 O   0  0  0  0  0  0  0  0  0  1  0  0
  -21.8404   -3.2452   25.0857 F   0  0  0  0  0  0  0  0  0  0  0  0
  -20.5460   -7.7953   24.9215 F   0  0  0  0  0  0  0  0  0  0  0  0
  -29.8455  -19.7235   20.6255 S   0  0  0  0  0  0  0  0  0  0  0  0
  1  2  1  0  0  0  0
  1  5  2  0  0  0  0
  2  6  2  0  0  0  0
  3  8  2  0  0  0  0
  3 17  1  0  0  0  0
  4  9  1  0  0  0  0
  4 17  2  0  0  0  0
  5 19  1  0  0  0  0
  6 21  1  0  0  0  0
  7 10  2  0  0  0  0
  7 20  1  0  0  0  0
  8 23  1  0  0  0  0
  9 23  2  0  0  0  0
 10 24  1  0  0  0  0
 11 12  2  0  0  0  0
 11 25  1  0  0  0  0
 12 26  1  0  0  0  0
 13 14  1  0  0  0  0
 13 30  2  0  0  0  0
 14 31  2  0  0  0  0
 15 22  1  0  0  0  0
 15 24  2  0  0  0  0
 16 26  2  0  0  0  0
 16 27  1  0  0  0  0
 17 28  1  0  0  0  0
 18 28  1  0  0  0  0
 18 29  2  0  0  0  0
 18 33  1  0  0  0  0
 19 21  2  0  0  0  0
 19 38  1  0  0  0  0
 20 22  2  0  0  0  0
 20 39  1  0  0  0  0
 21 49  1  0  0  0  0
 22 40  1  0  0  0  0
 23 80  1  0  0  0  0
 24 81  1  0  0  0  0
 25 27  2  0  0  0  0
 25 80  1  0  0  0  0
 26 82  1  0  0  0  0
 27 83  1  0  0  0  0
 28 62  2  0  0  0  0
 29 63  1  0  0  0  0
 29 68  1  0  0  0  0
 30 65  1  0  0  0  0
 30 84  1  0  0  0  0
 31 70  1  0  0  0  0
 31 84  1  0  0  0  0
 32 41  1  0  0  0  0
 32 64  1  0  0  0  0
 32 74  2  0  0  0  0
 33 69  1  0  0  0  0
 33 75  2  0  0  0  0
 34 50  1  0  0  0  0
 34 71  1  0  0  0  0
 34 76  2  0  0  0  0
 35 59  1  0  0  0  0
 35 66  1  0  0  0  0
 35 77  2  0  0  0  0
 36 60  1  0  0  0  0
 36 72  1  0  0  0  0
 36 78  2  0  0  0  0
 37 67  1  0  0  0  0
 37 70  1  0  0  0  0
 37 79  2  0  0  0  0
 38 42  1  0  0  0  0
 39 50  1  0  0  0  0
 40 66  1  0  0  0  0
 41 65  1  0  0  0  0
 42 44  1  0  0  0  0
 43 45  1  0  0  0  0
 43 46  1  0  0  0  0
 44 49  1  0  0  0  0
 45 51  1  0  0  0  0
 46 67  1  0  0  0  0
 47 51  1  0  0  0  0
 47 67  1  0  0  0  0
 48 52  1  0  0  0  0
 48 65  1  0  0  0  0
 49 71  1  0  0  0  0
 50 66  1  0  0  0  0
 51 63  1  0  0  0  0
 52 58  1  0  0  0  0
 52 64  1  0  0  0  0
 53 60  1  0  0  0  0
 54 61  1  0  0  0  0
 55 61  1  0  0  0  0
 56 61  1  0  0  0  0
 57 73  1  0  0  0  0
 58 81  1  0  0  0  0
 59 61  1  0  0  0  0
 59 72  1  0  0  0  0
 60 73  1  0  0  0  0
 62 63  1  0  0  0  0
M  CHG  1  73   1
M  ISO  4  37 100  58 101  70 100  81 101
M  END
> <Batch ID>
0150

> <Smiles>
CNC(C)C(=O)NC(C(=O)N1Cc2cc([101O:1][101CH2:1]C3CN(c4ccc([100NH:0][100C:0](=O)N5CCCC(n6nc(-c7ccc(Oc8ccc(F)cc8F)cc7)c(C(N)=O)c6N)C5)s4)CC(=O)N3)ccc2CC1C(=O)NC1CCCc2ccccc21)C(C)(C)C

> <Shape>
0.342

> <Color>
0.109

> <Negative vol penalty>
0.000

$$$$

  -OEChem-04052303213D

 86 95  0     1  0  0  0  0  0999 V2000
  -21.7732  -30.6681   22.0744 C   0  0  0  0  0  0  0  0  0  0  0  0
  -22.5555  -29.5485   22.3388 C   0  0  0  0  0  0  0  0  0  0  0  0
  -23.2408   -9.7271   21.3038 C   0  0  0  0  0  0  0  0  0  0  0  0
  -23.8624  -10.6924   23.4296 C   0  0  0  0  0  0  0  0  0  0  0  0
  -20.3882  -30.5994   22.2199 C   0  0  0  0  0  0  0  0  0  0  0  0
  -21.9534  -28.3599   22.7500 C   0  0  0  0  0  0  0  0  0  0  0  0
  -23.8125  -24.3080   20.3476 C   0  0  0  0  0  0  0  0  0  0  0  0
  -31.8017  -17.4557   21.3399 C   0  0  0  0  0  0  0  0  0  0  0  0
  -22.5266   -8.7287   21.9660 C   0  0  0  0  0  0  0  0  0  0  0  0
  -23.1482   -9.6939   24.0918 C   0  0  0  0  0  0  0  0  0  0  0  0
  -25.0468  -23.8233   20.7782 C   0  0  0  0  0  0  0  0  0  0  0  0
  -19.5289   -8.4086   23.4971 C   0  0  0  0  0  0  0  0  0  0  0  0
  -32.3013  -18.6592   21.8373 C   0  0  0  0  0  0  0  0  0  0  0  0
  -18.2557   -8.0973   23.0200 C   0  0  0  0  0  0  0  0  0  0  0  0
  -29.5565  -18.3409   21.4533 C   0  0  0  0  0  0  0  0  0  0  0  0
  -23.9236  -22.1002   22.0386 C   0  0  0  0  0  0  0  0  0  0  0  0
  -18.9644   -5.8239   22.6122 C   0  0  0  0  0  0  0  0  0  0  0  0
  -23.9088  -10.7090   22.0356 C   0  0  0  0  0  0  0  0  0  0  0  0
  -30.0562  -19.5444   21.9507 C   0  0  0  0  0  0  0  0  0  0  0  0
  -24.1634  -12.9917   20.9256 C   0  0  0  0  0  0  0  0  0  0  0  0
  -19.7680  -29.4066   22.6237 C   0  0  0  0  0  0  0  0  0  0  0  0
  -22.6221  -23.6981   20.7688 C   0  0  0  0  0  0  0  0  0  0  0  0
  -20.5590  -28.2756   22.9023 C   0  0  0  0  0  0  0  0  0  0  0  0
  -22.6756  -22.5775   21.6099 C   0  0  0  0  0  0  0  0  0  0  0  0
  -30.4292  -17.2965   21.1479 C   0  0  0  0  0  0  0  0  0  0  0  0
  -22.4802   -8.7121   23.3600 C   0  0  0  0  0  0  0  0  0  0  0  0
  -25.1024  -22.7210   21.6261 C   0  0  0  0  0  0  0  0  0  0  0  0
  -20.5199   -7.4276   23.5318 C   0  0  0  0  0  0  0  0  0  0  0  0
  -17.9734   -6.8049   22.5775 C   0  0  0  0  0  0  0  0  0  0  0  0
  -31.4286  -19.7036   22.1427 C   0  0  0  0  0  0  0  0  0  0  0  0
  -20.2376   -6.1352   23.0894 C   0  0  0  0  0  0  0  0  0  0  0  0
  -24.6472  -11.7404   21.3521 C   0  0  0  0  0  0  0  0  0  0  0  0
  -25.2467  -13.5956   20.3355 C   0  0  0  0  0  0  0  0  0  0  0  0
  -29.1319  -20.6461   22.2734 C   0  0  0  0  0  0  0  0  0  0  0  0
  -22.8521  -13.5576   21.0516 C   0  0  0  0  0  0  0  0  0  0  0  0
  -20.0910  -24.6389   22.4458 C   0  0  0  0  0  0  0  0  0  0  0  0
  -18.9495  -21.7150   21.6272 C   0  0  0  0  0  0  0  0  0  0  0  0
  -19.6173  -18.5075   20.6720 C   0  0  0  0  0  0  0  0  0  0  0  0
  -30.6505  -14.9375   20.2919 C   0  0  0  0  0  0  0  0  0  0  0  0
  -18.2718  -29.3943   22.8127 C   0  0  0  0  0  0  0  0  0  0  0  0
  -21.2997  -24.2167   20.2740 C   0  0  0  0  0  0  0  0  0  0  0  0
  -21.4273  -21.8744   22.0745 C   0  0  0  0  0  0  0  0  0  0  0  0
  -17.6793  -27.9896   22.8911 C   0  0  0  0  0  0  0  0  0  0  0  0
  -29.7687  -11.7194   19.0497 C   0  0  0  0  0  0  0  0  0  0  0  0
  -27.9524  -20.1460   25.6602 C   0  0  0  0  0  0  0  0  0  0  0  0
  -18.5014  -27.1152   23.8326 C   0  0  0  0  0  0  0  0  0  0  0  0
  -28.3179  -11.5409   19.5029 C   0  0  0  0  0  0  0  0  0  0  0  0
  -27.7438  -21.6432   25.4582 C   0  0  0  0  0  0  0  0  0  0  0  0
  -28.9329  -19.7652   24.5582 C   0  0  0  0  0  0  0  0  0  0  0  0
  -30.6018  -12.4610   20.0936 C   0  0  0  0  0  0  0  0  0  0  0  0
  -28.5907  -13.5651   20.9913 C   0  0  0  0  0  0  0  0  0  0  0  0
  -19.9407  -26.9611   23.3265 C   0  0  1  0  0  0  0  0  0  0  0  0
  -20.1318  -23.8339   21.1777 C   0  0  1  0  0  0  0  0  0  0  0  0
  -27.6966  -12.8805   19.9446 C   0  0  2  0  0  0  0  0  0  0  0  0
  -27.7254  -21.8167   23.9365 C   0  0  2  0  0  0  0  0  0  0  0  0
  -18.4805  -16.3408   20.1150 C   0  0  0  0  0  0  0  0  0  0  0  0
  -18.4465  -21.2187   24.5955 C   0  0  0  0  0  0  0  0  0  0  0  0
  -18.2275  -18.7787   24.0791 C   0  0  0  0  0  0  0  0  0  0  0  0
  -16.6281  -20.4117   23.0801 C   0  0  0  0  0  0  0  0  0  0  0  0
  -20.7056  -18.5101   17.9198 C   0  0  0  0  0  0  0  0  0  0  0  0
  -26.3437  -21.6212   23.3306 C   0  0  0  0  0  0  0  0  0  1  0  0
  -19.0100  -20.3349   22.2360 C   0  0  1  0  0  0  0  0  0  0  0  0
  -19.0379  -17.6447   19.5655 C   0  0  2  0  0  0  0  0  0  0  0  0
  -18.1017  -20.2002   23.4907 C   0  0  0  0  0  0  0  0  0  0  0  0
  -25.9373  -11.5587   21.0579 N   0  0  0  0  0  0  0  0  0  0  0  0
  -26.2734  -12.7039   20.4401 N   0  0  0  0  0  0  0  0  0  0  0  0
  -28.6216  -20.7304   23.4897 N   0  0  0  0  0  0  0  0  0  0  0  0
  -20.1583  -22.4229   21.5684 N   0  0  0  0  0  0  0  0  0  0  0  0
  -29.9539  -13.7222   20.4605 N   0  0  0  0  0  0  0  0  0  0  0  0
  -25.4117  -14.7971   19.7425 N   0  0  0  0  0  0  0  0  0  0  0  0
  -21.8563  -12.8018   21.6851 N   0  0  0  0  0  0  0  0  0  0  0  0
  -29.9219  -16.0733   20.6438 N   0  0  0  0  0  0  0  0  0  0  0  0
  -19.9958  -26.0026   22.2436 N   0  0  0  0  0  0  0  0  0  0  0  0
  -18.6885  -19.4008   21.1625 N   0  0  0  0  0  0  0  0  0  0  0  0
  -28.8273  -21.5391   21.3363 N   0  3  0  0  0  0  0  0  0  0  0  0
  -20.0874  -17.3198   18.5585 N   0  3  0  0  0  0  0  0  0  0  0  0
  -22.5675  -14.6930   20.6007 O   0  0  0  0  0  0  0  0  0  0  0  0
  -20.1407  -24.0653   23.5275 O   0  0  0  0  0  0  0  0  0  0  0  0
  -17.8707  -22.1462   21.2125 O   0  0  0  0  0  0  0  0  0  0  0  0
  -20.7767  -18.3974   21.0646 O   0  0  0  0  0  0  0  0  0  0  0  0
  -31.7983  -14.9705   19.8409 O   0  0  0  0  0  0  0  0  0  0  0  0
  -21.7832   -7.7380   24.0065 O   0  0  0  0  0  0  0  0  0  0  0  0
  -26.3058  -22.2462   22.0484 O   0  0  0  0  0  0  0  0  0  1  0  0
  -16.7503   -6.5057   22.1208 F   0  0  0  0  0  0  0  0  0  0  0  0
  -31.9180  -20.8564   22.6204 F   0  0  0  0  0  0  0  0  0  0  0  0
  -21.1853   -5.1882   23.1214 F   0  0  0  0  0  0  0  0  0  0  0  0
  1  2  1  0  0  0  0
  1  5  2  0  0  0  0
  2  6  2  0  0  0  0
  3  9  2  0  0  0  0
  3 18  1  0  0  0  0
  4 10  1  0  0  0  0
  4 18  2  0  0  0  0
  5 21  1  0  0  0  0
  6 23  1  0  0  0  0
  7 11  2  0  0  0  0
  7 22  1  0  0  0  0
  8 13  2  0  0  0  0
  8 25  1  0  0  0  0
  9 26  1  0  0  0  0
 10 26  2  0  0  0  0
 11 27  1  0  0  0  0
 12 14  2  0  0  0  0
 12 28  1  0  0  0  0
 13 30  1  0  0  0  0
 14 29  1  0  0  0  0
 15 19  1  0  0  0  0
 15 25  2  0  0  0  0
 16 24  1  0  0  0  0
 16 27  2  0  0  0  0
 17 29  2  0  0  0  0
 17 31  1  0  0  0  0
 18 32  1  0  0  0  0
 19 30  2  0  0  0  0
 19 34  1  0  0  0  0
 20 32  1  0  0  0  0
 20 33  2  0  0  0  0
 20 35  1  0  0  0  0
 21 23  2  0  0  0  0
 21 40  1  0  0  0  0
 22 24  2  0  0  0  0
 22 41  1  0  0  0  0
 23 52  1  0  0  0  0
 24 42  1  0  0  0  0
 25 72  1  0  0  0  0
 26 82  1  0  0  0  0
 27 83  1  0  0  0  0
 28 31  2  0  0  0  0
 28 82  1  0  0  0  0
 29 84  1  0  0  0  0
 30 85  1  0  0  0  0
 31 86  1  0  0  0  0
 32 65  2  0  0  0  0
 33 66  1  0  0  0  0
 33 70  1  0  0  0  0
 34 67  1  0  0  0  0
 34 75  2  0  0  0  0
 35 71  1  0  0  0  0
 35 77  2  0  0  0  0
 36 53  1  0  0  0  0
 36 73  1  0  0  0  0
 36 78  2  0  0  0  0
 37 62  1  0  0  0  0
 37 68  1  0  0  0  0
 37 79  2  0  0  0  0
 38 63  1  0  0  0  0
 38 74  1  0  0  0  0
 38 80  2  0  0  0  0
 39 69  1  0  0  0  0
 39 72  1  0  0  0  0
 39 81  2  0  0  0  0
 40 43  1  0  0  0  0
 41 53  1  0  0  0  0
 42 68  1  0  0  0  0
 43 46  1  0  0  0  0
 44 47  1  0  0  0  0
 44 50  1  0  0  0  0
 45 48  1  0  0  0  0
 45 49  1  0  0  0  0
 46 52  1  0  0  0  0
 47 54  1  0  0  0  0
 48 55  1  0  0  0  0
 49 67  1  0  0  0  0
 50 69  1  0  0  0  0
 51 54  1  0  0  0  0
 51 69  1  0  0  0  0
 52 73  1  0  0  0  0
 53 68  1  0  0  0  0
 54 66  1  0  0  0  0
 55 61  1  0  0  0  0
 55 67  1  0  0  0  0
 56 63  1  0  0  0  0
 57 64  1  0  0  0  0
 58 64  1  0  0  0  0
 59 64  1  0  0  0  0
 60 76  1  0  0  0  0
 61 83  1  0  0  0  0
 62 64  1  0  0  0  0
 62 74  1  0  0  0  0
 63 76  1  0  0  0  0
 65 66  1  0  0  0  0
M  CHG  2  75   1  76   1
M  ISO  4  39 100  61 101  72 100  83 101
M  END
> <Batch ID>
0150

> <Smiles>
CNC(C)C(=O)NC(C(=O)N1Cc2cc([101O:1][101CH2:1]C3CCCN3C(=N)c3cc([100NH:0][100C:0](=O)N4CCCC(n5nc(-c6ccc(Oc7ccc(F)cc7F)cc6)c(C(N)=O)c5N)C4)ccc3F)ccc2CC1C(=O)NC1CCCc2ccccc21)C(C)(C)C

> <Shape>
0.218

> <Color>
0.141

> <Negative vol penalty>
0.000

$$$$

  -OEChem-04052303213D

 84 93  0     1  0  0  0  0  0999 V2000
  -28.1671  -29.7369   27.8982 C   0  0  0  0  0  0  0  0  0  0  0  0
  -28.0328  -28.9385   26.7669 C   0  0  0  0  0  0  0  0  0  0  0  0
  -24.7000   -8.5023   21.4132 C   0  0  0  0  0  0  0  0  0  0  0  0
  -23.0399  -10.2553   21.3227 C   0  0  0  0  0  0  0  0  0  0  0  0
  -27.1046  -30.5376   28.3151 C   0  0  0  0  0  0  0  0  0  0  0  0
  -26.8354  -28.9396   26.0523 C   0  0  0  0  0  0  0  0  0  0  0  0
  -27.5602  -29.2022   21.0472 C   0  0  0  0  0  0  0  0  0  0  0  0
  -23.9475   -7.8396   22.3828 C   0  0  0  0  0  0  0  0  0  0  0  0
  -22.2873   -9.5926   22.2923 C   0  0  0  0  0  0  0  0  0  0  0  0
  -27.9392  -28.0290   20.3963 C   0  0  0  0  0  0  0  0  0  0  0  0
  -21.2046   -5.8651   22.4879 C   0  0  0  0  0  0  0  0  0  0  0  0
  -21.0283   -4.4891   22.3431 C   0  0  0  0  0  0  0  0  0  0  0  0
  -25.6606  -27.6995   19.6763 C   0  0  0  0  0  0  0  0  0  0  0  0
  -27.2404  -19.0790   19.8621 C   0  0  0  0  0  0  0  0  0  0  0  0
  -22.1079   -4.1265   24.4739 C   0  0  0  0  0  0  0  0  0  0  0  0
  -24.2463   -9.7102   20.8832 C   0  0  0  0  0  0  0  0  0  0  0  0
  -24.9364  -10.2412   18.4854 C   0  0  0  0  0  0  0  0  0  0  0  0
  -25.8969  -30.5558   27.5997 C   0  0  0  0  0  0  0  0  0  0  0  0
  -26.2242  -29.6278   21.0267 C   0  0  0  0  0  0  0  0  0  0  0  0
  -25.7552  -29.7403   26.4607 C   0  0  0  0  0  0  0  0  0  0  0  0
  -25.2677  -28.8798   20.3255 C   0  0  0  0  0  0  0  0  0  0  0  0
  -26.3639  -20.1967   19.7491 C   0  0  0  0  0  0  0  0  0  0  0  0
  -22.7411   -8.3848   22.8224 C   0  0  0  0  0  0  0  0  0  0  0  0
  -26.9888  -27.2759   19.7132 C   0  0  0  0  0  0  0  0  0  0  0  0
  -21.8327   -6.3719   23.6257 C   0  0  0  0  0  0  0  0  0  0  0  0
  -21.4798   -3.6197   23.3361 C   0  0  0  0  0  0  0  0  0  0  0  0
  -22.2843   -5.5025   24.6186 C   0  0  0  0  0  0  0  0  0  0  0  0
  -25.0235  -10.3954   19.8820 C   0  0  0  0  0  0  0  0  0  0  0  0
  -25.0409  -19.8152   19.7117 C   0  0  0  0  0  0  0  0  0  0  0  0
  -25.8774  -11.1076   17.9849 C   0  0  0  0  0  0  0  0  0  0  0  0
  -26.5536  -17.8856   19.9070 C   0  0  0  0  0  0  0  0  0  0  0  0
  -24.0814   -9.3908   17.7099 C   0  0  0  0  0  0  0  0  0  0  0  0
  -23.9916  -30.1171   23.2357 C   0  0  0  0  0  0  0  0  0  0  0  0
  -22.3015  -31.2627   20.7152 C   0  0  0  0  0  0  0  0  0  0  0  0
  -21.7954  -31.2943   17.3403 C   0  0  0  0  0  0  0  0  0  0  0  0
  -28.3430  -16.1229   20.0999 C   0  0  0  0  0  0  0  0  0  0  0  0
  -24.7600  -31.4018   28.1160 C   0  0  0  0  0  0  0  0  0  0  0  0
  -25.8365  -30.9098   21.7113 C   0  0  0  0  0  0  0  0  0  0  0  0
  -23.8242  -29.3041   20.2562 C   0  0  0  0  0  0  0  0  0  0  0  0
  -23.6543  -31.6289   27.0883 C   0  0  0  0  0  0  0  0  0  0  0  0
  -30.0542  -13.1602   19.1141 C   0  0  0  0  0  0  0  0  0  0  0  0
  -23.2834  -30.3169   26.4044 C   0  0  0  0  0  0  0  0  0  0  0  0
  -28.9493  -12.1023   19.0662 C   0  0  0  0  0  0  0  0  0  0  0  0
  -27.9172  -23.5108   20.2074 C   0  0  0  0  0  0  0  0  0  0  0  0
  -29.8436  -14.1486   20.2597 C   0  0  0  0  0  0  0  0  0  0  0  0
  -28.0189  -21.9899   20.3175 C   0  0  0  0  0  0  0  0  0  0  0  0
  -27.4163  -13.7280   20.2468 C   0  0  0  0  0  0  0  0  0  0  0  0
  -26.0697  -22.5755   19.0011 C   0  0  0  0  0  0  0  0  0  0  0  0
  -24.4807  -29.7329   25.6449 C   0  0  1  0  0  0  0  0  0  0  0  0
  -24.3523  -30.9770   22.0576 C   0  0  1  0  0  0  0  0  0  0  0  0
  -27.5500  -12.7484   19.0694 C   0  0  2  0  0  0  0  0  0  0  0  0
  -27.0771  -23.7421   18.9428 C   0  0  2  0  0  0  0  0  0  0  0  0
  -23.8295  -20.6601   19.6008 C   0  0  0  0  0  0  0  0  0  0  0  0
  -27.9478  -23.6506   17.6781 C   0  0  0  0  0  0  0  0  0  0  0  0
  -20.3158  -32.2983   15.5796 C   0  0  0  0  0  0  0  0  0  0  0  0
  -20.0663  -29.3398   21.5004 C   0  0  0  0  0  0  0  0  0  0  0  0
  -19.0656  -29.6868   19.2318 C   0  0  0  0  0  0  0  0  0  0  0  0
  -19.2900  -31.6122   20.8019 C   0  0  0  0  0  0  0  0  0  0  0  0
  -24.0804  -32.6321   16.0183 C   0  0  0  0  0  0  0  0  0  0  0  0
  -26.3736  -25.0999   18.9766 C   0  0  0  0  0  0  0  0  0  1  0  0
  -21.3584  -30.6641   19.6996 C   0  0  1  0  0  0  0  0  0  0  0  0
  -21.6137  -32.4388   16.3597 C   0  0  2  0  0  0  0  0  0  0  0  0
  -19.9719  -30.3165   20.3112 C   0  0  0  0  0  0  0  0  0  0  0  0
  -25.9470  -11.2894   20.2454 N   0  0  0  0  0  0  0  0  0  0  0  0
  -26.4488  -11.7046   19.0699 N   0  0  0  0  0  0  0  0  0  0  0  0
  -26.7962  -21.5049   19.6843 N   0  0  3  0  0  0  0  0  0  0  0  0
  -23.4933  -30.5616   20.9468 N   0  0  0  0  0  0  0  0  0  0  0  0
  -28.4983  -14.7238   20.1959 N   0  0  0  0  0  0  0  0  0  0  0  0
  -26.2635  -11.4093   16.7270 N   0  0  0  0  0  0  0  0  0  0  0  0
  -23.1724   -8.5637   18.3837 N   0  0  0  0  0  0  0  0  0  0  0  0
  -27.0188  -16.5514   20.0129 N   0  0  0  0  0  0  0  0  0  0  0  0
  -24.6760  -30.4335   24.3937 N   0  0  0  0  0  0  0  0  0  0  0  0
  -21.3018  -31.6083   18.5889 N   0  0  0  0  0  0  0  0  0  0  0  0
  -22.7440  -32.4736   15.3891 N   0  3  0  0  0  0  0  0  0  0  0  0
  -24.1337   -9.3531   16.4571 O   0  0  0  0  0  0  0  0  0  0  0  0
  -23.1534  -29.2329   23.1043 O   0  0  0  0  0  0  0  0  0  0  0  0
  -21.9952  -32.3174   21.2769 O   0  0  0  0  0  0  0  0  0  0  0  0
  -22.3192  -30.2270   17.0288 O   0  0  0  0  0  0  0  0  0  0  0  0
  -29.3142  -16.8829   20.0678 O   0  0  0  0  0  0  0  0  0  0  0  0
  -22.0064   -7.7383   23.7683 O   0  0  0  0  0  0  0  0  0  0  0  0
  -27.3560  -26.1300   19.0775 O   0  0  0  0  0  0  0  0  0  1  0  0
  -21.3090   -2.2984   23.1976 F   0  0  0  0  0  0  0  0  0  0  0  0
  -22.8873   -5.9835   25.7144 F   0  0  0  0  0  0  0  0  0  0  0  0
  -24.8593  -18.1154   19.8128 S   0  0  0  0  0  0  0  0  0  0  0  0
  1  2  1  0  0  0  0
  1  5  2  0  0  0  0
  2  6  2  0  0  0  0
  3  8  2  0  0  0  0
  3 16  1  0  0  0  0
  4  9  1  0  0  0  0
  4 16  2  0  0  0  0
  5 18  1  0  0  0  0
  6 20  1  0  0  0  0
  7 10  2  0  0  0  0
  7 19  1  0  0  0  0
  8 23  1  0  0  0  0
  9 23  2  0  0  0  0
 10 24  1  0  0  0  0
 11 12  2  0  0  0  0
 11 25  1  0  0  0  0
 12 26  1  0  0  0  0
 13 21  1  0  0  0  0
 13 24  2  0  0  0  0
 14 22  1  0  0  0  0
 14 31  2  0  0  0  0
 15 26  2  0  0  0  0
 15 27  1  0  0  0  0
 16 28  1  0  0  0  0
 17 28  1  0  0  0  0
 17 30  2  0  0  0  0
 17 32  1  0  0  0  0
 18 20  2  0  0  0  0
 18 37  1  0  0  0  0
 19 21  2  0  0  0  0
 19 38  1  0  0  0  0
 20 49  1  0  0  0  0
 21 39  1  0  0  0  0
 22 29  2  0  0  0  0
 22 66  1  0  0  0  0
 23 80  1  0  0  0  0
 24 81  1  0  0  0  0
 25 27  2  0  0  0  0
 25 80  1  0  0  0  0
 26 82  1  0  0  0  0
 27 83  1  0  0  0  0
 28 64  2  0  0  0  0
 29 53  1  0  0  0  0
 29 84  1  0  0  0  0
 30 65  1  0  0  0  0
 30 69  1  0  0  0  0
 31 71  1  0  0  0  0
 31 84  1  0  0  0  0
 32 70  1  0  0  0  0
 32 75  2  0  0  0  0
 33 50  1  0  0  0  0
 33 72  1  0  0  0  0
 33 76  2  0  0  0  0
 34 61  1  0  0  0  0
 34 67  1  0  0  0  0
 34 77  2  0  0  0  0
 35 62  1  0  0  0  0
 35 73  1  0  0  0  0
 35 78  2  0  0  0  0
 36 68  1  0  0  0  0
 36 71  1  0  0  0  0
 36 79  2  0  0  0  0
 37 40  1  0  0  0  0
 38 50  1  0  0  0  0
 39 67  1  0  0  0  0
 40 42  1  0  0  0  0
 41 43  1  0  0  0  0
 41 45  1  0  0  0  0
 42 49  1  0  0  0  0
 43 51  1  0  0  0  0
 44 46  1  0  0  0  0
 44 52  1  0  0  0  0
 45 68  1  0  0  0  0
 46 66  1  0  0  0  0
 47 51  1  0  0  0  0
 47 68  1  0  0  0  0
 48 52  1  0  0  0  0
 48 66  1  0  0  0  0
 49 72  1  0  0  0  0
 50 67  1  0  0  0  0
 51 65  1  0  0  0  0
 52 54  1  0  0  0  0
 52 60  1  0  0  0  0
 55 62  1  0  0  0  0
 56 63  1  0  0  0  0
 57 63  1  0  0  0  0
 58 63  1  0  0  0  0
 59 74  1  0  0  0  0
 60 81  1  0  0  0  0
 61 63  1  0  0  0  0
 61 73  1  0  0  0  0
 62 74  1  0  0  0  0
 64 65  1  0  0  0  0
M  CHG  1  74   1
M  ISO  4  36 100  60 101  71 100  81 101
M  END
> <Batch ID>
0150

> <Smiles>
CNC(C)C(=O)NC(C(=O)N1Cc2cc([101O:1][101CH2:1]C3(C)CCN(c4cc([100NH:0][100C:0](=O)N5CCCC(n6nc(-c7ccc(Oc8ccc(F)cc8F)cc7)c(C(N)=O)c6N)C5)sc4C)C3)ccc2CC1C(=O)NC1CCCc2ccccc21)C(C)(C)C

> <Shape>
0.254

> <Color>
0.112

> <Negative vol penalty>
0.000

$$$$

  -OEChem-04052303213D

 84 93  0     1  0  0  0  0  0999 V2000
  -28.8292  -37.0274   22.9092 C   0  0  0  0  0  0  0  0  0  0  0  0
  -29.1850  -35.8173   22.3223 C   0  0  0  0  0  0  0  0  0  0  0  0
  -26.7528  -14.0365   18.5741 C   0  0  0  0  0  0  0  0  0  0  0  0
  -26.2508  -14.2446   20.9282 C   0  0  0  0  0  0  0  0  0  0  0  0
  -27.8621  -37.0561   23.9132 C   0  0  0  0  0  0  0  0  0  0  0  0
  -28.5747  -34.6350   22.7397 C   0  0  0  0  0  0  0  0  0  0  0  0
  -27.1933  -29.7809   19.2705 C   0  0  0  0  0  0  0  0  0  0  0  0
  -25.6436  -13.2067   18.4109 C   0  0  0  0  0  0  0  0  0  0  0  0
  -25.1416  -13.4147   20.7650 C   0  0  0  0  0  0  0  0  0  0  0  0
  -27.8392  -28.5633   19.0612 C   0  0  0  0  0  0  0  0  0  0  0  0
  -24.5301  -10.1028   20.4685 C   0  0  0  0  0  0  0  0  0  0  0  0
  -24.3317   -9.0934   21.4105 C   0  0  0  0  0  0  0  0  0  0  0  0
  -26.4361  -27.5382   20.7345 C   0  0  0  0  0  0  0  0  0  0  0  0
  -22.1877  -10.0488   21.9826 C   0  0  0  0  0  0  0  0  0  0  0  0
  -27.0564  -14.5554   19.8328 C   0  0  0  0  0  0  0  0  0  0  0  0
  -28.2397  -16.8148   19.8863 C   0  0  0  0  0  0  0  0  0  0  0  0
  -27.2327  -35.8749   24.3364 C   0  0  0  0  0  0  0  0  0  0  0  0
  -26.1695  -29.8891   20.2227 C   0  0  0  0  0  0  0  0  0  0  0  0
  -27.5993  -34.6479   23.7512 C   0  0  0  0  0  0  0  0  0  0  0  0
  -25.7770  -28.7578   20.9521 C   0  0  0  0  0  0  0  0  0  0  0  0
  -24.8380  -12.8958   19.5064 C   0  0  0  0  0  0  0  0  0  0  0  0
  -27.4627  -27.4424   19.7953 C   0  0  0  0  0  0  0  0  0  0  0  0
  -23.5573  -11.0852   20.2836 C   0  0  0  0  0  0  0  0  0  0  0  0
  -23.1605   -9.0663   22.1675 C   0  0  0  0  0  0  0  0  0  0  0  0
  -22.3861  -11.0582   21.0407 C   0  0  0  0  0  0  0  0  0  0  0  0
  -28.2024  -15.4123   20.0022 C   0  0  0  0  0  0  0  0  0  0  0  0
  -29.5491  -17.1453   20.1372 C   0  0  0  0  0  0  0  0  0  0  0  0
  -31.7532  -20.8988   22.8941 C   0  0  0  0  0  0  0  0  0  0  0  0
  -30.4892  -22.6372   21.9210 C   0  0  0  0  0  0  0  0  0  0  0  0
  -27.1851  -17.7364   19.5795 C   0  0  0  0  0  0  0  0  0  0  0  0
  -25.7599  -31.5595   22.8959 C   0  0  0  0  0  0  0  0  0  0  0  0
  -22.7805  -30.2822   22.7757 C   0  0  0  0  0  0  0  0  0  0  0  0
  -29.4189  -24.4837   20.5872 C   0  0  0  0  0  0  0  0  0  0  0  0
  -20.7450  -27.7766   21.6689 C   0  0  0  0  0  0  0  0  0  0  0  0
  -34.0309  -16.4731   23.4530 C   0  0  0  0  0  0  0  0  0  0  0  0
  -26.2271  -35.9498   25.4580 C   0  0  0  0  0  0  0  0  0  0  0  0
  -25.4645  -31.2034   20.4176 C   0  0  0  0  0  0  0  0  0  0  0  0
  -24.6701  -28.8164   21.9718 C   0  0  0  0  0  0  0  0  0  0  0  0
  -25.3584  -34.7007   25.5817 C   0  0  0  0  0  0  0  0  0  0  0  0
  -33.6814  -14.2526   20.5473 C   0  0  0  0  0  0  0  0  0  0  0  0
  -26.2184  -33.4430   25.5082 C   0  0  0  0  0  0  0  0  0  0  0  0
  -32.2097  -14.4381   20.1688 C   0  0  0  0  0  0  0  0  0  0  0  0
  -33.7324  -19.9920   24.3114 C   0  0  0  0  0  0  0  0  0  0  0  0
  -33.9187  -14.4466   22.0439 C   0  0  0  0  0  0  0  0  0  0  0  0
  -34.1392  -18.5920   24.7424 C   0  0  0  0  0  0  0  0  0  0  0  0
  -32.4279  -18.4296   23.0707 C   0  0  0  0  0  0  0  0  0  0  0  0
  -31.9193  -15.8748   22.2175 C   0  0  0  0  0  0  0  0  0  0  0  0
  -26.9420  -33.3474   24.1596 C   0  0  1  0  0  0  0  0  0  0  0  0
  -32.3105  -19.7957   23.7672 C   0  0  2  0  0  0  0  0  0  0  0  0
  -24.7845  -31.3208   21.7782 C   0  0  1  0  0  0  0  0  0  0  0  0
  -31.6584  -15.7722   20.7090 C   0  0  2  0  0  0  0  0  0  0  0  0
  -18.3656  -26.9848   21.7635 C   0  0  0  0  0  0  0  0  0  0  0  0
  -23.2261  -29.2912   25.6269 C   0  0  0  0  0  0  0  0  0  0  0  0
  -21.2808  -27.7454   25.3194 C   0  0  0  0  0  0  0  0  0  0  0  0
  -20.9433  -30.2135   25.1878 C   0  0  0  0  0  0  0  0  0  0  0  0
  -20.4360  -27.9883   18.7332 C   0  0  0  0  0  0  0  0  0  0  0  0
  -28.1867  -25.3628   20.6937 C   0  0  0  0  0  0  0  0  0  1  0  0
  -22.1350  -29.0233   23.3023 C   0  0  1  0  0  0  0  0  0  0  0  0
  -19.3863  -27.8072   20.9924 C   0  0  2  0  0  0  0  0  0  0  0  0
  -21.9185  -29.0674   24.8413 C   0  0  0  0  0  0  0  0  0  0  0  0
  -29.3934  -14.8878   20.3030 N   0  0  0  0  0  0  0  0  0  0  0  0
  -32.2967  -21.3299   21.7758 N   0  0  0  0  0  0  0  0  0  0  0  0
  -31.5558  -22.3503   21.2055 N   0  0  0  0  0  0  0  0  0  0  0  0
  -30.1914  -15.9665   20.3783 N   0  0  0  0  0  0  0  0  0  0  0  0
  -24.0154  -30.1255   22.1306 N   0  0  0  0  0  0  0  0  0  0  0  0
  -33.3485  -15.7133   22.4981 N   0  0  0  0  0  0  0  0  0  0  0  0
  -33.4686  -17.7032   23.8032 N   0  0  0  0  0  0  0  0  0  0  0  0
  -30.2020  -18.3263   20.1728 N   0  0  0  0  0  0  0  0  0  0  0  0
  -25.8994  -17.2281   19.3495 N   0  0  0  0  0  0  0  0  0  0  0  0
  -29.5252  -23.5756   21.6737 N   0  0  0  0  0  0  0  0  0  0  0  0
  -26.0326  -32.8939   23.1292 N   0  0  0  0  0  0  0  0  0  0  0  0
  -20.9100  -28.8395   22.5316 N   0  0  0  0  0  0  0  0  0  0  0  0
  -19.4837  -27.2593   19.6099 N   0  3  0  0  0  0  0  0  0  0  0  0
  -27.3807  -18.9726   19.4952 O   0  0  0  0  0  0  0  0  0  0  0  0
  -26.2291  -30.6039   23.5027 O   0  0  0  0  0  0  0  0  0  0  0  0
  -22.2067  -31.3640   22.9248 O   0  0  0  0  0  0  0  0  0  0  0  0
  -30.2023  -24.5865   19.6490 O   0  0  0  0  0  0  0  0  0  0  0  0
  -21.5752  -26.8957   21.4564 O   0  0  0  0  0  0  0  0  0  0  0  0
  -35.1110  -16.0945   23.9231 O   0  0  0  0  0  0  0  0  0  0  0  0
  -23.7554  -12.0862   19.3474 O   0  0  0  0  0  0  0  0  0  0  0  0
  -28.0985  -26.2404   19.5914 O   0  0  0  0  0  0  0  0  0  1  0  0
  -22.9695   -8.0961   23.0710 F   0  0  0  0  0  0  0  0  0  0  0  0
  -21.4474  -11.9986   20.8667 F   0  0  0  0  0  0  0  0  0  0  0  0
  -30.3008  -21.6941   23.3410 S   0  0  0  0  0  0  0  0  0  0  0  0
  1  2  1  0  0  0  0
  1  5  2  0  0  0  0
  2  6  2  0  0  0  0
  3  8  2  0  0  0  0
  3 15  1  0  0  0  0
  4  9  1  0  0  0  0
  4 15  2  0  0  0  0
  5 17  1  0  0  0  0
  6 19  1  0  0  0  0
  7 10  2  0  0  0  0
  7 18  1  0  0  0  0
  8 21  1  0  0  0  0
  9 21  2  0  0  0  0
 10 22  1  0  0  0  0
 11 12  2  0  0  0  0
 11 23  1  0  0  0  0
 12 24  1  0  0  0  0
 13 20  1  0  0  0  0
 13 22  2  0  0  0  0
 14 24  2  0  0  0  0
 14 25  1  0  0  0  0
 15 26  1  0  0  0  0
 16 26  1  0  0  0  0
 16 27  2  0  0  0  0
 16 30  1  0  0  0  0
 17 19  2  0  0  0  0
 17 36  1  0  0  0  0
 18 20  2  0  0  0  0
 18 37  1  0  0  0  0
 19 48  1  0  0  0  0
 20 38  1  0  0  0  0
 21 80  1  0  0  0  0
 22 81  1  0  0  0  0
 23 25  2  0  0  0  0
 23 80  1  0  0  0  0
 24 82  1  0  0  0  0
 25 83  1  0  0  0  0
 26 61  2  0  0  0  0
 27 64  1  0  0  0  0
 27 68  1  0  0  0  0
 28 49  1  0  0  0  0
 28 62  2  0  0  0  0
 28 84  1  0  0  0  0
 29 63  2  0  0  0  0
 29 70  1  0  0  0  0
 29 84  1  0  0  0  0
 30 69  1  0  0  0  0
 30 74  2  0  0  0  0
 31 50  1  0  0  0  0
 31 71  1  0  0  0  0
 31 75  2  0  0  0  0
 32 58  1  0  0  0  0
 32 65  1  0  0  0  0
 32 76  2  0  0  0  0
 33 57  1  0  0  0  0
 33 70  1  0  0  0  0
 33 77  2  0  0  0  0
 34 59  1  0  0  0  0
 34 72  1  0  0  0  0
 34 78  2  0  0  0  0
 35 66  1  0  0  0  0
 35 67  1  0  0  0  0
 35 79  2  0  0  0  0
 36 39  1  0  0  0  0
 37 50  1  0  0  0  0
 38 65  1  0  0  0  0
 39 41  1  0  0  0  0
 40 42  1  0  0  0  0
 40 44  1  0  0  0  0
 41 48  1  0  0  0  0
 42 51  1  0  0  0  0
 43 45  1  0  0  0  0
 43 49  1  0  0  0  0
 44 66  1  0  0  0  0
 45 67  1  0  0  0  0
 46 49  1  0  0  0  0
 46 67  1  0  0  0  0
 47 51  1  0  0  0  0
 47 66  1  0  0  0  0
 48 71  1  0  0  0  0
 50 65  1  0  0  0  0
 51 64  1  0  0  0  0
 52 59  1  0  0  0  0
 53 60  1  0  0  0  0
 54 60  1  0  0  0  0
 55 60  1  0  0  0  0
 56 73  1  0  0  0  0
 57 81  1  0  0  0  0
 58 60  1  0  0  0  0
 58 72  1  0  0  0  0
 59 73  1  0  0  0  0
 61 64  1  0  0  0  0
 62 63  1  0  0  0  0
M  CHG  1  73   1
M  ISO  4  35 100  57 101  67 100  81 101
M  END
> <Batch ID>
0150

> <Smiles>
CNC(C)C(=O)NC(C(=O)N1Cc2cc([101O:1][101CH2:1]C(=O)Nc3nnc(C4CC[100N:0]([100C:0](=O)N5CCCC(n6nc(-c7ccc(Oc8ccc(F)cc8F)cc7)c(C(N)=O)c6N)C5)C4)s3)ccc2CC1C(=O)NC1CCCc2ccccc21)C(C)(C)C

> <Shape>
0.283

> <Color>
0.077

> <Negative vol penalty>
0.000

$$$$

  -OEChem-04052303213D

 84 93  0     1  0  0  0  0  0999 V2000
  -27.7441  -35.0136   22.8729 C   0  0  0  0  0  0  0  0  0  0  0  0
  -27.9162  -33.6773   23.2198 C   0  0  0  0  0  0  0  0  0  0  0  0
  -22.9668  -10.5204   21.4339 C   0  0  0  0  0  0  0  0  0  0  0  0
  -24.7066   -8.8560   21.6344 C   0  0  0  0  0  0  0  0  0  0  0  0
  -26.5610  -35.4273   22.2623 C   0  0  0  0  0  0  0  0  0  0  0  0
  -26.9046  -32.7542   22.9572 C   0  0  0  0  0  0  0  0  0  0  0  0
  -30.3775  -17.9446   22.4447 C   0  0  0  0  0  0  0  0  0  0  0  0
  -28.6724  -28.4532   20.9516 C   0  0  0  0  0  0  0  0  0  0  0  0
  -30.7396  -19.1830   22.9790 C   0  0  0  0  0  0  0  0  0  0  0  0
  -22.0039   -9.5115   21.4143 C   0  0  0  0  0  0  0  0  0  0  0  0
  -23.7436   -7.8471   21.6148 C   0  0  0  0  0  0  0  0  0  0  0  0
  -29.2678  -27.5421   21.8228 C   0  0  0  0  0  0  0  0  0  0  0  0
  -21.7182   -4.8501   21.9807 C   0  0  0  0  0  0  0  0  0  0  0  0
  -21.8384   -3.8197   22.9131 C   0  0  0  0  0  0  0  0  0  0  0  0
  -29.4132  -20.3475   21.3028 C   0  0  0  0  0  0  0  0  0  0  0  0
  -27.2289  -26.2534   21.8590 C   0  0  0  0  0  0  0  0  0  0  0  0
  -21.6675   -5.4257   24.7099 C   0  0  0  0  0  0  0  0  0  0  0  0
  -24.3182  -10.1927   21.5439 C   0  0  0  0  0  0  0  0  0  0  0  0
  -25.8226  -11.9024   22.6933 C   0  0  0  0  0  0  0  0  0  0  0  0
  -25.5383  -34.5070   21.9833 C   0  0  0  0  0  0  0  0  0  0  0  0
  -27.3449  -28.2769   20.5355 C   0  0  0  0  0  0  0  0  0  0  0  0
  -29.5394  -17.9283   21.3438 C   0  0  0  0  0  0  0  0  0  0  0  0
  -25.7061  -33.1562   22.3435 C   0  0  0  0  0  0  0  0  0  0  0  0
  -29.0625  -19.1156   20.7796 C   0  0  0  0  0  0  0  0  0  0  0  0
  -26.6197  -27.1624   20.9805 C   0  0  0  0  0  0  0  0  0  0  0  0
  -30.2605  -20.3755   22.4127 C   0  0  0  0  0  0  0  0  0  0  0  0
  -22.3922   -8.1749   21.5048 C   0  0  0  0  0  0  0  0  0  0  0  0
  -28.5452  -26.4435   22.2789 C   0  0  0  0  0  0  0  0  0  0  0  0
  -21.5728   -6.1683   22.4129 C   0  0  0  0  0  0  0  0  0  0  0  0
  -21.8130   -4.1075   24.2777 C   0  0  0  0  0  0  0  0  0  0  0  0
  -21.5474   -6.4561   23.7775 C   0  0  0  0  0  0  0  0  0  0  0  0
  -25.3135  -11.2344   21.5636 C   0  0  0  0  0  0  0  0  0  0  0  0
  -26.7350  -12.7934   22.1832 C   0  0  0  0  0  0  0  0  0  0  0  0
  -25.4998  -11.7326   24.0799 C   0  0  0  0  0  0  0  0  0  0  0  0
  -24.6582  -29.9481   20.8392 C   0  0  0  0  0  0  0  0  0  0  0  0
  -23.4732  -27.6635   18.8646 C   0  0  0  0  0  0  0  0  0  0  0  0
  -30.2676  -22.8906   22.5488 C   0  0  0  0  0  0  0  0  0  0  0  0
  -23.7073  -24.4865   17.6405 C   0  0  0  0  0  0  0  0  0  0  0  0
  -27.8474  -16.7237   18.3079 C   0  0  0  0  0  0  0  0  0  0  0  0
  -24.2580  -35.0099   21.3648 C   0  0  0  0  0  0  0  0  0  0  0  0
  -26.7257  -29.2544   19.5744 C   0  0  0  0  0  0  0  0  0  0  0  0
  -28.9932  -16.7477   20.6086 C   0  0  0  0  0  0  0  0  0  0  0  0
  -28.1887  -18.8178   19.6082 C   0  0  0  0  0  0  0  0  0  0  0  0
  -25.1983  -26.9167   20.5475 C   0  0  0  0  0  0  0  0  0  0  0  0
  -23.3868  -33.9006   20.7809 C   0  0  0  0  0  0  0  0  0  0  0  0
  -28.6839  -13.2359   17.5349 C   0  0  0  0  0  0  0  0  0  0  0  0
  -23.2694  -32.7405   21.7644 C   0  0  0  0  0  0  0  0  0  0  0  0
  -27.8843  -12.4608   18.5846 C   0  0  0  0  0  0  0  0  0  0  0  0
  -28.0040  -14.5483   17.1499 C   0  0  0  0  0  0  0  0  0  0  0  0
  -26.8536  -14.6376   19.3259 C   0  0  0  0  0  0  0  0  0  0  0  0
  -24.6420  -32.1204   22.0524 C   0  0  1  0  0  0  0  0  0  0  0  0
  -25.2009  -29.2546   19.6218 C   0  0  1  0  0  0  0  0  0  0  0  0
  -27.5438  -13.3503   19.7959 C   0  0  1  0  0  0  0  0  0  0  0  0
  -22.5736  -22.8928   16.0682 C   0  0  0  0  0  0  0  0  0  0  0  0
  -21.2681  -27.2051   20.9231 C   0  0  0  0  0  0  0  0  0  0  0  0
  -20.7584  -25.0315   19.7901 C   0  0  0  0  0  0  0  0  0  0  0  0
  -20.4969  -27.1767   18.5442 C   0  0  0  0  0  0  0  0  0  0  0  0
  -26.1198  -24.2655   15.9406 C   0  0  0  0  0  0  0  0  0  0  0  0
  -30.9038  -23.9562   23.4342 C   0  0  0  0  0  0  0  0  0  0  0  0
  -30.5345  -25.3733   23.0228 C   0  0  0  0  0  0  0  0  0  1  0  0
  -22.8182  -26.3174   19.0589 C   0  0  1  0  0  0  0  0  0  0  0  0
  -23.6585  -23.9473   16.2223 C   0  0  2  0  0  0  0  0  0  0  0  0
  -21.3615  -26.4381   19.5889 C   0  0  0  0  0  0  0  0  0  0  0  0
  -25.8571  -11.6644   20.4218 N   0  0  0  0  0  0  0  0  0  0  0  0
  -26.7173  -12.6122   20.8315 N   0  0  0  0  0  0  0  0  0  0  0  0
  -24.6349  -27.9041   19.6119 N   0  0  0  0  0  0  0  0  0  0  0  0
  -28.2264  -17.3501   19.4978 N   0  0  0  0  0  0  0  0  0  0  0  0
  -27.6832  -15.3353   18.3395 N   0  0  0  0  0  0  0  0  0  0  0  0
  -27.5425  -13.7064   22.7634 N   0  0  0  0  0  0  0  0  0  0  0  0
  -24.5402  -10.7729   24.4299 N   0  0  0  0  0  0  0  0  0  0  0  0
  -30.6359  -21.6011   22.9653 N   0  0  0  0  0  0  0  0  0  0  0  0
  -25.0512  -31.2676   20.9571 N   0  0  0  0  0  0  0  0  0  0  0  0
  -22.9340  -25.6191   17.7832 N   0  0  0  0  0  0  0  0  0  0  0  0
  -24.9662  -23.3333   15.8563 N   0  3  0  0  0  0  0  0  0  0  0  0
  -26.0341  -12.4233   24.9805 O   0  0  0  0  0  0  0  0  0  0  0  0
  -23.9350  -29.3322   21.6134 O   0  0  0  0  0  0  0  0  0  0  0  0
  -22.9766  -28.4692   18.0735 O   0  0  0  0  0  0  0  0  0  0  0  0
  -29.5365  -23.1762   21.6064 O   0  0  0  0  0  0  0  0  0  0  0  0
  -24.3627  -23.9539   18.5334 O   0  0  0  0  0  0  0  0  0  0  0  0
  -27.7166  -17.3635   17.2566 O   0  0  0  0  0  0  0  0  0  0  0  0
  -21.4528   -7.1901   21.4859 O   0  0  0  0  0  0  0  0  0  0  0  0
  -29.1279  -25.5466   23.1358 O   0  0  0  0  0  0  0  0  0  1  0  0
  -21.9269   -3.1177   25.1730 F   0  0  0  0  0  0  0  0  0  0  0  0
  -21.4067   -7.7205   24.1987 F   0  0  0  0  0  0  0  0  0  0  0  0
  1  2  1  0  0  0  0
  1  5  2  0  0  0  0
  2  6  2  0  0  0  0
  3 10  2  0  0  0  0
  3 18  1  0  0  0  0
  4 11  1  0  0  0  0
  4 18  2  0  0  0  0
  5 20  1  0  0  0  0
  6 23  1  0  0  0  0
  7  9  2  0  0  0  0
  7 22  1  0  0  0  0
  8 12  2  0  0  0  0
  8 21  1  0  0  0  0
  9 26  1  0  0  0  0
 10 27  1  0  0  0  0
 11 27  2  0  0  0  0
 12 28  1  0  0  0  0
 13 14  2  0  0  0  0
 13 29  1  0  0  0  0
 14 30  1  0  0  0  0
 15 24  1  0  0  0  0
 15 26  2  0  0  0  0
 16 25  1  0  0  0  0
 16 28  2  0  0  0  0
 17 30  2  0  0  0  0
 17 31  1  0  0  0  0
 18 32  1  0  0  0  0
 19 32  1  0  0  0  0
 19 33  2  0  0  0  0
 19 34  1  0  0  0  0
 20 23  2  0  0  0  0
 20 40  1  0  0  0  0
 21 25  2  0  0  0  0
 21 41  1  0  0  0  0
 22 24  2  0  0  0  0
 22 42  1  0  0  0  0
 23 51  1  0  0  0  0
 24 43  1  0  0  0  0
 25 44  1  0  0  0  0
 26 71  1  0  0  0  0
 27 81  1  0  0  0  0
 28 82  1  0  0  0  0
 29 31  2  0  0  0  0
 29 81  1  0  0  0  0
 30 83  1  0  0  0  0
 31 84  1  0  0  0  0
 32 64  2  0  0  0  0
 33 65  1  0  0  0  0
 33 69  1  0  0  0  0
 34 70  1  0  0  0  0
 34 75  2  0  0  0  0
 35 52  1  0  0  0  0
 35 72  1  0  0  0  0
 35 76  2  0  0  0  0
 36 61  1  0  0  0  0
 36 66  1  0  0  0  0
 36 77  2  0  0  0  0
 37 59  1  0  0  0  0
 37 71  1  0  0  0  0
 37 78  2  0  0  0  0
 38 62  1  0  0  0  0
 38 73  1  0  0  0  0
 38 79  2  0  0  0  0
 39 67  1  0  0  0  0
 39 68  1  0  0  0  0
 39 80  2  0  0  0  0
 40 45  1  0  0  0  0
 41 52  1  0  0  0  0
 42 67  1  0  0  0  0
 43 67  1  0  0  0  0
 44 66  1  0  0  0  0
 45 47  1  0  0  0  0
 46 48  1  0  0  0  0
 46 49  1  0  0  0  0
 47 51  1  0  0  0  0
 48 53  1  0  0  0  0
 49 68  1  0  0  0  0
 50 53  1  0  0  0  0
 50 68  1  0  0  0  0
 51 72  1  0  0  0  0
 52 66  1  0  0  0  0
 53 65  1  0  0  0  0
 54 62  1  0  0  0  0
 55 63  1  0  0  0  0
 56 63  1  0  0  0  0
 57 63  1  0  0  0  0
 58 74  1  0  0  0  0
 59 60  1  0  0  0  0
 60 82  1  0  0  0  0
 61 63  1  0  0  0  0
 61 73  1  0  0  0  0
 62 74  1  0  0  0  0
 64 65  1  0  0  0  0
M  CHG  1  74   1
M  ISO  4  39 100  60 101  67 100  82 101
M  END
> <Batch ID>
0150

> <Smiles>
CNC(C)C(=O)NC(C(=O)N1Cc2cc([101O:1][101CH2:1]CC(=O)Nc3ccc4c(c3)C[100N:0]([100C:0](=O)N3CCCC(n5nc(-c6ccc(Oc7ccc(F)cc7F)cc6)c(C(N)=O)c5N)C3)C4)ccc2CC1C(=O)NC1CCCc2ccccc21)C(C)(C)C

> <Shape>
0.267

> <Color>
0.094

> <Negative vol penalty>
0.000

$$$$

  -OEChem-04052303213D

 85 93  0     1  0  0  0  0  0999 V2000
  -19.5246  -32.9769   19.3637 C   0  0  0  0  0  0  0  0  0  0  0  0
  -20.8684  -32.6192   19.3227 C   0  0  0  0  0  0  0  0  0  0  0  0
  -26.5310  -12.5450   21.6256 C   0  0  0  0  0  0  0  0  0  0  0  0
  -26.1015  -13.6072   19.4986 C   0  0  0  0  0  0  0  0  0  0  0  0
  -18.7571  -32.6718   20.4870 C   0  0  0  0  0  0  0  0  0  0  0  0
  -21.4458  -31.9570   20.4056 C   0  0  0  0  0  0  0  0  0  0  0  0
  -24.3510  -28.0629   18.9770 C   0  0  0  0  0  0  0  0  0  0  0  0
  -25.2710  -11.9483   21.5821 C   0  0  0  0  0  0  0  0  0  0  0  0
  -24.8415  -13.0104   19.4550 C   0  0  0  0  0  0  0  0  0  0  0  0
  -25.6230  -28.3622   18.4910 C   0  0  0  0  0  0  0  0  0  0  0  0
  -23.8165   -9.3089   20.0488 C   0  0  0  0  0  0  0  0  0  0  0  0
  -23.7274   -7.9574   20.3822 C   0  0  0  0  0  0  0  0  0  0  0  0
  -26.5687  -27.8009   20.6380 C   0  0  0  0  0  0  0  0  0  0  0  0
  -30.1685  -22.6372   19.2991 C   0  0  0  0  0  0  0  0  0  0  0  0
  -22.2211   -8.5027   22.1907 C   0  0  0  0  0  0  0  0  0  0  0  0
  -26.9462  -13.3745   20.5839 C   0  0  0  0  0  0  0  0  0  0  0  0
  -29.4537  -13.4697   20.1242 C   0  0  0  0  0  0  0  0  0  0  0  0
  -19.3230  -31.9970   21.5802 C   0  0  0  0  0  0  0  0  0  0  0  0
  -24.1768  -27.6402   20.3026 C   0  0  0  0  0  0  0  0  0  0  0  0
  -20.6855  -31.6438   21.5451 C   0  0  0  0  0  0  0  0  0  0  0  0
  -25.2937  -27.4945   21.1376 C   0  0  0  0  0  0  0  0  0  0  0  0
  -29.6600  -21.3333   19.0316 C   0  0  0  0  0  0  0  0  0  0  0  0
  -24.4263  -12.1810   20.4968 C   0  0  0  0  0  0  0  0  0  0  0  0
  -26.7318  -28.2340   19.3224 C   0  0  0  0  0  0  0  0  0  0  0  0
  -23.1079  -10.2573   20.7865 C   0  0  0  0  0  0  0  0  0  0  0  0
  -22.9297   -7.5543   21.4531 C   0  0  0  0  0  0  0  0  0  0  0  0
  -22.3102   -9.8543   21.8573 C   0  0  0  0  0  0  0  0  0  0  0  0
  -28.2475  -13.9917   20.6286 C   0  0  0  0  0  0  0  0  0  0  0  0
  -30.3913  -14.4307   20.4138 C   0  0  0  0  0  0  0  0  0  0  0  0
  -30.0892  -23.4597   18.1970 C   0  0  0  0  0  0  0  0  0  0  0  0
  -29.2112  -21.2090   17.7351 C   0  0  0  0  0  0  0  0  0  0  0  0
  -29.7041  -12.2274   19.4538 C   0  0  0  0  0  0  0  0  0  0  0  0
  -22.6296  -28.7787   22.8352 C   0  0  0  0  0  0  0  0  0  0  0  0
  -30.2012  -27.6835   18.4099 C   0  0  0  0  0  0  0  0  0  0  0  0
  -23.5302  -25.9604   24.1650 C   0  0  0  0  0  0  0  0  0  0  0  0
  -25.7035  -23.3291   24.1839 C   0  0  0  0  0  0  0  0  0  0  0  0
  -30.0500  -20.3288   21.3087 C   0  0  0  0  0  0  0  0  0  0  0  0
  -18.4654  -31.7307   22.7919 C   0  0  0  0  0  0  0  0  0  0  0  0
  -22.8010  -27.2956   20.8037 C   0  0  0  0  0  0  0  0  0  0  0  0
  -25.1627  -27.0248   22.5627 C   0  0  0  0  0  0  0  0  0  0  0  0
  -19.0593  -30.6946   23.7427 C   0  0  0  0  0  0  0  0  0  0  0  0
  -31.3428  -17.9029   23.5717 C   0  0  0  0  0  0  0  0  0  0  0  0
  -20.5362  -30.9835   23.9920 C   0  0  0  0  0  0  0  0  0  0  0  0
  -30.8106  -16.5766   23.0244 C   0  0  0  0  0  0  0  0  0  0  0  0
  -30.3263  -19.0319   23.4103 C   0  0  0  0  0  0  0  0  0  0  0  0
  -29.2753  -17.8837   21.5008 C   0  0  0  0  0  0  0  0  0  0  0  0
  -21.3417  -30.9025   22.6897 C   0  0  1  0  0  0  0  0  0  0  0  0
  -22.6832  -27.3671   22.3230 C   0  0  1  0  0  0  0  0  0  0  0  0
  -30.2890  -16.7307   21.5823 C   0  0  2  0  0  0  0  0  0  0  0  0
  -26.2078  -21.1995   25.4118 C   0  0  0  0  0  0  0  0  0  0  0  0
  -32.1585  -27.6713   20.0151 C   0  0  0  0  0  0  0  0  0  0  0  0
  -32.4673  -26.9244   17.6540 C   0  0  0  0  0  0  0  0  0  0  0  0
  -24.7338  -27.5713   26.4599 C   0  0  0  0  0  0  0  0  0  0  0  0
  -26.0138  -25.5270   27.1313 C   0  0  0  0  0  0  0  0  0  0  0  0
  -23.5196  -25.5010   27.1629 C   0  0  0  0  0  0  0  0  0  0  0  0
  -25.2836  -21.6926   21.7541 C   0  0  0  0  0  0  0  0  0  0  0  0
  -29.0697  -27.8088   19.4184 C   0  0  0  0  0  0  0  0  0  1  0  0
  -31.0800  -25.5017   19.2333 C   0  0  0  0  0  0  0  0  0  0  0  0
  -24.7313  -25.4812   24.9440 C   0  0  1  0  0  0  0  0  0  0  0  0
  -25.4700  -21.8302   24.2410 C   0  0  2  0  0  0  0  0  0  0  0  0
  -31.4856  -26.9388   18.8431 C   0  0  0  0  0  0  0  0  0  0  0  0
  -24.7522  -26.0309   26.3983 C   0  0  0  0  0  0  0  0  0  0  0  0
  -28.4019  -15.1911   21.1958 N   0  0  0  0  0  0  0  0  0  0  0  0
  -29.7161  -15.4307   21.0496 N   0  0  0  0  0  0  0  0  0  0  0  0
  -23.7960  -26.7063   23.0079 N   0  0  0  0  0  0  0  0  0  0  0  0
  -29.8804  -19.1210   22.0182 N   0  0  0  0  0  0  0  0  0  0  0  0
  -31.7193  -14.5093   20.1841 N   0  0  0  0  0  0  0  0  0  0  0  0
  -28.6701  -20.1055   17.1571 N   0  0  0  0  0  0  0  0  0  0  0  0
  -28.6278  -11.3563   19.2370 N   0  0  0  0  0  0  0  0  0  0  0  0
  -29.6184  -20.2845   19.9835 N   0  0  0  0  0  0  0  0  0  0  0  0
  -30.4967  -24.7815   18.1248 N   0  0  0  0  0  0  0  0  0  0  0  0
  -21.5807  -29.5217   22.3282 N   0  0  0  0  0  0  0  0  0  0  0  0
  -24.7208  -24.0250   24.8557 N   0  0  0  0  0  0  0  0  0  0  0  0
  -25.9432  -21.1841   22.9843 N   0  3  0  0  0  0  0  0  0  0  0  0
  -30.8515  -11.8921   19.0733 O   0  0  0  0  0  0  0  0  0  0  0  0
  -23.4764  -29.1646   23.6325 O   0  0  0  0  0  0  0  0  0  0  0  0
  -30.0705  -28.1279   17.2666 O   0  0  0  0  0  0  0  0  0  0  0  0
  -22.3981  -25.6770   24.5644 O   0  0  0  0  0  0  0  0  0  0  0  0
  -26.6638  -23.8321   23.6048 O   0  0  0  0  0  0  0  0  0  0  0  0
  -30.5669  -21.3204   21.8298 O   0  0  0  0  0  0  0  0  0  0  0  0
  -23.1968  -11.5986   20.4538 O   0  0  0  0  0  0  0  0  0  0  0  0
  -27.9744  -28.5260   18.8508 O   0  0  0  0  0  0  0  0  0  1  0  0
  -22.8430   -6.2563   21.7721 F   0  0  0  0  0  0  0  0  0  0  0  0
  -21.6262  -10.7607   22.5689 F   0  0  0  0  0  0  0  0  0  0  0  0
  -29.4039  -22.6601   16.8466 S   0  0  0  0  0  0  0  0  0  0  0  0
  1  2  1  0  0  0  0
  1  5  2  0  0  0  0
  2  6  2  0  0  0  0
  3  8  2  0  0  0  0
  3 16  1  0  0  0  0
  4  9  1  0  0  0  0
  4 16  2  0  0  0  0
  5 18  1  0  0  0  0
  6 20  1  0  0  0  0
  7 10  2  0  0  0  0
  7 19  1  0  0  0  0
  8 23  1  0  0  0  0
  9 23  2  0  0  0  0
 10 24  1  0  0  0  0
 11 12  2  0  0  0  0
 11 25  1  0  0  0  0
 12 26  1  0  0  0  0
 13 21  1  0  0  0  0
 13 24  2  0  0  0  0
 14 22  1  0  0  0  0
 14 30  2  0  0  0  0
 15 26  2  0  0  0  0
 15 27  1  0  0  0  0
 16 28  1  0  0  0  0
 17 28  1  0  0  0  0
 17 29  2  0  0  0  0
 17 32  1  0  0  0  0
 18 20  2  0  0  0  0
 18 38  1  0  0  0  0
 19 21  2  0  0  0  0
 19 39  1  0  0  0  0
 20 47  1  0  0  0  0
 21 40  1  0  0  0  0
 22 31  2  0  0  0  0
 22 70  1  0  0  0  0
 23 81  1  0  0  0  0
 24 82  1  0  0  0  0
 25 27  2  0  0  0  0
 25 81  1  0  0  0  0
 26 83  1  0  0  0  0
 27 84  1  0  0  0  0
 28 63  2  0  0  0  0
 29 64  1  0  0  0  0
 29 67  1  0  0  0  0
 30 71  1  0  0  0  0
 30 85  1  0  0  0  0
 31 68  1  0  0  0  0
 31 85  1  0  0  0  0
 32 69  1  0  0  0  0
 32 75  2  0  0  0  0
 33 48  1  0  0  0  0
 33 72  1  0  0  0  0
 33 76  2  0  0  0  0
 34 57  1  0  0  0  0
 34 61  1  0  0  0  0
 34 77  2  0  0  0  0
 35 59  1  0  0  0  0
 35 65  1  0  0  0  0
 35 78  2  0  0  0  0
 36 60  1  0  0  0  0
 36 73  1  0  0  0  0
 36 79  2  0  0  0  0
 37 66  1  0  0  0  0
 37 70  1  0  0  0  0
 37 80  2  0  0  0  0
 38 41  1  0  0  0  0
 39 48  1  0  0  0  0
 40 65  1  0  0  0  0
 41 43  1  0  0  0  0
 42 44  1  0  0  0  0
 42 45  1  0  0  0  0
 43 47  1  0  0  0  0
 44 49  1  0  0  0  0
 45 66  1  0  0  0  0
 46 49  1  0  0  0  0
 46 66  1  0  0  0  0
 47 72  1  0  0  0  0
 48 65  1  0  0  0  0
 49 64  1  0  0  0  0
 50 60  1  0  0  0  0
 51 61  1  0  0  0  0
 52 61  1  0  0  0  0
 53 62  1  0  0  0  0
 54 62  1  0  0  0  0
 55 62  1  0  0  0  0
 56 74  1  0  0  0  0
 57 82  1  0  0  0  0
 58 61  1  0  0  0  0
 58 71  1  0  0  0  0
 59 62  1  0  0  0  0
 59 73  1  0  0  0  0
 60 74  1  0  0  0  0
 63 64  1  0  0  0  0
M  CHG  1  74   1
M  ISO  4  37 100  57 101  70 100  82 101
M  END
> <Batch ID>
0150

> <Smiles>
CNC(C)C(=O)NC(C(=O)N1Cc2cc([101O:1][101CH2:1]C(=O)C(C)(C)CNc3cc([100NH:0][100C:0](=O)N4CCCC(n5nc(-c6ccc(Oc7ccc(F)cc7F)cc6)c(C(N)=O)c5N)C4)c(N)s3)ccc2CC1C(=O)NC1CCCc2ccccc21)C(C)(C)C

> <Shape>
0.259

> <Color>
0.092

> <Negative vol penalty>
0.000

$$$$

  -OEChem-04052303213D

 86 95  0     1  0  0  0  0  0999 V2000
  -17.3129  -30.2410   24.3819 C   0  0  0  0  0  0  0  0  0  0  0  0
  -18.6851  -30.4076   24.5389 C   0  0  0  0  0  0  0  0  0  0  0  0
  -22.8658  -13.9775   20.7347 C   0  0  0  0  0  0  0  0  0  0  0  0
  -25.1514  -14.5659   21.2513 C   0  0  0  0  0  0  0  0  0  0  0  0
  -16.8247  -29.2352   23.5489 C   0  0  0  0  0  0  0  0  0  0  0  0
  -19.5700  -29.5676   23.8638 C   0  0  0  0  0  0  0  0  0  0  0  0
  -26.0511  -29.5800   20.8124 C   0  0  0  0  0  0  0  0  0  0  0  0
  -23.2670  -12.6734   20.4450 C   0  0  0  0  0  0  0  0  0  0  0  0
  -25.5526  -13.2617   20.9616 C   0  0  0  0  0  0  0  0  0  0  0  0
  -27.2522  -28.8723   20.8320 C   0  0  0  0  0  0  0  0  0  0  0  0
  -23.6347   -9.0955   19.9173 C   0  0  0  0  0  0  0  0  0  0  0  0
  -22.8639   -8.0513   20.4281 C   0  0  0  0  0  0  0  0  0  0  0  0
  -26.2956  -27.2199   19.3576 C   0  0  0  0  0  0  0  0  0  0  0  0
  -29.7733  -22.1286   19.4700 C   0  0  0  0  0  0  0  0  0  0  0  0
  -23.2989   -8.8288   22.6739 C   0  0  0  0  0  0  0  0  0  0  0  0
  -30.0084  -19.9342   20.1993 C   0  0  0  0  0  0  0  0  0  0  0  0
  -23.8081  -14.9238   21.1378 C   0  0  0  0  0  0  0  0  0  0  0  0
  -22.4741  -16.6795   22.4206 C   0  0  0  0  0  0  0  0  0  0  0  0
  -17.7042  -28.3886   22.8557 C   0  0  0  0  0  0  0  0  0  0  0  0
  -24.9579  -29.1064   20.0727 C   0  0  0  0  0  0  0  0  0  0  0  0
  -19.0932  -28.5486   23.0218 C   0  0  0  0  0  0  0  0  0  0  0  0
  -25.0826  -27.9248   19.3282 C   0  0  0  0  0  0  0  0  0  0  0  0
  -29.1151  -20.9301   19.8707 C   0  0  0  0  0  0  0  0  0  0  0  0
  -24.6104  -12.3155   20.5584 C   0  0  0  0  0  0  0  0  0  0  0  0
  -27.3737  -27.6905   20.1068 C   0  0  0  0  0  0  0  0  0  0  0  0
  -24.2378  -10.0063   20.7848 C   0  0  0  0  0  0  0  0  0  0  0  0
  -22.6959   -7.9179   21.8064 C   0  0  0  0  0  0  0  0  0  0  0  0
  -24.0698   -9.8730   22.1631 C   0  0  0  0  0  0  0  0  0  0  0  0
  -23.3944  -16.2713   21.4366 C   0  0  0  0  0  0  0  0  0  0  0  0
  -31.1447  -22.0031   19.5079 C   0  0  0  0  0  0  0  0  0  0  0  0
  -22.4293  -18.0472   22.3025 C   0  0  0  0  0  0  0  0  0  0  0  0
  -21.7265  -15.8928   23.3575 C   0  0  0  0  0  0  0  0  0  0  0  0
  -32.0855  -23.0800   19.1510 C   0  0  0  0  0  0  0  0  0  0  0  0
  -22.0086  -28.1593   20.7854 C   0  0  0  0  0  0  0  0  0  0  0  0
  -21.6925  -28.0195   17.5601 C   0  0  0  0  0  0  0  0  0  0  0  0
  -23.1961  -27.7063   14.5125 C   0  0  0  0  0  0  0  0  0  0  0  0
  -26.7214  -21.6973   19.6230 C   0  0  0  0  0  0  0  0  0  0  0  0
  -17.1291  -27.2852   22.0034 C   0  0  0  0  0  0  0  0  0  0  0  0
  -23.6778  -29.8955   20.0405 C   0  0  0  0  0  0  0  0  0  0  0  0
  -23.9453  -27.3844   18.5017 C   0  0  0  0  0  0  0  0  0  0  0  0
  -18.1373  -26.6779   21.0314 C   0  0  0  0  0  0  0  0  0  0  0  0
  -23.1315  -21.3432   18.8193 C   0  0  0  0  0  0  0  0  0  0  0  0
  -19.4549  -26.3858   21.7423 C   0  0  0  0  0  0  0  0  0  0  0  0
  -22.6187  -20.1821   19.6726 C   0  0  0  0  0  0  0  0  0  0  0  0
  -31.2753  -26.4761   19.3458 C   0  0  0  0  0  0  0  0  0  0  0  0
  -30.4989  -25.2294   21.4049 C   0  0  0  0  0  0  0  0  0  0  0  0
  -24.2758  -22.1017   19.4775 C   0  0  0  0  0  0  0  0  0  0  0  0
  -32.4355  -25.4958   19.1944 C   0  0  0  0  0  0  0  0  0  0  0  0
  -31.6629  -24.2548   21.2491 C   0  0  0  0  0  0  0  0  0  0  0  0
  -25.0690  -19.8660   20.2797 C   0  0  0  0  0  0  0  0  0  0  0  0
  -20.0851  -27.6732   22.2871 C   0  0  1  0  0  0  0  0  0  0  0  0
  -22.4644  -29.0506   19.6650 C   0  0  1  0  0  0  0  0  0  0  0  0
  -23.6144  -19.7471   20.7609 C   0  0  2  0  0  0  0  0  0  0  0  0
  -30.8206  -26.6121   20.8095 C   0  0  0  0  0  0  0  0  0  0  0  0
  -22.6735  -27.5889   12.0608 C   0  0  0  0  0  0  0  0  0  0  0  0
  -20.7387  -25.1417   17.9036 C   0  0  0  0  0  0  0  0  0  0  0  0
  -21.1452  -24.7887   15.4585 C   0  0  0  0  0  0  0  0  0  0  0  0
  -19.4620  -26.4688   16.2115 C   0  0  0  0  0  0  0  0  0  0  0  0
  -24.7729  -30.1448   13.9413 C   0  0  0  0  0  0  0  0  0  0  0  0
  -29.6078  -27.5387   20.9078 C   0  0  0  0  0  0  0  0  0  1  0  0
  -21.9239  -26.9619   16.5080 C   0  0  1  0  0  0  0  0  0  0  0  0
  -23.0386  -28.4960   13.2256 C   0  0  2  0  0  0  0  0  0  0  0  0
  -20.8384  -25.8492   16.5374 C   0  0  0  0  0  0  0  0  0  0  0  0
  -23.8979  -17.2966   20.7444 N   0  0  0  0  0  0  0  0  0  0  0  0
  -23.2917  -18.3627   21.2941 N   0  0  0  0  0  0  0  0  0  0  0  0
  -32.0592  -24.2191   19.8291 N   0  0  0  0  0  0  0  0  0  0  0  0
  -22.7121  -28.1887   18.5075 N   0  0  0  0  0  0  0  0  0  0  0  0
  -25.4003  -21.2142   19.7878 N   0  0  0  0  0  0  0  0  0  0  0  0
  -21.7368  -18.9987   22.9639 N   0  0  0  0  0  0  0  0  0  0  0  0
  -22.2955  -15.6267   24.6105 N   0  0  0  0  0  0  0  0  0  0  0  0
  -27.7097  -20.7593   19.9319 N   0  0  0  0  0  0  0  0  0  0  0  0
  -20.7220  -28.4150   21.2200 N   0  0  0  0  0  0  0  0  0  0  0  0
  -22.0222  -27.6674   15.2348 N   0  0  0  0  0  0  0  0  0  0  0  0
  -32.9472  -22.8917   18.1559 N   0  3  0  0  0  0  0  0  0  0  0  0
  -24.3083  -29.2014   12.8920 N   0  3  0  0  0  0  0  0  0  0  0  0
  -20.5947  -15.4254   23.0855 O   0  0  0  0  0  0  0  0  0  0  0  0
  -22.7675  -27.3019   21.2223 O   0  0  0  0  0  0  0  0  0  0  0  0
  -20.6486  -28.6765   17.5378 O   0  0  0  0  0  0  0  0  0  0  0  0
  -24.2536  -27.1738   14.8420 O   0  0  0  0  0  0  0  0  0  0  0  0
  -26.9473  -22.8426   19.2261 O   0  0  0  0  0  0  0  0  0  0  0  0
  -31.8874  -27.2070   21.5530 O   0  0  0  0  0  0  0  0  0  0  0  0
  -25.0021  -11.0430   20.2761 O   0  0  0  0  0  0  0  0  0  0  0  0
  -28.5447  -26.9975   20.1248 O   0  0  0  0  0  0  0  0  0  1  0  0
  -21.9543   -6.9160   22.2967 F   0  0  0  0  0  0  0  0  0  0  0  0
  -24.6456  -10.7456   23.0014 F   0  0  0  0  0  0  0  0  0  0  0  0
  -31.6333  -20.4454   20.0245 S   0  0  0  0  0  0  0  0  0  0  0  0
  1  2  1  0  0  0  0
  1  5  2  0  0  0  0
  2  6  2  0  0  0  0
  3  8  2  0  0  0  0
  3 17  1  0  0  0  0
  4  9  1  0  0  0  0
  4 17  2  0  0  0  0
  5 19  1  0  0  0  0
  6 21  1  0  0  0  0
  7 10  2  0  0  0  0
  7 20  1  0  0  0  0
  8 24  1  0  0  0  0
  9 24  2  0  0  0  0
 10 25  1  0  0  0  0
 11 12  2  0  0  0  0
 11 26  1  0  0  0  0
 12 27  1  0  0  0  0
 13 22  1  0  0  0  0
 13 25  2  0  0  0  0
 14 23  1  0  0  0  0
 14 30  2  0  0  0  0
 15 27  2  0  0  0  0
 15 28  1  0  0  0  0
 16 23  2  0  0  0  0
 16 86  1  0  0  0  0
 17 29  1  0  0  0  0
 18 29  1  0  0  0  0
 18 31  2  0  0  0  0
 18 32  1  0  0  0  0
 19 21  2  0  0  0  0
 19 38  1  0  0  0  0
 20 22  2  0  0  0  0
 20 39  1  0  0  0  0
 21 51  1  0  0  0  0
 22 40  1  0  0  0  0
 23 71  1  0  0  0  0
 24 82  1  0  0  0  0
 25 83  1  0  0  0  0
 26 28  2  0  0  0  0
 26 82  1  0  0  0  0
 27 84  1  0  0  0  0
 28 85  1  0  0  0  0
 29 64  2  0  0  0  0
 30 33  1  0  0  0  0
 30 86  1  0  0  0  0
 31 65  1  0  0  0  0
 31 69  1  0  0  0  0
 32 70  1  0  0  0  0
 32 76  2  0  0  0  0
 33 66  1  0  0  0  0
 33 74  2  0  0  0  0
 34 52  1  0  0  0  0
 34 72  1  0  0  0  0
 34 77  2  0  0  0  0
 35 61  1  0  0  0  0
 35 67  1  0  0  0  0
 35 78  2  0  0  0  0
 36 62  1  0  0  0  0
 36 73  1  0  0  0  0
 36 79  2  0  0  0  0
 37 68  1  0  0  0  0
 37 71  1  0  0  0  0
 37 80  2  0  0  0  0
 38 41  1  0  0  0  0
 39 52  1  0  0  0  0
 40 67  1  0  0  0  0
 41 43  1  0  0  0  0
 42 44  1  0  0  0  0
 42 47  1  0  0  0  0
 43 51  1  0  0  0  0
 44 53  1  0  0  0  0
 45 48  1  0  0  0  0
 45 54  1  0  0  0  0
 46 49  1  0  0  0  0
 46 54  1  0  0  0  0
 47 68  1  0  0  0  0
 48 66  1  0  0  0  0
 49 66  1  0  0  0  0
 50 53  1  0  0  0  0
 50 68  1  0  0  0  0
 51 72  1  0  0  0  0
 52 67  1  0  0  0  0
 53 65  1  0  0  0  0
 54 60  1  0  0  0  0
 54 81  1  0  0  0  0
 55 62  1  0  0  0  0
 56 63  1  0  0  0  0
 57 63  1  0  0  0  0
 58 63  1  0  0  0  0
 59 75  1  0  0  0  0
 60 83  1  0  0  0  0
 61 63  1  0  0  0  0
 61 73  1  0  0  0  0
 62 75  1  0  0  0  0
 64 65  1  0  0  0  0
M  CHG  2  74   1  75   1
M  ISO  4  37 100  60 101  71 100  83 101
M  END
> <Batch ID>
0150

> <Smiles>
CNC(C)C(=O)NC(C(=O)N1Cc2cc([101O:1][101CH2:1]C3(O)CCN(C(=N)c4cc([100NH:0][100C:0](=O)N5CCCC(n6nc(-c7ccc(Oc8ccc(F)cc8F)cc7)c(C(N)=O)c6N)C5)cs4)CC3)ccc2CC1C(=O)NC1CCCc2ccccc21)C(C)(C)C

> <Shape>
0.249

> <Color>
0.082

> <Negative vol penalty>
0.000

$$$$

  -OEChem-04052303213D

 84 93  0     1  0  0  0  0  0999 V2000
  -30.9814  -34.6939   27.5272 C   0  0  0  0  0  0  0  0  0  0  0  0
  -31.1765  -33.7050   26.5683 C   0  0  0  0  0  0  0  0  0  0  0  0
  -21.9544  -10.0221   20.3211 C   0  0  0  0  0  0  0  0  0  0  0  0
  -22.9897   -9.9533   22.5030 C   0  0  0  0  0  0  0  0  0  0  0  0
  -29.7799  -34.7524   28.2321 C   0  0  0  0  0  0  0  0  0  0  0  0
  -30.1705  -32.7733   26.3145 C   0  0  0  0  0  0  0  0  0  0  0  0
  -28.7840  -30.2301   20.9187 C   0  0  0  0  0  0  0  0  0  0  0  0
  -21.9793   -8.6287   20.2653 C   0  0  0  0  0  0  0  0  0  0  0  0
  -23.0146   -8.5598   22.4472 C   0  0  0  0  0  0  0  0  0  0  0  0
  -29.1137  -29.0012   20.3486 C   0  0  0  0  0  0  0  0  0  0  0  0
  -23.0218   -4.9720   23.0355 C   0  0  0  0  0  0  0  0  0  0  0  0
  -22.6201   -4.2695   24.1715 C   0  0  0  0  0  0  0  0  0  0  0  0
  -27.0141  -28.0908   21.1116 C   0  0  0  0  0  0  0  0  0  0  0  0
  -30.1344  -21.4445   20.3753 C   0  0  0  0  0  0  0  0  0  0  0  0
  -20.4414   -5.3058   24.0418 C   0  0  0  0  0  0  0  0  0  0  0  0
  -22.4597  -10.6845   21.4399 C   0  0  0  0  0  0  0  0  0  0  0  0
  -21.4063  -12.9364   22.0118 C   0  0  0  0  0  0  0  0  0  0  0  0
  -28.7550  -33.8268   27.9800 C   0  0  0  0  0  0  0  0  0  0  0  0
  -27.5697  -30.3957   21.6001 C   0  0  0  0  0  0  0  0  0  0  0  0
  -28.9547  -32.8187   27.0177 C   0  0  0  0  0  0  0  0  0  0  0  0
  -26.6703  -29.3235   21.6872 C   0  0  0  0  0  0  0  0  0  0  0  0
  -30.3132  -20.0527   20.6378 C   0  0  0  0  0  0  0  0  0  0  0  0
  -22.5093   -7.8975   21.3284 C   0  0  0  0  0  0  0  0  0  0  0  0
  -28.2300  -27.9305   20.4475 C   0  0  0  0  0  0  0  0  0  0  0  0
  -22.1334   -5.8415   22.4026 C   0  0  0  0  0  0  0  0  0  0  0  0
  -21.3298   -4.4364   24.6747 C   0  0  0  0  0  0  0  0  0  0  0  0
  -20.8432   -6.0083   22.9058 C   0  0  0  0  0  0  0  0  0  0  0  0
  -22.4348  -12.1240   21.4979 C   0  0  0  0  0  0  0  0  0  0  0  0
  -29.2593  -19.5371   21.3705 C   0  0  0  0  0  0  0  0  0  0  0  0
  -21.8627  -14.2200   21.8366 C   0  0  0  0  0  0  0  0  0  0  0  0
  -28.9661  -21.9314   20.9197 C   0  0  0  0  0  0  0  0  0  0  0  0
  -20.1507  -12.5641   22.5954 C   0  0  0  0  0  0  0  0  0  0  0  0
  -26.7534  -31.1172   24.5862 C   0  0  0  0  0  0  0  0  0  0  0  0
  -23.7585  -31.1714   23.3411 C   0  0  0  0  0  0  0  0  0  0  0  0
  -28.9365  -24.3715   20.3043 C   0  0  0  0  0  0  0  0  0  0  0  0
  -21.6188  -30.1312   20.8944 C   0  0  0  0  0  0  0  0  0  0  0  0
  -27.3219  -16.4369   21.4641 C   0  0  0  0  0  0  0  0  0  0  0  0
  -27.4918  -33.9011   28.8007 C   0  0  0  0  0  0  0  0  0  0  0  0
  -27.2172  -31.7353   22.1864 C   0  0  0  0  0  0  0  0  0  0  0  0
  -31.4879  -19.2194   20.2272 C   0  0  0  0  0  0  0  0  0  0  0  0
  -25.3450  -29.4553   22.3905 C   0  0  0  0  0  0  0  0  0  0  0  0
  -26.3321  -33.1054   28.2072 C   0  0  0  0  0  0  0  0  0  0  0  0
  -31.2000  -17.7157   20.3475 C   0  0  0  0  0  0  0  0  0  0  0  0
  -24.6996  -16.8314   19.0012 C   0  0  0  0  0  0  0  0  0  0  0  0
  -26.7994  -31.7166   27.7832 C   0  0  0  0  0  0  0  0  0  0  0  0
  -30.4782  -17.3772   21.6621 C   0  0  0  0  0  0  0  0  0  0  0  0
  -23.7200  -15.7342   19.4215 C   0  0  0  0  0  0  0  0  0  0  0  0
  -26.1460  -16.3802   19.1822 C   0  0  0  0  0  0  0  0  0  0  0  0
  -25.5024  -14.8245   20.9820 C   0  0  0  0  0  0  0  0  0  0  0  0
  -27.8777  -31.8052   26.6965 C   0  0  1  0  0  0  0  0  0  0  0  0
  -29.1270  -18.1060   21.7995 C   0  0  2  0  0  0  0  0  0  0  0  0
  -26.1800  -31.6451   23.3016 C   0  0  1  0  0  0  0  0  0  0  0  0
  -24.0230  -15.2274   20.8440 C   0  0  2  0  0  0  0  0  0  0  0  0
  -19.2244  -30.3096   20.1649 C   0  0  0  0  0  0  0  0  0  0  0  0
  -22.9476  -29.2074   25.5309 C   0  0  0  0  0  0  0  0  0  0  0  0
  -20.8789  -28.7016   24.2144 C   0  0  0  0  0  0  0  0  0  0  0  0
  -21.2749  -31.0096   25.0742 C   0  0  0  0  0  0  0  0  0  0  0  0
  -22.3739  -31.3967   18.3278 C   0  0  0  0  0  0  0  0  0  0  0  0
  -28.0217  -25.5626   20.5213 C   0  0  0  0  0  0  0  0  0  1  0  0
  -22.6639  -30.1506   23.1442 C   0  0  1  0  0  0  0  0  0  0  0  0
  -20.6236  -30.8914   20.0366 C   0  0  2  0  0  0  0  0  0  0  0  0
  -21.9671  -29.7640   24.4793 C   0  0  0  0  0  0  0  0  0  0  0  0
  -23.4667  -12.8320   21.0311 N   0  0  0  0  0  0  0  0  0  0  0  0
  -23.0889  -14.1029   21.2509 N   0  0  0  0  0  0  0  0  0  0  0  0
  -25.0487  -30.7833   22.9529 N   0  0  0  0  0  0  0  0  0  0  0  0
  -26.3729  -15.9277   20.5620 N   0  0  0  0  0  0  0  0  0  0  0  0
  -21.3308  -15.4260   22.1279 N   0  0  0  0  0  0  0  0  0  0  0  0
  -19.8400  -11.2014   22.6990 N   0  0  0  0  0  0  0  0  0  0  0  0
  -28.4092  -23.2322   20.9026 N   0  0  0  0  0  0  0  0  0  0  0  0
  -27.2777  -32.0937   25.4115 N   0  0  0  0  0  0  0  0  0  0  0  0
  -21.7638  -30.7059   22.1394 N   0  0  0  0  0  0  0  0  0  0  0  0
  -28.1111  -17.4757   20.9860 N   0  0  0  0  0  0  0  0  0  0  0  0
  -21.0263  -30.8352   18.6028 N   0  3  0  0  0  0  0  0  0  0  0  0
  -19.3216  -13.4152   22.9976 O   0  0  0  0  0  0  0  0  0  0  0  0
  -26.7211  -29.9133   24.8126 O   0  0  0  0  0  0  0  0  0  0  0  0
  -23.4779  -32.2752   23.8150 O   0  0  0  0  0  0  0  0  0  0  0  0
  -29.9850  -24.4728   19.6759 O   0  0  0  0  0  0  0  0  0  0  0  0
  -22.2060  -29.1257   20.5009 O   0  0  0  0  0  0  0  0  0  0  0  0
  -27.4526  -16.0014   22.6131 O   0  0  0  0  0  0  0  0  0  0  0  0
  -22.5336   -6.5377   21.2744 O   0  0  0  0  0  0  0  0  0  0  0  0
  -28.5495  -26.7298   19.8925 O   0  0  0  0  0  0  0  0  0  1  0  0
  -20.9437   -3.7605   25.7647 F   0  0  0  0  0  0  0  0  0  0  0  0
  -19.9849   -6.8413   22.3014 F   0  0  0  0  0  0  0  0  0  0  0  0
  -28.0901  -20.7194   21.7521 S   0  0  0  0  0  0  0  0  0  0  0  0
  1  2  1  0  0  0  0
  1  5  2  0  0  0  0
  2  6  2  0  0  0  0
  3  8  2  0  0  0  0
  3 16  1  0  0  0  0
  4  9  1  0  0  0  0
  4 16  2  0  0  0  0
  5 18  1  0  0  0  0
  6 20  1  0  0  0  0
  7 10  2  0  0  0  0
  7 19  1  0  0  0  0
  8 23  1  0  0  0  0
  9 23  2  0  0  0  0
 10 24  1  0  0  0  0
 11 12  2  0  0  0  0
 11 25  1  0  0  0  0
 12 26  1  0  0  0  0
 13 21  1  0  0  0  0
 13 24  2  0  0  0  0
 14 22  1  0  0  0  0
 14 31  2  0  0  0  0
 15 26  2  0  0  0  0
 15 27  1  0  0  0  0
 16 28  1  0  0  0  0
 17 28  1  0  0  0  0
 17 30  2  0  0  0  0
 17 32  1  0  0  0  0
 18 20  2  0  0  0  0
 18 38  1  0  0  0  0
 19 21  2  0  0  0  0
 19 39  1  0  0  0  0
 20 50  1  0  0  0  0
 21 41  1  0  0  0  0
 22 29  2  0  0  0  0
 22 40  1  0  0  0  0
 23 80  1  0  0  0  0
 24 81  1  0  0  0  0
 25 27  2  0  0  0  0
 25 80  1  0  0  0  0
 26 82  1  0  0  0  0
 27 83  1  0  0  0  0
 28 63  2  0  0  0  0
 29 51  1  0  0  0  0
 29 84  1  0  0  0  0
 30 64  1  0  0  0  0
 30 67  1  0  0  0  0
 31 69  1  0  0  0  0
 31 84  1  0  0  0  0
 32 68  1  0  0  0  0
 32 74  2  0  0  0  0
 33 52  1  0  0  0  0
 33 70  1  0  0  0  0
 33 75  2  0  0  0  0
 34 60  1  0  0  0  0
 34 65  1  0  0  0  0
 34 76  2  0  0  0  0
 35 59  1  0  0  0  0
 35 69  1  0  0  0  0
 35 77  2  0  0  0  0
 36 61  1  0  0  0  0
 36 71  1  0  0  0  0
 36 78  2  0  0  0  0
 37 66  1  0  0  0  0
 37 72  1  0  0  0  0
 37 79  2  0  0  0  0
 38 42  1  0  0  0  0
 39 52  1  0  0  0  0
 40 43  1  0  0  0  0
 41 65  1  0  0  0  0
 42 45  1  0  0  0  0
 43 46  1  0  0  0  0
 44 47  1  0  0  0  0
 44 48  1  0  0  0  0
 45 50  1  0  0  0  0
 46 51  1  0  0  0  0
 47 53  1  0  0  0  0
 48 66  1  0  0  0  0
 49 53  1  0  0  0  0
 49 66  1  0  0  0  0
 50 70  1  0  0  0  0
 51 72  1  0  0  0  0
 52 65  1  0  0  0  0
 53 64  1  0  0  0  0
 54 61  1  0  0  0  0
 55 62  1  0  0  0  0
 56 62  1  0  0  0  0
 57 62  1  0  0  0  0
 58 73  1  0  0  0  0
 59 81  1  0  0  0  0
 60 62  1  0  0  0  0
 60 71  1  0  0  0  0
 61 73  1  0  0  0  0
 63 64  1  0  0  0  0
M  CHG  1  73   1
M  ISO  4  37 100  59 101  72 100  81 101
M  END
> <Batch ID>
0150

> <Smiles>
CNC(C)C(=O)NC(C(=O)N1Cc2cc([101O:1][101CH2:1]C(=O)Nc3cc4c(s3)C([100NH:0][100C:0](=O)N3CCCC(n5nc(-c6ccc(Oc7ccc(F)cc7F)cc6)c(C(N)=O)c5N)C3)CCC4)ccc2CC1C(=O)NC1CCCc2ccccc21)C(C)(C)C

> <Shape>
0.301

> <Color>
0.083

> <Negative vol penalty>
0.000

$$$$

  -OEChem-04052303213D

 84 92  0     1  0  0  0  0  0999 V2000
  -19.5971  -29.7254   23.0260 C   0  0  0  0  0  0  0  0  0  0  0  0
  -20.6726  -28.8576   23.1858 C   0  0  0  0  0  0  0  0  0  0  0  0
  -23.0917   -9.8838   19.9005 C   0  0  0  0  0  0  0  0  0  0  0  0
  -23.8795   -9.8258   22.1838 C   0  0  0  0  0  0  0  0  0  0  0  0
  -19.7039  -30.8143   22.1618 C   0  0  0  0  0  0  0  0  0  0  0  0
  -21.8553  -29.0776   22.4806 C   0  0  0  0  0  0  0  0  0  0  0  0
  -27.5569  -27.9509   24.4115 C   0  0  0  0  0  0  0  0  0  0  0  0
  -22.3643   -8.7144   20.1218 C   0  0  0  0  0  0  0  0  0  0  0  0
  -23.1520   -8.6565   22.4051 C   0  0  0  0  0  0  0  0  0  0  0  0
  -28.4305  -26.8879   24.1866 C   0  0  0  0  0  0  0  0  0  0  0  0
  -19.9409   -7.8013   23.0197 C   0  0  0  0  0  0  0  0  0  0  0  0
  -19.1988   -7.7146   24.1975 C   0  0  0  0  0  0  0  0  0  0  0  0
  -29.4749  -28.1315   22.4028 C   0  0  0  0  0  0  0  0  0  0  0  0
  -29.6526  -19.3005   22.5360 C   0  0  0  0  0  0  0  0  0  0  0  0
  -31.0891  -17.7623   20.7049 C   0  0  0  0  0  0  0  0  0  0  0  0
  -20.4714   -5.7693   24.8561 C   0  0  0  0  0  0  0  0  0  0  0  0
  -23.8494  -10.4395   20.9315 C   0  0  0  0  0  0  0  0  0  0  0  0
  -24.1606  -12.9711   20.8893 C   0  0  0  0  0  0  0  0  0  0  0  0
  -20.8918  -31.0532   21.4529 C   0  0  0  0  0  0  0  0  0  0  0  0
  -27.6287  -29.1098   23.6252 C   0  0  0  0  0  0  0  0  0  0  0  0
  -21.9776  -30.1699   21.6050 C   0  0  0  0  0  0  0  0  0  0  0  0
  -28.6027  -29.2088   22.6214 C   0  0  0  0  0  0  0  0  0  0  0  0
  -29.4833  -17.9164   22.5035 C   0  0  0  0  0  0  0  0  0  0  0  0
  -30.5401  -19.9156   21.6529 C   0  0  0  0  0  0  0  0  0  0  0  0
  -30.2016  -17.1472   21.5879 C   0  0  0  0  0  0  0  0  0  0  0  0
  -22.3944   -8.1008   21.3741 C   0  0  0  0  0  0  0  0  0  0  0  0
  -29.3878  -26.9769   23.1802 C   0  0  0  0  0  0  0  0  0  0  0  0
  -20.9481   -6.8719   22.7599 C   0  0  0  0  0  0  0  0  0  0  0  0
  -19.4641   -6.6987   25.1158 C   0  0  0  0  0  0  0  0  0  0  0  0
  -31.2584  -19.1464   20.7374 C   0  0  0  0  0  0  0  0  0  0  0  0
  -21.2134   -5.8560   23.6781 C   0  0  0  0  0  0  0  0  0  0  0  0
  -24.6015  -11.6471   20.7034 C   0  0  0  0  0  0  0  0  0  0  0  0
  -25.2395  -13.7448   20.5376 C   0  0  0  0  0  0  0  0  0  0  0  0
  -22.8895  -13.4580   21.3398 C   0  0  0  0  0  0  0  0  0  0  0  0
  -25.6482  -30.5929   21.6298 C   0  0  0  0  0  0  0  0  0  0  0  0
  -30.4286  -23.5986   22.3637 C   0  0  0  0  0  0  0  0  0  0  0  0
  -27.9848  -32.8428   21.6015 C   0  0  0  0  0  0  0  0  0  0  0  0
  -31.2802  -33.6033   22.0582 C   0  0  0  0  0  0  0  0  0  0  0  0
  -30.6950  -14.8493   20.6813 C   0  0  0  0  0  0  0  0  0  0  0  0
  -20.9437  -32.2164   20.4943 C   0  0  0  0  0  0  0  0  0  0  0  0
  -26.6966  -30.2583   23.8980 C   0  0  0  0  0  0  0  0  0  0  0  0
  -28.7345  -30.4392   21.7629 C   0  0  0  0  0  0  0  0  0  0  0  0
  -22.3607  -32.5923   20.0689 C   0  0  0  0  0  0  0  0  0  0  0  0
  -29.5796  -12.5000   18.2494 C   0  0  0  0  0  0  0  0  0  0  0  0
  -23.1514  -31.3456   19.6852 C   0  0  0  0  0  0  0  0  0  0  0  0
  -28.1488  -12.1776   18.6863 C   0  0  0  0  0  0  0  0  0  0  0  0
  -30.5067  -12.7008   19.4469 C   0  0  0  0  0  0  0  0  0  0  0  0
  -28.6085  -13.3576   20.8734 C   0  0  0  0  0  0  0  0  0  0  0  0
  -23.2857  -30.3892   20.8763 C   0  0  1  0  0  0  0  0  0  0  0  0
  -26.5229  -31.1848   22.6985 C   0  0  1  0  0  0  0  0  0  0  0  0
  -27.6234  -13.2108   19.7022 C   0  0  2  0  0  0  0  0  0  0  0  0
  -32.8970  -35.5178   21.9243 C   0  0  0  0  0  0  0  0  0  0  0  0
  -27.9754  -32.6346   18.5574 C   0  0  0  0  0  0  0  0  0  0  0  0
  -30.1875  -33.8070   18.5400 C   0  0  0  0  0  0  0  0  0  0  0  0
  -28.1711  -34.9652   19.4430 C   0  0  0  0  0  0  0  0  0  0  0  0
  -31.9457  -33.3941   24.9344 C   0  0  0  0  0  0  0  0  0  0  0  0
  -30.0072  -22.1632   22.5963 C   0  0  0  0  0  0  0  0  0  0  0  0
  -29.7617  -24.6294   23.2536 C   0  0  0  0  0  0  0  0  0  1  0  0
  -29.2220  -33.0889   20.7723 C   0  0  1  0  0  0  0  0  0  0  0  0
  -31.9583  -34.7265   22.8218 C   0  0  2  0  0  0  0  0  0  0  0  0
  -28.8855  -33.5998   19.3429 C   0  0  0  0  0  0  0  0  0  0  0  0
  -25.8621  -11.5799   20.2673 N   0  0  0  0  0  0  0  0  0  0  0  0
  -26.2226  -12.8713   20.1761 N   0  0  0  0  0  0  0  0  0  0  0  0
  -27.7960  -31.5328   22.0642 N   0  0  0  0  0  0  0  0  0  0  0  0
  -29.9466  -13.6961   20.3638 N   0  0  0  0  0  0  0  0  0  0  0  0
  -28.5783  -17.3142   23.4062 N   0  0  0  0  0  0  0  0  0  0  0  0
  -25.4337  -15.0804   20.5053 N   0  0  0  0  0  0  0  0  0  0  0  0
  -21.8923  -12.5264   21.6594 N   0  0  0  0  0  0  0  0  0  0  0  0
  -30.0471  -15.7397   21.5368 N   0  0  0  0  0  0  0  0  0  0  0  0
  -30.7067  -21.2927   21.6863 N   0  0  0  0  0  0  0  0  0  0  0  0
  -24.3024  -30.8615   21.7915 N   0  0  0  0  0  0  0  0  0  0  0  0
  -30.0604  -33.9957   21.5490 N   0  0  0  0  0  0  0  0  0  0  0  0
  -32.7484  -34.1763   23.9593 N   0  3  0  0  0  0  0  0  0  0  0  0
  -22.6398  -14.6832   21.4397 O   0  0  0  0  0  0  0  0  0  0  0  0
  -26.1568  -29.9421   20.7245 O   0  0  0  0  0  0  0  0  0  0  0  0
  -31.2561  -23.9193   21.5115 O   0  0  0  0  0  0  0  0  0  0  0  0
  -27.2179  -33.7801   21.8363 O   0  0  0  0  0  0  0  0  0  0  0  0
  -31.7840  -32.4904   21.9236 O   0  0  0  0  0  0  0  0  0  0  0  0
  -31.8163  -15.0464   20.2060 O   0  0  0  0  0  0  0  0  0  0  0  0
  -21.6845   -6.9598   21.5904 O   0  0  0  0  0  0  0  0  0  0  0  0
  -30.2413  -25.9405   22.9582 O   0  0  0  0  0  0  0  0  0  1  0  0
  -18.7524   -6.6165   26.2476 F   0  0  0  0  0  0  0  0  0  0  0  0
  -32.1142  -19.7270   19.8843 F   0  0  0  0  0  0  0  0  0  0  0  0
  -22.1806   -4.9610   23.4347 F   0  0  0  0  0  0  0  0  0  0  0  0
  1  2  1  0  0  0  0
  1  5  2  0  0  0  0
  2  6  2  0  0  0  0
  3  8  2  0  0  0  0
  3 17  1  0  0  0  0
  4  9  1  0  0  0  0
  4 17  2  0  0  0  0
  5 19  1  0  0  0  0
  6 21  1  0  0  0  0
  7 10  2  0  0  0  0
  7 20  1  0  0  0  0
  8 26  1  0  0  0  0
  9 26  2  0  0  0  0
 10 27  1  0  0  0  0
 11 12  2  0  0  0  0
 11 28  1  0  0  0  0
 12 29  1  0  0  0  0
 13 22  1  0  0  0  0
 13 27  2  0  0  0  0
 14 23  2  0  0  0  0
 14 24  1  0  0  0  0
 15 25  2  0  0  0  0
 15 30  1  0  0  0  0
 16 29  2  0  0  0  0
 16 31  1  0  0  0  0
 17 32  1  0  0  0  0
 18 32  1  0  0  0  0
 18 33  2  0  0  0  0
 18 34  1  0  0  0  0
 19 21  2  0  0  0  0
 19 40  1  0  0  0  0
 20 22  2  0  0  0  0
 20 41  1  0  0  0  0
 21 49  1  0  0  0  0
 22 42  1  0  0  0  0
 23 25  1  0  0  0  0
 23 66  1  0  0  0  0
 24 30  2  0  0  0  0
 24 70  1  0  0  0  0
 25 69  1  0  0  0  0
 26 80  1  0  0  0  0
 27 81  1  0  0  0  0
 28 31  2  0  0  0  0
 28 80  1  0  0  0  0
 29 82  1  0  0  0  0
 30 83  1  0  0  0  0
 31 84  1  0  0  0  0
 32 62  2  0  0  0  0
 33 63  1  0  0  0  0
 33 67  1  0  0  0  0
 34 68  1  0  0  0  0
 34 74  2  0  0  0  0
 35 50  1  0  0  0  0
 35 71  1  0  0  0  0
 35 75  2  0  0  0  0
 36 57  1  0  0  0  0
 36 58  1  0  0  0  0
 36 76  2  0  0  0  0
 37 59  1  0  0  0  0
 37 64  1  0  0  0  0
 37 77  2  0  0  0  0
 38 60  1  0  0  0  0
 38 72  1  0  0  0  0
 38 78  2  0  0  0  0
 39 65  1  0  0  0  0
 39 69  1  0  0  0  0
 39 79  2  0  0  0  0
 40 43  1  0  0  0  0
 41 50  1  0  0  0  0
 42 64  1  0  0  0  0
 43 45  1  0  0  0  0
 44 46  1  0  0  0  0
 44 47  1  0  0  0  0
 45 49  1  0  0  0  0
 46 51  1  0  0  0  0
 47 65  1  0  0  0  0
 48 51  1  0  0  0  0
 48 65  1  0  0  0  0
 49 71  1  0  0  0  0
 50 64  1  0  0  0  0
 51 63  1  0  0  0  0
 52 60  1  0  0  0  0
 53 61  1  0  0  0  0
 54 61  1  0  0  0  0
 55 61  1  0  0  0  0
 56 73  1  0  0  0  0
 57 70  1  0  0  0  0
 58 81  1  0  0  0  0
 59 61  1  0  0  0  0
 59 72  1  0  0  0  0
 60 73  1  0  0  0  0
 62 63  1  0  0  0  0
M  CHG  1  73   1
M  ISO  4  39 100  58 101  69 100  81 101
M  END
> <Batch ID>
0150

> <Smiles>
CNC(C)C(=O)NC(C(=O)N1Cc2cc([101O:1][101CH2:1]C(=O)CNc3cc(N)c([100NH:0][100C:0](=O)N4CCCC(n5nc(-c6ccc(Oc7ccc(F)cc7F)cc6)c(C(N)=O)c5N)C4)cc3F)ccc2CC1C(=O)NC1CCCc2ccccc21)C(C)(C)C

> <Shape>
0.291

> <Color>
0.185

> <Negative vol penalty>
0.000

$$$$

  -OEChem-04052303213D

 87 95  0     1  0  0  0  0  0999 V2000
  -26.3484  -20.1872   25.0363 C   0  0  0  0  0  0  0  0  0  0  0  0
  -27.3950  -20.9976   24.6083 C   0  0  0  0  0  0  0  0  0  0  0  0
  -26.4923  -12.9067   21.6317 C   0  0  0  0  0  0  0  0  0  0  0  0
  -26.2238  -13.7531   19.3848 C   0  0  0  0  0  0  0  0  0  0  0  0
  -25.0458  -20.4528   24.6161 C   0  0  0  0  0  0  0  0  0  0  0  0
  -27.1398  -22.0737   23.7590 C   0  0  0  0  0  0  0  0  0  0  0  0
  -30.0171  -27.4795   23.6986 C   0  0  0  0  0  0  0  0  0  0  0  0
  -25.2021  -12.3786   21.5870 C   0  0  0  0  0  0  0  0  0  0  0  0
  -24.9336  -13.2249   19.3401 C   0  0  0  0  0  0  0  0  0  0  0  0
  -31.0445  -27.9864   22.9041 C   0  0  0  0  0  0  0  0  0  0  0  0
  -22.1117  -10.4954   21.9310 C   0  0  0  0  0  0  0  0  0  0  0  0
  -21.9258   -9.1965   22.4040 C   0  0  0  0  0  0  0  0  0  0  0  0
  -29.4116  -29.0448   21.4783 C   0  0  0  0  0  0  0  0  0  0  0  0
  -30.1669  -23.2989   19.1911 C   0  0  0  0  0  0  0  0  0  0  0  0
  -23.4762   -8.3706   20.7452 C   0  0  0  0  0  0  0  0  0  0  0  0
  -27.0032  -13.5940   20.5307 C   0  0  0  0  0  0  0  0  0  0  0  0
  -29.5300  -13.5013   20.1929 C   0  0  0  0  0  0  0  0  0  0  0  0
  -24.7731  -21.5384   23.7689 C   0  0  0  0  0  0  0  0  0  0  0  0
  -28.6766  -27.7428   23.3821 C   0  0  0  0  0  0  0  0  0  0  0  0
  -25.8325  -22.3533   23.3259 C   0  0  0  0  0  0  0  0  0  0  0  0
  -28.3692  -28.5422   22.2719 C   0  0  0  0  0  0  0  0  0  0  0  0
  -30.4600  -24.6699   18.9367 C   0  0  0  0  0  0  0  0  0  0  0  0
  -24.4227  -12.5377   20.4412 C   0  0  0  0  0  0  0  0  0  0  0  0
  -30.7418  -28.7668   21.7921 C   0  0  0  0  0  0  0  0  0  0  0  0
  -22.9797  -10.7320   20.8650 C   0  0  0  0  0  0  0  0  0  0  0  0
  -22.6081   -8.1341   21.8111 C   0  0  0  0  0  0  0  0  0  0  0  0
  -23.6620   -9.6696   20.2722 C   0  0  0  0  0  0  0  0  0  0  0  0
  -28.3357  -14.1402   20.5765 C   0  0  0  0  0  0  0  0  0  0  0  0
  -30.5095  -14.4352   20.4268 C   0  0  0  0  0  0  0  0  0  0  0  0
  -30.7420  -22.8553   20.3615 C   0  0  0  0  0  0  0  0  0  0  0  0
  -31.2480  -25.2220   19.9227 C   0  0  0  0  0  0  0  0  0  0  0  0
  -29.7356  -12.1815   19.6717 C   0  0  0  0  0  0  0  0  0  0  0  0
  -26.1657  -25.9598   22.5948 C   0  0  0  0  0  0  0  0  0  0  0  0
  -24.5878  -28.7872   22.7913 C   0  0  0  0  0  0  0  0  0  0  0  0
  -24.7217  -32.1949   22.6618 C   0  0  0  0  0  0  0  0  0  0  0  0
  -32.5647  -27.0113   21.1094 C   0  0  0  0  0  0  0  0  0  0  0  0
  -30.0570  -20.4301   20.5439 C   0  0  0  0  0  0  0  0  0  0  0  0
  -23.3554  -21.7577   23.3033 C   0  0  0  0  0  0  0  0  0  0  0  0
  -27.5808  -27.2109   24.2646 C   0  0  0  0  0  0  0  0  0  0  0  0
  -26.9469  -28.8709   21.9008 C   0  0  0  0  0  0  0  0  0  0  0  0
  -23.1183  -23.1414   22.7040 C   0  0  0  0  0  0  0  0  0  0  0  0
  -30.7291  -18.1315   23.5420 C   0  0  0  0  0  0  0  0  0  0  0  0
  -24.2302  -23.4954   21.7215 C   0  0  0  0  0  0  0  0  0  0  0  0
  -30.9678  -16.8160   22.8044 C   0  0  0  0  0  0  0  0  0  0  0  0
  -30.9840  -19.3446   22.6564 C   0  0  0  0  0  0  0  0  0  0  0  0
  -29.5680  -18.0456   21.0553 C   0  0  0  0  0  0  0  0  0  0  0  0
  -25.5923  -23.5447   22.4243 C   0  0  1  0  0  0  0  0  0  0  0  0
  -26.2346  -27.1148   23.5534 C   0  0  1  0  0  0  0  0  0  0  0  0
  -30.4928  -16.8514   21.3383 C   0  0  2  0  0  0  0  0  0  0  0  0
  -34.9550  -28.0289   19.3908 C   0  0  0  0  0  0  0  0  0  0  0  0
  -23.2637  -34.2311   22.8213 C   0  0  0  0  0  0  0  0  0  0  0  0
  -29.1007  -24.4906   16.8234 C   0  0  0  0  0  0  0  0  0  0  0  0
  -31.1508  -25.9501   16.8798 C   0  0  0  0  0  0  0  0  0  0  0  0
  -29.0706  -26.6567   18.0436 C   0  0  0  0  0  0  0  0  0  0  0  0
  -33.8158  -28.9546   22.1073 C   0  0  0  0  0  0  0  0  0  0  0  0
  -23.5440  -28.2576   19.9735 C   0  0  0  0  0  0  0  0  0  0  0  0
  -22.9108  -30.6755   19.8288 C   0  0  0  0  0  0  0  0  0  0  0  0
  -21.8534  -29.2120   21.5500 C   0  0  0  0  0  0  0  0  0  0  0  0
  -26.1968  -33.2089   25.0187 C   0  0  0  0  0  0  0  0  0  0  0  0
  -33.6490  -28.7901   19.5967 C   0  0  0  0  0  0  0  0  0  0  0  0
  -24.2696  -29.9033   21.8259 C   0  0  1  0  0  0  0  0  0  0  0  0
  -24.1545  -33.2609   23.5817 C   0  0  2  0  0  0  0  0  0  0  0  0
  -29.9692  -25.4057   17.7469 C   0  0  0  0  0  0  0  0  0  0  0  0
  -32.9434  -28.4952   20.9346 C   0  0  1  0  0  0  0  0  0  1  0  0
  -23.1713  -29.5045   20.8002 C   0  0  0  0  0  0  0  0  0  0  0  0
  -28.5359  -15.3839   21.0206 N   0  0  0  0  0  0  0  0  0  0  0  0
  -29.8674  -15.5339   20.9175 N   0  0  0  0  0  0  0  0  0  0  0  0
  -25.9106  -28.3223   22.7911 N   0  0  0  0  0  0  0  0  0  0  0  0
  -30.2186  -19.3146   21.4016 N   0  0  0  0  0  0  0  0  0  0  0  0
  -31.8488  -14.4157   20.2587 N   0  0  0  0  0  0  0  0  0  0  0  0
  -28.6199  -11.3522   19.4934 N   0  0  0  0  0  0  0  0  0  0  0  0
  -31.7701  -26.5291   20.0752 N   0  0  0  0  0  0  0  0  0  0  0  0
  -30.7091  -21.5838   20.9868 N   0  0  0  0  0  0  0  0  0  0  0  0
  -25.7334  -24.7787   23.1671 N   0  0  0  0  0  0  0  0  0  0  0  0
  -23.9320  -31.0648   22.6416 N   0  0  0  0  0  0  0  0  0  0  0  0
  -25.2568  -34.0356   24.2185 N   0  3  0  0  0  0  0  0  0  0  0  0
  -30.8768  -11.7446   19.3883 O   0  0  0  0  0  0  0  0  0  0  0  0
  -26.4800  -26.1282   21.4224 O   0  0  0  0  0  0  0  0  0  0  0  0
  -23.6973  -28.3491   23.5239 O   0  0  0  0  0  0  0  0  0  0  0  0
  -25.7595  -32.3506   22.0220 O   0  0  0  0  0  0  0  0  0  0  0  0
  -32.9581  -26.3767   22.0862 O   0  0  0  0  0  0  0  0  0  0  0  0
  -29.4047  -20.3557   19.5004 O   0  0  0  0  0  0  0  0  0  0  0  0
  -23.1638  -12.0223   20.3970 O   0  0  0  0  0  0  0  0  0  0  0  0
  -31.7427  -29.2622   21.0146 O   0  0  0  0  0  0  0  0  0  1  0  0
  -22.4307   -6.8869   22.2665 F   0  0  0  0  0  0  0  0  0  0  0  0
  -24.4982   -9.8909   19.2486 F   0  0  0  0  0  0  0  0  0  0  0  0
  -31.6311  -24.0893   21.1484 S   0  0  0  0  0  0  0  0  0  0  0  0
  1  2  1  0  0  0  0
  1  5  2  0  0  0  0
  2  6  2  0  0  0  0
  3  8  2  0  0  0  0
  3 16  1  0  0  0  0
  4  9  1  0  0  0  0
  4 16  2  0  0  0  0
  5 18  1  0  0  0  0
  6 20  1  0  0  0  0
  7 10  2  0  0  0  0
  7 19  1  0  0  0  0
  8 23  1  0  0  0  0
  9 23  2  0  0  0  0
 10 24  1  0  0  0  0
 11 12  2  0  0  0  0
 11 25  1  0  0  0  0
 12 26  1  0  0  0  0
 13 21  1  0  0  0  0
 13 24  2  0  0  0  0
 14 22  1  0  0  0  0
 14 30  2  0  0  0  0
 15 26  2  0  0  0  0
 15 27  1  0  0  0  0
 16 28  1  0  0  0  0
 17 28  1  0  0  0  0
 17 29  2  0  0  0  0
 17 32  1  0  0  0  0
 18 20  2  0  0  0  0
 18 38  1  0  0  0  0
 19 21  2  0  0  0  0
 19 39  1  0  0  0  0
 20 47  1  0  0  0  0
 21 40  1  0  0  0  0
 22 31  2  0  0  0  0
 22 63  1  0  0  0  0
 23 83  1  0  0  0  0
 24 84  1  0  0  0  0
 25 27  2  0  0  0  0
 25 83  1  0  0  0  0
 26 85  1  0  0  0  0
 27 86  1  0  0  0  0
 28 66  2  0  0  0  0
 29 67  1  0  0  0  0
 29 70  1  0  0  0  0
 30 73  1  0  0  0  0
 30 87  1  0  0  0  0
 31 72  1  0  0  0  0
 31 87  1  0  0  0  0
 32 71  1  0  0  0  0
 32 77  2  0  0  0  0
 33 48  1  0  0  0  0
 33 74  1  0  0  0  0
 33 78  2  0  0  0  0
 34 61  1  0  0  0  0
 34 68  1  0  0  0  0
 34 79  2  0  0  0  0
 35 62  1  0  0  0  0
 35 75  1  0  0  0  0
 35 80  2  0  0  0  0
 36 64  1  0  0  0  0
 36 72  1  0  0  0  0
 36 81  2  0  0  0  0
 37 69  1  0  0  0  0
 37 73  1  0  0  0  0
 37 82  2  0  0  0  0
 38 41  1  0  0  0  0
 39 48  1  0  0  0  0
 40 68  1  0  0  0  0
 41 43  1  0  0  0  0
 42 44  1  0  0  0  0
 42 45  1  0  0  0  0
 43 47  1  0  0  0  0
 44 49  1  0  0  0  0
 45 69  1  0  0  0  0
 46 49  1  0  0  0  0
 46 69  1  0  0  0  0
 47 74  1  0  0  0  0
 48 68  1  0  0  0  0
 49 67  1  0  0  0  0
 50 60  1  0  0  0  0
 51 62  1  0  0  0  0
 52 63  1  0  0  0  0
 53 63  1  0  0  0  0
 54 63  1  0  0  0  0
 55 64  1  0  0  0  0
 56 65  1  0  0  0  0
 57 65  1  0  0  0  0
 58 65  1  0  0  0  0
 59 76  1  0  0  0  0
 60 64  1  0  0  0  0
 61 65  1  0  0  0  0
 61 75  1  0  0  0  0
 62 76  1  0  0  0  0
 64 84  1  0  0  0  0
 66 67  1  0  0  0  0
M  CHG  1  76   1
M  ISO  4  37 100  64 101  73 100  84 101
M  END
> <Batch ID>
0150

> <Smiles>
CC[101C:1](C)(C(=O)Nc1sc([100NH:0][100C:0](=O)N2CCCC(n3nc(-c4ccc(Oc5ccc(F)cc5F)cc4)c(C(N)=O)c3N)C2)cc1C(C)(C)C)[101O:1]c1ccc2c(c1)CN(C(=O)C(NC(=O)C(C)NC)C(C)(C)C)C(C(=O)NC1CCCc3ccccc31)C2

> <Shape>
0.276

> <Color>
0.090

> <Negative vol penalty>
0.000

$$$$

  -OEChem-04052303213D

 89 98  0     1  0  0  0  0  0999 V2000
  -19.1070   -9.0536   21.4258 C   0  0  0  0  0  0  0  0  0  0  0  0
  -19.0113  -10.2241   22.1716 C   0  0  0  0  0  0  0  0  0  0  0  0
  -22.1068  -30.1222   19.9599 C   0  0  0  0  0  0  0  0  0  0  0  0
  -22.3702  -28.9304   22.0449 C   0  0  0  0  0  0  0  0  0  0  0  0
  -20.3546   -8.6001   20.9994 C   0  0  0  0  0  0  0  0  0  0  0  0
  -20.1633  -10.9413   22.4923 C   0  0  0  0  0  0  0  0  0  0  0  0
  -22.4527  -17.6466   23.5475 C   0  0  0  0  0  0  0  0  0  0  0  0
  -20.7306  -29.9002   20.0068 C   0  0  0  0  0  0  0  0  0  0  0  0
  -20.9939  -28.7084   22.0919 C   0  0  0  0  0  0  0  0  0  0  0  0
  -23.1402  -18.4148   24.4861 C   0  0  0  0  0  0  0  0  0  0  0  0
  -18.2187  -30.4494   22.9211 C   0  0  0  0  0  0  0  0  0  0  0  0
  -17.5703  -30.6637   24.1374 C   0  0  0  0  0  0  0  0  0  0  0  0
  -25.2339  -17.5784   23.6282 C   0  0  0  0  0  0  0  0  0  0  0  0
  -29.7794  -22.0859   22.8195 C   0  0  0  0  0  0  0  0  0  0  0  0
  -16.8574  -28.3555   24.1640 C   0  0  0  0  0  0  0  0  0  0  0  0
  -22.9267  -29.6372   20.9789 C   0  0  0  0  0  0  0  0  0  0  0  0
  -25.0523  -30.9602   21.4677 C   0  0  0  0  0  0  0  0  0  0  0  0
  -21.5216   -9.3172   21.3069 C   0  0  0  0  0  0  0  0  0  0  0  0
  -23.1513  -16.8288   22.6479 C   0  0  0  0  0  0  0  0  0  0  0  0
  -21.4279  -10.4962   22.0708 C   0  0  0  0  0  0  0  0  0  0  0  0
  -24.5530  -16.8027   22.6775 C   0  0  0  0  0  0  0  0  0  0  0  0
  -29.8030  -23.0313   21.7537 C   0  0  0  0  0  0  0  0  0  0  0  0
  -20.1741  -29.1934   21.0728 C   0  0  0  0  0  0  0  0  0  0  0  0
  -24.5309  -18.3786   24.5284 C   0  0  0  0  0  0  0  0  0  0  0  0
  -18.1863  -29.1882   22.3262 C   0  0  0  0  0  0  0  0  0  0  0  0
  -16.8897  -29.6167   24.7588 C   0  0  0  0  0  0  0  0  0  0  0  0
  -17.5057  -28.1412   22.9477 C   0  0  0  0  0  0  0  0  0  0  0  0
  -24.3485  -29.8656   20.9307 C   0  0  0  0  0  0  0  0  0  0  0  0
  -26.3667  -30.7083   21.1587 C   0  0  0  0  0  0  0  0  0  0  0  0
  -29.1903  -22.5995   23.9538 C   0  0  0  0  0  0  0  0  0  0  0  0
  -29.2307  -24.2315   22.1140 C   0  0  0  0  0  0  0  0  0  0  0  0
  -24.5619  -32.1025   22.1821 C   0  0  0  0  0  0  0  0  0  0  0  0
  -23.2628  -13.7034   22.0793 C   0  0  0  0  0  0  0  0  0  0  0  0
  -27.2194  -19.9551   26.4899 C   0  0  0  0  0  0  0  0  0  0  0  0
  -25.1351  -14.6174   19.5930 C   0  0  0  0  0  0  0  0  0  0  0  0
  -27.2237  -16.9560   18.2456 C   0  0  0  0  0  0  0  0  0  0  0  0
  -29.4124  -25.6852   20.0646 C   0  0  0  0  0  0  0  0  0  0  0  0
  -22.8524   -8.7624   20.8644 C   0  0  0  0  0  0  0  0  0  0  0  0
  -22.3960  -16.0266   21.6239 C   0  0  0  0  0  0  0  0  0  0  0  0
  -25.3508  -15.9568   21.7202 C   0  0  0  0  0  0  0  0  0  0  0  0
  -23.9880   -9.7806   20.9270 C   0  0  0  0  0  0  0  0  0  0  0  0
  -29.0894  -28.4938   17.9003 C   0  0  0  0  0  0  0  0  0  0  0  0
  -32.3168  -22.1602   19.1179 C   0  0  0  0  0  0  0  0  0  0  0  0
  -23.9598  -10.5308   22.2549 C   0  0  0  0  0  0  0  0  0  0  0  0
  -31.8870  -23.0177   20.2943 C   0  0  0  0  0  0  0  0  0  0  0  0
  -27.9049  -29.2672   18.4843 C   0  0  0  0  0  0  0  0  0  0  0  0
  -28.8904  -26.9832   18.0109 C   0  0  0  0  0  0  0  0  0  0  0  0
  -27.3896  -27.2691   19.9435 C   0  0  0  0  0  0  0  0  0  0  0  0
  -31.5633  -20.8660   19.3421 C   0  0  0  0  0  0  0  0  0  0  0  0
  -22.6522  -11.3152   22.4177 C   0  0  1  0  0  0  0  0  0  0  0  0
  -30.3876  -22.7407   20.3965 C   0  0  1  0  0  0  0  0  0  0  0  0
  -23.1889  -14.8357   21.0943 C   0  0  1  0  0  0  0  0  0  0  0  0
  -27.5733  -28.7952   19.9136 C   0  0  2  0  0  0  0  0  0  0  0  0
  -28.6296  -17.4057   16.2162 C   0  0  0  0  0  0  0  0  0  0  0  0
  -29.2856  -18.6262   26.9799 C   0  0  0  0  0  0  0  0  0  0  0  0
  -27.2359  -12.6555   20.6166 C   0  0  0  0  0  0  0  0  0  0  0  0
  -28.9205  -13.8129   19.1705 C   0  0  0  0  0  0  0  0  0  0  0  0
  -26.9553  -12.6810   18.1316 C   0  0  0  0  0  0  0  0  0  0  0  0
  -25.6711  -19.3818   17.5647 C   0  0  0  0  0  0  0  0  0  0  0  0
  -26.6288  -19.0418   25.4311 C   0  0  0  0  0  0  0  0  0  1  0  0
  -29.4335  -20.5792   25.3976 C   0  0  0  0  0  0  0  0  0  0  0  0
  -26.6146  -14.8439   19.3956 C   0  0  1  0  0  0  0  0  0  0  0  0
  -27.2684  -17.5923   16.8681 C   0  0  2  0  0  0  0  0  0  0  0  0
  -28.7409  -20.0085   26.6359 C   0  0  1  0  0  0  0  0  0  0  0  0
  -27.4167  -13.5128   19.3480 C   0  0  0  0  0  0  0  0  0  0  0  0
  -25.1494  -28.9840   20.3263 N   0  0  0  0  0  0  0  0  0  0  0  0
  -26.3700  -29.5244   20.4815 N   0  0  0  0  0  0  0  0  0  0  0  0
  -24.5664  -15.1855   20.7417 N   0  0  0  0  0  0  0  0  0  0  0  0
  -28.5841  -26.6094   19.3934 N   0  0  0  0  0  0  0  0  0  0  0  0
  -27.5083  -31.3862   21.4028 N   0  0  0  0  0  0  0  0  0  0  0  0
  -23.1833  -32.2045   22.4136 N   0  0  0  0  0  0  0  0  0  0  0  0
  -29.0419  -25.4317   21.3848 N   0  0  0  0  0  0  0  0  0  0  0  0
  -29.0115  -21.9413   25.1587 N   0  0  0  0  0  0  0  0  0  0  0  0
  -22.6896  -12.5289   21.6304 N   0  0  0  0  0  0  0  0  0  0  0  0
  -26.7454  -15.6636   18.1959 N   0  0  0  0  0  0  0  0  0  0  0  0
  -30.2564  -21.2994   19.9409 N   0  3  0  0  0  0  0  0  0  0  0  0
  -26.9890  -19.0531   16.9631 N   0  3  0  0  0  0  0  0  0  0  0  0
  -25.3217  -33.0142   22.5883 O   0  0  0  0  0  0  0  0  0  0  0  0
  -23.8014  -13.8816   23.1655 O   0  0  0  0  0  0  0  0  0  0  0  0
  -26.5003  -20.6379   27.2224 O   0  0  0  0  0  0  0  0  0  0  0  0
  -24.5059  -13.9665   18.7551 O   0  0  0  0  0  0  0  0  0  0  0  0
  -27.5811  -17.5450   19.2634 O   0  0  0  0  0  0  0  0  0  0  0  0
  -30.3952  -25.1781   19.5178 O   0  0  0  0  0  0  0  0  0  0  0  0
  -18.8311  -28.9768   21.1191 O   0  0  0  0  0  0  0  0  0  0  0  0
  -25.2044  -19.1270   25.4440 O   0  0  0  0  0  0  0  0  0  1  0  0
  -16.2684  -29.8223   25.9276 F   0  0  0  0  0  0  0  0  0  0  0  0
  -17.4721  -26.9270   22.3816 F   0  0  0  0  0  0  0  0  0  0  0  0
  -29.0636  -20.8224   27.6908 F   0  0  0  0  0  0  0  0  0  0  0  0
  -28.6686  -24.2153   23.7315 S   0  0  0  0  0  0  0  0  0  0  0  0
  1  2  1  0  0  0  0
  1  5  2  0  0  0  0
  2  6  2  0  0  0  0
  3  8  2  0  0  0  0
  3 16  1  0  0  0  0
  4  9  1  0  0  0  0
  4 16  2  0  0  0  0
  5 18  1  0  0  0  0
  6 20  1  0  0  0  0
  7 10  2  0  0  0  0
  7 19  1  0  0  0  0
  8 23  1  0  0  0  0
  9 23  2  0  0  0  0
 10 24  1  0  0  0  0
 11 12  2  0  0  0  0
 11 25  1  0  0  0  0
 12 26  1  0  0  0  0
 13 21  1  0  0  0  0
 13 24  2  0  0  0  0
 14 22  1  0  0  0  0
 14 30  2  0  0  0  0
 15 26  2  0  0  0  0
 15 27  1  0  0  0  0
 16 28  1  0  0  0  0
 17 28  1  0  0  0  0
 17 29  2  0  0  0  0
 17 32  1  0  0  0  0
 18 20  2  0  0  0  0
 18 38  1  0  0  0  0
 19 21  2  0  0  0  0
 19 39  1  0  0  0  0
 20 50  1  0  0  0  0
 21 40  1  0  0  0  0
 22 31  2  0  0  0  0
 22 51  1  0  0  0  0
 23 84  1  0  0  0  0
 24 85  1  0  0  0  0
 25 27  2  0  0  0  0
 25 84  1  0  0  0  0
 26 86  1  0  0  0  0
 27 87  1  0  0  0  0
 28 66  2  0  0  0  0
 29 67  1  0  0  0  0
 29 70  1  0  0  0  0
 30 73  1  0  0  0  0
 30 89  1  0  0  0  0
 31 72  1  0  0  0  0
 31 89  1  0  0  0  0
 32 71  1  0  0  0  0
 32 78  2  0  0  0  0
 33 52  1  0  0  0  0
 33 74  1  0  0  0  0
 33 79  2  0  0  0  0
 34 60  1  0  0  0  0
 34 64  1  0  0  0  0
 34 80  2  0  0  0  0
 35 62  1  0  0  0  0
 35 68  1  0  0  0  0
 35 81  2  0  0  0  0
 36 63  1  0  0  0  0
 36 75  1  0  0  0  0
 36 82  2  0  0  0  0
 37 69  1  0  0  0  0
 37 72  1  0  0  0  0
 37 83  2  0  0  0  0
 38 41  1  0  0  0  0
 39 52  1  0  0  0  0
 40 68  1  0  0  0  0
 41 44  1  0  0  0  0
 42 46  1  0  0  0  0
 42 47  1  0  0  0  0
 43 45  1  0  0  0  0
 43 49  1  0  0  0  0
 44 50  1  0  0  0  0
 45 51  1  0  0  0  0
 46 53  1  0  0  0  0
 47 69  1  0  0  0  0
 48 53  1  0  0  0  0
 48 69  1  0  0  0  0
 49 76  1  0  0  0  0
 50 74  1  0  0  0  0
 51 76  1  0  0  0  0
 52 68  1  0  0  0  0
 53 67  1  0  0  0  0
 54 63  1  0  0  0  0
 55 64  1  0  0  0  0
 56 65  1  0  0  0  0
 57 65  1  0  0  0  0
 58 65  1  0  0  0  0
 59 77  1  0  0  0  0
 60 85  1  0  0  0  0
 61 64  1  0  0  0  0
 61 73  1  0  0  0  0
 62 65  1  0  0  0  0
 62 75  1  0  0  0  0
 63 77  1  0  0  0  0
 64 88  1  0  0  0  0
 66 67  1  0  0  0  0
M  CHG  2  76   1  77   1
M  ISO  4  37 100  60 101  72 100  85 101
M  END
> <Batch ID>
0150

> <Smiles>
CNC(C)C(=O)NC(C(=O)N1Cc2cc([101O:1][101CH2:1]C(=O)C(C)(F)CNc3cc(C4CCCN4)c([100NH:0][100C:0](=O)N4CCCC(n5nc(-c6ccc(Oc7ccc(F)cc7F)cc6)c(C(N)=O)c5N)C4)s3)ccc2CC1C(=O)NC1CCCc2ccccc21)C(C)(C)C

> <Shape>
0.242

> <Color>
0.059

> <Negative vol penalty>
0.000

$$$$

  -OEChem-04052303213D

 81 89  0     1  0  0  0  0  0999 V2000
  -18.0831  -28.1519   23.1715 C   0  0  0  0  0  0  0  0  0  0  0  0
  -19.2601  -28.7972   23.5370 C   0  0  0  0  0  0  0  0  0  0  0  0
  -24.4214  -13.8378   20.5542 C   0  0  0  0  0  0  0  0  0  0  0  0
  -26.7540  -13.4528   21.0519 C   0  0  0  0  0  0  0  0  0  0  0  0
  -18.1370  -26.9800   22.4181 C   0  0  0  0  0  0  0  0  0  0  0  0
  -20.4918  -28.2704   23.1501 C   0  0  0  0  0  0  0  0  0  0  0  0
  -27.1008  -30.3129   21.2884 C   0  0  0  0  0  0  0  0  0  0  0  0
  -24.2578  -12.4818   20.2716 C   0  0  0  0  0  0  0  0  0  0  0  0
  -26.5904  -12.0967   20.7693 C   0  0  0  0  0  0  0  0  0  0  0  0
  -28.4347  -30.0715   21.6144 C   0  0  0  0  0  0  0  0  0  0  0  0
  -23.8769   -9.6042   22.0057 C   0  0  0  0  0  0  0  0  0  0  0  0
  -22.7557   -8.9629   22.5323 C   0  0  0  0  0  0  0  0  0  0  0  0
  -28.4031  -28.0846   20.2468 C   0  0  0  0  0  0  0  0  0  0  0  0
  -30.4140  -23.8871   21.5048 C   0  0  0  0  0  0  0  0  0  0  0  0
  -22.0188   -8.4160   20.2973 C   0  0  0  0  0  0  0  0  0  0  0  0
  -30.2395  -22.4948   23.3577 C   0  0  0  0  0  0  0  0  0  0  0  0
  -25.6695  -14.3234   20.9443 C   0  0  0  0  0  0  0  0  0  0  0  0
  -25.6783  -16.3587   22.4821 C   0  0  0  0  0  0  0  0  0  0  0  0
  -19.3697  -26.4438   22.0136 C   0  0  0  0  0  0  0  0  0  0  0  0
  -26.4037  -29.4345   20.4464 C   0  0  0  0  0  0  0  0  0  0  0  0
  -20.5623  -27.0895   22.3917 C   0  0  0  0  0  0  0  0  0  0  0  0
  -27.0612  -28.3185   19.9096 C   0  0  0  0  0  0  0  0  0  0  0  0
  -29.9837  -22.6265   22.0106 C   0  0  0  0  0  0  0  0  0  0  0  0
  -25.3423  -11.6112   20.3792 C   0  0  0  0  0  0  0  0  0  0  0  0
  -29.0852  -28.9557   21.0959 C   0  0  0  0  0  0  0  0  0  0  0  0
  -24.0690   -9.6514   20.6249 C   0  0  0  0  0  0  0  0  0  0  0  0
  -21.8267   -8.3688   21.6781 C   0  0  0  0  0  0  0  0  0  0  0  0
  -23.1400   -9.0573   19.7707 C   0  0  0  0  0  0  0  0  0  0  0  0
  -25.8392  -15.7242   21.2358 C   0  0  0  0  0  0  0  0  0  0  0  0
  -30.9822  -24.6711   22.4849 C   0  0  0  0  0  0  0  0  0  0  0  0
  -25.9509  -17.6814   22.2317 C   0  0  0  0  0  0  0  0  0  0  0  0
  -25.3149  -15.8023   23.7525 C   0  0  0  0  0  0  0  0  0  0  0  0
  -31.5150  -26.0293   22.2568 C   0  0  0  0  0  0  0  0  0  0  0  0
  -23.8458  -27.5750   20.7682 C   0  0  0  0  0  0  0  0  0  0  0  0
  -24.2778  -27.0944   17.5894 C   0  0  0  0  0  0  0  0  0  0  0  0
  -26.4059  -27.0988   14.9215 C   0  0  0  0  0  0  0  0  0  0  0  0
  -29.0642  -21.6521   19.8772 C   0  0  0  0  0  0  0  0  0  0  0  0
  -19.3794  -25.1490   21.2402 C   0  0  0  0  0  0  0  0  0  0  0  0
  -24.9730  -29.7235   20.0830 C   0  0  0  0  0  0  0  0  0  0  0  0
  -26.3634  -27.3559   18.9849 C   0  0  0  0  0  0  0  0  0  0  0  0
  -20.7112  -24.8605   20.5521 C   0  0  0  0  0  0  0  0  0  0  0  0
  -26.5495  -20.1497   17.8532 C   0  0  0  0  0  0  0  0  0  0  0  0
  -21.8714  -25.0994   21.5132 C   0  0  0  0  0  0  0  0  0  0  0  0
  -26.1273  -18.9166   18.6553 C   0  0  0  0  0  0  0  0  0  0  0  0
  -28.0484  -20.4189   17.9739 C   0  0  0  0  0  0  0  0  0  0  0  0
  -28.1330  -19.2702   20.1517 C   0  0  0  0  0  0  0  0  0  0  0  0
  -21.9168  -26.5625   21.9701 C   0  0  1  0  0  0  0  0  0  0  0  0
  -24.2099  -28.4834   19.6280 C   0  0  1  0  0  0  0  0  0  0  0  0
  -26.6206  -18.9967   20.1134 C   0  0  2  0  0  0  0  0  0  0  0  0
  -26.4779  -26.6248   12.4583 C   0  0  0  0  0  0  0  0  0  0  0  0
  -24.2673  -24.0986   18.1681 C   0  0  0  0  0  0  0  0  0  0  0  0
  -25.2709  -23.7285   15.9045 C   0  0  0  0  0  0  0  0  0  0  0  0
  -23.0127  -24.7681   16.1109 C   0  0  0  0  0  0  0  0  0  0  0  0
  -27.1820  -29.8842   14.2903 C   0  0  0  0  0  0  0  0  0  0  0  0
  -31.9699  -28.2808   23.1624 C   0  0  0  0  0  0  0  0  0  0  0  0
  -30.8379  -29.1698   22.6890 C   0  0  0  0  0  0  0  0  0  1  0  0
  -25.0578  -26.1086   16.7535 C   0  0  1  0  0  0  0  0  0  0  0  0
  -26.2731  -27.6862   13.5280 C   0  0  2  0  0  0  0  0  0  0  0  0
  -24.4151  -24.6928   16.7532 C   0  0  0  0  0  0  0  0  0  0  0  0
  -26.1870  -16.5739   20.2657 N   0  0  0  0  0  0  0  0  0  0  0  0
  -26.2467  -17.7559   20.9024 N   0  0  0  0  0  0  0  0  0  0  0  0
  -24.9631  -27.6782   18.6644 N   0  0  0  0  0  0  0  0  0  0  0  0
  -28.4424  -20.4860   19.3829 N   0  0  0  0  0  0  0  0  0  0  0  0
  -25.9639  -18.7764   23.0212 N   0  0  0  0  0  0  0  0  0  0  0  0
  -25.0696  -14.4247   23.8330 N   0  0  0  0  0  0  0  0  0  0  0  0
  -32.0112  -26.3154   21.0531 N   0  0  0  0  0  0  0  0  0  0  0  0
  -29.3637  -21.6129   21.2386 N   0  0  0  0  0  0  0  0  0  0  0  0
  -22.4855  -27.3981   20.9343 N   0  0  0  0  0  0  0  0  0  0  0  0
  -25.1852  -26.7073   15.4292 N   0  0  0  0  0  0  0  0  0  0  0  0
  -31.4763  -26.9055   23.2677 N   0  3  0  0  0  0  0  0  0  0  0  0
  -27.2826  -28.7628   13.3212 N   0  3  0  0  0  0  0  0  0  0  0  0
  -25.1948  -16.5085   24.7823 O   0  0  0  0  0  0  0  0  0  0  0  0
  -24.7335  -27.0708   21.4461 O   0  0  0  0  0  0  0  0  0  0  0  0
  -23.1060  -27.3430   17.2950 O   0  0  0  0  0  0  0  0  0  0  0  0
  -27.4852  -26.9942   15.5001 O   0  0  0  0  0  0  0  0  0  0  0  0
  -29.2880  -22.6251   19.1526 O   0  0  0  0  0  0  0  0  0  0  0  0
  -25.1830  -10.2878   20.1037 O   0  0  0  0  0  0  0  0  0  0  0  0
  -30.3869  -28.7173   21.4130 O   0  0  0  0  0  0  0  0  0  1  0  0
  -20.7509   -7.7516   22.1840 F   0  0  0  0  0  0  0  0  0  0  0  0
  -23.3198   -9.0985   18.4434 F   0  0  0  0  0  0  0  0  0  0  0  0
  -30.9954  -23.8872   24.0073 S   0  0  0  0  0  0  0  0  0  0  0  0
  1  2  1  0  0  0  0
  1  5  2  0  0  0  0
  2  6  2  0  0  0  0
  3  8  2  0  0  0  0
  3 17  1  0  0  0  0
  4  9  1  0  0  0  0
  4 17  2  0  0  0  0
  5 19  1  0  0  0  0
  6 21  1  0  0  0  0
  7 10  2  0  0  0  0
  7 20  1  0  0  0  0
  8 24  1  0  0  0  0
  9 24  2  0  0  0  0
 10 25  1  0  0  0  0
 11 12  2  0  0  0  0
 11 26  1  0  0  0  0
 12 27  1  0  0  0  0
 13 22  1  0  0  0  0
 13 25  2  0  0  0  0
 14 23  1  0  0  0  0
 14 30  2  0  0  0  0
 15 27  2  0  0  0  0
 15 28  1  0  0  0  0
 16 23  2  0  0  0  0
 16 81  1  0  0  0  0
 17 29  1  0  0  0  0
 18 29  1  0  0  0  0
 18 31  2  0  0  0  0
 18 32  1  0  0  0  0
 19 21  2  0  0  0  0
 19 38  1  0  0  0  0
 20 22  2  0  0  0  0
 20 39  1  0  0  0  0
 21 47  1  0  0  0  0
 22 40  1  0  0  0  0
 23 67  1  0  0  0  0
 24 77  1  0  0  0  0
 25 78  1  0  0  0  0
 26 28  2  0  0  0  0
 26 77  1  0  0  0  0
 27 79  1  0  0  0  0
 28 80  1  0  0  0  0
 29 60  2  0  0  0  0
 30 33  1  0  0  0  0
 30 81  1  0  0  0  0
 31 61  1  0  0  0  0
 31 64  1  0  0  0  0
 32 65  1  0  0  0  0
 32 72  2  0  0  0  0
 33 66  1  0  0  0  0
 33 70  2  0  0  0  0
 34 48  1  0  0  0  0
 34 68  1  0  0  0  0
 34 73  2  0  0  0  0
 35 57  1  0  0  0  0
 35 62  1  0  0  0  0
 35 74  2  0  0  0  0
 36 58  1  0  0  0  0
 36 69  1  0  0  0  0
 36 75  2  0  0  0  0
 37 63  1  0  0  0  0
 37 67  1  0  0  0  0
 37 76  2  0  0  0  0
 38 41  1  0  0  0  0
 39 48  1  0  0  0  0
 40 62  1  0  0  0  0
 41 43  1  0  0  0  0
 42 44  1  0  0  0  0
 42 45  1  0  0  0  0
 43 47  1  0  0  0  0
 44 49  1  0  0  0  0
 45 63  1  0  0  0  0
 46 49  1  0  0  0  0
 46 63  1  0  0  0  0
 47 68  1  0  0  0  0
 48 62  1  0  0  0  0
 49 61  1  0  0  0  0
 50 58  1  0  0  0  0
 51 59  1  0  0  0  0
 52 59  1  0  0  0  0
 53 59  1  0  0  0  0
 54 71  1  0  0  0  0
 55 56  1  0  0  0  0
 55 70  1  0  0  0  0
 56 78  1  0  0  0  0
 57 59  1  0  0  0  0
 57 69  1  0  0  0  0
 58 71  1  0  0  0  0
 60 61  1  0  0  0  0
M  CHG  2  70   1  71   1
M  ISO  4  37 100  56 101  67 100  78 101
M  END
> <Batch ID>
0150

> <Smiles>
CNC(C)C(=O)NC(C(=O)N1Cc2cc([101O:1][101CH2:1]CNC(=N)c3cc([100NH:0][100C:0](=O)N4CCCC(n5nc(-c6ccc(Oc7ccc(F)cc7F)cc6)c(C(N)=O)c5N)C4)cs3)ccc2CC1C(=O)NC1CCCc2ccccc21)C(C)(C)C

> <Shape>
0.228

> <Color>
0.080

> <Negative vol penalty>
0.000

$$$$

  -OEChem-04052303213D

 84 93  0     1  0  0  0  0  0999 V2000
  -23.0567   -6.1749   23.5842 C   0  0  0  0  0  0  0  0  0  0  0  0
  -24.4041   -6.5214   23.5785 C   0  0  0  0  0  0  0  0  0  0  0  0
  -24.7944  -30.9305   20.9039 C   0  0  0  0  0  0  0  0  0  0  0  0
  -25.0950  -29.5240   22.8452 C   0  0  0  0  0  0  0  0  0  0  0  0
  -22.1531   -6.8811   22.7914 C   0  0  0  0  0  0  0  0  0  0  0  0
  -24.8488   -7.5737   22.7789 C   0  0  0  0  0  0  0  0  0  0  0  0
  -29.7524  -12.7940   22.6403 C   0  0  0  0  0  0  0  0  0  0  0  0
  -24.1008  -31.8569   21.6825 C   0  0  0  0  0  0  0  0  0  0  0  0
  -24.4014  -30.4505   23.6238 C   0  0  0  0  0  0  0  0  0  0  0  0
  -30.7545  -13.3089   21.8191 C   0  0  0  0  0  0  0  0  0  0  0  0
  -24.8430  -34.3022   23.8967 C   0  0  0  0  0  0  0  0  0  0  0  0
  -25.1633  -35.6505   23.7389 C   0  0  0  0  0  0  0  0  0  0  0  0
  -29.0901  -14.5090   20.5507 C   0  0  0  0  0  0  0  0  0  0  0  0
  -30.4467  -20.7489   18.9461 C   0  0  0  0  0  0  0  0  0  0  0  0
  -22.8863  -36.1141   23.0774 C   0  0  0  0  0  0  0  0  0  0  0  0
  -31.5823  -22.7269   19.3934 C   0  0  0  0  0  0  0  0  0  0  0  0
  -25.2915  -29.7640   21.4853 C   0  0  0  0  0  0  0  0  0  0  0  0
  -27.1949  -29.0233   19.9568 C   0  0  0  0  0  0  0  0  0  0  0  0
  -22.5854   -7.9489   21.9890 C   0  0  0  0  0  0  0  0  0  0  0  0
  -28.4083  -13.1247   22.4158 C   0  0  0  0  0  0  0  0  0  0  0  0
  -23.9503   -8.2940   21.9735 C   0  0  0  0  0  0  0  0  0  0  0  0
  -28.0731  -13.9990   21.3721 C   0  0  0  0  0  0  0  0  0  0  0  0
  -30.3490  -22.1161   19.3349 C   0  0  0  0  0  0  0  0  0  0  0  0
  -23.9043  -31.6169   23.0424 C   0  0  0  0  0  0  0  0  0  0  0  0
  -30.4232  -14.1642   20.7723 C   0  0  0  0  0  0  0  0  0  0  0  0
  -23.5443  -33.8597   23.6447 C   0  0  0  0  0  0  0  0  0  0  0  0
  -24.1850  -36.5565   23.3293 C   0  0  0  0  0  0  0  0  0  0  0  0
  -22.5660  -34.7657   23.2351 C   0  0  0  0  0  0  0  0  0  0  0  0
  -26.0076  -28.8063   20.6814 C   0  0  0  0  0  0  0  0  0  0  0  0
  -31.7512  -20.3667   18.7220 C   0  0  0  0  0  0  0  0  0  0  0  0
  -27.4641  -27.8120   19.3680 C   0  0  0  0  0  0  0  0  0  0  0  0
  -27.9840  -30.2134   19.8276 C   0  0  0  0  0  0  0  0  0  0  0  0
  -25.7890  -11.4848   21.6717 C   0  0  0  0  0  0  0  0  0  0  0  0
  -24.3385  -14.3517   22.1180 C   0  0  0  0  0  0  0  0  0  0  0  0
  -25.0176  -17.8011   21.3069 C   0  0  0  0  0  0  0  0  0  0  0  0
  -27.8479  -22.2620   19.5988 C   0  0  0  0  0  0  0  0  0  0  0  0
  -21.5792   -8.6522   21.1129 C   0  0  0  0  0  0  0  0  0  0  0  0
  -27.3418  -12.5821   23.3272 C   0  0  0  0  0  0  0  0  0  0  0  0
  -26.6471  -14.4011   21.1015 C   0  0  0  0  0  0  0  0  0  0  0  0
  -22.0700   -9.9956   20.5793 C   0  0  0  0  0  0  0  0  0  0  0  0
  -24.6256  -23.6399   18.9699 C   0  0  0  0  0  0  0  0  0  0  0  0
  -23.4893   -9.8676   20.0352 C   0  0  0  0  0  0  0  0  0  0  0  0
  -32.6654  -18.1415   19.5059 C   0  0  0  0  0  0  0  0  0  0  0  0
  -31.2882  -18.2745   17.3774 C   0  0  0  0  0  0  0  0  0  0  0  0
  -24.7956  -25.1247   19.2995 C   0  0  0  0  0  0  0  0  0  0  0  0
  -33.1982  -16.7751   19.0702 C   0  0  0  0  0  0  0  0  0  0  0  0
  -31.8255  -16.9072   16.9499 C   0  0  0  0  0  0  0  0  0  0  0  0
  -25.4327  -22.7529   19.9162 C   0  0  0  0  0  0  0  0  0  0  0  0
  -27.0266  -24.5795   20.3541 C   0  0  0  0  0  0  0  0  0  0  0  0
  -24.4671   -9.4454   21.1384 C   0  0  1  0  0  0  0  0  0  0  0  0
  -32.2780  -19.0080   18.2967 C   0  0  0  0  0  0  0  0  0  0  0  0
  -25.9560  -12.5778   22.6891 C   0  0  1  0  0  0  0  0  0  0  0  0
  -26.2839  -25.5158   19.3869 C   0  0  2  0  0  0  0  0  0  0  0  0
  -32.2337  -16.0078   18.1381 C   0  0  0  0  0  0  0  0  0  0  0  0
  -32.9521  -14.7580   17.5951 C   0  0  0  0  0  0  0  0  0  0  0  0
  -24.2830  -19.9179   22.4369 C   0  0  0  0  0  0  0  0  0  0  0  0
  -22.0557  -14.2977   20.0941 C   0  0  0  0  0  0  0  0  0  0  0  0
  -22.2517  -16.7870   19.9113 C   0  0  0  0  0  0  0  0  0  0  0  0
  -21.6434  -15.7424   22.0934 C   0  0  0  0  0  0  0  0  0  0  0  0
  -27.8065  -18.7441   21.6099 C   0  0  0  0  0  0  0  0  0  0  0  0
  -30.9886  -15.5381   18.9153 C   0  0  0  0  0  0  0  0  0  1  0  0
  -24.0131  -15.5338   21.2373 C   0  0  1  0  0  0  0  0  0  0  0  0
  -25.4045  -18.9034   22.2763 C   0  0  2  0  0  0  0  0  0  0  0  0
  -22.5134  -15.5735   20.8288 C   0  0  0  0  0  0  0  0  0  0  0  0
  -25.5538  -27.5555   20.5649 N   0  0  0  0  0  0  0  0  0  0  0  0
  -26.4606  -26.9757   19.7601 N   0  0  0  0  0  0  0  0  0  0  0  0
  -25.6396  -13.8393   22.0164 N   0  0  0  0  0  0  0  0  0  0  0  0
  -26.8333  -23.1796   19.9445 N   0  0  0  0  0  0  0  0  0  0  0  0
  -28.4589  -27.3913   18.5582 N   0  0  0  0  0  0  0  0  0  0  0  0
  -27.5641  -31.3697   20.4993 N   0  0  0  0  0  0  0  0  0  0  0  0
  -29.1381  -22.7902   19.6304 N   0  0  0  0  0  0  0  0  0  0  0  0
  -24.7962  -10.5748   21.9813 N   0  0  0  0  0  0  0  0  0  0  0  0
  -24.4675  -16.7177   21.9587 N   0  0  0  0  0  0  0  0  0  0  0  0
  -26.6187  -19.6180   21.7903 N   0  3  0  0  0  0  0  0  0  0  0  0
  -29.0215  -30.2549   19.1238 O   0  0  0  0  0  0  0  0  0  0  0  0
  -26.5066  -11.4691   20.6784 O   0  0  0  0  0  0  0  0  0  0  0  0
  -23.4723  -13.9040   22.8737 O   0  0  0  0  0  0  0  0  0  0  0  0
  -25.1831  -17.8935   20.0926 O   0  0  0  0  0  0  0  0  0  0  0  0
  -27.5888  -21.1014   19.2707 O   0  0  0  0  0  0  0  0  0  0  0  0
  -23.2277  -32.5209   23.8025 O   0  0  0  0  0  0  0  0  0  0  0  0
  -31.3993  -14.6676   19.9688 O   0  0  0  0  0  0  0  0  0  1  0  0
  -24.4924  -37.8516   23.1794 F   0  0  0  0  0  0  0  0  0  0  0  0
  -21.3164  -34.3467   22.9926 F   0  0  0  0  0  0  0  0  0  0  0  0
  -32.8510  -21.6535   18.9806 S   0  0  0  0  0  0  0  0  0  0  0  0
  1  2  1  0  0  0  0
  1  5  2  0  0  0  0
  2  6  2  0  0  0  0
  3  8  2  0  0  0  0
  3 17  1  0  0  0  0
  4  9  1  0  0  0  0
  4 17  2  0  0  0  0
  5 19  1  0  0  0  0
  6 21  1  0  0  0  0
  7 10  2  0  0  0  0
  7 20  1  0  0  0  0
  8 24  1  0  0  0  0
  9 24  2  0  0  0  0
 10 25  1  0  0  0  0
 11 12  2  0  0  0  0
 11 26  1  0  0  0  0
 12 27  1  0  0  0  0
 13 22  1  0  0  0  0
 13 25  2  0  0  0  0
 14 23  1  0  0  0  0
 14 30  2  0  0  0  0
 15 27  2  0  0  0  0
 15 28  1  0  0  0  0
 16 23  2  0  0  0  0
 16 84  1  0  0  0  0
 17 29  1  0  0  0  0
 18 29  1  0  0  0  0
 18 31  2  0  0  0  0
 18 32  1  0  0  0  0
 19 21  2  0  0  0  0
 19 37  1  0  0  0  0
 20 22  2  0  0  0  0
 20 38  1  0  0  0  0
 21 50  1  0  0  0  0
 22 39  1  0  0  0  0
 23 71  1  0  0  0  0
 24 80  1  0  0  0  0
 25 81  1  0  0  0  0
 26 28  2  0  0  0  0
 26 80  1  0  0  0  0
 27 82  1  0  0  0  0
 28 83  1  0  0  0  0
 29 65  2  0  0  0  0
 30 51  1  0  0  0  0
 30 84  1  0  0  0  0
 31 66  1  0  0  0  0
 31 69  1  0  0  0  0
 32 70  1  0  0  0  0
 32 75  2  0  0  0  0
 33 52  1  0  0  0  0
 33 72  1  0  0  0  0
 33 76  2  0  0  0  0
 34 62  1  0  0  0  0
 34 67  1  0  0  0  0
 34 77  2  0  0  0  0
 35 63  1  0  0  0  0
 35 73  1  0  0  0  0
 35 78  2  0  0  0  0
 36 68  1  0  0  0  0
 36 71  1  0  0  0  0
 36 79  2  0  0  0  0
 37 40  1  0  0  0  0
 38 52  1  0  0  0  0
 39 67  1  0  0  0  0
 40 42  1  0  0  0  0
 41 45  1  0  0  0  0
 41 48  1  0  0  0  0
 42 50  1  0  0  0  0
 43 46  1  0  0  0  0
 43 51  1  0  0  0  0
 44 47  1  0  0  0  0
 44 51  1  0  0  0  0
 45 53  1  0  0  0  0
 46 54  1  0  0  0  0
 47 54  1  0  0  0  0
 48 68  1  0  0  0  0
 49 53  1  0  0  0  0
 49 68  1  0  0  0  0
 50 72  1  0  0  0  0
 52 67  1  0  0  0  0
 53 66  1  0  0  0  0
 54 55  1  0  0  0  0
 54 61  1  0  0  0  0
 56 63  1  0  0  0  0
 57 64  1  0  0  0  0
 58 64  1  0  0  0  0
 59 64  1  0  0  0  0
 60 74  1  0  0  0  0
 61 81  1  0  0  0  0
 62 64  1  0  0  0  0
 62 73  1  0  0  0  0
 63 74  1  0  0  0  0
 65 66  1  0  0  0  0
M  CHG  1  74   1
M  ISO  4  36 100  61 101  71 100  81 101
M  END
> <Batch ID>
0150

> <Smiles>
CNC(C)C(=O)NC(C(=O)N1Cc2cc([101O:1][101CH2:1]C3(C)CCC(c4cc([100NH:0][100C:0](=O)N5CCCC(n6nc(-c7ccc(Oc8ccc(F)cc8F)cc7)c(C(N)=O)c6N)C5)cs4)CC3)ccc2CC1C(=O)NC1CCCc2ccccc21)C(C)(C)C

> <Shape>
0.236

> <Color>
0.084

> <Negative vol penalty>
0.000

$$$$

  -OEChem-04052303213D

 85 94  0     1  0  0  0  0  0999 V2000
  -24.2010  -32.5784   24.4846 C   0  0  0  0  0  0  0  0  0  0  0  0
  -24.5388  -31.7060   23.4550 C   0  0  0  0  0  0  0  0  0  0  0  0
  -23.0690   -9.7975   20.0251 C   0  0  0  0  0  0  0  0  0  0  0  0
  -23.7934   -9.9265   22.3263 C   0  0  0  0  0  0  0  0  0  0  0  0
  -25.0139  -32.6706   25.6136 C   0  0  0  0  0  0  0  0  0  0  0  0
  -25.6905  -30.9259   23.5533 C   0  0  0  0  0  0  0  0  0  0  0  0
  -26.4760  -25.2369   21.4265 C   0  0  0  0  0  0  0  0  0  0  0  0
  -22.3167   -8.6620   20.3255 C   0  0  0  0  0  0  0  0  0  0  0  0
  -23.0411   -8.7909   22.6267 C   0  0  0  0  0  0  0  0  0  0  0  0
  -27.0722  -24.7429   20.2671 C   0  0  0  0  0  0  0  0  0  0  0  0
  -19.3433   -7.9546   21.7716 C   0  0  0  0  0  0  0  0  0  0  0  0
  -18.0439   -7.8862   21.2692 C   0  0  0  0  0  0  0  0  0  0  0  0
  -29.1220  -24.3757   21.4848 C   0  0  0  0  0  0  0  0  0  0  0  0
  -29.7397  -19.0436   20.8316 C   0  0  0  0  0  0  0  0  0  0  0  0
  -18.6161   -5.8725   20.0631 C   0  0  0  0  0  0  0  0  0  0  0  0
  -23.8074  -10.4297   21.0255 C   0  0  0  0  0  0  0  0  0  0  0  0
  -24.1611  -12.9436   20.7742 C   0  0  0  0  0  0  0  0  0  0  0  0
  -26.1709  -31.8842   25.7301 C   0  0  0  0  0  0  0  0  0  0  0  0
  -27.2029  -25.3142   22.6232 C   0  0  0  0  0  0  0  0  0  0  0  0
  -26.5203  -31.0086   24.6843 C   0  0  0  0  0  0  0  0  0  0  0  0
  -28.5320  -24.8687   22.6587 C   0  0  0  0  0  0  0  0  0  0  0  0
  -29.8596  -18.0352   21.8310 C   0  0  0  0  0  0  0  0  0  0  0  0
  -22.3028   -8.1587   21.6263 C   0  0  0  0  0  0  0  0  0  0  0  0
  -28.3963  -24.3149   20.2954 C   0  0  0  0  0  0  0  0  0  0  0  0
  -20.2792   -6.9819   21.4196 C   0  0  0  0  0  0  0  0  0  0  0  0
  -17.6803   -6.8452   20.4149 C   0  0  0  0  0  0  0  0  0  0  0  0
  -19.9156   -5.9409   20.5654 C   0  0  0  0  0  0  0  0  0  0  0  0
  -24.5851  -11.6025   20.7156 C   0  0  0  0  0  0  0  0  0  0  0  0
  -25.2617  -13.6688   20.3879 C   0  0  0  0  0  0  0  0  0  0  0  0
  -29.0048  -18.2514   22.8894 C   0  0  0  0  0  0  0  0  0  0  0  0
  -28.7975  -19.9921   21.1641 C   0  0  0  0  0  0  0  0  0  0  0  0
  -22.8864  -13.4854   21.1446 C   0  0  0  0  0  0  0  0  0  0  0  0
  -28.1094  -27.6755   24.5484 C   0  0  0  0  0  0  0  0  0  0  0  0
  -29.1421  -25.2332   26.4167 C   0  0  0  0  0  0  0  0  0  0  0  0
  -30.1751  -21.9877   26.6334 C   0  0  0  0  0  0  0  0  0  0  0  0
  -30.7459  -14.6793   20.6064 C   0  0  0  0  0  0  0  0  0  0  0  0
  -27.0438  -32.0530   26.9484 C   0  0  0  0  0  0  0  0  0  0  0  0
  -26.5371  -25.8246   23.8717 C   0  0  0  0  0  0  0  0  0  0  0  0
  -29.3494  -24.9119   23.9229 C   0  0  0  0  0  0  0  0  0  0  0  0
  -28.0458  -30.9177   27.1418 C   0  0  0  0  0  0  0  0  0  0  0  0
  -29.6358  -12.1724   18.3349 C   0  0  0  0  0  0  0  0  0  0  0  0
  -28.7498  -30.5973   25.8271 C   0  0  0  0  0  0  0  0  0  0  0  0
  -28.1906  -11.9071   18.7606 C   0  0  0  0  0  0  0  0  0  0  0  0
  -28.6892  -16.3479   25.7411 C   0  0  0  0  0  0  0  0  0  0  0  0
  -30.5351  -12.4551   19.5362 C   0  0  0  0  0  0  0  0  0  0  0  0
  -27.7521  -17.2057   24.8850 C   0  0  0  0  0  0  0  0  0  0  0  0
  -29.6710  -16.4102   24.5665 C   0  0  0  0  0  0  0  0  0  0  0  0
  -28.6152  -13.2663   20.8513 C   0  0  0  0  0  0  0  0  0  0  0  0
  -27.7482  -30.1278   24.7651 C   0  0  1  0  0  0  0  0  0  0  0  0
  -27.5292  -26.3378   24.9109 C   0  0  1  0  0  0  0  0  0  0  0  0
  -27.6586  -13.0312   19.6698 C   0  0  2  0  0  0  0  0  0  0  0  0
  -30.8919  -19.8396   27.7145 C   0  0  0  0  0  0  0  0  0  0  0  0
  -28.5973  -22.7845   17.0621 C   0  0  0  0  0  0  0  0  0  0  0  0
  -31.8733  -26.5925   26.4677 C   0  0  0  0  0  0  0  0  0  0  0  0
  -32.8515  -24.4405   27.2924 C   0  0  0  0  0  0  0  0  0  0  0  0
  -31.1426  -25.6369   28.6602 C   0  0  0  0  0  0  0  0  0  0  0  0
  -27.3792  -21.0553   26.9029 C   0  0  0  0  0  0  0  0  0  0  0  0
  -30.8013  -16.8935   21.7259 C   0  0  0  0  0  0  0  0  0  0  0  0
  -29.0306  -21.4193   19.1308 C   0  0  0  0  0  0  0  0  0  0  0  0
  -30.4289  -24.4539   26.5429 C   0  0  1  0  0  0  0  0  0  0  0  0
  -29.7774  -20.8648   27.5743 C   0  0  2  0  0  0  0  0  0  0  0  0
  -28.3857  -22.6828   18.5657 C   0  0  1  0  0  0  0  0  0  1  0  0
  -31.5595  -25.2818   27.2164 C   0  0  0  0  0  0  0  0  0  0  0  0
  -25.8559  -11.4801   20.3230 N   0  0  0  0  0  0  0  0  0  0  0  0
  -26.2398  -12.7536   20.1312 N   0  0  0  0  0  0  0  0  0  0  0  0
  -28.8658  -17.4568   24.0356 N   0  0  0  0  0  0  0  0  0  0  0  0
  -28.6557  -25.4251   25.1158 N   0  0  0  0  0  0  0  0  0  0  0  0
  -29.9751  -13.5319   20.3565 N   0  0  0  0  0  0  0  0  0  0  0  0
  -25.4785  -14.9937   20.2462 N   0  0  0  0  0  0  0  0  0  0  0  0
  -21.8658  -12.5990   21.5148 N   0  0  0  0  0  0  0  0  0  0  0  0
  -28.4417  -21.0986   20.4112 N   0  0  0  0  0  0  0  0  0  0  0  0
  -27.3695  -28.7511   25.0013 N   0  0  0  0  0  0  0  0  0  0  0  0
  -30.0919  -23.2205   27.2455 N   0  0  0  0  0  0  0  0  0  0  0  0
  -30.1376  -15.6543   21.3874 N   0  0  0  0  0  0  0  0  0  0  0  0
  -28.5608  -20.1699   27.0665 N   0  3  0  0  0  0  0  0  0  0  0  0
  -22.6542  -14.7180   21.1315 O   0  0  0  0  0  0  0  0  0  0  0  0
  -29.1521  -27.7280   23.9067 O   0  0  0  0  0  0  0  0  0  0  0  0
  -28.5852  -25.6499   27.4354 O   0  0  0  0  0  0  0  0  0  0  0  0
  -30.5280  -21.7907   25.4727 O   0  0  0  0  0  0  0  0  0  0  0  0
  -31.8894  -14.8263   20.1618 O   0  0  0  0  0  0  0  0  0  0  0  0
  -21.5687   -7.0508   21.9199 O   0  0  0  0  0  0  0  0  0  0  0  0
  -28.9809  -23.8330   19.1650 O   0  0  0  0  0  0  0  0  0  1  0  0
  -16.4320   -6.7788   19.9338 F   0  0  0  0  0  0  0  0  0  0  0  0
  -20.8100   -5.0030   20.2247 F   0  0  0  0  0  0  0  0  0  0  0  0
  -28.0627  -19.6653   22.6759 S   0  0  0  0  0  0  0  0  0  0  0  0
  1  2  1  0  0  0  0
  1  5  2  0  0  0  0
  2  6  2  0  0  0  0
  3  8  2  0  0  0  0
  3 16  1  0  0  0  0
  4  9  1  0  0  0  0
  4 16  2  0  0  0  0
  5 18  1  0  0  0  0
  6 20  1  0  0  0  0
  7 10  2  0  0  0  0
  7 19  1  0  0  0  0
  8 23  1  0  0  0  0
  9 23  2  0  0  0  0
 10 24  1  0  0  0  0
 11 12  2  0  0  0  0
 11 25  1  0  0  0  0
 12 26  1  0  0  0  0
 13 21  1  0  0  0  0
 13 24  2  0  0  0  0
 14 22  1  0  0  0  0
 14 31  2  0  0  0  0
 15 26  2  0  0  0  0
 15 27  1  0  0  0  0
 16 28  1  0  0  0  0
 17 28  1  0  0  0  0
 17 29  2  0  0  0  0
 17 32  1  0  0  0  0
 18 20  2  0  0  0  0
 18 37  1  0  0  0  0
 19 21  2  0  0  0  0
 19 38  1  0  0  0  0
 20 49  1  0  0  0  0
 21 39  1  0  0  0  0
 22 30  2  0  0  0  0
 22 58  1  0  0  0  0
 23 81  1  0  0  0  0
 24 82  1  0  0  0  0
 25 27  2  0  0  0  0
 25 81  1  0  0  0  0
 26 83  1  0  0  0  0
 27 84  1  0  0  0  0
 28 64  2  0  0  0  0
 29 65  1  0  0  0  0
 29 69  1  0  0  0  0
 30 66  1  0  0  0  0
 30 85  1  0  0  0  0
 31 71  1  0  0  0  0
 31 85  1  0  0  0  0
 32 70  1  0  0  0  0
 32 76  2  0  0  0  0
 33 50  1  0  0  0  0
 33 72  1  0  0  0  0
 33 77  2  0  0  0  0
 34 60  1  0  0  0  0
 34 67  1  0  0  0  0
 34 78  2  0  0  0  0
 35 61  1  0  0  0  0
 35 73  1  0  0  0  0
 35 79  2  0  0  0  0
 36 68  1  0  0  0  0
 36 74  1  0  0  0  0
 36 80  2  0  0  0  0
 37 40  1  0  0  0  0
 38 50  1  0  0  0  0
 39 67  1  0  0  0  0
 40 42  1  0  0  0  0
 41 43  1  0  0  0  0
 41 45  1  0  0  0  0
 42 49  1  0  0  0  0
 43 51  1  0  0  0  0
 44 46  1  0  0  0  0
 44 47  1  0  0  0  0
 45 68  1  0  0  0  0
 46 66  1  0  0  0  0
 47 66  1  0  0  0  0
 48 51  1  0  0  0  0
 48 68  1  0  0  0  0
 49 72  1  0  0  0  0
 50 67  1  0  0  0  0
 51 65  1  0  0  0  0
 52 61  1  0  0  0  0
 53 62  1  0  0  0  0
 54 63  1  0  0  0  0
 55 63  1  0  0  0  0
 56 63  1  0  0  0  0
 57 75  1  0  0  0  0
 58 74  1  0  0  0  0
 59 62  1  0  0  0  0
 59 71  1  0  0  0  0
 60 63  1  0  0  0  0
 60 73  1  0  0  0  0
 61 75  1  0  0  0  0
 62 82  1  0  0  0  0
 64 65  1  0  0  0  0
M  CHG  1  75   1
M  ISO  4  36 100  62 101  74 100  82 101
M  END
> <Batch ID>
0150

> <Smiles>
CNC(C)C(=O)NC(C(=O)N1Cc2cc([101O:1][101CH:1](C)CNc3cc(C[100NH:0][100C:0](=O)N4CCCC(n5nc(-c6ccc(Oc7ccc(F)cc7F)cc6)c(C(N)=O)c5N)C4)c(N4CCC4)s3)ccc2CC1C(=O)NC1CCCc2ccccc21)C(C)(C)C

> <Shape>
0.258

> <Color>
0.199

> <Negative vol penalty>
0.000

$$$$

  -OEChem-04052303213D

 87 95  0     1  0  0  0  0  0999 V2000
  -27.9160  -22.5469   18.5399 C   0  0  0  0  0  0  0  0  0  0  0  0
  -26.7519  -22.9150   19.2068 C   0  0  0  0  0  0  0  0  0  0  0  0
  -25.3665  -13.1147   19.1867 C   0  0  0  0  0  0  0  0  0  0  0  0
  -23.4301  -14.5577   19.2589 C   0  0  0  0  0  0  0  0  0  0  0  0
  -29.1288  -23.1487   18.8729 C   0  0  0  0  0  0  0  0  0  0  0  0
  -26.8002  -23.8844   20.2080 C   0  0  0  0  0  0  0  0  0  0  0  0
  -23.0476  -27.2630   19.8235 C   0  0  0  0  0  0  0  0  0  0  0  0
  -24.5373  -11.9972   19.2828 C   0  0  0  0  0  0  0  0  0  0  0  0
  -22.6009  -13.4402   19.3549 C   0  0  0  0  0  0  0  0  0  0  0  0
  -21.7883  -26.8700   20.2748 C   0  0  0  0  0  0  0  0  0  0  0  0
  -22.8448  -10.3527   21.7026 C   0  0  0  0  0  0  0  0  0  0  0  0
  -23.2165   -9.3454   22.5930 C   0  0  0  0  0  0  0  0  0  0  0  0
  -23.5739  -21.6936   23.1609 C   0  0  0  0  0  0  0  0  0  0  0  0
  -22.9115  -22.8943   25.1499 C   0  0  0  0  0  0  0  0  0  0  0  0
  -22.1592  -28.0687   22.3351 C   0  0  0  0  0  0  0  0  0  0  0  0
  -25.1068  -21.8942   25.0175 C   0  0  0  0  0  0  0  0  0  0  0  0
  -23.3258   -7.7696   20.7648 C   0  0  0  0  0  0  0  0  0  0  0  0
  -24.8129  -14.3950   19.1748 C   0  0  0  0  0  0  0  0  0  0  0  0
  -22.6214  -22.4271   23.8680 C   0  0  0  0  0  0  0  0  0  0  0  0
  -26.1014  -16.1893   17.8990 C   0  0  0  0  0  0  0  0  0  0  0  0
  -29.1904  -24.1329   19.8720 C   0  0  0  0  0  0  0  0  0  0  0  0
  -23.8779  -28.0540   20.6305 C   0  0  0  0  0  0  0  0  0  0  0  0
  -28.0152  -24.4989   20.5556 C   0  0  0  0  0  0  0  0  0  0  0  0
  -23.4275  -28.4724   21.8907 C   0  0  0  0  0  0  0  0  0  0  0  0
  -24.8167  -21.4271   23.7356 C   0  0  0  0  0  0  0  0  0  0  0  0
  -23.1545  -12.1599   19.3669 C   0  0  0  0  0  0  0  0  0  0  0  0
  -21.3451  -27.2704   21.5319 C   0  0  0  0  0  0  0  0  0  0  0  0
  -22.7135  -10.0684   20.3433 C   0  0  0  0  0  0  0  0  0  0  0  0
  -23.4570   -8.0539   22.1241 C   0  0  0  0  0  0  0  0  0  0  0  0
  -24.1543  -22.6278   25.7247 C   0  0  0  0  0  0  0  0  0  0  0  0
  -22.9540   -8.7769   19.8744 C   0  0  0  0  0  0  0  0  0  0  0  0
  -25.6690  -15.5498   19.0762 C   0  0  0  0  0  0  0  0  0  0  0  0
  -26.8886  -17.2248   18.3401 C   0  0  0  0  0  0  0  0  0  0  0  0
  -21.3045  -22.7085   23.2603 C   0  0  0  0  0  0  0  0  0  0  0  0
  -25.8170  -15.8754   16.5292 C   0  0  0  0  0  0  0  0  0  0  0  0
  -26.7416  -27.6722   21.9560 C   0  0  0  0  0  0  0  0  0  0  0  0
  -26.3415  -30.7826   22.7854 C   0  0  0  0  0  0  0  0  0  0  0  0
  -24.1954  -33.3629   23.4046 C   0  0  0  0  0  0  0  0  0  0  0  0
  -19.3820  -24.2853   23.1464 C   0  0  0  0  0  0  0  0  0  0  0  0
  -27.0659  -20.3313   23.4414 C   0  0  0  0  0  0  0  0  0  0  0  0
  -30.5322  -24.7211   20.2298 C   0  0  0  0  0  0  0  0  0  0  0  0
  -25.2227  -28.4917   20.1183 C   0  0  0  0  0  0  0  0  0  0  0  0
  -24.2723  -29.3389   22.7873 C   0  0  0  0  0  0  0  0  0  0  0  0
  -30.4353  -26.0089   21.0437 C   0  0  0  0  0  0  0  0  0  0  0  0
  -29.7332  -18.4775   21.9833 C   0  0  0  0  0  0  0  0  0  0  0  0
  -29.4269  -25.8494   22.1771 C   0  0  0  0  0  0  0  0  0  0  0  0
  -29.0337  -17.5789   20.9609 C   0  0  0  0  0  0  0  0  0  0  0  0
  -28.8939  -18.6593   23.2467 C   0  0  0  0  0  0  0  0  0  0  0  0
  -26.8183  -18.2190   21.9949 C   0  0  0  0  0  0  0  0  0  0  0  0
  -28.0229  -25.5643   21.6303 C   0  0  1  0  0  0  0  0  0  0  0  0
  -26.1927  -28.8698   21.2334 C   0  0  1  0  0  0  0  0  0  0  0  0
  -27.5965  -18.0590   20.6787 C   0  0  2  0  0  0  0  0  0  0  0  0
  -24.1623  -35.7741   24.0989 C   0  0  0  0  0  0  0  0  0  0  0  0
  -18.8235  -25.5124   25.2487 C   0  0  0  0  0  0  0  0  0  0  0  0
  -17.5322  -25.9635   23.1551 C   0  0  0  0  0  0  0  0  0  0  0  0
  -26.9179  -29.9585   25.6662 C   0  0  0  0  0  0  0  0  0  0  0  0
  -25.9542  -32.1459   26.4112 C   0  0  0  0  0  0  0  0  0  0  0  0
  -27.9848  -32.1082   24.9627 C   0  0  0  0  0  0  0  0  0  0  0  0
  -22.9047  -34.1940   20.8744 C   0  0  0  0  0  0  0  0  0  0  0  0
  -19.9553  -26.7275   23.3838 C   0  0  0  0  0  0  0  0  0  1  0  0
  -25.7405  -31.5052   23.9668 C   0  0  1  0  0  0  0  0  0  0  0  0
  -24.1889  -34.8041   22.9280 C   0  0  2  0  0  0  0  0  0  0  0  0
  -18.9224  -25.6325   23.7166 C   0  0  0  0  0  0  0  0  0  0  0  0
  -26.6340  -31.4115   25.2359 C   0  0  0  0  0  0  0  0  0  0  0  0
  -26.1422  -16.1303   20.1820 N   0  0  0  0  0  0  0  0  0  0  0  0
  -26.8803  -17.1455   19.7016 N   0  0  0  0  0  0  0  0  0  0  0  0
  -25.5820  -29.7355   22.2443 N   0  0  0  0  0  0  0  0  0  0  0  0
  -27.5470  -19.1195   22.9020 N   0  0  0  0  0  0  0  0  0  0  0  0
  -27.5801  -18.1863   17.6923 N   0  0  0  0  0  0  0  0  0  0  0  0
  -24.9900  -14.7781   16.2530 N   0  0  0  0  0  0  0  0  0  0  0  0
  -25.7851  -20.6831   23.0169 N   0  0  0  0  0  0  0  0  0  0  0  0
  -20.6770  -23.8386   23.6136 N   0  0  0  0  0  0  0  0  0  0  0  0
  -27.4144  -26.7825   21.1403 N   0  0  0  0  0  0  0  0  0  0  0  0
  -25.4776  -32.8690   23.5205 N   0  0  0  0  0  0  0  0  0  0  0  0
  -20.8190  -21.8215   22.3925 N   0  3  0  0  0  0  0  0  0  0  0  0
  -22.9937  -35.0626   22.0763 N   0  3  0  0  0  0  0  0  0  0  0  0
  -26.2958  -16.5381   15.5778 O   0  0  0  0  0  0  0  0  0  0  0  0
  -26.5690  -27.5641   23.1644 O   0  0  0  0  0  0  0  0  0  0  0  0
  -27.4408  -31.1388   22.3540 O   0  0  0  0  0  0  0  0  0  0  0  0
  -23.1662  -32.7388   23.6532 O   0  0  0  0  0  0  0  0  0  0  0  0
  -18.7417  -23.6128   22.3486 O   0  0  0  0  0  0  0  0  0  0  0  0
  -27.7511  -21.0208   24.2011 O   0  0  0  0  0  0  0  0  0  0  0  0
  -22.3451  -11.0697   19.4604 O   0  0  0  0  0  0  0  0  0  0  0  0
  -20.1167  -26.8877   21.9750 O   0  0  0  0  0  0  0  0  0  1  0  0
  -23.8155   -7.0871   22.9791 F   0  0  0  0  0  0  0  0  0  0  0  0
  -24.4328  -23.0764   26.9556 F   0  0  0  0  0  0  0  0  0  0  0  0
  -22.8306   -8.4981   18.5695 F   0  0  0  0  0  0  0  0  0  0  0  0
  1  2  1  0  0  0  0
  1  5  2  0  0  0  0
  2  6  2  0  0  0  0
  3  8  2  0  0  0  0
  3 18  1  0  0  0  0
  4  9  1  0  0  0  0
  4 18  2  0  0  0  0
  5 21  1  0  0  0  0
  6 23  1  0  0  0  0
  7 10  2  0  0  0  0
  7 22  1  0  0  0  0
  8 26  1  0  0  0  0
  9 26  2  0  0  0  0
 10 27  1  0  0  0  0
 11 12  2  0  0  0  0
 11 28  1  0  0  0  0
 12 29  1  0  0  0  0
 13 19  2  0  0  0  0
 13 25  1  0  0  0  0
 14 19  1  0  0  0  0
 14 30  2  0  0  0  0
 15 24  1  0  0  0  0
 15 27  2  0  0  0  0
 16 25  2  0  0  0  0
 16 30  1  0  0  0  0
 17 29  2  0  0  0  0
 17 31  1  0  0  0  0
 18 32  1  0  0  0  0
 19 34  1  0  0  0  0
 20 32  1  0  0  0  0
 20 33  2  0  0  0  0
 20 35  1  0  0  0  0
 21 23  2  0  0  0  0
 21 41  1  0  0  0  0
 22 24  2  0  0  0  0
 22 42  1  0  0  0  0
 23 50  1  0  0  0  0
 24 43  1  0  0  0  0
 25 71  1  0  0  0  0
 26 83  1  0  0  0  0
 27 84  1  0  0  0  0
 28 31  2  0  0  0  0
 28 83  1  0  0  0  0
 29 85  1  0  0  0  0
 30 86  1  0  0  0  0
 31 87  1  0  0  0  0
 32 65  2  0  0  0  0
 33 66  1  0  0  0  0
 33 69  1  0  0  0  0
 34 72  1  0  0  0  0
 34 75  2  0  0  0  0
 35 70  1  0  0  0  0
 35 77  2  0  0  0  0
 36 51  1  0  0  0  0
 36 73  1  0  0  0  0
 36 78  2  0  0  0  0
 37 61  1  0  0  0  0
 37 67  1  0  0  0  0
 37 79  2  0  0  0  0
 38 62  1  0  0  0  0
 38 74  1  0  0  0  0
 38 80  2  0  0  0  0
 39 63  1  0  0  0  0
 39 72  1  0  0  0  0
 39 81  2  0  0  0  0
 40 68  1  0  0  0  0
 40 71  1  0  0  0  0
 40 82  2  0  0  0  0
 41 44  1  0  0  0  0
 42 51  1  0  0  0  0
 43 67  1  0  0  0  0
 44 46  1  0  0  0  0
 45 47  1  0  0  0  0
 45 48  1  0  0  0  0
 46 50  1  0  0  0  0
 47 52  1  0  0  0  0
 48 68  1  0  0  0  0
 49 52  1  0  0  0  0
 49 68  1  0  0  0  0
 50 73  1  0  0  0  0
 51 67  1  0  0  0  0
 52 66  1  0  0  0  0
 53 62  1  0  0  0  0
 54 63  1  0  0  0  0
 55 63  1  0  0  0  0
 56 64  1  0  0  0  0
 57 64  1  0  0  0  0
 58 64  1  0  0  0  0
 59 76  1  0  0  0  0
 60 63  1  0  0  0  0
 60 84  1  0  0  0  0
 61 64  1  0  0  0  0
 61 74  1  0  0  0  0
 62 76  1  0  0  0  0
 65 66  1  0  0  0  0
M  CHG  2  75   1  76   1
M  ISO  4  40 100  60 101  71 100  84 101
M  END
> <Batch ID>
0150

> <Smiles>
CNC(C)C(=O)NC(C(=O)N1Cc2cc([101O:1][101CH2:1]C(C)(C)C(=O)NC(=N)c3cc(F)cc([100NH:0][100C:0](=O)N4CCCC(n5nc(-c6ccc(Oc7ccc(F)cc7F)cc6)c(C(N)=O)c5N)C4)c3)ccc2CC1C(=O)NC1CCCc2ccccc21)C(C)(C)C

> <Shape>
0.231

> <Color>
0.056

> <Negative vol penalty>
0.000

$$$$

  -OEChem-04052303213D

 85 94  0     1  0  0  0  0  0999 V2000
  -37.2359  -12.9646   23.8511 C   0  0  0  0  0  0  0  0  0  0  0  0
  -36.6548  -14.1896   23.5394 C   0  0  0  0  0  0  0  0  0  0  0  0
  -19.3932  -28.9064   23.0606 C   0  0  0  0  0  0  0  0  0  0  0  0
  -20.3421  -26.7261   22.6329 C   0  0  0  0  0  0  0  0  0  0  0  0
  -36.7759  -11.8000   23.2381 C   0  0  0  0  0  0  0  0  0  0  0  0
  -35.6139  -14.2507   22.6136 C   0  0  0  0  0  0  0  0  0  0  0  0
  -30.8167  -18.0563   22.7134 C   0  0  0  0  0  0  0  0  0  0  0  0
  -18.1105  -28.3666   22.9670 C   0  0  0  0  0  0  0  0  0  0  0  0
  -19.0593  -26.1862   22.5392 C   0  0  0  0  0  0  0  0  0  0  0  0
  -30.5563  -19.2549   22.0505 C   0  0  0  0  0  0  0  0  0  0  0  0
  -16.0135  -26.5739   24.9220 C   0  0  0  0  0  0  0  0  0  0  0  0
  -15.0820  -26.9443   25.8919 C   0  0  0  0  0  0  0  0  0  0  0  0
  -28.5743  -27.4163   17.2118 C   0  0  0  0  0  0  0  0  0  0  0  0
  -29.3314  -18.0467   20.3596 C   0  0  0  0  0  0  0  0  0  0  0  0
  -13.6562  -27.8633   24.1715 C   0  0  0  0  0  0  0  0  0  0  0  0
  -20.5090  -28.0861   22.8935 C   0  0  0  0  0  0  0  0  0  0  0  0
  -29.2549  -26.1992   16.9192 C   0  0  0  0  0  0  0  0  0  0  0  0
  -22.6255  -28.7601   24.1481 C   0  0  0  0  0  0  0  0  0  0  0  0
  -35.7223  -11.8456   22.3115 C   0  0  0  0  0  0  0  0  0  0  0  0
  -30.3449  -16.8407   22.1976 C   0  0  0  0  0  0  0  0  0  0  0  0
  -35.1402  -13.0857   21.9865 C   0  0  0  0  0  0  0  0  0  0  0  0
  -29.5850  -16.8344   21.0192 C   0  0  0  0  0  0  0  0  0  0  0  0
  -17.9435  -27.0065   22.7063 C   0  0  0  0  0  0  0  0  0  0  0  0
  -29.8160  -19.2500   20.8719 C   0  0  0  0  0  0  0  0  0  0  0  0
  -15.7665  -26.8483   23.5769 C   0  0  0  0  0  0  0  0  0  0  0  0
  -13.9033  -27.5890   25.5166 C   0  0  0  0  0  0  0  0  0  0  0  0
  -14.5879  -27.4930   23.2016 C   0  0  0  0  0  0  0  0  0  0  0  0
  -21.8343  -28.6433   22.9896 C   0  0  0  0  0  0  0  0  0  0  0  0
  -23.7869  -29.3500   23.7128 C   0  0  0  0  0  0  0  0  0  0  0  0
  -28.7105  -25.1273   17.5917 C   0  0  0  0  0  0  0  0  0  0  0  0
  -27.5353  -27.2282   18.0966 C   0  0  0  0  0  0  0  0  0  0  0  0
  -30.3770  -26.1188   16.0243 C   0  0  0  0  0  0  0  0  0  0  0  0
  -22.3364  -28.3701   25.4972 C   0  0  0  0  0  0  0  0  0  0  0  0
  -31.7098  -14.1702   21.1443 C   0  0  0  0  0  0  0  0  0  0  0  0
  -28.6423  -13.1279   20.9836 C   0  0  0  0  0  0  0  0  0  0  0  0
  -25.3293  -13.9025   20.7170 C   0  0  0  0  0  0  0  0  0  0  0  0
  -26.5406  -29.5210   18.4125 C   0  0  0  0  0  0  0  0  0  0  0  0
  -35.2908  -10.5662   21.6394 C   0  0  0  0  0  0  0  0  0  0  0  0
  -30.6116  -15.5593   22.9388 C   0  0  0  0  0  0  0  0  0  0  0  0
  -29.0385  -15.5584   20.4348 C   0  0  0  0  0  0  0  0  0  0  0  0
  -33.9332  -10.6688   20.9491 C   0  0  0  0  0  0  0  0  0  0  0  0
  -25.4448  -32.3111   20.3338 C   0  0  0  0  0  0  0  0  0  0  0  0
  -33.8512  -11.9462   20.1195 C   0  0  0  0  0  0  0  0  0  0  0  0
  -24.4712  -31.6969   21.3423 C   0  0  0  0  0  0  0  0  0  0  0  0
  -29.7557  -21.7115   16.6809 C   0  0  0  0  0  0  0  0  0  0  0  0
  -25.3518  -31.6310   18.9691 C   0  0  0  0  0  0  0  0  0  0  0  0
  -29.7549  -23.2056   16.3645 C   0  0  0  0  0  0  0  0  0  0  0  0
  -28.9871  -22.8615   18.6337 C   0  0  0  0  0  0  0  0  0  0  0  0
  -24.5184  -29.5552   20.0015 C   0  0  0  0  0  0  0  0  0  0  0  0
  -33.9924  -13.1896   21.0058 C   0  0  1  0  0  0  0  0  0  0  0  0
  -30.5197  -14.3238   22.0486 C   0  0  1  0  0  0  0  0  0  0  0  0
  -29.8602  -21.6775   18.2029 C   0  0  1  0  0  0  0  0  0  0  0  0
  -24.6215  -30.1644   21.4093 C   0  0  2  0  0  0  0  0  0  0  0  0
  -23.0623  -12.8361   20.5733 C   0  0  0  0  0  0  0  0  0  0  0  0
  -29.1793  -12.3843   18.0735 C   0  0  0  0  0  0  0  0  0  0  0  0
  -26.7042  -12.2316   17.7285 C   0  0  0  0  0  0  0  0  0  0  0  0
  -27.8326  -10.7058   19.3476 C   0  0  0  0  0  0  0  0  0  0  0  0
  -24.4254  -15.2160   23.2104 C   0  0  0  0  0  0  0  0  0  0  0  0
  -29.4173  -20.3552   18.8043 C   0  0  0  0  0  0  0  0  0  1  0  0
  -27.5592  -13.1503   19.9321 C   0  0  1  0  0  0  0  0  0  0  0  0
  -24.1173  -13.4252   21.4966 C   0  0  2  0  0  0  0  0  0  0  0  0
  -27.8306  -12.1420   18.7802 C   0  0  0  0  0  0  0  0  0  0  0  0
  -22.4418  -29.1209   21.9001 N   0  0  0  0  0  0  0  0  0  0  0  0
  -23.6269  -29.5435   22.3722 N   0  0  0  0  0  0  0  0  0  0  0  0
  -29.1272  -23.8143   17.5346 N   0  0  3  0  0  0  0  0  0  0  0  0
  -29.3314  -14.3308   21.1930 N   0  0  0  0  0  0  0  0  0  0  0  0
  -25.5075  -30.1816   19.1103 N   0  0  0  0  0  0  0  0  0  0  0  0
  -24.9192  -29.7170   24.3497 N   0  0  0  0  0  0  0  0  0  0  0  0
  -30.1946  -25.8901   14.7084 N   0  0  0  0  0  0  0  0  0  0  0  0
  -21.0960  -27.7775   25.7702 N   0  0  0  0  0  0  0  0  0  0  0  0
  -26.6111  -28.1487   18.6500 N   0  0  0  0  0  0  0  0  0  0  0  0
  -32.7527  -13.4565   21.7033 N   0  0  0  0  0  0  0  0  0  0  0  0
  -26.3014  -12.9279   20.6370 N   0  0  0  0  0  0  0  0  0  0  0  0
  -31.6359  -26.2722   16.4812 N   0  3  0  0  0  0  0  0  0  0  0  0
  -23.5054  -14.5578   22.2474 N   0  3  0  0  0  0  0  0  0  0  0  0
  -23.1474  -28.5569   26.4358 O   0  0  0  0  0  0  0  0  0  0  0  0
  -31.6833  -14.6616   20.0220 O   0  0  0  0  0  0  0  0  0  0  0  0
  -28.8637  -12.0834   21.6015 O   0  0  0  0  0  0  0  0  0  0  0  0
  -25.4045  -15.0262   20.2249 O   0  0  0  0  0  0  0  0  0  0  0  0
  -27.3235  -30.1324   17.6808 O   0  0  0  0  0  0  0  0  0  0  0  0
  -16.6920  -26.4793   22.6151 O   0  0  0  0  0  0  0  0  0  0  0  0
  -29.5610  -20.4184   20.2226 O   0  0  0  0  0  0  0  0  0  1  0  0
  -13.0081  -27.9432   26.4479 F   0  0  0  0  0  0  0  0  0  0  0  0
  -14.3444  -27.7582   21.9108 F   0  0  0  0  0  0  0  0  0  0  0  0
  -27.3840  -25.5897   18.5710 S   0  0  0  0  0  0  0  0  0  0  0  0
  1  2  1  0  0  0  0
  1  5  2  0  0  0  0
  2  6  2  0  0  0  0
  3  8  2  0  0  0  0
  3 16  1  0  0  0  0
  4  9  1  0  0  0  0
  4 16  2  0  0  0  0
  5 19  1  0  0  0  0
  6 21  1  0  0  0  0
  7 10  2  0  0  0  0
  7 20  1  0  0  0  0
  8 23  1  0  0  0  0
  9 23  2  0  0  0  0
 10 24  1  0  0  0  0
 11 12  2  0  0  0  0
 11 25  1  0  0  0  0
 12 26  1  0  0  0  0
 13 17  1  0  0  0  0
 13 31  2  0  0  0  0
 14 22  1  0  0  0  0
 14 24  2  0  0  0  0
 15 26  2  0  0  0  0
 15 27  1  0  0  0  0
 16 28  1  0  0  0  0
 17 30  2  0  0  0  0
 17 32  1  0  0  0  0
 18 28  1  0  0  0  0
 18 29  2  0  0  0  0
 18 33  1  0  0  0  0
 19 21  2  0  0  0  0
 19 38  1  0  0  0  0
 20 22  2  0  0  0  0
 20 39  1  0  0  0  0
 21 50  1  0  0  0  0
 22 40  1  0  0  0  0
 23 81  1  0  0  0  0
 24 82  1  0  0  0  0
 25 27  2  0  0  0  0
 25 81  1  0  0  0  0
 26 83  1  0  0  0  0
 27 84  1  0  0  0  0
 28 63  2  0  0  0  0
 29 64  1  0  0  0  0
 29 68  1  0  0  0  0
 30 65  1  0  0  0  0
 30 85  1  0  0  0  0
 31 71  1  0  0  0  0
 31 85  1  0  0  0  0
 32 69  1  0  0  0  0
 32 74  2  0  0  0  0
 33 70  1  0  0  0  0
 33 76  2  0  0  0  0
 34 51  1  0  0  0  0
 34 72  1  0  0  0  0
 34 77  2  0  0  0  0
 35 60  1  0  0  0  0
 35 66  1  0  0  0  0
 35 78  2  0  0  0  0
 36 61  1  0  0  0  0
 36 73  1  0  0  0  0
 36 79  2  0  0  0  0
 37 67  1  0  0  0  0
 37 71  1  0  0  0  0
 37 80  2  0  0  0  0
 38 41  1  0  0  0  0
 39 51  1  0  0  0  0
 40 66  1  0  0  0  0
 41 43  1  0  0  0  0
 42 44  1  0  0  0  0
 42 46  1  0  0  0  0
 43 50  1  0  0  0  0
 44 53  1  0  0  0  0
 45 47  1  0  0  0  0
 45 52  1  0  0  0  0
 46 67  1  0  0  0  0
 47 65  1  0  0  0  0
 48 52  1  0  0  0  0
 48 65  1  0  0  0  0
 49 53  1  0  0  0  0
 49 67  1  0  0  0  0
 50 72  1  0  0  0  0
 51 66  1  0  0  0  0
 52 59  1  0  0  0  0
 53 64  1  0  0  0  0
 54 61  1  0  0  0  0
 55 62  1  0  0  0  0
 56 62  1  0  0  0  0
 57 62  1  0  0  0  0
 58 75  1  0  0  0  0
 59 82  1  0  0  0  0
 60 62  1  0  0  0  0
 60 73  1  0  0  0  0
 61 75  1  0  0  0  0
 63 64  1  0  0  0  0
M  CHG  2  74   1  75   1
M  ISO  4  37 100  59 101  71 100  82 101
M  END
> <Batch ID>
0150

> <Smiles>
CNC(C)C(=O)NC(C(=O)N1Cc2cc([101O:1][101CH2:1]C3CCN(c4sc([100NH:0][100C:0](=O)N5CCCC(n6nc(-c7ccc(Oc8ccc(F)cc8F)cc7)c(C(N)=O)c6N)C5)cc4C(=N)N)C3)ccc2CC1C(=O)NC1CCCc2ccccc21)C(C)(C)C

> <Shape>
0.265

> <Color>
0.076

> <Negative vol penalty>
0.000

$$$$

  -OEChem-04052303213D

 85 93  0     1  0  0  0  0  0999 V2000
  -17.9835  -27.0406   22.8580 C   0  0  0  0  0  0  0  0  0  0  0  0
  -18.4611  -26.3229   21.7661 C   0  0  0  0  0  0  0  0  0  0  0  0
  -23.0041  -10.1593   19.9737 C   0  0  0  0  0  0  0  0  0  0  0  0
  -23.7447   -9.9082   22.2597 C   0  0  0  0  0  0  0  0  0  0  0  0
  -18.7773  -28.0252   23.4448 C   0  0  0  0  0  0  0  0  0  0  0  0
  -19.7325  -26.5903   21.2597 C   0  0  0  0  0  0  0  0  0  0  0  0
  -22.3576  -22.3731   20.2749 C   0  0  0  0  0  0  0  0  0  0  0  0
  -22.1825   -9.0413   20.1171 C   0  0  0  0  0  0  0  0  0  0  0  0
  -22.9230   -8.7902   22.4030 C   0  0  0  0  0  0  0  0  0  0  0  0
  -22.0431  -21.6864   19.1030 C   0  0  0  0  0  0  0  0  0  0  0  0
  -22.9943   -5.5199   21.5481 C   0  0  0  0  0  0  0  0  0  0  0  0
  -23.5338   -4.3947   22.1715 C   0  0  0  0  0  0  0  0  0  0  0  0
  -26.7349  -17.8207   16.6545 C   0  0  0  0  0  0  0  0  0  0  0  0
  -23.9494  -22.6851   18.0132 C   0  0  0  0  0  0  0  0  0  0  0  0
  -21.8345   -4.5286   23.8837 C   0  0  0  0  0  0  0  0  0  0  0  0
  -23.7853  -10.5927   21.0450 C   0  0  0  0  0  0  0  0  0  0  0  0
  -28.1282  -18.0348   16.8619 C   0  0  0  0  0  0  0  0  0  0  0  0
  -24.2971  -13.0895   21.1544 C   0  0  0  0  0  0  0  0  0  0  0  0
  -20.0629  -28.2981   22.9513 C   0  0  0  0  0  0  0  0  0  0  0  0
  -23.4660  -23.2309   20.3215 C   0  0  0  0  0  0  0  0  0  0  0  0
  -20.5438  -27.5804   21.8395 C   0  0  0  0  0  0  0  0  0  0  0  0
  -24.2774  -23.3796   19.1876 C   0  0  0  0  0  0  0  0  0  0  0  0
  -22.1419   -8.3568   21.3317 C   0  0  0  0  0  0  0  0  0  0  0  0
  -22.8373  -21.8446   17.9711 C   0  0  0  0  0  0  0  0  0  0  0  0
  -21.8749   -6.1495   22.0926 C   0  0  0  0  0  0  0  0  0  0  0  0
  -22.9539   -3.8991   23.3392 C   0  0  0  0  0  0  0  0  0  0  0  0
  -21.2951   -5.6538   23.2603 C   0  0  0  0  0  0  0  0  0  0  0  0
  -24.6347  -11.7472   20.8974 C   0  0  0  0  0  0  0  0  0  0  0  0
  -25.4400  -13.7930   20.8623 C   0  0  0  0  0  0  0  0  0  0  0  0
  -26.0582  -18.9992   16.4290 C   0  0  0  0  0  0  0  0  0  0  0  0
  -28.4634  -19.3690   16.7868 C   0  0  0  0  0  0  0  0  0  0  0  0
  -29.1098  -16.9672   17.1236 C   0  0  0  0  0  0  0  0  0  0  0  0
  -23.0609  -13.6502   21.6161 C   0  0  0  0  0  0  0  0  0  0  0  0
  -23.8748  -26.3423   20.8274 C   0  0  0  0  0  0  0  0  0  0  0  0
  -27.0183  -25.5463   20.7437 C   0  0  0  0  0  0  0  0  0  0  0  0
  -29.4295  -23.3726   19.6912 C   0  0  0  0  0  0  0  0  0  0  0  0
  -23.6538  -18.3158   16.0993 C   0  0  0  0  0  0  0  0  0  0  0  0
  -29.7361  -14.7762   17.4375 C   0  0  0  0  0  0  0  0  0  0  0  0
  -20.8656  -29.4043   23.5890 C   0  0  0  0  0  0  0  0  0  0  0  0
  -23.8073  -23.9439   21.6012 C   0  0  0  0  0  0  0  0  0  0  0  0
  -25.4900  -24.2729   19.1919 C   0  0  0  0  0  0  0  0  0  0  0  0
  -22.3480  -29.3679   23.2267 C   0  0  0  0  0  0  0  0  0  0  0  0
  -30.1487  -12.2138   19.9412 C   0  0  0  0  0  0  0  0  0  0  0  0
  -22.5258  -29.1629   21.7256 C   0  0  0  0  0  0  0  0  0  0  0  0
  -28.7171  -11.9509   20.4080 C   0  0  0  0  0  0  0  0  0  0  0  0
  -30.2005  -12.5454   18.4530 C   0  0  0  0  0  0  0  0  0  0  0  0
  -27.8834  -13.4254   18.5237 C   0  0  0  0  0  0  0  0  0  0  0  0
  -21.9273  -27.8242   21.2770 C   0  0  1  0  0  0  0  0  0  0  0  0
  -24.6616  -25.1887   21.3822 C   0  0  1  0  0  0  0  0  0  0  0  0
  -27.7885  -13.1181   20.0280 C   0  0  1  0  0  0  0  0  0  0  0  0
  -31.9116  -23.0072   19.7448 C   0  0  0  0  0  0  0  0  0  0  0  0
  -21.2027  -17.8562   15.7275 C   0  0  0  0  0  0  0  0  0  0  0  0
  -22.3181  -19.7470   14.4876 C   0  0  0  0  0  0  0  0  0  0  0  0
  -27.3794  -27.7036   18.6164 C   0  0  0  0  0  0  0  0  0  0  0  0
  -29.5857  -26.6692   18.0415 C   0  0  0  0  0  0  0  0  0  0  0  0
  -29.2053  -27.6048   20.3224 C   0  0  0  0  0  0  0  0  0  0  0  0
  -29.1375  -20.8077   21.1386 C   0  0  0  0  0  0  0  0  0  0  0  0
  -21.8819  -19.9133   16.9645 C   0  0  0  0  0  0  0  0  0  1  0  0
  -28.0673  -25.4457   19.6628 C   0  0  1  0  0  0  0  0  0  0  0  0
  -30.5837  -22.7155   20.4263 C   0  0  2  0  0  0  0  0  0  0  0  0
  -22.2716  -18.9603   15.8094 C   0  0  0  0  0  0  0  0  0  0  0  0
  -28.5355  -26.8404   19.1598 C   0  0  0  0  0  0  0  0  0  0  0  0
  -25.8935  -11.6040   20.4743 N   0  0  0  0  0  0  0  0  0  0  0  0
  -28.7619  -15.7237   17.1872 N   0  0  0  0  0  0  0  0  0  0  0  0
  -26.3569  -12.8655   20.4633 N   0  0  0  0  0  0  0  0  0  0  0  0
  -25.7786  -24.9534   20.4651 N   0  0  0  0  0  0  0  0  0  0  0  0
  -29.2812  -13.6358   18.1246 N   0  0  0  0  0  0  0  0  0  0  0  0
  -25.7400  -15.1083   20.9104 N   0  0  0  0  0  0  0  0  0  0  0  0
  -29.6985  -19.9138   16.9359 N   0  0  0  0  0  0  0  0  0  0  0  0
  -21.9875  -12.7849   21.8680 N   0  0  0  0  0  0  0  0  0  0  0  0
  -24.6861  -19.2462   16.1793 N   0  0  0  0  0  0  0  0  0  0  0  0
  -22.8138  -26.7334   21.6216 N   0  0  0  0  0  0  0  0  0  0  0  0
  -29.1371  -24.6170   20.2079 N   0  0  0  0  0  0  0  0  0  0  0  0
  -30.3941  -21.2381   20.4732 N   0  3  0  0  0  0  0  0  0  0  0  0
  -22.9075  -14.8838   21.7840 O   0  0  0  0  0  0  0  0  0  0  0  0
  -24.2067  -26.8416   19.7586 O   0  0  0  0  0  0  0  0  0  0  0  0
  -27.2911  -26.1232   21.7994 O   0  0  0  0  0  0  0  0  0  0  0  0
  -28.8480  -22.8371   18.7500 O   0  0  0  0  0  0  0  0  0  0  0  0
  -23.7715  -17.0985   16.2272 O   0  0  0  0  0  0  0  0  0  0  0  0
  -30.9142  -14.8936   17.0922 O   0  0  0  0  0  0  0  0  0  0  0  0
  -21.3400   -7.2659   21.4721 O   0  0  0  0  0  0  0  0  0  0  0  0
  -22.5322  -21.1759   16.8258 O   0  0  0  0  0  0  0  0  0  1  0  0
  -23.4712   -2.8177   23.9369 F   0  0  0  0  0  0  0  0  0  0  0  0
  -20.2189   -6.2537   23.7874 F   0  0  0  0  0  0  0  0  0  0  0  0
  -27.1014  -20.3566   16.4678 S   0  0  0  0  0  0  0  0  0  0  0  0
  1  2  1  0  0  0  0
  1  5  2  0  0  0  0
  2  6  2  0  0  0  0
  3  8  2  0  0  0  0
  3 16  1  0  0  0  0
  4  9  1  0  0  0  0
  4 16  2  0  0  0  0
  5 19  1  0  0  0  0
  6 21  1  0  0  0  0
  7 10  2  0  0  0  0
  7 20  1  0  0  0  0
  8 23  1  0  0  0  0
  9 23  2  0  0  0  0
 10 24  1  0  0  0  0
 11 12  2  0  0  0  0
 11 25  1  0  0  0  0
 12 26  1  0  0  0  0
 13 17  1  0  0  0  0
 13 30  2  0  0  0  0
 14 22  1  0  0  0  0
 14 24  2  0  0  0  0
 15 26  2  0  0  0  0
 15 27  1  0  0  0  0
 16 28  1  0  0  0  0
 17 31  2  0  0  0  0
 17 32  1  0  0  0  0
 18 28  1  0  0  0  0
 18 29  2  0  0  0  0
 18 33  1  0  0  0  0
 19 21  2  0  0  0  0
 19 39  1  0  0  0  0
 20 22  2  0  0  0  0
 20 40  1  0  0  0  0
 21 48  1  0  0  0  0
 22 41  1  0  0  0  0
 23 81  1  0  0  0  0
 24 82  1  0  0  0  0
 25 27  2  0  0  0  0
 25 81  1  0  0  0  0
 26 83  1  0  0  0  0
 27 84  1  0  0  0  0
 28 63  2  0  0  0  0
 29 65  1  0  0  0  0
 29 68  1  0  0  0  0
 30 71  1  0  0  0  0
 30 85  1  0  0  0  0
 31 69  1  0  0  0  0
 31 85  1  0  0  0  0
 32 64  2  0  0  0  0
 33 70  1  0  0  0  0
 33 75  2  0  0  0  0
 34 49  1  0  0  0  0
 34 72  1  0  0  0  0
 34 76  2  0  0  0  0
 35 59  1  0  0  0  0
 35 66  1  0  0  0  0
 35 77  2  0  0  0  0
 36 60  1  0  0  0  0
 36 73  1  0  0  0  0
 36 78  2  0  0  0  0
 37 61  1  0  0  0  0
 37 71  1  0  0  0  0
 37 79  2  0  0  0  0
 38 64  1  0  0  0  0
 38 67  1  0  0  0  0
 38 80  2  0  0  0  0
 39 42  1  0  0  0  0
 40 49  1  0  0  0  0
 41 66  1  0  0  0  0
 42 44  1  0  0  0  0
 43 45  1  0  0  0  0
 43 46  1  0  0  0  0
 44 48  1  0  0  0  0
 45 50  1  0  0  0  0
 46 67  1  0  0  0  0
 47 50  1  0  0  0  0
 47 67  1  0  0  0  0
 48 72  1  0  0  0  0
 49 66  1  0  0  0  0
 50 65  1  0  0  0  0
 51 60  1  0  0  0  0
 52 61  1  0  0  0  0
 53 61  1  0  0  0  0
 54 62  1  0  0  0  0
 55 62  1  0  0  0  0
 56 62  1  0  0  0  0
 57 74  1  0  0  0  0
 58 61  1  0  0  0  0
 58 82  1  0  0  0  0
 59 62  1  0  0  0  0
 59 73  1  0  0  0  0
 60 74  1  0  0  0  0
 63 65  1  0  0  0  0
M  CHG  1  74   1
M  ISO  4  38 100  58 101  64 100  82 101
M  END
> <Batch ID>
0150

> <Smiles>
CNC(C)C(=O)NC(C(=O)N1Cc2cc([101O:1][101CH2:1]C(C)(C)C(=O)Nc3cc(C=[100N:0][100C:0](=O)N4CCCC(n5nc(-c6ccc(Oc7ccc(F)cc7F)cc6)c(C(N)=O)c5N)C4)c(N)s3)ccc2CC1C(=O)NC1CCCc2ccccc21)C(C)(C)C

> <Shape>
0.281

> <Color>
0.180

> <Negative vol penalty>
0.000

$$$$

  -OEChem-04052303213D

 83 92  0     1  0  0  0  0  0999 V2000
  -29.0583  -24.6385   17.4679 C   0  0  0  0  0  0  0  0  0  0  0  0
  -27.8874  -24.7218   18.2145 C   0  0  0  0  0  0  0  0  0  0  0  0
  -26.5272  -12.1844   20.3318 C   0  0  0  0  0  0  0  0  0  0  0  0
  -24.4302  -12.3621   21.5184 C   0  0  0  0  0  0  0  0  0  0  0  0
  -30.1773  -25.3806   17.8432 C   0  0  0  0  0  0  0  0  0  0  0  0
  -27.8353  -25.5465   19.3377 C   0  0  0  0  0  0  0  0  0  0  0  0
  -23.5839  -28.2908   19.5374 C   0  0  0  0  0  0  0  0  0  0  0  0
  -26.9262  -11.1601   21.1903 C   0  0  0  0  0  0  0  0  0  0  0  0
  -24.8292  -11.3377   22.3769 C   0  0  0  0  0  0  0  0  0  0  0  0
  -22.4273  -27.6426   19.9686 C   0  0  0  0  0  0  0  0  0  0  0  0
  -25.1475   -8.5235   24.6568 C   0  0  0  0  0  0  0  0  0  0  0  0
  -24.2208   -7.5225   24.9480 C   0  0  0  0  0  0  0  0  0  0  0  0
  -22.7129  -28.6052   22.1620 C   0  0  0  0  0  0  0  0  0  0  0  0
  -24.0902   -6.9609   22.6017 C   0  0  0  0  0  0  0  0  0  0  0  0
  -21.3400  -21.7382   22.0139 C   0  0  0  0  0  0  0  0  0  0  0  0
  -25.2791  -12.7855   20.4959 C   0  0  0  0  0  0  0  0  0  0  0  0
  -24.1677  -13.7118   18.3949 C   0  0  0  0  0  0  0  0  0  0  0  0
  -30.1359  -26.2222   18.9659 C   0  0  0  0  0  0  0  0  0  0  0  0
  -24.3209  -29.0937   20.4198 C   0  0  0  0  0  0  0  0  0  0  0  0
  -28.9553  -26.2996   19.7292 C   0  0  0  0  0  0  0  0  0  0  0  0
  -23.8770  -29.2646   21.7388 C   0  0  0  0  0  0  0  0  0  0  0  0
  -26.0772  -10.7367   22.2129 C   0  0  0  0  0  0  0  0  0  0  0  0
  -21.9932  -27.7974   21.2819 C   0  0  0  0  0  0  0  0  0  0  0  0
  -25.5455   -8.7433   23.3380 C   0  0  0  0  0  0  0  0  0  0  0  0
  -23.6922   -6.7412   23.9205 C   0  0  0  0  0  0  0  0  0  0  0  0
  -25.0169   -7.9619   22.3106 C   0  0  0  0  0  0  0  0  0  0  0  0
  -24.8666  -13.8441   19.6097 C   0  0  0  0  0  0  0  0  0  0  0  0
  -20.0780  -21.8800   22.6588 C   0  0  0  0  0  0  0  0  0  0  0  0
  -24.0196  -15.0000   17.9420 C   0  0  0  0  0  0  0  0  0  0  0  0
  -21.6369  -20.4034   21.8430 C   0  0  0  0  0  0  0  0  0  0  0  0
  -18.8201  -25.6232   24.0084 C   0  0  0  0  0  0  0  0  0  0  0  0
  -19.9301  -25.5900   23.2524 C   0  0  0  0  0  0  0  0  0  0  0  0
  -23.6947  -12.5302   17.7348 C   0  0  0  0  0  0  0  0  0  0  0  0
  -27.2745  -29.0124   21.5916 C   0  0  0  0  0  0  0  0  0  0  0  0
  -26.4351  -31.8805   22.8533 C   0  0  0  0  0  0  0  0  0  0  0  0
  -23.9460  -33.9738   23.8874 C   0  0  0  0  0  0  0  0  0  0  0  0
  -23.8756  -20.3028   20.6923 C   0  0  0  0  0  0  0  0  0  0  0  0
  -31.3857  -26.9688   19.3600 C   0  0  0  0  0  0  0  0  0  0  0  0
  -25.5516  -29.8075   19.9317 C   0  0  0  0  0  0  0  0  0  0  0  0
  -24.6212  -30.1319   22.7199 C   0  0  0  0  0  0  0  0  0  0  0  0
  -17.9158  -24.4417   24.1690 C   0  0  0  0  0  0  0  0  0  0  0  0
  -20.3856  -24.3397   22.5352 C   0  0  0  0  0  0  0  0  0  0  0  0
  -31.1305  -28.1058   20.3461 C   0  0  0  0  0  0  0  0  0  0  0  0
  -26.1244  -19.2979   18.1213 C   0  0  0  0  0  0  0  0  0  0  0  0
  -30.2204  -27.6374   21.4771 C   0  0  0  0  0  0  0  0  0  0  0  0
  -25.9890  -17.7737   18.0965 C   0  0  0  0  0  0  0  0  0  0  0  0
  -18.1550  -23.3705   23.1063 C   0  0  0  0  0  0  0  0  0  0  0  0
  -26.0316  -19.8525   19.5417 C   0  0  0  0  0  0  0  0  0  0  0  0
  -24.7094  -17.9062   20.2719 C   0  0  0  0  0  0  0  0  0  0  0  0
  -28.8519  -27.2020   20.9396 C   0  0  1  0  0  0  0  0  0  0  0  0
  -26.5073  -30.1889   21.0580 C   0  0  1  0  0  0  0  0  0  0  0  0
  -24.7316  -17.3072   18.8561 C   0  0  2  0  0  0  0  0  0  0  0  0
  -23.5712  -36.2356   24.9078 C   0  0  0  0  0  0  0  0  0  0  0  0
  -27.2838  -30.7910   25.5741 C   0  0  0  0  0  0  0  0  0  0  0  0
  -26.0291  -32.6759   26.6424 C   0  0  0  0  0  0  0  0  0  0  0  0
  -27.9617  -33.1590   25.1409 C   0  0  0  0  0  0  0  0  0  0  0  0
  -22.4101  -34.9081   21.5365 C   0  0  0  0  0  0  0  0  0  0  0  0
  -20.8048  -26.7979   23.0831 C   0  0  0  0  0  0  0  0  0  1  0  0
  -25.7909  -32.3347   24.1408 C   0  0  1  0  0  0  0  0  0  0  0  0
  -23.6884  -35.4446   23.6142 C   0  0  2  0  0  0  0  0  0  0  0  0
  -26.7532  -32.2222   25.3568 C   0  0  0  0  0  0  0  0  0  0  0  0
  -25.1434  -15.1159   19.9095 N   0  0  0  0  0  0  0  0  0  0  0  0
  -19.4260  -20.7633   22.9737 N   0  0  0  0  0  0  0  0  0  0  0  0
  -24.6158  -15.7945   18.8765 N   0  0  0  0  0  0  0  0  0  0  0  0
  -19.5942  -23.1635   22.9226 N   0  0  1  0  0  0  0  0  0  0  0  0
  -25.8221  -30.8039   22.1967 N   0  0  0  0  0  0  0  0  0  0  0  0
  -24.8137  -19.3720   20.1979 N   0  0  0  0  0  0  0  0  0  0  0  0
  -23.4389  -15.5192   16.8394 N   0  0  0  0  0  0  0  0  0  0  0  0
  -23.9317  -11.2875   18.3382 N   0  0  0  0  0  0  0  0  0  0  0  0
  -22.7417  -19.7291   21.2665 N   0  0  0  0  0  0  0  0  0  0  0  0
  -28.0349  -28.3585   20.6409 N   0  0  0  0  0  0  0  0  0  0  0  0
  -25.2941  -33.6841   23.8948 N   0  0  0  0  0  0  0  0  0  0  0  0
  -22.4244  -35.6146   22.8432 N   0  3  0  0  0  0  0  0  0  0  0  0
  -23.0944  -12.5737   16.6342 O   0  0  0  0  0  0  0  0  0  0  0  0
  -27.1845  -28.7203   22.7783 O   0  0  0  0  0  0  0  0  0  0  0  0
  -27.4408  -32.4641   22.4415 O   0  0  0  0  0  0  0  0  0  0  0  0
  -23.0419  -33.1636   24.0791 O   0  0  0  0  0  0  0  0  0  0  0  0
  -24.0517  -21.5194   20.5878 O   0  0  0  0  0  0  0  0  0  0  0  0
  -26.4662   -9.7370   23.0506 O   0  0  0  0  0  0  0  0  0  0  0  0
  -20.8650  -27.1654   21.7056 O   0  0  0  0  0  0  0  0  0  1  0  0
  -22.8034   -5.7789   24.2004 F   0  0  0  0  0  0  0  0  0  0  0  0
  -25.3964   -8.1676   21.0419 F   0  0  0  0  0  0  0  0  0  0  0  0
  -20.3503  -19.4719   22.4839 S   0  0  0  0  0  0  0  0  0  0  0  0
  1  2  1  0  0  0  0
  1  5  2  0  0  0  0
  2  6  2  0  0  0  0
  3  8  2  0  0  0  0
  3 16  1  0  0  0  0
  4  9  1  0  0  0  0
  4 16  2  0  0  0  0
  5 18  1  0  0  0  0
  6 20  1  0  0  0  0
  7 10  2  0  0  0  0
  7 19  1  0  0  0  0
  8 22  1  0  0  0  0
  9 22  2  0  0  0  0
 10 23  1  0  0  0  0
 11 12  2  0  0  0  0
 11 24  1  0  0  0  0
 12 25  1  0  0  0  0
 13 21  1  0  0  0  0
 13 23  2  0  0  0  0
 14 25  2  0  0  0  0
 14 26  1  0  0  0  0
 15 28  1  0  0  0  0
 15 30  2  0  0  0  0
 16 27  1  0  0  0  0
 17 27  1  0  0  0  0
 17 29  2  0  0  0  0
 17 33  1  0  0  0  0
 18 20  2  0  0  0  0
 18 38  1  0  0  0  0
 19 21  2  0  0  0  0
 19 39  1  0  0  0  0
 20 50  1  0  0  0  0
 21 40  1  0  0  0  0
 22 79  1  0  0  0  0
 23 80  1  0  0  0  0
 24 26  2  0  0  0  0
 24 79  1  0  0  0  0
 25 81  1  0  0  0  0
 26 82  1  0  0  0  0
 27 62  2  0  0  0  0
 28 63  2  0  0  0  0
 28 65  1  0  0  0  0
 29 64  1  0  0  0  0
 29 68  1  0  0  0  0
 30 70  1  0  0  0  0
 30 83  1  0  0  0  0
 31 32  2  0  0  0  0
 31 41  1  0  0  0  0
 32 42  1  0  0  0  0
 32 58  1  0  0  0  0
 33 69  1  0  0  0  0
 33 74  2  0  0  0  0
 34 51  1  0  0  0  0
 34 71  1  0  0  0  0
 34 75  2  0  0  0  0
 35 59  1  0  0  0  0
 35 66  1  0  0  0  0
 35 76  2  0  0  0  0
 36 60  1  0  0  0  0
 36 72  1  0  0  0  0
 36 77  2  0  0  0  0
 37 67  1  0  0  0  0
 37 70  1  0  0  0  0
 37 78  2  0  0  0  0
 38 43  1  0  0  0  0
 39 51  1  0  0  0  0
 40 66  1  0  0  0  0
 41 47  1  0  0  0  0
 42 65  1  0  0  0  0
 43 45  1  0  0  0  0
 44 46  1  0  0  0  0
 44 48  1  0  0  0  0
 45 50  1  0  0  0  0
 46 52  1  0  0  0  0
 47 65  1  0  0  0  0
 48 67  1  0  0  0  0
 49 52  1  0  0  0  0
 49 67  1  0  0  0  0
 50 71  1  0  0  0  0
 51 66  1  0  0  0  0
 52 64  1  0  0  0  0
 53 60  1  0  0  0  0
 54 61  1  0  0  0  0
 55 61  1  0  0  0  0
 56 61  1  0  0  0  0
 57 73  1  0  0  0  0
 58 80  1  0  0  0  0
 59 61  1  0  0  0  0
 59 72  1  0  0  0  0
 60 73  1  0  0  0  0
 62 64  1  0  0  0  0
 63 83  1  0  0  0  0
M  CHG  1  73   1
M  ISO  4  37 100  58 101  70 100  80 101
M  END
> <Batch ID>
0150

> <Smiles>
CNC(C)C(=O)NC(C(=O)N1Cc2cc([101O:1][101CH2:1]C3=CCCN(c4cc([100NH:0][100C:0](=O)N5CCCC(n6nc(-c7ccc(Oc8ccc(F)cc8F)cc7)c(C(N)=O)c6N)C5)sn4)C3)ccc2CC1C(=O)NC1CCCc2ccccc21)C(C)(C)C

> <Shape>
0.244

> <Color>
0.060

> <Negative vol penalty>
0.000

$$$$

  -OEChem-04052303213D

 85 94  0     1  0  0  0  0  0999 V2000
  -24.2634  -36.8861   16.8651 C   0  0  0  0  0  0  0  0  0  0  0  0
  -24.8276  -35.6301   16.6668 C   0  0  0  0  0  0  0  0  0  0  0  0
  -24.7755   -8.7029   21.1359 C   0  0  0  0  0  0  0  0  0  0  0  0
  -23.1181  -10.2130   20.2360 C   0  0  0  0  0  0  0  0  0  0  0  0
  -24.2393  -37.4444   18.1425 C   0  0  0  0  0  0  0  0  0  0  0  0
  -25.3690  -34.9319   17.7456 C   0  0  0  0  0  0  0  0  0  0  0  0
  -25.3206  -28.8684   18.6045 C   0  0  0  0  0  0  0  0  0  0  0  0
  -23.7650   -7.8182   21.5125 C   0  0  0  0  0  0  0  0  0  0  0  0
  -22.1076   -9.3283   20.6126 C   0  0  0  0  0  0  0  0  0  0  0  0
  -26.2769  -27.8807   18.3733 C   0  0  0  0  0  0  0  0  0  0  0  0
  -21.8042   -5.4981   20.0274 C   0  0  0  0  0  0  0  0  0  0  0  0
  -21.9917   -4.1440   19.7503 C   0  0  0  0  0  0  0  0  0  0  0  0
  -26.9687  -28.0190   20.6802 C   0  0  0  0  0  0  0  0  0  0  0  0
  -27.9484  -20.3693   16.5388 C   0  0  0  0  0  0  0  0  0  0  0  0
  -28.1210  -19.4863   18.7810 C   0  0  0  0  0  0  0  0  0  0  0  0
  -27.9539  -17.9803   16.8992 C   0  0  0  0  0  0  0  0  0  0  0  0
  -21.8335   -3.6398   22.1079 C   0  0  0  0  0  0  0  0  0  0  0  0
  -24.4521   -9.9003   20.4977 C   0  0  0  0  0  0  0  0  0  0  0  0
  -26.1871  -10.8439   18.8831 C   0  0  0  0  0  0  0  0  0  0  0  0
  -24.7720  -36.7486   19.2392 C   0  0  0  0  0  0  0  0  0  0  0  0
  -25.1882  -29.4476   19.8747 C   0  0  0  0  0  0  0  0  0  0  0  0
  -25.3532  -35.4820   19.0386 C   0  0  0  0  0  0  0  0  0  0  0  0
  -26.0081  -29.0121   20.9255 C   0  0  0  0  0  0  0  0  0  0  0  0
  -28.0615  -20.5769   17.9135 C   0  0  0  0  0  0  0  0  0  0  0  0
  -27.8945  -19.0710   16.0317 C   0  0  0  0  0  0  0  0  0  0  0  0
  -28.0671  -18.1880   18.2739 C   0  0  0  0  0  0  0  0  0  0  0  0
  -22.4310   -8.1309   21.2509 C   0  0  0  0  0  0  0  0  0  0  0  0
  -27.1031  -27.4578   19.4105 C   0  0  0  0  0  0  0  0  0  0  0  0
  -21.6315   -5.9231   21.3447 C   0  0  0  0  0  0  0  0  0  0  0  0
  -22.0063   -3.2148   20.7906 C   0  0  0  0  0  0  0  0  0  0  0  0
  -21.6461   -4.9940   22.3849 C   0  0  0  0  0  0  0  0  0  0  0  0
  -25.4954  -10.8148   20.1089 C   0  0  0  0  0  0  0  0  0  0  0  0
  -27.0688  -11.8892   19.0112 C   0  0  0  0  0  0  0  0  0  0  0  0
  -26.0453  -10.0014   17.7317 C   0  0  0  0  0  0  0  0  0  0  0  0
  -25.5160  -32.3842   21.0463 C   0  0  0  0  0  0  0  0  0  0  0  0
  -24.3901  -31.0075   23.7590 C   0  0  0  0  0  0  0  0  0  0  0  0
  -23.9632  -28.1696   25.6059 C   0  0  0  0  0  0  0  0  0  0  0  0
  -28.2423  -17.1117   20.5448 C   0  0  0  0  0  0  0  0  0  0  0  0
  -24.7655  -37.4131   20.5931 C   0  0  0  0  0  0  0  0  0  0  0  0
  -24.1337  -30.4930   20.1145 C   0  0  0  0  0  0  0  0  0  0  0  0
  -25.8925  -29.5876   22.3125 C   0  0  0  0  0  0  0  0  0  0  0  0
  -25.0235  -36.4473   21.7468 C   0  0  0  0  0  0  0  0  0  0  0  0
  -28.3870  -14.6080   23.0723 C   0  0  0  0  0  0  0  0  0  0  0  0
  -26.2076  -35.5398   21.4287 C   0  0  0  0  0  0  0  0  0  0  0  0
  -27.7045  -13.4004   22.4258 C   0  0  0  0  0  0  0  0  0  0  0  0
  -27.9704  -23.6786   19.9077 C   0  0  0  0  0  0  0  0  0  0  0  0
  -27.7224  -15.9213   22.6633 C   0  0  0  0  0  0  0  0  0  0  0  0
  -28.2326  -22.1747   19.8358 C   0  0  0  0  0  0  0  0  0  0  0  0
  -26.9033  -14.9157   20.5687 C   0  0  0  0  0  0  0  0  0  0  0  0
  -28.0281  -23.0668   17.5914 C   0  0  0  0  0  0  0  0  0  0  0  0
  -25.9283  -34.6830   20.1880 C   0  0  1  0  0  0  0  0  0  0  0  0
  -24.4335  -31.3788   21.3198 C   0  0  1  0  0  0  0  0  0  0  0  0
  -27.5783  -13.5746   20.8996 C   0  0  2  0  0  0  0  0  0  0  0  0
  -28.4377  -24.2086   18.5442 C   0  0  2  0  0  0  0  0  0  0  0  0
  -29.9617  -24.4163   18.5262 C   0  0  0  0  0  0  0  0  0  0  0  0
  -23.0429  -27.3656   27.7977 C   0  0  0  0  0  0  0  0  0  0  0  0
  -26.8364  -32.1309   25.1955 C   0  0  0  0  0  0  0  0  0  0  0  0
  -26.3741  -30.5443   27.0763 C   0  0  0  0  0  0  0  0  0  0  0  0
  -24.7008  -32.2978   26.4861 C   0  0  0  0  0  0  0  0  0  0  0  0
  -21.9915  -26.4151   24.2668 C   0  0  0  0  0  0  0  0  0  0  0  0
  -27.7428  -25.5229   18.1845 C   0  0  0  0  0  0  0  0  0  1  0  0
  -25.0159  -30.3171   24.9467 C   0  0  1  0  0  0  0  0  0  0  0  0
  -22.7497  -27.6092   26.3255 C   0  0  2  0  0  0  0  0  0  0  0  0
  -25.7356  -31.3129   25.8996 C   0  0  0  0  0  0  0  0  0  0  0  0
  -25.9028  -11.7660   20.9535 N   0  0  0  0  0  0  0  0  0  0  0  0
  -26.8600  -12.4025   20.2574 N   0  0  0  0  0  0  0  0  0  0  0  0
  -28.1146  -21.8607   18.4150 N   0  0  3  0  0  0  0  0  0  0  0  0
  -24.8505  -30.6116   22.4953 N   0  0  0  0  0  0  0  0  0  0  0  0
  -27.6411  -16.0187   21.2042 N   0  0  0  0  0  0  0  0  0  0  0  0
  -27.7797  -18.8610   14.6417 N   0  0  0  0  0  0  0  0  0  0  0  0
  -27.9947  -12.4102   18.1782 N   0  0  0  0  0  0  0  0  0  0  0  0
  -25.0915   -8.9751   17.7682 N   0  0  0  0  0  0  0  0  0  0  0  0
  -28.1285  -17.0803   19.1553 N   0  0  0  0  0  0  0  0  0  0  0  0
  -25.0563  -33.5777   20.5230 N   0  0  0  0  0  0  0  0  0  0  0  0
  -23.9501  -29.5482   25.5802 N   0  0  0  0  0  0  0  0  0  0  0  0
  -22.3328  -26.3178   25.7094 N   0  3  0  0  0  0  0  0  0  0  0  0
  -26.7551  -10.1438   16.7073 O   0  0  0  0  0  0  0  0  0  0  0  0
  -26.6820  -32.0990   21.2931 O   0  0  0  0  0  0  0  0  0  0  0  0
  -23.5196  -31.8613   23.9454 O   0  0  0  0  0  0  0  0  0  0  0  0
  -24.8372  -27.4560   25.1189 O   0  0  0  0  0  0  0  0  0  0  0  0
  -28.8393  -17.9953   21.1651 O   0  0  0  0  0  0  0  0  0  0  0  0
  -21.4447   -7.2678   21.6180 O   0  0  0  0  0  0  0  0  0  0  0  0
  -28.0379  -26.4943   19.1873 O   0  0  0  0  0  0  0  0  0  1  0  0
  -22.1848   -1.9143   20.5242 F   0  0  0  0  0  0  0  0  0  0  0  0
  -21.4795   -5.3961   23.6523 F   0  0  0  0  0  0  0  0  0  0  0  0
  1  2  1  0  0  0  0
  1  5  2  0  0  0  0
  2  6  2  0  0  0  0
  3  8  2  0  0  0  0
  3 18  1  0  0  0  0
  4  9  1  0  0  0  0
  4 18  2  0  0  0  0
  5 20  1  0  0  0  0
  6 22  1  0  0  0  0
  7 10  2  0  0  0  0
  7 21  1  0  0  0  0
  8 27  1  0  0  0  0
  9 27  2  0  0  0  0
 10 28  1  0  0  0  0
 11 12  2  0  0  0  0
 11 29  1  0  0  0  0
 12 30  1  0  0  0  0
 13 23  1  0  0  0  0
 13 28  2  0  0  0  0
 14 24  1  0  0  0  0
 14 25  2  0  0  0  0
 15 24  2  0  0  0  0
 15 26  1  0  0  0  0
 16 25  1  0  0  0  0
 16 26  2  0  0  0  0
 17 30  2  0  0  0  0
 17 31  1  0  0  0  0
 18 32  1  0  0  0  0
 19 32  1  0  0  0  0
 19 33  2  0  0  0  0
 19 34  1  0  0  0  0
 20 22  2  0  0  0  0
 20 39  1  0  0  0  0
 21 23  2  0  0  0  0
 21 40  1  0  0  0  0
 22 51  1  0  0  0  0
 23 41  1  0  0  0  0
 24 67  1  0  0  0  0
 25 70  1  0  0  0  0
 26 73  1  0  0  0  0
 27 82  1  0  0  0  0
 28 83  1  0  0  0  0
 29 31  2  0  0  0  0
 29 82  1  0  0  0  0
 30 84  1  0  0  0  0
 31 85  1  0  0  0  0
 32 65  2  0  0  0  0
 33 66  1  0  0  0  0
 33 71  1  0  0  0  0
 34 72  1  0  0  0  0
 34 77  2  0  0  0  0
 35 52  1  0  0  0  0
 35 74  1  0  0  0  0
 35 78  2  0  0  0  0
 36 62  1  0  0  0  0
 36 68  1  0  0  0  0
 36 79  2  0  0  0  0
 37 63  1  0  0  0  0
 37 75  1  0  0  0  0
 37 80  2  0  0  0  0
 38 69  1  0  0  0  0
 38 73  1  0  0  0  0
 38 81  2  0  0  0  0
 39 42  1  0  0  0  0
 40 52  1  0  0  0  0
 41 68  1  0  0  0  0
 42 44  1  0  0  0  0
 43 45  1  0  0  0  0
 43 47  1  0  0  0  0
 44 51  1  0  0  0  0
 45 53  1  0  0  0  0
 46 48  1  0  0  0  0
 46 54  1  0  0  0  0
 47 69  1  0  0  0  0
 48 67  1  0  0  0  0
 49 53  1  0  0  0  0
 49 69  1  0  0  0  0
 50 54  1  0  0  0  0
 50 67  1  0  0  0  0
 51 74  1  0  0  0  0
 52 68  1  0  0  0  0
 53 66  1  0  0  0  0
 54 55  1  0  0  0  0
 54 61  1  0  0  0  0
 56 63  1  0  0  0  0
 57 64  1  0  0  0  0
 58 64  1  0  0  0  0
 59 64  1  0  0  0  0
 60 76  1  0  0  0  0
 61 83  1  0  0  0  0
 62 64  1  0  0  0  0
 62 75  1  0  0  0  0
 63 76  1  0  0  0  0
 65 66  1  0  0  0  0
M  CHG  1  76   1
M  ISO  4  38 100  61 101  73 100  83 101
M  END
> <Batch ID>
0150

> <Smiles>
CNC(C)C(=O)NC(C(=O)N1Cc2cc([101O:1][101CH2:1]C3(C)CCN(c4cc(N)cc([100NH:0][100C:0](=O)N5CCCC(n6nc(-c7ccc(Oc8ccc(F)cc8F)cc7)c(C(N)=O)c6N)C5)c4)C3)ccc2CC1C(=O)NC1CCCc2ccccc21)C(C)(C)C

> <Shape>
0.262

> <Color>
0.114

> <Negative vol penalty>
0.000

$$$$

  -OEChem-04052303213D

 89 99  0     1  0  0  0  0  0999 V2000
  -19.1267   -8.4777   21.9586 C   0  0  0  0  0  0  0  0  0  0  0  0
  -18.8635   -9.5527   21.1157 C   0  0  0  0  0  0  0  0  0  0  0  0
  -29.7731  -26.1572   21.0935 C   0  0  0  0  0  0  0  0  0  0  0  0
  -28.0233  -24.5201   21.4022 C   0  0  0  0  0  0  0  0  0  0  0  0
  -18.6995  -24.2962   22.3685 C   0  0  0  0  0  0  0  0  0  0  0  0
  -20.0973   -8.5941   22.9527 C   0  0  0  0  0  0  0  0  0  0  0  0
  -19.5701  -10.7453   21.2672 C   0  0  0  0  0  0  0  0  0  0  0  0
  -22.1752  -16.2151   17.4449 C   0  0  0  0  0  0  0  0  0  0  0  0
  -30.6625  -25.3376   21.7882 C   0  0  0  0  0  0  0  0  0  0  0  0
  -28.9128  -23.7004   22.0968 C   0  0  0  0  0  0  0  0  0  0  0  0
  -22.1577  -17.6087   17.4087 C   0  0  0  0  0  0  0  0  0  0  0  0
  -31.4111  -21.5484   21.3567 C   0  0  0  0  0  0  0  0  0  0  0  0
  -31.4204  -20.1900   21.0401 C   0  0  0  0  0  0  0  0  0  0  0  0
  -17.9584  -25.4416   22.6655 C   0  0  0  0  0  0  0  0  0  0  0  0
  -20.6920  -25.6286   22.0667 C   0  0  0  0  0  0  0  0  0  0  0  0
  -23.8673  -17.6684   19.1095 C   0  0  0  0  0  0  0  0  0  0  0  0
  -30.8269  -19.6546   23.3201 C   0  0  0  0  0  0  0  0  0  0  0  0
  -19.3808  -29.0432   22.7482 C   0  0  0  0  0  0  0  0  0  0  0  0
  -19.9682  -26.8088   22.3636 C   0  0  0  0  0  0  0  0  0  0  0  0
  -28.4534  -25.7486   20.9005 C   0  0  0  0  0  0  0  0  0  0  0  0
  -20.0521  -24.3863   22.0720 C   0  0  0  0  0  0  0  0  0  0  0  0
  -27.2858  -26.5988   18.7978 C   0  0  0  0  0  0  0  0  0  0  0  0
  -20.8229   -9.7854   23.1102 C   0  0  0  0  0  0  0  0  0  0  0  0
  -23.0326  -15.5367   18.3230 C   0  0  0  0  0  0  0  0  0  0  0  0
  -20.5504  -10.8782   22.2652 C   0  0  0  0  0  0  0  0  0  0  0  0
  -23.8956  -16.2661   19.1531 C   0  0  0  0  0  0  0  0  0  0  0  0
  -20.3969  -28.1774   22.4204 C   0  0  0  0  0  0  0  0  0  0  0  0
  -30.2324  -24.1092   22.2898 C   0  0  0  0  0  0  0  0  0  0  0  0
  -23.0017  -18.3356   18.2431 C   0  0  0  0  0  0  0  0  0  0  0  0
  -31.1098  -21.9599   22.6550 C   0  0  0  0  0  0  0  0  0  0  0  0
  -31.1283  -19.2431   22.0218 C   0  0  0  0  0  0  0  0  0  0  0  0
  -30.8176  -21.0130   23.6367 C   0  0  0  0  0  0  0  0  0  0  0  0
  -18.6065  -26.6924   22.6593 C   0  0  0  0  0  0  0  0  0  0  0  0
  -27.5340  -26.5951   20.1835 C   0  0  0  0  0  0  0  0  0  0  0  0
  -26.3381  -27.5772   18.6213 C   0  0  0  0  0  0  0  0  0  0  0  0
  -20.8199  -23.1670   21.7621 C   0  0  0  0  0  0  0  0  0  0  0  0
  -27.8605  -25.7901   17.7627 C   0  0  0  0  0  0  0  0  0  0  0  0
  -22.6231  -13.5442   20.7655 C   0  0  0  0  0  0  0  0  0  0  0  0
  -25.8574  -13.3345   20.6314 C   0  0  0  0  0  0  0  0  0  0  0  0
  -28.8172  -14.7597   19.7068 C   0  0  0  0  0  0  0  0  0  0  0  0
  -22.1884  -29.9367   22.2153 C   0  0  0  0  0  0  0  0  0  0  0  0
  -21.8293   -9.8798   24.2296 C   0  0  0  0  0  0  0  0  0  0  0  0
  -23.0586  -14.0328   18.3308 C   0  0  0  0  0  0  0  0  0  0  0  0
  -24.8494  -15.5853   20.0993 C   0  0  0  0  0  0  0  0  0  0  0  0
  -22.7962  -11.0518   24.0821 C   0  0  0  0  0  0  0  0  0  0  0  0
  -24.7963  -31.6863   20.5376 C   0  0  0  0  0  0  0  0  0  0  0  0
  -22.0389  -12.3269   23.7251 C   0  0  0  0  0  0  0  0  0  0  0  0
  -25.7687  -30.5790   20.1250 C   0  0  0  0  0  0  0  0  0  0  0  0
  -20.3725  -22.4255   18.2567 C   0  0  0  0  0  0  0  0  0  0  0  0
  -24.1658  -31.4084   21.9010 C   0  0  0  0  0  0  0  0  0  0  0  0
  -20.2682  -23.4510   19.3825 C   0  0  0  0  0  0  0  0  0  0  0  0
  -24.5026  -28.9840   21.6216 C   0  0  0  0  0  0  0  0  0  0  0  0
  -21.6494  -21.5473   20.1011 C   0  0  0  0  0  0  0  0  0  0  0  0
  -21.3132  -12.1799   22.3822 C   0  0  1  0  0  0  0  0  0  0  0  0
  -23.6044  -13.4514   19.6314 C   0  0  1  0  0  0  0  0  0  0  0  0
  -25.1137  -29.1874   20.2256 C   0  0  2  0  0  0  0  0  0  0  0  0
  -21.6647  -21.6670   18.5733 C   0  0  1  0  0  0  0  0  0  0  0  0
  -31.2951  -14.3671   19.7630 C   0  0  0  0  0  0  0  0  0  0  0  0
  -25.9021  -14.0563   23.5956 C   0  0  0  0  0  0  0  0  0  0  0  0
  -28.3399  -14.5760   23.3609 C   0  0  0  0  0  0  0  0  0  0  0  0
  -27.5132  -12.2614   22.9346 C   0  0  0  0  0  0  0  0  0  0  0  0
  -29.0073  -14.7980   16.7536 C   0  0  0  0  0  0  0  0  0  0  0  0
  -21.7514  -20.3233   17.8664 C   0  0  0  0  0  0  0  0  0  1  0  0
  -27.0045  -14.0870   21.2612 C   0  0  1  0  0  0  0  0  0  0  0  0
  -30.0146  -14.2005   18.9598 C   0  0  2  0  0  0  0  0  0  0  0  0
  -27.1707  -13.7583   22.7717 C   0  0  0  0  0  0  0  0  0  0  0  0
  -26.8031  -27.4995   20.8407 N   0  0  0  0  0  0  0  0  0  0  0  0
  -26.0864  -28.0807   19.8636 N   0  0  0  0  0  0  0  0  0  0  0  0
  -20.9051  -22.7547   20.5104 N   0  0  0  0  0  0  0  0  0  0  0  0
  -24.8330  -14.1133   20.0747 N   0  0  0  0  0  0  0  0  0  0  0  0
  -23.5613  -30.0746   21.9207 N   0  0  0  0  0  0  0  0  0  0  0  0
  -25.7041  -28.0474   17.5262 N   0  0  0  0  0  0  0  0  0  0  0  0
  -28.8202  -24.8325   18.1182 N   0  0  0  0  0  0  0  0  0  0  0  0
  -21.7185  -28.6245   22.1726 N   0  0  0  0  0  0  0  0  0  0  0  0
  -22.2467  -12.3204   21.2852 N   0  0  0  0  0  0  0  0  0  0  0  0
  -28.1813  -13.7893   20.4519 N   0  0  0  0  0  0  0  0  0  0  0  0
  -21.4162  -22.5023   22.7474 N   0  3  0  0  0  0  0  0  0  0  0  0
  -30.1839  -14.9001   17.6548 N   0  3  0  0  0  0  0  0  0  0  0  0
  -27.5447  -25.9242   16.5562 O   0  0  0  0  0  0  0  0  0  0  0  0
  -22.2373  -14.6446   21.1421 O   0  0  0  0  0  0  0  0  0  0  0  0
  -25.8731  -12.1010   20.6270 O   0  0  0  0  0  0  0  0  0  0  0  0
  -28.4819  -15.9402   19.6393 O   0  0  0  0  0  0  0  0  0  0  0  0
  -21.4755  -30.9137   22.4588 O   0  0  0  0  0  0  0  0  0  0  0  0
  -22.7738  -22.4716   18.1732 O   0  0  0  0  0  0  0  0  0  0  0  0
  -31.1002  -23.3090   22.9675 O   0  0  0  0  0  0  0  0  0  0  0  0
  -22.9862  -19.6960   18.2103 O   0  0  0  0  0  0  0  0  0  1  0  0
  -31.1357  -17.9387   21.7173 F   0  0  0  0  0  0  0  0  0  0  0  0
  -30.5262  -21.4024   24.8854 F   0  0  0  0  0  0  0  0  0  0  0  0
  -17.9024  -28.2308   22.9922 S   0  0  0  0  0  0  0  0  0  0  0  0
  1  2  1  0  0  0  0
  1  6  2  0  0  0  0
  2  7  2  0  0  0  0
  3  9  2  0  0  0  0
  3 20  1  0  0  0  0
  4 10  1  0  0  0  0
  4 20  2  0  0  0  0
  5 14  2  0  0  0  0
  5 21  1  0  0  0  0
  6 23  1  0  0  0  0
  7 25  1  0  0  0  0
  8 11  2  0  0  0  0
  8 24  1  0  0  0  0
  9 28  1  0  0  0  0
 10 28  2  0  0  0  0
 11 29  1  0  0  0  0
 12 13  2  0  0  0  0
 12 30  1  0  0  0  0
 13 31  1  0  0  0  0
 14 33  1  0  0  0  0
 15 19  1  0  0  0  0
 15 21  2  0  0  0  0
 16 26  1  0  0  0  0
 16 29  2  0  0  0  0
 17 31  2  0  0  0  0
 17 32  1  0  0  0  0
 18 27  2  0  0  0  0
 18 89  1  0  0  0  0
 19 27  1  0  0  0  0
 19 33  2  0  0  0  0
 20 34  1  0  0  0  0
 21 36  1  0  0  0  0
 22 34  1  0  0  0  0
 22 35  2  0  0  0  0
 22 37  1  0  0  0  0
 23 25  2  0  0  0  0
 23 42  1  0  0  0  0
 24 26  2  0  0  0  0
 24 43  1  0  0  0  0
 25 54  1  0  0  0  0
 26 44  1  0  0  0  0
 27 74  1  0  0  0  0
 28 85  1  0  0  0  0
 29 86  1  0  0  0  0
 30 32  2  0  0  0  0
 30 85  1  0  0  0  0
 31 87  1  0  0  0  0
 32 88  1  0  0  0  0
 33 89  1  0  0  0  0
 34 67  2  0  0  0  0
 35 68  1  0  0  0  0
 35 72  1  0  0  0  0
 36 69  1  0  0  0  0
 36 77  2  0  0  0  0
 37 73  1  0  0  0  0
 37 79  2  0  0  0  0
 38 55  1  0  0  0  0
 38 75  1  0  0  0  0
 38 80  2  0  0  0  0
 39 64  1  0  0  0  0
 39 70  1  0  0  0  0
 39 81  2  0  0  0  0
 40 65  1  0  0  0  0
 40 76  1  0  0  0  0
 40 82  2  0  0  0  0
 41 71  1  0  0  0  0
 41 74  1  0  0  0  0
 41 83  2  0  0  0  0
 42 45  1  0  0  0  0
 43 55  1  0  0  0  0
 44 70  1  0  0  0  0
 45 47  1  0  0  0  0
 46 48  1  0  0  0  0
 46 50  1  0  0  0  0
 47 54  1  0  0  0  0
 48 56  1  0  0  0  0
 49 51  1  0  0  0  0
 49 57  1  0  0  0  0
 50 71  1  0  0  0  0
 51 69  1  0  0  0  0
 52 56  1  0  0  0  0
 52 71  1  0  0  0  0
 53 57  1  0  0  0  0
 53 69  1  0  0  0  0
 54 75  1  0  0  0  0
 55 70  1  0  0  0  0
 56 68  1  0  0  0  0
 57 63  1  0  0  0  0
 57 84  1  0  0  0  0
 58 65  1  0  0  0  0
 59 66  1  0  0  0  0
 60 66  1  0  0  0  0
 61 66  1  0  0  0  0
 62 78  1  0  0  0  0
 63 86  1  0  0  0  0
 64 66  1  0  0  0  0
 64 76  1  0  0  0  0
 65 78  1  0  0  0  0
 67 68  1  0  0  0  0
M  CHG  2  77   1  78   1
M  ISO  4  41 100  63 101  74 100  86 101
M  END
> <Batch ID>
0150

> <Smiles>
CNC(C)C(=O)NC(C(=O)N1Cc2cc([101O:1][101CH2:1]C3(O)CCN(C(=N)c4ccc5scc([100NH:0][100C:0](=O)N6CCCC(n7nc(-c8ccc(Oc9ccc(F)cc9F)cc8)c(C(N)=O)c7N)C6)c5c4)C3)ccc2CC1C(=O)NC1CCCc2ccccc21)C(C)(C)C

> <Shape>
0.213

> <Color>
0.085

> <Negative vol penalty>
0.000

$$$$

  -OEChem-04052303213D

 82 90  0     1  0  0  0  0  0999 V2000
  -23.2616   -8.6954   22.3096 C   0  0  0  0  0  0  0  0  0  0  0  0
  -24.3908   -9.4699   22.5550 C   0  0  0  0  0  0  0  0  0  0  0  0
  -22.7006  -28.2393   20.7444 C   0  0  0  0  0  0  0  0  0  0  0  0
  -23.8691  -27.1859   22.5779 C   0  0  0  0  0  0  0  0  0  0  0  0
  -22.3296   -9.1060   21.3574 C   0  0  0  0  0  0  0  0  0  0  0  0
  -24.5893  -10.6550   21.8475 C   0  0  0  0  0  0  0  0  0  0  0  0
  -27.1774  -15.7986   23.9336 C   0  0  0  0  0  0  0  0  0  0  0  0
  -21.4807  -27.8561   21.3017 C   0  0  0  0  0  0  0  0  0  0  0  0
  -22.6492  -26.8027   23.1353 C   0  0  0  0  0  0  0  0  0  0  0  0
  -28.4655  -16.3174   23.8100 C   0  0  0  0  0  0  0  0  0  0  0  0
  -18.0465  -27.4677   22.4288 C   0  0  0  0  0  0  0  0  0  0  0  0
  -17.0266  -28.4182   22.4728 C   0  0  0  0  0  0  0  0  0  0  0  0
  -27.7401  -17.6567   21.9394 C   0  0  0  0  0  0  0  0  0  0  0  0
  -31.4473  -21.1566   18.7797 C   0  0  0  0  0  0  0  0  0  0  0  0
  -18.4193  -29.8498   23.8322 C   0  0  0  0  0  0  0  0  0  0  0  0
  -31.0073  -19.6171   17.0949 C   0  0  0  0  0  0  0  0  0  0  0  0
  -23.8949  -27.9041   21.3825 C   0  0  0  0  0  0  0  0  0  0  0  0
  -25.8609  -29.4941   21.0442 C   0  0  0  0  0  0  0  0  0  0  0  0
  -22.5118  -10.3016   20.6448 C   0  0  0  0  0  0  0  0  0  0  0  0
  -26.1618  -16.1974   23.0527 C   0  0  0  0  0  0  0  0  0  0  0  0
  -23.6595  -11.0813   20.8840 C   0  0  0  0  0  0  0  0  0  0  0  0
  -26.4392  -17.1434   22.0556 C   0  0  0  0  0  0  0  0  0  0  0  0
  -31.1093  -19.8111   18.4548 C   0  0  0  0  0  0  0  0  0  0  0  0
  -21.4550  -27.1379   22.4971 C   0  0  0  0  0  0  0  0  0  0  0  0
  -28.7478  -17.2444   22.8110 C   0  0  0  0  0  0  0  0  0  0  0  0
  -19.2528  -27.7082   23.0866 C   0  0  0  0  0  0  0  0  0  0  0  0
  -17.2129  -29.6092   23.1744 C   0  0  0  0  0  0  0  0  0  0  0  0
  -19.4392  -28.8993   23.7882 C   0  0  0  0  0  0  0  0  0  0  0  0
  -25.1554  -28.2992   20.8070 C   0  0  0  0  0  0  0  0  0  0  0  0
  -31.5909  -21.9398   17.6554 C   0  0  0  0  0  0  0  0  0  0  0  0
  -26.9877  -29.3878   20.2661 C   0  0  0  0  0  0  0  0  0  0  0  0
  -25.5275  -30.6012   21.8921 C   0  0  0  0  0  0  0  0  0  0  0  0
  -24.3355  -14.7138   20.9157 C   0  0  0  0  0  0  0  0  0  0  0  0
  -22.8841  -17.6085   20.7239 C   0  0  0  0  0  0  0  0  0  0  0  0
  -23.0920  -20.9878   21.1530 C   0  0  0  0  0  0  0  0  0  0  0  0
  -30.9705  -18.8697   20.7858 C   0  0  0  0  0  0  0  0  0  0  0  0
  -29.9418  -24.6937   18.2427 C   0  0  0  0  0  0  0  0  0  0  0  0
  -21.5009  -10.6803   19.5916 C   0  0  0  0  0  0  0  0  0  0  0  0
  -24.7710  -15.6485   23.2162 C   0  0  0  0  0  0  0  0  0  0  0  0
  -25.3793  -17.6196   21.0974 C   0  0  0  0  0  0  0  0  0  0  0  0
  -21.5962  -12.1392   19.1524 C   0  0  0  0  0  0  0  0  0  0  0  0
  -28.5720  -27.3686   16.2263 C   0  0  0  0  0  0  0  0  0  0  0  0
  -23.0483  -12.5224   18.8851 C   0  0  0  0  0  0  0  0  0  0  0  0
  -27.6012  -28.0244   17.2099 C   0  0  0  0  0  0  0  0  0  0  0  0
  -28.5882  -25.8520   16.3937 C   0  0  0  0  0  0  0  0  0  0  0  0
  -27.9280  -26.0423   18.7605 C   0  0  0  0  0  0  0  0  0  0  0  0
  -23.8975  -12.3858   20.1546 C   0  0  1  0  0  0  0  0  0  0  0  0
  -23.9393  -15.7387   21.9405 C   0  0  1  0  0  0  0  0  0  0  0  0
  -27.8824  -27.5776   18.6568 C   0  0  2  0  0  0  0  0  0  0  0  0
  -21.7568  -23.0944   20.8760 C   0  0  0  0  0  0  0  0  0  0  0  0
  -31.9521  -16.7368   21.7061 C   0  0  0  0  0  0  0  0  0  0  0  0
  -23.3370  -17.4961   17.7086 C   0  0  0  0  0  0  0  0  0  0  0  0
  -22.8737  -19.9548   17.6176 C   0  0  0  0  0  0  0  0  0  0  0  0
  -21.1011  -18.3814   18.3954 C   0  0  0  0  0  0  0  0  0  0  0  0
  -23.2440  -21.6020   24.0441 C   0  0  0  0  0  0  0  0  0  0  0  0
  -31.9343  -23.3759   17.5716 C   0  0  0  0  0  0  0  0  0  0  0  0
  -23.0843  -18.8517   19.8913 C   0  0  1  0  0  0  0  0  0  0  0  0
  -22.1579  -21.9770   21.8263 C   0  0  2  0  0  0  0  0  0  0  0  0
  -30.6772  -17.5267   21.4495 C   0  0  1  0  0  0  0  0  0  1  0  0
  -22.6197  -18.6608   18.4199 C   0  0  0  0  0  0  0  0  0  0  0  0
  -25.7814  -27.4930   19.9456 N   0  0  0  0  0  0  0  0  0  0  0  0
  -26.8922  -28.1827   19.6345 N   0  0  0  0  0  0  0  0  0  0  0  0
  -24.0365  -17.0489   21.2938 N   0  0  0  0  0  0  0  0  0  0  0  0
  -28.8798  -25.4934   17.7889 N   0  0  0  0  0  0  0  0  0  0  0  0
  -28.0409  -30.2084   20.0673 N   0  0  0  0  0  0  0  0  0  0  0  0
  -24.3322  -30.5475   22.6220 N   0  0  0  0  0  0  0  0  0  0  0  0
  -30.8994  -18.7785   19.3996 N   0  0  0  0  0  0  0  0  0  0  0  0
  -23.6699  -13.5090   21.0383 N   0  0  0  0  0  0  0  0  0  0  0  0
  -22.4023  -19.9305   20.5981 N   0  0  0  0  0  0  0  0  0  0  0  0
  -30.7936  -24.2075   17.2584 N   0  0  0  0  0  0  0  0  0  0  0  0
  -22.8181  -22.5858   23.0156 N   0  3  0  0  0  0  0  0  0  0  0  0
  -26.2596  -31.6154   21.9867 O   0  0  0  0  0  0  0  0  0  0  0  0
  -25.1813  -14.9957   20.0749 O   0  0  0  0  0  0  0  0  0  0  0  0
  -21.7463  -17.1548   20.8693 O   0  0  0  0  0  0  0  0  0  0  0  0
  -24.3111  -21.1398   21.1191 O   0  0  0  0  0  0  0  0  0  0  0  0
  -31.2149  -19.8700   21.4543 O   0  0  0  0  0  0  0  0  0  0  0  0
  -30.1212  -24.4361   19.4379 O   0  0  0  0  0  0  0  0  0  0  0  0
  -20.2648  -26.7640   23.0413 O   0  0  0  0  0  0  0  0  0  0  0  0
  -30.0044  -17.7519   22.6877 O   0  0  0  0  0  0  0  0  0  1  0  0
  -16.2340  -30.5225   23.2153 F   0  0  0  0  0  0  0  0  0  0  0  0
  -20.5964  -29.1365   24.4211 F   0  0  0  0  0  0  0  0  0  0  0  0
  -31.3185  -21.0534   16.2159 S   0  0  0  0  0  0  0  0  0  0  0  0
  1  2  1  0  0  0  0
  1  5  2  0  0  0  0
  2  6  2  0  0  0  0
  3  8  2  0  0  0  0
  3 17  1  0  0  0  0
  4  9  1  0  0  0  0
  4 17  2  0  0  0  0
  5 19  1  0  0  0  0
  6 21  1  0  0  0  0
  7 10  2  0  0  0  0
  7 20  1  0  0  0  0
  8 24  1  0  0  0  0
  9 24  2  0  0  0  0
 10 25  1  0  0  0  0
 11 12  2  0  0  0  0
 11 26  1  0  0  0  0
 12 27  1  0  0  0  0
 13 22  1  0  0  0  0
 13 25  2  0  0  0  0
 14 23  1  0  0  0  0
 14 30  2  0  0  0  0
 15 27  2  0  0  0  0
 15 28  1  0  0  0  0
 16 23  2  0  0  0  0
 16 82  1  0  0  0  0
 17 29  1  0  0  0  0
 18 29  1  0  0  0  0
 18 31  2  0  0  0  0
 18 32  1  0  0  0  0
 19 21  2  0  0  0  0
 19 38  1  0  0  0  0
 20 22  2  0  0  0  0
 20 39  1  0  0  0  0
 21 47  1  0  0  0  0
 22 40  1  0  0  0  0
 23 67  1  0  0  0  0
 24 78  1  0  0  0  0
 25 79  1  0  0  0  0
 26 28  2  0  0  0  0
 26 78  1  0  0  0  0
 27 80  1  0  0  0  0
 28 81  1  0  0  0  0
 29 61  2  0  0  0  0
 30 56  1  0  0  0  0
 30 82  1  0  0  0  0
 31 62  1  0  0  0  0
 31 65  1  0  0  0  0
 32 66  1  0  0  0  0
 32 72  2  0  0  0  0
 33 48  1  0  0  0  0
 33 68  1  0  0  0  0
 33 73  2  0  0  0  0
 34 57  1  0  0  0  0
 34 63  1  0  0  0  0
 34 74  2  0  0  0  0
 35 58  1  0  0  0  0
 35 69  1  0  0  0  0
 35 75  2  0  0  0  0
 36 59  1  0  0  0  0
 36 67  1  0  0  0  0
 36 76  2  0  0  0  0
 37 64  1  0  0  0  0
 37 70  1  0  0  0  0
 37 77  2  0  0  0  0
 38 41  1  0  0  0  0
 39 48  1  0  0  0  0
 40 63  1  0  0  0  0
 41 43  1  0  0  0  0
 42 44  1  0  0  0  0
 42 45  1  0  0  0  0
 43 47  1  0  0  0  0
 44 49  1  0  0  0  0
 45 64  1  0  0  0  0
 46 49  1  0  0  0  0
 46 64  1  0  0  0  0
 47 68  1  0  0  0  0
 48 63  1  0  0  0  0
 49 62  1  0  0  0  0
 50 58  1  0  0  0  0
 51 59  1  0  0  0  0
 52 60  1  0  0  0  0
 53 60  1  0  0  0  0
 54 60  1  0  0  0  0
 55 71  1  0  0  0  0
 56 70  1  0  0  0  0
 57 60  1  0  0  0  0
 57 69  1  0  0  0  0
 58 71  1  0  0  0  0
 59 79  1  0  0  0  0
 61 62  1  0  0  0  0
M  CHG  1  71   1
M  ISO  4  37 100  59 101  70 100  79 101
M  END
> <Batch ID>
0150

> <Smiles>
CNC(C)C(=O)NC(C(=O)N1Cc2cc([101O:1][101CH:1](C)C(=O)Nc3csc(C[100NH:0][100C:0](=O)N4CCCC(n5nc(-c6ccc(Oc7ccc(F)cc7F)cc6)c(C(N)=O)c5N)C4)c3)ccc2CC1C(=O)NC1CCCc2ccccc21)C(C)(C)C

> <Shape>
0.238

> <Color>
0.058

> <Negative vol penalty>
0.000

$$$$

  -OEChem-04052303213D

 82 91  0     1  0  0  0  0  0999 V2000
  -26.3843   -9.9220   19.3519 C   0  0  0  0  0  0  0  0  0  0  0  0
  -25.9176  -10.7463   20.3707 C   0  0  0  0  0  0  0  0  0  0  0  0
  -25.1846  -31.4660   22.0347 C   0  0  0  0  0  0  0  0  0  0  0  0
  -24.5221  -32.2324   24.2281 C   0  0  0  0  0  0  0  0  0  0  0  0
  -27.6102  -10.1917   18.7450 C   0  0  0  0  0  0  0  0  0  0  0  0
  -26.6771  -11.8403   20.7840 C   0  0  0  0  0  0  0  0  0  0  0  0
  -23.8907  -16.0272   21.3765 C   0  0  0  0  0  0  0  0  0  0  0  0
  -25.8106  -32.6894   21.7963 C   0  0  0  0  0  0  0  0  0  0  0  0
  -25.1481  -33.4558   23.9897 C   0  0  0  0  0  0  0  0  0  0  0  0
  -23.1289  -16.1257   22.5400 C   0  0  0  0  0  0  0  0  0  0  0  0
  -24.4824  -36.3074   22.2996 C   0  0  0  0  0  0  0  0  0  0  0  0
  -23.7902  -37.4679   22.6457 C   0  0  0  0  0  0  0  0  0  0  0  0
  -24.8118  -17.5534   23.5139 C   0  0  0  0  0  0  0  0  0  0  0  0
  -20.3661  -20.7425   22.5408 C   0  0  0  0  0  0  0  0  0  0  0  0
  -25.5673  -38.0744   24.1661 C   0  0  0  0  0  0  0  0  0  0  0  0
  -24.5403  -31.2374   23.2506 C   0  0  0  0  0  0  0  0  0  0  0  0
  -24.4653  -28.8236   24.0724 C   0  0  0  0  0  0  0  0  0  0  0  0
  -28.3806  -11.2951   19.1445 C   0  0  0  0  0  0  0  0  0  0  0  0
  -25.1260  -16.6833   21.2769 C   0  0  0  0  0  0  0  0  0  0  0  0
  -27.9151  -12.1242   20.1829 C   0  0  0  0  0  0  0  0  0  0  0  0
  -25.5862  -17.4638   22.3471 C   0  0  0  0  0  0  0  0  0  0  0  0
  -20.2629  -22.1242   22.2828 C   0  0  0  0  0  0  0  0  0  0  0  0
  -25.7924  -33.6844   22.7738 C   0  0  0  0  0  0  0  0  0  0  0  0
  -23.5907  -16.8865   23.6100 C   0  0  0  0  0  0  0  0  0  0  0  0
  -25.7170  -36.0304   22.8868 C   0  0  0  0  0  0  0  0  0  0  0  0
  -24.3326  -38.3514   23.5789 C   0  0  0  0  0  0  0  0  0  0  0  0
  -26.2594  -36.9139   23.8200 C   0  0  0  0  0  0  0  0  0  0  0  0
  -23.8930  -29.9740   23.4973 C   0  0  0  0  0  0  0  0  0  0  0  0
  -20.8242  -22.8781   23.2718 C   0  0  0  0  0  0  0  0  0  0  0  0
  -23.4457  -27.9034   24.0868 C   0  0  0  0  0  0  0  0  0  0  0  0
  -21.0198  -20.5194   23.7426 C   0  0  0  0  0  0  0  0  0  0  0  0
  -25.7993  -28.6062   24.5508 C   0  0  0  0  0  0  0  0  0  0  0  0
  -28.1366  -15.7478   20.8709 C   0  0  0  0  0  0  0  0  0  0  0  0
  -28.6905  -18.9375   20.6679 C   0  0  0  0  0  0  0  0  0  0  0  0
  -27.6826  -22.1074   21.4309 C   0  0  0  0  0  0  0  0  0  0  0  0
  -19.2688  -25.4360   21.2258 C   0  0  0  0  0  0  0  0  0  0  0  0
  -29.7215  -11.5189   18.4913 C   0  0  0  0  0  0  0  0  0  0  0  0
  -25.9233  -16.5888   20.0050 C   0  0  0  0  0  0  0  0  0  0  0  0
  -26.8962  -18.2042   22.2828 C   0  0  0  0  0  0  0  0  0  0  0  0
  -19.6949  -22.9734   21.2204 C   0  0  0  0  0  0  0  0  0  0  0  0
  -20.7456  -24.3294   23.0297 C   0  0  0  0  0  0  0  0  0  0  0  0
  -30.2905  -12.9150   18.7314 C   0  0  0  0  0  0  0  0  0  0  0  0
  -18.4950  -28.4387   23.1930 C   0  0  0  0  0  0  0  0  0  0  0  0
  -30.1674  -13.2957   20.2033 C   0  0  0  0  0  0  0  0  0  0  0  0
  -19.8819  -29.0314   23.4521 C   0  0  0  0  0  0  0  0  0  0  0  0
  -18.4374  -27.6686   21.8754 C   0  0  0  0  0  0  0  0  0  0  0  0
  -20.8620  -27.2440   21.9709 C   0  0  0  0  0  0  0  0  0  0  0  0
  -28.6985  -13.3347   20.6421 C   0  0  1  0  0  0  0  0  0  0  0  0
  -27.4070  -16.8810   20.2067 C   0  0  1  0  0  0  0  0  0  0  0  0
  -20.9804  -27.9585   23.3236 C   0  0  1  0  0  0  0  0  0  0  0  0
  -28.3609  -24.5085   21.1625 C   0  0  0  0  0  0  0  0  0  0  0  0
  -20.8129  -16.9717   25.9923 C   0  0  0  0  0  0  0  0  0  0  0  0
  -30.7958  -18.5839   22.8480 C   0  0  0  0  0  0  0  0  0  0  0  0
  -30.7473  -21.0623   23.1996 C   0  0  0  0  0  0  0  0  0  0  0  0
  -31.4594  -20.1303   20.9979 C   0  0  0  0  0  0  0  0  0  0  0  0
  -25.2295  -22.7507   19.9052 C   0  0  0  0  0  0  0  0  0  0  0  0
  -20.9336  -18.0260   23.7109 C   0  0  0  0  0  0  0  0  0  0  0  0
  -29.0203  -20.0303   21.6558 C   0  0  1  0  0  0  0  0  0  0  0  0
  -27.5571  -23.3572   20.5783 C   0  0  2  0  0  0  0  0  0  0  0  0
  -21.4300  -16.8910   24.6036 C   0  0  1  0  0  0  0  0  0  1  0  0
  -30.4819  -19.9363   22.1776 C   0  0  0  0  0  0  0  0  0  0  0  0
  -22.6094  -29.8028   23.1699 N   0  0  0  0  0  0  0  0  0  0  0  0
  -22.3668  -28.5340   23.5405 N   0  0  0  0  0  0  0  0  0  0  0  0
  -27.6423  -18.0755   21.0202 N   0  0  0  0  0  0  0  0  0  0  0  0
  -19.9675  -24.3428   21.7499 N   0  0  0  0  0  0  0  0  0  0  0  0
  -19.5174  -26.6862   21.8005 N   0  0  0  0  0  0  0  0  0  0  0  0
  -23.3758  -26.6245   24.5134 N   0  0  0  0  0  0  0  0  0  0  0  0
  -26.7211  -29.6581   24.4609 N   0  0  0  0  0  0  0  0  0  0  0  0
  -21.2925  -19.3128   24.2999 N   0  0  0  0  0  0  0  0  0  0  0  0
  -28.0657  -14.5522   20.1818 N   0  0  0  0  0  0  0  0  0  0  0  0
  -28.7026  -21.2901   20.9920 N   0  0  0  0  0  0  0  0  0  0  0  0
  -26.1310  -23.7795   20.4848 N   0  3  0  0  0  0  0  0  0  0  0  0
  -26.1676  -27.5063   25.0284 O   0  0  0  0  0  0  0  0  0  0  0  0
  -28.7219  -15.9440   21.9295 O   0  0  0  0  0  0  0  0  0  0  0  0
  -29.3344  -18.8561   19.6189 O   0  0  0  0  0  0  0  0  0  0  0  0
  -26.9513  -21.8809   22.3924 O   0  0  0  0  0  0  0  0  0  0  0  0
  -18.4267  -25.2942   20.3302 O   0  0  0  0  0  0  0  0  0  0  0  0
  -26.4033  -34.8783   22.5415 O   0  0  0  0  0  0  0  0  0  0  0  0
  -22.8453  -16.9843   24.7534 O   0  0  0  0  0  0  0  0  0  1  0  0
  -23.6685  -39.4665   23.9101 F   0  0  0  0  0  0  0  0  0  0  0  0
  -27.4457  -36.6537   24.3865 F   0  0  0  0  0  0  0  0  0  0  0  0
  -21.4867  -21.9918   24.5243 S   0  0  0  0  0  0  0  0  0  0  0  0
  1  2  1  0  0  0  0
  1  5  2  0  0  0  0
  2  6  2  0  0  0  0
  3  8  2  0  0  0  0
  3 16  1  0  0  0  0
  4  9  1  0  0  0  0
  4 16  2  0  0  0  0
  5 18  1  0  0  0  0
  6 20  1  0  0  0  0
  7 10  2  0  0  0  0
  7 19  1  0  0  0  0
  8 23  1  0  0  0  0
  9 23  2  0  0  0  0
 10 24  1  0  0  0  0
 11 12  2  0  0  0  0
 11 25  1  0  0  0  0
 12 26  1  0  0  0  0
 13 21  1  0  0  0  0
 13 24  2  0  0  0  0
 14 22  1  0  0  0  0
 14 31  2  0  0  0  0
 15 26  2  0  0  0  0
 15 27  1  0  0  0  0
 16 28  1  0  0  0  0
 17 28  1  0  0  0  0
 17 30  2  0  0  0  0
 17 32  1  0  0  0  0
 18 20  2  0  0  0  0
 18 37  1  0  0  0  0
 19 21  2  0  0  0  0
 19 38  1  0  0  0  0
 20 48  1  0  0  0  0
 21 39  1  0  0  0  0
 22 29  2  0  0  0  0
 22 40  1  0  0  0  0
 23 78  1  0  0  0  0
 24 79  1  0  0  0  0
 25 27  2  0  0  0  0
 25 78  1  0  0  0  0
 26 80  1  0  0  0  0
 27 81  1  0  0  0  0
 28 62  2  0  0  0  0
 29 41  1  0  0  0  0
 29 82  1  0  0  0  0
 30 63  1  0  0  0  0
 30 67  1  0  0  0  0
 31 69  1  0  0  0  0
 31 82  1  0  0  0  0
 32 68  1  0  0  0  0
 32 73  2  0  0  0  0
 33 49  1  0  0  0  0
 33 70  1  0  0  0  0
 33 74  2  0  0  0  0
 34 58  1  0  0  0  0
 34 64  1  0  0  0  0
 34 75  2  0  0  0  0
 35 59  1  0  0  0  0
 35 71  1  0  0  0  0
 35 76  2  0  0  0  0
 36 65  1  0  0  0  0
 36 66  1  0  0  0  0
 36 77  2  0  0  0  0
 37 42  1  0  0  0  0
 38 49  1  0  0  0  0
 39 64  1  0  0  0  0
 40 65  1  0  0  0  0
 41 65  1  0  0  0  0
 42 44  1  0  0  0  0
 43 45  1  0  0  0  0
 43 46  1  0  0  0  0
 44 48  1  0  0  0  0
 45 50  1  0  0  0  0
 46 66  1  0  0  0  0
 47 50  1  0  0  0  0
 47 66  1  0  0  0  0
 48 70  1  0  0  0  0
 49 64  1  0  0  0  0
 50 63  1  0  0  0  0
 51 59  1  0  0  0  0
 52 60  1  0  0  0  0
 53 61  1  0  0  0  0
 54 61  1  0  0  0  0
 55 61  1  0  0  0  0
 56 72  1  0  0  0  0
 57 60  1  0  0  0  0
 57 69  1  0  0  0  0
 58 61  1  0  0  0  0
 58 71  1  0  0  0  0
 59 72  1  0  0  0  0
 60 79  1  0  0  0  0
 62 63  1  0  0  0  0
M  CHG  1  72   1
M  ISO  4  36 100  60 101  65 100  79 101
M  END
> <Batch ID>
0150

> <Smiles>
CNC(C)C(=O)NC(C(=O)N1Cc2cc([101O:1][101CH:1](C)CNc3cc4c(s3)C[100N:0]([100C:0](=O)N3CCCC(n5nc(-c6ccc(Oc7ccc(F)cc7F)cc6)c(C(N)=O)c5N)C3)C4)ccc2CC1C(=O)NC1CCCc2ccccc21)C(C)(C)C

> <Shape>
0.253

> <Color>
0.058

> <Negative vol penalty>
0.000

$$$$

  -OEChem-04052303213D

 90 99  0     1  0  0  0  0  0999 V2000
  -16.6684  -27.4167   22.2021 C   0  0  0  0  0  0  0  0  0  0  0  0
  -17.7973  -26.8096   21.6613 C   0  0  0  0  0  0  0  0  0  0  0  0
  -21.7688  -14.0355   22.3734 C   0  0  0  0  0  0  0  0  0  0  0  0
  -21.6789  -14.6305   20.0336 C   0  0  0  0  0  0  0  0  0  0  0  0
  -16.6407  -28.7989   22.3829 C   0  0  0  0  0  0  0  0  0  0  0  0
  -18.8988  -27.5845   21.3000 C   0  0  0  0  0  0  0  0  0  0  0  0
  -24.8014  -25.9982   21.6847 C   0  0  0  0  0  0  0  0  0  0  0  0
  -20.4377  -14.4244   22.5235 C   0  0  0  0  0  0  0  0  0  0  0  0
  -20.3477  -15.0194   20.1836 C   0  0  0  0  0  0  0  0  0  0  0  0
  -25.7050  -25.5104   20.7416 C   0  0  0  0  0  0  0  0  0  0  0  0
  -17.3791  -13.1480   21.8539 C   0  0  0  0  0  0  0  0  0  0  0  0
  -16.5336  -12.3019   22.5714 C   0  0  0  0  0  0  0  0  0  0  0  0
  -28.9893  -20.0503   15.3784 C   0  0  0  0  0  0  0  0  0  0  0  0
  -29.5565  -19.3025   17.6046 C   0  0  0  0  0  0  0  0  0  0  0  0
  -26.5191  -27.7508   20.3716 C   0  0  0  0  0  0  0  0  0  0  0  0
  -28.0383  -18.0052   16.2447 C   0  0  0  0  0  0  0  0  0  0  0  0
  -16.1077  -14.0733   24.1582 C   0  0  0  0  0  0  0  0  0  0  0  0
  -22.3894  -14.1386   21.1285 C   0  0  0  0  0  0  0  0  0  0  0  0
  -29.6844  -20.2335   16.5737 C   0  0  0  0  0  0  0  0  0  0  0  0
  -24.2437  -12.4593   20.6293 C   0  0  0  0  0  0  0  0  0  0  0  0
  -17.7461  -29.5901   22.0326 C   0  0  0  0  0  0  0  0  0  0  0  0
  -24.7423  -27.3697   21.9709 C   0  0  0  0  0  0  0  0  0  0  0  0
  -18.8853  -28.9788   21.4751 C   0  0  0  0  0  0  0  0  0  0  0  0
  -25.6157  -28.2532   21.3206 C   0  0  0  0  0  0  0  0  0  0  0  0
  -28.1662  -18.9362   15.2139 C   0  0  0  0  0  0  0  0  0  0  0  0
  -28.7335  -18.1884   17.4401 C   0  0  0  0  0  0  0  0  0  0  0  0
  -19.7272  -14.9163   21.4286 C   0  0  0  0  0  0  0  0  0  0  0  0
  -26.5620  -26.3871   20.0828 C   0  0  0  0  0  0  0  0  0  0  0  0
  -17.5891  -14.4567   22.2886 C   0  0  0  0  0  0  0  0  0  0  0  0
  -15.8979  -12.7646   23.7236 C   0  0  0  0  0  0  0  0  0  0  0  0
  -16.9533  -14.9193   23.4407 C   0  0  0  0  0  0  0  0  0  0  0  0
  -23.7646  -13.7376   20.9729 C   0  0  0  0  0  0  0  0  0  0  0  0
  -25.6100  -12.5981   20.6112 C   0  0  0  0  0  0  0  0  0  0  0  0
  -30.5542  -21.4106   16.7469 C   0  0  0  0  0  0  0  0  0  0  0  0
  -23.5184  -11.2542   20.3511 C   0  0  0  0  0  0  0  0  0  0  0  0
  -22.5165  -29.6231   21.7033 C   0  0  0  0  0  0  0  0  0  0  0  0
  -24.7218  -31.4366   23.2429 C   0  0  0  0  0  0  0  0  0  0  0  0
  -28.0013  -31.9684   24.0233 C   0  0  0  0  0  0  0  0  0  0  0  0
  -29.2271  -17.2728   19.7345 C   0  0  0  0  0  0  0  0  0  0  0  0
  -17.6514  -31.0856   22.2027 C   0  0  0  0  0  0  0  0  0  0  0  0
  -23.7805  -27.8766   23.0102 C   0  0  0  0  0  0  0  0  0  0  0  0
  -25.6060  -29.7319   21.6066 C   0  0  0  0  0  0  0  0  0  0  0  0
  -19.0031  -31.7924   22.1419 C   0  0  0  0  0  0  0  0  0  0  0  0
  -29.1410  -15.1539   22.5946 C   0  0  0  0  0  0  0  0  0  0  0  0
  -19.8194  -31.2823   20.9585 C   0  0  0  0  0  0  0  0  0  0  0  0
  -27.7988  -14.4295   22.4688 C   0  0  0  0  0  0  0  0  0  0  0  0
  -29.8938  -24.6106   18.2903 C   0  0  0  0  0  0  0  0  0  0  0  0
  -29.0496  -16.6035   22.1211 C   0  0  0  0  0  0  0  0  0  0  0  0
  -30.8359  -23.7464   17.4586 C   0  0  0  0  0  0  0  0  0  0  0  0
  -27.1520  -16.0581   20.6477 C   0  0  0  0  0  0  0  0  0  0  0  0
  -28.6377  -22.6628   17.6531 C   0  0  0  0  0  0  0  0  0  0  0  0
  -20.1095  -29.7826   21.0938 C   0  0  1  0  0  0  0  0  0  0  0  0
  -23.4521  -29.3577   22.8487 C   0  0  1  0  0  0  0  0  0  0  0  0
  -27.2100  -14.5759   21.0520 C   0  0  2  0  0  0  0  0  0  0  0  0
  -28.4815  -24.1820   17.8489 C   0  0  2  0  0  0  0  0  0  0  0  0
  -28.0875  -24.8613   16.5275 C   0  0  0  0  0  0  0  0  0  0  0  0
  -29.4985  -33.5527   25.2666 C   0  0  0  0  0  0  0  0  0  0  0  0
  -24.4495  -33.4656   20.9805 C   0  0  0  0  0  0  0  0  0  0  0  0
  -26.5875  -34.5126   21.7556 C   0  0  0  0  0  0  0  0  0  0  0  0
  -24.6034  -34.4670   23.2669 C   0  0  0  0  0  0  0  0  0  0  0  0
  -28.9327  -29.8361   25.8521 C   0  0  0  0  0  0  0  0  0  0  0  0
  -27.4383  -24.5074   18.9188 C   0  0  0  0  0  0  0  0  0  1  0  0
  -25.8651  -32.3237   22.8129 C   0  0  1  0  0  0  0  0  0  0  0  0
  -28.6864  -32.2692   25.3441 C   0  0  2  0  0  0  0  0  0  0  0  0
  -27.4236  -18.7398   13.9353 C   0  0  0  0  0  0  0  0  0  0  0  0
  -25.3755  -33.6647   22.1969 C   0  0  0  0  0  0  0  0  0  0  0  0
  -24.7468  -14.6233   21.1599 N   0  0  0  0  0  0  0  0  0  0  0  0
  -25.8567  -13.9003   20.9329 N   0  0  0  0  0  0  0  0  0  0  0  0
  -30.0487  -22.5226   17.2487 N   0  0  0  0  0  0  0  0  0  0  0  0
  -24.6433  -30.1798   22.6264 N   0  0  0  0  0  0  0  0  0  0  0  0
  -28.4872  -16.6639   20.7702 N   0  0  0  0  0  0  0  0  0  0  0  0
  -26.6125  -11.7320   20.3517 N   0  0  0  0  0  0  0  0  0  0  0  0
  -22.1187  -11.2871   20.4141 N   0  0  0  0  0  0  0  0  0  0  0  0
  -28.6055  -17.2418   18.4867 N   0  0  0  0  0  0  0  0  0  0  0  0
  -21.1787  -29.5583   22.0430 N   0  0  0  0  0  0  0  0  0  0  0  0
  -26.7220  -32.4812   23.9831 N   0  0  0  0  0  0  0  0  0  0  0  0
  -31.8348  -21.3338   16.3968 N   0  3  0  0  0  0  0  0  0  0  0  0
  -29.6030  -31.1550   25.7177 N   0  3  0  0  0  0  0  0  0  0  0  0
  -24.0952  -10.1759   20.0716 O   0  0  0  0  0  0  0  0  0  0  0  0
  -22.9745  -29.8700   20.5938 O   0  0  0  0  0  0  0  0  0  0  0  0
  -23.9318  -31.8410   24.0996 O   0  0  0  0  0  0  0  0  0  0  0  0
  -28.5477  -31.3444   23.1163 O   0  0  0  0  0  0  0  0  0  0  0  0
  -30.3428  -17.7601   19.9340 O   0  0  0  0  0  0  0  0  0  0  0  0
  -18.4282  -15.2956   21.5747 O   0  0  0  0  0  0  0  0  0  0  0  0
  -27.4445  -25.9137   19.1614 O   0  0  0  0  0  0  0  0  0  1  0  0
  -15.0847  -11.9525   24.4116 F   0  0  0  0  0  0  0  0  0  0  0  0
  -17.1502  -16.1760   23.8626 F   0  0  0  0  0  0  0  0  0  0  0  0
  -27.6441  -19.7268   13.0172 F   0  0  0  0  0  0  0  0  0  0  0  0
  -27.7410  -17.5776   13.2918 F   0  0  0  0  0  0  0  0  0  0  0  0
  -26.0711  -18.7018   14.1143 F   0  0  0  0  0  0  0  0  0  0  0  0
  1  2  1  0  0  0  0
  1  5  2  0  0  0  0
  2  6  2  0  0  0  0
  3  8  2  0  0  0  0
  3 18  1  0  0  0  0
  4  9  1  0  0  0  0
  4 18  2  0  0  0  0
  5 21  1  0  0  0  0
  6 23  1  0  0  0  0
  7 10  2  0  0  0  0
  7 22  1  0  0  0  0
  8 27  1  0  0  0  0
  9 27  2  0  0  0  0
 10 28  1  0  0  0  0
 11 12  2  0  0  0  0
 11 29  1  0  0  0  0
 12 30  1  0  0  0  0
 13 19  2  0  0  0  0
 13 25  1  0  0  0  0
 14 19  1  0  0  0  0
 14 26  2  0  0  0  0
 15 24  1  0  0  0  0
 15 28  2  0  0  0  0
 16 25  2  0  0  0  0
 16 26  1  0  0  0  0
 17 30  2  0  0  0  0
 17 31  1  0  0  0  0
 18 32  1  0  0  0  0
 19 34  1  0  0  0  0
 20 32  1  0  0  0  0
 20 33  2  0  0  0  0
 20 35  1  0  0  0  0
 21 23  2  0  0  0  0
 21 40  1  0  0  0  0
 22 24  2  0  0  0  0
 22 41  1  0  0  0  0
 23 52  1  0  0  0  0
 24 42  1  0  0  0  0
 25 65  1  0  0  0  0
 26 74  1  0  0  0  0
 27 84  1  0  0  0  0
 28 85  1  0  0  0  0
 29 31  2  0  0  0  0
 29 84  1  0  0  0  0
 30 86  1  0  0  0  0
 31 87  1  0  0  0  0
 32 67  2  0  0  0  0
 33 68  1  0  0  0  0
 33 72  1  0  0  0  0
 34 69  1  0  0  0  0
 34 77  2  0  0  0  0
 35 73  1  0  0  0  0
 35 79  2  0  0  0  0
 36 53  1  0  0  0  0
 36 75  1  0  0  0  0
 36 80  2  0  0  0  0
 37 63  1  0  0  0  0
 37 70  1  0  0  0  0
 37 81  2  0  0  0  0
 38 64  1  0  0  0  0
 38 76  1  0  0  0  0
 38 82  2  0  0  0  0
 39 71  1  0  0  0  0
 39 74  1  0  0  0  0
 39 83  2  0  0  0  0
 40 43  1  0  0  0  0
 41 53  1  0  0  0  0
 42 70  1  0  0  0  0
 43 45  1  0  0  0  0
 44 46  1  0  0  0  0
 44 48  1  0  0  0  0
 45 52  1  0  0  0  0
 46 54  1  0  0  0  0
 47 49  1  0  0  0  0
 47 55  1  0  0  0  0
 48 71  1  0  0  0  0
 49 69  1  0  0  0  0
 50 54  1  0  0  0  0
 50 71  1  0  0  0  0
 51 55  1  0  0  0  0
 51 69  1  0  0  0  0
 52 75  1  0  0  0  0
 53 70  1  0  0  0  0
 54 68  1  0  0  0  0
 55 56  1  0  0  0  0
 55 62  1  0  0  0  0
 57 64  1  0  0  0  0
 58 66  1  0  0  0  0
 59 66  1  0  0  0  0
 60 66  1  0  0  0  0
 61 78  1  0  0  0  0
 62 85  1  0  0  0  0
 63 66  1  0  0  0  0
 63 76  1  0  0  0  0
 64 78  1  0  0  0  0
 65 88  1  0  0  0  0
 65 89  1  0  0  0  0
 65 90  1  0  0  0  0
 67 68  1  0  0  0  0
M  CHG  2  77   1  78   1
M  ISO  4  39 100  62 101  74 100  85 101
M  END
> <Batch ID>
0150

> <Smiles>
CNC(C)C(=O)NC(C(=O)N1Cc2cc([101O:1][101CH2:1]C3(C)CCN(C(=N)c4cc([100NH:0][100C:0](=O)N5CCCC(n6nc(-c7ccc(Oc8ccc(F)cc8F)cc7)c(C(N)=O)c6N)C5)cc(C(F)(F)F)c4)C3)ccc2CC1C(=O)NC1CCCc2ccccc21)C(C)(C)C

> <Shape>
0.252

> <Color>
0.077

> <Negative vol penalty>
0.000

$$$$

  -OEChem-04052303213D

 88 97  0     1  0  0  0  0  0999 V2000
  -27.2888  -34.0301   24.9121 C   0  0  0  0  0  0  0  0  0  0  0  0
  -27.5767  -32.7622   24.4173 C   0  0  0  0  0  0  0  0  0  0  0  0
  -23.4214  -10.4043   23.3023 C   0  0  0  0  0  0  0  0  0  0  0  0
  -24.0927  -10.4751   20.9825 C   0  0  0  0  0  0  0  0  0  0  0  0
  -25.9963  -34.3343   25.3373 C   0  0  0  0  0  0  0  0  0  0  0  0
  -26.5723  -31.7973   24.3482 C   0  0  0  0  0  0  0  0  0  0  0  0
  -26.5826  -29.2939   19.9462 C   0  0  0  0  0  0  0  0  0  0  0  0
  -22.5941   -9.3149   23.0296 C   0  0  0  0  0  0  0  0  0  0  0  0
  -23.2654   -9.3857   20.7098 C   0  0  0  0  0  0  0  0  0  0  0  0
  -27.5425  -28.2960   19.7835 C   0  0  0  0  0  0  0  0  0  0  0  0
  -22.9354   -5.9839   22.5601 C   0  0  0  0  0  0  0  0  0  0  0  0
  -22.9697   -4.9063   23.4451 C   0  0  0  0  0  0  0  0  0  0  0  0
  -31.0412  -19.7775   18.6808 C   0  0  0  0  0  0  0  0  0  0  0  0
  -28.8147  -19.9072   19.6096 C   0  0  0  0  0  0  0  0  0  0  0  0
  -25.8842  -26.6239   20.3067 C   0  0  0  0  0  0  0  0  0  0  0  0
  -30.2133  -17.9959   20.0871 C   0  0  0  0  0  0  0  0  0  0  0  0
  -20.6167   -5.2075   23.9030 C   0  0  0  0  0  0  0  0  0  0  0  0
  -24.1707  -10.9845   22.2787 C   0  0  0  0  0  0  0  0  0  0  0  0
  -29.8329  -20.4578   18.8312 C   0  0  0  0  0  0  0  0  0  0  0  0
  -26.3773  -12.0747   22.9496 C   0  0  0  0  0  0  0  0  0  0  0  0
  -24.9733  -33.3757   25.2645 C   0  0  0  0  0  0  0  0  0  0  0  0
  -25.2666  -28.9645   20.3017 C   0  0  0  0  0  0  0  0  0  0  0  0
  -25.2652  -32.0885   24.7741 C   0  0  0  0  0  0  0  0  0  0  0  0
  -24.9089  -27.6194   20.4708 C   0  0  0  0  0  0  0  0  0  0  0  0
  -31.2314  -18.5465   19.3087 C   0  0  0  0  0  0  0  0  0  0  0  0
  -29.0049  -18.6763   20.2375 C   0  0  0  0  0  0  0  0  0  0  0  0
  -22.5161   -8.8056   21.7334 C   0  0  0  0  0  0  0  0  0  0  0  0
  -27.1941  -26.9610   19.9665 C   0  0  0  0  0  0  0  0  0  0  0  0
  -21.7417   -6.6733   22.3466 C   0  0  0  0  0  0  0  0  0  0  0  0
  -21.8104   -4.5181   24.1165 C   0  0  0  0  0  0  0  0  0  0  0  0
  -20.5824   -6.2851   23.0181 C   0  0  0  0  0  0  0  0  0  0  0  0
  -25.0251  -12.1102   22.5596 C   0  0  0  0  0  0  0  0  0  0  0  0
  -26.7287  -13.3949   23.0907 C   0  0  0  0  0  0  0  0  0  0  0  0
  -29.8258  -24.2071   18.2916 C   0  0  0  0  0  0  0  0  0  0  0  0
  -29.6317  -21.7584   18.1677 C   0  0  0  0  0  0  0  0  0  0  0  0
  -27.2387  -10.9489   23.1649 C   0  0  0  0  0  0  0  0  0  0  0  0
  -23.3831  -29.6128   22.7787 C   0  0  0  0  0  0  0  0  0  0  0  0
  -21.1486  -28.1021   20.9768 C   0  0  0  0  0  0  0  0  0  0  0  0
  -20.4579  -25.8716   18.4879 C   0  0  0  0  0  0  0  0  0  0  0  0
  -26.7116  -18.6603   21.2801 C   0  0  0  0  0  0  0  0  0  0  0  0
  -23.6026  -33.7362   25.7799 C   0  0  0  0  0  0  0  0  0  0  0  0
  -24.2365  -30.0509   20.4473 C   0  0  0  0  0  0  0  0  0  0  0  0
  -23.5049  -27.2117   20.8329 C   0  0  0  0  0  0  0  0  0  0  0  0
  -22.5081  -32.7744   25.3244 C   0  0  0  0  0  0  0  0  0  0  0  0
  -23.8758  -17.5758   23.1400 C   0  0  0  0  0  0  0  0  0  0  0  0
  -22.9572  -31.3284   25.5095 C   0  0  0  0  0  0  0  0  0  0  0  0
  -24.0332  -16.0543   23.1868 C   0  0  0  0  0  0  0  0  0  0  0  0
  -30.2767  -24.3021   20.6158 C   0  0  0  0  0  0  0  0  0  0  0  0
  -24.3358  -18.1526   21.8023 C   0  0  0  0  0  0  0  0  0  0  0  0
  -30.5369  -22.8715   20.1553 C   0  0  0  0  0  0  0  0  0  0  0  0
  -25.8486  -16.2425   21.4387 C   0  0  0  0  0  0  0  0  0  0  0  0
  -24.1969  -31.0227   24.6604 C   0  0  1  0  0  0  0  0  0  0  0  0
  -23.0507  -29.6376   21.3136 C   0  0  1  0  0  0  0  0  0  0  0  0
  -25.4588  -15.6227   22.7906 C   0  0  2  0  0  0  0  0  0  0  0  0
  -30.3425  -25.1699   19.3428 C   0  0  1  0  0  0  0  0  0  0  0  0
  -31.7780  -25.5669   18.9957 C   0  0  0  0  0  0  0  0  0  0  0  0
  -18.5370  -24.8172   17.2648 C   0  0  0  0  0  0  0  0  0  0  0  0
  -20.6140  -26.2966   23.3778 C   0  0  0  0  0  0  0  0  0  0  0  0
  -19.4298  -24.7170   21.8381 C   0  0  0  0  0  0  0  0  0  0  0  0
  -18.5637  -27.0354   22.1510 C   0  0  0  0  0  0  0  0  0  0  0  0
  -21.3441  -26.9896   15.8949 C   0  0  0  0  0  0  0  0  0  0  0  0
  -29.4480  -26.4001   19.4556 C   0  0  0  0  0  0  0  0  0  1  0  0
  -20.6854  -26.6734   20.8245 C   0  0  1  0  0  0  0  0  0  0  0  0
  -19.5400  -25.9602   17.2820 C   0  0  2  0  0  0  0  0  0  0  0  0
  -19.8502  -26.1881   22.0429 C   0  0  0  0  0  0  0  0  0  0  0  0
  -24.5498  -13.3544   22.4595 N   0  0  0  0  0  0  0  0  0  0  0  0
  -25.6092  -14.1130   22.7888 N   0  0  0  0  0  0  0  0  0  0  0  0
  -29.9614  -22.8690   18.8031 N   0  0  0  0  0  0  0  0  0  0  0  0
  -22.5350  -28.3108   20.9702 N   0  0  0  0  0  0  0  0  0  0  0  0
  -25.6958  -17.7048   21.4948 N   0  0  0  0  0  0  0  0  0  0  0  0
  -32.4530  -17.8583   19.1562 N   0  0  0  0  0  0  0  0  0  0  0  0
  -27.8831  -14.0000   23.4425 N   0  0  0  0  0  0  0  0  0  0  0  0
  -26.7165   -9.6622   22.9753 N   0  0  0  0  0  0  0  0  0  0  0  0
  -27.9707  -18.1165   21.0280 N   0  0  0  0  0  0  0  0  0  0  0  0
  -23.8249  -30.8240   23.2760 N   0  0  0  0  0  0  0  0  0  0  0  0
  -19.9775  -26.6073   19.5505 N   0  0  0  0  0  0  0  0  0  0  0  0
  -29.1234  -21.7936   16.9395 N   0  3  0  0  0  0  0  0  0  0  0  0
  -20.3338  -25.9079   16.0219 N   0  3  0  0  0  0  0  0  0  0  0  0
  -29.3962  -24.4595   17.1798 O   0  0  0  0  0  0  0  0  0  0  0  0
  -28.4313  -11.0797   23.5311 O   0  0  0  0  0  0  0  0  0  0  0  0
  -23.2473  -28.5722   23.4115 O   0  0  0  0  0  0  0  0  0  0  0  0
  -20.3110  -29.0006   21.0900 O   0  0  0  0  0  0  0  0  0  0  0  0
  -21.4952  -25.2124   18.4884 O   0  0  0  0  0  0  0  0  0  0  0  0
  -26.4871  -19.8717   21.3440 O   0  0  0  0  0  0  0  0  0  0  0  0
  -21.7091   -7.7424   21.4671 O   0  0  0  0  0  0  0  0  0  0  0  0
  -28.1292  -25.9850   19.8090 O   0  0  0  0  0  0  0  0  0  1  0  0
  -21.8431   -3.4823   24.9652 F   0  0  0  0  0  0  0  0  0  0  0  0
  -19.4324   -6.9428   22.8162 F   0  0  0  0  0  0  0  0  0  0  0  0
  1  2  1  0  0  0  0
  1  5  2  0  0  0  0
  2  6  2  0  0  0  0
  3  8  2  0  0  0  0
  3 18  1  0  0  0  0
  4  9  1  0  0  0  0
  4 18  2  0  0  0  0
  5 21  1  0  0  0  0
  6 23  1  0  0  0  0
  7 10  2  0  0  0  0
  7 22  1  0  0  0  0
  8 27  1  0  0  0  0
  9 27  2  0  0  0  0
 10 28  1  0  0  0  0
 11 12  2  0  0  0  0
 11 29  1  0  0  0  0
 12 30  1  0  0  0  0
 13 19  1  0  0  0  0
 13 25  2  0  0  0  0
 14 19  2  0  0  0  0
 14 26  1  0  0  0  0
 15 24  1  0  0  0  0
 15 28  2  0  0  0  0
 16 25  1  0  0  0  0
 16 26  2  0  0  0  0
 17 30  2  0  0  0  0
 17 31  1  0  0  0  0
 18 32  1  0  0  0  0
 19 35  1  0  0  0  0
 20 32  1  0  0  0  0
 20 33  2  0  0  0  0
 20 36  1  0  0  0  0
 21 23  2  0  0  0  0
 21 41  1  0  0  0  0
 22 24  2  0  0  0  0
 22 42  1  0  0  0  0
 23 52  1  0  0  0  0
 24 43  1  0  0  0  0
 25 71  1  0  0  0  0
 26 74  1  0  0  0  0
 27 85  1  0  0  0  0
 28 86  1  0  0  0  0
 29 31  2  0  0  0  0
 29 85  1  0  0  0  0
 30 87  1  0  0  0  0
 31 88  1  0  0  0  0
 32 66  2  0  0  0  0
 33 67  1  0  0  0  0
 33 72  1  0  0  0  0
 34 55  1  0  0  0  0
 34 68  1  0  0  0  0
 34 79  2  0  0  0  0
 35 68  1  0  0  0  0
 35 77  2  0  0  0  0
 36 73  1  0  0  0  0
 36 80  2  0  0  0  0
 37 53  1  0  0  0  0
 37 75  1  0  0  0  0
 37 81  2  0  0  0  0
 38 63  1  0  0  0  0
 38 69  1  0  0  0  0
 38 82  2  0  0  0  0
 39 64  1  0  0  0  0
 39 76  1  0  0  0  0
 39 83  2  0  0  0  0
 40 70  1  0  0  0  0
 40 74  1  0  0  0  0
 40 84  2  0  0  0  0
 41 44  1  0  0  0  0
 42 53  1  0  0  0  0
 43 69  1  0  0  0  0
 44 46  1  0  0  0  0
 45 47  1  0  0  0  0
 45 49  1  0  0  0  0
 46 52  1  0  0  0  0
 47 54  1  0  0  0  0
 48 50  1  0  0  0  0
 48 55  1  0  0  0  0
 49 70  1  0  0  0  0
 50 68  1  0  0  0  0
 51 54  1  0  0  0  0
 51 70  1  0  0  0  0
 52 75  1  0  0  0  0
 53 69  1  0  0  0  0
 54 67  1  0  0  0  0
 55 56  1  0  0  0  0
 55 62  1  0  0  0  0
 57 64  1  0  0  0  0
 58 65  1  0  0  0  0
 59 65  1  0  0  0  0
 60 65  1  0  0  0  0
 61 78  1  0  0  0  0
 62 86  1  0  0  0  0
 63 65  1  0  0  0  0
 63 76  1  0  0  0  0
 64 78  1  0  0  0  0
 66 67  1  0  0  0  0
M  CHG  2  77   1  78   1
M  ISO  4  40 100  62 101  74 100  86 101
M  END
> <Batch ID>
0150

> <Smiles>
CNC(C)C(=O)NC(C(=O)N1Cc2cc([101O:1][101CH2:1]C3(C)CCN(C(=N)c4cc(N)cc([100NH:0][100C:0](=O)N5CCCC(n6nc(-c7ccc(Oc8ccc(F)cc8F)cc7)c(C(N)=O)c6N)C5)c4)C3=O)ccc2CC1C(=O)NC1CCCc2ccccc21)C(C)(C)C

> <Shape>
0.298

> <Color>
0.071

> <Negative vol penalty>
0.000

$$$$

  -OEChem-04052303213D

 85 94  0     1  0  0  0  0  0999 V2000
  -28.7217  -32.1661   26.2332 C   0  0  0  0  0  0  0  0  0  0  0  0
  -28.6070  -31.4597   25.0412 C   0  0  0  0  0  0  0  0  0  0  0  0
  -33.1825  -18.7105   19.0131 C   0  0  0  0  0  0  0  0  0  0  0  0
  -24.3114  -15.4478   24.3176 C   0  0  0  0  0  0  0  0  0  0  0  0
  -25.3284  -13.3177   24.8325 C   0  0  0  0  0  0  0  0  0  0  0  0
  -27.6136  -32.3041   27.0665 C   0  0  0  0  0  0  0  0  0  0  0  0
  -27.3814  -30.9014   24.6763 C   0  0  0  0  0  0  0  0  0  0  0  0
  -27.0812  -28.9076   20.1888 C   0  0  0  0  0  0  0  0  0  0  0  0
  -32.5463  -19.9366   19.2070 C   0  0  0  0  0  0  0  0  0  0  0  0
  -32.4366  -17.5319   19.0006 C   0  0  0  0  0  0  0  0  0  0  0  0
  -24.0337  -15.6424   25.6706 C   0  0  0  0  0  0  0  0  0  0  0  0
  -25.0507  -13.5122   26.1856 C   0  0  0  0  0  0  0  0  0  0  0  0
  -27.7048  -27.7063   19.8545 C   0  0  0  0  0  0  0  0  0  0  0  0
  -22.3829  -13.2436   28.2451 C   0  0  0  0  0  0  0  0  0  0  0  0
  -21.8470  -12.1708   28.9574 C   0  0  0  0  0  0  0  0  0  0  0  0
  -25.5798  -26.5725   19.9897 C   0  0  0  0  0  0  0  0  0  0  0  0
  -30.4181  -18.8054   19.3762 C   0  0  0  0  0  0  0  0  0  0  0  0
  -23.7502  -12.2082   30.4454 C   0  0  0  0  0  0  0  0  0  0  0  0
  -24.9587  -14.2855   23.8985 C   0  0  0  0  0  0  0  0  0  0  0  0
  -24.3182  -14.0210   21.4434 C   0  0  0  0  0  0  0  0  0  0  0  0
  -26.3774  -31.7362   26.7169 C   0  0  0  0  0  0  0  0  0  0  0  0
  -25.7016  -28.9484   20.4371 C   0  0  0  0  0  0  0  0  0  0  0  0
  -26.2454  -31.0502   25.4924 C   0  0  0  0  0  0  0  0  0  0  0  0
  -24.9407  -27.7761   20.3244 C   0  0  0  0  0  0  0  0  0  0  0  0
  -31.1641  -19.9840   19.3885 C   0  0  0  0  0  0  0  0  0  0  0  0
  -31.0544  -17.5793   19.1822 C   0  0  0  0  0  0  0  0  0  0  0  0
  -24.4034  -14.6746   26.6046 C   0  0  0  0  0  0  0  0  0  0  0  0
  -26.9546  -26.5380   19.7577 C   0  0  0  0  0  0  0  0  0  0  0  0
  -23.6025  -13.7987   28.6328 C   0  0  0  0  0  0  0  0  0  0  0  0
  -22.5306  -11.6531   30.0576 C   0  0  0  0  0  0  0  0  0  0  0  0
  -24.2861  -13.2810   29.7329 C   0  0  0  0  0  0  0  0  0  0  0  0
  -25.2453  -14.0836   22.5010 C   0  0  0  0  0  0  0  0  0  0  0  0
  -25.0875  -13.8170   20.3240 C   0  0  0  0  0  0  0  0  0  0  0  0
  -22.8894  -14.1370   21.4706 C   0  0  0  0  0  0  0  0  0  0  0  0
  -23.8948  -29.6918   22.9444 C   0  0  0  0  0  0  0  0  0  0  0  0
  -21.4733  -29.3124   20.8197 C   0  0  0  0  0  0  0  0  0  0  0  0
  -20.3591  -27.9034   17.9179 C   0  0  0  0  0  0  0  0  0  0  0  0
  -30.7732  -15.0831   18.9919 C   0  0  0  0  0  0  0  0  0  0  0  0
  -25.2087  -31.9229   27.6522 C   0  0  0  0  0  0  0  0  0  0  0  0
  -25.0395  -30.2572   20.7705 C   0  0  0  0  0  0  0  0  0  0  0  0
  -23.4533  -27.7703   20.5614 C   0  0  0  0  0  0  0  0  0  0  0  0
  -24.0806  -30.9279   27.3998 C   0  0  0  0  0  0  0  0  0  0  0  0
  -29.2373  -11.8714   18.9357 C   0  0  0  0  0  0  0  0  0  0  0  0
  -23.7359  -30.8977   25.9184 C   0  0  0  0  0  0  0  0  0  0  0  0
  -27.9519  -12.0701   19.7422 C   0  0  0  0  0  0  0  0  0  0  0  0
  -30.6423  -23.4948   20.5140 C   0  0  0  0  0  0  0  0  0  0  0  0
  -28.8404  -22.8714   18.8806 C   0  0  0  0  0  0  0  0  0  0  0  0
  -30.3981  -12.6819   19.5098 C   0  0  0  0  0  0  0  0  0  0  0  0
  -30.9343  -22.0128   20.7454 C   0  0  0  0  0  0  0  0  0  0  0  0
  -29.1474  -21.3920   19.1154 C   0  0  0  0  0  0  0  0  0  0  0  0
  -28.8391  -14.3113   20.5016 C   0  0  0  0  0  0  0  0  0  0  0  0
  -24.9302  -30.4081   25.0896 C   0  0  1  0  0  0  0  0  0  0  0  0
  -23.7139  -30.0860   21.5058 C   0  0  1  0  0  0  0  0  0  0  0  0
  -27.6256  -13.5655   19.9230 C   0  0  2  0  0  0  0  0  0  0  0  0
  -29.1919  -23.7287   20.0949 C   0  0  0  0  0  0  0  0  0  0  0  0
  -18.3231  -27.7456   16.4595 C   0  0  0  0  0  0  0  0  0  0  0  0
  -20.2118  -27.3600   22.7963 C   0  0  0  0  0  0  0  0  0  0  0  0
  -18.7437  -26.5395   20.9418 C   0  0  0  0  0  0  0  0  0  0  0  0
  -18.5953  -28.9146   21.6898 C   0  0  0  0  0  0  0  0  0  0  0  0
  -21.7633  -29.1399   15.6248 C   0  0  0  0  0  0  0  0  0  0  0  0
  -28.9224  -25.2043   19.8288 C   0  0  0  0  0  0  0  0  0  1  0  0
  -20.6148  -28.1538   20.3728 C   0  0  1  0  0  0  0  0  0  0  0  0
  -19.6192  -28.4933   16.7309 C   0  0  2  0  0  0  0  0  0  0  0  0
  -19.5697  -27.7414   21.4475 C   0  0  0  0  0  0  0  0  0  0  0  0
  -26.5071  -13.9316   22.0902 N   0  0  0  0  0  0  0  0  0  0  0  0
  -26.3783  -13.7713   20.7621 N   0  0  0  0  0  0  0  0  0  0  0  0
  -30.5255  -21.2151   19.5826 N   0  0  0  0  0  0  0  0  0  0  0  0
  -22.8530  -29.0736   20.8908 N   0  0  0  0  0  0  0  0  0  0  0  0
  -30.0174  -14.0892   19.6490 N   0  0  0  0  0  0  0  0  0  0  0  0
  -24.7789  -13.6740   19.0176 N   0  0  0  0  0  0  0  0  0  0  0  0
  -22.1276  -12.9727   21.6394 N   0  0  0  0  0  0  0  0  0  0  0  0
  -30.2973  -16.3816   19.1707 N   0  0  0  0  0  0  0  0  0  0  0  0
  -24.6372  -30.5916   23.6852 N   0  0  0  0  0  0  0  0  0  0  0  0
  -20.0335  -28.5462   19.0935 N   0  0  0  0  0  0  0  0  0  0  0  0
  -20.4662  -28.4253   15.5067 N   0  3  0  0  0  0  0  0  0  0  0  0
  -22.3050  -15.2383   21.3322 O   0  0  0  0  0  0  0  0  0  0  0  0
  -23.3965  -28.6493   23.3525 O   0  0  0  0  0  0  0  0  0  0  0  0
  -20.9400  -30.3917   21.0888 O   0  0  0  0  0  0  0  0  0  0  0  0
  -21.1445  -26.9638   17.8133 O   0  0  0  0  0  0  0  0  0  0  0  0
  -31.7532  -14.8004   18.2979 O   0  0  0  0  0  0  0  0  0  0  0  0
  -24.1328  -14.8642   27.9250 O   0  0  0  0  0  0  0  0  0  0  0  0
  -27.5610  -25.3640   19.4322 O   0  0  0  0  0  0  0  0  0  1  0  0
  -22.0151  -10.6239   30.7426 F   0  0  0  0  0  0  0  0  0  0  0  0
  -25.4575  -13.8108   30.1109 F   0  0  0  0  0  0  0  0  0  0  0  0
  -28.3854  -23.3479   21.1296 F   0  0  0  0  0  0  0  0  0  0  0  0
  1  2  1  0  0  0  0
  1  6  2  0  0  0  0
  2  7  2  0  0  0  0
  3  9  2  0  0  0  0
  3 10  1  0  0  0  0
  4 11  2  0  0  0  0
  4 19  1  0  0  0  0
  5 12  1  0  0  0  0
  5 19  2  0  0  0  0
  6 21  1  0  0  0  0
  7 23  1  0  0  0  0
  8 13  2  0  0  0  0
  8 22  1  0  0  0  0
  9 25  1  0  0  0  0
 10 26  2  0  0  0  0
 11 27  1  0  0  0  0
 12 27  2  0  0  0  0
 13 28  1  0  0  0  0
 14 15  2  0  0  0  0
 14 29  1  0  0  0  0
 15 30  1  0  0  0  0
 16 24  1  0  0  0  0
 16 28  2  0  0  0  0
 17 25  2  0  0  0  0
 17 26  1  0  0  0  0
 18 30  2  0  0  0  0
 18 31  1  0  0  0  0
 19 32  1  0  0  0  0
 20 32  1  0  0  0  0
 20 33  2  0  0  0  0
 20 34  1  0  0  0  0
 21 23  2  0  0  0  0
 21 39  1  0  0  0  0
 22 24  2  0  0  0  0
 22 40  1  0  0  0  0
 23 52  1  0  0  0  0
 24 41  1  0  0  0  0
 25 67  1  0  0  0  0
 26 72  1  0  0  0  0
 27 81  1  0  0  0  0
 28 82  1  0  0  0  0
 29 31  2  0  0  0  0
 29 81  1  0  0  0  0
 30 83  1  0  0  0  0
 31 84  1  0  0  0  0
 32 65  2  0  0  0  0
 33 66  1  0  0  0  0
 33 70  1  0  0  0  0
 34 71  1  0  0  0  0
 34 76  2  0  0  0  0
 35 53  1  0  0  0  0
 35 73  1  0  0  0  0
 35 77  2  0  0  0  0
 36 62  1  0  0  0  0
 36 68  1  0  0  0  0
 36 78  2  0  0  0  0
 37 63  1  0  0  0  0
 37 74  1  0  0  0  0
 37 79  2  0  0  0  0
 38 69  1  0  0  0  0
 38 72  1  0  0  0  0
 38 80  2  0  0  0  0
 39 42  1  0  0  0  0
 40 53  1  0  0  0  0
 41 68  1  0  0  0  0
 42 44  1  0  0  0  0
 43 45  1  0  0  0  0
 43 48  1  0  0  0  0
 44 52  1  0  0  0  0
 45 54  1  0  0  0  0
 46 49  1  0  0  0  0
 46 55  1  0  0  0  0
 47 50  1  0  0  0  0
 47 55  1  0  0  0  0
 48 69  1  0  0  0  0
 49 67  1  0  0  0  0
 50 67  1  0  0  0  0
 51 54  1  0  0  0  0
 51 69  1  0  0  0  0
 52 73  1  0  0  0  0
 53 68  1  0  0  0  0
 54 66  1  0  0  0  0
 55 61  1  0  0  0  0
 55 85  1  0  0  0  0
 56 63  1  0  0  0  0
 57 64  1  0  0  0  0
 58 64  1  0  0  0  0
 59 64  1  0  0  0  0
 60 75  1  0  0  0  0
 61 82  1  0  0  0  0
 62 64  1  0  0  0  0
 62 74  1  0  0  0  0
 63 75  1  0  0  0  0
 65 66  1  0  0  0  0
M  CHG  1  75   1
M  ISO  4  38 100  61 101  72 100  82 101
M  END
> <Batch ID>
0150

> <Smiles>
CNC(C)C(=O)NC(C(=O)N1Cc2cc([101O:1][101CH2:1]C3(F)CCN(c4cccc([100NH:0][100C:0](=O)N5CCCC(n6nc(-c7ccc(Oc8ccc(F)cc8F)cc7)c(C(N)=O)c6N)C5)c4)CC3)ccc2CC1C(=O)NC1CCCc2ccccc21)C(C)(C)C

> <Shape>
0.264

> <Color>
0.084

> <Negative vol penalty>
0.000

$$$$
