
  -OEChem-04052303243D

 83 92  0     1  0  0  0  0  0999 V2000
  -30.7586  -32.8933   24.3657 C   0  0  0  0  0  0  0  0  0  0  0  0
  -30.2442  -31.6585   23.9834 C   0  0  0  0  0  0  0  0  0  0  0  0
  -22.8664  -10.3161   20.5884 C   0  0  0  0  0  0  0  0  0  0  0  0
  -24.5482   -9.1379   21.8613 C   0  0  0  0  0  0  0  0  0  0  0  0
  -29.9018  -33.8914   24.8278 C   0  0  0  0  0  0  0  0  0  0  0  0
  -28.8725  -31.4208   24.0641 C   0  0  0  0  0  0  0  0  0  0  0  0
  -27.0538  -29.1192   19.9362 C   0  0  0  0  0  0  0  0  0  0  0  0
  -22.0491   -9.1862   20.6224 C   0  0  0  0  0  0  0  0  0  0  0  0
  -23.7310   -8.0080   21.8954 C   0  0  0  0  0  0  0  0  0  0  0  0
  -27.2774  -27.7479   19.8211 C   0  0  0  0  0  0  0  0  0  0  0  0
  -21.0323   -6.9392   23.6260 C   0  0  0  0  0  0  0  0  0  0  0  0
  -20.8985   -6.2745   24.8449 C   0  0  0  0  0  0  0  0  0  0  0  0
  -25.0325  -27.3230   20.5952 C   0  0  0  0  0  0  0  0  0  0  0  0
  -28.5824  -20.5349   19.4179 C   0  0  0  0  0  0  0  0  0  0  0  0
  -21.8029   -4.2674   23.8495 C   0  0  0  0  0  0  0  0  0  0  0  0
  -24.1160  -10.2919   21.2078 C   0  0  0  0  0  0  0  0  0  0  0  0
  -24.9939  -12.5127   22.1050 C   0  0  0  0  0  0  0  0  0  0  0  0
  -28.5178  -33.6690   24.9050 C   0  0  0  0  0  0  0  0  0  0  0  0
  -25.8194  -29.6032   20.3927 C   0  0  0  0  0  0  0  0  0  0  0  0
  -27.9965  -32.4164   24.5289 C   0  0  0  0  0  0  0  0  0  0  0  0
  -24.7949  -28.7009   20.7127 C   0  0  0  0  0  0  0  0  0  0  0  0
  -28.3194  -19.2187   18.9881 C   0  0  0  0  0  0  0  0  0  0  0  0
  -22.4814   -8.0322   21.2759 C   0  0  0  0  0  0  0  0  0  0  0  0
  -26.2677  -26.8494   20.1534 C   0  0  0  0  0  0  0  0  0  0  0  0
  -21.5512   -6.2680   22.5188 C   0  0  0  0  0  0  0  0  0  0  0  0
  -21.2839   -4.9386   24.9567 C   0  0  0  0  0  0  0  0  0  0  0  0
  -21.9366   -4.9321   22.6306 C   0  0  0  0  0  0  0  0  0  0  0  0
  -24.9609  -11.4585   21.1726 C   0  0  0  0  0  0  0  0  0  0  0  0
  -28.3255  -18.3267   20.0206 C   0  0  0  0  0  0  0  0  0  0  0  0
  -25.9568  -13.3662   21.6243 C   0  0  0  0  0  0  0  0  0  0  0  0
  -28.7760  -20.5691   20.7901 C   0  0  0  0  0  0  0  0  0  0  0  0
  -24.2233  -12.7034   23.2989 C   0  0  0  0  0  0  0  0  0  0  0  0
  -24.8697  -31.3229   22.8917 C   0  0  0  0  0  0  0  0  0  0  0  0
  -27.8162  -23.6249   20.7770 C   0  0  0  0  0  0  0  0  0  0  0  0
  -22.0061  -31.2344   21.3704 C   0  0  0  0  0  0  0  0  0  0  0  0
  -19.9504  -29.6501   19.1544 C   0  0  0  0  0  0  0  0  0  0  0  0
  -28.0402  -16.1074   17.1673 C   0  0  0  0  0  0  0  0  0  0  0  0
  -27.6366  -34.7621   25.4556 C   0  0  0  0  0  0  0  0  0  0  0  0
  -25.5850  -31.0861   20.4858 C   0  0  0  0  0  0  0  0  0  0  0  0
  -23.4450  -29.1700   21.1883 C   0  0  0  0  0  0  0  0  0  0  0  0
  -28.0467  -18.5482   17.7041 C   0  0  0  0  0  0  0  0  0  0  0  0
  -28.0418  -16.9405   19.6097 C   0  0  0  0  0  0  0  0  0  0  0  0
  -26.1537  -34.5575   25.1567 C   0  0  0  0  0  0  0  0  0  0  0  0
  -29.3613  -12.7671   17.9304 C   0  0  0  0  0  0  0  0  0  0  0  0
  -25.7415  -33.1203   25.4590 C   0  0  0  0  0  0  0  0  0  0  0  0
  -28.3060  -12.2036   18.8847 C   0  0  0  0  0  0  0  0  0  0  0  0
  -28.7629  -13.7577   16.9338 C   0  0  0  0  0  0  0  0  0  0  0  0
  -26.9227  -14.2722   18.4885 C   0  0  0  0  0  0  0  0  0  0  0  0
  -26.5116  -32.1287   24.5786 C   0  0  1  0  0  0  0  0  0  0  0  0
  -24.4627  -31.4542   21.4513 C   0  0  1  0  0  0  0  0  0  0  0  0
  -27.5001  -13.3328   19.5555 C   0  0  1  0  0  0  0  0  0  0  0  0
  -17.6567  -29.7928   18.1465 C   0  0  0  0  0  0  0  0  0  0  0  0
  -20.8031  -30.1660   23.9630 C   0  0  0  0  0  0  0  0  0  0  0  0
  -18.7952  -29.4453   22.6525 C   0  0  0  0  0  0  0  0  0  0  0  0
  -19.3962  -31.8629   22.7816 C   0  0  0  0  0  0  0  0  0  0  0  0
  -21.0438  -29.9433   16.4199 C   0  0  0  0  0  0  0  0  0  0  0  0
  -29.1851  -23.0208   21.0077 C   0  0  0  0  0  0  0  0  0  0  0  0
  -27.8082  -25.0392   20.2301 C   0  0  0  0  0  0  0  0  0  1  0  0
  -20.8161  -30.3057   21.3849 C   0  0  1  0  0  0  0  0  0  0  0  0
  -19.1208  -30.1758   17.9969 C   0  0  2  0  0  0  0  0  0  0  0  0
  -19.9786  -30.4358   22.6884 C   0  0  0  0  0  0  0  0  0  0  0  0
  -25.8332  -11.6250   20.1749 N   0  0  0  0  0  0  0  0  0  0  0  0
  -26.4235  -12.7938   20.4777 N   0  0  0  0  0  0  0  0  0  0  0  0
  -23.2667  -30.6292   21.2686 N   0  0  0  0  0  0  0  0  0  0  0  0
  -27.9338  -17.1204   18.1267 N   0  0  0  0  0  0  0  0  0  0  0  0
  -27.9897  -14.7874   17.6260 N   0  0  0  0  0  0  0  0  0  0  0  0
  -26.4412  -14.5429   22.0748 N   0  0  0  0  0  0  0  0  0  0  0  0
  -23.2771  -11.7294   23.6461 N   0  0  0  0  0  0  0  0  0  0  0  0
  -29.0486  -21.6676   21.5384 N   0  0  0  0  0  0  0  0  0  0  0  0
  -25.9559  -32.1017   23.2426 N   0  0  0  0  0  0  0  0  0  0  0  0
  -20.0675  -30.5823   20.1636 N   0  0  0  0  0  0  0  0  0  0  0  0
  -19.6220  -29.6225   16.7070 N   0  3  0  0  0  0  0  0  0  0  0  0
  -24.3578  -13.7158   24.0272 O   0  0  0  0  0  0  0  0  0  0  0  0
  -24.2438  -30.5717   23.6303 O   0  0  0  0  0  0  0  0  0  0  0  0
  -26.7726  -23.0180   21.0142 O   0  0  0  0  0  0  0  0  0  0  0  0
  -21.8235  -32.4524   21.4394 O   0  0  0  0  0  0  0  0  0  0  0  0
  -20.4421  -28.5237   19.1640 O   0  0  0  0  0  0  0  0  0  0  0  0
  -28.2264  -16.3678   15.9720 O   0  0  0  0  0  0  0  0  0  0  0  0
  -21.6841   -6.9296   21.3095 O   0  0  0  0  0  0  0  0  0  0  0  0
  -26.4858  -25.4965   20.0415 O   0  0  0  0  0  0  0  0  0  1  0  0
  -21.1568   -4.3008   26.1277 F   0  0  0  0  0  0  0  0  0  0  0  0
  -22.4369   -4.2824   21.5707 F   0  0  0  0  0  0  0  0  0  0  0  0
  -28.6361  -19.0040   21.5165 S   0  0  0  0  0  0  0  0  0  0  0  0
  1  2  1  0  0  0  0
  1  5  2  0  0  0  0
  2  6  2  0  0  0  0
  3  8  2  0  0  0  0
  3 16  1  0  0  0  0
  4  9  1  0  0  0  0
  4 16  2  0  0  0  0
  5 18  1  0  0  0  0
  6 20  1  0  0  0  0
  7 10  2  0  0  0  0
  7 19  1  0  0  0  0
  8 23  1  0  0  0  0
  9 23  2  0  0  0  0
 10 24  1  0  0  0  0
 11 12  2  0  0  0  0
 11 25  1  0  0  0  0
 12 26  1  0  0  0  0
 13 21  1  0  0  0  0
 13 24  2  0  0  0  0
 14 22  1  0  0  0  0
 14 31  2  0  0  0  0
 15 26  2  0  0  0  0
 15 27  1  0  0  0  0
 16 28  1  0  0  0  0
 17 28  1  0  0  0  0
 17 30  2  0  0  0  0
 17 32  1  0  0  0  0
 18 20  2  0  0  0  0
 18 38  1  0  0  0  0
 19 21  2  0  0  0  0
 19 39  1  0  0  0  0
 20 49  1  0  0  0  0
 21 40  1  0  0  0  0
 22 29  2  0  0  0  0
 22 41  1  0  0  0  0
 23 79  1  0  0  0  0
 24 80  1  0  0  0  0
 25 27  2  0  0  0  0
 25 79  1  0  0  0  0
 26 81  1  0  0  0  0
 27 82  1  0  0  0  0
 28 62  2  0  0  0  0
 29 42  1  0  0  0  0
 29 83  1  0  0  0  0
 30 63  1  0  0  0  0
 30 67  1  0  0  0  0
 31 69  1  0  0  0  0
 31 83  1  0  0  0  0
 32 68  1  0  0  0  0
 32 73  2  0  0  0  0
 33 50  1  0  0  0  0
 33 70  1  0  0  0  0
 33 74  2  0  0  0  0
 34 57  1  0  0  0  0
 34 58  1  0  0  0  0
 34 75  2  0  0  0  0
 35 59  1  0  0  0  0
 35 64  1  0  0  0  0
 35 76  2  0  0  0  0
 36 60  1  0  0  0  0
 36 71  1  0  0  0  0
 36 77  2  0  0  0  0
 37 65  1  0  0  0  0
 37 66  1  0  0  0  0
 37 78  2  0  0  0  0
 38 43  1  0  0  0  0
 39 50  1  0  0  0  0
 40 64  1  0  0  0  0
 41 65  1  0  0  0  0
 42 65  1  0  0  0  0
 43 45  1  0  0  0  0
 44 46  1  0  0  0  0
 44 47  1  0  0  0  0
 45 49  1  0  0  0  0
 46 51  1  0  0  0  0
 47 66  1  0  0  0  0
 48 51  1  0  0  0  0
 48 66  1  0  0  0  0
 49 70  1  0  0  0  0
 50 64  1  0  0  0  0
 51 63  1  0  0  0  0
 52 60  1  0  0  0  0
 53 61  1  0  0  0  0
 54 61  1  0  0  0  0
 55 61  1  0  0  0  0
 56 72  1  0  0  0  0
 57 69  1  0  0  0  0
 58 80  1  0  0  0  0
 59 61  1  0  0  0  0
 59 71  1  0  0  0  0
 60 72  1  0  0  0  0
 62 63  1  0  0  0  0
M  CHG  1  72   1
M  ISO  4  37 100  58 101  65 100  80 101
M  END
> <Batch ID>
0151

> <Smiles>
CNC(C)C(=O)NC(C(=O)N1Cc2cc([101O:1][101CH2:1]C(=O)CNc3cc4c(s3)C[100N:0]([100C:0](=O)N3CCCC(n5nc(-c6ccc(Oc7ccc(F)cc7F)cc6)c(C(N)=O)c5N)C3)C4)ccc2CC1C(=O)NC1CCCc2ccccc21)C(C)(C)C

> <Shape>
0.335

> <Color>
0.128

> <Negative vol penalty>
0.000

$$$$

  -OEChem-04052303243D

 83 92  0     1  0  0  0  0  0999 V2000
  -16.9712  -26.4411   22.1882 C   0  0  0  0  0  0  0  0  0  0  0  0
  -18.2214  -25.9612   21.8111 C   0  0  0  0  0  0  0  0  0  0  0  0
  -23.4833   -9.6977   21.1034 C   0  0  0  0  0  0  0  0  0  0  0  0
  -24.0413  -10.5693   23.2866 C   0  0  0  0  0  0  0  0  0  0  0  0
  -16.8632  -27.6766   22.8252 C   0  0  0  0  0  0  0  0  0  0  0  0
  -19.3642  -26.7171   22.0698 C   0  0  0  0  0  0  0  0  0  0  0  0
  -23.1489  -23.9324   23.9585 C   0  0  0  0  0  0  0  0  0  0  0  0
  -22.8510   -8.6071   21.7004 C   0  0  0  0  0  0  0  0  0  0  0  0
  -23.4090   -9.4787   23.8836 C   0  0  0  0  0  0  0  0  0  0  0  0
  -23.8763  -23.1536   23.0596 C   0  0  0  0  0  0  0  0  0  0  0  0
  -19.8950   -7.9613   23.2097 C   0  0  0  0  0  0  0  0  0  0  0  0
  -18.6466   -7.5849   22.7143 C   0  0  0  0  0  0  0  0  0  0  0  0
  -25.6152  -24.8252   23.0277 C   0  0  0  0  0  0  0  0  0  0  0  0
  -28.7874  -18.8389   20.9181 C   0  0  0  0  0  0  0  0  0  0  0  0
  -30.5668  -18.2829   19.3867 C   0  0  0  0  0  0  0  0  0  0  0  0
  -19.5243   -5.4031   22.1606 C   0  0  0  0  0  0  0  0  0  0  0  0
  -24.0785  -10.6788   21.8965 C   0  0  0  0  0  0  0  0  0  0  0  0
  -24.1523  -13.0407   20.9356 C   0  0  0  0  0  0  0  0  0  0  0  0
  -18.0062  -28.4436   23.1006 C   0  0  0  0  0  0  0  0  0  0  0  0
  -23.6450  -25.1707   24.3910 C   0  0  0  0  0  0  0  0  0  0  0  0
  -19.2713  -27.9646   22.7099 C   0  0  0  0  0  0  0  0  0  0  0  0
  -24.8933  -25.6167   23.9341 C   0  0  0  0  0  0  0  0  0  0  0  0
  -28.7830  -20.1634   20.4583 C   0  0  0  0  0  0  0  0  0  0  0  0
  -29.7181  -20.5577   19.4794 C   0  0  0  0  0  0  0  0  0  0  0  0
  -29.6725  -17.9032   20.3830 C   0  0  0  0  0  0  0  0  0  0  0  0
  -22.8138   -8.4976   23.0905 C   0  0  0  0  0  0  0  0  0  0  0  0
  -25.1083  -23.6012   22.5919 C   0  0  0  0  0  0  0  0  0  0  0  0
  -20.9581   -7.0587   23.1805 C   0  0  0  0  0  0  0  0  0  0  0  0
  -18.4612   -6.3058   22.1898 C   0  0  0  0  0  0  0  0  0  0  0  0
  -30.5879  -19.6024   18.9353 C   0  0  0  0  0  0  0  0  0  0  0  0
  -20.7727   -5.7796   22.6559 C   0  0  0  0  0  0  0  0  0  0  0  0
  -24.7324  -11.8053   21.2804 C   0  0  0  0  0  0  0  0  0  0  0  0
  -25.1831  -13.7623   20.3850 C   0  0  0  0  0  0  0  0  0  0  0  0
  -22.8023  -13.4955   21.0987 C   0  0  0  0  0  0  0  0  0  0  0  0
  -22.6614  -28.1847   24.1630 C   0  0  0  0  0  0  0  0  0  0  0  0
  -25.1957  -28.7493   26.1075 C   0  0  0  0  0  0  0  0  0  0  0  0
  -28.2439  -27.7378   27.2617 C   0  0  0  0  0  0  0  0  0  0  0  0
  -30.4685  -15.5134   20.4244 C   0  0  0  0  0  0  0  0  0  0  0  0
  -17.8350  -29.7946   23.7488 C   0  0  0  0  0  0  0  0  0  0  0  0
  -22.8604  -25.9866   25.3815 C   0  0  0  0  0  0  0  0  0  0  0  0
  -25.4795  -26.9293   24.3835 C   0  0  0  0  0  0  0  0  0  0  0  0
  -19.1302  -30.3634   24.3227 C   0  0  0  0  0  0  0  0  0  0  0  0
  -29.8277  -12.3236   18.9781 C   0  0  0  0  0  0  0  0  0  0  0  0
  -20.2682  -30.2192   23.3172 C   0  0  0  0  0  0  0  0  0  0  0  0
  -28.3972  -12.0060   19.4198 C   0  0  0  0  0  0  0  0  0  0  0  0
  -30.6076  -13.0582   20.0671 C   0  0  0  0  0  0  0  0  0  0  0  0
  -28.5232  -13.9454   21.0352 C   0  0  0  0  0  0  0  0  0  0  0  0
  -29.0666  -22.8885   19.8100 C   0  0  0  0  0  0  0  0  0  0  0  0
  -20.5366  -28.7441   22.9955 C   0  0  1  0  0  0  0  0  0  0  0  0
  -23.2248  -27.4678   25.3573 C   0  0  1  0  0  0  0  0  0  0  0  0
  -27.6781  -13.2631   19.9472 C   0  0  2  0  0  0  0  0  0  0  0  0
  -27.7177  -22.3664   20.3169 C   0  0  2  0  0  0  0  0  0  0  0  0
  -30.0886  -28.4259   28.8176 C   0  0  0  0  0  0  0  0  0  0  0  0
  -26.1350  -30.8209   24.0738 C   0  0  0  0  0  0  0  0  0  0  0  0
  -28.3859  -30.7733   25.1690 C   0  0  0  0  0  0  0  0  0  0  0  0
  -26.3867  -31.5158   26.4630 C   0  0  0  0  0  0  0  0  0  0  0  0
  -27.9084  -25.3094   28.9197 C   0  0  0  0  0  0  0  0  0  0  0  0
  -27.0748  -23.3630   21.2757 C   0  0  0  0  0  0  0  0  0  1  0  0
  -26.6562  -29.0669   25.8953 C   0  0  1  0  0  0  0  0  0  0  0  0
  -28.8024  -27.6281   28.6690 C   0  0  2  0  0  0  0  0  0  0  0  0
  -26.8793  -30.5204   25.3901 C   0  0  0  0  0  0  0  0  0  0  0  0
  -26.0309  -11.7420   20.9742 N   0  0  0  0  0  0  0  0  0  0  0  0
  -26.2753  -12.9468   20.4312 N   0  0  0  0  0  0  0  0  0  0  0  0
  -29.7535  -21.8750   19.0312 N   0  0  0  0  0  0  0  0  0  0  0  0
  -27.8892  -21.0880   20.9932 N   0  0  0  0  0  0  0  0  0  0  0  0
  -24.6715  -27.6939   25.3478 N   0  0  0  0  0  0  0  0  0  0  0  0
  -29.8676  -14.2400   20.5149 N   0  0  0  0  0  0  0  0  0  0  0  0
  -25.2527  -15.0085   19.8705 N   0  0  0  0  0  0  0  0  0  0  0  0
  -21.8706  -12.6267   21.6829 N   0  0  0  0  0  0  0  0  0  0  0  0
  -29.6574  -16.5652   20.8491 N   0  0  0  0  0  0  0  0  0  0  0  0
  -21.2844  -28.1212   24.0666 N   0  0  0  0  0  0  0  0  0  0  0  0
  -27.3273  -28.7623   27.1543 N   0  0  0  0  0  0  0  0  0  0  0  0
  -29.0911  -26.2046   29.0022 N   0  3  0  0  0  0  0  0  0  0  0  0
  -22.4295  -14.6324   20.7220 O   0  0  0  0  0  0  0  0  0  0  0  0
  -23.4198  -28.7546   23.3872 O   0  0  0  0  0  0  0  0  0  0  0  0
  -24.5457  -29.4086   26.9227 O   0  0  0  0  0  0  0  0  0  0  0  0
  -28.5891  -26.9918   26.3480 O   0  0  0  0  0  0  0  0  0  0  0  0
  -31.6079  -15.6629   19.9757 O   0  0  0  0  0  0  0  0  0  0  0  0
  -22.1966   -7.4337   23.6734 O   0  0  0  0  0  0  0  0  0  0  0  0
  -25.8201  -22.8433   21.7139 O   0  0  0  0  0  0  0  0  0  1  0  0
  -17.2620   -5.9439   21.7155 F   0  0  0  0  0  0  0  0  0  0  0  0
  -31.4630  -19.9551   17.9821 F   0  0  0  0  0  0  0  0  0  0  0  0
  -21.7899   -4.9077   22.6263 F   0  0  0  0  0  0  0  0  0  0  0  0
  1  2  1  0  0  0  0
  1  5  2  0  0  0  0
  2  6  2  0  0  0  0
  3  8  2  0  0  0  0
  3 17  1  0  0  0  0
  4  9  1  0  0  0  0
  4 17  2  0  0  0  0
  5 19  1  0  0  0  0
  6 21  1  0  0  0  0
  7 10  2  0  0  0  0
  7 20  1  0  0  0  0
  8 26  1  0  0  0  0
  9 26  2  0  0  0  0
 10 27  1  0  0  0  0
 11 12  2  0  0  0  0
 11 28  1  0  0  0  0
 12 29  1  0  0  0  0
 13 22  1  0  0  0  0
 13 27  2  0  0  0  0
 14 23  1  0  0  0  0
 14 25  2  0  0  0  0
 15 25  1  0  0  0  0
 15 30  2  0  0  0  0
 16 29  2  0  0  0  0
 16 31  1  0  0  0  0
 17 32  1  0  0  0  0
 18 32  1  0  0  0  0
 18 33  2  0  0  0  0
 18 34  1  0  0  0  0
 19 21  2  0  0  0  0
 19 39  1  0  0  0  0
 20 22  2  0  0  0  0
 20 40  1  0  0  0  0
 21 49  1  0  0  0  0
 22 41  1  0  0  0  0
 23 24  2  0  0  0  0
 23 65  1  0  0  0  0
 24 30  1  0  0  0  0
 24 64  1  0  0  0  0
 25 70  1  0  0  0  0
 26 79  1  0  0  0  0
 27 80  1  0  0  0  0
 28 31  2  0  0  0  0
 28 79  1  0  0  0  0
 29 81  1  0  0  0  0
 30 82  1  0  0  0  0
 31 83  1  0  0  0  0
 32 62  2  0  0  0  0
 33 63  1  0  0  0  0
 33 68  1  0  0  0  0
 34 69  1  0  0  0  0
 34 74  2  0  0  0  0
 35 50  1  0  0  0  0
 35 71  1  0  0  0  0
 35 75  2  0  0  0  0
 36 59  1  0  0  0  0
 36 66  1  0  0  0  0
 36 76  2  0  0  0  0
 37 60  1  0  0  0  0
 37 72  1  0  0  0  0
 37 77  2  0  0  0  0
 38 67  1  0  0  0  0
 38 70  1  0  0  0  0
 38 78  2  0  0  0  0
 39 42  1  0  0  0  0
 40 50  1  0  0  0  0
 41 66  1  0  0  0  0
 42 44  1  0  0  0  0
 43 45  1  0  0  0  0
 43 46  1  0  0  0  0
 44 49  1  0  0  0  0
 45 51  1  0  0  0  0
 46 67  1  0  0  0  0
 47 51  1  0  0  0  0
 47 67  1  0  0  0  0
 48 52  1  0  0  0  0
 48 64  1  0  0  0  0
 49 71  1  0  0  0  0
 50 66  1  0  0  0  0
 51 63  1  0  0  0  0
 52 58  1  0  0  0  0
 52 65  1  0  0  0  0
 53 60  1  0  0  0  0
 54 61  1  0  0  0  0
 55 61  1  0  0  0  0
 56 61  1  0  0  0  0
 57 73  1  0  0  0  0
 58 80  1  0  0  0  0
 59 61  1  0  0  0  0
 59 72  1  0  0  0  0
 60 73  1  0  0  0  0
 62 63  1  0  0  0  0
M  CHG  1  73   1
M  ISO  4  38 100  58 101  70 100  80 101
M  END
> <Batch ID>
0151

> <Smiles>
CNC(C)C(=O)NC(C(=O)N1Cc2cc([101O:1][101CH2:1]C3CNc4c(F)cc([100NH:0][100C:0](=O)N5CCCC(n6nc(-c7ccc(Oc8ccc(F)cc8F)cc7)c(C(N)=O)c6N)C5)cc4N3)ccc2CC1C(=O)NC1CCCc2ccccc21)C(C)(C)C

> <Shape>
0.307

> <Color>
0.172

> <Negative vol penalty>
0.000

$$$$

  -OEChem-04052303243D

 85 94  0     1  0  0  0  0  0999 V2000
  -33.7184  -31.8046   20.0631 C   0  0  0  0  0  0  0  0  0  0  0  0
  -33.3287  -30.8396   20.9863 C   0  0  0  0  0  0  0  0  0  0  0  0
  -23.1021   -9.8910   19.8783 C   0  0  0  0  0  0  0  0  0  0  0  0
  -23.8990   -9.7879   22.1567 C   0  0  0  0  0  0  0  0  0  0  0  0
  -32.6386  -17.4741   23.6400 C   0  0  0  0  0  0  0  0  0  0  0  0
  -33.0477  -31.9141   18.8456 C   0  0  0  0  0  0  0  0  0  0  0  0
  -32.2674  -29.9841   20.6929 C   0  0  0  0  0  0  0  0  0  0  0  0
  -33.2717  -25.1646   21.8800 C   0  0  0  0  0  0  0  0  0  0  0  0
  -32.0233  -16.6379   22.7047 C   0  0  0  0  0  0  0  0  0  0  0  0
  -22.3826   -8.7126   20.0766 C   0  0  0  0  0  0  0  0  0  0  0  0
  -23.1794   -8.6096   22.3551 C   0  0  0  0  0  0  0  0  0  0  0  0
  -33.1786  -24.8074   23.2245 C   0  0  0  0  0  0  0  0  0  0  0  0
  -19.4727   -7.7850   21.5274 C   0  0  0  0  0  0  0  0  0  0  0  0
  -18.1591   -7.7412   21.0604 C   0  0  0  0  0  0  0  0  0  0  0  0
  -29.8156  -17.4181   23.3764 C   0  0  0  0  0  0  0  0  0  0  0  0
  -30.9958  -23.8649   22.8168 C   0  0  0  0  0  0  0  0  0  0  0  0
  -18.7310   -5.8829   19.6262 C   0  0  0  0  0  0  0  0  0  0  0  0
  -23.8603  -10.4286   20.9183 C   0  0  0  0  0  0  0  0  0  0  0  0
  -31.8293  -18.2700   24.4299 C   0  0  0  0  0  0  0  0  0  0  0  0
  -24.1561  -12.9624   20.9304 C   0  0  0  0  0  0  0  0  0  0  0  0
  -31.9838  -31.0531   18.5332 C   0  0  0  0  0  0  0  0  0  0  0  0
  -32.2211  -24.8840   20.9947 C   0  0  0  0  0  0  0  0  0  0  0  0
  -31.5810  -30.0830   19.4707 C   0  0  0  0  0  0  0  0  0  0  0  0
  -30.4345  -18.2410   24.2984 C   0  0  0  0  0  0  0  0  0  0  0  0
  -31.0790  -24.2174   21.4611 C   0  0  0  0  0  0  0  0  0  0  0  0
  -30.6240  -16.6102   22.5739 C   0  0  0  0  0  0  0  0  0  0  0  0
  -22.4212   -8.0719   21.3150 C   0  0  0  0  0  0  0  0  0  0  0  0
  -32.0394  -24.1600   23.6936 C   0  0  0  0  0  0  0  0  0  0  0  0
  -20.4155   -6.8779   21.0438 C   0  0  0  0  0  0  0  0  0  0  0  0
  -17.7882   -6.7901   20.1099 C   0  0  0  0  0  0  0  0  0  0  0  0
  -20.0446   -5.9268   20.0932 C   0  0  0  0  0  0  0  0  0  0  0  0
  -24.6043  -11.6455   20.7139 C   0  0  0  0  0  0  0  0  0  0  0  0
  -25.2290  -13.7502   20.5917 C   0  0  0  0  0  0  0  0  0  0  0  0
  -32.1637  -19.2256   25.4725 C   0  0  0  0  0  0  0  0  0  0  0  0
  -22.8838  -13.4315   21.3961 C   0  0  0  0  0  0  0  0  0  0  0  0
  -30.2706  -26.6388   19.2002 C   0  0  0  0  0  0  0  0  0  0  0  0
  -31.6864  -21.9806   26.5718 C   0  0  0  0  0  0  0  0  0  0  0  0
  -29.3025  -23.7420   18.1075 C   0  0  0  0  0  0  0  0  0  0  0  0
  -29.0113  -20.3868   18.6594 C   0  0  0  0  0  0  0  0  0  0  0  0
  -30.6783  -14.8846   20.7392 C   0  0  0  0  0  0  0  0  0  0  0  0
  -31.2587  -31.2406   17.2242 C   0  0  0  0  0  0  0  0  0  0  0  0
  -32.3482  -25.2520   19.5418 C   0  0  0  0  0  0  0  0  0  0  0  0
  -29.8186  -19.1977   25.2741 C   0  0  0  0  0  0  0  0  0  0  0  0
  -29.9319  -23.8752   20.5471 C   0  0  0  0  0  0  0  0  0  0  0  0
  -30.3866  -30.0497   16.8350 C   0  0  0  0  0  0  0  0  0  0  0  0
  -29.5677  -12.5823   18.2607 C   0  0  0  0  0  0  0  0  0  0  0  0
  -29.5534  -29.5864   18.0257 C   0  0  0  0  0  0  0  0  0  0  0  0
  -28.1405  -12.2417   18.6958 C   0  0  0  0  0  0  0  0  0  0  0  0
  -30.4981  -12.7625   19.4589 C   0  0  0  0  0  0  0  0  0  0  0  0
  -28.6015  -13.3763   20.9064 C   0  0  0  0  0  0  0  0  0  0  0  0
  -30.4504  -29.1203   19.1788 C   0  0  1  0  0  0  0  0  0  0  0  0
  -31.0009  -25.3769   18.8370 C   0  0  1  0  0  0  0  0  0  0  0  0
  -27.6129  -13.2492   19.7360 C   0  0  2  0  0  0  0  0  0  0  0  0
  -28.1433  -18.2842   17.5998 C   0  0  0  0  0  0  0  0  0  0  0  0
  -26.4496  -24.5742   18.7990 C   0  0  0  0  0  0  0  0  0  0  0  0
  -25.7801  -22.1678   18.6266 C   0  0  0  0  0  0  0  0  0  0  0  0
  -26.6835  -23.3556   16.6276 C   0  0  0  0  0  0  0  0  0  0  0  0
  -31.7006  -19.1515   18.6340 C   0  0  0  0  0  0  0  0  0  0  0  0
  -30.9357  -20.7504   27.0097 C   0  0  0  0  0  0  0  0  0  0  0  0
  -31.1699  -22.6540   25.3159 C   0  0  0  0  0  0  0  0  0  1  0  0
  -28.2476  -22.7429   18.5171 C   0  0  1  0  0  0  0  0  0  0  0  0
  -29.3502  -19.1897   17.7896 C   0  0  2  0  0  0  0  0  0  0  0  0
  -26.8108  -23.2182   18.1605 C   0  0  0  0  0  0  0  0  0  0  0  0
  -25.8636  -11.5956   20.2717 N   0  0  0  0  0  0  0  0  0  0  0  0
  -26.2160  -12.8909   20.2075 N   0  0  0  0  0  0  0  0  0  0  0  0
  -31.0233  -19.7549   25.9547 N   0  0  0  0  0  0  0  0  0  0  0  0
  -30.1009  -24.2613   19.1365 N   0  0  0  0  0  0  0  0  0  0  0  0
  -29.9356  -13.7341   20.3994 N   0  0  0  0  0  0  0  0  0  0  0  0
  -25.4150  -15.0873   20.5879 N   0  0  0  0  0  0  0  0  0  0  0  0
  -21.8935  -12.4871   21.6989 N   0  0  0  0  0  0  0  0  0  0  0  0
  -30.0283  -15.7521   21.6165 N   0  0  0  0  0  0  0  0  0  0  0  0
  -30.9690  -27.7958   18.9121 N   0  0  0  0  0  0  0  0  0  0  0  0
  -28.6268  -21.4744   17.9041 N   0  0  0  0  0  0  0  0  0  0  0  0
  -33.4048  -19.4933   25.8466 N   0  3  0  0  0  0  0  0  0  0  0  0
  -30.4441  -18.3909   18.4111 N   0  3  0  0  0  0  0  0  0  0  0  0
  -22.6271  -14.6527   21.5238 O   0  0  0  0  0  0  0  0  0  0  0  0
  -29.1553  -26.5680   19.7031 O   0  0  0  0  0  0  0  0  0  0  0  0
  -32.6575  -22.4170   27.1882 O   0  0  0  0  0  0  0  0  0  0  0  0
  -29.4188  -24.0450   16.9174 O   0  0  0  0  0  0  0  0  0  0  0  0
  -29.0773  -20.3586   19.8864 O   0  0  0  0  0  0  0  0  0  0  0  0
  -31.7965  -15.0990   20.2642 O   0  0  0  0  0  0  0  0  0  0  0  0
  -21.7191   -6.9222   21.5090 O   0  0  0  0  0  0  0  0  0  0  0  0
  -31.9457  -23.8108   25.0056 O   0  0  0  0  0  0  0  0  0  1  0  0
  -16.5263   -6.7472   19.6626 F   0  0  0  0  0  0  0  0  0  0  0  0
  -20.9456   -5.0519   19.6257 F   0  0  0  0  0  0  0  0  0  0  0  0
  1  2  1  0  0  0  0
  1  6  2  0  0  0  0
  2  7  2  0  0  0  0
  3 10  2  0  0  0  0
  3 18  1  0  0  0  0
  4 11  1  0  0  0  0
  4 18  2  0  0  0  0
  5  9  2  0  0  0  0
  5 19  1  0  0  0  0
  6 21  1  0  0  0  0
  7 23  1  0  0  0  0
  8 12  2  0  0  0  0
  8 22  1  0  0  0  0
  9 26  1  0  0  0  0
 10 27  1  0  0  0  0
 11 27  2  0  0  0  0
 12 28  1  0  0  0  0
 13 14  2  0  0  0  0
 13 29  1  0  0  0  0
 14 30  1  0  0  0  0
 15 24  1  0  0  0  0
 15 26  2  0  0  0  0
 16 25  1  0  0  0  0
 16 28  2  0  0  0  0
 17 30  2  0  0  0  0
 17 31  1  0  0  0  0
 18 32  1  0  0  0  0
 19 24  2  0  0  0  0
 19 34  1  0  0  0  0
 20 32  1  0  0  0  0
 20 33  2  0  0  0  0
 20 35  1  0  0  0  0
 21 23  2  0  0  0  0
 21 41  1  0  0  0  0
 22 25  2  0  0  0  0
 22 42  1  0  0  0  0
 23 51  1  0  0  0  0
 24 43  1  0  0  0  0
 25 44  1  0  0  0  0
 26 71  1  0  0  0  0
 27 82  1  0  0  0  0
 28 83  1  0  0  0  0
 29 31  2  0  0  0  0
 29 82  1  0  0  0  0
 30 84  1  0  0  0  0
 31 85  1  0  0  0  0
 32 64  2  0  0  0  0
 33 65  1  0  0  0  0
 33 69  1  0  0  0  0
 34 66  1  0  0  0  0
 34 74  2  0  0  0  0
 35 70  1  0  0  0  0
 35 76  2  0  0  0  0
 36 52  1  0  0  0  0
 36 72  1  0  0  0  0
 36 77  2  0  0  0  0
 37 59  1  0  0  0  0
 37 60  1  0  0  0  0
 37 78  2  0  0  0  0
 38 61  1  0  0  0  0
 38 67  1  0  0  0  0
 38 79  2  0  0  0  0
 39 62  1  0  0  0  0
 39 73  1  0  0  0  0
 39 80  2  0  0  0  0
 40 68  1  0  0  0  0
 40 71  1  0  0  0  0
 40 81  2  0  0  0  0
 41 45  1  0  0  0  0
 42 52  1  0  0  0  0
 43 66  1  0  0  0  0
 44 67  1  0  0  0  0
 45 47  1  0  0  0  0
 46 48  1  0  0  0  0
 46 49  1  0  0  0  0
 47 51  1  0  0  0  0
 48 53  1  0  0  0  0
 49 68  1  0  0  0  0
 50 53  1  0  0  0  0
 50 68  1  0  0  0  0
 51 72  1  0  0  0  0
 52 67  1  0  0  0  0
 53 65  1  0  0  0  0
 54 62  1  0  0  0  0
 55 63  1  0  0  0  0
 56 63  1  0  0  0  0
 57 63  1  0  0  0  0
 58 75  1  0  0  0  0
 59 66  1  0  0  0  0
 60 83  1  0  0  0  0
 61 63  1  0  0  0  0
 61 73  1  0  0  0  0
 62 75  1  0  0  0  0
 64 65  1  0  0  0  0
M  CHG  2  74   1  75   1
M  ISO  4  40 100  60 101  71 100  83 101
M  END
> <Batch ID>
0151

> <Smiles>
CNC(C)C(=O)NC(C(=O)N1Cc2cc([101O:1][101CH2:1]C(=O)CN3Cc4cc([100NH:0][100C:0](=O)N5CCCC(n6nc(-c7ccc(Oc8ccc(F)cc8F)cc7)c(C(N)=O)c6N)C5)ccc4C3=N)ccc2CC1C(=O)NC1CCCc2ccccc21)C(C)(C)C

> <Shape>
0.228

> <Color>
0.214

> <Negative vol penalty>
0.000

$$$$

  -OEChem-04052303243D

 86 94  0     1  0  0  0  0  0999 V2000
  -22.5049  -24.0768   19.0723 C   0  0  0  0  0  0  0  0  0  0  0  0
  -23.5504  -23.1774   19.2550 C   0  0  0  0  0  0  0  0  0  0  0  0
  -24.0226  -30.0375   20.6894 C   0  0  0  0  0  0  0  0  0  0  0  0
  -24.0927  -28.3526   22.4195 C   0  0  0  0  0  0  0  0  0  0  0  0
  -21.3111  -23.9079   19.7726 C   0  0  0  0  0  0  0  0  0  0  0  0
  -23.4031  -22.1090   20.1390 C   0  0  0  0  0  0  0  0  0  0  0  0
  -25.1084  -17.7462   18.2148 C   0  0  0  0  0  0  0  0  0  0  0  0
  -22.6738  -30.2631   20.9636 C   0  0  0  0  0  0  0  0  0  0  0  0
  -22.7438  -28.5782   22.6938 C   0  0  0  0  0  0  0  0  0  0  0  0
  -26.4882  -17.5465   18.2147 C   0  0  0  0  0  0  0  0  0  0  0  0
  -19.7546  -27.7280   21.3624 C   0  0  0  0  0  0  0  0  0  0  0  0
  -18.9319  -26.6139   21.5287 C   0  0  0  0  0  0  0  0  0  0  0  0
  -30.1423  -19.6345   21.6063 C   0  0  0  0  0  0  0  0  0  0  0  0
  -28.9737  -21.7332   21.7251 C   0  0  0  0  0  0  0  0  0  0  0  0
  -26.2830  -16.1697   20.1849 C   0  0  0  0  0  0  0  0  0  0  0  0
  -18.4032  -27.3391   23.7718 C   0  0  0  0  0  0  0  0  0  0  0  0
  -24.7321  -29.0822   21.4173 C   0  0  0  0  0  0  0  0  0  0  0  0
  -29.3743  -20.5442   22.3245 C   0  0  0  0  0  0  0  0  0  0  0  0
  -27.2316  -29.4939   21.7182 C   0  0  0  0  0  0  0  0  0  0  0  0
  -21.1457  -22.8315   20.6583 C   0  0  0  0  0  0  0  0  0  0  0  0
  -24.3055  -17.1671   19.2080 C   0  0  0  0  0  0  0  0  0  0  0  0
  -22.2065  -21.9263   20.8528 C   0  0  0  0  0  0  0  0  0  0  0  0
  -24.8930  -16.3615   20.1939 C   0  0  0  0  0  0  0  0  0  0  0  0
  -22.0343  -29.5335   21.9659 C   0  0  0  0  0  0  0  0  0  0  0  0
  -27.0761  -16.7606   19.2015 C   0  0  0  0  0  0  0  0  0  0  0  0
  -19.9017  -28.6476   22.4008 C   0  0  0  0  0  0  0  0  0  0  0  0
  -18.2562  -26.4195   22.7333 C   0  0  0  0  0  0  0  0  0  0  0  0
  -19.2260  -28.4532   23.6055 C   0  0  0  0  0  0  0  0  0  0  0  0
  -26.1254  -28.8483   21.1341 C   0  0  0  0  0  0  0  0  0  0  0  0
  -30.4807  -19.9583   20.3023 C   0  0  0  0  0  0  0  0  0  0  0  0
  -29.3645  -21.9632   20.4159 C   0  0  0  0  0  0  0  0  0  0  0  0
  -28.3230  -28.9184   21.1148 C   0  0  0  0  0  0  0  0  0  0  0  0
  -28.9926  -20.2550   23.6884 C   0  0  0  0  0  0  0  0  0  0  0  0
  -27.2693  -30.5218   22.7171 C   0  0  0  0  0  0  0  0  0  0  0  0
  -22.3970  -18.2913   21.4878 C   0  0  0  0  0  0  0  0  0  0  0  0
  -30.5976  -17.6196   19.3451 C   0  0  0  0  0  0  0  0  0  0  0  0
  -21.6934  -15.1524   21.9054 C   0  0  0  0  0  0  0  0  0  0  0  0
  -22.6483  -11.8961   21.5427 C   0  0  0  0  0  0  0  0  0  0  0  0
  -29.2269  -23.6135   18.5174 C   0  0  0  0  0  0  0  0  0  0  0  0
  -19.8540  -22.7171   21.4286 C   0  0  0  0  0  0  0  0  0  0  0  0
  -22.8154  -17.3702   19.1786 C   0  0  0  0  0  0  0  0  0  0  0  0
  -24.0728  -15.7008   21.2706 C   0  0  0  0  0  0  0  0  0  0  0  0
  -19.6435  -21.3454   22.0645 C   0  0  0  0  0  0  0  0  0  0  0  0
  -29.6673  -26.8168   17.0269 C   0  0  0  0  0  0  0  0  0  0  0  0
  -20.9133  -20.8851   22.7735 C   0  0  0  0  0  0  0  0  0  0  0  0
  -28.9148  -27.7609   17.9675 C   0  0  0  0  0  0  0  0  0  0  0  0
  -28.9587  -25.4706   16.8883 C   0  0  0  0  0  0  0  0  0  0  0  0
  -27.9013  -25.7400   19.0971 C   0  0  0  0  0  0  0  0  0  0  0  0
  -22.0761  -20.7408   21.7842 C   0  0  1  0  0  0  0  0  0  0  0  0
  -22.1559  -17.1532   20.5370 C   0  0  1  0  0  0  0  0  0  0  0  0
  -28.6111  -27.0856   19.3192 C   0  0  2  0  0  0  0  0  0  0  0  0
  -21.8799   -9.5539   22.0128 C   0  0  0  0  0  0  0  0  0  0  0  0
  -32.7284  -18.6931   20.0611 C   0  0  0  0  0  0  0  0  0  0  0  0
  -31.5428  -19.5898   18.0748 C   0  0  0  0  0  0  0  0  0  0  0  0
  -22.3968  -15.5155   24.8521 C   0  0  0  0  0  0  0  0  0  0  0  0
  -22.5364  -13.0240   25.0540 C   0  0  0  0  0  0  0  0  0  0  0  0
  -20.3765  -14.1038   24.4282 C   0  0  0  0  0  0  0  0  0  0  0  0
  -22.6600  -11.1916   18.6683 C   0  0  0  0  0  0  0  0  0  0  0  0
  -29.2325  -17.6116   18.6708 C   0  0  0  0  0  0  0  0  0  1  0  0
  -22.2603  -14.0320   22.7434 C   0  0  1  0  0  0  0  0  0  0  0  0
  -21.9126  -10.6854   20.9972 C   0  0  2  0  0  0  0  0  0  0  0  0
  -31.3280  -18.9793   19.4789 C   0  0  0  0  0  0  0  0  0  0  0  0
  -21.9085  -14.1827   24.2504 C   0  0  0  0  0  0  0  0  0  0  0  0
  -26.4813  -27.9329   20.2289 N   0  0  0  0  0  0  0  0  0  0  0  0
  -30.1103  -21.1033   19.6864 N   0  0  0  0  0  0  0  0  0  0  0  0
  -27.8236  -27.9991   20.2397 N   0  0  0  0  0  0  0  0  0  0  0  0
  -22.6209  -15.9347   21.2028 N   0  0  0  0  0  0  0  0  0  0  0  0
  -28.7076  -24.8885   18.2085 N   0  0  0  0  0  0  0  0  0  0  0  0
  -29.6516  -29.1140   21.2526 N   0  0  0  0  0  0  0  0  0  0  0  0
  -29.3750  -19.1076   24.2744 N   0  0  0  0  0  0  0  0  0  0  0  0
  -26.0558  -30.9995   23.2303 N   0  0  0  0  0  0  0  0  0  0  0  0
  -28.9517  -23.1772   19.8131 N   0  0  0  0  0  0  0  0  0  0  0  0
  -21.9466  -19.5139   21.0276 N   0  0  0  0  0  0  0  0  0  0  0  0
  -21.7863  -12.7910   22.1404 N   0  0  0  0  0  0  0  0  0  0  0  0
  -28.2519  -21.1304   24.3892 N   0  3  0  0  0  0  0  0  0  0  0  0
  -22.5793  -10.1880   19.7607 N   0  3  0  0  0  0  0  0  0  0  0  0
  -28.3467  -31.0139   23.1299 O   0  0  0  0  0  0  0  0  0  0  0  0
  -22.9494  -18.0760   22.5602 O   0  0  0  0  0  0  0  0  0  0  0  0
  -31.0979  -16.5718   19.7604 O   0  0  0  0  0  0  0  0  0  0  0  0
  -20.4722  -15.3226   21.8696 O   0  0  0  0  0  0  0  0  0  0  0  0
  -23.8663  -12.0324   21.4513 O   0  0  0  0  0  0  0  0  0  0  0  0
  -29.8917  -22.9686   17.7024 O   0  0  0  0  0  0  0  0  0  0  0  0
  -20.7182  -29.7536   22.2339 O   0  0  0  0  0  0  0  0  0  0  0  0
  -28.4227  -16.5646   19.2042 O   0  0  0  0  0  0  0  0  0  1  0  0
  -17.4650  -25.3504   22.8923 F   0  0  0  0  0  0  0  0  0  0  0  0
  -19.3624  -29.3339   24.6063 F   0  0  0  0  0  0  0  0  0  0  0  0
  1  2  1  0  0  0  0
  1  5  2  0  0  0  0
  2  6  2  0  0  0  0
  3  8  2  0  0  0  0
  3 17  1  0  0  0  0
  4  9  1  0  0  0  0
  4 17  2  0  0  0  0
  5 20  1  0  0  0  0
  6 22  1  0  0  0  0
  7 10  2  0  0  0  0
  7 21  1  0  0  0  0
  8 24  1  0  0  0  0
  9 24  2  0  0  0  0
 10 25  1  0  0  0  0
 11 12  2  0  0  0  0
 11 26  1  0  0  0  0
 12 27  1  0  0  0  0
 13 18  2  0  0  0  0
 13 30  1  0  0  0  0
 14 18  1  0  0  0  0
 14 31  2  0  0  0  0
 15 23  1  0  0  0  0
 15 25  2  0  0  0  0
 16 27  2  0  0  0  0
 16 28  1  0  0  0  0
 17 29  1  0  0  0  0
 18 33  1  0  0  0  0
 19 29  1  0  0  0  0
 19 32  2  0  0  0  0
 19 34  1  0  0  0  0
 20 22  2  0  0  0  0
 20 40  1  0  0  0  0
 21 23  2  0  0  0  0
 21 41  1  0  0  0  0
 22 49  1  0  0  0  0
 23 42  1  0  0  0  0
 24 83  1  0  0  0  0
 25 84  1  0  0  0  0
 26 28  2  0  0  0  0
 26 83  1  0  0  0  0
 27 85  1  0  0  0  0
 28 86  1  0  0  0  0
 29 64  2  0  0  0  0
 30 62  1  0  0  0  0
 30 65  2  0  0  0  0
 31 65  1  0  0  0  0
 31 72  1  0  0  0  0
 32 66  1  0  0  0  0
 32 69  1  0  0  0  0
 33 70  1  0  0  0  0
 33 75  2  0  0  0  0
 34 71  1  0  0  0  0
 34 77  2  0  0  0  0
 35 50  1  0  0  0  0
 35 73  1  0  0  0  0
 35 78  2  0  0  0  0
 36 59  1  0  0  0  0
 36 62  1  0  0  0  0
 36 79  2  0  0  0  0
 37 60  1  0  0  0  0
 37 67  1  0  0  0  0
 37 80  2  0  0  0  0
 38 61  1  0  0  0  0
 38 74  1  0  0  0  0
 38 81  2  0  0  0  0
 39 68  1  0  0  0  0
 39 72  1  0  0  0  0
 39 82  2  0  0  0  0
 40 43  1  0  0  0  0
 41 50  1  0  0  0  0
 42 67  1  0  0  0  0
 43 45  1  0  0  0  0
 44 46  1  0  0  0  0
 44 47  1  0  0  0  0
 45 49  1  0  0  0  0
 46 51  1  0  0  0  0
 47 68  1  0  0  0  0
 48 51  1  0  0  0  0
 48 68  1  0  0  0  0
 49 73  1  0  0  0  0
 50 67  1  0  0  0  0
 51 66  1  0  0  0  0
 52 61  1  0  0  0  0
 53 62  1  0  0  0  0
 54 62  1  0  0  0  0
 55 63  1  0  0  0  0
 56 63  1  0  0  0  0
 57 63  1  0  0  0  0
 58 76  1  0  0  0  0
 59 84  1  0  0  0  0
 60 63  1  0  0  0  0
 60 74  1  0  0  0  0
 61 76  1  0  0  0  0
 64 66  1  0  0  0  0
M  CHG  2  75   1  76   1
M  ISO  4  39 100  59 101  72 100  84 101
M  END
> <Batch ID>
0151

> <Smiles>
CNC(C)C(=O)NC(C(=O)N1Cc2cc([101O:1][101CH2:1]C(=O)C(C)(C)c3cc(C(=N)N)cc([100NH:0][100C:0](=O)N4CCCC(n5nc(-c6ccc(Oc7ccc(F)cc7F)cc6)c(C(N)=O)c5N)C4)n3)ccc2CC1C(=O)NC1CCCc2ccccc21)C(C)(C)C

> <Shape>
0.242

> <Color>
0.046

> <Negative vol penalty>
0.000

$$$$

  -OEChem-04052303243D

 85 94  0     1  0  0  0  0  0999 V2000
  -26.4271  -37.0886   20.2223 C   0  0  0  0  0  0  0  0  0  0  0  0
  -27.0706  -35.8573   20.2948 C   0  0  0  0  0  0  0  0  0  0  0  0
  -26.4496  -12.6620   19.9544 C   0  0  0  0  0  0  0  0  0  0  0  0
  -24.6003  -13.0235   21.4665 C   0  0  0  0  0  0  0  0  0  0  0  0
  -25.2934  -37.3281   20.9978 C   0  0  0  0  0  0  0  0  0  0  0  0
  -26.5814  -34.8651   21.1437 C   0  0  0  0  0  0  0  0  0  0  0  0
  -26.4408  -30.3118   18.9318 C   0  0  0  0  0  0  0  0  0  0  0  0
  -26.1444  -11.3018   19.9063 C   0  0  0  0  0  0  0  0  0  0  0  0
  -24.2950  -11.6633   21.4183 C   0  0  0  0  0  0  0  0  0  0  0  0
  -27.6454  -29.6176   18.8265 C   0  0  0  0  0  0  0  0  0  0  0  0
  -25.4486   -8.8008   22.7991 C   0  0  0  0  0  0  0  0  0  0  0  0
  -25.1685   -8.1565   24.0040 C   0  0  0  0  0  0  0  0  0  0  0  0
  -27.0427  -28.2922   20.7498 C   0  0  0  0  0  0  0  0  0  0  0  0
  -22.9691   -7.5820   23.1856 C   0  0  0  0  0  0  0  0  0  0  0  0
  -27.1873  -23.5677   17.3257 C   0  0  0  0  0  0  0  0  0  0  0  0
  -25.6776  -13.5228   20.7345 C   0  0  0  0  0  0  0  0  0  0  0  0
  -27.1961  -15.5141   21.2211 C   0  0  0  0  0  0  0  0  0  0  0  0
  -24.7843  -36.3349   21.8493 C   0  0  0  0  0  0  0  0  0  0  0  0
  -25.5315  -30.0082   19.9552 C   0  0  0  0  0  0  0  0  0  0  0  0
  -25.4405  -35.0920   21.9323 C   0  0  0  0  0  0  0  0  0  0  0  0
  -25.8262  -28.9822   20.8644 C   0  0  0  0  0  0  0  0  0  0  0  0
  -25.0671  -10.8024   20.6382 C   0  0  0  0  0  0  0  0  0  0  0  0
  -27.9477  -28.6096   19.7373 C   0  0  0  0  0  0  0  0  0  0  0  0
  -24.4889   -8.8358   21.7873 C   0  0  0  0  0  0  0  0  0  0  0  0
  -23.9287   -7.5471   24.1973 C   0  0  0  0  0  0  0  0  0  0  0  0
  -23.2492   -8.2264   21.9806 C   0  0  0  0  0  0  0  0  0  0  0  0
  -25.9927  -14.9279   20.7851 C   0  0  0  0  0  0  0  0  0  0  0  0
  -26.9933  -16.8645   21.0738 C   0  0  0  0  0  0  0  0  0  0  0  0
  -27.4314  -22.2592   17.6866 C   0  0  0  0  0  0  0  0  0  0  0  0
  -29.3756  -23.5888   17.1822 C   0  0  0  0  0  0  0  0  0  0  0  0
  -28.3904  -14.8934   21.7150 C   0  0  0  0  0  0  0  0  0  0  0  0
  -24.2966  -31.6107   22.4069 C   0  0  0  0  0  0  0  0  0  0  0  0
  -30.9436  -26.0114   18.5324 C   0  0  0  0  0  0  0  0  0  0  0  0
  -22.4977  -28.9331   22.7476 C   0  0  0  0  0  0  0  0  0  0  0  0
  -23.0188  -25.3682   22.5537 C   0  0  0  0  0  0  0  0  0  0  0  0
  -25.1768  -21.2241   18.1245 C   0  0  0  0  0  0  0  0  0  0  0  0
  -23.5837  -36.6567   22.7036 C   0  0  0  0  0  0  0  0  0  0  0  0
  -24.2247  -30.7481   20.0391 C   0  0  0  0  0  0  0  0  0  0  0  0
  -24.8748  -28.6040   21.9691 C   0  0  0  0  0  0  0  0  0  0  0  0
  -22.9104  -35.4221   23.2976 C   0  0  0  0  0  0  0  0  0  0  0  0
  -30.9602  -25.2995   14.8828 C   0  0  0  0  0  0  0  0  0  0  0  0
  -22.7706  -19.4721   20.0785 C   0  0  0  0  0  0  0  0  0  0  0  0
  -23.9519  -34.4821   23.8963 C   0  0  0  0  0  0  0  0  0  0  0  0
  -31.2480  -23.9331   15.4960 C   0  0  0  0  0  0  0  0  0  0  0  0
  -23.4933  -18.1819   20.4724 C   0  0  0  0  0  0  0  0  0  0  0  0
  -31.2402  -26.2629   16.0259 C   0  0  0  0  0  0  0  0  0  0  0  0
  -23.1336  -19.9160   18.6626 C   0  0  0  0  0  0  0  0  0  0  0  0
  -25.2962  -18.7431   18.7926 C   0  0  0  0  0  0  0  0  0  0  0  0
  -24.9257  -33.9819   22.8226 C   0  0  1  0  0  0  0  0  0  0  0  0
  -30.7962  -24.0768   16.9533 C   0  0  1  0  0  0  0  0  0  0  0  0
  -23.6014  -30.7043   21.4308 C   0  0  1  0  0  0  0  0  0  0  0  0
  -25.0122  -18.2917   20.2346 C   0  0  2  0  0  0  0  0  0  0  0  0
  -21.4244  -23.5147   21.9880 C   0  0  0  0  0  0  0  0  0  0  0  0
  -22.1071  -28.7383   25.7675 C   0  0  0  0  0  0  0  0  0  0  0  0
  -22.0028  -26.2488   25.5233 C   0  0  0  0  0  0  0  0  0  0  0  0
  -20.2912  -27.6822   24.4104 C   0  0  0  0  0  0  0  0  0  0  0  0
  -24.7692  -24.3671   20.3874 C   0  0  0  0  0  0  0  0  0  0  0  0
  -31.2713  -27.4778   18.6571 C   0  0  0  0  0  0  0  0  0  0  0  0
  -29.9997  -28.3037   18.5747 C   0  0  0  0  0  0  0  0  0  1  0  0
  -22.6486  -27.6320   23.4983 C   0  0  1  0  0  0  0  0  0  0  0  0
  -22.5177  -24.4344   21.4668 C   0  0  2  0  0  0  0  0  0  0  0  0
  -21.7850  -27.5898   24.7906 C   0  0  0  0  0  0  0  0  0  0  0  0
  -28.3010  -24.3318   17.0364 N   0  0  0  0  0  0  0  0  0  0  0  0
  -25.0921  -15.8319   20.3905 N   0  0  0  0  0  0  0  0  0  0  0  0
  -25.7299  -16.9999   20.5781 N   0  0  0  0  0  0  0  0  0  0  0  0
  -23.6127  -29.3608   22.0132 N   0  0  0  0  0  0  0  0  0  0  0  0
  -30.9439  -25.5064   17.2406 N   0  0  0  0  0  0  0  0  0  0  0  0
  -24.5879  -20.0020   18.5125 N   0  0  0  0  0  0  0  0  0  0  0  0
  -27.7742  -17.9375   21.3213 N   0  0  0  0  0  0  0  0  0  0  0  0
  -28.5026  -14.6625   23.0929 N   0  0  0  0  0  0  0  0  0  0  0  0
  -26.5688  -21.1942   18.0465 N   0  0  0  0  0  0  0  0  0  0  0  0
  -24.3108  -32.9397   22.0287 N   0  0  0  0  0  0  0  0  0  0  0  0
  -22.3463  -26.5719   22.5427 N   0  0  0  0  0  0  0  0  0  0  0  0
  -23.6344  -23.5923   20.9520 N   0  3  0  0  0  0  0  0  0  0  0  0
  -29.3371  -14.5685   20.9590 O   0  0  0  0  0  0  0  0  0  0  0  0
  -24.7828  -31.1395   23.4283 O   0  0  0  0  0  0  0  0  0  0  0  0
  -30.6884  -25.3432   19.5358 O   0  0  0  0  0  0  0  0  0  0  0  0
  -21.4273  -29.5436   22.8049 O   0  0  0  0  0  0  0  0  0  0  0  0
  -23.9144  -25.0593   23.3366 O   0  0  0  0  0  0  0  0  0  0  0  0
  -24.4982  -22.2309   17.9060 O   0  0  0  0  0  0  0  0  0  0  0  0
  -24.7688   -9.4753   20.5913 O   0  0  0  0  0  0  0  0  0  0  0  0
  -29.1230  -27.9310   19.6372 O   0  0  0  0  0  0  0  0  0  1  0  0
  -23.6605   -6.9270   25.3539 F   0  0  0  0  0  0  0  0  0  0  0  0
  -22.3237   -8.2557   21.0119 F   0  0  0  0  0  0  0  0  0  0  0  0
  -29.1203  -21.9618   17.6645 S   0  0  0  0  0  0  0  0  0  0  0  0
  1  2  1  0  0  0  0
  1  5  2  0  0  0  0
  2  6  2  0  0  0  0
  3  8  2  0  0  0  0
  3 16  1  0  0  0  0
  4  9  1  0  0  0  0
  4 16  2  0  0  0  0
  5 18  1  0  0  0  0
  6 20  1  0  0  0  0
  7 10  2  0  0  0  0
  7 19  1  0  0  0  0
  8 22  1  0  0  0  0
  9 22  2  0  0  0  0
 10 23  1  0  0  0  0
 11 12  2  0  0  0  0
 11 24  1  0  0  0  0
 12 25  1  0  0  0  0
 13 21  1  0  0  0  0
 13 23  2  0  0  0  0
 14 25  2  0  0  0  0
 14 26  1  0  0  0  0
 15 29  2  0  0  0  0
 15 63  1  0  0  0  0
 16 27  1  0  0  0  0
 17 27  1  0  0  0  0
 17 28  2  0  0  0  0
 17 31  1  0  0  0  0
 18 20  2  0  0  0  0
 18 37  1  0  0  0  0
 19 21  2  0  0  0  0
 19 38  1  0  0  0  0
 20 49  1  0  0  0  0
 21 39  1  0  0  0  0
 22 81  1  0  0  0  0
 23 82  1  0  0  0  0
 24 26  2  0  0  0  0
 24 81  1  0  0  0  0
 25 83  1  0  0  0  0
 26 84  1  0  0  0  0
 27 64  2  0  0  0  0
 28 65  1  0  0  0  0
 28 69  1  0  0  0  0
 29 71  1  0  0  0  0
 29 85  1  0  0  0  0
 30 50  1  0  0  0  0
 30 63  2  0  0  0  0
 30 85  1  0  0  0  0
 31 70  1  0  0  0  0
 31 75  2  0  0  0  0
 32 51  1  0  0  0  0
 32 72  1  0  0  0  0
 32 76  2  0  0  0  0
 33 58  1  0  0  0  0
 33 67  1  0  0  0  0
 33 77  2  0  0  0  0
 34 60  1  0  0  0  0
 34 66  1  0  0  0  0
 34 78  2  0  0  0  0
 35 61  1  0  0  0  0
 35 73  1  0  0  0  0
 35 79  2  0  0  0  0
 36 68  1  0  0  0  0
 36 71  1  0  0  0  0
 36 80  2  0  0  0  0
 37 40  1  0  0  0  0
 38 51  1  0  0  0  0
 39 66  1  0  0  0  0
 40 43  1  0  0  0  0
 41 44  1  0  0  0  0
 41 46  1  0  0  0  0
 42 45  1  0  0  0  0
 42 47  1  0  0  0  0
 43 49  1  0  0  0  0
 44 50  1  0  0  0  0
 45 52  1  0  0  0  0
 46 67  1  0  0  0  0
 47 68  1  0  0  0  0
 48 52  1  0  0  0  0
 48 68  1  0  0  0  0
 49 72  1  0  0  0  0
 50 67  1  0  0  0  0
 51 66  1  0  0  0  0
 52 65  1  0  0  0  0
 53 61  1  0  0  0  0
 54 62  1  0  0  0  0
 55 62  1  0  0  0  0
 56 62  1  0  0  0  0
 57 74  1  0  0  0  0
 58 59  1  0  0  0  0
 59 82  1  0  0  0  0
 60 62  1  0  0  0  0
 60 73  1  0  0  0  0
 61 74  1  0  0  0  0
 64 65  1  0  0  0  0
M  CHG  1  74   1
M  ISO  4  36 100  59 101  71 100  82 101
M  END
> <Batch ID>
0151

> <Smiles>
CNC(C)C(=O)NC(C(=O)N1Cc2cc([101O:1][101CH2:1]CC(=O)N3CCCC3c3ncc([100NH:0][100C:0](=O)N4CCCC(n5nc(-c6ccc(Oc7ccc(F)cc7F)cc6)c(C(N)=O)c5N)C4)s3)ccc2CC1C(=O)NC1CCCc2ccccc21)C(C)(C)C

> <Shape>
0.233

> <Color>
0.068

> <Negative vol penalty>
0.000

$$$$

  -OEChem-04052303243D

 88 97  0     1  0  0  0  0  0999 V2000
  -30.1869  -22.7905    9.7485 C   0  0  0  0  0  0  0  0  0  0  0  0
  -29.7990  -22.4988   11.0523 C   0  0  0  0  0  0  0  0  0  0  0  0
  -23.0691   -9.9137   19.8914 C   0  0  0  0  0  0  0  0  0  0  0  0
  -24.0117   -9.7729   22.1115 C   0  0  0  0  0  0  0  0  0  0  0  0
  -30.7819  -24.0173    9.4573 C   0  0  0  0  0  0  0  0  0  0  0  0
  -30.0070  -23.4335   12.0660 C   0  0  0  0  0  0  0  0  0  0  0  0
  -25.9778  -23.9486   15.0902 C   0  0  0  0  0  0  0  0  0  0  0  0
  -22.3721   -8.7258   20.1119 C   0  0  0  0  0  0  0  0  0  0  0  0
  -23.3146   -8.5850   22.3321 C   0  0  0  0  0  0  0  0  0  0  0  0
  -25.7738  -22.9609   16.0527 C   0  0  0  0  0  0  0  0  0  0  0  0
  -21.5019   -5.7049   23.6117 C   0  0  0  0  0  0  0  0  0  0  0  0
  -20.8439   -5.5552   24.8324 C   0  0  0  0  0  0  0  0  0  0  0  0
  -27.1324  -18.5983   21.4561 C   0  0  0  0  0  0  0  0  0  0  0  0
  -26.7503  -24.3982   17.7260 C   0  0  0  0  0  0  0  0  0  0  0  0
  -26.5533  -18.0385   23.7339 C   0  0  0  0  0  0  0  0  0  0  0  0
  -25.1136  -19.4864   22.4425 C   0  0  0  0  0  0  0  0  0  0  0  0
  -19.5041   -7.5069   24.3495 C   0  0  0  0  0  0  0  0  0  0  0  0
  -23.8889  -10.4373   20.8912 C   0  0  0  0  0  0  0  0  0  0  0  0
  -24.1671  -12.9727   20.9349 C   0  0  0  0  0  0  0  0  0  0  0  0
  -30.9885  -24.9713   10.4662 C   0  0  0  0  0  0  0  0  0  0  0  0
  -26.5806  -25.1664   15.4367 C   0  0  0  0  0  0  0  0  0  0  0  0
  -30.6066  -24.6737   11.7883 C   0  0  0  0  0  0  0  0  0  0  0  0
  -27.4193  -17.9291   22.6458 C   0  0  0  0  0  0  0  0  0  0  0  0
  -26.9586  -25.4007   16.7665 C   0  0  0  0  0  0  0  0  0  0  0  0
  -25.9796  -19.3771   21.3545 C   0  0  0  0  0  0  0  0  0  0  0  0
  -22.4949   -8.0614   21.3323 C   0  0  0  0  0  0  0  0  0  0  0  0
  -26.1626  -23.1844   17.3702 C   0  0  0  0  0  0  0  0  0  0  0  0
  -21.1611   -6.7556   22.7598 C   0  0  0  0  0  0  0  0  0  0  0  0
  -19.8450   -6.4562   25.2013 C   0  0  0  0  0  0  0  0  0  0  0  0
  -25.4005  -18.8172   23.6322 C   0  0  0  0  0  0  0  0  0  0  0  0
  -20.1621   -7.6565   23.1287 C   0  0  0  0  0  0  0  0  0  0  0  0
  -24.6096  -11.6640   20.6638 C   0  0  0  0  0  0  0  0  0  0  0  0
  -25.2104  -13.7758   20.5438 C   0  0  0  0  0  0  0  0  0  0  0  0
  -22.9242  -13.4221   21.4906 C   0  0  0  0  0  0  0  0  0  0  0  0
  -29.2442  -26.6747   14.5799 C   0  0  0  0  0  0  0  0  0  0  0  0
  -24.6085  -20.4472   17.3991 C   0  0  0  0  0  0  0  0  0  0  0  0
  -28.0195  -29.0578   16.4083 C   0  0  0  0  0  0  0  0  0  0  0  0
  -25.9491  -29.9798   18.9598 C   0  0  0  0  0  0  0  0  0  0  0  0
  -30.7423  -14.7292   20.6952 C   0  0  0  0  0  0  0  0  0  0  0  0
  -31.6785  -26.2647   10.1118 C   0  0  0  0  0  0  0  0  0  0  0  0
  -26.7694  -26.2320   14.3920 C   0  0  0  0  0  0  0  0  0  0  0  0
  -27.5913  -26.6989   17.1940 C   0  0  0  0  0  0  0  0  0  0  0  0
  -31.5223  -27.3495   11.1745 C   0  0  0  0  0  0  0  0  0  0  0  0
  -29.4095  -12.7198   17.9236 C   0  0  0  0  0  0  0  0  0  0  0  0
  -31.7944  -26.7796   12.5630 C   0  0  0  0  0  0  0  0  0  0  0  0
  -28.0201  -12.3339   18.4378 C   0  0  0  0  0  0  0  0  0  0  0  0
  -30.0097  -17.7930   22.5077 C   0  0  0  0  0  0  0  0  0  0  0  0
  -30.4120  -12.9055   19.0612 C   0  0  0  0  0  0  0  0  0  0  0  0
  -30.9728  -16.6430   22.2599 C   0  0  0  0  0  0  0  0  0  0  0  0
  -28.7427  -15.9175   21.7598 C   0  0  0  0  0  0  0  0  0  0  0  0
  -28.5906  -13.4214   20.6372 C   0  0  0  0  0  0  0  0  0  0  0  0
  -28.6705  -17.0855   22.7576 C   0  0  2  0  0  0  0  0  0  0  0  0
  -30.7928  -25.6716   12.9106 C   0  0  1  0  0  0  0  0  0  0  0  0
  -27.8608  -27.2352   14.7523 C   0  0  1  0  0  0  0  0  0  0  0  0
  -27.5369  -13.3111   19.5273 C   0  0  2  0  0  0  0  0  0  0  0  0
  -24.4702  -19.0633   16.8180 C   0  0  0  0  0  0  0  0  0  0  0  0
  -25.1878  -31.9936   20.2492 C   0  0  0  0  0  0  0  0  0  0  0  0
  -30.6656  -29.0825   17.9274 C   0  0  0  0  0  0  0  0  0  0  0  0
  -29.5324  -30.3850   19.7406 C   0  0  0  0  0  0  0  0  0  0  0  0
  -29.7177  -31.3463   17.4462 C   0  0  0  0  0  0  0  0  0  0  0  0
  -23.1353  -29.5922   18.1287 C   0  0  0  0  0  0  0  0  0  0  0  0
  -26.5338  -19.9874   18.9994 C   0  0  0  0  0  0  0  0  0  0  0  0
  -25.9956  -20.8665   17.8754 C   0  0  2  0  0  0  0  0  0  1  0  0
  -28.1095  -29.4411   17.8657 C   0  0  1  0  0  0  0  0  0  0  0  0
  -24.9090  -31.0805   19.0654 C   0  0  2  0  0  0  0  0  0  0  0  0
  -29.4962  -30.0384   18.2368 C   0  0  0  0  0  0  0  0  0  0  0  0
  -25.8382  -11.6331   20.1408 N   0  0  0  0  0  0  0  0  0  0  0  0
  -26.1766  -12.9323   20.0800 N   0  0  0  0  0  0  0  0  0  0  0  0
  -27.7606  -27.7073   16.1348 N   0  0  0  0  0  0  0  0  0  0  0  0
  -29.8834  -13.8184   20.0727 N   0  0  0  0  0  0  0  0  0  0  0  0
  -30.1691  -15.6175   21.6086 N   0  0  0  0  0  0  0  0  0  0  0  0
  -25.3864  -15.1142   20.5548 N   0  0  0  0  0  0  0  0  0  0  0  0
  -21.9621  -12.4638   21.8375 N   0  0  0  0  0  0  0  0  0  0  0  0
  -25.6897  -20.0549   20.1520 N   0  0  0  0  0  0  0  0  0  0  0  0
  -29.5205  -26.2433   13.2965 N   0  0  0  0  0  0  0  0  0  0  0  0
  -26.9856  -30.3351   18.1228 N   0  0  0  0  0  0  0  0  0  0  0  0
  -23.5495  -30.4940   19.2343 N   0  3  0  0  0  0  0  0  0  0  0  0
  -22.6677  -14.6384   21.6590 O   0  0  0  0  0  0  0  0  0  0  0  0
  -30.0051  -26.6378   15.5398 O   0  0  0  0  0  0  0  0  0  0  0  0
  -23.6376  -21.2009   17.4724 O   0  0  0  0  0  0  0  0  0  0  0  0
  -28.1662  -29.9261   15.5444 O   0  0  0  0  0  0  0  0  0  0  0  0
  -25.8537  -28.9131   19.5627 O   0  0  0  0  0  0  0  0  0  0  0  0
  -31.9445  -14.7789   20.4067 O   0  0  0  0  0  0  0  0  0  0  0  0
  -21.8147   -6.9024   21.5479 O   0  0  0  0  0  0  0  0  0  0  0  0
  -25.9636  -22.2141   18.3191 O   0  0  0  0  0  0  0  0  0  1  0  0
  -19.2121   -6.3114   26.3730 F   0  0  0  0  0  0  0  0  0  0  0  0
  -24.5687  -18.9217   24.6769 F   0  0  0  0  0  0  0  0  0  0  0  0
  -19.8295   -8.6672   22.3140 F   0  0  0  0  0  0  0  0  0  0  0  0
  1  2  1  0  0  0  0
  1  5  2  0  0  0  0
  2  6  2  0  0  0  0
  3  8  2  0  0  0  0
  3 18  1  0  0  0  0
  4  9  1  0  0  0  0
  4 18  2  0  0  0  0
  5 20  1  0  0  0  0
  6 22  1  0  0  0  0
  7 10  2  0  0  0  0
  7 21  1  0  0  0  0
  8 26  1  0  0  0  0
  9 26  2  0  0  0  0
 10 27  1  0  0  0  0
 11 12  2  0  0  0  0
 11 28  1  0  0  0  0
 12 29  1  0  0  0  0
 13 23  1  0  0  0  0
 13 25  2  0  0  0  0
 14 24  1  0  0  0  0
 14 27  2  0  0  0  0
 15 23  2  0  0  0  0
 15 30  1  0  0  0  0
 16 25  1  0  0  0  0
 16 30  2  0  0  0  0
 17 29  2  0  0  0  0
 17 31  1  0  0  0  0
 18 32  1  0  0  0  0
 19 32  1  0  0  0  0
 19 33  2  0  0  0  0
 19 34  1  0  0  0  0
 20 22  2  0  0  0  0
 20 40  1  0  0  0  0
 21 24  2  0  0  0  0
 21 41  1  0  0  0  0
 22 53  1  0  0  0  0
 23 52  1  0  0  0  0
 24 42  1  0  0  0  0
 25 74  1  0  0  0  0
 26 84  1  0  0  0  0
 27 85  1  0  0  0  0
 28 31  2  0  0  0  0
 28 84  1  0  0  0  0
 29 86  1  0  0  0  0
 30 87  1  0  0  0  0
 31 88  1  0  0  0  0
 32 67  2  0  0  0  0
 33 68  1  0  0  0  0
 33 72  1  0  0  0  0
 34 73  1  0  0  0  0
 34 78  2  0  0  0  0
 35 54  1  0  0  0  0
 35 75  1  0  0  0  0
 35 79  2  0  0  0  0
 36 56  1  0  0  0  0
 36 63  1  0  0  0  0
 36 80  2  0  0  0  0
 37 64  1  0  0  0  0
 37 69  1  0  0  0  0
 37 81  2  0  0  0  0
 38 65  1  0  0  0  0
 38 76  1  0  0  0  0
 38 82  2  0  0  0  0
 39 70  1  0  0  0  0
 39 71  1  0  0  0  0
 39 83  2  0  0  0  0
 40 43  1  0  0  0  0
 41 54  1  0  0  0  0
 42 69  1  0  0  0  0
 43 45  1  0  0  0  0
 44 46  1  0  0  0  0
 44 48  1  0  0  0  0
 45 53  1  0  0  0  0
 46 55  1  0  0  0  0
 47 49  1  0  0  0  0
 47 52  1  0  0  0  0
 48 70  1  0  0  0  0
 49 71  1  0  0  0  0
 50 52  1  0  0  0  0
 50 71  1  0  0  0  0
 51 55  1  0  0  0  0
 51 70  1  0  0  0  0
 53 75  1  0  0  0  0
 54 69  1  0  0  0  0
 55 68  1  0  0  0  0
 57 65  1  0  0  0  0
 58 66  1  0  0  0  0
 59 66  1  0  0  0  0
 60 66  1  0  0  0  0
 61 77  1  0  0  0  0
 62 63  1  0  0  0  0
 62 74  1  0  0  0  0
 63 85  1  0  0  0  0
 64 66  1  0  0  0  0
 64 76  1  0  0  0  0
 65 77  1  0  0  0  0
 67 68  1  0  0  0  0
M  CHG  1  77   1
M  ISO  4  39 100  63 101  71 100  85 101
M  END
> <Batch ID>
0151

> <Smiles>
CNC(C)C(=O)NC(C(=O)N1Cc2cc([101O:1][101CH:1](CNc3cc(F)cc(C4CC[100N:0]([100C:0](=O)N5CCCC(n6nc(-c7ccc(Oc8ccc(F)cc8F)cc7)c(C(N)=O)c6N)C5)C4)c3)C(C)=O)ccc2CC1C(=O)NC1CCCc2ccccc21)C(C)(C)C

> <Shape>
0.194

> <Color>
0.181

> <Negative vol penalty>
0.000

$$$$

  -OEChem-04052303243D

 84 92  0     1  0  0  0  0  0999 V2000
  -20.6658  -22.8889   22.1960 C   0  0  0  0  0  0  0  0  0  0  0  0
  -22.0083  -22.6720   21.9027 C   0  0  0  0  0  0  0  0  0  0  0  0
  -30.7138  -22.7202   23.8195 C   0  0  0  0  0  0  0  0  0  0  0  0
  -21.9178  -28.2994   21.0557 C   0  0  0  0  0  0  0  0  0  0  0  0
  -23.2594  -27.9750   23.0386 C   0  0  0  0  0  0  0  0  0  0  0  0
  -19.9276  -21.9019   22.8478 C   0  0  0  0  0  0  0  0  0  0  0  0
  -22.6137  -21.4683   22.2619 C   0  0  0  0  0  0  0  0  0  0  0  0
  -26.9841  -18.4823   19.1816 C   0  0  0  0  0  0  0  0  0  0  0  0
  -31.0957  -21.4294   23.4540 C   0  0  0  0  0  0  0  0  0  0  0  0
  -30.0819  -23.5493   22.8927 C   0  0  0  0  0  0  0  0  0  0  0  0
  -20.7588  -28.2312   21.8287 C   0  0  0  0  0  0  0  0  0  0  0  0
  -22.1004  -27.9069   23.8117 C   0  0  0  0  0  0  0  0  0  0  0  0
  -28.3689  -18.4283   19.3338 C   0  0  0  0  0  0  0  0  0  0  0  0
  -19.0146  -30.2684   23.8879 C   0  0  0  0  0  0  0  0  0  0  0  0
  -18.0218  -31.2196   23.6530 C   0  0  0  0  0  0  0  0  0  0  0  0
  -28.1426  -16.3996   20.6193 C   0  0  0  0  0  0  0  0  0  0  0  0
  -30.2137  -21.7968   21.2349 C   0  0  0  0  0  0  0  0  0  0  0  0
  -16.4654  -29.4576   23.0962 C   0  0  0  0  0  0  0  0  0  0  0  0
  -23.1682  -28.1713   21.6607 C   0  0  0  0  0  0  0  0  0  0  0  0
  -25.1111  -29.3929   20.5470 C   0  0  0  0  0  0  0  0  0  0  0  0
  -20.5217  -20.6817   23.2066 C   0  0  0  0  0  0  0  0  0  0  0  0
  -26.1660  -17.4995   19.7573 C   0  0  0  0  0  0  0  0  0  0  0  0
  -21.8831  -20.4646   22.9203 C   0  0  0  0  0  0  0  0  0  0  0  0
  -26.7479  -16.4419   20.4707 C   0  0  0  0  0  0  0  0  0  0  0  0
  -30.8456  -20.9677   22.1617 C   0  0  0  0  0  0  0  0  0  0  0  0
  -29.8318  -23.0876   21.6004 C   0  0  0  0  0  0  0  0  0  0  0  0
  -20.8500  -28.0350   23.2067 C   0  0  0  0  0  0  0  0  0  0  0  0
  -28.9482  -17.3885   20.0552 C   0  0  0  0  0  0  0  0  0  0  0  0
  -18.7328  -28.9118   23.7269 C   0  0  0  0  0  0  0  0  0  0  0  0
  -16.7472  -30.8142   23.2572 C   0  0  0  0  0  0  0  0  0  0  0  0
  -17.4582  -28.5064   23.3311 C   0  0  0  0  0  0  0  0  0  0  0  0
  -24.3658  -28.2411   20.8626 C   0  0  0  0  0  0  0  0  0  0  0  0
  -26.1464  -28.9303   19.7719 C   0  0  0  0  0  0  0  0  0  0  0  0
  -24.8877  -30.7588   20.9211 C   0  0  0  0  0  0  0  0  0  0  0  0
  -23.8615  -17.4997   21.9466 C   0  0  0  0  0  0  0  0  0  0  0  0
  -23.5856  -14.3825   21.0926 C   0  0  0  0  0  0  0  0  0  0  0  0
  -25.0463  -11.6066   19.7482 C   0  0  0  0  0  0  0  0  0  0  0  0
  -31.8678  -18.7011   22.5801 C   0  0  0  0  0  0  0  0  0  0  0  0
  -28.8673  -23.6282   19.3369 C   0  0  0  0  0  0  0  0  0  0  0  0
  -19.6957  -19.6635   23.9520 C   0  0  0  0  0  0  0  0  0  0  0  0
  -24.6758  -17.5574   19.5613 C   0  0  0  0  0  0  0  0  0  0  0  0
  -25.9152  -15.3510   21.0912 C   0  0  0  0  0  0  0  0  0  0  0  0
  -20.3145  -18.2680   23.9640 C   0  0  0  0  0  0  0  0  0  0  0  0
  -27.2544  -25.4155   16.7137 C   0  0  0  0  0  0  0  0  0  0  0  0
  -21.7971  -18.3445   24.3144 C   0  0  0  0  0  0  0  0  0  0  0  0
  -26.4031  -26.4517   17.4510 C   0  0  0  0  0  0  0  0  0  0  0  0
  -27.3017  -24.0844   17.4618 C   0  0  0  0  0  0  0  0  0  0  0  0
  -26.8599  -25.2136   19.6063 C   0  0  0  0  0  0  0  0  0  0  0  0
  -22.5689  -19.1622   23.2718 C   0  0  1  0  0  0  0  0  0  0  0  0
  -23.9028  -16.7848   20.6257 C   0  0  1  0  0  0  0  0  0  0  0  0
  -26.8353  -26.5910   18.9239 C   0  0  2  0  0  0  0  0  0  0  0  0
  -24.5829   -9.1982   19.2172 C   0  0  0  0  0  0  0  0  0  0  0  0
  -32.8484  -16.3864   22.7749 C   0  0  0  0  0  0  0  0  0  0  0  0
  -33.0061  -17.6264   20.5853 C   0  0  0  0  0  0  0  0  0  0  0  0
  -23.8818  -13.6768   24.0463 C   0  0  0  0  0  0  0  0  0  0  0  0
  -24.3634  -11.3170   23.3625 C   0  0  0  0  0  0  0  0  0  0  0  0
  -22.1549  -12.3439   22.8234 C   0  0  0  0  0  0  0  0  0  0  0  0
  -25.4945  -12.0379   16.8547 C   0  0  0  0  0  0  0  0  0  0  0  0
  -30.7961  -16.7275   21.3984 C   0  0  0  0  0  0  0  0  0  1  0  0
  -24.2108  -13.0882   21.5541 C   0  0  1  0  0  0  0  0  0  0  0  0
  -24.5656  -10.6259   18.6938 C   0  0  2  0  0  0  0  0  0  0  0  0
  -32.1366  -17.3695   21.8288 C   0  0  0  0  0  0  0  0  0  0  0  0
  -23.6685  -12.6280   22.9367 C   0  0  0  0  0  0  0  0  0  0  0  0
  -24.8835  -27.1303   20.3313 N   0  0  0  0  0  0  0  0  0  0  0  0
  -25.9651  -27.5821   19.6739 N   0  0  0  0  0  0  0  0  0  0  0  0
  -24.4624  -15.4552   20.8771 N   0  0  0  0  0  0  0  0  0  0  0  0
  -27.7231  -24.2939   18.8487 N   0  0  0  0  0  0  0  0  0  0  0  0
  -27.1849  -29.5493   19.1714 N   0  0  0  0  0  0  0  0  0  0  0  0
  -23.7767  -31.0594   21.7210 N   0  0  0  0  0  0  0  0  0  0  0  0
  -31.2332  -19.6566   21.7915 N   0  0  0  0  0  0  0  0  0  0  0  0
  -29.1897  -23.9303   20.6595 N   0  0  0  0  0  0  0  0  0  0  0  0
  -22.7994  -18.3735   22.0805 N   0  0  0  0  0  0  0  0  0  0  0  0
  -23.9982  -12.1259   20.4784 N   0  0  0  0  0  0  0  0  0  0  0  0
  -25.4370  -10.6947   17.4868 N   0  3  0  0  0  0  0  0  0  0  0  0
  -25.6413  -31.6877   20.5432 O   0  0  0  0  0  0  0  0  0  0  0  0
  -24.7283  -17.2742   22.7830 O   0  0  0  0  0  0  0  0  0  0  0  0
  -22.3650  -14.4376   20.9226 O   0  0  0  0  0  0  0  0  0  0  0  0
  -26.2331  -11.8815   19.9105 O   0  0  0  0  0  0  0  0  0  0  0  0
  -32.2104  -18.8484   23.7518 O   0  0  0  0  0  0  0  0  0  0  0  0
  -29.5293  -22.8686   18.6250 O   0  0  0  0  0  0  0  0  0  0  0  0
  -19.7193  -27.9686   23.9613 O   0  0  0  0  0  0  0  0  0  0  0  0
  -30.2996  -17.3339   20.2058 O   0  0  0  0  0  0  0  0  0  1  0  0
  -15.7935  -31.7277   23.0331 F   0  0  0  0  0  0  0  0  0  0  0  0
  -17.1812  -27.2045   23.1760 F   0  0  0  0  0  0  0  0  0  0  0  0
  1  2  1  0  0  0  0
  1  6  2  0  0  0  0
  2  7  2  0  0  0  0
  3  9  2  0  0  0  0
  3 10  1  0  0  0  0
  4 11  2  0  0  0  0
  4 19  1  0  0  0  0
  5 12  1  0  0  0  0
  5 19  2  0  0  0  0
  6 21  1  0  0  0  0
  7 23  1  0  0  0  0
  8 13  2  0  0  0  0
  8 22  1  0  0  0  0
  9 25  1  0  0  0  0
 10 26  2  0  0  0  0
 11 27  1  0  0  0  0
 12 27  2  0  0  0  0
 13 28  1  0  0  0  0
 14 15  2  0  0  0  0
 14 29  1  0  0  0  0
 15 30  1  0  0  0  0
 16 24  1  0  0  0  0
 16 28  2  0  0  0  0
 17 25  2  0  0  0  0
 17 26  1  0  0  0  0
 18 30  2  0  0  0  0
 18 31  1  0  0  0  0
 19 32  1  0  0  0  0
 20 32  1  0  0  0  0
 20 33  2  0  0  0  0
 20 34  1  0  0  0  0
 21 23  2  0  0  0  0
 21 40  1  0  0  0  0
 22 24  2  0  0  0  0
 22 41  1  0  0  0  0
 23 49  1  0  0  0  0
 24 42  1  0  0  0  0
 25 70  1  0  0  0  0
 26 71  1  0  0  0  0
 27 81  1  0  0  0  0
 28 82  1  0  0  0  0
 29 31  2  0  0  0  0
 29 81  1  0  0  0  0
 30 83  1  0  0  0  0
 31 84  1  0  0  0  0
 32 64  2  0  0  0  0
 33 65  1  0  0  0  0
 33 68  1  0  0  0  0
 34 69  1  0  0  0  0
 34 75  2  0  0  0  0
 35 50  1  0  0  0  0
 35 72  1  0  0  0  0
 35 76  2  0  0  0  0
 36 60  1  0  0  0  0
 36 66  1  0  0  0  0
 36 77  2  0  0  0  0
 37 61  1  0  0  0  0
 37 73  1  0  0  0  0
 37 78  2  0  0  0  0
 38 62  1  0  0  0  0
 38 70  1  0  0  0  0
 38 79  2  0  0  0  0
 39 67  1  0  0  0  0
 39 71  1  0  0  0  0
 39 80  2  0  0  0  0
 40 43  1  0  0  0  0
 41 50  1  0  0  0  0
 42 66  1  0  0  0  0
 43 45  1  0  0  0  0
 44 46  1  0  0  0  0
 44 47  1  0  0  0  0
 45 49  1  0  0  0  0
 46 51  1  0  0  0  0
 47 67  1  0  0  0  0
 48 51  1  0  0  0  0
 48 67  1  0  0  0  0
 49 72  1  0  0  0  0
 50 66  1  0  0  0  0
 51 65  1  0  0  0  0
 52 61  1  0  0  0  0
 53 62  1  0  0  0  0
 54 62  1  0  0  0  0
 55 63  1  0  0  0  0
 56 63  1  0  0  0  0
 57 63  1  0  0  0  0
 58 74  1  0  0  0  0
 59 62  1  0  0  0  0
 59 82  1  0  0  0  0
 60 63  1  0  0  0  0
 60 73  1  0  0  0  0
 61 74  1  0  0  0  0
 64 65  1  0  0  0  0
M  CHG  1  74   1
M  ISO  4  39 100  59 101  71 100  82 101
M  END
> <Batch ID>
0151

> <Smiles>
CNC(C)C(=O)NC(C(=O)N1Cc2cc([101O:1][101CH2:1]C(C)(C)C(=O)Nc3cccc([100NH:0][100C:0](=O)N4CCCC(n5nc(-c6ccc(Oc7ccc(F)cc7F)cc6)c(C(N)=O)c5N)C4)c3)ccc2CC1C(=O)NC1CCCc2ccccc21)C(C)(C)C

> <Shape>
0.233

> <Color>
0.083

> <Negative vol penalty>
0.000

$$$$

  -OEChem-04052303243D

 81 89  0     1  0  0  0  0  0999 V2000
  -19.6080  -24.2181   23.3869 C   0  0  0  0  0  0  0  0  0  0  0  0
  -20.9909  -24.1538   23.2504 C   0  0  0  0  0  0  0  0  0  0  0  0
  -26.0542  -12.7671   21.6849 C   0  0  0  0  0  0  0  0  0  0  0  0
  -25.0107  -13.7204   19.7254 C   0  0  0  0  0  0  0  0  0  0  0  0
  -18.9246  -25.3741   23.0118 C   0  0  0  0  0  0  0  0  0  0  0  0
  -21.6913  -25.2451   22.7377 C   0  0  0  0  0  0  0  0  0  0  0  0
  -27.3006  -27.1045   24.3453 C   0  0  0  0  0  0  0  0  0  0  0  0
  -25.1604  -11.6971   21.6403 C   0  0  0  0  0  0  0  0  0  0  0  0
  -24.1170  -12.6504   19.6808 C   0  0  0  0  0  0  0  0  0  0  0  0
  -28.5551  -26.9070   23.7700 C   0  0  0  0  0  0  0  0  0  0  0  0
  -24.7940   -8.8289   19.8877 C   0  0  0  0  0  0  0  0  0  0  0  0
  -25.3105   -7.5451   20.0630 C   0  0  0  0  0  0  0  0  0  0  0  0
  -28.3690  -29.0345   22.6483 C   0  0  0  0  0  0  0  0  0  0  0  0
  -23.9030   -7.2439   22.0035 C   0  0  0  0  0  0  0  0  0  0  0  0
  -30.8885  -23.4309   17.7306 C   0  0  0  0  0  0  0  0  0  0  0  0
  -25.9793  -13.7787   20.7275 C   0  0  0  0  0  0  0  0  0  0  0  0
  -28.1588  -14.9696   20.1451 C   0  0  0  0  0  0  0  0  0  0  0  0
  -19.6180  -26.4837   22.5033 C   0  0  0  0  0  0  0  0  0  0  0  0
  -26.5649  -28.2656   24.0674 C   0  0  0  0  0  0  0  0  0  0  0  0
  -21.0165  -26.4165   22.3542 C   0  0  0  0  0  0  0  0  0  0  0  0
  -27.1066  -29.2456   23.2234 C   0  0  0  0  0  0  0  0  0  0  0  0
  -24.1918  -11.6387   20.6383 C   0  0  0  0  0  0  0  0  0  0  0  0
  -29.0882  -27.8707   22.9191 C   0  0  0  0  0  0  0  0  0  0  0  0
  -23.8321   -9.3202   20.7703 C   0  0  0  0  0  0  0  0  0  0  0  0
  -24.8650   -6.7526   21.1209 C   0  0  0  0  0  0  0  0  0  0  0  0
  -23.3865   -8.5277   21.8281 C   0  0  0  0  0  0  0  0  0  0  0  0
  -26.9019  -14.8846   20.7733 C   0  0  0  0  0  0  0  0  0  0  0  0
  -30.5093  -24.2477   18.7752 C   0  0  0  0  0  0  0  0  0  0  0  0
  -28.6340  -16.2100   20.4944 C   0  0  0  0  0  0  0  0  0  0  0  0
  -29.4229  -22.4353   19.3625 C   0  0  0  0  0  0  0  0  0  0  0  0
  -31.0809  -26.0492   20.0613 C   0  0  0  0  0  0  0  0  0  0  0  0
  -28.8362  -14.0129   19.3195 C   0  0  0  0  0  0  0  0  0  0  0  0
  -23.7572  -28.8697   22.7054 C   0  0  0  0  0  0  0  0  0  0  0  0
  -24.3934  -31.9078   23.6474 C   0  0  0  0  0  0  0  0  0  0  0  0
  -26.7256  -34.2455   24.5095 C   0  0  0  0  0  0  0  0  0  0  0  0
  -27.8976  -21.6812   21.2202 C   0  0  0  0  0  0  0  0  0  0  0  0
  -18.8309  -27.6940   22.0671 C   0  0  0  0  0  0  0  0  0  0  0  0
  -25.2248  -28.4759   24.7171 C   0  0  0  0  0  0  0  0  0  0  0  0
  -26.3659  -30.5188   22.9090 C   0  0  0  0  0  0  0  0  0  0  0  0
  -19.6878  -28.9439   21.8829 C   0  0  0  0  0  0  0  0  0  0  0  0
  -26.9405  -19.5460   23.9039 C   0  0  0  0  0  0  0  0  0  0  0  0
  -20.9469  -28.6153   21.0869 C   0  0  0  0  0  0  0  0  0  0  0  0
  -26.9486  -18.1499   23.2770 C   0  0  0  0  0  0  0  0  0  0  0  0
  -26.4419  -20.6054   22.9228 C   0  0  0  0  0  0  0  0  0  0  0  0
  -27.1430  -19.2321   21.0015 C   0  0  0  0  0  0  0  0  0  0  0  0
  -21.8142  -27.5887   21.8252 C   0  0  1  0  0  0  0  0  0  0  0  0
  -24.3406  -29.4603   23.9578 C   0  0  1  0  0  0  0  0  0  0  0  0
  -27.6992  -18.1409   21.9309 C   0  0  2  0  0  0  0  0  0  0  0  0
  -26.9454  -36.6501   25.1929 C   0  0  0  0  0  0  0  0  0  0  0  0
  -23.9201  -32.7695   20.7589 C   0  0  0  0  0  0  0  0  0  0  0  0
  -25.0561  -34.9359   21.2924 C   0  0  0  0  0  0  0  0  0  0  0  0
  -22.9533  -34.3072   22.4781 C   0  0  0  0  0  0  0  0  0  0  0  0
  -27.9298  -33.5162   27.1127 C   0  0  0  0  0  0  0  0  0  0  0  0
  -30.5376  -28.2712   21.0766 C   0  0  0  0  0  0  0  0  0  1  0  0
  -31.5513  -27.4630   20.2775 C   0  0  1  0  0  0  0  0  0  0  0  0
  -25.0998  -33.0920   23.0328 C   0  0  1  0  0  0  0  0  0  0  0  0
  -26.7966  -35.2154   25.6751 C   0  0  2  0  0  0  0  0  0  0  0  0
  -24.2707  -33.7514   21.8947 C   0  0  0  0  0  0  0  0  0  0  0  0
  -26.5978  -15.9834   21.4692 N   0  0  0  0  0  0  0  0  0  0  0  0
  -29.6685  -23.6787   19.7117 N   0  0  0  0  0  0  0  0  0  0  0  0
  -30.9594  -25.5756   18.8639 N   0  0  0  0  0  0  0  0  0  0  0  0
  -27.6706  -16.7705   21.2803 N   0  0  0  0  0  0  0  0  0  0  0  0
  -25.0565  -30.6753   23.5636 N   0  0  0  0  0  0  0  0  0  0  0  0
  -27.2017  -20.5401   21.6725 N   0  0  0  0  0  0  0  0  0  0  0  0
  -29.7780  -16.8649   20.2030 N   0  0  0  0  0  0  0  0  0  0  0  0
  -28.2054  -12.7884   19.0606 N   0  0  0  0  0  0  0  0  0  0  0  0
  -28.6109  -21.4903   20.0373 N   0  0  0  0  0  0  0  0  0  0  0  0
  -22.5497  -28.2257   22.8966 N   0  0  0  0  0  0  0  0  0  0  0  0
  -25.4232  -33.9916   24.1349 N   0  0  0  0  0  0  0  0  0  0  0  0
  -32.8492  -27.4432   21.0030 N   0  3  0  0  0  0  0  0  0  0  0  0
  -27.9589  -34.8905   26.5494 N   0  3  0  0  0  0  0  0  0  0  0  0
  -29.9744  -14.2308   18.8394 O   0  0  0  0  0  0  0  0  0  0  0  0
  -24.3573  -28.9908   21.6439 O   0  0  0  0  0  0  0  0  0  0  0  0
  -23.2971  -32.0718   24.1885 O   0  0  0  0  0  0  0  0  0  0  0  0
  -27.7258  -33.7643   23.9815 O   0  0  0  0  0  0  0  0  0  0  0  0
  -27.8854  -22.7412   21.8513 O   0  0  0  0  0  0  0  0  0  0  0  0
  -23.3197  -10.5947   20.5944 O   0  0  0  0  0  0  0  0  0  0  0  0
  -30.3122  -27.6800   22.3557 O   0  0  0  0  0  0  0  0  0  1  0  0
  -25.3599   -5.5192   21.2882 F   0  0  0  0  0  0  0  0  0  0  0  0
  -22.4617   -8.9938   22.6785 F   0  0  0  0  0  0  0  0  0  0  0  0
  -30.1707  -21.8848   17.9194 S   0  0  0  0  0  0  0  0  0  0  0  0
  1  2  1  0  0  0  0
  1  5  2  0  0  0  0
  2  6  2  0  0  0  0
  3  8  2  0  0  0  0
  3 16  1  0  0  0  0
  4  9  1  0  0  0  0
  4 16  2  0  0  0  0
  5 18  1  0  0  0  0
  6 20  1  0  0  0  0
  7 10  2  0  0  0  0
  7 19  1  0  0  0  0
  8 22  1  0  0  0  0
  9 22  2  0  0  0  0
 10 23  1  0  0  0  0
 11 12  2  0  0  0  0
 11 24  1  0  0  0  0
 12 25  1  0  0  0  0
 13 21  1  0  0  0  0
 13 23  2  0  0  0  0
 14 25  2  0  0  0  0
 14 26  1  0  0  0  0
 15 28  2  0  0  0  0
 15 81  1  0  0  0  0
 16 27  1  0  0  0  0
 17 27  1  0  0  0  0
 17 29  2  0  0  0  0
 17 32  1  0  0  0  0
 18 20  2  0  0  0  0
 18 37  1  0  0  0  0
 19 21  2  0  0  0  0
 19 38  1  0  0  0  0
 20 46  1  0  0  0  0
 21 39  1  0  0  0  0
 22 77  1  0  0  0  0
 23 78  1  0  0  0  0
 24 26  2  0  0  0  0
 24 77  1  0  0  0  0
 25 79  1  0  0  0  0
 26 80  1  0  0  0  0
 27 59  2  0  0  0  0
 28 60  1  0  0  0  0
 28 61  1  0  0  0  0
 29 62  1  0  0  0  0
 29 65  1  0  0  0  0
 30 60  2  0  0  0  0
 30 67  1  0  0  0  0
 30 81  1  0  0  0  0
 31 55  1  0  0  0  0
 31 61  2  0  0  0  0
 32 66  1  0  0  0  0
 32 72  2  0  0  0  0
 33 47  1  0  0  0  0
 33 68  1  0  0  0  0
 33 73  2  0  0  0  0
 34 56  1  0  0  0  0
 34 63  1  0  0  0  0
 34 74  2  0  0  0  0
 35 57  1  0  0  0  0
 35 69  1  0  0  0  0
 35 75  2  0  0  0  0
 36 64  1  0  0  0  0
 36 67  1  0  0  0  0
 36 76  2  0  0  0  0
 37 40  1  0  0  0  0
 38 47  1  0  0  0  0
 39 63  1  0  0  0  0
 40 42  1  0  0  0  0
 41 43  1  0  0  0  0
 41 44  1  0  0  0  0
 42 46  1  0  0  0  0
 43 48  1  0  0  0  0
 44 64  1  0  0  0  0
 45 48  1  0  0  0  0
 45 64  1  0  0  0  0
 46 68  1  0  0  0  0
 47 63  1  0  0  0  0
 48 62  1  0  0  0  0
 49 57  1  0  0  0  0
 50 58  1  0  0  0  0
 51 58  1  0  0  0  0
 52 58  1  0  0  0  0
 53 71  1  0  0  0  0
 54 55  1  0  0  0  0
 54 78  1  0  0  0  0
 55 70  1  0  0  0  0
 56 58  1  0  0  0  0
 56 69  1  0  0  0  0
 57 71  1  0  0  0  0
 59 62  1  0  0  0  0
M  CHG  2  70   1  71   1
M  ISO  4  36 100  54 101  67 100  78 101
M  END
> <Batch ID>
0151

> <Smiles>
CNC(C)C(=O)NC(C(=O)N1Cc2cc([101O:1][101CH2:1]C(=N)CNc3csc([100NH:0][100C:0](=O)N4CCCC(n5nc(-c6ccc(Oc7ccc(F)cc7F)cc6)c(C(N)=O)c5N)C4)n3)ccc2CC1C(=O)NC1CCCc2ccccc21)C(C)(C)C

> <Shape>
0.291

> <Color>
0.082

> <Negative vol penalty>
0.000

$$$$

  -OEChem-04052303243D

 84 93  0     1  0  0  0  0  0999 V2000
  -31.4013  -33.9288   18.3790 C   0  0  0  0  0  0  0  0  0  0  0  0
  -31.2182  -32.5684   18.1524 C   0  0  0  0  0  0  0  0  0  0  0  0
  -23.8452  -10.6908   23.2930 C   0  0  0  0  0  0  0  0  0  0  0  0
  -23.9079  -12.9821   24.0565 C   0  0  0  0  0  0  0  0  0  0  0  0
  -30.8607  -34.5235   19.5183 C   0  0  0  0  0  0  0  0  0  0  0  0
  -30.4953  -31.8017   19.0656 C   0  0  0  0  0  0  0  0  0  0  0  0
  -26.8434  -27.0495   17.8063 C   0  0  0  0  0  0  0  0  0  0  0  0
  -23.2720  -10.3029   24.5040 C   0  0  0  0  0  0  0  0  0  0  0  0
  -23.3347  -12.5943   25.2675 C   0  0  0  0  0  0  0  0  0  0  0  0
  -27.0461  -25.6711   17.8585 C   0  0  0  0  0  0  0  0  0  0  0  0
  -20.2168  -10.3769   25.9507 C   0  0  0  0  0  0  0  0  0  0  0  0
  -19.1306   -9.5032   25.9034 C   0  0  0  0  0  0  0  0  0  0  0  0
  -26.0568  -25.6151   20.0579 C   0  0  0  0  0  0  0  0  0  0  0  0
  -29.5648  -19.1900   20.9894 C   0  0  0  0  0  0  0  0  0  0  0  0
  -20.3705   -7.8910   27.2074 C   0  0  0  0  0  0  0  0  0  0  0  0
  -24.1632  -12.0304   23.0692 C   0  0  0  0  0  0  0  0  0  0  0  0
  -24.0831  -12.8392   20.6512 C   0  0  0  0  0  0  0  0  0  0  0  0
  -30.1225  -33.7656   20.4410 C   0  0  0  0  0  0  0  0  0  0  0  0
  -26.2548  -27.7238   18.8858 C   0  0  0  0  0  0  0  0  0  0  0  0
  -29.9454  -32.3866   20.2190 C   0  0  0  0  0  0  0  0  0  0  0  0
  -25.8454  -27.0017   20.0159 C   0  0  0  0  0  0  0  0  0  0  0  0
  -30.1652  -18.1336   21.7336 C   0  0  0  0  0  0  0  0  0  0  0  0
  -23.0168  -11.2546   25.4913 C   0  0  0  0  0  0  0  0  0  0  0  0
  -26.6554  -24.9541   18.9856 C   0  0  0  0  0  0  0  0  0  0  0  0
  -21.3800  -10.0077   26.6263 C   0  0  0  0  0  0  0  0  0  0  0  0
  -19.2074   -8.2602   26.5317 C   0  0  0  0  0  0  0  0  0  0  0  0
  -21.4568   -8.7648   27.2547 C   0  0  0  0  0  0  0  0  0  0  0  0
  -24.7559  -12.4316   21.8187 C   0  0  0  0  0  0  0  0  0  0  0  0
  -29.8966  -18.2323   23.0811 C   0  0  0  0  0  0  0  0  0  0  0  0
  -25.0867  -13.1116   19.7539 C   0  0  0  0  0  0  0  0  0  0  0  0
  -28.8598  -20.0557   21.7965 C   0  0  0  0  0  0  0  0  0  0  0  0
  -22.6767  -12.9608   20.4002 C   0  0  0  0  0  0  0  0  0  0  0  0
  -27.1943  -30.0111   20.8832 C   0  0  0  0  0  0  0  0  0  0  0  0
  -24.1184  -29.8469   21.9000 C   0  0  0  0  0  0  0  0  0  0  0  0
  -27.9272  -21.7870   20.2260 C   0  0  0  0  0  0  0  0  0  0  0  0
  -21.2572  -28.0095   22.1907 C   0  0  0  0  0  0  0  0  0  0  0  0
  -30.8260  -14.6866   20.4102 C   0  0  0  0  0  0  0  0  0  0  0  0
  -29.5976  -34.4432   21.6820 C   0  0  0  0  0  0  0  0  0  0  0  0
  -26.0188  -29.2070   18.8029 C   0  0  0  0  0  0  0  0  0  0  0  0
  -25.1907  -27.6753   21.1931 C   0  0  0  0  0  0  0  0  0  0  0  0
  -28.5260  -33.6356   22.4099 C   0  0  0  0  0  0  0  0  0  0  0  0
  -29.5705  -11.8543   18.6557 C   0  0  0  0  0  0  0  0  0  0  0  0
  -28.9574  -32.1791   22.5485 C   0  0  0  0  0  0  0  0  0  0  0  0
  -29.5945  -15.9980   24.4185 C   0  0  0  0  0  0  0  0  0  0  0  0
  -29.6071  -17.1021   25.4290 C   0  0  0  0  0  0  0  0  0  0  0  0
  -28.1335  -11.7179   19.1620 C   0  0  0  0  0  0  0  0  0  0  0  0
  -30.5171  -12.3159   19.7615 C   0  0  0  0  0  0  0  0  0  0  0  0
  -28.6657  -13.4124   20.9631 C   0  0  0  0  0  0  0  0  0  0  0  0
  -29.1462  -31.5264   21.1738 C   0  0  1  0  0  0  0  0  0  0  0  0
  -30.3981  -17.2511   24.1478 C   0  0  0  0  0  0  0  0  0  0  0  0
  -25.8790  -29.8671   20.1711 C   0  0  1  0  0  0  0  0  0  0  0  0
  -27.6639  -13.0031   19.8698 C   0  0  2  0  0  0  0  0  0  0  0  0
  -18.9224  -28.1307   23.1025 C   0  0  0  0  0  0  0  0  0  0  0  0
  -25.2044  -29.4623   24.7254 C   0  0  0  0  0  0  0  0  0  0  0  0
  -22.9364  -28.6542   25.4122 C   0  0  0  0  0  0  0  0  0  0  0  0
  -23.2254  -30.9831   24.5665 C   0  0  0  0  0  0  0  0  0  0  0  0
  -20.0657  -27.6189   19.5099 C   0  0  0  0  0  0  0  0  0  0  0  0
  -30.9811  -17.0617   21.1133 C   0  0  0  0  0  0  0  0  0  0  0  0
  -27.0704  -23.0353   20.3279 C   0  0  0  0  0  0  0  0  0  1  0  0
  -23.3795  -29.0482   22.9465 C   0  0  1  0  0  0  0  0  0  0  0  0
  -19.8087  -28.3460   21.8856 C   0  0  2  0  0  0  0  0  0  0  0  0
  -23.7005  -29.5242   24.3914 C   0  0  0  0  0  0  0  0  0  0  0  0
  -26.0841  -12.4423   21.6788 N   0  0  0  0  0  0  0  0  0  0  0  0
  -26.2541  -12.8600   20.4128 N   0  0  0  0  0  0  0  0  0  0  0  0
  -24.9872  -29.1280   21.0669 N   0  0  0  0  0  0  0  0  0  0  0  0
  -30.0153  -13.5398   20.3911 N   0  0  0  0  0  0  0  0  0  0  0  0
  -25.0757  -13.5392   18.4735 N   0  0  0  0  0  0  0  0  0  0  0  0
  -21.7838  -12.6407   21.4319 N   0  0  0  0  0  0  0  0  0  0  0  0
  -28.1213  -21.2209   21.4813 N   0  0  0  0  0  0  0  0  0  0  0  0
  -27.8640  -31.1851   20.5959 N   0  0  0  0  0  0  0  0  0  0  0  0
  -21.9659  -29.1216   22.5934 N   0  0  0  0  0  0  0  0  0  0  0  0
  -30.2718  -15.8050   21.0207 N   0  0  0  0  0  0  0  0  0  0  0  0
  -19.3005  -27.4898   20.7767 N   0  3  0  0  0  0  0  0  0  0  0  0
  -22.2249  -13.3264   19.2886 O   0  0  0  0  0  0  0  0  0  0  0  0
  -27.5728  -29.1234   21.6385 O   0  0  0  0  0  0  0  0  0  0  0  0
  -23.9261  -31.0628   21.8200 O   0  0  0  0  0  0  0  0  0  0  0  0
  -28.3569  -21.3890   19.1482 O   0  0  0  0  0  0  0  0  0  0  0  0
  -21.7133  -26.8731   22.0861 O   0  0  0  0  0  0  0  0  0  0  0  0
  -31.9577  -14.7136   19.9147 O   0  0  0  0  0  0  0  0  0  0  0  0
  -22.4572  -10.8766   26.6731 O   0  0  0  0  0  0  0  0  0  0  0  0
  -26.8527  -23.6087   19.0395 O   0  0  0  0  0  0  0  0  0  1  0  0
  -18.1636   -7.4219   26.4875 F   0  0  0  0  0  0  0  0  0  0  0  0
  -22.5712   -8.4050   27.9063 F   0  0  0  0  0  0  0  0  0  0  0  0
  -28.9239  -19.5940   23.4443 S   0  0  0  0  0  0  0  0  0  0  0  0
  1  2  1  0  0  0  0
  1  5  2  0  0  0  0
  2  6  2  0  0  0  0
  3  8  2  0  0  0  0
  3 16  1  0  0  0  0
  4  9  1  0  0  0  0
  4 16  2  0  0  0  0
  5 18  1  0  0  0  0
  6 20  1  0  0  0  0
  7 10  2  0  0  0  0
  7 19  1  0  0  0  0
  8 23  1  0  0  0  0
  9 23  2  0  0  0  0
 10 24  1  0  0  0  0
 11 12  2  0  0  0  0
 11 25  1  0  0  0  0
 12 26  1  0  0  0  0
 13 21  1  0  0  0  0
 13 24  2  0  0  0  0
 14 22  1  0  0  0  0
 14 31  2  0  0  0  0
 15 26  2  0  0  0  0
 15 27  1  0  0  0  0
 16 28  1  0  0  0  0
 17 28  1  0  0  0  0
 17 30  2  0  0  0  0
 17 32  1  0  0  0  0
 18 20  2  0  0  0  0
 18 38  1  0  0  0  0
 19 21  2  0  0  0  0
 19 39  1  0  0  0  0
 20 49  1  0  0  0  0
 21 40  1  0  0  0  0
 22 29  2  0  0  0  0
 22 58  1  0  0  0  0
 23 80  1  0  0  0  0
 24 81  1  0  0  0  0
 25 27  2  0  0  0  0
 25 80  1  0  0  0  0
 26 82  1  0  0  0  0
 27 83  1  0  0  0  0
 28 63  2  0  0  0  0
 29 50  1  0  0  0  0
 29 84  1  0  0  0  0
 30 64  1  0  0  0  0
 30 67  1  0  0  0  0
 31 69  1  0  0  0  0
 31 84  1  0  0  0  0
 32 68  1  0  0  0  0
 32 74  2  0  0  0  0
 33 51  1  0  0  0  0
 33 70  1  0  0  0  0
 33 75  2  0  0  0  0
 34 60  1  0  0  0  0
 34 65  1  0  0  0  0
 34 76  2  0  0  0  0
 35 59  1  0  0  0  0
 35 69  1  0  0  0  0
 35 77  2  0  0  0  0
 36 61  1  0  0  0  0
 36 71  1  0  0  0  0
 36 78  2  0  0  0  0
 37 66  1  0  0  0  0
 37 72  1  0  0  0  0
 37 79  2  0  0  0  0
 38 41  1  0  0  0  0
 39 51  1  0  0  0  0
 40 65  1  0  0  0  0
 41 43  1  0  0  0  0
 42 46  1  0  0  0  0
 42 47  1  0  0  0  0
 43 49  1  0  0  0  0
 44 45  1  0  0  0  0
 44 50  1  0  0  0  0
 45 50  1  0  0  0  0
 46 52  1  0  0  0  0
 47 66  1  0  0  0  0
 48 52  1  0  0  0  0
 48 66  1  0  0  0  0
 49 70  1  0  0  0  0
 51 65  1  0  0  0  0
 52 64  1  0  0  0  0
 53 61  1  0  0  0  0
 54 62  1  0  0  0  0
 55 62  1  0  0  0  0
 56 62  1  0  0  0  0
 57 73  1  0  0  0  0
 58 72  1  0  0  0  0
 59 81  1  0  0  0  0
 60 62  1  0  0  0  0
 60 71  1  0  0  0  0
 61 73  1  0  0  0  0
 63 64  1  0  0  0  0
M  CHG  1  73   1
M  ISO  4  37 100  59 101  72 100  81 101
M  END
> <Batch ID>
0151

> <Smiles>
CNC(C)C(=O)NC(C(=O)N1Cc2cc([101O:1][101CH2:1]C(=O)Nc3cc(C[100NH:0][100C:0](=O)N4CCCC(n5nc(-c6ccc(Oc7ccc(F)cc7F)cc6)c(C(N)=O)c5N)C4)c(C4CC4)s3)ccc2CC1C(=O)NC1CCCc2ccccc21)C(C)(C)C

> <Shape>
0.240

> <Color>
0.106

> <Negative vol penalty>
0.000

$$$$

  -OEChem-04052303243D

 86 94  0     1  0  0  0  0  0999 V2000
  -22.2136   -8.3852   20.4398 C   0  0  0  0  0  0  0  0  0  0  0  0
  -21.8802   -9.6864   20.8018 C   0  0  0  0  0  0  0  0  0  0  0  0
  -28.6120  -28.4916   20.4212 C   0  0  0  0  0  0  0  0  0  0  0  0
  -27.1638  -26.6574   19.8085 C   0  0  0  0  0  0  0  0  0  0  0  0
  -23.4372   -7.8451   20.8335 C   0  0  0  0  0  0  0  0  0  0  0  0
  -22.7698  -10.4480   21.5588 C   0  0  0  0  0  0  0  0  0  0  0  0
  -23.2566  -15.1753   19.8093 C   0  0  0  0  0  0  0  0  0  0  0  0
  -29.7285  -27.6972   20.1606 C   0  0  0  0  0  0  0  0  0  0  0  0
  -28.2803  -25.8630   19.5478 C   0  0  0  0  0  0  0  0  0  0  0  0
  -22.2369  -16.0756   20.1151 C   0  0  0  0  0  0  0  0  0  0  0  0
  -30.5456  -25.4899   17.0679 C   0  0  0  0  0  0  0  0  0  0  0  0
  -30.5419  -24.7343   15.8955 C   0  0  0  0  0  0  0  0  0  0  0  0
  -23.5857  -16.9897   21.8940 C   0  0  0  0  0  0  0  0  0  0  0  0
  -20.4156  -24.3230   23.4919 C   0  0  0  0  0  0  0  0  0  0  0  0
  -30.7451  -22.7105   17.1994 C   0  0  0  0  0  0  0  0  0  0  0  0
  -27.3296  -27.9717   20.2452 C   0  0  0  0  0  0  0  0  0  0  0  0
  -25.4979  -29.6293   19.6091 C   0  0  0  0  0  0  0  0  0  0  0  0
  -24.3464   -8.6038   21.5875 C   0  0  0  0  0  0  0  0  0  0  0  0
  -24.4462  -15.1681   20.5518 C   0  0  0  0  0  0  0  0  0  0  0  0
  -24.0061   -9.9171   21.9641 C   0  0  0  0  0  0  0  0  0  0  0  0
  -24.6200  -16.0900   21.5939 C   0  0  0  0  0  0  0  0  0  0  0  0
  -19.7374  -25.5527   23.6678 C   0  0  0  0  0  0  0  0  0  0  0  0
  -29.5627  -26.3829   19.7238 C   0  0  0  0  0  0  0  0  0  0  0  0
  -22.4002  -16.9810   21.1594 C   0  0  0  0  0  0  0  0  0  0  0  0
  -30.6491  -24.8559   18.3060 C   0  0  0  0  0  0  0  0  0  0  0  0
  -30.6416  -23.3445   15.9612 C   0  0  0  0  0  0  0  0  0  0  0  0
  -30.7489  -23.4662   18.3718 C   0  0  0  0  0  0  0  0  0  0  0  0
  -26.1759  -28.7917   20.5149 C   0  0  0  0  0  0  0  0  0  0  0  0
  -18.7881  -25.6109   22.6742 C   0  0  0  0  0  0  0  0  0  0  0  0
  -24.4817  -30.1835   20.3486 C   0  0  0  0  0  0  0  0  0  0  0  0
  -19.8322  -23.7172   22.4035 C   0  0  0  0  0  0  0  0  0  0  0  0
  -25.7628  -29.8837   18.2232 C   0  0  0  0  0  0  0  0  0  0  0  0
  -25.9268  -13.0441   22.3957 C   0  0  0  0  0  0  0  0  0  0  0  0
  -20.7965  -20.1982   21.6504 C   0  0  0  0  0  0  0  0  0  0  0  0
  -28.2636  -15.2934   22.4410 C   0  0  0  0  0  0  0  0  0  0  0  0
  -29.1315  -18.5767   22.1041 C   0  0  0  0  0  0  0  0  0  0  0  0
  -21.5770  -28.3959   25.2698 C   0  0  0  0  0  0  0  0  0  0  0  0
  -25.6369   -7.9608   22.0300 C   0  0  0  0  0  0  0  0  0  0  0  0
  -25.5472  -14.2086   20.1921 C   0  0  0  0  0  0  0  0  0  0  0  0
  -25.8860  -16.1367   22.4084 C   0  0  0  0  0  0  0  0  0  0  0  0
  -26.6826   -8.9628   22.5125 C   0  0  0  0  0  0  0  0  0  0  0  0
  -23.3666  -31.4420   24.8279 C   0  0  0  0  0  0  0  0  0  0  0  0
  -26.0531   -9.9744   23.4649 C   0  0  0  0  0  0  0  0  0  0  0  0
  -24.2284  -31.1838   23.5907 C   0  0  0  0  0  0  0  0  0  0  0  0
  -23.2313  -30.1906   25.6926 C   0  0  0  0  0  0  0  0  0  0  0  0
  -23.6127  -28.7349   23.7410 C   0  0  0  0  0  0  0  0  0  0  0  0
  -24.9551  -10.7833   22.7637 C   0  0  1  0  0  0  0  0  0  0  0  0
  -26.5109  -13.9456   21.3451 C   0  0  1  0  0  0  0  0  0  0  0  0
  -23.7322  -29.9526   22.8087 C   0  0  2  0  0  0  0  0  0  0  0  0
  -31.1101  -20.1147   22.2355 C   0  0  0  0  0  0  0  0  0  0  0  0
  -18.4074  -27.9943   21.9527 C   0  0  0  0  0  0  0  0  0  0  0  0
  -16.7507  -26.8602   23.4711 C   0  0  0  0  0  0  0  0  0  0  0  0
  -16.8724  -26.2523   21.0634 C   0  0  0  0  0  0  0  0  0  0  0  0
  -28.1699  -15.1496   25.4874 C   0  0  0  0  0  0  0  0  0  0  0  0
  -29.4257  -17.3143   25.5586 C   0  0  0  0  0  0  0  0  0  0  0  0
  -30.4713  -15.3015   24.5204 C   0  0  0  0  0  0  0  0  0  0  0  0
  -28.8397  -19.3828   19.2714 C   0  0  0  0  0  0  0  0  0  0  0  0
  -20.0002  -26.5636   24.7083 C   0  0  0  0  0  0  0  0  0  0  0  0
  -21.0993  -21.5779   22.1951 C   0  0  0  0  0  0  0  0  0  0  0  0
  -21.7961  -19.1170   22.0128 C   0  0  0  0  0  0  0  0  0  1  0  0
  -28.5877  -16.4808   23.3149 C   0  0  1  0  0  0  0  0  0  0  0  0
  -30.2503  -19.2483   21.3284 C   0  0  2  0  0  0  0  0  0  0  0  0
  -17.7702  -26.6060   22.3070 C   0  0  0  0  0  0  0  0  0  0  0  0
  -29.1389  -16.0596   24.7064 C   0  0  0  0  0  0  0  0  0  0  0  0
  -25.6361  -28.8091   21.7365 N   0  0  0  0  0  0  0  0  0  0  0  0
  -24.6082  -29.6645   21.6036 N   0  0  0  0  0  0  0  0  0  0  0  0
  -26.9309  -15.1742   22.0222 N   0  0  0  0  0  0  0  0  0  0  0  0
  -22.7554  -29.0603   24.8915 N   0  0  0  0  0  0  0  0  0  0  0  0
  -23.5014  -31.0592   20.0414 N   0  0  0  0  0  0  0  0  0  0  0  0
  -26.8462  -29.2311   17.6193 N   0  0  0  0  0  0  0  0  0  0  0  0
  -20.0813  -22.5061   21.7739 N   0  0  0  0  0  0  0  0  0  0  0  0
  -25.5396  -11.8051   21.9219 N   0  0  0  0  0  0  0  0  0  0  0  0
  -29.4960  -17.3209   22.5418 N   0  0  0  0  0  0  0  0  0  0  0  0
  -21.1930  -27.3398   24.4526 N   0  0  0  0  0  0  0  0  0  0  0  0
  -29.6882  -20.1101   20.2503 N   0  3  0  0  0  0  0  0  0  0  0  0
  -25.0696  -30.6792   17.5448 O   0  0  0  0  0  0  0  0  0  0  0  0
  -25.8354  -13.4425   23.5509 O   0  0  0  0  0  0  0  0  0  0  0  0
  -19.8081  -19.9583   20.9581 O   0  0  0  0  0  0  0  0  0  0  0  0
  -29.1614  -14.5047   22.1351 O   0  0  0  0  0  0  0  0  0  0  0  0
  -28.0445  -19.1138   22.3051 O   0  0  0  0  0  0  0  0  0  0  0  0
  -20.9132  -28.7233   26.2594 O   0  0  0  0  0  0  0  0  0  0  0  0
  -18.8392  -24.4958   21.8992 O   0  0  0  0  0  0  0  0  0  0  0  0
  -30.6519  -25.6075   19.4691 O   0  0  0  0  0  0  0  0  0  0  0  0
  -21.4062  -17.8604   21.4605 O   0  0  0  0  0  0  0  0  0  1  0  0
  -30.6365  -22.6188   14.8354 F   0  0  0  0  0  0  0  0  0  0  0  0
  -30.8474  -22.8514   19.5584 F   0  0  0  0  0  0  0  0  0  0  0  0
  1  2  1  0  0  0  0
  1  5  2  0  0  0  0
  2  6  2  0  0  0  0
  3  8  2  0  0  0  0
  3 16  1  0  0  0  0
  4  9  1  0  0  0  0
  4 16  2  0  0  0  0
  5 18  1  0  0  0  0
  6 20  1  0  0  0  0
  7 10  2  0  0  0  0
  7 19  1  0  0  0  0
  8 23  1  0  0  0  0
  9 23  2  0  0  0  0
 10 24  1  0  0  0  0
 11 12  2  0  0  0  0
 11 25  1  0  0  0  0
 12 26  1  0  0  0  0
 13 21  1  0  0  0  0
 13 24  2  0  0  0  0
 14 22  1  0  0  0  0
 14 31  2  0  0  0  0
 15 26  2  0  0  0  0
 15 27  1  0  0  0  0
 16 28  1  0  0  0  0
 17 28  1  0  0  0  0
 17 30  2  0  0  0  0
 17 32  1  0  0  0  0
 18 20  2  0  0  0  0
 18 38  1  0  0  0  0
 19 21  2  0  0  0  0
 19 39  1  0  0  0  0
 20 47  1  0  0  0  0
 21 40  1  0  0  0  0
 22 29  2  0  0  0  0
 22 58  1  0  0  0  0
 23 83  1  0  0  0  0
 24 84  1  0  0  0  0
 25 27  2  0  0  0  0
 25 83  1  0  0  0  0
 26 85  1  0  0  0  0
 27 86  1  0  0  0  0
 28 65  2  0  0  0  0
 29 63  1  0  0  0  0
 29 82  1  0  0  0  0
 30 66  1  0  0  0  0
 30 69  1  0  0  0  0
 31 71  1  0  0  0  0
 31 82  1  0  0  0  0
 32 70  1  0  0  0  0
 32 76  2  0  0  0  0
 33 48  1  0  0  0  0
 33 72  1  0  0  0  0
 33 77  2  0  0  0  0
 34 59  1  0  0  0  0
 34 60  1  0  0  0  0
 34 78  2  0  0  0  0
 35 61  1  0  0  0  0
 35 67  1  0  0  0  0
 35 79  2  0  0  0  0
 36 62  1  0  0  0  0
 36 73  1  0  0  0  0
 36 80  2  0  0  0  0
 37 68  1  0  0  0  0
 37 74  1  0  0  0  0
 37 81  2  0  0  0  0
 38 41  1  0  0  0  0
 39 48  1  0  0  0  0
 40 67  1  0  0  0  0
 41 43  1  0  0  0  0
 42 44  1  0  0  0  0
 42 45  1  0  0  0  0
 43 47  1  0  0  0  0
 44 49  1  0  0  0  0
 45 68  1  0  0  0  0
 46 49  1  0  0  0  0
 46 68  1  0  0  0  0
 47 72  1  0  0  0  0
 48 67  1  0  0  0  0
 49 66  1  0  0  0  0
 50 62  1  0  0  0  0
 51 63  1  0  0  0  0
 52 63  1  0  0  0  0
 53 63  1  0  0  0  0
 54 64  1  0  0  0  0
 55 64  1  0  0  0  0
 56 64  1  0  0  0  0
 57 75  1  0  0  0  0
 58 74  1  0  0  0  0
 59 71  1  0  0  0  0
 60 84  1  0  0  0  0
 61 64  1  0  0  0  0
 61 73  1  0  0  0  0
 62 75  1  0  0  0  0
 65 66  1  0  0  0  0
M  CHG  1  75   1
M  ISO  4  37 100  60 101  74 100  84 101
M  END
> <Batch ID>
0151

> <Smiles>
CNC(C)C(=O)NC(C(=O)N1Cc2cc([101O:1][101CH2:1]C(=O)CNc3cc(C[100NH:0][100C:0](=O)N4CCCC(n5nc(-c6ccc(Oc7ccc(F)cc7F)cc6)c(C(N)=O)c5N)C4)c(C(C)(C)C)o3)ccc2CC1C(=O)NC1CCCc2ccccc21)C(C)(C)C

> <Shape>
0.245

> <Color>
0.044

> <Negative vol penalty>
0.000

$$$$

  -OEChem-04052303243D

 84 93  0     1  0  0  0  0  0999 V2000
  -20.1382  -35.4300   18.2197 C   0  0  0  0  0  0  0  0  0  0  0  0
  -21.3821  -34.9107   17.8756 C   0  0  0  0  0  0  0  0  0  0  0  0
  -24.5617   -9.7474   21.5268 C   0  0  0  0  0  0  0  0  0  0  0  0
  -24.8714  -10.8901   23.6329 C   0  0  0  0  0  0  0  0  0  0  0  0
  -19.5055  -35.0051   19.3873 C   0  0  0  0  0  0  0  0  0  0  0  0
  -21.9947  -33.9671   18.6995 C   0  0  0  0  0  0  0  0  0  0  0  0
  -26.2862  -28.2393   18.3973 C   0  0  0  0  0  0  0  0  0  0  0  0
  -24.2823   -8.5639   22.2100 C   0  0  0  0  0  0  0  0  0  0  0  0
  -24.5919   -9.7066   24.3161 C   0  0  0  0  0  0  0  0  0  0  0  0
  -27.4672  -27.7478   18.9519 C   0  0  0  0  0  0  0  0  0  0  0  0
  -21.6628   -7.1946   23.8521 C   0  0  0  0  0  0  0  0  0  0  0  0
  -20.5715   -6.4400   23.4220 C   0  0  0  0  0  0  0  0  0  0  0  0
  -26.2445  -27.0293   20.9033 C   0  0  0  0  0  0  0  0  0  0  0  0
  -29.2810  -20.4258   20.1352 C   0  0  0  0  0  0  0  0  0  0  0  0
  -22.0386   -4.5732   22.9747 C   0  0  0  0  0  0  0  0  0  0  0  0
  -27.5002  -21.7766   20.7725 C   0  0  0  0  0  0  0  0  0  0  0  0
  -24.8563  -10.9106   22.2383 C   0  0  0  0  0  0  0  0  0  0  0  0
  -24.2264  -13.1214   21.1323 C   0  0  0  0  0  0  0  0  0  0  0  0
  -20.1062  -34.0486   20.2209 C   0  0  0  0  0  0  0  0  0  0  0  0
  -25.0754  -28.1391   19.0974 C   0  0  0  0  0  0  0  0  0  0  0  0
  -21.3700  -33.5300   19.8799 C   0  0  0  0  0  0  0  0  0  0  0  0
  -25.0492  -27.5180   20.3543 C   0  0  0  0  0  0  0  0  0  0  0  0
  -28.7731  -21.7523   20.2467 C   0  0  0  0  0  0  0  0  0  0  0  0
  -24.2973   -8.5435   23.6047 C   0  0  0  0  0  0  0  0  0  0  0  0
  -27.4470  -27.1453   20.2063 C   0  0  0  0  0  0  0  0  0  0  0  0
  -22.9421   -6.6386   23.8436 C   0  0  0  0  0  0  0  0  0  0  0  0
  -20.7594   -5.1293   22.9833 C   0  0  0  0  0  0  0  0  0  0  0  0
  -23.1300   -5.3279   23.4049 C   0  0  0  0  0  0  0  0  0  0  0  0
  -25.1456  -12.1333   21.5331 C   0  0  0  0  0  0  0  0  0  0  0  0
  -24.9951  -14.0712   20.5049 C   0  0  0  0  0  0  0  0  0  0  0  0
  -28.3767  -19.4865   20.5803 C   0  0  0  0  0  0  0  0  0  0  0  0
  -31.7519  -25.2714   20.6851 C   0  0  0  0  0  0  0  0  0  0  0  0
  -30.4262  -25.1326   20.5046 C   0  0  0  0  0  0  0  0  0  0  0  0
  -22.8049  -13.1759   21.3113 C   0  0  0  0  0  0  0  0  0  0  0  0
  -22.9772  -30.2246   20.2600 C   0  0  0  0  0  0  0  0  0  0  0  0
  -21.2655  -27.5475   20.9119 C   0  0  0  0  0  0  0  0  0  0  0  0
  -21.2568  -24.1857   21.4994 C   0  0  0  0  0  0  0  0  0  0  0  0
  -29.5422  -17.2757   20.2637 C   0  0  0  0  0  0  0  0  0  0  0  0
  -19.4053  -33.6552   21.4970 C   0  0  0  0  0  0  0  0  0  0  0  0
  -23.8057  -28.6502   18.4737 C   0  0  0  0  0  0  0  0  0  0  0  0
  -23.7719  -27.3673   21.1379 C   0  0  0  0  0  0  0  0  0  0  0  0
  -32.6351  -24.2995   21.4060 C   0  0  0  0  0  0  0  0  0  0  0  0
  -19.9518  -32.3743   22.1222 C   0  0  0  0  0  0  0  0  0  0  0  0
  -31.9083  -23.0398   21.8612 C   0  0  0  0  0  0  0  0  0  0  0  0
  -29.8379  -13.9461   19.0375 C   0  0  0  0  0  0  0  0  0  0  0  0
  -21.4766  -32.4036   22.1528 C   0  0  0  0  0  0  0  0  0  0  0  0
  -28.5679  -13.2589   19.5445 C   0  0  0  0  0  0  0  0  0  0  0  0
  -30.3849  -14.9475   20.0533 C   0  0  0  0  0  0  0  0  0  0  0  0
  -28.1459  -15.2573   21.0330 C   0  0  0  0  0  0  0  0  0  0  0  0
  -30.4488  -23.3257   22.1757 C   0  0  0  0  0  0  0  0  0  0  0  0
  -22.0553  -32.4863   20.7351 C   0  0  1  0  0  0  0  0  0  0  0  0
  -22.7175  -28.9557   19.4984 C   0  0  1  0  0  0  0  0  0  0  0  0
  -27.5213  -14.2869   20.0172 C   0  0  2  0  0  0  0  0  0  0  0  0
  -19.7105  -22.2841   22.0382 C   0  0  0  0  0  0  0  0  0  0  0  0
  -21.0763  -28.5220   23.7971 C   0  0  0  0  0  0  0  0  0  0  0  0
  -20.3865  -26.2083   24.4600 C   0  0  0  0  0  0  0  0  0  0  0  0
  -18.9672  -27.5297   22.8908 C   0  0  0  0  0  0  0  0  0  0  0  0
  -21.9634  -22.7527   19.0082 C   0  0  0  0  0  0  0  0  0  0  0  0
  -29.5365  -22.9780   19.8394 C   0  0  0  0  0  0  0  0  0  0  0  0
  -29.5985  -26.1981   19.8459 C   0  0  0  0  0  0  0  0  0  1  0  0
  -21.1725  -26.5960   22.0803 C   0  0  1  0  0  0  0  0  0  0  0  0
  -20.4023  -23.0663   20.9326 C   0  0  2  0  0  0  0  0  0  0  0  0
  -20.4252  -27.2184   23.2934 C   0  0  0  0  0  0  0  0  0  0  0  0
  -26.4021  -12.4280   21.1890 N   0  0  0  0  0  0  0  0  0  0  0  0
  -26.2779  -13.6119   20.5654 N   0  0  0  0  0  0  0  0  0  0  0  0
  -22.5578  -27.8886   20.4884 N   0  0  0  0  0  0  0  0  0  0  0  0
  -29.3391  -15.8922   20.4517 N   0  0  0  0  0  0  0  0  0  0  0  0
  -24.6920  -15.2459   19.9129 N   0  0  0  0  0  0  0  0  0  0  0  0
  -22.1743  -12.1165   21.9779 N   0  0  0  0  0  0  0  0  0  0  0  0
  -28.4659  -18.0741   20.6495 N   0  0  0  0  0  0  0  0  0  0  0  0
  -22.0039  -31.1910   20.0918 N   0  0  0  0  0  0  0  0  0  0  0  0
  -20.5624  -25.3751   21.5650 N   0  0  0  0  0  0  0  0  0  0  0  0
  -29.7604  -23.9395   20.9777 N   0  3  2  0  0  0  0  0  0  0  0  0
  -21.2428  -22.1217   20.1437 N   0  3  0  0  0  0  0  0  0  0  0  0
  -22.1123  -14.1277   20.8780 O   0  0  0  0  0  0  0  0  0  0  0  0
  -23.9852  -30.3195   20.9504 O   0  0  0  0  0  0  0  0  0  0  0  0
  -20.2296  -27.9667   20.3895 O   0  0  0  0  0  0  0  0  0  0  0  0
  -22.4224  -24.0205   21.8524 O   0  0  0  0  0  0  0  0  0  0  0  0
  -30.5826  -17.7177   19.7696 O   0  0  0  0  0  0  0  0  0  0  0  0
  -24.0245   -7.3888   24.2717 O   0  0  0  0  0  0  0  0  0  0  0  0
  -28.5983  -26.6653   20.7503 O   0  0  0  0  0  0  0  0  0  1  0  0
  -19.7110   -4.4042   22.5717 F   0  0  0  0  0  0  0  0  0  0  0  0
  -24.3564   -4.7879   23.3955 F   0  0  0  0  0  0  0  0  0  0  0  0
  -26.9224  -20.2046   21.1295 S   0  0  0  0  0  0  0  0  0  0  0  0
  1  2  1  0  0  0  0
  1  5  2  0  0  0  0
  2  6  2  0  0  0  0
  3  8  2  0  0  0  0
  3 17  1  0  0  0  0
  4  9  1  0  0  0  0
  4 17  2  0  0  0  0
  5 19  1  0  0  0  0
  6 21  1  0  0  0  0
  7 10  2  0  0  0  0
  7 20  1  0  0  0  0
  8 24  1  0  0  0  0
  9 24  2  0  0  0  0
 10 25  1  0  0  0  0
 11 12  2  0  0  0  0
 11 26  1  0  0  0  0
 12 27  1  0  0  0  0
 13 22  1  0  0  0  0
 13 25  2  0  0  0  0
 14 23  1  0  0  0  0
 14 31  2  0  0  0  0
 15 27  2  0  0  0  0
 15 28  1  0  0  0  0
 16 23  2  0  0  0  0
 16 84  1  0  0  0  0
 17 29  1  0  0  0  0
 18 29  1  0  0  0  0
 18 30  2  0  0  0  0
 18 34  1  0  0  0  0
 19 21  2  0  0  0  0
 19 39  1  0  0  0  0
 20 22  2  0  0  0  0
 20 40  1  0  0  0  0
 21 51  1  0  0  0  0
 22 41  1  0  0  0  0
 23 59  1  0  0  0  0
 24 80  1  0  0  0  0
 25 81  1  0  0  0  0
 26 28  2  0  0  0  0
 26 80  1  0  0  0  0
 27 82  1  0  0  0  0
 28 83  1  0  0  0  0
 29 64  2  0  0  0  0
 30 65  1  0  0  0  0
 30 68  1  0  0  0  0
 31 70  1  0  0  0  0
 31 84  1  0  0  0  0
 32 33  2  0  0  0  0
 32 42  1  0  0  0  0
 33 60  1  0  0  0  0
 33 73  1  0  0  0  0
 34 69  1  0  0  0  0
 34 75  2  0  0  0  0
 35 52  1  0  0  0  0
 35 71  1  0  0  0  0
 35 76  2  0  0  0  0
 36 61  1  0  0  0  0
 36 66  1  0  0  0  0
 36 77  2  0  0  0  0
 37 62  1  0  0  0  0
 37 72  1  0  0  0  0
 37 78  2  0  0  0  0
 38 67  1  0  0  0  0
 38 70  1  0  0  0  0
 38 79  2  0  0  0  0
 39 43  1  0  0  0  0
 40 52  1  0  0  0  0
 41 66  1  0  0  0  0
 42 44  1  0  0  0  0
 43 46  1  0  0  0  0
 44 50  1  0  0  0  0
 45 47  1  0  0  0  0
 45 48  1  0  0  0  0
 46 51  1  0  0  0  0
 47 53  1  0  0  0  0
 48 67  1  0  0  0  0
 49 53  1  0  0  0  0
 49 67  1  0  0  0  0
 50 73  1  0  0  0  0
 51 71  1  0  0  0  0
 52 66  1  0  0  0  0
 53 65  1  0  0  0  0
 54 62  1  0  0  0  0
 55 63  1  0  0  0  0
 56 63  1  0  0  0  0
 57 63  1  0  0  0  0
 58 74  1  0  0  0  0
 59 73  1  0  0  0  0
 60 81  1  0  0  0  0
 61 63  1  0  0  0  0
 61 72  1  0  0  0  0
 62 74  1  0  0  0  0
 64 65  1  0  0  0  0
M  CHG  2  73   1  74   1
M  ISO  4  38 100  60 101  70 100  81 101
M  END
> <Batch ID>
0151

> <Smiles>
CNC(C)C(=O)NC(C(=O)N1Cc2cc([101O:1][101CH2:1]C3=CCCCN3Cc3csc([100NH:0][100C:0](=O)N4CCCC(n5nc(-c6ccc(Oc7ccc(F)cc7F)cc6)c(C(N)=O)c5N)C4)c3)ccc2CC1C(=O)NC1CCCc2ccccc21)C(C)(C)C

> <Shape>
0.290

> <Color>
0.116

> <Negative vol penalty>
0.000

$$$$

  -OEChem-04052303243D

 84 93  0     1  0  0  0  0  0999 V2000
  -26.0388  -29.8066   11.2319 C   0  0  0  0  0  0  0  0  0  0  0  0
  -26.5714  -29.2041   12.3671 C   0  0  0  0  0  0  0  0  0  0  0  0
  -22.8498  -10.3709   21.1178 C   0  0  0  0  0  0  0  0  0  0  0  0
  -24.6435   -8.9051   21.8041 C   0  0  0  0  0  0  0  0  0  0  0  0
  -25.4065  -31.0450   11.3329 C   0  0  0  0  0  0  0  0  0  0  0  0
  -26.4730  -29.8404   13.6040 C   0  0  0  0  0  0  0  0  0  0  0  0
  -25.0672  -26.6840   17.3061 C   0  0  0  0  0  0  0  0  0  0  0  0
  -21.9800   -9.2818   21.0649 C   0  0  0  0  0  0  0  0  0  0  0  0
  -23.7736   -7.8160   21.7513 C   0  0  0  0  0  0  0  0  0  0  0  0
  -26.0453  -25.8381   17.8272 C   0  0  0  0  0  0  0  0  0  0  0  0
  -21.3417   -6.4768   23.6781 C   0  0  0  0  0  0  0  0  0  0  0  0
  -21.3727   -5.5725   24.7396 C   0  0  0  0  0  0  0  0  0  0  0  0
  -29.4146  -18.5030   22.4157 C   0  0  0  0  0  0  0  0  0  0  0  0
  -26.3230  -27.3262   19.7054 C   0  0  0  0  0  0  0  0  0  0  0  0
  -29.1328  -20.8957   22.0686 C   0  0  0  0  0  0  0  0  0  0  0  0
  -21.9681   -3.7987   23.2110 C   0  0  0  0  0  0  0  0  0  0  0  0
  -24.1816  -10.1826   21.4874 C   0  0  0  0  0  0  0  0  0  0  0  0
  -25.3366  -12.1383   22.6487 C   0  0  0  0  0  0  0  0  0  0  0  0
  -25.2917  -31.6924   12.5732 C   0  0  0  0  0  0  0  0  0  0  0  0
  -24.7168  -27.8649   17.9763 C   0  0  0  0  0  0  0  0  0  0  0  0
  -25.8397  -31.0894   13.7215 C   0  0  0  0  0  0  0  0  0  0  0  0
  -28.7872  -18.2920   21.2005 C   0  0  0  0  0  0  0  0  0  0  0  0
  -25.3383  -28.1841   19.1920 C   0  0  0  0  0  0  0  0  0  0  0  0
  -28.3339  -19.3632   20.4244 C   0  0  0  0  0  0  0  0  0  0  0  0
  -29.5879  -19.8196   22.8481 C   0  0  0  0  0  0  0  0  0  0  0  0
  -28.4986  -20.6711   20.8447 C   0  0  0  0  0  0  0  0  0  0  0  0
  -22.4419   -8.0043   21.3816 C   0  0  0  0  0  0  0  0  0  0  0  0
  -26.6754  -26.1606   19.0256 C   0  0  0  0  0  0  0  0  0  0  0  0
  -21.6238   -6.0421   22.3830 C   0  0  0  0  0  0  0  0  0  0  0  0
  -21.6859   -4.2335   24.5061 C   0  0  0  0  0  0  0  0  0  0  0  0
  -21.9370   -4.7031   22.1495 C   0  0  0  0  0  0  0  0  0  0  0  0
  -25.0807  -11.3072   21.5416 C   0  0  0  0  0  0  0  0  0  0  0  0
  -26.2571  -13.0483   22.1893 C   0  0  0  0  0  0  0  0  0  0  0  0
  -24.7910  -12.0919   23.9738 C   0  0  0  0  0  0  0  0  0  0  0  0
  -24.8463  -30.9632   17.2782 C   0  0  0  0  0  0  0  0  0  0  0  0
  -23.2572  -31.2649   20.0900 C   0  0  0  0  0  0  0  0  0  0  0  0
  -28.1418  -23.1147   20.3598 C   0  0  0  0  0  0  0  0  0  0  0  0
  -22.5020  -29.9486   23.1467 C   0  0  0  0  0  0  0  0  0  0  0  0
  -27.7415  -16.6175   18.0961 C   0  0  0  0  0  0  0  0  0  0  0  0
  -24.6412  -33.0521   12.6250 C   0  0  0  0  0  0  0  0  0  0  0  0
  -23.6408  -28.7532   17.4146 C   0  0  0  0  0  0  0  0  0  0  0  0
  -28.4654  -16.9943   20.5335 C   0  0  0  0  0  0  0  0  0  0  0  0
  -24.9839  -29.4298   19.9608 C   0  0  0  0  0  0  0  0  0  0  0  0
  -27.7037  -18.8626   19.1687 C   0  0  0  0  0  0  0  0  0  0  0  0
  -24.2483  -33.4861   14.0348 C   0  0  0  0  0  0  0  0  0  0  0  0
  -28.9458  -13.1579   17.9043 C   0  0  0  0  0  0  0  0  0  0  0  0
  -25.3927  -33.2305   15.0104 C   0  0  0  0  0  0  0  0  0  0  0  0
  -28.0346  -12.4320   18.8966 C   0  0  0  0  0  0  0  0  0  0  0  0
  -28.2500  -14.3523   17.2545 C   0  0  0  0  0  0  0  0  0  0  0  0
  -26.7369  -14.5729   19.1852 C   0  0  0  0  0  0  0  0  0  0  0  0
  -25.7309  -31.7367   15.0850 C   0  0  1  0  0  0  0  0  0  0  0  0
  -23.7285  -30.1903   17.9191 C   0  0  1  0  0  0  0  0  0  0  0  0
  -27.4259  -13.4134   19.9168 C   0  0  1  0  0  0  0  0  0  0  0  0
  -21.2089  -30.4435   25.2397 C   0  0  0  0  0  0  0  0  0  0  0  0
  -25.4187  -33.2365   20.9563 C   0  0  0  0  0  0  0  0  0  0  0  0
  -24.6278  -32.9596   23.3155 C   0  0  0  0  0  0  0  0  0  0  0  0
  -23.0908  -33.8964   21.5884 C   0  0  0  0  0  0  0  0  0  0  0  0
  -20.7882  -27.5621   22.7908 C   0  0  0  0  0  0  0  0  0  0  0  0
  -27.5249  -23.9511   19.2541 C   0  0  0  0  0  0  0  0  0  1  0  0
  -23.6626  -31.4343   21.5342 C   0  0  1  0  0  0  0  0  0  0  0  0
  -21.1790  -29.7797   23.8717 C   0  0  2  0  0  0  0  0  0  0  0  0
  -24.2083  -32.8591   21.8334 C   0  0  0  0  0  0  0  0  0  0  0  0
  -25.7819  -11.6581   20.4604 N   0  0  0  0  0  0  0  0  0  0  0  0
  -26.4874  -12.7199   20.8857 N   0  0  0  0  0  0  0  0  0  0  0  0
  -23.9302  -30.2695   19.3673 N   0  0  0  0  0  0  0  0  0  0  0  0
  -27.8629  -17.4009   19.2466 N   0  0  0  0  0  0  0  0  0  0  0  0
  -27.6727  -15.2318   18.2698 N   0  0  0  0  0  0  0  0  0  0  0  0
  -30.2247  -20.0726   24.0830 N   0  0  0  0  0  0  0  0  0  0  0  0
  -26.8839  -14.0894   22.7773 N   0  0  0  0  0  0  0  0  0  0  0  0
  -23.8569  -11.0921   24.2771 N   0  0  0  0  0  0  0  0  0  0  0  0
  -28.0491  -21.7433   20.0756 N   0  0  0  0  0  0  0  0  0  0  0  0
  -24.7606  -31.0390   15.9011 N   0  0  0  0  0  0  0  0  0  0  0  0
  -22.4992  -31.0605   22.3313 N   0  0  0  0  0  0  0  0  0  0  0  0
  -20.8712  -28.3335   24.0578 N   0  3  0  0  0  0  0  0  0  0  0  0
  -25.1098  -12.9229   24.8578 O   0  0  0  0  0  0  0  0  0  0  0  0
  -25.7209  -31.4558   17.9811 O   0  0  0  0  0  0  0  0  0  0  0  0
  -22.3709  -31.9842   19.6222 O   0  0  0  0  0  0  0  0  0  0  0  0
  -28.6429  -23.6316   21.3529 O   0  0  0  0  0  0  0  0  0  0  0  0
  -23.4450  -29.1739   23.2923 O   0  0  0  0  0  0  0  0  0  0  0  0
  -27.7507  -17.1251   16.9673 O   0  0  0  0  0  0  0  0  0  0  0  0
  -21.5933   -6.9414   21.3304 O   0  0  0  0  0  0  0  0  0  0  0  0
  -27.6408  -25.3285   19.5415 O   0  0  0  0  0  0  0  0  0  1  0  0
  -21.7172   -3.3654   25.5258 F   0  0  0  0  0  0  0  0  0  0  0  0
  -22.2101   -4.2799   20.9077 F   0  0  0  0  0  0  0  0  0  0  0  0
  1  2  1  0  0  0  0
  1  5  2  0  0  0  0
  2  6  2  0  0  0  0
  3  8  2  0  0  0  0
  3 17  1  0  0  0  0
  4  9  1  0  0  0  0
  4 17  2  0  0  0  0
  5 19  1  0  0  0  0
  6 21  1  0  0  0  0
  7 10  2  0  0  0  0
  7 20  1  0  0  0  0
  8 27  1  0  0  0  0
  9 27  2  0  0  0  0
 10 28  1  0  0  0  0
 11 12  2  0  0  0  0
 11 29  1  0  0  0  0
 12 30  1  0  0  0  0
 13 22  2  0  0  0  0
 13 25  1  0  0  0  0
 14 23  1  0  0  0  0
 14 28  2  0  0  0  0
 15 25  2  0  0  0  0
 15 26  1  0  0  0  0
 16 30  2  0  0  0  0
 16 31  1  0  0  0  0
 17 32  1  0  0  0  0
 18 32  1  0  0  0  0
 18 33  2  0  0  0  0
 18 34  1  0  0  0  0
 19 21  2  0  0  0  0
 19 40  1  0  0  0  0
 20 23  2  0  0  0  0
 20 41  1  0  0  0  0
 21 51  1  0  0  0  0
 22 24  1  0  0  0  0
 22 42  1  0  0  0  0
 23 43  1  0  0  0  0
 24 26  2  0  0  0  0
 24 44  1  0  0  0  0
 25 68  1  0  0  0  0
 26 71  1  0  0  0  0
 27 81  1  0  0  0  0
 28 82  1  0  0  0  0
 29 31  2  0  0  0  0
 29 81  1  0  0  0  0
 30 83  1  0  0  0  0
 31 84  1  0  0  0  0
 32 63  2  0  0  0  0
 33 64  1  0  0  0  0
 33 69  1  0  0  0  0
 34 70  1  0  0  0  0
 34 75  2  0  0  0  0
 35 52  1  0  0  0  0
 35 72  1  0  0  0  0
 35 76  2  0  0  0  0
 36 60  1  0  0  0  0
 36 65  1  0  0  0  0
 36 77  2  0  0  0  0
 37 59  1  0  0  0  0
 37 71  1  0  0  0  0
 37 78  2  0  0  0  0
 38 61  1  0  0  0  0
 38 73  1  0  0  0  0
 38 79  2  0  0  0  0
 39 66  1  0  0  0  0
 39 67  1  0  0  0  0
 39 80  2  0  0  0  0
 40 45  1  0  0  0  0
 41 52  1  0  0  0  0
 42 66  1  0  0  0  0
 43 65  1  0  0  0  0
 44 66  1  0  0  0  0
 45 47  1  0  0  0  0
 46 48  1  0  0  0  0
 46 49  1  0  0  0  0
 47 51  1  0  0  0  0
 48 53  1  0  0  0  0
 49 67  1  0  0  0  0
 50 53  1  0  0  0  0
 50 67  1  0  0  0  0
 51 72  1  0  0  0  0
 52 65  1  0  0  0  0
 53 64  1  0  0  0  0
 54 61  1  0  0  0  0
 55 62  1  0  0  0  0
 56 62  1  0  0  0  0
 57 62  1  0  0  0  0
 58 74  1  0  0  0  0
 59 82  1  0  0  0  0
 60 62  1  0  0  0  0
 60 73  1  0  0  0  0
 61 74  1  0  0  0  0
 63 64  1  0  0  0  0
M  CHG  1  74   1
M  ISO  4  39 100  59 101  66 100  82 101
M  END
> <Batch ID>
0151

> <Smiles>
CNC(C)C(=O)NC(C(=O)N1Cc2cc([101O:1][101CH2:1]C(=O)Nc3cc(N)cc4c3C[100N:0]([100C:0](=O)N3CCCC(n5nc(-c6ccc(Oc7ccc(F)cc7F)cc6)c(C(N)=O)c5N)C3)C4)ccc2CC1C(=O)NC1CCCc2ccccc21)C(C)(C)C

> <Shape>
0.268

> <Color>
0.097

> <Negative vol penalty>
0.000

$$$$

  -OEChem-04052303243D

 86 95  0     1  0  0  0  0  0999 V2000
  -24.8087   -6.1748   23.6505 C   0  0  0  0  0  0  0  0  0  0  0  0
  -25.9247   -6.9747   23.4266 C   0  0  0  0  0  0  0  0  0  0  0  0
  -22.0391  -30.9497   21.9550 C   0  0  0  0  0  0  0  0  0  0  0  0
  -23.2028  -29.8081   23.7382 C   0  0  0  0  0  0  0  0  0  0  0  0
  -23.6308   -6.4098   22.9425 C   0  0  0  0  0  0  0  0  0  0  0  0
  -25.8638   -8.0094   22.4938 C   0  0  0  0  0  0  0  0  0  0  0  0
  -31.3776  -21.1219   18.6263 C   0  0  0  0  0  0  0  0  0  0  0  0
  -28.6899  -13.4326   22.8213 C   0  0  0  0  0  0  0  0  0  0  0  0
  -31.5508  -19.8890   19.2551 C   0  0  0  0  0  0  0  0  0  0  0  0
  -20.8815  -30.9841   22.7325 C   0  0  0  0  0  0  0  0  0  0  0  0
  -22.0452  -29.8426   24.5157 C   0  0  0  0  0  0  0  0  0  0  0  0
  -29.8675  -13.9127   22.2499 C   0  0  0  0  0  0  0  0  0  0  0  0
  -18.3988  -28.8601   23.5981 C   0  0  0  0  0  0  0  0  0  0  0  0
  -17.1949  -28.5183   22.9822 C   0  0  0  0  0  0  0  0  0  0  0  0
  -28.5895  -14.8917   20.4534 C   0  0  0  0  0  0  0  0  0  0  0  0
  -29.1580  -19.6894   19.5230 C   0  0  0  0  0  0  0  0  0  0  0  0
  -16.3118  -30.7084   23.4928 C   0  0  0  0  0  0  0  0  0  0  0  0
  -23.1997  -30.3616   22.4578 C   0  0  0  0  0  0  0  0  0  0  0  0
  -25.4174  -31.2924   21.6075 C   0  0  0  0  0  0  0  0  0  0  0  0
  -23.5524   -7.4540   22.0076 C   0  0  0  0  0  0  0  0  0  0  0  0
  -27.4522  -13.6696   22.2062 C   0  0  0  0  0  0  0  0  0  0  0  0
  -24.6841   -8.2577   21.7717 C   0  0  0  0  0  0  0  0  0  0  0  0
  -30.0946  -21.6387   18.4459 C   0  0  0  0  0  0  0  0  0  0  0  0
  -27.3974  -14.4158   21.0204 C   0  0  0  0  0  0  0  0  0  0  0  0
  -28.9848  -20.9224   18.8942 C   0  0  0  0  0  0  0  0  0  0  0  0
  -30.4411  -19.1727   19.7034 C   0  0  0  0  0  0  0  0  0  0  0  0
  -20.8846  -30.4306   24.0128 C   0  0  0  0  0  0  0  0  0  0  0  0
  -29.8177  -14.6399   21.0642 C   0  0  0  0  0  0  0  0  0  0  0  0
  -18.5592  -30.1261   24.1614 C   0  0  0  0  0  0  0  0  0  0  0  0
  -16.1514  -29.4424   22.9295 C   0  0  0  0  0  0  0  0  0  0  0  0
  -17.5157  -31.0502   24.1087 C   0  0  0  0  0  0  0  0  0  0  0  0
  -24.3956  -30.3252   21.6550 C   0  0  0  0  0  0  0  0  0  0  0  0
  -26.3202  -30.7938   20.7004 C   0  0  0  0  0  0  0  0  0  0  0  0
  -25.5397  -32.5306   22.3199 C   0  0  0  0  0  0  0  0  0  0  0  0
  -25.1740  -11.8308   20.9682 C   0  0  0  0  0  0  0  0  0  0  0  0
  -23.5948  -14.6499   20.6841 C   0  0  0  0  0  0  0  0  0  0  0  0
  -23.7577  -18.0495   20.4321 C   0  0  0  0  0  0  0  0  0  0  0  0
  -29.2714  -26.5267   18.6559 C   0  0  0  0  0  0  0  0  0  0  0  0
  -22.2721   -7.6396   21.2323 C   0  0  0  0  0  0  0  0  0  0  0  0
  -26.1885  -13.1678   22.8495 C   0  0  0  0  0  0  0  0  0  0  0  0
  -26.0921  -14.7149   20.3312 C   0  0  0  0  0  0  0  0  0  0  0  0
  -22.1742   -8.9930   20.5331 C   0  0  0  0  0  0  0  0  0  0  0  0
  -25.9740  -26.9493   17.4595 C   0  0  0  0  0  0  0  0  0  0  0  0
  -23.4754   -9.3126   19.8040 C   0  0  0  0  0  0  0  0  0  0  0  0
  -25.3345  -27.9162   18.4523 C   0  0  0  0  0  0  0  0  0  0  0  0
  -31.2216  -23.7076   17.3508 C   0  0  0  0  0  0  0  0  0  0  0  0
  -26.9111  -25.9835   18.1722 C   0  0  0  0  0  0  0  0  0  0  0  0
  -30.7431  -25.1298   17.0916 C   0  0  0  0  0  0  0  0  0  0  0  0
  -29.2421  -24.0510   18.6165 C   0  0  0  0  0  0  0  0  0  0  0  0
  -27.3897  -27.6593   19.9365 C   0  0  0  0  0  0  0  0  0  0  0  0
  -29.9323  -22.9783   17.7622 C   0  0  2  0  0  0  0  0  0  0  0  0
  -24.6495   -9.4054   20.7860 C   0  0  1  0  0  0  0  0  0  0  0  0
  -25.0316  -13.0280   21.8649 C   0  0  1  0  0  0  0  0  0  0  0  0
  -26.4125  -28.6476   19.2670 C   0  0  2  0  0  0  0  0  0  0  0  0
  -27.6017  -21.4563   18.7133 C   0  0  0  0  0  0  0  0  0  0  0  0
  -22.3025  -20.0776   20.1743 C   0  0  0  0  0  0  0  0  0  0  0  0
  -33.1003  -15.3563   21.5384 C   0  0  0  0  0  0  0  0  0  0  0  0
  -23.1959  -13.9857   17.7329 C   0  0  0  0  0  0  0  0  0  0  0  0
  -22.6128  -16.3889   17.3425 C   0  0  0  0  0  0  0  0  0  0  0  0
  -21.2009  -14.9944   18.8540 C   0  0  0  0  0  0  0  0  0  0  0  0
  -24.6792  -19.1809   23.0069 C   0  0  0  0  0  0  0  0  0  0  0  0
  -31.9027  -17.3382   20.5543 C   0  0  0  0  0  0  0  0  0  0  0  0
  -23.4980  -15.7189   19.6225 C   0  0  1  0  0  0  0  0  0  0  0  0
  -23.0031  -19.1504   21.1552 C   0  0  2  0  0  0  0  0  0  0  0  0
  -31.7484  -16.0098   21.2913 C   0  0  1  0  0  0  0  0  0  1  0  0
  -22.6518  -15.2648   18.3997 C   0  0  0  0  0  0  0  0  0  0  0  0
  -24.6268  -29.2906   20.8425 N   0  0  0  0  0  0  0  0  0  0  0  0
  -25.8042  -29.6049   20.2758 N   0  0  0  0  0  0  0  0  0  0  0  0
  -24.8846  -14.1973   20.9958 N   0  0  0  0  0  0  0  0  0  0  0  0
  -27.9171  -26.6892   18.9681 N   0  0  0  0  0  0  0  0  0  0  0  0
  -29.6634  -25.3308   18.0557 N   0  0  0  0  0  0  0  0  0  0  0  0
  -27.4971  -31.2610   20.2323 N   0  0  0  0  0  0  0  0  0  0  0  0
  -24.5218  -32.8906   23.2136 N   0  0  0  0  0  0  0  0  0  0  0  0
  -30.6167  -17.9256   20.3384 N   0  0  0  0  0  0  0  0  0  0  0  0
  -24.6251  -10.6726   21.4847 N   0  0  0  0  0  0  0  0  0  0  0  0
  -22.9904  -16.9126   20.2903 N   0  0  0  0  0  0  0  0  0  0  0  0
  -23.9392  -19.9626   21.9829 N   0  3  0  0  0  0  0  0  0  0  0  0
  -26.5144  -33.3030   22.1561 O   0  0  0  0  0  0  0  0  0  0  0  0
  -25.7388  -11.9494   19.8872 O   0  0  0  0  0  0  0  0  0  0  0  0
  -22.5644  -14.2370   21.2222 O   0  0  0  0  0  0  0  0  0  0  0  0
  -24.9110  -18.1857   20.0297 O   0  0  0  0  0  0  0  0  0  0  0  0
  -30.0924  -27.4298   18.8664 O   0  0  0  0  0  0  0  0  0  0  0  0
  -19.7553  -30.4643   24.7719 O   0  0  0  0  0  0  0  0  0  0  0  0
  -30.9722  -15.1116   20.5009 O   0  0  0  0  0  0  0  0  0  1  0  0
  -14.9959  -29.1145   22.3366 F   0  0  0  0  0  0  0  0  0  0  0  0
  -17.6643  -32.2684   24.6471 F   0  0  0  0  0  0  0  0  0  0  0  0
  1  2  1  0  0  0  0
  1  5  2  0  0  0  0
  2  6  2  0  0  0  0
  3 10  2  0  0  0  0
  3 18  1  0  0  0  0
  4 11  1  0  0  0  0
  4 18  2  0  0  0  0
  5 20  1  0  0  0  0
  6 22  1  0  0  0  0
  7  9  2  0  0  0  0
  7 23  1  0  0  0  0
  8 12  2  0  0  0  0
  8 21  1  0  0  0  0
  9 26  1  0  0  0  0
 10 27  1  0  0  0  0
 11 27  2  0  0  0  0
 12 28  1  0  0  0  0
 13 14  2  0  0  0  0
 13 29  1  0  0  0  0
 14 30  1  0  0  0  0
 15 24  1  0  0  0  0
 15 28  2  0  0  0  0
 16 25  1  0  0  0  0
 16 26  2  0  0  0  0
 17 30  2  0  0  0  0
 17 31  1  0  0  0  0
 18 32  1  0  0  0  0
 19 32  1  0  0  0  0
 19 33  2  0  0  0  0
 19 34  1  0  0  0  0
 20 22  2  0  0  0  0
 20 39  1  0  0  0  0
 21 24  2  0  0  0  0
 21 40  1  0  0  0  0
 22 52  1  0  0  0  0
 23 25  2  0  0  0  0
 23 51  1  0  0  0  0
 24 41  1  0  0  0  0
 25 55  1  0  0  0  0
 26 74  1  0  0  0  0
 27 83  1  0  0  0  0
 28 84  1  0  0  0  0
 29 31  2  0  0  0  0
 29 83  1  0  0  0  0
 30 85  1  0  0  0  0
 31 86  1  0  0  0  0
 32 67  2  0  0  0  0
 33 68  1  0  0  0  0
 33 72  1  0  0  0  0
 34 73  1  0  0  0  0
 34 78  2  0  0  0  0
 35 53  1  0  0  0  0
 35 75  1  0  0  0  0
 35 79  2  0  0  0  0
 36 63  1  0  0  0  0
 36 69  1  0  0  0  0
 36 80  2  0  0  0  0
 37 64  1  0  0  0  0
 37 76  1  0  0  0  0
 37 81  2  0  0  0  0
 38 70  1  0  0  0  0
 38 71  1  0  0  0  0
 38 82  2  0  0  0  0
 39 42  1  0  0  0  0
 40 53  1  0  0  0  0
 41 69  1  0  0  0  0
 42 44  1  0  0  0  0
 43 45  1  0  0  0  0
 43 47  1  0  0  0  0
 44 52  1  0  0  0  0
 45 54  1  0  0  0  0
 46 48  1  0  0  0  0
 46 51  1  0  0  0  0
 47 70  1  0  0  0  0
 48 71  1  0  0  0  0
 49 51  1  0  0  0  0
 49 71  1  0  0  0  0
 50 54  1  0  0  0  0
 50 70  1  0  0  0  0
 52 75  1  0  0  0  0
 53 69  1  0  0  0  0
 54 68  1  0  0  0  0
 56 64  1  0  0  0  0
 57 65  1  0  0  0  0
 58 66  1  0  0  0  0
 59 66  1  0  0  0  0
 60 66  1  0  0  0  0
 61 77  1  0  0  0  0
 62 65  1  0  0  0  0
 62 74  1  0  0  0  0
 63 66  1  0  0  0  0
 63 76  1  0  0  0  0
 64 77  1  0  0  0  0
 65 84  1  0  0  0  0
 67 68  1  0  0  0  0
M  CHG  1  77   1
M  ISO  4  38 100  65 101  71 100  84 101
M  END
> <Batch ID>
0151

> <Smiles>
CNC(C)C(=O)NC(C(=O)N1Cc2cc([101O:1][101CH:1](C)CNc3ccc(C4CC[100N:0]([100C:0](=O)N5CCCC(n6nc(-c7ccc(Oc8ccc(F)cc8F)cc7)c(C(N)=O)c6N)C5)C4)c(C)c3)ccc2CC1C(=O)NC1CCCc2ccccc21)C(C)(C)C

> <Shape>
0.311

> <Color>
0.071

> <Negative vol penalty>
0.000

$$$$

  -OEChem-04052303243D

 86 95  0     1  0  0  0  0  0999 V2000
  -18.5044  -28.6691   22.9791 C   0  0  0  0  0  0  0  0  0  0  0  0
  -19.8803  -28.7459   22.7884 C   0  0  0  0  0  0  0  0  0  0  0  0
  -30.2271  -21.5024   15.9291 C   0  0  0  0  0  0  0  0  0  0  0  0
  -26.4674  -12.8926   21.5808 C   0  0  0  0  0  0  0  0  0  0  0  0
  -26.1150  -13.7855   19.3637 C   0  0  0  0  0  0  0  0  0  0  0  0
  -31.2794  -22.4041   16.0872 C   0  0  0  0  0  0  0  0  0  0  0  0
  -17.8571  -27.4374   22.8905 C   0  0  0  0  0  0  0  0  0  0  0  0
  -20.6100  -27.5906   22.5100 C   0  0  0  0  0  0  0  0  0  0  0  0
  -25.5255  -27.1246   18.8871 C   0  0  0  0  0  0  0  0  0  0  0  0
  -29.6825  -20.8637   17.0432 C   0  0  0  0  0  0  0  0  0  0  0  0
  -25.2075  -12.2954   21.5405 C   0  0  0  0  0  0  0  0  0  0  0  0
  -24.8551  -13.1883   19.3234 C   0  0  0  0  0  0  0  0  0  0  0  0
  -26.8923  -27.0929   19.1601 C   0  0  0  0  0  0  0  0  0  0  0  0
  -23.7972   -9.5454   20.1689 C   0  0  0  0  0  0  0  0  0  0  0  0
  -23.6919   -8.2242   20.6036 C   0  0  0  0  0  0  0  0  0  0  0  0
  -31.2428  -22.0283   18.4735 C   0  0  0  0  0  0  0  0  0  0  0  0
  -26.8429  -24.6819   19.0969 C   0  0  0  0  0  0  0  0  0  0  0  0
  -22.1263   -8.9106   22.3109 C   0  0  0  0  0  0  0  0  0  0  0  0
  -26.9211  -13.6377   20.4924 C   0  0  0  0  0  0  0  0  0  0  0  0
  -31.7873  -22.6670   17.3594 C   0  0  0  0  0  0  0  0  0  0  0  0
  -29.4432  -13.6946   20.1134 C   0  0  0  0  0  0  0  0  0  0  0  0
  -18.5778  -26.2679   22.6013 C   0  0  0  0  0  0  0  0  0  0  0  0
  -24.8037  -25.9330   18.7274 C   0  0  0  0  0  0  0  0  0  0  0  0
  -19.9719  -26.3419   22.4188 C   0  0  0  0  0  0  0  0  0  0  0  0
  -25.4675  -24.7013   18.8194 C   0  0  0  0  0  0  0  0  0  0  0  0
  -30.1904  -21.1266   18.3154 C   0  0  0  0  0  0  0  0  0  0  0  0
  -24.4014  -12.4432   20.4118 C   0  0  0  0  0  0  0  0  0  0  0  0
  -27.5507  -25.8714   19.2679 C   0  0  0  0  0  0  0  0  0  0  0  0
  -23.0670  -10.5492   20.8053 C   0  0  0  0  0  0  0  0  0  0  0  0
  -22.8565   -7.9068   21.6745 C   0  0  0  0  0  0  0  0  0  0  0  0
  -22.2316  -10.2318   21.8762 C   0  0  0  0  0  0  0  0  0  0  0  0
  -28.2222  -14.2554   20.5336 C   0  0  0  0  0  0  0  0  0  0  0  0
  -30.3737  -14.6744   20.3592 C   0  0  0  0  0  0  0  0  0  0  0  0
  -32.1235  -27.0117   19.4583 C   0  0  0  0  0  0  0  0  0  0  0  0
  -31.0753  -26.4810   18.8044 C   0  0  0  0  0  0  0  0  0  0  0  0
  -32.8989  -23.6201   17.5276 C   0  0  0  0  0  0  0  0  0  0  0  0
  -29.7121  -12.4033   19.5511 C   0  0  0  0  0  0  0  0  0  0  0  0
  -22.3763  -24.5594   20.2521 C   0  0  0  0  0  0  0  0  0  0  0  0
  -22.5617  -22.4259   17.8157 C   0  0  0  0  0  0  0  0  0  0  0  0
  -24.4545  -20.9691   15.3781 C   0  0  0  0  0  0  0  0  0  0  0  0
  -30.0227  -20.6247   20.7784 C   0  0  0  0  0  0  0  0  0  0  0  0
  -17.8413  -24.9524   22.5623 C   0  0  0  0  0  0  0  0  0  0  0  0
  -23.3351  -25.9848   18.4068 C   0  0  0  0  0  0  0  0  0  0  0  0
  -24.7422  -23.3940   18.6363 C   0  0  0  0  0  0  0  0  0  0  0  0
  -33.5441  -26.6020   19.2089 C   0  0  0  0  0  0  0  0  0  0  0  0
  -31.2339  -25.3863   17.7807 C   0  0  0  0  0  0  0  0  0  0  0  0
  -18.6322  -23.8312   21.8933 C   0  0  0  0  0  0  0  0  0  0  0  0
  -31.2287  -18.3822   23.2671 C   0  0  0  0  0  0  0  0  0  0  0  0
  -20.0657  -23.8048   22.4140 C   0  0  0  0  0  0  0  0  0  0  0  0
  -30.7108  -17.0175   22.8071 C   0  0  0  0  0  0  0  0  0  0  0  0
  -33.7156  -25.8914   17.8733 C   0  0  0  0  0  0  0  0  0  0  0  0
  -30.2223  -19.4958   22.9831 C   0  0  0  0  0  0  0  0  0  0  0  0
  -29.2332  -18.2028   21.1341 C   0  0  0  0  0  0  0  0  0  0  0  0
  -20.7944  -25.1147   22.0906 C   0  0  1  0  0  0  0  0  0  0  0  0
  -22.5980  -24.7002   18.7727 C   0  0  1  0  0  0  0  0  0  0  0  0
  -30.2396  -17.0589   21.3402 C   0  0  2  0  0  0  0  0  0  0  0  0
  -24.3416  -19.2318   13.5708 C   0  0  0  0  0  0  0  0  0  0  0  0
  -22.7468  -20.2261   19.9220 C   0  0  0  0  0  0  0  0  0  0  0  0
  -23.5728  -18.6801   18.1344 C   0  0  0  0  0  0  0  0  0  0  0  0
  -21.2919  -19.6756   17.9638 C   0  0  0  0  0  0  0  0  0  0  0  0
  -25.0371  -22.9601   13.2673 C   0  0  0  0  0  0  0  0  0  0  0  0
  -29.6689  -26.9337   19.0661 C   0  0  0  0  0  0  0  0  0  1  0  0
  -23.3157  -21.1403   17.5754 C   0  0  1  0  0  0  0  0  0  0  0  0
  -24.1760  -20.7051   13.9094 C   0  0  2  0  0  0  0  0  0  0  0  0
  -22.7454  -19.9550   18.4043 C   0  0  0  0  0  0  0  0  0  0  0  0
  -28.3613  -15.4953   21.0103 N   0  0  0  0  0  0  0  0  0  0  0  0
  -29.6807  -15.7217   20.8913 N   0  0  0  0  0  0  0  0  0  0  0  0
  -32.6319  -24.9041   17.7264 N   0  0  0  0  0  0  0  0  0  0  0  0
  -23.3057  -23.4969   18.3306 N   0  0  0  0  0  0  0  0  0  0  0  0
  -29.8247  -19.4763   21.5737 N   0  0  0  0  0  0  0  0  0  0  0  0
  -31.7091  -14.7337   20.1701 N   0  0  0  0  0  0  0  0  0  0  0  0
  -28.6407  -11.5189   19.3660 N   0  0  0  0  0  0  0  0  0  0  0  0
  -29.6366  -20.4773   19.4465 N   0  0  0  0  0  0  0  0  0  0  0  0
  -21.2040  -25.1358   20.7027 N   0  0  0  0  0  0  0  0  0  0  0  0
  -23.3016  -20.9223   16.1330 N   0  0  0  0  0  0  0  0  0  0  0  0
  -34.1519  -23.1775   17.4792 N   0  3  0  0  0  0  0  0  0  0  0  0
  -25.1105  -21.4915   13.0554 N   0  3  0  0  0  0  0  0  0  0  0  0
  -30.8706  -12.0384   19.2378 O   0  0  0  0  0  0  0  0  0  0  0  0
  -23.2066  -23.9701   20.9341 O   0  0  0  0  0  0  0  0  0  0  0  0
  -21.3584  -22.4800   17.5494 O   0  0  0  0  0  0  0  0  0  0  0  0
  -25.5825  -21.1907   15.8128 O   0  0  0  0  0  0  0  0  0  0  0  0
  -30.5249  -21.6536   21.2379 O   0  0  0  0  0  0  0  0  0  0  0  0
  -23.1720  -11.8603   20.3721 O   0  0  0  0  0  0  0  0  0  0  0  0
  -28.8846  -25.8376   19.5350 O   0  0  0  0  0  0  0  0  0  1  0  0
  -22.7543   -6.6377   22.0908 F   0  0  0  0  0  0  0  0  0  0  0  0
  -21.5268  -11.1917   22.4908 F   0  0  0  0  0  0  0  0  0  0  0  0
  1  2  1  0  0  0  0
  1  7  2  0  0  0  0
  2  8  2  0  0  0  0
  3  6  2  0  0  0  0
  3 10  1  0  0  0  0
  4 11  2  0  0  0  0
  4 19  1  0  0  0  0
  5 12  1  0  0  0  0
  5 19  2  0  0  0  0
  6 20  1  0  0  0  0
  7 22  1  0  0  0  0
  8 24  1  0  0  0  0
  9 13  2  0  0  0  0
  9 23  1  0  0  0  0
 10 26  2  0  0  0  0
 11 27  1  0  0  0  0
 12 27  2  0  0  0  0
 13 28  1  0  0  0  0
 14 15  2  0  0  0  0
 14 29  1  0  0  0  0
 15 30  1  0  0  0  0
 16 20  2  0  0  0  0
 16 26  1  0  0  0  0
 17 25  1  0  0  0  0
 17 28  2  0  0  0  0
 18 30  2  0  0  0  0
 18 31  1  0  0  0  0
 19 32  1  0  0  0  0
 20 36  1  0  0  0  0
 21 32  1  0  0  0  0
 21 33  2  0  0  0  0
 21 37  1  0  0  0  0
 22 24  2  0  0  0  0
 22 42  1  0  0  0  0
 23 25  2  0  0  0  0
 23 43  1  0  0  0  0
 24 54  1  0  0  0  0
 25 44  1  0  0  0  0
 26 73  1  0  0  0  0
 27 83  1  0  0  0  0
 28 84  1  0  0  0  0
 29 31  2  0  0  0  0
 29 83  1  0  0  0  0
 30 85  1  0  0  0  0
 31 86  1  0  0  0  0
 32 66  2  0  0  0  0
 33 67  1  0  0  0  0
 33 71  1  0  0  0  0
 34 35  2  0  0  0  0
 34 45  1  0  0  0  0
 35 46  1  0  0  0  0
 35 62  1  0  0  0  0
 36 68  1  0  0  0  0
 36 76  2  0  0  0  0
 37 72  1  0  0  0  0
 37 78  2  0  0  0  0
 38 55  1  0  0  0  0
 38 74  1  0  0  0  0
 38 79  2  0  0  0  0
 39 63  1  0  0  0  0
 39 69  1  0  0  0  0
 39 80  2  0  0  0  0
 40 64  1  0  0  0  0
 40 75  1  0  0  0  0
 40 81  2  0  0  0  0
 41 70  1  0  0  0  0
 41 73  1  0  0  0  0
 41 82  2  0  0  0  0
 42 47  1  0  0  0  0
 43 55  1  0  0  0  0
 44 69  1  0  0  0  0
 45 51  1  0  0  0  0
 46 68  1  0  0  0  0
 47 49  1  0  0  0  0
 48 50  1  0  0  0  0
 48 52  1  0  0  0  0
 49 54  1  0  0  0  0
 50 56  1  0  0  0  0
 51 68  1  0  0  0  0
 52 70  1  0  0  0  0
 53 56  1  0  0  0  0
 53 70  1  0  0  0  0
 54 74  1  0  0  0  0
 55 69  1  0  0  0  0
 56 67  1  0  0  0  0
 57 64  1  0  0  0  0
 58 65  1  0  0  0  0
 59 65  1  0  0  0  0
 60 65  1  0  0  0  0
 61 77  1  0  0  0  0
 62 84  1  0  0  0  0
 63 65  1  0  0  0  0
 63 75  1  0  0  0  0
 64 77  1  0  0  0  0
 66 67  1  0  0  0  0
M  CHG  2  76   1  77   1
M  ISO  4  41 100  62 101  73 100  84 101
M  END
> <Batch ID>
0151

> <Smiles>
CNC(C)C(=O)NC(C(=O)N1Cc2cc([101O:1][101CH2:1]C3=CCCN(C(=N)c4cccc([100NH:0][100C:0](=O)N5CCCC(n6nc(-c7ccc(Oc8ccc(F)cc8F)cc7)c(C(N)=O)c6N)C5)c4)C3)ccc2CC1C(=O)NC1CCCc2ccccc21)C(C)(C)C

> <Shape>
0.241

> <Color>
0.073

> <Negative vol penalty>
0.000

$$$$

  -OEChem-04052303243D

 88 97  0     1  0  0  0  0  0999 V2000
  -28.1204  -30.3581   27.8694 C   0  0  0  0  0  0  0  0  0  0  0  0
  -27.9360  -29.4226   26.8564 C   0  0  0  0  0  0  0  0  0  0  0  0
  -31.8518  -19.3051   21.2212 C   0  0  0  0  0  0  0  0  0  0  0  0
  -23.5668   -9.6372   21.4611 C   0  0  0  0  0  0  0  0  0  0  0  0
  -24.2678  -10.6791   23.5251 C   0  0  0  0  0  0  0  0  0  0  0  0
  -30.9205  -20.2771   21.5863 C   0  0  0  0  0  0  0  0  0  0  0  0
  -27.1145  -31.2797   28.1571 C   0  0  0  0  0  0  0  0  0  0  0  0
  -26.7450  -29.4073   26.1312 C   0  0  0  0  0  0  0  0  0  0  0  0
  -27.5103  -28.9272   21.1484 C   0  0  0  0  0  0  0  0  0  0  0  0
  -31.4183  -18.0571   20.7737 C   0  0  0  0  0  0  0  0  0  0  0  0
  -22.9935   -8.5910   22.1838 C   0  0  0  0  0  0  0  0  0  0  0  0
  -23.6944   -9.6329   24.2479 C   0  0  0  0  0  0  0  0  0  0  0  0
  -27.8094  -27.6522   20.6701 C   0  0  0  0  0  0  0  0  0  0  0  0
  -20.1619   -8.0403   23.9479 C   0  0  0  0  0  0  0  0  0  0  0  0
  -18.8865   -7.6169   23.5743 C   0  0  0  0  0  0  0  0  0  0  0  0
  -29.1221  -18.7532   21.0565 C   0  0  0  0  0  0  0  0  0  0  0  0
  -25.5168  -27.3839   19.9694 C   0  0  0  0  0  0  0  0  0  0  0  0
  -19.7516   -5.4059   23.1269 C   0  0  0  0  0  0  0  0  0  0  0  0
  -24.2040  -10.6812   22.1317 C   0  0  0  0  0  0  0  0  0  0  0  0
  -29.5556  -20.0012   21.5040 C   0  0  0  0  0  0  0  0  0  0  0  0
  -24.1770  -12.9625   20.9903 C   0  0  0  0  0  0  0  0  0  0  0  0
  -25.9145  -31.2820   27.4287 C   0  0  0  0  0  0  0  0  0  0  0  0
  -26.2076  -29.4367   21.0505 C   0  0  0  0  0  0  0  0  0  0  0  0
  -25.7216  -30.3290   26.4104 C   0  0  0  0  0  0  0  0  0  0  0  0
  -25.2044  -28.6666   20.4449 C   0  0  0  0  0  0  0  0  0  0  0  0
  -30.0535  -17.7811   20.6914 C   0  0  0  0  0  0  0  0  0  0  0  0
  -23.0573   -8.5889   23.5772 C   0  0  0  0  0  0  0  0  0  0  0  0
  -26.8120  -26.8792   20.0831 C   0  0  0  0  0  0  0  0  0  0  0  0
  -21.2323   -7.1466   23.9109 C   0  0  0  0  0  0  0  0  0  0  0  0
  -18.6813   -6.2997   23.1639 C   0  0  0  0  0  0  0  0  0  0  0  0
  -21.0271   -5.8294   23.5005 C   0  0  0  0  0  0  0  0  0  0  0  0
  -24.7969  -11.7619   21.3856 C   0  0  0  0  0  0  0  0  0  0  0  0
  -25.1560  -13.6475   20.3130 C   0  0  0  0  0  0  0  0  0  0  0  0
  -28.5708  -21.0279   21.8890 C   0  0  0  0  0  0  0  0  0  0  0  0
  -22.8363  -13.4178   21.2153 C   0  0  0  0  0  0  0  0  0  0  0  0
  -24.0041  -30.3779   23.1392 C   0  0  0  0  0  0  0  0  0  0  0  0
  -22.4104  -31.2785   20.4613 C   0  0  0  0  0  0  0  0  0  0  0  0
  -21.9240  -30.8793   17.1071 C   0  0  0  0  0  0  0  0  0  0  0  0
  -30.4067  -15.4381   19.8359 C   0  0  0  0  0  0  0  0  0  0  0  0
  -24.8371  -32.2671   27.8077 C   0  0  0  0  0  0  0  0  0  0  0  0
  -25.9073  -30.8243   21.5471 C   0  0  0  0  0  0  0  0  0  0  0  0
  -23.7945  -29.1755   20.2973 C   0  0  0  0  0  0  0  0  0  0  0  0
  -23.7550  -32.4258   26.7427 C   0  0  0  0  0  0  0  0  0  0  0  0
  -29.7071  -12.1412   18.6879 C   0  0  0  0  0  0  0  0  0  0  0  0
  -23.2964  -31.0606   26.2400 C   0  0  0  0  0  0  0  0  0  0  0  0
  -28.3163  -11.8474   19.2549 C   0  0  0  0  0  0  0  0  0  0  0  0
  -27.9281  -23.0869   18.9746 C   0  0  0  0  0  0  0  0  0  0  0  0
  -30.5529  -12.9638   19.6582 C   0  0  0  0  0  0  0  0  0  0  0  0
  -28.5671  -21.8369   19.5724 C   0  0  0  0  0  0  0  0  0  0  0  0
  -28.5314  -13.9067   20.7040 C   0  0  0  0  0  0  0  0  0  0  0  0
  -24.4536  -30.2967   25.5851 C   0  0  1  0  0  0  0  0  0  0  0  0
  -24.4297  -31.0404   21.8595 C   0  0  1  0  0  0  0  0  0  0  0  0
  -27.6198  -13.1357   19.7353 C   0  0  2  0  0  0  0  0  0  0  0  0
  -27.0877  -22.9049   21.2383 C   0  0  2  0  0  0  0  0  0  0  0  0
  -26.6535  -23.2819   19.8053 C   0  0  1  0  0  0  0  0  0  0  0  0
  -27.7221  -24.0277   22.0500 C   0  0  0  0  0  0  0  0  0  0  0  0
  -20.5268  -31.7302   15.2042 C   0  0  0  0  0  0  0  0  0  0  0  0
  -20.0424  -29.6402   21.4706 C   0  0  0  0  0  0  0  0  0  0  0  0
  -19.0793  -29.7392   19.1617 C   0  0  0  0  0  0  0  0  0  0  0  0
  -19.4305  -31.8426   20.4560 C   0  0  0  0  0  0  0  0  0  0  0  0
  -24.3034  -31.8621   15.6470 C   0  0  0  0  0  0  0  0  0  0  0  0
  -24.4754  -22.4576   20.1225 C   0  0  0  0  0  0  0  0  0  0  0  0
  -26.0494  -24.6699   19.6432 C   0  0  0  0  0  0  0  0  0  1  0  0
  -21.4327  -30.6119   19.5240 C   0  0  1  0  0  0  0  0  0  0  0  0
  -21.8275  -31.8874   15.9762 C   0  0  2  0  0  0  0  0  0  0  0  0
  -20.0222  -30.4478   20.1574 C   0  0  0  0  0  0  0  0  0  0  0  0
  -26.0710  -11.6855   20.9920 N   0  0  0  0  0  0  0  0  0  0  0  0
  -26.2597  -12.8467   20.3423 N   0  0  0  0  0  0  0  0  0  0  0  0
  -28.1228  -21.8729   20.9761 N   0  0  0  0  0  0  0  0  0  0  0  0
  -23.5492  -30.5358   20.8040 N   0  0  0  0  0  0  0  0  0  0  0  0
  -29.8310  -14.1708   20.0667 N   0  0  0  0  0  0  0  0  0  0  0  0
  -25.1719  -14.8508   19.7011 N   0  0  0  0  0  0  0  0  0  0  0  0
  -21.9604  -12.5893   21.9301 N   0  0  0  0  0  0  0  0  0  0  0  0
  -29.6140  -16.5131   20.2367 N   0  0  0  0  0  0  0  0  0  0  0  0
  -24.7034  -30.8031   24.2526 N   0  0  0  0  0  0  0  0  0  0  0  0
  -21.4476  -31.3956   18.2936 N   0  0  0  0  0  0  0  0  0  0  0  0
  -28.1470  -21.0871   23.1480 N   0  3  0  0  0  0  0  0  0  0  0  0
  -22.9622  -31.7105   15.0264 N   0  3  0  0  0  0  0  0  0  0  0  0
  -22.4222  -14.5193   20.7808 O   0  0  0  0  0  0  0  0  0  0  0  0
  -23.1067  -29.5437   23.1182 O   0  0  0  0  0  0  0  0  0  0  0  0
  -22.1761  -32.4191   20.8685 O   0  0  0  0  0  0  0  0  0  0  0  0
  -22.3733  -29.7458   16.9525 O   0  0  0  0  0  0  0  0  0  0  0  0
  -31.5090  -15.5615   19.2959 O   0  0  0  0  0  0  0  0  0  0  0  0
  -22.4978   -7.5683   24.2828 O   0  0  0  0  0  0  0  0  0  0  0  0
  -27.1010  -25.6342   19.6160 O   0  0  0  0  0  0  0  0  0  1  0  0
  -25.6778  -22.3216   19.3845 O   0  0  0  0  0  0  0  0  0  0  0  0
  -17.4562   -5.8928   22.8066 F   0  0  0  0  0  0  0  0  0  0  0  0
  -22.0512   -4.9658   23.4640 F   0  0  0  0  0  0  0  0  0  0  0  0
  1  2  1  0  0  0  0
  1  7  2  0  0  0  0
  2  8  2  0  0  0  0
  3  6  2  0  0  0  0
  3 10  1  0  0  0  0
  4 11  2  0  0  0  0
  4 19  1  0  0  0  0
  5 12  1  0  0  0  0
  5 19  2  0  0  0  0
  6 20  1  0  0  0  0
  7 22  1  0  0  0  0
  8 24  1  0  0  0  0
  9 13  2  0  0  0  0
  9 23  1  0  0  0  0
 10 26  2  0  0  0  0
 11 27  1  0  0  0  0
 12 27  2  0  0  0  0
 13 28  1  0  0  0  0
 14 15  2  0  0  0  0
 14 29  1  0  0  0  0
 15 30  1  0  0  0  0
 16 20  2  0  0  0  0
 16 26  1  0  0  0  0
 17 25  1  0  0  0  0
 17 28  2  0  0  0  0
 18 30  2  0  0  0  0
 18 31  1  0  0  0  0
 19 32  1  0  0  0  0
 20 34  1  0  0  0  0
 21 32  1  0  0  0  0
 21 33  2  0  0  0  0
 21 35  1  0  0  0  0
 22 24  2  0  0  0  0
 22 40  1  0  0  0  0
 23 25  2  0  0  0  0
 23 41  1  0  0  0  0
 24 51  1  0  0  0  0
 25 42  1  0  0  0  0
 26 74  1  0  0  0  0
 27 84  1  0  0  0  0
 28 85  1  0  0  0  0
 29 31  2  0  0  0  0
 29 84  1  0  0  0  0
 30 87  1  0  0  0  0
 31 88  1  0  0  0  0
 32 67  2  0  0  0  0
 33 68  1  0  0  0  0
 33 72  1  0  0  0  0
 34 69  1  0  0  0  0
 34 77  2  0  0  0  0
 35 73  1  0  0  0  0
 35 79  2  0  0  0  0
 36 52  1  0  0  0  0
 36 75  1  0  0  0  0
 36 80  2  0  0  0  0
 37 64  1  0  0  0  0
 37 70  1  0  0  0  0
 37 81  2  0  0  0  0
 38 65  1  0  0  0  0
 38 76  1  0  0  0  0
 38 82  2  0  0  0  0
 39 71  1  0  0  0  0
 39 74  1  0  0  0  0
 39 83  2  0  0  0  0
 40 43  1  0  0  0  0
 41 52  1  0  0  0  0
 42 70  1  0  0  0  0
 43 45  1  0  0  0  0
 44 46  1  0  0  0  0
 44 48  1  0  0  0  0
 45 51  1  0  0  0  0
 46 53  1  0  0  0  0
 47 49  1  0  0  0  0
 47 55  1  0  0  0  0
 48 71  1  0  0  0  0
 49 69  1  0  0  0  0
 50 53  1  0  0  0  0
 50 71  1  0  0  0  0
 51 75  1  0  0  0  0
 52 70  1  0  0  0  0
 53 68  1  0  0  0  0
 54 55  1  0  0  0  0
 54 56  1  0  0  0  0
 54 69  1  0  0  0  0
 55 63  1  0  0  0  0
 55 86  1  0  0  0  0
 57 65  1  0  0  0  0
 58 66  1  0  0  0  0
 59 66  1  0  0  0  0
 60 66  1  0  0  0  0
 61 78  1  0  0  0  0
 62 86  1  0  0  0  0
 63 85  1  0  0  0  0
 64 66  1  0  0  0  0
 64 76  1  0  0  0  0
 65 78  1  0  0  0  0
 67 68  1  0  0  0  0
M  CHG  2  77   1  78   1
M  ISO  4  39 100  63 101  74 100  85 101
M  END
> <Batch ID>
0151

> <Smiles>
CNC(C)C(=O)NC(C(=O)N1Cc2cc([101O:1][101CH2:1]C3(OC)CCN(C(=N)c4cccc([100NH:0][100C:0](=O)N5CCCC(n6nc(-c7ccc(Oc8ccc(F)cc8F)cc7)c(C(N)=O)c6N)C5)c4)C3C)ccc2CC1C(=O)NC1CCCc2ccccc21)C(C)(C)C

> <Shape>
0.303

> <Color>
0.164

> <Negative vol penalty>
0.000

$$$$

  -OEChem-04052303243D

 83 91  0     1  0  0  0  0  0999 V2000
  -18.2523  -25.6683   19.7650 C   0  0  0  0  0  0  0  0  0  0  0  0
  -19.1855  -24.7844   20.2973 C   0  0  0  0  0  0  0  0  0  0  0  0
  -23.1380   -9.8018   19.8848 C   0  0  0  0  0  0  0  0  0  0  0  0
  -23.9649   -9.7115   22.1531 C   0  0  0  0  0  0  0  0  0  0  0  0
  -18.1637  -26.9685   20.2605 C   0  0  0  0  0  0  0  0  0  0  0  0
  -20.0313  -25.2006   21.3248 C   0  0  0  0  0  0  0  0  0  0  0  0
  -22.1139  -21.8096   25.9799 C   0  0  0  0  0  0  0  0  0  0  0  0
  -22.4550   -8.6025   20.0859 C   0  0  0  0  0  0  0  0  0  0  0  0
  -23.2818   -8.5121   22.3543 C   0  0  0  0  0  0  0  0  0  0  0  0
  -23.3206  -21.1433   26.1887 C   0  0  0  0  0  0  0  0  0  0  0  0
  -20.1125   -7.5299   22.9957 C   0  0  0  0  0  0  0  0  0  0  0  0
  -19.3934   -7.3866   24.1823 C   0  0  0  0  0  0  0  0  0  0  0  0
  -24.1426  -23.0361   27.4381 C   0  0  0  0  0  0  0  0  0  0  0  0
  -29.6828  -17.5047   23.3414 C   0  0  0  0  0  0  0  0  0  0  0  0
  -31.8844  -16.7957   22.6435 C   0  0  0  0  0  0  0  0  0  0  0  0
  -31.6441  -18.4362   24.4008 C   0  0  0  0  0  0  0  0  0  0  0  0
  -20.7427   -5.4702   24.7686 C   0  0  0  0  0  0  0  0  0  0  0  0
  -23.8931  -10.3563   20.9183 C   0  0  0  0  0  0  0  0  0  0  0  0
  -24.1164  -12.8975   20.9390 C   0  0  0  0  0  0  0  0  0  0  0  0
  -19.0022  -27.3978   21.3012 C   0  0  0  0  0  0  0  0  0  0  0  0
  -21.9161  -23.1007   26.4902 C   0  0  0  0  0  0  0  0  0  0  0  0
  -19.9547  -26.5081   21.8338 C   0  0  0  0  0  0  0  0  0  0  0  0
  -22.9315  -23.7156   27.2365 C   0  0  0  0  0  0  0  0  0  0  0  0
  -30.4967  -16.7216   22.5230 C   0  0  0  0  0  0  0  0  0  0  0  0
  -30.2564  -18.3621   24.2803 C   0  0  0  0  0  0  0  0  0  0  0  0
  -22.5268   -7.9576   21.3207 C   0  0  0  0  0  0  0  0  0  0  0  0
  -24.3363  -21.7577   26.9154 C   0  0  0  0  0  0  0  0  0  0  0  0
  -21.1467   -6.6433   22.6955 C   0  0  0  0  0  0  0  0  0  0  0  0
  -19.7085   -6.3568   25.0687 C   0  0  0  0  0  0  0  0  0  0  0  0
  -32.4581  -17.6531   23.5825 C   0  0  0  0  0  0  0  0  0  0  0  0
  -21.4618   -5.6135   23.5820 C   0  0  0  0  0  0  0  0  0  0  0  0
  -24.5994  -11.5950   20.7109 C   0  0  0  0  0  0  0  0  0  0  0  0
  -25.1622  -13.7172   20.5914 C   0  0  0  0  0  0  0  0  0  0  0  0
  -22.8369  -13.3279   21.4221 C   0  0  0  0  0  0  0  0  0  0  0  0
  -21.3445  -25.9545   25.2124 C   0  0  0  0  0  0  0  0  0  0  0  0
  -27.4457  -20.0928   26.0653 C   0  0  0  0  0  0  0  0  0  0  0  0
  -21.0141  -26.8446   28.3142 C   0  0  0  0  0  0  0  0  0  0  0  0
  -21.7485  -26.2488   31.5933 C   0  0  0  0  0  0  0  0  0  0  0  0
  -30.5782  -15.0065   20.6795 C   0  0  0  0  0  0  0  0  0  0  0  0
  -18.9016  -28.8272   21.7719 C   0  0  0  0  0  0  0  0  0  0  0  0
  -20.5988  -23.7952   26.2790 C   0  0  0  0  0  0  0  0  0  0  0  0
  -22.7617  -25.0924   27.8229 C   0  0  0  0  0  0  0  0  0  0  0  0
  -19.5795  -29.0747   23.1170 C   0  0  0  0  0  0  0  0  0  0  0  0
  -29.5041  -12.6845   18.2033 C   0  0  0  0  0  0  0  0  0  0  0  0
  -20.9641  -28.4352   23.1428 C   0  0  0  0  0  0  0  0  0  0  0  0
  -28.0926  -12.3012   18.6537 C   0  0  0  0  0  0  0  0  0  0  0  0
  -30.4434  -12.8859   19.3912 C   0  0  0  0  0  0  0  0  0  0  0  0
  -28.5476  -13.4387   20.8642 C   0  0  0  0  0  0  0  0  0  0  0  0
  -20.8728  -26.9147   22.9660 C   0  0  1  0  0  0  0  0  0  0  0  0
  -20.6961  -25.3124   26.4062 C   0  0  1  0  0  0  0  0  0  0  0  0
  -27.5489  -13.2885   19.7050 C   0  0  2  0  0  0  0  0  0  0  0  0
  -21.3678  -27.1703   33.8962 C   0  0  0  0  0  0  0  0  0  0  0  0
  -23.0636  -29.0392   27.7723 C   0  0  0  0  0  0  0  0  0  0  0  0
  -23.3459  -29.2903   30.2473 C   0  0  0  0  0  0  0  0  0  0  0  0
  -21.1308  -29.7448   29.1939 C   0  0  0  0  0  0  0  0  0  0  0  0
  -20.3658  -23.7856   32.4763 C   0  0  0  0  0  0  0  0  0  0  0  0
  -28.0076  -19.1303   25.0406 C   0  0  0  0  0  0  0  0  0  0  0  0
  -25.9331  -20.1879   26.1141 C   0  0  0  0  0  0  0  0  0  1  0  0
  -21.9468  -27.3594   29.3838 C   0  0  1  0  0  0  0  0  0  0  0  0
  -20.8701  -26.2061   32.8306 C   0  0  2  0  0  0  0  0  0  0  0  0
  -22.3760  -28.8332   29.1367 C   0  0  0  0  0  0  0  0  0  0  0  0
  -25.8543  -11.5831   20.2535 N   0  0  0  0  0  0  0  0  0  0  0  0
  -26.1686  -12.8882   20.1914 N   0  0  0  0  0  0  0  0  0  0  0  0
  -21.4579  -25.7332   27.5838 N   0  0  0  0  0  0  0  0  0  0  0  0
  -29.8647  -13.8367   20.3430 N   0  0  0  0  0  0  0  0  0  0  0  0
  -25.3098  -15.0591   20.5918 N   0  0  0  0  0  0  0  0  0  0  0  0
  -21.8778  -12.3541   21.7322 N   0  0  0  0  0  0  0  0  0  0  0  0
  -29.9143  -15.8511   21.5686 N   0  0  0  0  0  0  0  0  0  0  0  0
  -29.4471  -19.1412   25.0946 N   0  0  0  0  0  0  0  0  0  0  0  0
  -20.4612  -26.2859   24.2028 N   0  0  0  0  0  0  0  0  0  0  0  0
  -21.2687  -27.1399   30.6568 N   0  0  0  0  0  0  0  0  0  0  0  0
  -20.8564  -24.8327   33.4090 N   0  3  0  0  0  0  0  0  0  0  0  0
  -22.5470  -14.5406   21.5587 O   0  0  0  0  0  0  0  0  0  0  0  0
  -22.5562  -26.1371   25.2084 O   0  0  0  0  0  0  0  0  0  0  0  0
  -28.1594  -20.7591   26.8139 O   0  0  0  0  0  0  0  0  0  0  0  0
  -19.9287  -27.4036   28.1382 O   0  0  0  0  0  0  0  0  0  0  0  0
  -22.7612  -25.5632   31.4714 O   0  0  0  0  0  0  0  0  0  0  0  0
  -31.6840  -15.2549   20.1923 O   0  0  0  0  0  0  0  0  0  0  0  0
  -21.8602   -6.7874   21.5175 O   0  0  0  0  0  0  0  0  0  0  0  0
  -25.5153  -21.1098   27.1201 O   0  0  0  0  0  0  0  0  0  1  0  0
  -19.0189   -6.2202   26.2089 F   0  0  0  0  0  0  0  0  0  0  0  0
  -33.7907  -17.7248   23.6980 F   0  0  0  0  0  0  0  0  0  0  0  0
  -22.4550   -4.7593   23.2996 F   0  0  0  0  0  0  0  0  0  0  0  0
  1  2  1  0  0  0  0
  1  5  2  0  0  0  0
  2  6  2  0  0  0  0
  3  8  2  0  0  0  0
  3 18  1  0  0  0  0
  4  9  1  0  0  0  0
  4 18  2  0  0  0  0
  5 20  1  0  0  0  0
  6 22  1  0  0  0  0
  7 10  2  0  0  0  0
  7 21  1  0  0  0  0
  8 26  1  0  0  0  0
  9 26  2  0  0  0  0
 10 27  1  0  0  0  0
 11 12  2  0  0  0  0
 11 28  1  0  0  0  0
 12 29  1  0  0  0  0
 13 23  1  0  0  0  0
 13 27  2  0  0  0  0
 14 24  1  0  0  0  0
 14 25  2  0  0  0  0
 15 24  2  0  0  0  0
 15 30  1  0  0  0  0
 16 25  1  0  0  0  0
 16 30  2  0  0  0  0
 17 29  2  0  0  0  0
 17 31  1  0  0  0  0
 18 32  1  0  0  0  0
 19 32  1  0  0  0  0
 19 33  2  0  0  0  0
 19 34  1  0  0  0  0
 20 22  2  0  0  0  0
 20 40  1  0  0  0  0
 21 23  2  0  0  0  0
 21 41  1  0  0  0  0
 22 49  1  0  0  0  0
 23 42  1  0  0  0  0
 24 68  1  0  0  0  0
 25 69  1  0  0  0  0
 26 79  1  0  0  0  0
 27 80  1  0  0  0  0
 28 31  2  0  0  0  0
 28 79  1  0  0  0  0
 29 81  1  0  0  0  0
 30 82  1  0  0  0  0
 31 83  1  0  0  0  0
 32 62  2  0  0  0  0
 33 63  1  0  0  0  0
 33 66  1  0  0  0  0
 34 67  1  0  0  0  0
 34 73  2  0  0  0  0
 35 50  1  0  0  0  0
 35 70  1  0  0  0  0
 35 74  2  0  0  0  0
 36 57  1  0  0  0  0
 36 58  1  0  0  0  0
 36 75  2  0  0  0  0
 37 59  1  0  0  0  0
 37 64  1  0  0  0  0
 37 76  2  0  0  0  0
 38 60  1  0  0  0  0
 38 71  1  0  0  0  0
 38 77  2  0  0  0  0
 39 65  1  0  0  0  0
 39 68  1  0  0  0  0
 39 78  2  0  0  0  0
 40 43  1  0  0  0  0
 41 50  1  0  0  0  0
 42 64  1  0  0  0  0
 43 45  1  0  0  0  0
 44 46  1  0  0  0  0
 44 47  1  0  0  0  0
 45 49  1  0  0  0  0
 46 51  1  0  0  0  0
 47 65  1  0  0  0  0
 48 51  1  0  0  0  0
 48 65  1  0  0  0  0
 49 70  1  0  0  0  0
 50 64  1  0  0  0  0
 51 63  1  0  0  0  0
 52 60  1  0  0  0  0
 53 61  1  0  0  0  0
 54 61  1  0  0  0  0
 55 61  1  0  0  0  0
 56 72  1  0  0  0  0
 57 69  1  0  0  0  0
 58 80  1  0  0  0  0
 59 61  1  0  0  0  0
 59 71  1  0  0  0  0
 60 72  1  0  0  0  0
 62 63  1  0  0  0  0
M  CHG  1  72   1
M  ISO  4  39 100  58 101  68 100  80 101
M  END
> <Batch ID>
0151

> <Smiles>
CNC(C)C(=O)NC(C(=O)N1Cc2cc([101O:1][101CH2:1]C(=O)CNc3cc(F)cc([100NH:0][100C:0](=O)N4CCCC(n5nc(-c6ccc(Oc7ccc(F)cc7F)cc6)c(C(N)=O)c5N)C4)c3)ccc2CC1C(=O)NC1CCCc2ccccc21)C(C)(C)C

> <Shape>
0.225

> <Color>
0.196

> <Negative vol penalty>
0.000

$$$$

  -OEChem-04052303243D

 85 94  0     1  0  0  0  0  0999 V2000
  -25.3539  -33.8598   28.2071 C   0  0  0  0  0  0  0  0  0  0  0  0
  -26.1954  -33.1649   27.3444 C   0  0  0  0  0  0  0  0  0  0  0  0
  -32.0782  -21.7667   20.1292 C   0  0  0  0  0  0  0  0  0  0  0  0
  -23.8572   -9.4235   22.0066 C   0  0  0  0  0  0  0  0  0  0  0  0
  -24.3991  -10.9460   23.8026 C   0  0  0  0  0  0  0  0  0  0  0  0
  -24.0008  -33.5304   28.2749 C   0  0  0  0  0  0  0  0  0  0  0  0
  -25.6845  -32.1394   26.5496 C   0  0  0  0  0  0  0  0  0  0  0  0
  -31.5066  -20.5027   20.2748 C   0  0  0  0  0  0  0  0  0  0  0  0
  -27.4542  -30.6460   20.8800 C   0  0  0  0  0  0  0  0  0  0  0  0
  -31.2620  -22.8909   20.0036 C   0  0  0  0  0  0  0  0  0  0  0  0
  -23.4059   -8.4870   22.9366 C   0  0  0  0  0  0  0  0  0  0  0  0
  -23.9478  -10.0095   24.7326 C   0  0  0  0  0  0  0  0  0  0  0  0
  -28.3126  -29.6607   20.3943 C   0  0  0  0  0  0  0  0  0  0  0  0
  -20.6394   -7.9715   24.8110 C   0  0  0  0  0  0  0  0  0  0  0  0
  -19.4300   -7.3281   24.5486 C   0  0  0  0  0  0  0  0  0  0  0  0
  -29.3028  -21.4870   20.1689 C   0  0  0  0  0  0  0  0  0  0  0  0
  -26.4201  -28.2212   19.9871 C   0  0  0  0  0  0  0  0  0  0  0  0
  -20.5634   -5.1945   24.5561 C   0  0  0  0  0  0  0  0  0  0  0  0
  -24.3538  -10.6530   22.4396 C   0  0  0  0  0  0  0  0  0  0  0  0
  -24.0647  -12.6293   20.8527 C   0  0  0  0  0  0  0  0  0  0  0  0
  -30.1189  -20.3628   20.2946 C   0  0  0  0  0  0  0  0  0  0  0  0
  -23.4711  -32.5068   27.4734 C   0  0  0  0  0  0  0  0  0  0  0  0
  -26.0709  -30.4219   20.9331 C   0  0  0  0  0  0  0  0  0  0  0  0
  -24.3233  -31.7951   26.6076 C   0  0  0  0  0  0  0  0  0  0  0  0
  -25.5461  -29.2063   20.4715 C   0  0  0  0  0  0  0  0  0  0  0  0
  -29.8743  -22.7511   20.0233 C   0  0  0  0  0  0  0  0  0  0  0  0
  -23.4512   -8.7800   24.2996 C   0  0  0  0  0  0  0  0  0  0  0  0
  -27.7959  -28.4469   19.9505 C   0  0  0  0  0  0  0  0  0  0  0  0
  -21.8109   -7.2264   24.9460 C   0  0  0  0  0  0  0  0  0  0  0  0
  -19.3919   -5.9396   24.4211 C   0  0  0  0  0  0  0  0  0  0  0  0
  -21.7728   -5.8379   24.8186 C   0  0  0  0  0  0  0  0  0  0  0  0
  -24.8207  -11.6206   21.4794 C   0  0  0  0  0  0  0  0  0  0  0  0
  -24.9619  -13.2740   20.0367 C   0  0  0  0  0  0  0  0  0  0  0  0
  -22.6756  -12.9546   20.9955 C   0  0  0  0  0  0  0  0  0  0  0  0
  -23.9074  -30.2915   23.2581 C   0  0  0  0  0  0  0  0  0  0  0  0
  -21.8286  -30.0515   20.7795 C   0  0  0  0  0  0  0  0  0  0  0  0
  -29.4459  -25.2154   19.7448 C   0  0  0  0  0  0  0  0  0  0  0  0
  -21.2936  -29.1951   17.5196 C   0  0  0  0  0  0  0  0  0  0  0  0
  -29.9960  -15.5242   19.2049 C   0  0  0  0  0  0  0  0  0  0  0  0
  -22.0115  -32.1550   27.6160 C   0  0  0  0  0  0  0  0  0  0  0  0
  -25.1559  -31.5051   21.4349 C   0  0  0  0  0  0  0  0  0  0  0  0
  -24.0668  -28.9238   20.4886 C   0  0  0  0  0  0  0  0  0  0  0  0
  -21.4745  -31.3059   26.4666 C   0  0  0  0  0  0  0  0  0  0  0  0
  -29.6535  -12.0502   18.6600 C   0  0  0  0  0  0  0  0  0  0  0  0
  -22.4335  -30.1612   26.1552 C   0  0  0  0  0  0  0  0  0  0  0  0
  -28.3234  -11.6953   19.3190 C   0  0  0  0  0  0  0  0  0  0  0  0
  -29.8829  -18.1987   21.7125 C   0  0  0  0  0  0  0  0  0  0  0  0
  -30.3964  -13.1018   19.4731 C   0  0  0  0  0  0  0  0  0  0  0  0
  -29.4484  -16.7800   21.3699 C   0  0  0  0  0  0  0  0  0  0  0  0
  -29.8704  -17.9932   19.3470 C   0  0  0  0  0  0  0  0  0  0  0  0
  -28.2618  -14.0374   20.3208 C   0  0  0  0  0  0  0  0  0  0  0  0
  -29.4996  -18.9918   20.4525 C   0  0  2  0  0  0  0  0  0  0  0  0
  -23.8016  -30.6929   25.7114 C   0  0  1  0  0  0  0  0  0  0  0  0
  -23.8117  -30.9734   21.9227 C   0  0  1  0  0  0  0  0  0  0  0  0
  -27.4777  -12.9579   19.5464 C   0  0  2  0  0  0  0  0  0  0  0  0
  -19.4827  -29.0731   15.7866 C   0  0  0  0  0  0  0  0  0  0  0  0
  -20.7325  -27.5317   22.1058 C   0  0  0  0  0  0  0  0  0  0  0  0
  -19.6365  -26.9481   19.9318 C   0  0  0  0  0  0  0  0  0  0  0  0
  -18.9915  -29.0387   21.1302 C   0  0  0  0  0  0  0  0  0  0  0  0
  -22.6896  -31.1203   15.7578 C   0  0  0  0  0  0  0  0  0  0  0  0
  -28.2397  -26.1306   19.6448 C   0  0  0  0  0  0  0  0  0  1  0  0
  -21.2411  -28.9112   19.9835 C   0  0  1  0  0  0  0  0  0  0  0  0
  -20.5898  -29.9240   16.3891 C   0  0  2  0  0  0  0  0  0  0  0  0
  -20.1785  -28.1117   20.7892 C   0  0  0  0  0  0  0  0  0  0  0  0
  -26.0997  -11.6203   21.0944 N   0  0  0  0  0  0  0  0  0  0  0  0
  -26.1543  -12.6368   20.2169 N   0  0  0  0  0  0  0  0  0  0  0  0
  -23.2136  -30.0120   20.9942 N   0  0  0  0  0  0  0  0  0  0  0  0
  -29.5729  -14.2893   19.7085 N   0  0  0  0  0  0  0  0  0  0  0  0
  -29.6711  -16.6701   19.9298 N   0  0  0  0  0  0  0  0  0  0  0  0
  -24.8394  -14.3179   19.1896 N   0  0  0  0  0  0  0  0  0  0  0  0
  -21.8977  -12.1910   21.8765 N   0  0  0  0  0  0  0  0  0  0  0  0
  -29.0583  -23.8758   19.8983 N   0  0  0  0  0  0  0  0  0  0  0  0
  -23.7480  -31.1409   24.3363 N   0  0  0  0  0  0  0  0  0  0  0  0
  -20.7372  -29.4950   18.7451 N   0  0  0  0  0  0  0  0  0  0  0  0
  -21.5595  -30.2661   15.3104 N   0  3  0  0  0  0  0  0  0  0  0  0
  -22.1364  -13.8841   20.3483 O   0  0  0  0  0  0  0  0  0  0  0  0
  -24.1092  -29.0838   23.3068 O   0  0  0  0  0  0  0  0  0  0  0  0
  -21.0871  -30.9480   21.1894 O   0  0  0  0  0  0  0  0  0  0  0  0
  -30.5905  -25.6529   19.6915 O   0  0  0  0  0  0  0  0  0  0  0  0
  -22.2397  -28.4330   17.3336 O   0  0  0  0  0  0  0  0  0  0  0  0
  -30.6730  -15.5987   18.1705 O   0  0  0  0  0  0  0  0  0  0  0  0
  -23.0107   -7.8665   25.2074 O   0  0  0  0  0  0  0  0  0  0  0  0
  -28.6403  -27.4732   19.4716 O   0  0  0  0  0  0  0  0  0  1  0  0
  -18.2302   -5.3218   24.1706 F   0  0  0  0  0  0  0  0  0  0  0  0
  -22.8947   -5.1166   24.9484 F   0  0  0  0  0  0  0  0  0  0  0  0
  1  2  1  0  0  0  0
  1  6  2  0  0  0  0
  2  7  2  0  0  0  0
  3  8  1  0  0  0  0
  3 10  2  0  0  0  0
  4 11  2  0  0  0  0
  4 19  1  0  0  0  0
  5 12  1  0  0  0  0
  5 19  2  0  0  0  0
  6 22  1  0  0  0  0
  7 24  1  0  0  0  0
  8 21  2  0  0  0  0
  9 13  2  0  0  0  0
  9 23  1  0  0  0  0
 10 26  1  0  0  0  0
 11 27  1  0  0  0  0
 12 27  2  0  0  0  0
 13 28  1  0  0  0  0
 14 15  2  0  0  0  0
 14 29  1  0  0  0  0
 15 30  1  0  0  0  0
 16 21  1  0  0  0  0
 16 26  2  0  0  0  0
 17 25  1  0  0  0  0
 17 28  2  0  0  0  0
 18 30  2  0  0  0  0
 18 31  1  0  0  0  0
 19 32  1  0  0  0  0
 20 32  1  0  0  0  0
 20 33  2  0  0  0  0
 20 34  1  0  0  0  0
 21 52  1  0  0  0  0
 22 24  2  0  0  0  0
 22 40  1  0  0  0  0
 23 25  2  0  0  0  0
 23 41  1  0  0  0  0
 24 53  1  0  0  0  0
 25 42  1  0  0  0  0
 26 72  1  0  0  0  0
 27 82  1  0  0  0  0
 28 83  1  0  0  0  0
 29 31  2  0  0  0  0
 29 82  1  0  0  0  0
 30 84  1  0  0  0  0
 31 85  1  0  0  0  0
 32 65  2  0  0  0  0
 33 66  1  0  0  0  0
 33 70  1  0  0  0  0
 34 71  1  0  0  0  0
 34 76  2  0  0  0  0
 35 54  1  0  0  0  0
 35 73  1  0  0  0  0
 35 77  2  0  0  0  0
 36 62  1  0  0  0  0
 36 67  1  0  0  0  0
 36 78  2  0  0  0  0
 37 61  1  0  0  0  0
 37 72  1  0  0  0  0
 37 79  2  0  0  0  0
 38 63  1  0  0  0  0
 38 74  1  0  0  0  0
 38 80  2  0  0  0  0
 39 68  1  0  0  0  0
 39 69  1  0  0  0  0
 39 81  2  0  0  0  0
 40 43  1  0  0  0  0
 41 54  1  0  0  0  0
 42 67  1  0  0  0  0
 43 45  1  0  0  0  0
 44 46  1  0  0  0  0
 44 48  1  0  0  0  0
 45 53  1  0  0  0  0
 46 55  1  0  0  0  0
 47 49  1  0  0  0  0
 47 52  1  0  0  0  0
 48 68  1  0  0  0  0
 49 69  1  0  0  0  0
 50 52  1  0  0  0  0
 50 69  1  0  0  0  0
 51 55  1  0  0  0  0
 51 68  1  0  0  0  0
 53 73  1  0  0  0  0
 54 67  1  0  0  0  0
 55 66  1  0  0  0  0
 56 63  1  0  0  0  0
 57 64  1  0  0  0  0
 58 64  1  0  0  0  0
 59 64  1  0  0  0  0
 60 75  1  0  0  0  0
 61 83  1  0  0  0  0
 62 64  1  0  0  0  0
 62 74  1  0  0  0  0
 63 75  1  0  0  0  0
 65 66  1  0  0  0  0
M  CHG  1  75   1
M  ISO  4  39 100  61 101  69 100  83 101
M  END
> <Batch ID>
0151

> <Smiles>
CNC(C)C(=O)NC(C(=O)N1Cc2cc([101O:1][101CH2:1]C(=O)Nc3cccc(C4CC[100N:0]([100C:0](=O)N5CCCC(n6nc(-c7ccc(Oc8ccc(F)cc8F)cc7)c(C(N)=O)c6N)C5)C4)c3)ccc2CC1C(=O)NC1CCCc2ccccc21)C(C)(C)C

> <Shape>
0.315

> <Color>
0.140

> <Negative vol penalty>
0.000

$$$$

  -OEChem-04052303243D

 85 94  0     1  0  0  0  0  0999 V2000
  -17.5442  -32.3039   23.7563 C   0  0  0  0  0  0  0  0  0  0  0  0
  -18.8189  -32.6769   23.3426 C   0  0  0  0  0  0  0  0  0  0  0  0
  -24.3710  -13.9293   20.4820 C   0  0  0  0  0  0  0  0  0  0  0  0
  -26.7015  -13.6373   21.0484 C   0  0  0  0  0  0  0  0  0  0  0  0
  -17.3137  -31.0091   24.2192 C   0  0  0  0  0  0  0  0  0  0  0  0
  -19.8644  -31.7555   23.3924 C   0  0  0  0  0  0  0  0  0  0  0  0
  -25.8786  -29.9441   19.9480 C   0  0  0  0  0  0  0  0  0  0  0  0
  -24.2505  -12.5560   20.2696 C   0  0  0  0  0  0  0  0  0  0  0  0
  -26.5810  -12.2640   20.8360 C   0  0  0  0  0  0  0  0  0  0  0  0
  -27.2304  -29.7068   20.1931 C   0  0  0  0  0  0  0  0  0  0  0  0
  -23.2385   -9.0812   19.9282 C   0  0  0  0  0  0  0  0  0  0  0  0
  -22.1218   -8.4379   20.4618 C   0  0  0  0  0  0  0  0  0  0  0  0
  -26.6976  -27.4746   20.9364 C   0  0  0  0  0  0  0  0  0  0  0  0
  -29.9628  -23.0715   22.9129 C   0  0  0  0  0  0  0  0  0  0  0  0
  -22.7888   -9.1211   22.6812 C   0  0  0  0  0  0  0  0  0  0  0  0
  -25.5965  -14.4700   20.8714 C   0  0  0  0  0  0  0  0  0  0  0  0
  -25.5158  -16.5839   22.2970 C   0  0  0  0  0  0  0  0  0  0  0  0
  -18.3548  -30.0685   24.2656 C   0  0  0  0  0  0  0  0  0  0  0  0
  -24.9234  -28.9505   20.2060 C   0  0  0  0  0  0  0  0  0  0  0  0
  -19.6480  -30.4473   23.8576 C   0  0  0  0  0  0  0  0  0  0  0  0
  -25.3346  -27.7009   20.6913 C   0  0  0  0  0  0  0  0  0  0  0  0
  -30.5219  -24.3633   23.0602 C   0  0  0  0  0  0  0  0  0  0  0  0
  -25.3555  -11.7233   20.4466 C   0  0  0  0  0  0  0  0  0  0  0  0
  -27.6398  -28.4729   20.6901 C   0  0  0  0  0  0  0  0  0  0  0  0
  -24.1304   -9.7444   20.7710 C   0  0  0  0  0  0  0  0  0  0  0  0
  -21.8969   -8.4579   21.8383 C   0  0  0  0  0  0  0  0  0  0  0  0
  -23.9055   -9.7644   22.1475 C   0  0  0  0  0  0  0  0  0  0  0  0
  -25.7217  -15.8886   21.0904 C   0  0  0  0  0  0  0  0  0  0  0  0
  -25.7581  -17.8985   21.9814 C   0  0  0  0  0  0  0  0  0  0  0  0
  -30.5215  -24.9252   21.8047 C   0  0  0  0  0  0  0  0  0  0  0  0
  -29.6602  -22.9362   21.5779 C   0  0  0  0  0  0  0  0  0  0  0  0
  -25.1393  -16.0860   23.5877 C   0  0  0  0  0  0  0  0  0  0  0  0
  -22.4142  -28.6995   22.1411 C   0  0  0  0  0  0  0  0  0  0  0  0
  -21.9584  -25.9094   20.5504 C   0  0  0  0  0  0  0  0  0  0  0  0
  -23.3036  -23.3734   18.7050 C   0  0  0  0  0  0  0  0  0  0  0  0
  -28.8150  -21.8239   19.4815 C   0  0  0  0  0  0  0  0  0  0  0  0
  -18.0677  -28.6947   24.8181 C   0  0  0  0  0  0  0  0  0  0  0  0
  -23.4720  -29.2130   19.9110 C   0  0  0  0  0  0  0  0  0  0  0  0
  -24.3509  -26.5938   20.9657 C   0  0  0  0  0  0  0  0  0  0  0  0
  -19.1471  -27.6673   24.4869 C   0  0  0  0  0  0  0  0  0  0  0  0
  -26.3874  -20.1457   17.4897 C   0  0  0  0  0  0  0  0  0  0  0  0
  -20.5335  -28.2440   24.7560 C   0  0  0  0  0  0  0  0  0  0  0  0
  -25.9809  -18.9457   18.3481 C   0  0  0  0  0  0  0  0  0  0  0  0
  -32.0778  -28.2106   21.2003 C   0  0  0  0  0  0  0  0  0  0  0  0
  -27.8755  -20.4630   17.6268 C   0  0  0  0  0  0  0  0  0  0  0  0
  -31.5259  -27.1890   22.1906 C   0  0  0  0  0  0  0  0  0  0  0  0
  -27.9425  -19.4349   19.8646 C   0  0  0  0  0  0  0  0  0  0  0  0
  -30.8581  -26.5747   19.9441 C   0  0  0  0  0  0  0  0  0  0  0  0
  -20.8023  -29.4688   23.8734 C   0  0  1  0  0  0  0  0  0  0  0  0
  -22.5292  -28.3058   20.6956 C   0  0  1  0  0  0  0  0  0  0  0  0
  -26.4393  -19.1173   19.8096 C   0  0  2  0  0  0  0  0  0  0  0  0
  -31.1644  -28.0792   19.9817 C   0  0  1  0  0  0  0  0  0  0  0  0
  -31.0060  -24.9747   24.3121 C   0  0  0  0  0  0  0  0  0  0  0  0
  -22.6903  -21.2153   17.5807 C   0  0  0  0  0  0  0  0  0  0  0  0
  -21.8861  -24.5184   23.2652 C   0  0  0  0  0  0  0  0  0  0  0  0
  -22.2291  -22.3399   22.0801 C   0  0  0  0  0  0  0  0  0  0  0  0
  -20.1854  -23.6964   21.6262 C   0  0  0  0  0  0  0  0  0  0  0  0
  -24.0834  -24.4043   16.0427 C   0  0  0  0  0  0  0  0  0  0  0  0
  -32.3078  -29.8234   18.9116 C   0  0  0  0  0  0  0  0  0  0  0  0
  -29.9009  -28.9290   20.1110 C   0  0  0  0  0  0  0  0  0  1  0  0
  -22.4180  -24.4839   20.7389 C   0  0  1  0  0  0  0  0  0  0  0  0
  -22.8509  -22.7182   17.4126 C   0  0  2  0  0  0  0  0  0  0  0  0
  -21.6982  -23.7810   21.9244 C   0  0  0  0  0  0  0  0  0  0  0  0
  -26.0680  -16.6948   20.0833 N   0  0  0  0  0  0  0  0  0  0  0  0
  -26.0815  -17.9103   20.6565 N   0  0  0  0  0  0  0  0  0  0  0  0
  -30.9425  -26.1542   21.3417 N   0  0  3  0  0  0  0  0  0  0  0  0
  -22.9424  -26.9013   20.6672 N   0  0  0  0  0  0  0  0  0  0  0  0
  -28.2360  -20.6161   19.0380 N   0  0  0  0  0  0  0  0  0  0  0  0
  -25.7239  -19.0340   22.7107 N   0  0  0  0  0  0  0  0  0  0  0  0
  -24.9296  -14.7083   23.7373 N   0  0  0  0  0  0  0  0  0  0  0  0
  -29.0851  -21.8658   20.8490 N   0  0  0  0  0  0  0  0  0  0  0  0
  -21.1365  -29.0578   22.5266 N   0  0  0  0  0  0  0  0  0  0  0  0
  -22.2348  -23.8223   19.4517 N   0  0  0  0  0  0  0  0  0  0  0  0
  -23.8447  -22.9665   16.3302 N   0  3  0  0  0  0  0  0  0  0  0  0
  -24.9772  -16.8424   24.5752 O   0  0  0  0  0  0  0  0  0  0  0  0
  -23.4105  -28.6782   22.8542 O   0  0  0  0  0  0  0  0  0  0  0  0
  -20.7713  -26.1341   20.3015 O   0  0  0  0  0  0  0  0  0  0  0  0
  -24.4867  -23.4733   19.0223 O   0  0  0  0  0  0  0  0  0  0  0  0
  -29.0286  -22.7629   18.7103 O   0  0  0  0  0  0  0  0  0  0  0  0
  -29.9977  -24.0618   20.8955 O   0  0  0  0  0  0  0  0  0  0  0  0
  -25.2382  -10.3832   20.2396 O   0  0  0  0  0  0  0  0  0  0  0  0
  -28.9586  -28.2389   20.9309 O   0  0  0  0  0  0  0  0  0  1  0  0
  -31.8725  -28.4765   18.8160 O   0  0  0  0  0  0  0  0  0  0  0  0
  -20.8237   -7.8415   22.3504 F   0  0  0  0  0  0  0  0  0  0  0  0
  -24.7582  -10.4008   22.9621 F   0  0  0  0  0  0  0  0  0  0  0  0
  1  2  1  0  0  0  0
  1  5  2  0  0  0  0
  2  6  2  0  0  0  0
  3  8  2  0  0  0  0
  3 16  1  0  0  0  0
  4  9  1  0  0  0  0
  4 16  2  0  0  0  0
  5 18  1  0  0  0  0
  6 20  1  0  0  0  0
  7 10  2  0  0  0  0
  7 19  1  0  0  0  0
  8 23  1  0  0  0  0
  9 23  2  0  0  0  0
 10 24  1  0  0  0  0
 11 12  2  0  0  0  0
 11 25  1  0  0  0  0
 12 26  1  0  0  0  0
 13 21  1  0  0  0  0
 13 24  2  0  0  0  0
 14 22  1  0  0  0  0
 14 31  2  0  0  0  0
 15 26  2  0  0  0  0
 15 27  1  0  0  0  0
 16 28  1  0  0  0  0
 17 28  1  0  0  0  0
 17 29  2  0  0  0  0
 17 32  1  0  0  0  0
 18 20  2  0  0  0  0
 18 37  1  0  0  0  0
 19 21  2  0  0  0  0
 19 38  1  0  0  0  0
 20 49  1  0  0  0  0
 21 39  1  0  0  0  0
 22 30  2  0  0  0  0
 22 53  1  0  0  0  0
 23 81  1  0  0  0  0
 24 82  1  0  0  0  0
 25 27  2  0  0  0  0
 25 81  1  0  0  0  0
 26 84  1  0  0  0  0
 27 85  1  0  0  0  0
 28 64  2  0  0  0  0
 29 65  1  0  0  0  0
 29 69  1  0  0  0  0
 30 66  1  0  0  0  0
 30 80  1  0  0  0  0
 31 71  1  0  0  0  0
 31 80  1  0  0  0  0
 32 70  1  0  0  0  0
 32 75  2  0  0  0  0
 33 50  1  0  0  0  0
 33 72  1  0  0  0  0
 33 76  2  0  0  0  0
 34 61  1  0  0  0  0
 34 67  1  0  0  0  0
 34 77  2  0  0  0  0
 35 62  1  0  0  0  0
 35 73  1  0  0  0  0
 35 78  2  0  0  0  0
 36 68  1  0  0  0  0
 36 71  1  0  0  0  0
 36 79  2  0  0  0  0
 37 40  1  0  0  0  0
 38 50  1  0  0  0  0
 39 67  1  0  0  0  0
 40 42  1  0  0  0  0
 41 43  1  0  0  0  0
 41 45  1  0  0  0  0
 42 49  1  0  0  0  0
 43 51  1  0  0  0  0
 44 46  1  0  0  0  0
 44 52  1  0  0  0  0
 45 68  1  0  0  0  0
 46 66  1  0  0  0  0
 47 51  1  0  0  0  0
 47 68  1  0  0  0  0
 48 52  1  0  0  0  0
 48 66  1  0  0  0  0
 49 72  1  0  0  0  0
 50 67  1  0  0  0  0
 51 65  1  0  0  0  0
 52 60  1  0  0  0  0
 52 83  1  0  0  0  0
 54 62  1  0  0  0  0
 55 63  1  0  0  0  0
 56 63  1  0  0  0  0
 57 63  1  0  0  0  0
 58 74  1  0  0  0  0
 59 83  1  0  0  0  0
 60 82  1  0  0  0  0
 61 63  1  0  0  0  0
 61 73  1  0  0  0  0
 62 74  1  0  0  0  0
 64 65  1  0  0  0  0
M  CHG  1  74   1
M  ISO  4  36 100  60 101  71 100  82 101
M  END
> <Batch ID>
0151

> <Smiles>
CNC(C)C(=O)NC(C(=O)N1Cc2cc([101O:1][101CH2:1]C3(OC)CCN(c4oc([100NH:0][100C:0](=O)N5CCCC(n6nc(-c7ccc(Oc8ccc(F)cc8F)cc7)c(C(N)=O)c6N)C5)cc4C)C3)ccc2CC1C(=O)NC1CCCc2ccccc21)C(C)(C)C

> <Shape>
0.237

> <Color>
0.102

> <Negative vol penalty>
0.000

$$$$

  -OEChem-04052303243D

 85 94  0     1  0  0  0  0  0999 V2000
  -28.3697  -38.0220   23.0688 C   0  0  0  0  0  0  0  0  0  0  0  0
  -28.6773  -37.0305   22.1427 C   0  0  0  0  0  0  0  0  0  0  0  0
  -22.9378   -9.5150   19.9881 C   0  0  0  0  0  0  0  0  0  0  0  0
  -24.6376   -8.4575   21.3405 C   0  0  0  0  0  0  0  0  0  0  0  0
  -27.7667  -37.6811   24.2788 C   0  0  0  0  0  0  0  0  0  0  0  0
  -28.3831  -35.6973   22.4266 C   0  0  0  0  0  0  0  0  0  0  0  0
  -28.0997  -19.0346   20.4565 C   0  0  0  0  0  0  0  0  0  0  0  0
  -26.4204  -29.6057   19.2084 C   0  0  0  0  0  0  0  0  0  0  0  0
  -28.5170  -17.7283   20.2014 C   0  0  0  0  0  0  0  0  0  0  0  0
  -21.9550   -9.0586   20.8664 C   0  0  0  0  0  0  0  0  0  0  0  0
  -23.6548   -8.0011   22.2189 C   0  0  0  0  0  0  0  0  0  0  0  0
  -26.8007  -28.2679   19.1113 C   0  0  0  0  0  0  0  0  0  0  0  0
  -21.3777   -5.5044   22.3299 C   0  0  0  0  0  0  0  0  0  0  0  0
  -21.4539   -4.1782   22.7551 C   0  0  0  0  0  0  0  0  0  0  0  0
  -25.6863  -27.8058   21.2003 C   0  0  0  0  0  0  0  0  0  0  0  0
  -26.4127  -17.2699   19.1064 C   0  0  0  0  0  0  0  0  0  0  0  0
  -21.6371   -4.9232   25.0461 C   0  0  0  0  0  0  0  0  0  0  0  0
  -24.2791   -9.2144   20.2251 C   0  0  0  0  0  0  0  0  0  0  0  0
  -25.4094   -9.3945   17.9453 C   0  0  0  0  0  0  0  0  0  0  0  0
  -27.4561  -36.3442   24.5736 C   0  0  0  0  0  0  0  0  0  0  0  0
  -25.6783  -30.0566   20.3095 C   0  0  0  0  0  0  0  0  0  0  0  0
  -27.7766  -35.3381   23.6423 C   0  0  0  0  0  0  0  0  0  0  0  0
  -26.8389  -19.4586   20.0366 C   0  0  0  0  0  0  0  0  0  0  0  0
  -25.2957  -29.1493   21.3077 C   0  0  0  0  0  0  0  0  0  0  0  0
  -27.6735  -16.8460   19.5263 C   0  0  0  0  0  0  0  0  0  0  0  0
  -25.9954  -18.5762   19.3616 C   0  0  0  0  0  0  0  0  0  0  0  0
  -22.3135   -8.3016   21.9818 C   0  0  0  0  0  0  0  0  0  0  0  0
  -26.4361  -27.3683   20.1088 C   0  0  0  0  0  0  0  0  0  0  0  0
  -21.4313   -6.5401   23.2628 C   0  0  0  0  0  0  0  0  0  0  0  0
  -21.5835   -3.8875   24.1132 C   0  0  0  0  0  0  0  0  0  0  0  0
  -21.5610   -6.2495   24.6209 C   0  0  0  0  0  0  0  0  0  0  0  0
  -25.2947   -9.6852   19.3179 C   0  0  0  0  0  0  0  0  0  0  0  0
  -26.5312  -10.0768   17.5423 C   0  0  0  0  0  0  0  0  0  0  0  0
  -24.5762   -8.5805   17.1092 C   0  0  0  0  0  0  0  0  0  0  0  0
  -26.1732  -32.1648   22.6364 C   0  0  0  0  0  0  0  0  0  0  0  0
  -23.0866  -31.4913   23.3726 C   0  0  0  0  0  0  0  0  0  0  0  0
  -20.4822  -29.2921   23.2071 C   0  0  0  0  0  0  0  0  0  0  0  0
  -29.3170  -14.9389   19.6171 C   0  0  0  0  0  0  0  0  0  0  0  0
  -26.8475  -36.0191   25.9147 C   0  0  0  0  0  0  0  0  0  0  0  0
  -25.2531  -31.4974   20.3860 C   0  0  0  0  0  0  0  0  0  0  0  0
  -24.4818  -29.5788   22.5000 C   0  0  0  0  0  0  0  0  0  0  0  0
  -26.2272  -34.6258   25.9804 C   0  0  0  0  0  0  0  0  0  0  0  0
  -30.7246  -11.6959   19.1942 C   0  0  0  0  0  0  0  0  0  0  0  0
  -26.7496  -21.8331   19.1644 C   0  0  0  0  0  0  0  0  0  0  0  0
  -27.0051  -21.4032   21.6482 C   0  0  0  0  0  0  0  0  0  0  0  0
  -27.1753  -33.5907   25.3832 C   0  0  0  0  0  0  0  0  0  0  0  0
  -26.3033  -23.2644   19.4613 C   0  0  0  0  0  0  0  0  0  0  0  0
  -26.5583  -22.8356   21.9388 C   0  0  0  0  0  0  0  0  0  0  0  0
  -29.5024  -10.7866   19.0470 C   0  0  0  0  0  0  0  0  0  0  0  0
  -30.4774  -12.8199   20.1988 C   0  0  0  0  0  0  0  0  0  0  0  0
  -28.0481  -12.7095   19.8048 C   0  0  0  0  0  0  0  0  0  0  0  0
  -26.4110  -20.8855   20.3275 C   0  0  0  0  0  0  0  0  0  0  0  0
  -27.4504  -33.8836   23.9033 C   0  0  1  0  0  0  0  0  0  0  0  0
  -24.9380  -31.9526   21.8076 C   0  0  1  0  0  0  0  0  0  0  0  0
  -26.8957  -23.7815   20.7788 C   0  0  0  0  0  0  0  0  0  0  0  0
  -28.2264  -11.6004   18.7551 C   0  0  2  0  0  0  0  0  0  0  0  0
  -18.0976  -29.0046   23.9338 C   0  0  0  0  0  0  0  0  0  0  0  0
  -24.0275  -30.8817   26.2104 C   0  0  0  0  0  0  0  0  0  0  0  0
  -21.8472  -29.7173   26.6085 C   0  0  0  0  0  0  0  0  0  0  0  0
  -21.8786  -32.1537   26.0745 C   0  0  0  0  0  0  0  0  0  0  0  0
  -19.5307  -29.1072   20.4108 C   0  0  0  0  0  0  0  0  0  0  0  0
  -26.3988  -25.1954   21.0746 C   0  0  0  0  0  0  0  0  0  1  0  0
  -22.3938  -30.4787   24.2522 C   0  0  1  0  0  0  0  0  0  0  0  0
  -19.0249  -29.4834   22.8277 C   0  0  2  0  0  0  0  0  0  0  0  0
  -22.5538  -30.7998   25.7650 C   0  0  0  0  0  0  0  0  0  0  0  0
  -26.2663  -10.4894   19.7576 N   0  0  0  0  0  0  0  0  0  0  0  0
  -27.0022  -10.7098   18.6549 N   0  0  0  0  0  0  0  0  0  0  0  0
  -24.0958  -30.9992   22.5328 N   0  0  0  0  0  0  0  0  0  0  0  0
  -29.2547  -13.5498   19.8564 N   0  0  0  0  0  0  0  0  0  0  0  0
  -24.7153  -18.9886   18.9303 N   0  0  0  0  0  0  0  0  0  0  0  0
  -27.1509  -10.1910   16.3485 N   0  0  0  0  0  0  0  0  0  0  0  0
  -24.8813   -7.2182   16.9857 N   0  0  0  0  0  0  0  0  0  0  0  0
  -28.0979  -15.5190   19.2679 N   0  0  0  0  0  0  0  0  0  0  0  0
  -26.3319  -33.4611   23.0879 N   0  0  0  0  0  0  0  0  0  0  0  0
  -21.0091  -30.4218   23.7965 N   0  0  0  0  0  0  0  0  0  0  0  0
  -18.7084  -28.7217   21.5865 N   0  3  0  0  0  0  0  0  0  0  0  0
  -23.6001   -9.0508   16.4770 O   0  0  0  0  0  0  0  0  0  0  0  0
  -26.9257  -31.2219   22.8516 O   0  0  0  0  0  0  0  0  0  0  0  0
  -22.7402  -32.6741   23.4235 O   0  0  0  0  0  0  0  0  0  0  0  0
  -21.0912  -28.2440   23.0045 O   0  0  0  0  0  0  0  0  0  0  0  0
  -30.3790  -15.5626   19.6880 O   0  0  0  0  0  0  0  0  0  0  0  0
  -21.3548   -7.8563   22.8392 O   0  0  0  0  0  0  0  0  0  0  0  0
  -26.8065  -26.0621   20.0168 O   0  0  0  0  0  0  0  0  0  1  0  0
  -21.6551   -2.6138   24.5215 F   0  0  0  0  0  0  0  0  0  0  0  0
  -21.6118   -7.2401   25.5219 F   0  0  0  0  0  0  0  0  0  0  0  0
  1  2  1  0  0  0  0
  1  5  2  0  0  0  0
  2  6  2  0  0  0  0
  3 10  2  0  0  0  0
  3 18  1  0  0  0  0
  4 11  1  0  0  0  0
  4 18  2  0  0  0  0
  5 20  1  0  0  0  0
  6 22  1  0  0  0  0
  7  9  2  0  0  0  0
  7 23  1  0  0  0  0
  8 12  2  0  0  0  0
  8 21  1  0  0  0  0
  9 25  1  0  0  0  0
 10 27  1  0  0  0  0
 11 27  2  0  0  0  0
 12 28  1  0  0  0  0
 13 14  2  0  0  0  0
 13 29  1  0  0  0  0
 14 30  1  0  0  0  0
 15 24  1  0  0  0  0
 15 28  2  0  0  0  0
 16 25  2  0  0  0  0
 16 26  1  0  0  0  0
 17 30  2  0  0  0  0
 17 31  1  0  0  0  0
 18 32  1  0  0  0  0
 19 32  1  0  0  0  0
 19 33  2  0  0  0  0
 19 34  1  0  0  0  0
 20 22  2  0  0  0  0
 20 39  1  0  0  0  0
 21 24  2  0  0  0  0
 21 40  1  0  0  0  0
 22 53  1  0  0  0  0
 23 26  2  0  0  0  0
 23 52  1  0  0  0  0
 24 41  1  0  0  0  0
 25 73  1  0  0  0  0
 26 70  1  0  0  0  0
 27 82  1  0  0  0  0
 28 83  1  0  0  0  0
 29 31  2  0  0  0  0
 29 82  1  0  0  0  0
 30 84  1  0  0  0  0
 31 85  1  0  0  0  0
 32 66  2  0  0  0  0
 33 67  1  0  0  0  0
 33 71  1  0  0  0  0
 34 72  1  0  0  0  0
 34 77  2  0  0  0  0
 35 54  1  0  0  0  0
 35 74  1  0  0  0  0
 35 78  2  0  0  0  0
 36 63  1  0  0  0  0
 36 68  1  0  0  0  0
 36 79  2  0  0  0  0
 37 64  1  0  0  0  0
 37 75  1  0  0  0  0
 37 80  2  0  0  0  0
 38 69  1  0  0  0  0
 38 73  1  0  0  0  0
 38 81  2  0  0  0  0
 39 42  1  0  0  0  0
 40 54  1  0  0  0  0
 41 68  1  0  0  0  0
 42 46  1  0  0  0  0
 43 49  1  0  0  0  0
 43 50  1  0  0  0  0
 44 47  1  0  0  0  0
 44 52  1  0  0  0  0
 45 48  1  0  0  0  0
 45 52  1  0  0  0  0
 46 53  1  0  0  0  0
 47 55  1  0  0  0  0
 48 55  1  0  0  0  0
 49 56  1  0  0  0  0
 50 69  1  0  0  0  0
 51 56  1  0  0  0  0
 51 69  1  0  0  0  0
 53 74  1  0  0  0  0
 54 68  1  0  0  0  0
 55 62  1  0  0  0  0
 56 67  1  0  0  0  0
 57 64  1  0  0  0  0
 58 65  1  0  0  0  0
 59 65  1  0  0  0  0
 60 65  1  0  0  0  0
 61 76  1  0  0  0  0
 62 83  1  0  0  0  0
 63 65  1  0  0  0  0
 63 75  1  0  0  0  0
 64 76  1  0  0  0  0
 66 67  1  0  0  0  0
M  CHG  1  76   1
M  ISO  4  38 100  62 101  73 100  83 101
M  END
> <Batch ID>
0151

> <Smiles>
CNC(C)C(=O)NC(C(=O)N1Cc2cc([101O:1][101CH2:1]C3CCC(c4ccc([100NH:0][100C:0](=O)N5CCCC(n6nc(-c7ccc(Oc8ccc(F)cc8F)cc7)c(C(N)=O)c6N)C5)cc4N)CC3)ccc2CC1C(=O)NC1CCCc2ccccc21)C(C)(C)C

> <Shape>
0.295

> <Color>
0.089

> <Negative vol penalty>
0.000

$$$$

  -OEChem-04052303243D

 86 94  0     1  0  0  0  0  0999 V2000
  -30.1480  -26.6116   15.1089 C   0  0  0  0  0  0  0  0  0  0  0  0
  -30.3155  -25.2405   15.2745 C   0  0  0  0  0  0  0  0  0  0  0  0
  -19.7890  -22.6939   21.3378 C   0  0  0  0  0  0  0  0  0  0  0  0
  -22.0819  -22.5151   22.0780 C   0  0  0  0  0  0  0  0  0  0  0  0
  -30.1607  -27.4534   16.2202 C   0  0  0  0  0  0  0  0  0  0  0  0
  -30.4968  -24.7105   16.5515 C   0  0  0  0  0  0  0  0  0  0  0  0
  -28.4905  -19.3038   18.6126 C   0  0  0  0  0  0  0  0  0  0  0  0
  -25.2216  -12.3014   19.0901 C   0  0  0  0  0  0  0  0  0  0  0  0
  -26.4621  -12.7977   19.4907 C   0  0  0  0  0  0  0  0  0  0  0  0
  -19.6165  -23.8191   22.1439 C   0  0  0  0  0  0  0  0  0  0  0  0
  -21.9094  -23.6403   22.8841 C   0  0  0  0  0  0  0  0  0  0  0  0
  -29.1148  -18.0660   18.7605 C   0  0  0  0  0  0  0  0  0  0  0  0
  -18.6782  -26.9521   23.7309 C   0  0  0  0  0  0  0  0  0  0  0  0
  -18.0211  -28.0513   23.1782 C   0  0  0  0  0  0  0  0  0  0  0  0
  -29.5647  -18.5762   21.0749 C   0  0  0  0  0  0  0  0  0  0  0  0
  -25.7020  -12.8469   21.7835 C   0  0  0  0  0  0  0  0  0  0  0  0
  -19.7236  -28.2107   21.4714 C   0  0  0  0  0  0  0  0  0  0  0  0
  -21.0217  -22.0418   21.3049 C   0  0  0  0  0  0  0  0  0  0  0  0
  -21.6309  -20.8507   19.1329 C   0  0  0  0  0  0  0  0  0  0  0  0
  -30.3326  -26.9325   17.5124 C   0  0  0  0  0  0  0  0  0  0  0  0
  -28.4080  -20.1931   19.6937 C   0  0  0  0  0  0  0  0  0  0  0  0
  -30.5131  -25.5463   17.6810 C   0  0  0  0  0  0  0  0  0  0  0  0
  -28.9366  -19.8236   20.9388 C   0  0  0  0  0  0  0  0  0  0  0  0
  -24.2212  -12.0779   20.0363 C   0  0  0  0  0  0  0  0  0  0  0  0
  -26.7023  -13.0704   20.8374 C   0  0  0  0  0  0  0  0  0  0  0  0
  -20.6767  -24.2923   22.9170 C   0  0  0  0  0  0  0  0  0  0  0  0
  -29.6546  -17.7032   19.9909 C   0  0  0  0  0  0  0  0  0  0  0  0
  -19.8581  -26.4823   23.1540 C   0  0  0  0  0  0  0  0  0  0  0  0
  -18.5437  -28.6806   22.0484 C   0  0  0  0  0  0  0  0  0  0  0  0
  -20.3807  -27.1116   22.0242 C   0  0  0  0  0  0  0  0  0  0  0  0
  -24.4615  -12.3506   21.3829 C   0  0  0  0  0  0  0  0  0  0  0  0
  -21.2003  -20.8791   20.4729 C   0  0  0  0  0  0  0  0  0  0  0  0
  -21.6347  -19.5177   18.8017 C   0  0  0  0  0  0  0  0  0  0  0  0
  -21.9949  -21.9325   18.2652 C   0  0  0  0  0  0  0  0  0  0  0  0
  -29.4977  -23.1215   20.2775 C   0  0  0  0  0  0  0  0  0  0  0  0
  -27.7190  -22.8244   22.9739 C   0  0  0  0  0  0  0  0  0  0  0  0
  -29.0634  -13.8517   20.4388 C   0  0  0  0  0  0  0  0  0  0  0  0
  -26.2434  -20.7631   25.2588 C   0  0  0  0  0  0  0  0  0  0  0  0
  -22.2450  -14.6435   22.0585 C   0  0  0  0  0  0  0  0  0  0  0  0
  -30.3865  -27.8872   18.6788 C   0  0  0  0  0  0  0  0  0  0  0  0
  -27.7077  -21.5135   19.5250 C   0  0  0  0  0  0  0  0  0  0  0  0
  -28.8563  -20.7339   22.1361 C   0  0  0  0  0  0  0  0  0  0  0  0
  -30.2094  -27.2050   20.0329 C   0  0  0  0  0  0  0  0  0  0  0  0
  -19.4765  -15.3846   19.8680 C   0  0  0  0  0  0  0  0  0  0  0  0
  -31.0831  -25.9577   20.1206 C   0  0  0  0  0  0  0  0  0  0  0  0
  -19.6505  -16.8888   19.6528 C   0  0  0  0  0  0  0  0  0  0  0  0
  -19.8246  -14.9822   21.2988 C   0  0  0  0  0  0  0  0  0  0  0  0
  -21.3584  -16.8993   21.5251 C   0  0  0  0  0  0  0  0  0  0  0  0
  -30.6876  -24.9309   19.0525 C   0  0  1  0  0  0  0  0  0  0  0  0
  -28.1353  -22.5528   20.5568 C   0  0  1  0  0  0  0  0  0  0  0  0
  -21.0516  -17.3563   20.0880 C   0  0  2  0  0  0  0  0  0  0  0  0
  -22.9044  -11.5453   19.5742 C   0  0  0  0  0  0  0  0  0  0  0  0
  -24.8913  -20.8124   27.3723 C   0  0  0  0  0  0  0  0  0  0  0  0
  -30.2242  -23.5517   24.5566 C   0  0  0  0  0  0  0  0  0  0  0  0
  -29.0971  -22.6711   26.6115 C   0  0  0  0  0  0  0  0  0  0  0  0
  -28.1188  -24.6136   25.3899 C   0  0  0  0  0  0  0  0  0  0  0  0
  -23.9820  -19.3432   23.9825 C   0  0  0  0  0  0  0  0  0  0  0  0
  -30.2193  -14.3788   21.2815 C   0  0  0  0  0  0  0  0  0  0  0  0
  -30.2090  -15.8927   21.4298 C   0  0  0  0  0  0  0  0  0  1  0  0
  -27.9708  -22.3054   24.3690 C   0  0  1  0  0  0  0  0  0  0  0  0
  -24.8466  -20.7544   25.8533 C   0  0  2  0  0  0  0  0  0  0  0  0
  -28.8561  -23.2689   25.2089 C   0  0  0  0  0  0  0  0  0  0  0  0
  -20.9488  -19.6610   20.9596 N   0  0  0  0  0  0  0  0  0  0  0  0
  -21.2220  -18.8546   19.9197 N   0  0  0  0  0  0  0  0  0  0  0  0
  -28.1673  -22.0168   21.9191 N   0  0  0  0  0  0  0  0  0  0  0  0
  -21.1701  -15.4502   21.6513 N   0  0  0  0  0  0  0  0  0  0  0  0
  -21.9508  -18.8599   17.6660 N   0  0  0  0  0  0  0  0  0  0  0  0
  -21.9344  -23.2401   18.7660 N   0  0  0  0  0  0  0  0  0  0  0  0
  -27.9615  -13.5732   21.2430 N   0  0  0  0  0  0  0  0  0  0  0  0
  -29.4868  -24.2268   19.4483 N   0  0  0  0  0  0  0  0  0  0  0  0
  -26.6587  -22.0410   24.9492 N   0  0  0  0  0  0  0  0  0  0  0  0
  -22.0310  -13.2238   22.1334 N   0  0  0  0  0  0  0  0  0  0  0  0
  -24.1204  -19.5166   25.4514 N   0  3  0  0  0  0  0  0  0  0  0  0
  -22.3471  -21.7463   17.0757 O   0  0  0  0  0  0  0  0  0  0  0  0
  -30.4856  -22.5973   20.7786 O   0  0  0  0  0  0  0  0  0  0  0  0
  -27.1393  -23.9030   22.8254 O   0  0  0  0  0  0  0  0  0  0  0  0
  -29.1518  -13.7131   19.2234 O   0  0  0  0  0  0  0  0  0  0  0  0
  -26.9018  -19.7392   25.0896 O   0  0  0  0  0  0  0  0  0  0  0  0
  -23.3482  -15.1142   22.3383 O   0  0  0  0  0  0  0  0  0  0  0  0
  -22.7023  -10.7400   22.3888 O   0  0  0  0  0  0  0  0  0  0  0  0
  -23.7601  -12.4563   23.8984 O   0  0  0  0  0  0  0  0  0  0  0  0
  -20.5089  -25.3904   23.7035 O   0  0  0  0  0  0  0  0  0  0  0  0
  -30.2651  -16.4960   20.1378 O   0  0  0  0  0  0  0  0  0  1  0  0
  -17.9118  -29.7352   21.5167 F   0  0  0  0  0  0  0  0  0  0  0  0
  -21.5132  -26.6640   21.4648 F   0  0  0  0  0  0  0  0  0  0  0  0
  -23.2172  -12.0779   22.6080 S   0  0  0  0  0  0  0  0  0  0  0  0
  1  2  1  0  0  0  0
  1  5  2  0  0  0  0
  2  6  2  0  0  0  0
  3 10  2  0  0  0  0
  3 18  1  0  0  0  0
  4 11  1  0  0  0  0
  4 18  2  0  0  0  0
  5 20  1  0  0  0  0
  6 22  1  0  0  0  0
  7 12  2  0  0  0  0
  7 21  1  0  0  0  0
  8  9  2  0  0  0  0
  8 24  1  0  0  0  0
  9 25  1  0  0  0  0
 10 26  1  0  0  0  0
 11 26  2  0  0  0  0
 12 27  1  0  0  0  0
 13 14  2  0  0  0  0
 13 28  1  0  0  0  0
 14 29  1  0  0  0  0
 15 23  1  0  0  0  0
 15 27  2  0  0  0  0
 16 25  2  0  0  0  0
 16 31  1  0  0  0  0
 17 29  2  0  0  0  0
 17 30  1  0  0  0  0
 18 32  1  0  0  0  0
 19 32  1  0  0  0  0
 19 33  2  0  0  0  0
 19 34  1  0  0  0  0
 20 22  2  0  0  0  0
 20 40  1  0  0  0  0
 21 23  2  0  0  0  0
 21 41  1  0  0  0  0
 22 49  1  0  0  0  0
 23 42  1  0  0  0  0
 24 31  2  0  0  0  0
 24 52  1  0  0  0  0
 25 69  1  0  0  0  0
 26 82  1  0  0  0  0
 27 83  1  0  0  0  0
 28 30  2  0  0  0  0
 28 82  1  0  0  0  0
 29 84  1  0  0  0  0
 30 85  1  0  0  0  0
 31 86  1  0  0  0  0
 32 63  2  0  0  0  0
 33 64  1  0  0  0  0
 33 67  1  0  0  0  0
 34 68  1  0  0  0  0
 34 74  2  0  0  0  0
 35 50  1  0  0  0  0
 35 70  1  0  0  0  0
 35 75  2  0  0  0  0
 36 60  1  0  0  0  0
 36 65  1  0  0  0  0
 36 76  2  0  0  0  0
 37 58  1  0  0  0  0
 37 69  1  0  0  0  0
 37 77  2  0  0  0  0
 38 61  1  0  0  0  0
 38 71  1  0  0  0  0
 38 78  2  0  0  0  0
 39 66  1  0  0  0  0
 39 72  1  0  0  0  0
 39 79  2  0  0  0  0
 40 43  1  0  0  0  0
 41 50  1  0  0  0  0
 42 65  1  0  0  0  0
 43 45  1  0  0  0  0
 44 46  1  0  0  0  0
 44 47  1  0  0  0  0
 45 49  1  0  0  0  0
 46 51  1  0  0  0  0
 47 66  1  0  0  0  0
 48 51  1  0  0  0  0
 48 66  1  0  0  0  0
 49 70  1  0  0  0  0
 50 65  1  0  0  0  0
 51 64  1  0  0  0  0
 53 61  1  0  0  0  0
 54 62  1  0  0  0  0
 55 62  1  0  0  0  0
 56 62  1  0  0  0  0
 57 73  1  0  0  0  0
 58 59  1  0  0  0  0
 59 83  1  0  0  0  0
 60 62  1  0  0  0  0
 60 71  1  0  0  0  0
 61 73  1  0  0  0  0
 63 64  1  0  0  0  0
 72 86  1  0  0  0  0
 80 86  2  0  0  0  0
 81 86  2  0  0  0  0
M  CHG  1  73   1
M  ISO  4  39 100  59 101  72 100  83 101
M  END
> <Batch ID>
0151

> <Smiles>
CNC(C)C(=O)NC(C(=O)N1Cc2cc([101O:1][101CH2:1]CC(=O)Nc3ccc(C)c(S(=O)(=O)[100NH:0][100C:0](=O)N4CCCC(n5nc(-c6ccc(Oc7ccc(F)cc7F)cc6)c(C(N)=O)c5N)C4)c3)ccc2CC1C(=O)NC1CCCc2ccccc21)C(C)(C)C

> <Shape>
0.218

> <Color>
0.054

> <Negative vol penalty>
0.000

$$$$

  -OEChem-04052303243D

 84 93  0     1  0  0  0  0  0999 V2000
  -16.7663  -28.5459   23.8958 C   0  0  0  0  0  0  0  0  0  0  0  0
  -17.8949  -28.1315   23.1959 C   0  0  0  0  0  0  0  0  0  0  0  0
  -24.3198   -8.9082   21.3961 C   0  0  0  0  0  0  0  0  0  0  0  0
  -24.2158  -10.5512   23.1644 C   0  0  0  0  0  0  0  0  0  0  0  0
  -16.7009  -29.8415   24.4066 C   0  0  0  0  0  0  0  0  0  0  0  0
  -18.9584  -29.0130   23.0053 C   0  0  0  0  0  0  0  0  0  0  0  0
  -29.7680  -20.3107   19.8234 C   0  0  0  0  0  0  0  0  0  0  0  0
  -27.3740  -20.3239   19.4980 C   0  0  0  0  0  0  0  0  0  0  0  0
  -23.4538  -26.8523   23.8813 C   0  0  0  0  0  0  0  0  0  0  0  0
  -29.7792  -18.9228   19.6844 C   0  0  0  0  0  0  0  0  0  0  0  0
  -27.3852  -18.9360   19.3590 C   0  0  0  0  0  0  0  0  0  0  0  0
  -23.8627   -7.9295   22.2785 C   0  0  0  0  0  0  0  0  0  0  0  0
  -23.7587   -9.5725   24.0469 C   0  0  0  0  0  0  0  0  0  0  0  0
  -23.9687  -26.0266   22.8830 C   0  0  0  0  0  0  0  0  0  0  0  0
  -20.9109   -6.9631   23.6150 C   0  0  0  0  0  0  0  0  0  0  0  0
  -19.9104   -6.1014   23.1657 C   0  0  0  0  0  0  0  0  0  0  0  0
  -25.3934  -27.8253   22.1386 C   0  0  0  0  0  0  0  0  0  0  0  0
  -21.3752   -4.2138   23.5237 C   0  0  0  0  0  0  0  0  0  0  0  0
  -24.4964  -10.2191   21.8390 C   0  0  0  0  0  0  0  0  0  0  0  0
  -24.1891  -12.0659   20.1062 C   0  0  0  0  0  0  0  0  0  0  0  0
  -28.5653  -21.0112   19.7302 C   0  0  0  0  0  0  0  0  0  0  0  0
  -17.7681  -30.7363   24.2305 C   0  0  0  0  0  0  0  0  0  0  0  0
  -23.8976  -28.1763   24.0092 C   0  0  0  0  0  0  0  0  0  0  0  0
  -18.9066  -30.3223   23.5130 C   0  0  0  0  0  0  0  0  0  0  0  0
  -24.8843  -28.6650   23.1410 C   0  0  0  0  0  0  0  0  0  0  0  0
  -28.5879  -18.2355   19.4522 C   0  0  0  0  0  0  0  0  0  0  0  0
  -23.5821   -8.2616   23.6039 C   0  0  0  0  0  0  0  0  0  0  0  0
  -24.9366  -26.5139   22.0095 C   0  0  0  0  0  0  0  0  0  0  0  0
  -22.1437   -6.4502   24.0186 C   0  0  0  0  0  0  0  0  0  0  0  0
  -20.1425   -4.7268   23.1200 C   0  0  0  0  0  0  0  0  0  0  0  0
  -22.3758   -5.0755   23.9730 C   0  0  0  0  0  0  0  0  0  0  0  0
  -24.9691  -11.2304   20.9280 C   0  0  0  0  0  0  0  0  0  0  0  0
  -25.1045  -12.8429   19.4392 C   0  0  0  0  0  0  0  0  0  0  0  0
  -26.6057  -23.6840   20.5458 C   0  0  0  0  0  0  0  0  0  0  0  0
  -27.6709  -23.0078   21.0066 C   0  0  0  0  0  0  0  0  0  0  0  0
  -22.7645  -12.1336   19.9590 C   0  0  0  0  0  0  0  0  0  0  0  0
  -22.5212  -31.0338   23.7987 C   0  0  0  0  0  0  0  0  0  0  0  0
  -25.4312  -32.0761   24.7822 C   0  0  0  0  0  0  0  0  0  0  0  0
  -28.7871  -31.5016   25.0172 C   0  0  0  0  0  0  0  0  0  0  0  0
  -29.7050  -15.9788   19.3757 C   0  0  0  0  0  0  0  0  0  0  0  0
  -17.6319  -32.1419   24.7600 C   0  0  0  0  0  0  0  0  0  0  0  0
  -23.3515  -29.0459   25.1083 C   0  0  0  0  0  0  0  0  0  0  0  0
  -25.4091  -30.0726   23.2490 C   0  0  0  0  0  0  0  0  0  0  0  0
  -26.5972  -23.7547   19.0485 C   0  0  0  0  0  0  0  0  0  0  0  0
  -18.9576  -32.8946   24.8380 C   0  0  0  0  0  0  0  0  0  0  0  0
  -27.9948  -23.2733   18.6610 C   0  0  0  0  0  0  0  0  0  0  0  0
  -30.1410  -12.4547   19.1158 C   0  0  0  0  0  0  0  0  0  0  0  0
  -19.7491  -32.7171   23.5461 C   0  0  0  0  0  0  0  0  0  0  0  0
  -28.7701  -11.8907   19.4965 C   0  0  0  0  0  0  0  0  0  0  0  0
  -30.4944  -13.6912   19.9402 C   0  0  0  0  0  0  0  0  0  0  0  0
  -28.1106  -14.1904   20.3111 C   0  0  0  0  0  0  0  0  0  0  0  0
  -28.5533  -22.5196   19.8813 C   0  0  2  0  0  0  0  0  0  0  0  0
  -20.0910  -31.2415   23.3069 C   0  0  1  0  0  0  0  0  0  0  0  0
  -23.5030  -30.5367   24.8217 C   0  0  1  0  0  0  0  0  0  0  0  0
  -27.6824  -12.9822   19.4622 C   0  0  2  0  0  0  0  0  0  0  0  0
  -28.0500  -22.7244   22.4212 C   0  0  0  0  0  0  0  0  0  0  0  0
  -30.9129  -32.5527   25.8379 C   0  0  0  0  0  0  0  0  0  0  0  0
  -25.4476  -33.9295   22.3585 C   0  0  0  0  0  0  0  0  0  0  0  0
  -27.9110  -34.2282   22.6909 C   0  0  0  0  0  0  0  0  0  0  0  0
  -26.3172  -34.9593   24.4651 C   0  0  0  0  0  0  0  0  0  0  0  0
  -29.2734  -29.2986   26.9328 C   0  0  0  0  0  0  0  0  0  0  0  0
  -25.4888  -24.3103   21.3059 C   0  0  0  0  0  0  0  0  0  1  0  0
  -26.7083  -32.4896   24.0915 C   0  0  1  0  0  0  0  0  0  0  0  0
  -29.7522  -31.6321   26.1816 C   0  0  2  0  0  0  0  0  0  0  0  0
  -26.5850  -33.8757   23.3980 C   0  0  0  0  0  0  0  0  0  0  0  0
  -26.2791  -11.4554   20.7967 N   0  0  0  0  0  0  0  0  0  0  0  0
  -26.3294  -12.4410   19.8845 N   0  0  0  0  0  0  0  0  0  0  0  0
  -24.8395  -30.8859   24.3359 N   0  0  0  0  0  0  0  0  0  0  0  0
  -29.4204  -14.6834   19.8570 N   0  0  0  0  0  0  0  0  0  0  0  0
  -24.9730  -13.8238   18.5211 N   0  0  0  0  0  0  0  0  0  0  0  0
  -21.9721  -11.2633   20.7199 N   0  0  0  0  0  0  0  0  0  0  0  0
  -28.5990  -16.8257   19.3107 N   0  0  0  0  0  0  0  0  0  0  0  0
  -21.1983  -30.8368   24.1462 N   0  0  0  0  0  0  0  0  0  0  0  0
  -27.7598  -32.4176   25.1002 N   0  0  0  0  0  0  0  0  0  0  0  0
  -30.3040  -30.2974   26.5492 N   0  3  0  0  0  0  0  0  0  0  0  0
  -22.2115  -12.9305   19.1637 O   0  0  0  0  0  0  0  0  0  0  0  0
  -22.9333  -31.5585   22.7708 O   0  0  0  0  0  0  0  0  0  0  0  0
  -24.9794  -32.7793   25.6894 O   0  0  0  0  0  0  0  0  0  0  0  0
  -28.9321  -30.6726   24.1215 O   0  0  0  0  0  0  0  0  0  0  0  0
  -30.8406  -16.3039   19.0198 O   0  0  0  0  0  0  0  0  0  0  0  0
  -23.1358   -7.3069   24.4652 O   0  0  0  0  0  0  0  0  0  0  0  0
  -25.4404  -25.7103   21.0337 O   0  0  0  0  0  0  0  0  0  1  0  0
  -19.1810   -3.8993   22.6900 F   0  0  0  0  0  0  0  0  0  0  0  0
  -23.5577   -4.5767   24.3605 F   0  0  0  0  0  0  0  0  0  0  0  0
  1  2  1  0  0  0  0
  1  5  2  0  0  0  0
  2  6  2  0  0  0  0
  3 12  2  0  0  0  0
  3 19  1  0  0  0  0
  4 13  1  0  0  0  0
  4 19  2  0  0  0  0
  5 22  1  0  0  0  0
  6 24  1  0  0  0  0
  7 10  2  0  0  0  0
  7 21  1  0  0  0  0
  8 11  1  0  0  0  0
  8 21  2  0  0  0  0
  9 14  2  0  0  0  0
  9 23  1  0  0  0  0
 10 26  1  0  0  0  0
 11 26  2  0  0  0  0
 12 27  1  0  0  0  0
 13 27  2  0  0  0  0
 14 28  1  0  0  0  0
 15 16  2  0  0  0  0
 15 29  1  0  0  0  0
 16 30  1  0  0  0  0
 17 25  1  0  0  0  0
 17 28  2  0  0  0  0
 18 30  2  0  0  0  0
 18 31  1  0  0  0  0
 19 32  1  0  0  0  0
 20 32  1  0  0  0  0
 20 33  2  0  0  0  0
 20 36  1  0  0  0  0
 21 52  1  0  0  0  0
 22 24  2  0  0  0  0
 22 41  1  0  0  0  0
 23 25  2  0  0  0  0
 23 42  1  0  0  0  0
 24 53  1  0  0  0  0
 25 43  1  0  0  0  0
 26 72  1  0  0  0  0
 27 81  1  0  0  0  0
 28 82  1  0  0  0  0
 29 31  2  0  0  0  0
 29 81  1  0  0  0  0
 30 83  1  0  0  0  0
 31 84  1  0  0  0  0
 32 66  2  0  0  0  0
 33 67  1  0  0  0  0
 33 70  1  0  0  0  0
 34 35  2  0  0  0  0
 34 44  1  0  0  0  0
 34 62  1  0  0  0  0
 35 52  1  0  0  0  0
 35 56  1  0  0  0  0
 36 71  1  0  0  0  0
 36 76  2  0  0  0  0
 37 54  1  0  0  0  0
 37 73  1  0  0  0  0
 37 77  2  0  0  0  0
 38 63  1  0  0  0  0
 38 68  1  0  0  0  0
 38 78  2  0  0  0  0
 39 64  1  0  0  0  0
 39 74  1  0  0  0  0
 39 79  2  0  0  0  0
 40 69  1  0  0  0  0
 40 72  1  0  0  0  0
 40 80  2  0  0  0  0
 41 45  1  0  0  0  0
 42 54  1  0  0  0  0
 43 68  1  0  0  0  0
 44 46  1  0  0  0  0
 45 48  1  0  0  0  0
 46 52  1  0  0  0  0
 47 49  1  0  0  0  0
 47 50  1  0  0  0  0
 48 53  1  0  0  0  0
 49 55  1  0  0  0  0
 50 69  1  0  0  0  0
 51 55  1  0  0  0  0
 51 69  1  0  0  0  0
 53 73  1  0  0  0  0
 54 68  1  0  0  0  0
 55 67  1  0  0  0  0
 57 64  1  0  0  0  0
 58 65  1  0  0  0  0
 59 65  1  0  0  0  0
 60 65  1  0  0  0  0
 61 75  1  0  0  0  0
 62 82  1  0  0  0  0
 63 65  1  0  0  0  0
 63 74  1  0  0  0  0
 64 75  1  0  0  0  0
 66 67  1  0  0  0  0
M  CHG  1  75   1
M  ISO  4  40 100  62 101  72 100  82 101
M  END
> <Batch ID>
0151

> <Smiles>
CNC(C)C(=O)NC(C(=O)N1Cc2cc([101O:1][101CH2:1]C3=C(C)C(c4ccc([100NH:0][100C:0](=O)N5CCCC(n6nc(-c7ccc(Oc8ccc(F)cc8F)cc7)c(C(N)=O)c6N)C5)cc4)CC3)ccc2CC1C(=O)NC1CCCc2ccccc21)C(C)(C)C

> <Shape>
0.296

> <Color>
0.079

> <Negative vol penalty>
0.000

$$$$

  -OEChem-04052303243D

 87 96  0     1  0  0  0  0  0999 V2000
  -26.2328  -36.3682   22.2400 C   0  0  0  0  0  0  0  0  0  0  0  0
  -26.9345  -35.5809   21.3327 C   0  0  0  0  0  0  0  0  0  0  0  0
  -23.4426   -9.6889   20.0605 C   0  0  0  0  0  0  0  0  0  0  0  0
  -23.9811  -10.0339   22.3903 C   0  0  0  0  0  0  0  0  0  0  0  0
  -25.9120  -35.8614   23.4987 C   0  0  0  0  0  0  0  0  0  0  0  0
  -27.3168  -34.2867   21.6839 C   0  0  0  0  0  0  0  0  0  0  0  0
  -28.3359  -27.7972   18.8267 C   0  0  0  0  0  0  0  0  0  0  0  0
  -22.8161   -8.4852   20.3835 C   0  0  0  0  0  0  0  0  0  0  0  0
  -23.3547   -8.8302   22.7134 C   0  0  0  0  0  0  0  0  0  0  0  0
  -29.2988  -26.7915   18.7540 C   0  0  0  0  0  0  0  0  0  0  0  0
  -20.1977   -7.7053   23.1476 C   0  0  0  0  0  0  0  0  0  0  0  0
  -19.3453   -7.6960   24.2516 C   0  0  0  0  0  0  0  0  0  0  0  0
  -28.6207  -25.9934   20.9271 C   0  0  0  0  0  0  0  0  0  0  0  0
  -30.3465  -18.7027   20.5265 C   0  0  0  0  0  0  0  0  0  0  0  0
  -20.7275   -6.0174   25.3047 C   0  0  0  0  0  0  0  0  0  0  0  0
  -24.0251  -10.4632   21.0639 C   0  0  0  0  0  0  0  0  0  0  0  0
  -24.0843  -12.9841   20.6778 C   0  0  0  0  0  0  0  0  0  0  0  0
  -26.2822  -34.5569   23.8620 C   0  0  0  0  0  0  0  0  0  0  0  0
  -27.5142  -27.9154   19.9569 C   0  0  0  0  0  0  0  0  0  0  0  0
  -27.0018  -33.7625   22.9491 C   0  0  0  0  0  0  0  0  0  0  0  0
  -27.6464  -26.9999   21.0106 C   0  0  0  0  0  0  0  0  0  0  0  0
  -30.0111  -20.0772   20.6953 C   0  0  0  0  0  0  0  0  0  0  0  0
  -22.7722   -8.0559   21.7100 C   0  0  0  0  0  0  0  0  0  0  0  0
  -29.4432  -25.8912   19.8055 C   0  0  0  0  0  0  0  0  0  0  0  0
  -21.3150   -6.8706   23.1220 C   0  0  0  0  0  0  0  0  0  0  0  0
  -19.6101   -6.8521   25.3301 C   0  0  0  0  0  0  0  0  0  0  0  0
  -21.5799   -6.0267   24.2006 C   0  0  0  0  0  0  0  0  0  0  0  0
  -24.6728  -11.7064   20.7308 C   0  0  0  0  0  0  0  0  0  0  0  0
  -28.9873  -20.2527   21.6001 C   0  0  0  0  0  0  0  0  0  0  0  0
  -25.1120  -13.8209   20.3172 C   0  0  0  0  0  0  0  0  0  0  0  0
  -29.5664  -17.8800   21.3092 C   0  0  0  0  0  0  0  0  0  0  0  0
  -30.0399  -22.0887   19.1514 C   0  0  0  0  0  0  0  0  0  0  0  0
  -22.7297  -13.3793   20.9319 C   0  0  0  0  0  0  0  0  0  0  0  0
  -27.0484  -30.1515   22.1675 C   0  0  0  0  0  0  0  0  0  0  0  0
  -24.6789  -28.1555   23.1288 C   0  0  0  0  0  0  0  0  0  0  0  0
  -23.4180  -24.9854   23.2152 C   0  0  0  0  0  0  0  0  0  0  0  0
  -30.3822  -15.5514   20.8007 C   0  0  0  0  0  0  0  0  0  0  0  0
  -25.9543  -34.0696   25.2511 C   0  0  0  0  0  0  0  0  0  0  0  0
  -26.4623  -28.9894   20.0083 C   0  0  0  0  0  0  0  0  0  0  0  0
  -26.7754  -27.0714   22.2372 C   0  0  0  0  0  0  0  0  0  0  0  0
  -26.0691  -32.5556   25.4083 C   0  0  0  0  0  0  0  0  0  0  0  0
  -29.7763  -12.7800   18.6491 C   0  0  0  0  0  0  0  0  0  0  0  0
  -27.3685  -32.0514   24.7885 C   0  0  0  0  0  0  0  0  0  0  0  0
  -28.3461  -12.3588   18.9945 C   0  0  0  0  0  0  0  0  0  0  0  0
  -32.2804  -22.7844   19.5727 C   0  0  0  0  0  0  0  0  0  0  0  0
  -30.5440  -13.2472   19.8845 C   0  0  0  0  0  0  0  0  0  0  0  0
  -32.0829  -21.3779   20.1047 C   0  0  0  0  0  0  0  0  0  0  0  0
  -28.4469  -13.8711   21.0168 C   0  0  0  0  0  0  0  0  0  0  0  0
  -27.4124  -32.3450   23.2841 C   0  0  1  0  0  0  0  0  0  0  0  0
  -26.0275  -29.3322   21.4299 C   0  0  1  0  0  0  0  0  0  0  0  0
  -27.6135  -13.4541   19.7939 C   0  0  2  0  0  0  0  0  0  0  0  0
  -31.1478  -22.9573   18.5575 C   0  0  1  0  0  0  0  0  0  0  0  0
  -31.5326  -22.4013   17.1815 C   0  0  0  0  0  0  0  0  0  0  0  0
  -21.4838  -23.6584   24.1069 C   0  0  0  0  0  0  0  0  0  0  0  0
  -25.9104  -28.2400   25.9192 C   0  0  0  0  0  0  0  0  0  0  0  0
  -24.5570  -26.2159   26.5019 C   0  0  0  0  0  0  0  0  0  0  0  0
  -23.4120  -28.3425   25.8781 C   0  0  0  0  0  0  0  0  0  0  0  0
  -22.5541  -24.1989   20.4960 C   0  0  0  0  0  0  0  0  0  0  0  0
  -30.7145  -24.4166   18.4398 C   0  0  0  0  0  0  0  0  0  1  0  0
  -28.3483  -21.5093   22.0535 C   0  0  2  0  0  0  0  0  0  0  0  0
  -24.5830  -26.9941   24.0885 C   0  0  1  0  0  0  0  0  0  0  0  0
  -22.0291  -24.4455   22.9255 C   0  0  2  0  0  0  0  0  0  0  0  0
  -24.6335  -27.4477   25.5748 C   0  0  0  0  0  0  0  0  0  0  0  0
  -25.9736  -11.7249   20.4279 N   0  0  0  0  0  0  0  0  0  0  0  0
  -26.2108  -13.0245   20.1810 N   0  0  0  0  0  0  0  0  0  0  0  0
  -30.6524  -21.1551   20.0130 N   0  0  0  0  0  0  0  0  0  0  0  0
  -25.7658  -28.1429   22.2432 N   0  0  0  0  0  0  0  0  0  0  0  0
  -29.7915  -14.2877   20.5888 N   0  0  0  0  0  0  0  0  0  0  0  0
  -25.1740  -15.1529   20.1064 N   0  0  0  0  0  0  0  0  0  0  0  0
  -21.8020  -12.3922   21.2918 N   0  0  0  0  0  0  0  0  0  0  0  0
  -28.5015  -21.7313   23.5045 N   0  0  0  0  0  0  0  0  0  0  0  0
  -29.5600  -16.4702   21.4520 N   0  0  0  0  0  0  0  0  0  0  0  0
  -26.5941  -31.3961   22.5599 N   0  0  0  0  0  0  0  0  0  0  0  0
  -23.3721  -26.2649   23.7271 N   0  0  0  0  0  0  0  0  0  0  0  0
  -26.9002  -21.6153   21.6413 N   0  3  0  0  0  0  0  0  0  0  0  0
  -22.0600  -23.5476   21.7365 N   0  3  0  0  0  0  0  0  0  0  0  0
  -28.8632  -22.2032   18.8373 O   0  0  0  0  0  0  0  0  0  0  0  0
  -22.3494  -14.5700   20.8266 O   0  0  0  0  0  0  0  0  0  0  0  0
  -28.1651  -29.6881   22.3673 O   0  0  0  0  0  0  0  0  0  0  0  0
  -23.8172  -29.0376   23.1589 O   0  0  0  0  0  0  0  0  0  0  0  0
  -24.4412  -24.3356   23.0116 O   0  0  0  0  0  0  0  0  0  0  0  0
  -31.5229  -15.8087   20.4074 O   0  0  0  0  0  0  0  0  0  0  0  0
  -22.1608   -6.8815   22.0256 O   0  0  0  0  0  0  0  0  0  0  0  0
  -30.3827  -24.9090   19.7374 O   0  0  0  0  0  0  0  0  0  1  0  0
  -18.7923   -6.8444   26.3909 F   0  0  0  0  0  0  0  0  0  0  0  0
  -22.6524   -5.2234   24.1823 F   0  0  0  0  0  0  0  0  0  0  0  0
  -28.4351  -18.7643   22.2420 S   0  0  0  0  0  0  0  0  0  0  0  0
  1  2  1  0  0  0  0
  1  5  2  0  0  0  0
  2  6  2  0  0  0  0
  3  8  2  0  0  0  0
  3 16  1  0  0  0  0
  4  9  1  0  0  0  0
  4 16  2  0  0  0  0
  5 18  1  0  0  0  0
  6 20  1  0  0  0  0
  7 10  2  0  0  0  0
  7 19  1  0  0  0  0
  8 23  1  0  0  0  0
  9 23  2  0  0  0  0
 10 24  1  0  0  0  0
 11 12  2  0  0  0  0
 11 25  1  0  0  0  0
 12 26  1  0  0  0  0
 13 21  1  0  0  0  0
 13 24  2  0  0  0  0
 14 22  1  0  0  0  0
 14 31  2  0  0  0  0
 15 26  2  0  0  0  0
 15 27  1  0  0  0  0
 16 28  1  0  0  0  0
 17 28  1  0  0  0  0
 17 30  2  0  0  0  0
 17 33  1  0  0  0  0
 18 20  2  0  0  0  0
 18 38  1  0  0  0  0
 19 21  2  0  0  0  0
 19 39  1  0  0  0  0
 20 49  1  0  0  0  0
 21 40  1  0  0  0  0
 22 29  2  0  0  0  0
 22 66  1  0  0  0  0
 23 83  1  0  0  0  0
 24 84  1  0  0  0  0
 25 27  2  0  0  0  0
 25 83  1  0  0  0  0
 26 85  1  0  0  0  0
 27 86  1  0  0  0  0
 28 64  2  0  0  0  0
 29 60  1  0  0  0  0
 29 87  1  0  0  0  0
 30 65  1  0  0  0  0
 30 69  1  0  0  0  0
 31 72  1  0  0  0  0
 31 87  1  0  0  0  0
 32 52  1  0  0  0  0
 32 66  1  0  0  0  0
 32 77  2  0  0  0  0
 33 70  1  0  0  0  0
 33 78  2  0  0  0  0
 34 50  1  0  0  0  0
 34 73  1  0  0  0  0
 34 79  2  0  0  0  0
 35 61  1  0  0  0  0
 35 67  1  0  0  0  0
 35 80  2  0  0  0  0
 36 62  1  0  0  0  0
 36 74  1  0  0  0  0
 36 81  2  0  0  0  0
 37 68  1  0  0  0  0
 37 72  1  0  0  0  0
 37 82  2  0  0  0  0
 38 41  1  0  0  0  0
 39 50  1  0  0  0  0
 40 67  1  0  0  0  0
 41 43  1  0  0  0  0
 42 44  1  0  0  0  0
 42 46  1  0  0  0  0
 43 49  1  0  0  0  0
 44 51  1  0  0  0  0
 45 47  1  0  0  0  0
 45 52  1  0  0  0  0
 46 68  1  0  0  0  0
 47 66  1  0  0  0  0
 48 51  1  0  0  0  0
 48 68  1  0  0  0  0
 49 73  1  0  0  0  0
 50 67  1  0  0  0  0
 51 65  1  0  0  0  0
 52 53  1  0  0  0  0
 52 59  1  0  0  0  0
 54 62  1  0  0  0  0
 55 63  1  0  0  0  0
 56 63  1  0  0  0  0
 57 63  1  0  0  0  0
 58 76  1  0  0  0  0
 59 84  1  0  0  0  0
 60 71  1  0  0  0  0
 60 75  1  0  0  0  0
 61 63  1  0  0  0  0
 61 74  1  0  0  0  0
 62 76  1  0  0  0  0
 64 65  1  0  0  0  0
M  CHG  2  75   1  76   1
M  ISO  4  37 100  59 101  72 100  84 101
M  END
> <Batch ID>
0151

> <Smiles>
CNC(C)C(=O)NC(C(=O)N1Cc2cc([101O:1][101CH2:1]C3(C)CCN(c4cc([100NH:0][100C:0](=O)N5CCCC(n6nc(-c7ccc(Oc8ccc(F)cc8F)cc7)c(C(N)=O)c6N)C5)sc4C(N)N)C3=O)ccc2CC1C(=O)NC1CCCc2ccccc21)C(C)(C)C

> <Shape>
0.345

> <Color>
0.194

> <Negative vol penalty>
0.000

$$$$

  -OEChem-04052303243D

 84 93  0     1  0  0  0  0  0999 V2000
  -28.2467  -34.2102   26.4029 C   0  0  0  0  0  0  0  0  0  0  0  0
  -28.5538  -33.1282   25.5842 C   0  0  0  0  0  0  0  0  0  0  0  0
  -24.1997   -9.6701   21.6206 C   0  0  0  0  0  0  0  0  0  0  0  0
  -23.2143  -11.0338   19.8866 C   0  0  0  0  0  0  0  0  0  0  0  0
  -26.9534  -34.3603   26.9019 C   0  0  0  0  0  0  0  0  0  0  0  0
  -27.5681  -32.1950   25.2648 C   0  0  0  0  0  0  0  0  0  0  0  0
  -26.9458  -29.1590   19.9827 C   0  0  0  0  0  0  0  0  0  0  0  0
  -22.9279   -9.3763   22.1123 C   0  0  0  0  0  0  0  0  0  0  0  0
  -21.9425  -10.7399   20.3783 C   0  0  0  0  0  0  0  0  0  0  0  0
  -27.3177  -27.8740   19.5899 C   0  0  0  0  0  0  0  0  0  0  0  0
  -20.3668   -7.3149   21.3222 C   0  0  0  0  0  0  0  0  0  0  0  0
  -20.0895   -5.9880   21.6511 C   0  0  0  0  0  0  0  0  0  0  0  0
  -25.0959  -27.0826   20.0966 C   0  0  0  0  0  0  0  0  0  0  0  0
  -28.1030  -19.1000   18.9791 C   0  0  0  0  0  0  0  0  0  0  0  0
  -26.6721  -20.3451   17.4828 C   0  0  0  0  0  0  0  0  0  0  0  0
  -26.7200  -17.9318   17.3792 C   0  0  0  0  0  0  0  0  0  0  0  0
  -19.6450   -6.6464   23.9328 C   0  0  0  0  0  0  0  0  0  0  0  0
  -24.3429  -10.4989   20.5077 C   0  0  0  0  0  0  0  0  0  0  0  0
  -26.3783  -10.0872   19.0261 C   0  0  0  0  0  0  0  0  0  0  0  0
  -25.9490  -33.4338   26.5807 C   0  0  0  0  0  0  0  0  0  0  0  0
  -25.6471  -29.4136   20.4464 C   0  0  0  0  0  0  0  0  0  0  0  0
  -26.2606  -32.3321   25.7611 C   0  0  0  0  0  0  0  0  0  0  0  0
  -24.7093  -28.3722   20.4922 C   0  0  0  0  0  0  0  0  0  0  0  0
  -27.6101  -20.3194   18.5148 C   0  0  0  0  0  0  0  0  0  0  0  0
  -27.6580  -17.9061   18.4113 C   0  0  0  0  0  0  0  0  0  0  0  0
  -21.7993   -9.9112   21.4911 C   0  0  0  0  0  0  0  0  0  0  0  0
  -26.3936  -26.8350   19.6496 C   0  0  0  0  0  0  0  0  0  0  0  0
  -20.2833   -8.3075   22.2987 C   0  0  0  0  0  0  0  0  0  0  0  0
  -19.7286   -5.6538   22.9563 C   0  0  0  0  0  0  0  0  0  0  0  0
  -26.2271  -19.1513   16.9149 C   0  0  0  0  0  0  0  0  0  0  0  0
  -19.9224   -7.9733   23.6039 C   0  0  0  0  0  0  0  0  0  0  0  0
  -25.6565  -10.8033   19.9997 C   0  0  0  0  0  0  0  0  0  0  0  0
  -27.5587  -10.7775   18.8970 C   0  0  0  0  0  0  0  0  0  0  0  0
  -28.2174  -23.7432   19.6464 C   0  0  0  0  0  0  0  0  0  0  0  0
  -27.7800  -24.9732   19.9364 C   0  0  0  0  0  0  0  0  0  1  0  0
  -26.0144   -8.9039   18.3029 C   0  0  0  0  0  0  0  0  0  0  0  0
  -24.4047  -30.4409   23.1859 C   0  0  0  0  0  0  0  0  0  0  0  0
  -21.6414  -30.4282   21.4869 C   0  0  0  0  0  0  0  0  0  0  0  0
  -19.8710  -29.1921   18.8440 C   0  0  0  0  0  0  0  0  0  0  0  0
  -29.0919  -16.4652   19.8992 C   0  0  0  0  0  0  0  0  0  0  0  0
  -24.5775  -33.6121   27.1822 C   0  0  0  0  0  0  0  0  0  0  0  0
  -25.2539  -30.8107   20.8411 C   0  0  0  0  0  0  0  0  0  0  0  0
  -23.2965  -28.5974   20.9632 C   0  0  0  0  0  0  0  0  0  0  0  0
  -29.3347  -23.0393   20.3493 C   0  0  0  0  0  0  0  0  0  0  0  0
  -27.5858  -22.8188   18.6493 C   0  0  0  0  0  0  0  0  0  0  0  0
  -23.4971  -32.7836   26.4919 C   0  0  0  0  0  0  0  0  0  0  0  0
  -30.5519  -13.5740   21.3779 C   0  0  0  0  0  0  0  0  0  0  0  0
  -23.9770  -31.3513   26.2795 C   0  0  0  0  0  0  0  0  0  0  0  0
  -29.5307  -12.4689   21.0984 C   0  0  0  0  0  0  0  0  0  0  0  0
  -28.9340  -21.5709   20.2384 C   0  0  0  0  0  0  0  0  0  0  0  0
  -29.8742  -14.9109   21.6732 C   0  0  0  0  0  0  0  0  0  0  0  0
  -27.8833  -14.2470   20.3830 C   0  0  0  0  0  0  0  0  0  0  0  0
  -25.2124  -31.3123   25.3720 C   0  0  1  0  0  0  0  0  0  0  0  0
  -24.0546  -30.8503   21.7832 C   0  0  1  0  0  0  0  0  0  0  0  0
  -28.5198  -12.8964   20.0163 C   0  0  2  0  0  0  0  0  0  0  0  0
  -17.6252  -29.3425   17.7344 C   0  0  0  0  0  0  0  0  0  0  0  0
  -20.4363  -28.7049   23.6978 C   0  0  0  0  0  0  0  0  0  0  0  0
  -18.5796  -28.1107   22.1268 C   0  0  0  0  0  0  0  0  0  0  0  0
  -18.9160  -30.4843   22.8163 C   0  0  0  0  0  0  0  0  0  0  0  0
  -21.0555  -30.1843   16.3199 C   0  0  0  0  0  0  0  0  0  0  0  0
  -20.5564  -29.4136   21.2180 C   0  0  1  0  0  0  0  0  0  0  0  0
  -19.0463  -29.8827   17.7728 C   0  0  2  0  0  0  0  0  0  0  0  0
  -19.6492  -29.1734   22.4576 C   0  0  0  0  0  0  0  0  0  0  0  0
  -26.3226  -11.8669   20.4569 N   0  0  0  0  0  0  0  0  0  0  0  0
  -27.4755  -11.8241   19.7675 N   0  0  0  0  0  0  0  0  0  0  0  0
  -28.0509  -21.5016   19.0766 N   0  0  3  0  0  0  0  0  0  0  0  0
  -22.9621  -29.9796   21.3443 N   0  0  0  0  0  0  0  0  0  0  0  0
  -28.9340  -15.2530   20.6037 N   0  0  0  0  0  0  0  0  0  0  0  0
  -28.6493  -10.5852   18.1250 N   0  0  0  0  0  0  0  0  0  0  0  0
  -24.7645   -8.3231   18.5575 N   0  0  0  0  0  0  0  0  0  0  0  0
  -28.1585  -16.6673   18.8831 N   0  0  0  0  0  0  0  0  0  0  0  0
  -24.8281  -31.4839   23.9873 N   0  0  0  0  0  0  0  0  0  0  0  0
  -19.8414  -29.8839   20.0364 N   0  0  0  0  0  0  0  0  0  0  0  0
  -19.6634  -29.6779   16.4318 N   0  3  0  0  0  0  0  0  0  0  0  0
  -26.7818   -8.3677   17.4679 O   0  0  0  0  0  0  0  0  0  0  0  0
  -24.2971  -29.2659   23.5170 O   0  0  0  0  0  0  0  0  0  0  0  0
  -21.3285  -31.5783   21.8046 O   0  0  0  0  0  0  0  0  0  0  0  0
  -20.4774  -28.1420   18.6442 O   0  0  0  0  0  0  0  0  0  0  0  0
  -30.0056  -17.2524   20.1588 O   0  0  0  0  0  0  0  0  0  0  0  0
  -20.5581   -9.6245   21.9705 O   0  0  0  0  0  0  0  0  0  0  0  0
  -26.7542  -25.5796   19.2674 O   0  0  0  0  0  0  0  0  0  1  0  0
  -19.4608   -4.3798   23.2715 F   0  0  0  0  0  0  0  0  0  0  0  0
  -25.3254  -19.1754   15.9246 F   0  0  0  0  0  0  0  0  0  0  0  0
  -19.8393   -8.9227   24.5460 F   0  0  0  0  0  0  0  0  0  0  0  0
  1  2  1  0  0  0  0
  1  5  2  0  0  0  0
  2  6  2  0  0  0  0
  3  8  2  0  0  0  0
  3 18  1  0  0  0  0
  4  9  1  0  0  0  0
  4 18  2  0  0  0  0
  5 20  1  0  0  0  0
  6 22  1  0  0  0  0
  7 10  2  0  0  0  0
  7 21  1  0  0  0  0
  8 26  1  0  0  0  0
  9 26  2  0  0  0  0
 10 27  1  0  0  0  0
 11 12  2  0  0  0  0
 11 28  1  0  0  0  0
 12 29  1  0  0  0  0
 13 23  1  0  0  0  0
 13 27  2  0  0  0  0
 14 24  2  0  0  0  0
 14 25  1  0  0  0  0
 15 24  1  0  0  0  0
 15 30  2  0  0  0  0
 16 25  2  0  0  0  0
 16 30  1  0  0  0  0
 17 29  2  0  0  0  0
 17 31  1  0  0  0  0
 18 32  1  0  0  0  0
 19 32  1  0  0  0  0
 19 33  2  0  0  0  0
 19 36  1  0  0  0  0
 20 22  2  0  0  0  0
 20 41  1  0  0  0  0
 21 23  2  0  0  0  0
 21 42  1  0  0  0  0
 22 53  1  0  0  0  0
 23 43  1  0  0  0  0
 24 66  1  0  0  0  0
 25 71  1  0  0  0  0
 26 80  1  0  0  0  0
 27 81  1  0  0  0  0
 28 31  2  0  0  0  0
 28 80  1  0  0  0  0
 29 82  1  0  0  0  0
 30 83  1  0  0  0  0
 31 84  1  0  0  0  0
 32 64  2  0  0  0  0
 33 65  1  0  0  0  0
 33 69  1  0  0  0  0
 34 35  2  0  0  0  0
 34 44  1  0  0  0  0
 34 45  1  0  0  0  0
 35 81  1  0  0  0  0
 36 70  1  0  0  0  0
 36 75  2  0  0  0  0
 37 54  1  0  0  0  0
 37 72  1  0  0  0  0
 37 76  2  0  0  0  0
 38 61  1  0  0  0  0
 38 67  1  0  0  0  0
 38 77  2  0  0  0  0
 39 62  1  0  0  0  0
 39 73  1  0  0  0  0
 39 78  2  0  0  0  0
 40 68  1  0  0  0  0
 40 71  1  0  0  0  0
 40 79  2  0  0  0  0
 41 46  1  0  0  0  0
 42 54  1  0  0  0  0
 43 67  1  0  0  0  0
 44 50  1  0  0  0  0
 45 66  1  0  0  0  0
 46 48  1  0  0  0  0
 47 49  1  0  0  0  0
 47 51  1  0  0  0  0
 48 53  1  0  0  0  0
 49 55  1  0  0  0  0
 50 66  1  0  0  0  0
 51 68  1  0  0  0  0
 52 55  1  0  0  0  0
 52 68  1  0  0  0  0
 53 72  1  0  0  0  0
 54 67  1  0  0  0  0
 55 65  1  0  0  0  0
 56 62  1  0  0  0  0
 57 63  1  0  0  0  0
 58 63  1  0  0  0  0
 59 63  1  0  0  0  0
 60 74  1  0  0  0  0
 61 63  1  0  0  0  0
 61 73  1  0  0  0  0
 62 74  1  0  0  0  0
 64 65  1  0  0  0  0
M  CHG  1  74   1
M  ISO  4  35 101  40 100  71 100  81 101
M  END
> <Batch ID>
0151

> <Smiles>
CNC(C)C(=O)NC(C(=O)N1Cc2cc([101O:1][101CH:1]=C3CCN(c4cc(F)cc([100NH:0][100C:0](=O)N5CCCC(n6nc(-c7ccc(Oc8ccc(F)cc8F)cc7)c(C(N)=O)c6N)C5)c4)C3)ccc2CC1C(=O)NC1CCCc2ccccc21)C(C)(C)C

> <Shape>
0.290

> <Color>
0.078

> <Negative vol penalty>
0.000

$$$$

  -OEChem-04052303243D

 83 91  0     1  0  0  0  0  0999 V2000
  -21.7621  -12.5097   19.4281 C   0  0  0  0  0  0  0  0  0  0  0  0
  -21.6972  -13.8008   19.9421 C   0  0  0  0  0  0  0  0  0  0  0  0
  -26.1426  -30.0940   24.2318 C   0  0  0  0  0  0  0  0  0  0  0  0
  -24.4285  -29.9687   25.9298 C   0  0  0  0  0  0  0  0  0  0  0  0
  -22.9527  -11.7884   19.5065 C   0  0  0  0  0  0  0  0  0  0  0  0
  -22.8227  -14.3711   20.5358 C   0  0  0  0  0  0  0  0  0  0  0  0
  -23.5932  -19.1500   19.0479 C   0  0  0  0  0  0  0  0  0  0  0  0
  -26.6710  -31.2279   24.8488 C   0  0  0  0  0  0  0  0  0  0  0  0
  -24.9569  -31.1026   26.5469 C   0  0  0  0  0  0  0  0  0  0  0  0
  -22.7962  -20.1345   19.6302 C   0  0  0  0  0  0  0  0  0  0  0  0
  -28.2550  -34.3672   25.7759 C   0  0  0  0  0  0  0  0  0  0  0  0
  -28.6028  -35.4467   24.9639 C   0  0  0  0  0  0  0  0  0  0  0  0
  -18.4812  -25.1329   22.7684 C   0  0  0  0  0  0  0  0  0  0  0  0
  -24.6002  -20.7005   21.1283 C   0  0  0  0  0  0  0  0  0  0  0  0
  -26.3155  -35.6115   24.2033 C   0  0  0  0  0  0  0  0  0  0  0  0
  -25.0213  -29.4645   24.7722 C   0  0  0  0  0  0  0  0  0  0  0  0
  -18.1651  -26.4636   23.1679 C   0  0  0  0  0  0  0  0  0  0  0  0
  -24.8190  -26.9513   24.3838 C   0  0  0  0  0  0  0  0  0  0  0  0
  -24.0961  -12.3537   20.0928 C   0  0  0  0  0  0  0  0  0  0  0  0
  -24.8982  -18.9256   19.5095 C   0  0  0  0  0  0  0  0  0  0  0  0
  -24.0294  -13.6562   20.6233 C   0  0  0  0  0  0  0  0  0  0  0  0
  -25.4127  -19.7142   20.5484 C   0  0  0  0  0  0  0  0  0  0  0  0
  -26.0781  -31.7322   26.0063 C   0  0  0  0  0  0  0  0  0  0  0  0
  -23.2986  -20.9080   20.6725 C   0  0  0  0  0  0  0  0  0  0  0  0
  -26.9374  -33.9098   25.8016 C   0  0  0  0  0  0  0  0  0  0  0  0
  -27.6330  -36.0688   24.1776 C   0  0  0  0  0  0  0  0  0  0  0  0
  -25.9677  -34.5320   25.0153 C   0  0  0  0  0  0  0  0  0  0  0  0
  -24.4747  -28.2935   24.1350 C   0  0  0  0  0  0  0  0  0  0  0  0
  -24.0235  -26.2286   23.5286 C   0  0  0  0  0  0  0  0  0  0  0  0
  -18.2705  -24.2244   23.7822 C   0  0  0  0  0  0  0  0  0  0  0  0
  -17.7244  -26.5213   24.4720 C   0  0  0  0  0  0  0  0  0  0  0  0
  -18.2856  -27.6240   22.3216 C   0  0  0  0  0  0  0  0  0  0  0  0
  -25.7726  -26.4066   25.3056 C   0  0  0  0  0  0  0  0  0  0  0  0
  -18.7632  -27.5238   20.9233 C   0  0  0  0  0  0  0  0  0  0  0  0
  -26.4171  -16.4681   20.8353 C   0  0  0  0  0  0  0  0  0  0  0  0
  -20.4661  -22.3262   22.4412 C   0  0  0  0  0  0  0  0  0  0  0  0
  -29.0042  -18.3994   20.5203 C   0  0  0  0  0  0  0  0  0  0  0  0
  -30.2349  -21.5688   20.2257 C   0  0  0  0  0  0  0  0  0  0  0  0
  -25.3471  -11.5178   20.1971 C   0  0  0  0  0  0  0  0  0  0  0  0
  -25.7545  -17.8777   18.8528 C   0  0  0  0  0  0  0  0  0  0  0  0
  -26.8143  -19.5267   21.0670 C   0  0  0  0  0  0  0  0  0  0  0  0
  -26.6004  -12.3329   20.5057 C   0  0  0  0  0  0  0  0  0  0  0  0
  -21.8054  -26.5251   19.3096 C   0  0  0  0  0  0  0  0  0  0  0  0
  -26.3312  -13.3172   21.6395 C   0  0  0  0  0  0  0  0  0  0  0  0
  -22.8707  -26.7804   20.3753 C   0  0  0  0  0  0  0  0  0  0  0  0
  -20.6846  -27.5571   19.3820 C   0  0  0  0  0  0  0  0  0  0  0  0
  -21.1048  -27.9105   21.8001 C   0  0  0  0  0  0  0  0  0  0  0  0
  -25.2359  -14.3183   21.2526 C   0  0  1  0  0  0  0  0  0  0  0  0
  -26.8904  -17.3885   19.7460 C   0  0  1  0  0  0  0  0  0  0  0  0
  -22.2396  -26.8716   21.7761 C   0  0  2  0  0  0  0  0  0  0  0  0
  -32.3933  -22.8332   20.0248 C   0  0  0  0  0  0  0  0  0  0  0  0
  -29.5273  -17.9746   23.4962 C   0  0  0  0  0  0  0  0  0  0  0  0
  -31.0615  -19.9523   23.4377 C   0  0  0  0  0  0  0  0  0  0  0  0
  -31.5751  -17.9363   22.0612 C   0  0  0  0  0  0  0  0  0  0  0  0
  -29.4761  -22.6745   17.5874 C   0  0  0  0  0  0  0  0  0  0  0  0
  -18.9639  -22.1704   22.5469 C   0  0  0  0  0  0  0  0  0  0  0  0
  -21.1130  -21.6465   21.2501 C   0  0  0  0  0  0  0  0  0  1  0  0
  -29.6664  -19.4483   21.3808 C   0  0  1  0  0  0  0  0  0  0  0  0
  -31.2507  -22.1703   19.2712 C   0  0  2  0  0  0  0  0  0  0  0  0
  -30.4305  -18.8303   22.5857 C   0  0  0  0  0  0  0  0  0  0  0  0
  -23.5339  -28.4187   23.1952 N   0  0  0  0  0  0  0  0  0  0  0  0
  -17.9872  -28.8428   22.7077 N   0  0  0  0  0  0  0  0  0  0  0  0
  -23.2803  -27.1460   22.8459 N   0  0  0  0  0  0  0  0  0  0  0  0
  -20.1326  -27.6440   20.7325 N   0  0  0  0  0  0  0  0  0  0  0  0
  -27.6102  -18.4853   20.3966 N   0  0  0  0  0  0  0  0  0  0  0  0
  -23.8943  -24.9041   23.3015 N   0  0  0  0  0  0  0  0  0  0  0  0
  -17.3433  -27.6281   25.1605 N   0  0  0  0  0  0  0  0  0  0  0  0
  -26.5052  -27.2907   26.1093 N   0  0  0  0  0  0  0  0  0  0  0  0
  -18.4806  -22.8543   23.7190 N   0  0  0  0  0  0  0  0  0  0  0  0
  -25.7699  -15.3374   20.3746 N   0  0  0  0  0  0  0  0  0  0  0  0
  -30.5026  -20.2416   20.4864 N   0  0  0  0  0  0  0  0  0  0  0  0
  -30.6031  -23.1945   18.4037 N   0  3  0  0  0  0  0  0  0  0  0  0
  -25.9809  -25.1734   25.4016 O   0  0  0  0  0  0  0  0  0  0  0  0
  -17.8936  -27.3451   20.0806 O   0  0  0  0  0  0  0  0  0  0  0  0
  -26.6250  -16.7613   22.0068 O   0  0  0  0  0  0  0  0  0  0  0  0
  -21.1285  -22.9599   23.2619 O   0  0  0  0  0  0  0  0  0  0  0  0
  -29.6989  -17.5400   19.9722 O   0  0  0  0  0  0  0  0  0  0  0  0
  -29.2999  -22.2131   20.6960 O   0  0  0  0  0  0  0  0  0  0  0  0
  -26.5936  -32.8385   26.6089 O   0  0  0  0  0  0  0  0  0  0  0  0
  -22.5225  -21.8692   21.2431 O   0  0  0  0  0  0  0  0  0  1  0  0
  -27.9669  -37.1064   23.3991 F   0  0  0  0  0  0  0  0  0  0  0  0
  -24.7001  -34.0978   25.0367 F   0  0  0  0  0  0  0  0  0  0  0  0
  -17.6936  -24.9758   25.2087 S   0  0  0  0  0  0  0  0  0  0  0  0
  1  2  1  0  0  0  0
  1  5  2  0  0  0  0
  2  6  2  0  0  0  0
  3  8  2  0  0  0  0
  3 16  1  0  0  0  0
  4  9  1  0  0  0  0
  4 16  2  0  0  0  0
  5 19  1  0  0  0  0
  6 21  1  0  0  0  0
  7 10  2  0  0  0  0
  7 20  1  0  0  0  0
  8 23  1  0  0  0  0
  9 23  2  0  0  0  0
 10 24  1  0  0  0  0
 11 12  2  0  0  0  0
 11 25  1  0  0  0  0
 12 26  1  0  0  0  0
 13 17  1  0  0  0  0
 13 30  2  0  0  0  0
 14 22  1  0  0  0  0
 14 24  2  0  0  0  0
 15 26  2  0  0  0  0
 15 27  1  0  0  0  0
 16 28  1  0  0  0  0
 17 31  2  0  0  0  0
 17 32  1  0  0  0  0
 18 28  1  0  0  0  0
 18 29  2  0  0  0  0
 18 33  1  0  0  0  0
 19 21  2  0  0  0  0
 19 39  1  0  0  0  0
 20 22  2  0  0  0  0
 20 40  1  0  0  0  0
 21 48  1  0  0  0  0
 22 41  1  0  0  0  0
 23 79  1  0  0  0  0
 24 80  1  0  0  0  0
 25 27  2  0  0  0  0
 25 79  1  0  0  0  0
 26 81  1  0  0  0  0
 27 82  1  0  0  0  0
 28 61  2  0  0  0  0
 29 63  1  0  0  0  0
 29 66  1  0  0  0  0
 30 69  1  0  0  0  0
 30 83  1  0  0  0  0
 31 67  1  0  0  0  0
 31 83  1  0  0  0  0
 32 34  1  0  0  0  0
 32 62  2  0  0  0  0
 33 68  1  0  0  0  0
 33 73  2  0  0  0  0
 34 64  1  0  0  0  0
 34 74  2  0  0  0  0
 35 49  1  0  0  0  0
 35 70  1  0  0  0  0
 35 75  2  0  0  0  0
 36 56  1  0  0  0  0
 36 57  1  0  0  0  0
 36 76  2  0  0  0  0
 37 58  1  0  0  0  0
 37 65  1  0  0  0  0
 37 77  2  0  0  0  0
 38 59  1  0  0  0  0
 38 71  1  0  0  0  0
 38 78  2  0  0  0  0
 39 42  1  0  0  0  0
 40 49  1  0  0  0  0
 41 65  1  0  0  0  0
 42 44  1  0  0  0  0
 43 45  1  0  0  0  0
 43 46  1  0  0  0  0
 44 48  1  0  0  0  0
 45 50  1  0  0  0  0
 46 64  1  0  0  0  0
 47 50  1  0  0  0  0
 47 64  1  0  0  0  0
 48 70  1  0  0  0  0
 49 65  1  0  0  0  0
 50 63  1  0  0  0  0
 51 59  1  0  0  0  0
 52 60  1  0  0  0  0
 53 60  1  0  0  0  0
 54 60  1  0  0  0  0
 55 72  1  0  0  0  0
 56 69  1  0  0  0  0
 57 80  1  0  0  0  0
 58 60  1  0  0  0  0
 58 71  1  0  0  0  0
 59 72  1  0  0  0  0
 61 63  1  0  0  0  0
M  CHG  1  72   1
M  ISO  4  32 100  34 100  57 101  80 101
M  END
> <Batch ID>
0151

> <Smiles>
CNC(C)C(=O)NC(C(=O)N1Cc2cc([101O:1][101CH2:1]C(=O)CNc3cc([100C:0](=N)[100C:0](=O)N4CCCC(n5nc(-c6ccc(Oc7ccc(F)cc7F)cc6)c(C(N)=O)c5N)C4)c(N)s3)ccc2CC1C(=O)NC1CCCc2ccccc21)C(C)(C)C

> <Shape>
0.227

> <Color>
0.059

> <Negative vol penalty>
0.000

$$$$

  -OEChem-04052303243D

 80 89  0     1  0  0  0  0  0999 V2000
  -18.9709  -26.5459   16.6222 C   0  0  0  0  0  0  0  0  0  0  0  0
  -19.7500  -25.5778   17.2475 C   0  0  0  0  0  0  0  0  0  0  0  0
  -23.0787   -9.8645   19.9487 C   0  0  0  0  0  0  0  0  0  0  0  0
  -23.8354   -9.8871   22.2430 C   0  0  0  0  0  0  0  0  0  0  0  0
  -19.5663  -27.7053   16.1269 C   0  0  0  0  0  0  0  0  0  0  0  0
  -21.1254  -25.7680   17.3770 C   0  0  0  0  0  0  0  0  0  0  0  0
  -24.6688  -23.9661   22.0356 C   0  0  0  0  0  0  0  0  0  0  0  0
  -22.3363   -8.7118   20.2049 C   0  0  0  0  0  0  0  0  0  0  0  0
  -23.0929   -8.7344   22.4993 C   0  0  0  0  0  0  0  0  0  0  0  0
  -25.5019  -22.8615   22.2078 C   0  0  0  0  0  0  0  0  0  0  0  0
  -19.8651   -7.9355   23.1024 C   0  0  0  0  0  0  0  0  0  0  0  0
  -19.1066   -7.9018   24.2724 C   0  0  0  0  0  0  0  0  0  0  0  0
  -27.3947  -24.1895   21.5198 C   0  0  0  0  0  0  0  0  0  0  0  0
  -28.6939  -19.1353   23.8732 C   0  0  0  0  0  0  0  0  0  0  0  0
  -20.3499   -5.9709   25.0228 C   0  0  0  0  0  0  0  0  0  0  0  0
  -23.8284  -10.4521   20.9678 C   0  0  0  0  0  0  0  0  0  0  0  0
  -24.1665  -12.9770   20.8323 C   0  0  0  0  0  0  0  0  0  0  0  0
  -20.9482  -27.9142   16.2589 C   0  0  0  0  0  0  0  0  0  0  0  0
  -25.1915  -25.1898   21.5930 C   0  0  0  0  0  0  0  0  0  0  0  0
  -21.7400  -26.9306   16.8818 C   0  0  0  0  0  0  0  0  0  0  0  0
  -26.5665  -25.3087   21.3453 C   0  0  0  0  0  0  0  0  0  0  0  0
  -29.6588  -18.1520   23.5769 C   0  0  0  0  0  0  0  0  0  0  0  0
  -22.3433   -8.1468   21.4802 C   0  0  0  0  0  0  0  0  0  0  0  0
  -26.8646  -22.9723   21.9471 C   0  0  0  0  0  0  0  0  0  0  0  0
  -20.8660   -6.9869   22.8924 C   0  0  0  0  0  0  0  0  0  0  0  0
  -19.3490   -6.9195   25.2327 C   0  0  0  0  0  0  0  0  0  0  0  0
  -21.1084   -6.0046   23.8527 C   0  0  0  0  0  0  0  0  0  0  0  0
  -24.5960  -11.6425   20.7036 C   0  0  0  0  0  0  0  0  0  0  0  0
  -29.7864  -17.9359   22.2310 C   0  0  0  0  0  0  0  0  0  0  0  0
  -28.1312  -19.6310   22.7078 C   0  0  0  0  0  0  0  0  0  0  0  0
  -25.2580  -13.7258   20.4658 C   0  0  0  0  0  0  0  0  0  0  0  0
  -22.8947  -13.4935   21.2462 C   0  0  0  0  0  0  0  0  0  0  0  0
  -24.7335  -27.0346   19.0454 C   0  0  0  0  0  0  0  0  0  0  0  0
  -26.6847  -29.0681   20.6516 C   0  0  0  0  0  0  0  0  0  0  0  0
  -29.1263  -29.4938   22.9977 C   0  0  0  0  0  0  0  0  0  0  0  0
  -30.7400  -14.7544   20.6553 C   0  0  0  0  0  0  0  0  0  0  0  0
  -21.5537  -29.1616   15.6657 C   0  0  0  0  0  0  0  0  0  0  0  0
  -24.2839  -26.3791   21.4379 C   0  0  0  0  0  0  0  0  0  0  0  0
  -30.5799  -17.2835   24.3506 C   0  0  0  0  0  0  0  0  0  0  0  0
  -27.1806  -26.6057   20.8877 C   0  0  0  0  0  0  0  0  0  0  0  0
  -22.9616  -29.4575   16.1763 C   0  0  0  0  0  0  0  0  0  0  0  0
  -31.5515  -16.7644   23.2415 C   0  0  0  0  0  0  0  0  0  0  0  0
  -29.6093  -12.3531   18.2820 C   0  0  0  0  0  0  0  0  0  0  0  0
  -23.8162  -28.1943   16.1479 C   0  0  0  0  0  0  0  0  0  0  0  0
  -28.1717  -12.0600   18.7148 C   0  0  0  0  0  0  0  0  0  0  0  0
  -30.5244  -12.5830   19.4828 C   0  0  0  0  0  0  0  0  0  0  0  0
  -28.6196  -13.3199   20.8621 C   0  0  0  0  0  0  0  0  0  0  0  0
  -23.2314  -27.1119   17.0633 C   0  0  1  0  0  0  0  0  0  0  0  0
  -30.8008  -16.9128   21.8786 C   0  0  1  0  0  0  0  0  0  0  0  0
  -24.8409  -27.4361   20.4893 C   0  0  1  0  0  0  0  0  0  0  0  0
  -27.6474  -13.1363   19.6842 C   0  0  2  0  0  0  0  0  0  0  0  0
  -30.5460  -31.2672   24.0640 C   0  0  0  0  0  0  0  0  0  0  0  0
  -28.4248  -29.1774   18.1476 C   0  0  0  0  0  0  0  0  0  0  0  0
  -30.2568  -30.1527   19.5478 C   0  0  0  0  0  0  0  0  0  0  0  0
  -28.0999  -31.3788   19.2890 C   0  0  0  0  0  0  0  0  0  0  0  0
  -28.0154  -28.9323   25.6827 C   0  0  0  0  0  0  0  0  0  0  0  0
  -27.0721  -20.6833   22.5582 C   0  0  0  0  0  0  0  0  0  1  0  0
  -28.1763  -29.2923   20.7149 C   0  0  1  0  0  0  0  0  0  0  0  0
  -29.2539  -30.4702   24.1530 C   0  0  2  0  0  0  0  0  0  0  0  0
  -28.7279  -29.9752   19.4316 C   0  0  0  0  0  0  0  0  0  0  0  0
  -25.8616  -11.5460   20.2876 N   0  0  0  0  0  0  0  0  0  0  0  0
  -26.2367  -12.8293   20.1517 N   0  0  0  0  0  0  0  0  0  0  0  0
  -26.2508  -27.7382   20.7448 N   0  0  0  0  0  0  0  0  0  0  0  0
  -29.9711  -13.6162   20.3615 N   0  0  0  0  0  0  0  0  0  0  0  0
  -25.4665  -15.0571   20.3846 N   0  0  0  0  0  0  0  0  0  0  0  0
  -21.8837  -12.5849   21.5878 N   0  0  0  0  0  0  0  0  0  0  0  0
  -23.5421  -27.3986   18.4474 N   0  0  0  0  0  0  0  0  0  0  0  0
  -28.4250  -30.0392   21.9431 N   0  0  0  0  0  0  0  0  0  0  0  0
  -30.1382  -15.6876   21.4906 N   0  0  0  0  0  0  0  0  0  0  0  0
  -29.2407  -29.7400   25.4521 N   0  3  0  0  0  0  0  0  0  0  0  0
  -22.6565  -14.7241   21.2954 O   0  0  0  0  0  0  0  0  0  0  0  0
  -25.6632  -26.4400   18.5129 O   0  0  0  0  0  0  0  0  0  0  0  0
  -25.9320  -30.0380   20.5313 O   0  0  0  0  0  0  0  0  0  0  0  0
  -29.6045  -28.3620   23.0262 O   0  0  0  0  0  0  0  0  0  0  0  0
  -31.8763  -14.9288   20.2021 O   0  0  0  0  0  0  0  0  0  0  0  0
  -21.6187   -7.0221   21.7306 O   0  0  0  0  0  0  0  0  0  0  0  0
  -27.6798  -21.8955   22.1137 O   0  0  0  0  0  0  0  0  0  1  0  0
  -18.6216   -6.8882   26.3570 F   0  0  0  0  0  0  0  0  0  0  0  0
  -22.0694   -5.0913   23.6572 F   0  0  0  0  0  0  0  0  0  0  0  0
  -28.7900  -18.8939   21.2873 S   0  0  0  0  0  0  0  0  0  0  0  0
  1  2  1  0  0  0  0
  1  5  2  0  0  0  0
  2  6  2  0  0  0  0
  3  8  2  0  0  0  0
  3 16  1  0  0  0  0
  4  9  1  0  0  0  0
  4 16  2  0  0  0  0
  5 18  1  0  0  0  0
  6 20  1  0  0  0  0
  7 10  2  0  0  0  0
  7 19  1  0  0  0  0
  8 23  1  0  0  0  0
  9 23  2  0  0  0  0
 10 24  1  0  0  0  0
 11 12  2  0  0  0  0
 11 25  1  0  0  0  0
 12 26  1  0  0  0  0
 13 21  1  0  0  0  0
 13 24  2  0  0  0  0
 14 22  1  0  0  0  0
 14 30  2  0  0  0  0
 15 26  2  0  0  0  0
 15 27  1  0  0  0  0
 16 28  1  0  0  0  0
 17 28  1  0  0  0  0
 17 31  2  0  0  0  0
 17 32  1  0  0  0  0
 18 20  2  0  0  0  0
 18 37  1  0  0  0  0
 19 21  2  0  0  0  0
 19 38  1  0  0  0  0
 20 48  1  0  0  0  0
 21 40  1  0  0  0  0
 22 29  2  0  0  0  0
 22 39  1  0  0  0  0
 23 76  1  0  0  0  0
 24 77  1  0  0  0  0
 25 27  2  0  0  0  0
 25 76  1  0  0  0  0
 26 78  1  0  0  0  0
 27 79  1  0  0  0  0
 28 61  2  0  0  0  0
 29 49  1  0  0  0  0
 29 80  1  0  0  0  0
 30 57  1  0  0  0  0
 30 80  1  0  0  0  0
 31 62  1  0  0  0  0
 31 65  1  0  0  0  0
 32 66  1  0  0  0  0
 32 71  2  0  0  0  0
 33 50  1  0  0  0  0
 33 67  1  0  0  0  0
 33 72  2  0  0  0  0
 34 58  1  0  0  0  0
 34 63  1  0  0  0  0
 34 73  2  0  0  0  0
 35 59  1  0  0  0  0
 35 68  1  0  0  0  0
 35 74  2  0  0  0  0
 36 64  1  0  0  0  0
 36 69  1  0  0  0  0
 36 75  2  0  0  0  0
 37 41  1  0  0  0  0
 38 50  1  0  0  0  0
 39 42  1  0  0  0  0
 40 63  1  0  0  0  0
 41 44  1  0  0  0  0
 42 49  1  0  0  0  0
 43 45  1  0  0  0  0
 43 46  1  0  0  0  0
 44 48  1  0  0  0  0
 45 51  1  0  0  0  0
 46 64  1  0  0  0  0
 47 51  1  0  0  0  0
 47 64  1  0  0  0  0
 48 67  1  0  0  0  0
 49 69  1  0  0  0  0
 50 63  1  0  0  0  0
 51 62  1  0  0  0  0
 52 59  1  0  0  0  0
 53 60  1  0  0  0  0
 54 60  1  0  0  0  0
 55 60  1  0  0  0  0
 56 70  1  0  0  0  0
 57 77  1  0  0  0  0
 58 60  1  0  0  0  0
 58 68  1  0  0  0  0
 59 70  1  0  0  0  0
 61 62  1  0  0  0  0
M  CHG  1  70   1
M  ISO  4  36 100  57 101  69 100  77 101
M  END
> <Batch ID>
0151

> <Smiles>
CNC(C)C(=O)NC(C(=O)N1Cc2cc([101O:1][101CH2:1]c3cc4c(s3)C([100NH:0][100C:0](=O)N3CCCC(n5nc(-c6ccc(Oc7ccc(F)cc7F)cc6)c(C(N)=O)c5N)C3)CC4)ccc2CC1C(=O)NC1CCCc2ccccc21)C(C)(C)C

> <Shape>
0.247

> <Color>
0.196

> <Negative vol penalty>
0.000

$$$$

  -OEChem-04052303243D

 81 89  0     1  0  0  0  0  0999 V2000
  -29.1282  -32.4964   22.0596 C   0  0  0  0  0  0  0  0  0  0  0  0
  -29.0937  -31.1570   21.6853 C   0  0  0  0  0  0  0  0  0  0  0  0
  -23.0446   -9.9704   19.9042 C   0  0  0  0  0  0  0  0  0  0  0  0
  -23.9615   -9.7447   22.1281 C   0  0  0  0  0  0  0  0  0  0  0  0
  -28.0486  -33.0567   22.7412 C   0  0  0  0  0  0  0  0  0  0  0  0
  -27.9798  -30.3767   21.9932 C   0  0  0  0  0  0  0  0  0  0  0  0
  -26.4831  -27.5051   18.0998 C   0  0  0  0  0  0  0  0  0  0  0  0
  -22.3358   -8.7814   20.0758 C   0  0  0  0  0  0  0  0  0  0  0  0
  -23.2526   -8.5557   22.2996 C   0  0  0  0  0  0  0  0  0  0  0  0
  -27.2153  -26.3464   17.8447 C   0  0  0  0  0  0  0  0  0  0  0  0
  -23.5498   -5.3207   21.3629 C   0  0  0  0  0  0  0  0  0  0  0  0
  -24.2277   -4.2369   21.9210 C   0  0  0  0  0  0  0  0  0  0  0  0
  -31.3387  -18.7128   20.3525 C   0  0  0  0  0  0  0  0  0  0  0  0
  -30.7139  -19.8451   19.7544 C   0  0  0  0  0  0  0  0  0  0  0  0
  -25.5315  -25.0407   18.9758 C   0  0  0  0  0  0  0  0  0  0  0  0
  -22.6464   -4.1882   23.7470 C   0  0  0  0  0  0  0  0  0  0  0  0
  -23.8575  -10.4521   20.9304 C   0  0  0  0  0  0  0  0  0  0  0  0
  -24.1555  -12.9820   21.0653 C   0  0  0  0  0  0  0  0  0  0  0  0
  -26.9169  -32.2853   23.0491 C   0  0  0  0  0  0  0  0  0  0  0  0
  -25.2729  -27.4415   18.8055 C   0  0  0  0  0  0  0  0  0  0  0  0
  -26.8846  -30.9268   22.6807 C   0  0  0  0  0  0  0  0  0  0  0  0
  -24.7846  -26.1997   19.2363 C   0  0  0  0  0  0  0  0  0  0  0  0
  -22.4398   -8.0741   21.2735 C   0  0  0  0  0  0  0  0  0  0  0  0
  -26.7410  -25.1143   18.2853 C   0  0  0  0  0  0  0  0  0  0  0  0
  -22.4203   -5.8384   21.9970 C   0  0  0  0  0  0  0  0  0  0  0  0
  -23.7759   -3.6706   23.1130 C   0  0  0  0  0  0  0  0  0  0  0  0
  -21.9686   -5.2721   23.1890 C   0  0  0  0  0  0  0  0  0  0  0  0
  -24.5904  -11.6799   20.7536 C   0  0  0  0  0  0  0  0  0  0  0  0
  -30.5204  -18.0966   21.2734 C   0  0  0  0  0  0  0  0  0  0  0  0
  -25.2094  -13.7895   20.7137 C   0  0  0  0  0  0  0  0  0  0  0  0
  -29.4415  -20.0509   20.2408 C   0  0  0  0  0  0  0  0  0  0  0  0
  -22.9101  -13.4222   21.6229 C   0  0  0  0  0  0  0  0  0  0  0  0
  -24.2145  -28.6340   21.5553 C   0  0  0  0  0  0  0  0  0  0  0  0
  -21.3955  -27.3662   20.5712 C   0  0  0  0  0  0  0  0  0  0  0  0
  -28.6039  -22.0845   19.0173 C   0  0  0  0  0  0  0  0  0  0  0  0
  -19.7686  -25.0629   18.6490 C   0  0  0  0  0  0  0  0  0  0  0  0
  -30.6785  -14.8983   20.6426 C   0  0  0  0  0  0  0  0  0  0  0  0
  -25.7942  -32.9227   23.8288 C   0  0  0  0  0  0  0  0  0  0  0  0
  -24.4818  -28.6973   19.0492 C   0  0  0  0  0  0  0  0  0  0  0  0
  -23.4810  -26.0751   19.9803 C   0  0  0  0  0  0  0  0  0  0  0  0
  -24.4937  -32.1245   23.7869 C   0  0  0  0  0  0  0  0  0  0  0  0
  -29.4111  -12.7632   18.0908 C   0  0  0  0  0  0  0  0  0  0  0  0
  -24.7655  -30.6468   24.0506 C   0  0  0  0  0  0  0  0  0  0  0  0
  -28.0113  -12.3938   18.5848 C   0  0  0  0  0  0  0  0  0  0  0  0
  -30.4061  -12.8719   19.2441 C   0  0  0  0  0  0  0  0  0  0  0  0
  -28.5952  -13.4077   20.8276 C   0  0  0  0  0  0  0  0  0  0  0  0
  -25.6836  -30.0542   22.9749 C   0  0  1  0  0  0  0  0  0  0  0  0
  -23.5176  -28.5773   20.2253 C   0  0  1  0  0  0  0  0  0  0  0  0
  -27.5442  -13.3412   19.7062 C   0  0  2  0  0  0  0  0  0  0  0  0
  -17.4652  -24.2433   18.0832 C   0  0  0  0  0  0  0  0  0  0  0  0
  -21.2567  -25.9137   23.2509 C   0  0  0  0  0  0  0  0  0  0  0  0
  -19.4992  -24.4229   22.2728 C   0  0  0  0  0  0  0  0  0  0  0  0
  -19.0833  -26.8745   22.4712 C   0  0  0  0  0  0  0  0  0  0  0  0
  -20.0954  -25.7628   15.7921 C   0  0  0  0  0  0  0  0  0  0  0  0
  -30.8003  -16.9029   22.1007 C   0  0  0  0  0  0  0  0  0  0  0  0
  -27.3389  -22.9220   18.9868 C   0  0  0  0  0  0  0  0  0  1  0  0
  -20.7106  -26.0303   20.7302 C   0  0  1  0  0  0  0  0  0  0  0  0
  -18.5895  -25.1937   17.7018 C   0  0  2  0  0  0  0  0  0  0  0  0
  -20.1630  -25.8126   22.1690 C   0  0  0  0  0  0  0  0  0  0  0  0
  -25.8245  -11.6569   20.2430 N   0  0  0  0  0  0  0  0  0  0  0  0
  -26.1739  -12.9546   20.2311 N   0  0  0  0  0  0  0  0  0  0  0  0
  -22.7471  -27.3323   20.1998 N   0  0  0  0  0  0  0  0  0  0  0  0
  -29.9042  -13.7863   20.2727 N   0  0  0  0  0  0  0  0  0  0  0  0
  -25.3959  -15.1252   20.7731 N   0  0  0  0  0  0  0  0  0  0  0  0
  -21.9366  -12.4606   21.9259 N   0  0  0  0  0  0  0  0  0  0  0  0
  -28.4804  -21.0418   19.9292 N   0  0  0  0  0  0  0  0  0  0  0  0
  -24.9382  -29.7928   21.7623 N   0  0  0  0  0  0  0  0  0  0  0  0
  -19.6923  -25.9670   19.6873 N   0  0  0  0  0  0  0  0  0  0  0  0
  -30.1264  -15.7174   21.6199 N   0  0  0  0  0  0  0  0  0  0  0  0
  -19.0104  -24.8874   16.3054 N   0  3  0  0  0  0  0  0  0  0  0  0
  -22.6615  -14.6341   21.8307 O   0  0  0  0  0  0  0  0  0  0  0  0
  -24.1026  -27.6965   22.3365 O   0  0  0  0  0  0  0  0  0  0  0  0
  -20.7530  -28.4017   20.7623 O   0  0  0  0  0  0  0  0  0  0  0  0
  -29.5674  -22.3498   18.3060 O   0  0  0  0  0  0  0  0  0  0  0  0
  -20.6654  -24.2384   18.4863 O   0  0  0  0  0  0  0  0  0  0  0  0
  -31.7777  -15.1461   20.1355 O   0  0  0  0  0  0  0  0  0  0  0  0
  -21.7480   -6.9139   21.4413 O   0  0  0  0  0  0  0  0  0  0  0  0
  -27.4540  -23.9819   18.0382 O   0  0  0  0  0  0  0  0  0  1  0  0
  -24.4260   -2.6288   23.6479 F   0  0  0  0  0  0  0  0  0  0  0  0
  -20.8834   -5.7642   23.8020 F   0  0  0  0  0  0  0  0  0  0  0  0
  -29.0053  -18.8823   21.4139 S   0  0  0  0  0  0  0  0  0  0  0  0
  1  2  1  0  0  0  0
  1  5  2  0  0  0  0
  2  6  2  0  0  0  0
  3  8  2  0  0  0  0
  3 17  1  0  0  0  0
  4  9  1  0  0  0  0
  4 17  2  0  0  0  0
  5 19  1  0  0  0  0
  6 21  1  0  0  0  0
  7 10  2  0  0  0  0
  7 20  1  0  0  0  0
  8 23  1  0  0  0  0
  9 23  2  0  0  0  0
 10 24  1  0  0  0  0
 11 12  2  0  0  0  0
 11 25  1  0  0  0  0
 12 26  1  0  0  0  0
 13 14  1  0  0  0  0
 13 29  2  0  0  0  0
 14 31  2  0  0  0  0
 15 22  1  0  0  0  0
 15 24  2  0  0  0  0
 16 26  2  0  0  0  0
 16 27  1  0  0  0  0
 17 28  1  0  0  0  0
 18 28  1  0  0  0  0
 18 30  2  0  0  0  0
 18 32  1  0  0  0  0
 19 21  2  0  0  0  0
 19 38  1  0  0  0  0
 20 22  2  0  0  0  0
 20 39  1  0  0  0  0
 21 47  1  0  0  0  0
 22 40  1  0  0  0  0
 23 77  1  0  0  0  0
 24 78  1  0  0  0  0
 25 27  2  0  0  0  0
 25 77  1  0  0  0  0
 26 79  1  0  0  0  0
 27 80  1  0  0  0  0
 28 60  2  0  0  0  0
 29 55  1  0  0  0  0
 29 81  1  0  0  0  0
 30 61  1  0  0  0  0
 30 64  1  0  0  0  0
 31 66  1  0  0  0  0
 31 81  1  0  0  0  0
 32 65  1  0  0  0  0
 32 71  2  0  0  0  0
 33 48  1  0  0  0  0
 33 67  1  0  0  0  0
 33 72  2  0  0  0  0
 34 57  1  0  0  0  0
 34 62  1  0  0  0  0
 34 73  2  0  0  0  0
 35 56  1  0  0  0  0
 35 66  1  0  0  0  0
 35 74  2  0  0  0  0
 36 58  1  0  0  0  0
 36 68  1  0  0  0  0
 36 75  2  0  0  0  0
 37 63  1  0  0  0  0
 37 69  1  0  0  0  0
 37 76  2  0  0  0  0
 38 41  1  0  0  0  0
 39 48  1  0  0  0  0
 40 62  1  0  0  0  0
 41 43  1  0  0  0  0
 42 44  1  0  0  0  0
 42 45  1  0  0  0  0
 43 47  1  0  0  0  0
 44 49  1  0  0  0  0
 45 63  1  0  0  0  0
 46 49  1  0  0  0  0
 46 63  1  0  0  0  0
 47 67  1  0  0  0  0
 48 62  1  0  0  0  0
 49 61  1  0  0  0  0
 50 58  1  0  0  0  0
 51 59  1  0  0  0  0
 52 59  1  0  0  0  0
 53 59  1  0  0  0  0
 54 70  1  0  0  0  0
 55 69  1  0  0  0  0
 56 78  1  0  0  0  0
 57 59  1  0  0  0  0
 57 68  1  0  0  0  0
 58 70  1  0  0  0  0
 60 61  1  0  0  0  0
M  CHG  1  70   1
M  ISO  4  37 100  56 101  69 100  78 101
M  END
> <Batch ID>
0151

> <Smiles>
CNC(C)C(=O)NC(C(=O)N1Cc2cc([101O:1][101CH2:1]C(=O)Nc3ccc(C[100NH:0][100C:0](=O)N4CCCC(n5nc(-c6ccc(Oc7ccc(F)cc7F)cc6)c(C(N)=O)c5N)C4)s3)ccc2CC1C(=O)NC1CCCc2ccccc21)C(C)(C)C

> <Shape>
0.340

> <Color>
0.188

> <Negative vol penalty>
0.000

$$$$

  -OEChem-04052303243D

 84 93  0     1  0  0  0  0  0999 V2000
  -27.9252  -35.9967   13.9478 C   0  0  0  0  0  0  0  0  0  0  0  0
  -28.1837  -34.6735   14.2911 C   0  0  0  0  0  0  0  0  0  0  0  0
  -23.9976   -9.5236   19.8954 C   0  0  0  0  0  0  0  0  0  0  0  0
  -24.5795   -9.8026   22.2236 C   0  0  0  0  0  0  0  0  0  0  0  0
  -27.7953  -36.9619   14.9455 C   0  0  0  0  0  0  0  0  0  0  0  0
  -28.3136  -34.3150   15.6323 C   0  0  0  0  0  0  0  0  0  0  0  0
  -26.5812  -29.0405   18.2176 C   0  0  0  0  0  0  0  0  0  0  0  0
  -23.6218   -8.2042   20.1474 C   0  0  0  0  0  0  0  0  0  0  0  0
  -24.2036   -8.4832   22.4757 C   0  0  0  0  0  0  0  0  0  0  0  0
  -27.2853  -27.8855   18.5549 C   0  0  0  0  0  0  0  0  0  0  0  0
  -21.3351   -6.7571   22.9369 C   0  0  0  0  0  0  0  0  0  0  0  0
  -20.5557   -6.5116   24.0673 C   0  0  0  0  0  0  0  0  0  0  0  0
  -27.5301  -28.7010   20.8119 C   0  0  0  0  0  0  0  0  0  0  0  0
  -27.7332  -20.7620   21.8887 C   0  0  0  0  0  0  0  0  0  0  0  0
  -22.2757   -5.0547   24.9368 C   0  0  0  0  0  0  0  0  0  0  0  0
  -24.4766  -10.3228   20.9335 C   0  0  0  0  0  0  0  0  0  0  0  0
  -24.0489  -12.8303   20.7407 C   0  0  0  0  0  0  0  0  0  0  0  0
  -27.9141  -36.6133   16.3001 C   0  0  0  0  0  0  0  0  0  0  0  0
  -26.3552  -30.0411   19.1738 C   0  0  0  0  0  0  0  0  0  0  0  0
  -28.1865  -35.2767   16.6490 C   0  0  0  0  0  0  0  0  0  0  0  0
  -26.8206  -29.8667   20.4849 C   0  0  0  0  0  0  0  0  0  0  0  0
  -27.6510  -19.3849   22.2448 C   0  0  0  0  0  0  0  0  0  0  0  0
  -23.7247   -7.6840   21.4375 C   0  0  0  0  0  0  0  0  0  0  0  0
  -27.7624  -27.7169   19.8515 C   0  0  0  0  0  0  0  0  0  0  0  0
  -22.5848   -6.1513   22.8064 C   0  0  0  0  0  0  0  0  0  0  0  0
  -21.0260   -5.6604   25.0673 C   0  0  0  0  0  0  0  0  0  0  0  0
  -23.0551   -5.3002   23.8064 C   0  0  0  0  0  0  0  0  0  0  0  0
  -24.8656  -11.6856   20.6736 C   0  0  0  0  0  0  0  0  0  0  0  0
  -24.8846  -13.8683   20.4083 C   0  0  0  0  0  0  0  0  0  0  0  0
  -28.6974  -20.9925   20.9322 C   0  0  0  0  0  0  0  0  0  0  0  0
  -28.5554  -18.6151   21.5466 C   0  0  0  0  0  0  0  0  0  0  0  0
  -28.5926  -23.4927   20.5236 C   0  0  0  0  0  0  0  0  0  0  0  0
  -22.6591  -12.9451   21.0738 C   0  0  0  0  0  0  0  0  0  0  0  0
  -27.1761  -33.0988   19.4577 C   0  0  0  0  0  0  0  0  0  0  0  0
  -25.2383  -32.9741   22.0561 C   0  0  0  0  0  0  0  0  0  0  0  0
  -23.7646  -31.0807   24.4831 C   0  0  0  0  0  0  0  0  0  0  0  0
  -29.7613  -16.5223   20.8309 C   0  0  0  0  0  0  0  0  0  0  0  0
  -27.8128  -37.7001   17.3409 C   0  0  0  0  0  0  0  0  0  0  0  0
  -25.5707  -31.2691   18.8010 C   0  0  0  0  0  0  0  0  0  0  0  0
  -26.5870  -30.9019   21.5537 C   0  0  0  0  0  0  0  0  0  0  0  0
  -27.5923  -37.1701   18.7554 C   0  0  0  0  0  0  0  0  0  0  0  0
  -29.5711  -13.8412   18.4958 C   0  0  0  0  0  0  0  0  0  0  0  0
  -28.5494  -36.0193   19.0496 C   0  0  0  0  0  0  0  0  0  0  0  0
  -28.2628  -13.1355   18.8597 C   0  0  0  0  0  0  0  0  0  0  0  0
  -30.0396  -23.5671   18.6354 C   0  0  0  0  0  0  0  0  0  0  0  0
  -30.3002  -14.3583   19.7347 C   0  0  0  0  0  0  0  0  0  0  0  0
  -30.2016  -22.2347   19.3394 C   0  0  0  0  0  0  0  0  0  0  0  0
  -28.1835  -14.4970   20.9875 C   0  0  0  0  0  0  0  0  0  0  0  0
  -28.3095  -34.8442   18.0940 C   0  0  1  0  0  0  0  0  0  0  0  0
  -29.4426  -24.4589   19.7143 C   0  0  1  0  0  0  0  0  0  0  0  0
  -25.8442  -32.4550   19.7210 C   0  0  1  0  0  0  0  0  0  0  0  0
  -27.3813  -14.0157   19.7674 C   0  0  2  0  0  0  0  0  0  0  0  0
  -26.6997  -18.8539   23.2504 C   0  0  0  0  0  0  0  0  0  0  0  0
  -22.2663  -31.2657   26.4876 C   0  0  0  0  0  0  0  0  0  0  0  0
  -27.5627  -34.0902   23.6875 C   0  0  0  0  0  0  0  0  0  0  0  0
  -26.3626  -33.3670   25.7623 C   0  0  0  0  0  0  0  0  0  0  0  0
  -25.3293  -35.0631   24.2529 C   0  0  0  0  0  0  0  0  0  0  0  0
  -21.7134  -29.3358   23.2556 C   0  0  0  0  0  0  0  0  0  0  0  0
  -28.6475  -25.6228   19.1532 C   0  0  0  0  0  0  0  0  0  1  0  0
  -25.4291  -32.6463   23.5173 C   0  0  1  0  0  0  0  0  0  0  0  0
  -22.3339  -31.0252   24.9875 C   0  0  2  0  0  0  0  0  0  0  0  0
  -26.1772  -33.7728   24.2846 C   0  0  0  0  0  0  0  0  0  0  0  0
  -26.1235  -11.9694   20.3257 N   0  0  0  0  0  0  0  0  0  0  0  0
  -26.1035  -13.3042   20.1712 N   0  0  0  0  0  0  0  0  0  0  0  0
  -29.1113  -22.2012   20.2963 N   0  0  0  0  0  0  0  0  0  0  0  0
  -25.8201  -32.0880   21.1384 N   0  0  0  0  0  0  0  0  0  0  0  0
  -29.4047  -15.1876   20.5440 N   0  0  0  0  0  0  0  0  0  0  0  0
  -24.6884  -15.1995   20.2986 N   0  0  0  0  0  0  0  0  0  0  0  0
  -21.9493  -11.7787   21.3902 N   0  0  0  0  0  0  0  0  0  0  0  0
  -28.8170  -17.2229   21.5806 N   0  0  0  0  0  0  0  0  0  0  0  0
  -27.1404  -34.0937   18.4994 N   0  0  0  0  0  0  0  0  0  0  0  0
  -24.1029  -32.3433   24.0443 N   0  0  0  0  0  0  0  0  0  0  0  0
  -21.7338  -29.6923   24.6976 N   0  3  0  0  0  0  0  0  0  0  0  0
  -27.6864  -23.8537   21.2604 O   0  0  0  0  0  0  0  0  0  0  0  0
  -22.0602  -14.0473   21.0745 O   0  0  0  0  0  0  0  0  0  0  0  0
  -28.1627  -32.7219   20.0790 O   0  0  0  0  0  0  0  0  0  0  0  0
  -24.5906  -33.9754   21.7405 O   0  0  0  0  0  0  0  0  0  0  0  0
  -24.5089  -30.1027   24.4821 O   0  0  0  0  0  0  0  0  0  0  0  0
  -30.8134  -17.0161   20.4172 O   0  0  0  0  0  0  0  0  0  0  0  0
  -23.3577   -6.3967   21.6839 O   0  0  0  0  0  0  0  0  0  0  0  0
  -28.4506  -26.5907   20.1832 O   0  0  0  0  0  0  0  0  0  1  0  0
  -20.2781   -5.4260   26.1535 F   0  0  0  0  0  0  0  0  0  0  0  0
  -24.2554   -4.7163   23.6872 F   0  0  0  0  0  0  0  0  0  0  0  0
  -29.4984  -19.5521   20.4673 S   0  0  0  0  0  0  0  0  0  0  0  0
  1  2  1  0  0  0  0
  1  5  2  0  0  0  0
  2  6  2  0  0  0  0
  3  8  2  0  0  0  0
  3 16  1  0  0  0  0
  4  9  1  0  0  0  0
  4 16  2  0  0  0  0
  5 18  1  0  0  0  0
  6 20  1  0  0  0  0
  7 10  2  0  0  0  0
  7 19  1  0  0  0  0
  8 23  1  0  0  0  0
  9 23  2  0  0  0  0
 10 24  1  0  0  0  0
 11 12  2  0  0  0  0
 11 25  1  0  0  0  0
 12 26  1  0  0  0  0
 13 21  1  0  0  0  0
 13 24  2  0  0  0  0
 14 22  1  0  0  0  0
 14 30  2  0  0  0  0
 15 26  2  0  0  0  0
 15 27  1  0  0  0  0
 16 28  1  0  0  0  0
 17 28  1  0  0  0  0
 17 29  2  0  0  0  0
 17 33  1  0  0  0  0
 18 20  2  0  0  0  0
 18 38  1  0  0  0  0
 19 21  2  0  0  0  0
 19 39  1  0  0  0  0
 20 49  1  0  0  0  0
 21 40  1  0  0  0  0
 22 31  2  0  0  0  0
 22 53  1  0  0  0  0
 23 80  1  0  0  0  0
 24 81  1  0  0  0  0
 25 27  2  0  0  0  0
 25 80  1  0  0  0  0
 26 82  1  0  0  0  0
 27 83  1  0  0  0  0
 28 63  2  0  0  0  0
 29 64  1  0  0  0  0
 29 68  1  0  0  0  0
 30 65  1  0  0  0  0
 30 84  1  0  0  0  0
 31 70  1  0  0  0  0
 31 84  1  0  0  0  0
 32 50  1  0  0  0  0
 32 65  1  0  0  0  0
 32 74  2  0  0  0  0
 33 69  1  0  0  0  0
 33 75  2  0  0  0  0
 34 51  1  0  0  0  0
 34 71  1  0  0  0  0
 34 76  2  0  0  0  0
 35 60  1  0  0  0  0
 35 66  1  0  0  0  0
 35 77  2  0  0  0  0
 36 61  1  0  0  0  0
 36 72  1  0  0  0  0
 36 78  2  0  0  0  0
 37 67  1  0  0  0  0
 37 70  1  0  0  0  0
 37 79  2  0  0  0  0
 38 41  1  0  0  0  0
 39 51  1  0  0  0  0
 40 66  1  0  0  0  0
 41 43  1  0  0  0  0
 42 44  1  0  0  0  0
 42 46  1  0  0  0  0
 43 49  1  0  0  0  0
 44 52  1  0  0  0  0
 45 47  1  0  0  0  0
 45 50  1  0  0  0  0
 46 67  1  0  0  0  0
 47 65  1  0  0  0  0
 48 52  1  0  0  0  0
 48 67  1  0  0  0  0
 49 71  1  0  0  0  0
 50 59  1  0  0  0  0
 51 66  1  0  0  0  0
 52 64  1  0  0  0  0
 54 61  1  0  0  0  0
 55 62  1  0  0  0  0
 56 62  1  0  0  0  0
 57 62  1  0  0  0  0
 58 73  1  0  0  0  0
 59 81  1  0  0  0  0
 60 62  1  0  0  0  0
 60 72  1  0  0  0  0
 61 73  1  0  0  0  0
 63 64  1  0  0  0  0
M  CHG  1  73   1
M  ISO  4  37 100  59 101  70 100  81 101
M  END
> <Batch ID>
0151

> <Smiles>
CNC(C)C(=O)NC(C(=O)N1Cc2cc([101O:1][101CH2:1]C3CCN(c4cc(C)c([100NH:0][100C:0](=O)N5CCCC(n6nc(-c7ccc(Oc8ccc(F)cc8F)cc7)c(C(N)=O)c6N)C5)s4)C3=O)ccc2CC1C(=O)NC1CCCc2ccccc21)C(C)(C)C

> <Shape>
0.311

> <Color>
0.131

> <Negative vol penalty>
0.000

$$$$

  -OEChem-04052303243D

 81 89  0     1  0  0  0  0  0999 V2000
  -31.1877  -11.3903   22.7860 C   0  0  0  0  0  0  0  0  0  0  0  0
  -31.1005  -12.6156   22.1330 C   0  0  0  0  0  0  0  0  0  0  0  0
  -21.6010  -28.5441   22.4848 C   0  0  0  0  0  0  0  0  0  0  0  0
  -23.5686  -27.8285   23.6905 C   0  0  0  0  0  0  0  0  0  0  0  0
  -30.1664  -10.4518   22.6441 C   0  0  0  0  0  0  0  0  0  0  0  0
  -29.9924  -12.9027   21.3367 C   0  0  0  0  0  0  0  0  0  0  0  0
  -28.1871  -17.5673   22.1288 C   0  0  0  0  0  0  0  0  0  0  0  0
  -20.8140  -27.7001   23.2682 C   0  0  0  0  0  0  0  0  0  0  0  0
  -22.7815  -26.9844   24.4739 C   0  0  0  0  0  0  0  0  0  0  0  0
  -28.8764  -18.6256   21.5385 C   0  0  0  0  0  0  0  0  0  0  0  0
  -18.3361  -25.4643   24.7122 C   0  0  0  0  0  0  0  0  0  0  0  0
  -17.3762  -24.6854   24.0660 C   0  0  0  0  0  0  0  0  0  0  0  0
  -31.5613  -26.8330   20.7413 C   0  0  0  0  0  0  0  0  0  0  0  0
  -31.5901  -25.6114   21.4553 C   0  0  0  0  0  0  0  0  0  0  0  0
  -27.2415  -18.6938   19.7660 C   0  0  0  0  0  0  0  0  0  0  0  0
  -19.1134  -23.6242   22.7648 C   0  0  0  0  0  0  0  0  0  0  0  0
  -22.9784  -28.6083   22.6959 C   0  0  0  0  0  0  0  0  0  0  0  0
  -24.1200  -30.8231   22.1493 C   0  0  0  0  0  0  0  0  0  0  0  0
  -29.0406  -10.7314   21.8534 C   0  0  0  0  0  0  0  0  0  0  0  0
  -27.0238  -17.0563   21.5354 C   0  0  0  0  0  0  0  0  0  0  0  0
  -28.9557  -11.9666   21.1830 C   0  0  0  0  0  0  0  0  0  0  0  0
  -26.5378  -17.6307   20.3522 C   0  0  0  0  0  0  0  0  0  0  0  0
  -21.4042  -26.9203   24.2628 C   0  0  0  0  0  0  0  0  0  0  0  0
  -28.4053  -19.1871   20.3553 C   0  0  0  0  0  0  0  0  0  0  0  0
  -19.6846  -25.3232   24.3846 C   0  0  0  0  0  0  0  0  0  0  0  0
  -17.7648  -23.7653   23.0923 C   0  0  0  0  0  0  0  0  0  0  0  0
  -20.0732  -24.4032   23.4109 C   0  0  0  0  0  0  0  0  0  0  0  0
  -23.7920  -29.4796   21.8866 C   0  0  0  0  0  0  0  0  0  0  0  0
  -30.8520  -26.5854   19.5891 C   0  0  0  0  0  0  0  0  0  0  0  0
  -24.9076  -31.1981   21.0884 C   0  0  0  0  0  0  0  0  0  0  0  0
  -30.8961  -24.7044   20.6887 C   0  0  0  0  0  0  0  0  0  0  0  0
  -23.7463  -31.6576   23.2537 C   0  0  0  0  0  0  0  0  0  0  0  0
  -26.1703  -14.2406   20.3324 C   0  0  0  0  0  0  0  0  0  0  0  0
  -23.2674  -15.6662   20.0812 C   0  0  0  0  0  0  0  0  0  0  0  0
  -29.8837  -22.4899   20.0520 C   0  0  0  0  0  0  0  0  0  0  0  0
  -21.4713  -18.5574   19.8335 C   0  0  0  0  0  0  0  0  0  0  0  0
  -28.3814  -28.1243   17.3021 C   0  0  0  0  0  0  0  0  0  0  0  0
  -27.9844   -9.6670   21.6922 C   0  0  0  0  0  0  0  0  0  0  0  0
  -26.2770  -15.9319   22.1990 C   0  0  0  0  0  0  0  0  0  0  0  0
  -25.2825  -17.1320   19.6859 C   0  0  0  0  0  0  0  0  0  0  0  0
  -26.6671  -10.1962   21.1309 C   0  0  0  0  0  0  0  0  0  0  0  0
  -25.6521  -30.2494   16.4584 C   0  0  0  0  0  0  0  0  0  0  0  0
  -26.9237  -11.1016   19.9305 C   0  0  0  0  0  0  0  0  0  0  0  0
  -24.8955  -30.4143   17.7776 C   0  0  0  0  0  0  0  0  0  0  0  0
  -26.2282  -28.8430   16.3102 C   0  0  0  0  0  0  0  0  0  0  0  0
  -26.3102  -28.5601   18.7570 C   0  0  0  0  0  0  0  0  0  0  0  0
  -27.7578  -12.3247   20.3304 C   0  0  1  0  0  0  0  0  0  0  0  0
  -25.3882  -15.1534   21.2339 C   0  0  1  0  0  0  0  0  0  0  0  0
  -25.7586  -29.9791   18.9772 C   0  0  2  0  0  0  0  0  0  0  0  0
  -19.1193  -19.4019   19.6048 C   0  0  0  0  0  0  0  0  0  0  0  0
  -23.2704  -14.8695   17.1358 C   0  0  0  0  0  0  0  0  0  0  0  0
  -21.4222  -16.5161   16.7604 C   0  0  0  0  0  0  0  0  0  0  0  0
  -21.0724  -14.5790   18.2928 C   0  0  0  0  0  0  0  0  0  0  0  0
  -21.6283  -20.0322   22.3947 C   0  0  0  0  0  0  0  0  0  0  0  0
  -30.4706  -27.4231   18.4434 C   0  0  0  0  0  0  0  0  0  0  0  0
  -29.7938  -21.0961   20.6450 C   0  0  0  0  0  0  0  0  0  1  0  0
  -22.5658  -16.4837   19.0236 C   0  0  1  0  0  0  0  0  0  0  0  0
  -20.2367  -19.0427   20.5717 C   0  0  2  0  0  0  0  0  0  0  0  0
  -22.1075  -15.6204   17.8144 C   0  0  0  0  0  0  0  0  0  0  0  0
  -24.3273  -29.0313   20.7480 N   0  0  0  0  0  0  0  0  0  0  0  0
  -24.9995  -30.0992   20.2857 N   0  0  0  0  0  0  0  0  0  0  0  0
  -24.5912  -16.0266   20.3700 N   0  0  0  0  0  0  0  0  0  0  0  0
  -27.0374  -28.4922   17.4798 N   0  0  0  0  0  0  0  0  0  0  0  0
  -25.5233  -32.3573   20.7730 N   0  0  0  0  0  0  0  0  0  0  0  0
  -22.9327  -31.1135   24.2569 N   0  0  0  0  0  0  0  0  0  0  0  0
  -30.5994  -23.3358   20.8925 N   0  0  0  0  0  0  0  0  0  0  0  0
  -26.9305  -13.3023   21.0043 N   0  0  0  0  0  0  0  0  0  0  0  0
  -21.4814  -17.1849   19.7024 N   0  0  0  0  0  0  0  0  0  0  0  0
  -29.0785  -27.8134   18.4632 N   0  0  0  0  0  0  0  0  0  0  0  0
  -20.5602  -20.2488   21.3851 N   0  3  0  0  0  0  0  0  0  0  0  0
  -24.1091  -32.8553   23.3398 O   0  0  0  0  0  0  0  0  0  0  0  0
  -26.0890  -14.3765   19.1173 O   0  0  0  0  0  0  0  0  0  0  0  0
  -22.6608  -14.7463   20.6358 O   0  0  0  0  0  0  0  0  0  0  0  0
  -29.3703  -22.7630   18.9720 O   0  0  0  0  0  0  0  0  0  0  0  0
  -22.3380  -19.3200   19.4119 O   0  0  0  0  0  0  0  0  0  0  0  0
  -28.9215  -28.0816   16.1916 O   0  0  0  0  0  0  0  0  0  0  0  0
  -30.4429  -25.2902   19.5494 O   0  0  0  0  0  0  0  0  0  0  0  0
  -20.6365  -26.0967   25.0276 O   0  0  0  0  0  0  0  0  0  0  0  0
  -29.0766  -20.2198   19.7766 O   0  0  0  0  0  0  0  0  0  1  0  0
  -16.8431  -23.0163   22.4730 F   0  0  0  0  0  0  0  0  0  0  0  0
  -21.3674  -24.2623   23.0928 F   0  0  0  0  0  0  0  0  0  0  0  0
  1  2  1  0  0  0  0
  1  5  2  0  0  0  0
  2  6  2  0  0  0  0
  3  8  2  0  0  0  0
  3 17  1  0  0  0  0
  4  9  1  0  0  0  0
  4 17  2  0  0  0  0
  5 19  1  0  0  0  0
  6 21  1  0  0  0  0
  7 10  2  0  0  0  0
  7 20  1  0  0  0  0
  8 23  1  0  0  0  0
  9 23  2  0  0  0  0
 10 24  1  0  0  0  0
 11 12  2  0  0  0  0
 11 25  1  0  0  0  0
 12 26  1  0  0  0  0
 13 14  1  0  0  0  0
 13 29  2  0  0  0  0
 14 31  2  0  0  0  0
 15 22  1  0  0  0  0
 15 24  2  0  0  0  0
 16 26  2  0  0  0  0
 16 27  1  0  0  0  0
 17 28  1  0  0  0  0
 18 28  1  0  0  0  0
 18 30  2  0  0  0  0
 18 32  1  0  0  0  0
 19 21  2  0  0  0  0
 19 38  1  0  0  0  0
 20 22  2  0  0  0  0
 20 39  1  0  0  0  0
 21 47  1  0  0  0  0
 22 40  1  0  0  0  0
 23 78  1  0  0  0  0
 24 79  1  0  0  0  0
 25 27  2  0  0  0  0
 25 78  1  0  0  0  0
 26 80  1  0  0  0  0
 27 81  1  0  0  0  0
 28 60  2  0  0  0  0
 29 55  1  0  0  0  0
 29 77  1  0  0  0  0
 30 61  1  0  0  0  0
 30 64  1  0  0  0  0
 31 66  1  0  0  0  0
 31 77  1  0  0  0  0
 32 65  1  0  0  0  0
 32 71  2  0  0  0  0
 33 48  1  0  0  0  0
 33 67  1  0  0  0  0
 33 72  2  0  0  0  0
 34 57  1  0  0  0  0
 34 62  1  0  0  0  0
 34 73  2  0  0  0  0
 35 56  1  0  0  0  0
 35 66  1  0  0  0  0
 35 74  2  0  0  0  0
 36 58  1  0  0  0  0
 36 68  1  0  0  0  0
 36 75  2  0  0  0  0
 37 63  1  0  0  0  0
 37 69  1  0  0  0  0
 37 76  2  0  0  0  0
 38 41  1  0  0  0  0
 39 48  1  0  0  0  0
 40 62  1  0  0  0  0
 41 43  1  0  0  0  0
 42 44  1  0  0  0  0
 42 45  1  0  0  0  0
 43 47  1  0  0  0  0
 44 49  1  0  0  0  0
 45 63  1  0  0  0  0
 46 49  1  0  0  0  0
 46 63  1  0  0  0  0
 47 67  1  0  0  0  0
 48 62  1  0  0  0  0
 49 61  1  0  0  0  0
 50 58  1  0  0  0  0
 51 59  1  0  0  0  0
 52 59  1  0  0  0  0
 53 59  1  0  0  0  0
 54 70  1  0  0  0  0
 55 69  1  0  0  0  0
 56 79  1  0  0  0  0
 57 59  1  0  0  0  0
 57 68  1  0  0  0  0
 58 70  1  0  0  0  0
 60 61  1  0  0  0  0
M  CHG  1  70   1
M  ISO  4  37 100  56 101  69 100  79 101
M  END
> <Batch ID>
0151

> <Smiles>
CNC(C)C(=O)NC(C(=O)N1Cc2cc([101O:1][101CH2:1]C(=O)Nc3ccc(C[100NH:0][100C:0](=O)N4CCCC(n5nc(-c6ccc(Oc7ccc(F)cc7F)cc6)c(C(N)=O)c5N)C4)o3)ccc2CC1C(=O)NC1CCCc2ccccc21)C(C)(C)C

> <Shape>
0.203

> <Color>
0.091

> <Negative vol penalty>
0.000

$$$$

  -OEChem-04052303243D

 85 93  0     1  0  0  0  0  0999 V2000
  -27.7871  -12.4070   17.4305 C   0  0  0  0  0  0  0  0  0  0  0  0
  -26.6440  -13.0666   16.9904 C   0  0  0  0  0  0  0  0  0  0  0  0
  -28.6832  -24.4766   18.6126 C   0  0  0  0  0  0  0  0  0  0  0  0
  -26.7286  -23.6423   19.7618 C   0  0  0  0  0  0  0  0  0  0  0  0
  -27.8891  -12.0037   18.7612 C   0  0  0  0  0  0  0  0  0  0  0  0
  -25.6017  -13.3223   17.8807 C   0  0  0  0  0  0  0  0  0  0  0  0
  -22.1985  -20.0911   19.7858 C   0  0  0  0  0  0  0  0  0  0  0  0
  -29.3438  -23.2739   18.8630 C   0  0  0  0  0  0  0  0  0  0  0  0
  -27.3892  -22.4396   20.0121 C   0  0  0  0  0  0  0  0  0  0  0  0
  -21.6245  -21.2446   20.3207 C   0  0  0  0  0  0  0  0  0  0  0  0
  -28.1481  -19.6166   18.3165 C   0  0  0  0  0  0  0  0  0  0  0  0
  -27.4433  -18.4335   18.0948 C   0  0  0  0  0  0  0  0  0  0  0  0
  -19.4231  -28.9776   23.0529 C   0  0  0  0  0  0  0  0  0  0  0  0
  -21.1600  -20.0700   22.3829 C   0  0  0  0  0  0  0  0  0  0  0  0
  -27.7265  -17.8296   20.4169 C   0  0  0  0  0  0  0  0  0  0  0  0
  -27.3756  -24.6608   19.0620 C   0  0  0  0  0  0  0  0  0  0  0  0
  -18.1849  -28.2978   22.9640 C   0  0  0  0  0  0  0  0  0  0  0  0
  -26.4056  -26.4705   17.5482 C   0  0  0  0  0  0  0  0  0  0  0  0
  -26.8515  -12.2632   19.6705 C   0  0  0  0  0  0  0  0  0  0  0  0
  -22.2694  -18.9256   20.5539 C   0  0  0  0  0  0  0  0  0  0  0  0
  -25.6893  -12.9209   19.2245 C   0  0  0  0  0  0  0  0  0  0  0  0
  -21.7451  -18.9151   21.8569 C   0  0  0  0  0  0  0  0  0  0  0  0
  -28.6968  -22.2554   19.5627 C   0  0  0  0  0  0  0  0  0  0  0  0
  -21.1064  -21.2339   21.6159 C   0  0  0  0  0  0  0  0  0  0  0  0
  -28.6422  -19.9062   19.5884 C   0  0  0  0  0  0  0  0  0  0  0  0
  -27.2325  -17.5400   19.1450 C   0  0  0  0  0  0  0  0  0  0  0  0
  -28.4314  -19.0127   20.6386 C   0  0  0  0  0  0  0  0  0  0  0  0
  -26.6929  -25.9032   18.8042 C   0  0  0  0  0  0  0  0  0  0  0  0
  -25.7505  -27.6414   17.8422 C   0  0  0  0  0  0  0  0  0  0  0  0
  -20.3298  -28.2124   22.3570 C   0  0  0  0  0  0  0  0  0  0  0  0
  -18.4232  -27.1658   22.2199 C   0  0  0  0  0  0  0  0  0  0  0  0
  -16.9214  -28.6818   23.5226 C   0  0  0  0  0  0  0  0  0  0  0  0
  -26.7041  -25.9827   16.2335 C   0  0  0  0  0  0  0  0  0  0  0  0
  -23.3584  -15.3413   20.7613 C   0  0  0  0  0  0  0  0  0  0  0  0
  -18.8090  -24.0302   21.8818 C   0  0  0  0  0  0  0  0  0  0  0  0
  -23.9889  -16.6227   23.4762 C   0  0  0  0  0  0  0  0  0  0  0  0
  -24.9058  -18.5114   26.1650 C   0  0  0  0  0  0  0  0  0  0  0  0
  -22.5200  -29.4445   22.5345 C   0  0  0  0  0  0  0  0  0  0  0  0
  -26.9873  -11.7661   21.0880 C   0  0  0  0  0  0  0  0  0  0  0  0
  -22.8234  -17.6425   19.9965 C   0  0  0  0  0  0  0  0  0  0  0  0
  -21.8120  -17.6288   22.6340 C   0  0  0  0  0  0  0  0  0  0  0  0
  -25.9965  -12.4077   22.0560 C   0  0  0  0  0  0  0  0  0  0  0  0
  -25.4406  -31.0099   21.2320 C   0  0  0  0  0  0  0  0  0  0  0  0
  -24.5933  -12.4135   21.4577 C   0  0  0  0  0  0  0  0  0  0  0  0
  -26.0638  -29.9317   20.3425 C   0  0  0  0  0  0  0  0  0  0  0  0
  -24.8079  -30.4131   22.4879 C   0  0  0  0  0  0  0  0  0  0  0  0
  -24.4697  -28.2520   21.3546 C   0  0  0  0  0  0  0  0  0  0  0  0
  -24.5478  -13.2385   20.1659 C   0  0  1  0  0  0  0  0  0  0  0  0
  -23.5671  -16.7993   21.0478 C   0  0  1  0  0  0  0  0  0  0  0  0
  -25.0626  -28.7982   20.0455 C   0  0  2  0  0  0  0  0  0  0  0  0
  -16.3223  -30.0006   23.0936 C   0  0  0  0  0  0  0  0  0  0  0  0
  -26.0261  -18.3381   28.4038 C   0  0  0  0  0  0  0  0  0  0  0  0
  -21.4680  -15.3557   24.6355 C   0  0  0  0  0  0  0  0  0  0  0  0
  -22.2373  -16.0737   26.9072 C   0  0  0  0  0  0  0  0  0  0  0  0
  -23.6089  -14.4700   25.5770 C   0  0  0  0  0  0  0  0  0  0  0  0
  -16.1704  -26.1250   22.1771 C   0  0  0  0  0  0  0  0  0  0  0  0
  -27.0548  -20.3820   25.3640 C   0  0  0  0  0  0  0  0  0  0  0  0
  -18.0859  -25.0289   21.0032 C   0  0  0  0  0  0  0  0  0  0  0  0
  -19.9341  -23.2640   21.2135 C   0  0  0  0  0  0  0  0  0  1  0  0
  -23.5226  -16.8996   24.8831 C   0  0  1  0  0  0  0  0  0  0  0  0
  -26.2177  -18.6176   26.9213 C   0  0  2  0  0  0  0  0  0  0  0  0
  -22.7058  -15.7188   25.4799 C   0  0  0  0  0  0  0  0  0  0  0  0
  -26.2563  -26.6521   19.8203 N   0  0  0  0  0  0  0  0  0  0  0  0
  -25.6880  -27.7020   19.2033 N   0  0  0  0  0  0  0  0  0  0  0  0
  -23.1238  -16.9917   22.4390 N   0  0  0  0  0  0  0  0  0  0  0  0
  -23.8679  -29.3491   22.1287 N   0  0  0  0  0  0  0  0  0  0  0  0
  -25.2276  -28.6148   17.0665 N   0  0  0  0  0  0  0  0  0  0  0  0
  -27.9207  -26.3524   15.6439 N   0  0  0  0  0  0  0  0  0  0  0  0
  -21.7131  -28.3905   22.1071 N   0  0  0  0  0  0  0  0  0  0  0  0
  -24.5208  -14.6531   20.4703 N   0  0  0  0  0  0  0  0  0  0  0  0
  -24.7155  -17.2476   25.6475 N   0  0  0  0  0  0  0  0  0  0  0  0
  -17.5876  -26.1172   21.8047 N   0  0  3  0  0  0  0  0  0  0  0  0
  -26.7929  -19.9842   26.7712 N   0  3  0  0  0  0  0  0  0  0  0  0
  -16.2604  -28.0230   24.3461 O   0  0  0  0  0  0  0  0  0  0  0  0
  -25.9081  -25.2544   15.5936 O   0  0  0  0  0  0  0  0  0  0  0  0
  -22.2265  -14.8735   20.8024 O   0  0  0  0  0  0  0  0  0  0  0  0
  -18.5119  -23.8439   23.0611 O   0  0  0  0  0  0  0  0  0  0  0  0
  -25.0874  -16.0886   23.2990 O   0  0  0  0  0  0  0  0  0  0  0  0
  -24.1259  -19.4541   26.0484 O   0  0  0  0  0  0  0  0  0  0  0  0
  -22.1055  -30.4052   23.1882 O   0  0  0  0  0  0  0  0  0  0  0  0
  -19.7283  -27.1063   21.8460 O   0  0  0  0  0  0  0  0  0  0  0  0
  -29.3410  -21.0815   19.8071 O   0  0  0  0  0  0  0  0  0  0  0  0
  -20.5515  -22.3648   22.1336 O   0  0  0  0  0  0  0  0  0  1  0  0
  -26.5543  -16.4047   18.9323 F   0  0  0  0  0  0  0  0  0  0  0  0
  -28.9026  -19.2861   21.8629 F   0  0  0  0  0  0  0  0  0  0  0  0
  1  2  1  0  0  0  0
  1  5  2  0  0  0  0
  2  6  2  0  0  0  0
  3  8  2  0  0  0  0
  3 16  1  0  0  0  0
  4  9  1  0  0  0  0
  4 16  2  0  0  0  0
  5 19  1  0  0  0  0
  6 21  1  0  0  0  0
  7 10  2  0  0  0  0
  7 20  1  0  0  0  0
  8 23  1  0  0  0  0
  9 23  2  0  0  0  0
 10 24  1  0  0  0  0
 11 12  2  0  0  0  0
 11 25  1  0  0  0  0
 12 26  1  0  0  0  0
 13 17  1  0  0  0  0
 13 30  2  0  0  0  0
 14 22  1  0  0  0  0
 14 24  2  0  0  0  0
 15 26  2  0  0  0  0
 15 27  1  0  0  0  0
 16 28  1  0  0  0  0
 17 31  2  0  0  0  0
 17 32  1  0  0  0  0
 18 28  1  0  0  0  0
 18 29  2  0  0  0  0
 18 33  1  0  0  0  0
 19 21  2  0  0  0  0
 19 39  1  0  0  0  0
 20 22  2  0  0  0  0
 20 40  1  0  0  0  0
 21 48  1  0  0  0  0
 22 41  1  0  0  0  0
 23 82  1  0  0  0  0
 24 83  1  0  0  0  0
 25 27  2  0  0  0  0
 25 82  1  0  0  0  0
 26 84  1  0  0  0  0
 27 85  1  0  0  0  0
 28 63  2  0  0  0  0
 29 64  1  0  0  0  0
 29 67  1  0  0  0  0
 30 69  1  0  0  0  0
 30 81  1  0  0  0  0
 31 72  1  0  0  0  0
 31 81  1  0  0  0  0
 32 51  1  0  0  0  0
 32 74  2  0  0  0  0
 33 68  1  0  0  0  0
 33 75  2  0  0  0  0
 34 49  1  0  0  0  0
 34 70  1  0  0  0  0
 34 76  2  0  0  0  0
 35 58  1  0  0  0  0
 35 59  1  0  0  0  0
 35 77  2  0  0  0  0
 36 60  1  0  0  0  0
 36 65  1  0  0  0  0
 36 78  2  0  0  0  0
 37 61  1  0  0  0  0
 37 71  1  0  0  0  0
 37 79  2  0  0  0  0
 38 66  1  0  0  0  0
 38 69  1  0  0  0  0
 38 80  2  0  0  0  0
 39 42  1  0  0  0  0
 40 49  1  0  0  0  0
 41 65  1  0  0  0  0
 42 44  1  0  0  0  0
 43 45  1  0  0  0  0
 43 46  1  0  0  0  0
 44 48  1  0  0  0  0
 45 50  1  0  0  0  0
 46 66  1  0  0  0  0
 47 50  1  0  0  0  0
 47 66  1  0  0  0  0
 48 70  1  0  0  0  0
 49 65  1  0  0  0  0
 50 64  1  0  0  0  0
 52 61  1  0  0  0  0
 53 62  1  0  0  0  0
 54 62  1  0  0  0  0
 55 62  1  0  0  0  0
 56 72  1  0  0  0  0
 57 73  1  0  0  0  0
 58 72  1  0  0  0  0
 59 83  1  0  0  0  0
 60 62  1  0  0  0  0
 60 71  1  0  0  0  0
 61 73  1  0  0  0  0
 63 64  1  0  0  0  0
M  CHG  1  73   1
M  ISO  4  38 100  59 101  69 100  83 101
M  END
> <Batch ID>
0151

> <Smiles>
CNC(C)C(=O)NC(C(=O)N1Cc2cc([101O:1][101CH2:1]C(=O)CN(C)c3oc([100NH:0][100C:0](=O)N4CCCC(n5nc(-c6ccc(Oc7ccc(F)cc7F)cc6)c(C(N)=O)c5N)C4)cc3C(C)=O)ccc2CC1C(=O)NC1CCCc2ccccc21)C(C)(C)C

> <Shape>
0.224

> <Color>
0.087

> <Negative vol penalty>
0.000

$$$$

  -OEChem-04052303243D

 85 93  0     1  0  0  0  0  0999 V2000
  -30.4672  -20.1946   20.5544 C   0  0  0  0  0  0  0  0  0  0  0  0
  -29.1203  -20.4377   20.8039 C   0  0  0  0  0  0  0  0  0  0  0  0
  -28.1905  -26.2781   21.6106 C   0  0  0  0  0  0  0  0  0  0  0  0
  -29.7260  -28.1431   21.5869 C   0  0  0  0  0  0  0  0  0  0  0  0
  -30.8543  -19.0227   19.9058 C   0  0  0  0  0  0  0  0  0  0  0  0
  -28.1596  -19.5095   20.4039 C   0  0  0  0  0  0  0  0  0  0  0  0
  -24.6898  -18.6374   23.9879 C   0  0  0  0  0  0  0  0  0  0  0  0
  -29.0184  -25.5851   20.7276 C   0  0  0  0  0  0  0  0  0  0  0  0
  -30.5541  -27.4501   20.7038 C   0  0  0  0  0  0  0  0  0  0  0  0
  -23.6881  -19.5934   24.1503 C   0  0  0  0  0  0  0  0  0  0  0  0
  -29.6743  -25.5813   17.4118 C   0  0  0  0  0  0  0  0  0  0  0  0
  -29.0722  -24.9326   16.3338 C   0  0  0  0  0  0  0  0  0  0  0  0
  -19.3194  -25.2355   22.3559 C   0  0  0  0  0  0  0  0  0  0  0  0
  -22.1753  -18.2168   22.8713 C   0  0  0  0  0  0  0  0  0  0  0  0
  -29.9452  -22.8204   17.1173 C   0  0  0  0  0  0  0  0  0  0  0  0
  -28.5442  -27.5571   22.0402 C   0  0  0  0  0  0  0  0  0  0  0  0
  -19.0040  -26.6011   22.0994 C   0  0  0  0  0  0  0  0  0  0  0  0
  -27.7380  -28.2516   24.3587 C   0  0  0  0  0  0  0  0  0  0  0  0
  -29.8987  -18.0752   19.5062 C   0  0  0  0  0  0  0  0  0  0  0  0
  -24.4447  -17.4670   23.2555 C   0  0  0  0  0  0  0  0  0  0  0  0
  -28.5343  -18.3245   19.7481 C   0  0  0  0  0  0  0  0  0  0  0  0
  -23.1749  -17.2463   22.7032 C   0  0  0  0  0  0  0  0  0  0  0  0
  -30.2002  -26.1711   20.2742 C   0  0  0  0  0  0  0  0  0  0  0  0
  -22.4315  -19.3845   23.5896 C   0  0  0  0  0  0  0  0  0  0  0  0
  -30.4120  -24.8496   18.3425 C   0  0  0  0  0  0  0  0  0  0  0  0
  -29.2076  -23.5522   16.1865 C   0  0  0  0  0  0  0  0  0  0  0  0
  -30.5474  -23.4692   18.1953 C   0  0  0  0  0  0  0  0  0  0  0  0
  -27.6890  -28.2737   22.9520 C   0  0  0  0  0  0  0  0  0  0  0  0
  -19.9990  -27.4515   22.5288 C   0  0  0  0  0  0  0  0  0  0  0  0
  -26.7247  -29.0919   24.7508 C   0  0  0  0  0  0  0  0  0  0  0  0
  -20.5438  -25.0942   22.9715 C   0  0  0  0  0  0  0  0  0  0  0  0
  -17.7960  -27.0621   21.4643 C   0  0  0  0  0  0  0  0  0  0  0  0
  -28.6205  -27.5355   25.2329 C   0  0  0  0  0  0  0  0  0  0  0  0
  -20.0702  -28.9335   22.4550 C   0  0  0  0  0  0  0  0  0  0  0  0
  -25.6457  -16.1860   20.6058 C   0  0  0  0  0  0  0  0  0  0  0  0
  -23.7381  -13.6899   21.4138 C   0  0  0  0  0  0  0  0  0  0  0  0
  -20.8227  -22.6133   23.2896 C   0  0  0  0  0  0  0  0  0  0  0  0
  -20.9795  -12.5738   23.0845 C   0  0  0  0  0  0  0  0  0  0  0  0
  -21.6368  -30.8346   22.2194 C   0  0  0  0  0  0  0  0  0  0  0  0
  -30.3614  -16.8453   18.7659 C   0  0  0  0  0  0  0  0  0  0  0  0
  -25.5278  -16.4332   23.1120 C   0  0  0  0  0  0  0  0  0  0  0  0
  -22.8546  -15.9971   21.9252 C   0  0  0  0  0  0  0  0  0  0  0  0
  -29.3121  -15.7380   18.7089 C   0  0  0  0  0  0  0  0  0  0  0  0
  -24.2699  -32.9391   23.2843 C   0  0  0  0  0  0  0  0  0  0  0  0
  -27.9534  -16.3098   18.3165 C   0  0  0  0  0  0  0  0  0  0  0  0
  -25.4491  -31.9792   23.4645 C   0  0  0  0  0  0  0  0  0  0  0  0
  -23.4099  -32.5615   22.0791 C   0  0  0  0  0  0  0  0  0  0  0  0
  -24.1288  -30.2125   22.2317 C   0  0  0  0  0  0  0  0  0  0  0  0
  -27.4646  -17.3302   19.3515 C   0  0  1  0  0  0  0  0  0  0  0  0
  -25.3224  -15.5153   21.9110 C   0  0  1  0  0  0  0  0  0  0  0  0
  -24.9852  -30.5087   23.4735 C   0  0  1  0  0  0  0  0  0  0  0  0
  -16.5442  -26.2419   21.6458 C   0  0  0  0  0  0  0  0  0  0  0  0
  -19.6539  -10.4895   23.5272 C   0  0  0  0  0  0  0  0  0  0  0  0
  -22.5455  -13.8558   18.6102 C   0  0  0  0  0  0  0  0  0  0  0  0
  -20.6398  -12.4443   19.4128 C   0  0  0  0  0  0  0  0  0  0  0  0
  -22.9608  -11.5303   19.4313 C   0  0  0  0  0  0  0  0  0  0  0  0
  -21.4611  -12.7474   25.9994 C   0  0  0  0  0  0  0  0  0  0  0  0
  -21.8641  -21.6766   23.8731 C   0  0  0  0  0  0  0  0  0  1  0  0
  -22.3107  -13.2962   21.1197 C   0  0  1  0  0  0  0  0  0  0  0  0
  -20.7754  -11.3927   24.0162 C   0  0  2  0  0  0  0  0  0  0  0  0
  -22.1205  -12.8062   19.6564 C   0  0  0  0  0  0  0  0  0  0  0  0
  -26.7212  -29.0652   22.4821 N   0  0  0  0  0  0  0  0  0  0  0  0
  -26.1526  -29.5482   23.5999 N   0  0  0  0  0  0  0  0  0  0  0  0
  -23.9487  -15.0190   21.8073 N   0  0  0  0  0  0  0  0  0  0  0  0
  -23.0040  -31.1577   22.1680 N   0  0  0  0  0  0  0  0  0  0  0  0
  -26.2763  -29.4775   25.9643 N   0  0  0  0  0  0  0  0  0  0  0  0
  -29.6052  -26.7166   24.6637 N   0  0  0  0  0  0  0  0  0  0  0  0
  -21.2366  -23.9365   23.3984 N   0  0  0  0  0  0  0  0  0  0  0  0
  -21.3534  -29.4702   22.3466 N   0  0  0  0  0  0  0  0  0  0  0  0
  -26.9429  -16.6544   20.5201 N   0  0  0  0  0  0  0  0  0  0  0  0
  -21.9417  -12.3126   22.1320 N   0  0  0  0  0  0  0  0  0  0  0  0
  -20.4330  -11.8673   25.3868 N   0  3  0  0  0  0  0  0  0  0  0  0
  -17.6930  -28.0841   20.7683 O   0  0  0  0  0  0  0  0  0  0  0  0
  -28.5277  -27.6067   26.4818 O   0  0  0  0  0  0  0  0  0  0  0  0
  -19.0280  -29.5830   22.4531 O   0  0  0  0  0  0  0  0  0  0  0  0
  -24.7826  -16.2709   19.7401 O   0  0  0  0  0  0  0  0  0  0  0  0
  -24.6324  -12.8471   21.3055 O   0  0  0  0  0  0  0  0  0  0  0  0
  -19.7787  -22.1907   22.8037 O   0  0  0  0  0  0  0  0  0  0  0  0
  -20.3459  -13.6217   23.1889 O   0  0  0  0  0  0  0  0  0  0  0  0
  -20.7458  -31.6894   22.1929 O   0  0  0  0  0  0  0  0  0  0  0  0
  -31.0086  -25.4951   19.4127 O   0  0  0  0  0  0  0  0  0  0  0  0
  -21.4521  -20.3163   23.7460 O   0  0  0  0  0  0  0  0  0  1  0  0
  -28.6280  -22.9291   15.1521 F   0  0  0  0  0  0  0  0  0  0  0  0
  -31.2538  -22.7608   19.0868 F   0  0  0  0  0  0  0  0  0  0  0  0
  -21.3070  -26.6038   23.2379 S   0  0  0  0  0  0  0  0  0  0  0  0
  1  2  1  0  0  0  0
  1  5  2  0  0  0  0
  2  6  2  0  0  0  0
  3  8  2  0  0  0  0
  3 16  1  0  0  0  0
  4  9  1  0  0  0  0
  4 16  2  0  0  0  0
  5 19  1  0  0  0  0
  6 21  1  0  0  0  0
  7 10  2  0  0  0  0
  7 20  1  0  0  0  0
  8 23  1  0  0  0  0
  9 23  2  0  0  0  0
 10 24  1  0  0  0  0
 11 12  2  0  0  0  0
 11 25  1  0  0  0  0
 12 26  1  0  0  0  0
 13 17  1  0  0  0  0
 13 31  2  0  0  0  0
 14 22  1  0  0  0  0
 14 24  2  0  0  0  0
 15 26  2  0  0  0  0
 15 27  1  0  0  0  0
 16 28  1  0  0  0  0
 17 29  2  0  0  0  0
 17 32  1  0  0  0  0
 18 28  1  0  0  0  0
 18 30  2  0  0  0  0
 18 33  1  0  0  0  0
 19 21  2  0  0  0  0
 19 40  1  0  0  0  0
 20 22  2  0  0  0  0
 20 41  1  0  0  0  0
 21 49  1  0  0  0  0
 22 42  1  0  0  0  0
 23 81  1  0  0  0  0
 24 82  1  0  0  0  0
 25 27  2  0  0  0  0
 25 81  1  0  0  0  0
 26 83  1  0  0  0  0
 27 84  1  0  0  0  0
 28 62  2  0  0  0  0
 29 34  1  0  0  0  0
 29 85  1  0  0  0  0
 30 63  1  0  0  0  0
 30 66  1  0  0  0  0
 31 68  1  0  0  0  0
 31 85  1  0  0  0  0
 32 52  1  0  0  0  0
 32 73  2  0  0  0  0
 33 67  1  0  0  0  0
 33 74  2  0  0  0  0
 34 69  1  0  0  0  0
 34 75  2  0  0  0  0
 35 50  1  0  0  0  0
 35 70  1  0  0  0  0
 35 76  2  0  0  0  0
 36 59  1  0  0  0  0
 36 64  1  0  0  0  0
 36 77  2  0  0  0  0
 37 58  1  0  0  0  0
 37 68  1  0  0  0  0
 37 78  2  0  0  0  0
 38 60  1  0  0  0  0
 38 71  1  0  0  0  0
 38 79  2  0  0  0  0
 39 65  1  0  0  0  0
 39 69  1  0  0  0  0
 39 80  2  0  0  0  0
 40 43  1  0  0  0  0
 41 50  1  0  0  0  0
 42 64  1  0  0  0  0
 43 45  1  0  0  0  0
 44 46  1  0  0  0  0
 44 47  1  0  0  0  0
 45 49  1  0  0  0  0
 46 51  1  0  0  0  0
 47 65  1  0  0  0  0
 48 51  1  0  0  0  0
 48 65  1  0  0  0  0
 49 70  1  0  0  0  0
 50 64  1  0  0  0  0
 51 63  1  0  0  0  0
 53 60  1  0  0  0  0
 54 61  1  0  0  0  0
 55 61  1  0  0  0  0
 56 61  1  0  0  0  0
 57 72  1  0  0  0  0
 58 82  1  0  0  0  0
 59 61  1  0  0  0  0
 59 71  1  0  0  0  0
 60 72  1  0  0  0  0
 62 63  1  0  0  0  0
M  CHG  1  72   1
M  ISO  4  39 100  58 101  69 100  82 101
M  END
> <Batch ID>
0151

> <Smiles>
CNC(C)C(=O)NC(C(=O)N1Cc2cc([101O:1][101CH2:1]C(=O)Nc3cc(C(C)=O)c(C(=O)[100NH:0][100C:0](=O)N4CCCC(n5nc(-c6ccc(Oc7ccc(F)cc7F)cc6)c(C(N)=O)c5N)C4)s3)ccc2CC1C(=O)NC1CCCc2ccccc21)C(C)(C)C

> <Shape>
0.251

> <Color>
0.053

> <Negative vol penalty>
0.000

$$$$

  -OEChem-04052303243D

 84 93  0     1  0  0  0  0  0999 V2000
  -31.9731  -18.4499   18.2225 C   0  0  0  0  0  0  0  0  0  0  0  0
  -30.6648  -18.9181   18.1564 C   0  0  0  0  0  0  0  0  0  0  0  0
  -28.3880  -28.3549   20.8308 C   0  0  0  0  0  0  0  0  0  0  0  0
  -26.6826  -27.0066   19.7769 C   0  0  0  0  0  0  0  0  0  0  0  0
  -32.2223  -17.0781   18.2208 C   0  0  0  0  0  0  0  0  0  0  0  0
  -29.6048  -18.0147   18.0874 C   0  0  0  0  0  0  0  0  0  0  0  0
  -25.7961  -19.2481   21.1886 C   0  0  0  0  0  0  0  0  0  0  0  0
  -29.3459  -27.3923   20.5124 C   0  0  0  0  0  0  0  0  0  0  0  0
  -27.6405  -26.0439   19.4585 C   0  0  0  0  0  0  0  0  0  0  0  0
  -24.9428  -20.2697   20.7740 C   0  0  0  0  0  0  0  0  0  0  0  0
  -30.0538  -25.6076   17.1333 C   0  0  0  0  0  0  0  0  0  0  0  0
  -30.0333  -25.0770   15.8435 C   0  0  0  0  0  0  0  0  0  0  0  0
  -23.3329  -18.6244   20.0529 C   0  0  0  0  0  0  0  0  0  0  0  0
  -20.5943  -26.7864   22.4824 C   0  0  0  0  0  0  0  0  0  0  0  0
  -29.6786  -22.8689   16.7576 C   0  0  0  0  0  0  0  0  0  0  0  0
  -27.0563  -28.1620   20.4631 C   0  0  0  0  0  0  0  0  0  0  0  0
  -25.6769  -30.2595   20.0099 C   0  0  0  0  0  0  0  0  0  0  0  0
  -31.1644  -16.1573   18.1615 C   0  0  0  0  0  0  0  0  0  0  0  0
  -25.4282  -17.9044   21.0281 C   0  0  0  0  0  0  0  0  0  0  0  0
  -29.8402  -16.6293   18.0836 C   0  0  0  0  0  0  0  0  0  0  0  0
  -24.1822  -17.5875   20.4685 C   0  0  0  0  0  0  0  0  0  0  0  0
  -19.8249  -27.8732   22.8671 C   0  0  0  0  0  0  0  0  0  0  0  0
  -28.9722  -26.2368   19.8262 C   0  0  0  0  0  0  0  0  0  0  0  0
  -23.7123  -19.9580   20.2034 C   0  0  0  0  0  0  0  0  0  0  0  0
  -29.8868  -24.7689   18.2353 C   0  0  0  0  0  0  0  0  0  0  0  0
  -29.8456  -23.7077   15.6557 C   0  0  0  0  0  0  0  0  0  0  0  0
  -29.6992  -23.3996   18.0475 C   0  0  0  0  0  0  0  0  0  0  0  0
  -26.0663  -29.1558   20.7922 C   0  0  0  0  0  0  0  0  0  0  0  0
  -18.5399  -27.7912   22.4812 C   0  0  0  0  0  0  0  0  0  0  0  0
  -24.7140  -30.8894   20.7600 C   0  0  0  0  0  0  0  0  0  0  0  0
  -19.7897  -25.9153   21.7450 C   0  0  0  0  0  0  0  0  0  0  0  0
  -26.1436  -30.6778   18.7204 C   0  0  0  0  0  0  0  0  0  0  0  0
  -26.6056  -15.4341   19.4110 C   0  0  0  0  0  0  0  0  0  0  0  0
  -21.5812  -22.8720   20.5093 C   0  0  0  0  0  0  0  0  0  0  0  0
  -24.2870  -13.7991   20.9837 C   0  0  0  0  0  0  0  0  0  0  0  0
  -21.2786  -13.8658   22.5935 C   0  0  0  0  0  0  0  0  0  0  0  0
  -20.4121  -29.8245   24.3382 C   0  0  0  0  0  0  0  0  0  0  0  0
  -31.4856  -14.6844   18.1146 C   0  0  0  0  0  0  0  0  0  0  0  0
  -26.3485  -16.8144   21.5050 C   0  0  0  0  0  0  0  0  0  0  0  0
  -23.7315  -16.1612   20.2928 C   0  0  0  0  0  0  0  0  0  0  0  0
  -30.2866  -13.7895   18.4173 C   0  0  0  0  0  0  0  0  0  0  0  0
  -23.4744  -30.9337   25.5349 C   0  0  0  0  0  0  0  0  0  0  0  0
  -29.0624  -14.2545   17.6349 C   0  0  0  0  0  0  0  0  0  0  0  0
  -24.4324  -30.6980   24.3684 C   0  0  0  0  0  0  0  0  0  0  0  0
  -22.4907  -29.7780   25.6728 C   0  0  0  0  0  0  0  0  0  0  0  0
  -22.6373  -29.2776   23.2556 C   0  0  0  0  0  0  0  0  0  0  0  0
  -28.6624  -15.6804   18.0327 C   0  0  1  0  0  0  0  0  0  0  0  0
  -26.0917  -15.4745   20.8223 C   0  0  1  0  0  0  0  0  0  0  0  0
  -23.6576  -30.4197   23.0690 C   0  0  2  0  0  0  0  0  0  0  0  0
  -18.1916  -29.0647   23.1915 C   0  0  0  0  0  0  0  0  0  0  0  0
  -17.8073  -30.2296   22.2958 C   0  0  0  0  0  0  0  0  0  0  0  0
  -17.3105  -28.8986   24.4185 C   0  0  0  0  0  0  0  0  0  0  0  0
  -19.6225  -12.3666   23.7368 C   0  0  0  0  0  0  0  0  0  0  0  0
  -23.3366  -12.7824   18.2684 C   0  0  0  0  0  0  0  0  0  0  0  0
  -21.1856  -12.1019   19.3541 C   0  0  0  0  0  0  0  0  0  0  0  0
  -23.3328  -11.0640   20.0855 C   0  0  0  0  0  0  0  0  0  0  0  0
  -21.5720  -15.3068   25.1619 C   0  0  0  0  0  0  0  0  0  0  0  0
  -21.5238  -24.1908   21.2507 C   0  0  0  0  0  0  0  0  0  0  0  0
  -22.9333  -22.1857   20.4972 C   0  0  0  0  0  0  0  0  0  1  0  0
  -22.8409  -13.4643   20.7088 C   0  0  1  0  0  0  0  0  0  0  0  0
  -20.8309  -13.2721   23.9170 C   0  0  2  0  0  0  0  0  0  0  0  0
  -22.6830  -12.3801   19.6056 C   0  0  0  0  0  0  0  0  0  0  0  0
  -25.4050  -29.0859   21.9506 N   0  0  0  0  0  0  0  0  0  0  0  0
  -24.5904  -30.1536   21.9017 N   0  0  0  0  0  0  0  0  0  0  0  0
  -19.6360  -29.0601   23.5049 N   0  0  0  0  0  0  0  0  0  0  0  0
  -24.6692  -15.1309   20.7688 N   0  0  0  0  0  0  0  0  0  0  0  0
  -21.7770  -29.5348   24.4186 N   0  0  0  0  0  0  0  0  0  0  0  0
  -23.9697  -31.9955   20.5478 N   0  0  0  0  0  0  0  0  0  0  0  0
  -27.1367  -29.9160   18.0898 N   0  0  0  0  0  0  0  0  0  0  0  0
  -20.1746  -24.7435   21.1789 N   0  0  0  0  0  0  0  0  0  0  0  0
  -27.9618  -15.6741   19.2990 N   0  0  0  0  0  0  0  0  0  0  0  0
  -22.2550  -13.0989   21.9939 N   0  0  0  0  0  0  0  0  0  0  0  0
  -20.4681  -14.3552   24.8742 N   0  3  0  0  0  0  0  0  0  0  0  0
  -25.7051  -31.7063   18.1516 O   0  0  0  0  0  0  0  0  0  0  0  0
  -25.8294  -15.2010   18.4918 O   0  0  0  0  0  0  0  0  0  0  0  0
  -20.6020  -22.3803   19.9496 O   0  0  0  0  0  0  0  0  0  0  0  0
  -25.0478  -12.9133   21.3816 O   0  0  0  0  0  0  0  0  0  0  0  0
  -20.8063  -14.9040   22.1355 O   0  0  0  0  0  0  0  0  0  0  0  0
  -19.9025  -30.7299   25.0113 O   0  0  0  0  0  0  0  0  0  0  0  0
  -29.9067  -25.2974   19.5152 O   0  0  0  0  0  0  0  0  0  0  0  0
  -22.8692  -20.9635   19.7931 O   0  0  0  0  0  0  0  0  0  1  0  0
  -29.8244  -23.1984   14.4170 F   0  0  0  0  0  0  0  0  0  0  0  0
  -29.5370  -22.5890   19.1022 F   0  0  0  0  0  0  0  0  0  0  0  0
  -18.1299  -26.4739   21.6107 S   0  0  0  0  0  0  0  0  0  0  0  0
  1  2  1  0  0  0  0
  1  5  2  0  0  0  0
  2  6  2  0  0  0  0
  3  8  2  0  0  0  0
  3 16  1  0  0  0  0
  4  9  1  0  0  0  0
  4 16  2  0  0  0  0
  5 18  1  0  0  0  0
  6 20  1  0  0  0  0
  7 10  2  0  0  0  0
  7 19  1  0  0  0  0
  8 23  1  0  0  0  0
  9 23  2  0  0  0  0
 10 24  1  0  0  0  0
 11 12  2  0  0  0  0
 11 25  1  0  0  0  0
 12 26  1  0  0  0  0
 13 21  1  0  0  0  0
 13 24  2  0  0  0  0
 14 22  1  0  0  0  0
 14 31  2  0  0  0  0
 15 26  2  0  0  0  0
 15 27  1  0  0  0  0
 16 28  1  0  0  0  0
 17 28  1  0  0  0  0
 17 30  2  0  0  0  0
 17 32  1  0  0  0  0
 18 20  2  0  0  0  0
 18 38  1  0  0  0  0
 19 21  2  0  0  0  0
 19 39  1  0  0  0  0
 20 47  1  0  0  0  0
 21 40  1  0  0  0  0
 22 29  2  0  0  0  0
 22 65  1  0  0  0  0
 23 80  1  0  0  0  0
 24 81  1  0  0  0  0
 25 27  2  0  0  0  0
 25 80  1  0  0  0  0
 26 82  1  0  0  0  0
 27 83  1  0  0  0  0
 28 63  2  0  0  0  0
 29 50  1  0  0  0  0
 29 84  1  0  0  0  0
 30 64  1  0  0  0  0
 30 68  1  0  0  0  0
 31 70  1  0  0  0  0
 31 84  1  0  0  0  0
 32 69  1  0  0  0  0
 32 74  2  0  0  0  0
 33 48  1  0  0  0  0
 33 71  1  0  0  0  0
 33 75  2  0  0  0  0
 34 58  1  0  0  0  0
 34 59  1  0  0  0  0
 34 76  2  0  0  0  0
 35 60  1  0  0  0  0
 35 66  1  0  0  0  0
 35 77  2  0  0  0  0
 36 61  1  0  0  0  0
 36 72  1  0  0  0  0
 36 78  2  0  0  0  0
 37 65  1  0  0  0  0
 37 67  1  0  0  0  0
 37 79  2  0  0  0  0
 38 41  1  0  0  0  0
 39 48  1  0  0  0  0
 40 66  1  0  0  0  0
 41 43  1  0  0  0  0
 42 44  1  0  0  0  0
 42 45  1  0  0  0  0
 43 47  1  0  0  0  0
 44 49  1  0  0  0  0
 45 67  1  0  0  0  0
 46 49  1  0  0  0  0
 46 67  1  0  0  0  0
 47 71  1  0  0  0  0
 48 66  1  0  0  0  0
 49 64  1  0  0  0  0
 50 51  1  0  0  0  0
 50 52  1  0  0  0  0
 50 65  1  0  0  0  0
 53 61  1  0  0  0  0
 54 62  1  0  0  0  0
 55 62  1  0  0  0  0
 56 62  1  0  0  0  0
 57 73  1  0  0  0  0
 58 70  1  0  0  0  0
 59 81  1  0  0  0  0
 60 62  1  0  0  0  0
 60 72  1  0  0  0  0
 61 73  1  0  0  0  0
 63 64  1  0  0  0  0
M  CHG  1  73   1
M  ISO  4  37 100  59 101  65 100  81 101
M  END
> <Batch ID>
0151

> <Smiles>
CNC(C)C(=O)NC(C(=O)N1Cc2cc([101O:1][101CH2:1]C(=O)CNc3cc4c(s3)C(C)(C)[100N:0]4[100C:0](=O)N3CCCC(n4nc(-c5ccc(Oc6ccc(F)cc6F)cc5)c(C(N)=O)c4N)C3)ccc2CC1C(=O)NC1CCCc2ccccc21)C(C)(C)C

> <Shape>
0.255

> <Color>
0.075

> <Negative vol penalty>
0.000

$$$$

  -OEChem-04052303243D

 90 99  0     1  0  0  0  0  0999 V2000
  -20.4735  -35.9619   17.6865 C   0  0  0  0  0  0  0  0  0  0  0  0
  -20.9535  -34.7445   17.2143 C   0  0  0  0  0  0  0  0  0  0  0  0
  -21.3331  -14.1675   21.0584 C   0  0  0  0  0  0  0  0  0  0  0  0
  -21.7959  -14.4436   18.7032 C   0  0  0  0  0  0  0  0  0  0  0  0
  -21.1450  -36.6233   18.7139 C   0  0  0  0  0  0  0  0  0  0  0  0
  -22.1058  -34.1883   17.7685 C   0  0  0  0  0  0  0  0  0  0  0  0
  -25.0635  -27.8464   19.3010 C   0  0  0  0  0  0  0  0  0  0  0  0
  -19.9999  -14.5125   20.8368 C   0  0  0  0  0  0  0  0  0  0  0  0
  -20.4627  -14.7885   18.4817 C   0  0  0  0  0  0  0  0  0  0  0  0
  -26.2425  -27.1305   19.0977 C   0  0  0  0  0  0  0  0  0  0  0  0
  -18.4954  -17.5103   18.8728 C   0  0  0  0  0  0  0  0  0  0  0  0
  -18.2380  -18.6117   18.0566 C   0  0  0  0  0  0  0  0  0  0  0  0
  -27.2747  -28.3241   20.9222 C   0  0  0  0  0  0  0  0  0  0  0  0
  -29.9339  -19.5629   15.2107 C   0  0  0  0  0  0  0  0  0  0  0  0
  -29.3755  -19.3158   17.5482 C   0  0  0  0  0  0  0  0  0  0  0  0
  -17.0055  -17.1963   16.5352 C   0  0  0  0  0  0  0  0  0  0  0  0
  -22.2312  -14.1331   19.9916 C   0  0  0  0  0  0  0  0  0  0  0  0
  -24.1716  -12.4877   20.1791 C   0  0  0  0  0  0  0  0  0  0  0  0
  -22.3007  -36.0703   19.2876 C   0  0  0  0  0  0  0  0  0  0  0  0
  -24.9847  -28.8159   20.3111 C   0  0  0  0  0  0  0  0  0  0  0  0
  -22.7941  -34.8436   18.8037 C   0  0  0  0  0  0  0  0  0  0  0  0
  -26.0928  -29.0491   21.1379 C   0  0  0  0  0  0  0  0  0  0  0  0
  -29.4226  -17.3779   16.1062 C   0  0  0  0  0  0  0  0  0  0  0  0
  -29.7320  -20.1264   16.4706 C   0  0  0  0  0  0  0  0  0  0  0  0
  -29.7791  -18.1886   15.0285 C   0  0  0  0  0  0  0  0  0  0  0  0
  -29.2208  -17.9415   17.3660 C   0  0  0  0  0  0  0  0  0  0  0  0
  -19.5646  -14.8230   19.5485 C   0  0  0  0  0  0  0  0  0  0  0  0
  -27.3492  -27.3713   19.9065 C   0  0  0  0  0  0  0  0  0  0  0  0
  -18.0080  -16.2518   18.5202 C   0  0  0  0  0  0  0  0  0  0  0  0
  -17.4931  -18.4548   16.8879 C   0  0  0  0  0  0  0  0  0  0  0  0
  -17.2630  -16.0949   17.3514 C   0  0  0  0  0  0  0  0  0  0  0  0
  -23.6086  -13.7774   20.2199 C   0  0  0  0  0  0  0  0  0  0  0  0
  -25.5010  -12.6843   20.4625 C   0  0  0  0  0  0  0  0  0  0  0  0
  -23.5484  -11.2250   19.9091 C   0  0  0  0  0  0  0  0  0  0  0  0
  -24.4763  -31.9529   20.3744 C   0  0  0  0  0  0  0  0  0  0  0  0
  -29.8589  -25.0352   18.5586 C   0  0  0  0  0  0  0  0  0  0  0  0
  -24.4579  -31.4917   23.5852 C   0  0  0  0  0  0  0  0  0  0  0  0
  -25.4268  -29.5836   26.2437 C   0  0  0  0  0  0  0  0  0  0  0  0
  -29.1648  -17.3603   19.8166 C   0  0  0  0  0  0  0  0  0  0  0  0
  -23.0190  -36.8452   20.3638 C   0  0  0  0  0  0  0  0  0  0  0  0
  -23.6971  -29.5606   20.5348 C   0  0  0  0  0  0  0  0  0  0  0  0
  -26.0532  -30.0649   22.2493 C   0  0  0  0  0  0  0  0  0  0  0  0
  -24.0211  -36.0062   21.1526 C   0  0  0  0  0  0  0  0  0  0  0  0
  -28.0499  -14.0083   16.8403 C   0  0  0  0  0  0  0  0  0  0  0  0
  -29.3215  -14.1794   17.6520 C   0  0  0  0  0  0  0  0  0  0  0  0
  -28.4259  -15.6361   22.8429 C   0  0  0  0  0  0  0  0  0  0  0  0
  -27.8388  -15.3887   16.2371 C   0  0  0  0  0  0  0  0  0  0  0  0
  -30.2135  -15.0292   16.7542 C   0  0  0  0  0  0  0  0  0  0  0  0
  -24.8835  -35.1760   20.2071 C   0  0  0  0  0  0  0  0  0  0  0  0
  -27.1614  -14.8417   22.5081 C   0  0  0  0  0  0  0  0  0  0  0  0
  -28.4321  -17.0047   22.1644 C   0  0  0  0  0  0  0  0  0  0  0  0
  -26.9470  -16.1846   20.3780 C   0  0  0  0  0  0  0  0  0  0  0  0
  -29.2556  -15.8931   15.9088 C   0  0  0  0  0  0  0  0  0  0  0  0
  -24.0269  -34.1961   19.3962 C   0  0  1  0  0  0  0  0  0  0  0  0
  -23.8931  -30.8884   21.2600 C   0  0  1  0  0  0  0  0  0  0  0  0
  -26.9254  -14.7730   20.9866 C   0  0  2  0  0  0  0  0  0  0  0  0
  -25.2935  -29.4811   28.7475 C   0  0  0  0  0  0  0  0  0  0  0  0
  -26.5798  -33.6752   23.7851 C   0  0  0  0  0  0  0  0  0  0  0  0
  -27.0813  -32.8785   26.1050 C   0  0  0  0  0  0  0  0  0  0  0  0
  -24.8166  -33.7688   25.5562 C   0  0  0  0  0  0  0  0  0  0  0  0
  -23.9809  -27.0021   26.1769 C   0  0  0  0  0  0  0  0  0  0  0  0
  -28.5063  -25.7115   18.6567 C   0  0  0  0  0  0  0  0  0  1  0  0
  -30.0250  -24.0036   17.4723 C   0  0  0  0  0  0  0  0  0  0  0  0
  -25.5049  -31.5021   24.6728 C   0  0  1  0  0  0  0  0  0  0  0  0
  -24.6534  -29.0514   27.4366 C   0  0  2  0  0  0  0  0  0  0  0  0
  -25.9973  -32.9383   25.0076 C   0  0  0  0  0  0  0  0  0  0  0  0
  -24.5070  -14.7233   20.5067 N   0  0  0  0  0  0  0  0  0  0  0  0
  -25.6478  -14.0273   20.6489 N   0  0  0  0  0  0  0  0  0  0  0  0
  -24.7737  -30.7719   22.4242 N   0  0  0  0  0  0  0  0  0  0  0  0
  -28.2070  -16.8608   20.7244 N   0  0  0  0  0  0  0  0  0  0  0  0
  -29.9884  -17.6374   13.7449 N   0  0  0  0  0  0  0  0  0  0  0  0
  -26.5471  -11.8375   20.5681 N   0  0  0  0  0  0  0  0  0  0  0  0
  -22.1737  -11.2029   19.6372 N   0  0  0  0  0  0  0  0  0  0  0  0
  -28.8588  -17.1367   18.4746 N   0  0  0  0  0  0  0  0  0  0  0  0
  -29.8888  -21.5146   16.6551 N   0  0  0  0  0  0  0  0  0  0  0  0
  -23.6597  -33.0551   20.2071 N   0  0  0  0  0  0  0  0  0  0  0  0
  -24.9235  -30.7904   25.8059 N   0  0  0  0  0  0  0  0  0  0  0  0
  -24.6077  -27.5622   27.4018 N   0  3  0  0  0  0  0  0  0  0  0  0
  -24.1885  -10.1463   19.9252 O   0  0  0  0  0  0  0  0  0  0  0  0
  -25.5855  -31.7873   19.8807 O   0  0  0  0  0  0  0  0  0  0  0  0
  -30.7751  -25.2865   19.3415 O   0  0  0  0  0  0  0  0  0  0  0  0
  -23.3961  -32.0940   23.7623 O   0  0  0  0  0  0  0  0  0  0  0  0
  -26.3840  -28.9900   25.7518 O   0  0  0  0  0  0  0  0  0  0  0  0
  -30.1947  -17.9193   20.2022 O   0  0  0  0  0  0  0  0  0  0  0  0
  -30.5473  -21.9859   19.1782 O   0  0  0  0  0  0  0  0  0  0  0  0
  -18.2637  -15.1594   19.3319 O   0  0  0  0  0  0  0  0  0  0  0  0
  -28.5014  -26.6744   19.7098 O   0  0  0  0  0  0  0  0  0  1  0  0
  -17.2446  -19.5129   16.1050 F   0  0  0  0  0  0  0  0  0  0  0  0
  -16.7910  -14.8886   17.0080 F   0  0  0  0  0  0  0  0  0  0  0  0
  -29.5909  -22.3587   18.0879 S   0  0  1  0  0  0  0  0  0  0  0  0
  1  2  1  0  0  0  0
  1  5  2  0  0  0  0
  2  6  2  0  0  0  0
  3  8  2  0  0  0  0
  3 17  1  0  0  0  0
  4  9  1  0  0  0  0
  4 17  2  0  0  0  0
  5 19  1  0  0  0  0
  6 21  1  0  0  0  0
  7 10  2  0  0  0  0
  7 20  1  0  0  0  0
  8 27  1  0  0  0  0
  9 27  2  0  0  0  0
 10 28  1  0  0  0  0
 11 12  2  0  0  0  0
 11 29  1  0  0  0  0
 12 30  1  0  0  0  0
 13 22  1  0  0  0  0
 13 28  2  0  0  0  0
 14 24  1  0  0  0  0
 14 25  2  0  0  0  0
 15 24  2  0  0  0  0
 15 26  1  0  0  0  0
 16 30  2  0  0  0  0
 16 31  1  0  0  0  0
 17 32  1  0  0  0  0
 18 32  1  0  0  0  0
 18 33  2  0  0  0  0
 18 34  1  0  0  0  0
 19 21  2  0  0  0  0
 19 40  1  0  0  0  0
 20 22  2  0  0  0  0
 20 41  1  0  0  0  0
 21 54  1  0  0  0  0
 22 42  1  0  0  0  0
 23 25  1  0  0  0  0
 23 26  2  0  0  0  0
 23 53  1  0  0  0  0
 24 75  1  0  0  0  0
 25 71  1  0  0  0  0
 26 74  1  0  0  0  0
 27 86  1  0  0  0  0
 28 87  1  0  0  0  0
 29 31  2  0  0  0  0
 29 86  1  0  0  0  0
 30 88  1  0  0  0  0
 31 89  1  0  0  0  0
 32 67  2  0  0  0  0
 33 68  1  0  0  0  0
 33 72  1  0  0  0  0
 34 73  1  0  0  0  0
 34 79  2  0  0  0  0
 35 55  1  0  0  0  0
 35 76  1  0  0  0  0
 35 80  2  0  0  0  0
 36 62  1  0  0  0  0
 36 63  1  0  0  0  0
 36 81  2  0  0  0  0
 37 64  1  0  0  0  0
 37 69  1  0  0  0  0
 37 82  2  0  0  0  0
 38 65  1  0  0  0  0
 38 77  1  0  0  0  0
 38 83  2  0  0  0  0
 39 70  1  0  0  0  0
 39 74  1  0  0  0  0
 39 84  2  0  0  0  0
 40 43  1  0  0  0  0
 41 55  1  0  0  0  0
 42 69  1  0  0  0  0
 43 49  1  0  0  0  0
 44 45  1  0  0  0  0
 44 47  1  0  0  0  0
 45 48  1  0  0  0  0
 46 50  1  0  0  0  0
 46 51  1  0  0  0  0
 47 53  1  0  0  0  0
 48 53  1  0  0  0  0
 49 54  1  0  0  0  0
 50 56  1  0  0  0  0
 51 70  1  0  0  0  0
 52 56  1  0  0  0  0
 52 70  1  0  0  0  0
 54 76  1  0  0  0  0
 55 69  1  0  0  0  0
 56 68  1  0  0  0  0
 57 65  1  0  0  0  0
 58 66  1  0  0  0  0
 59 66  1  0  0  0  0
 60 66  1  0  0  0  0
 61 78  1  0  0  0  0
 62 87  1  0  0  0  0
 63 90  1  0  0  0  0
 64 66  1  0  0  0  0
 64 77  1  0  0  0  0
 65 78  1  0  0  0  0
 67 68  1  0  0  0  0
 75 90  1  0  0  0  0
 85 90  2  0  0  0  0
M  CHG  1  78   1
M  ISO  4  39 100  62 101  74 100  87 101
M  END
> <Batch ID>
0151

> <Smiles>
CNC(C)C(=O)NC(C(=O)N1Cc2cc([101O:1][101CH2:1]C(=O)CS(=O)Nc3cc(N)c(C4CCCC4)c([100NH:0][100C:0](=O)N4CCCC(n5nc(-c6ccc(Oc7ccc(F)cc7F)cc6)c(C(N)=O)c5N)C4)c3)ccc2CC1C(=O)NC1CCCc2ccccc21)C(C)(C)C

> <Shape>
0.238

> <Color>
0.132

> <Negative vol penalty>
0.000

$$$$

  -OEChem-04052303243D

 82 91  0     1  0  0  0  0  0999 V2000
  -30.2998  -33.8536   29.7308 C   0  0  0  0  0  0  0  0  0  0  0  0
  -30.5495  -32.5032   29.5085 C   0  0  0  0  0  0  0  0  0  0  0  0
  -23.0784   -9.8641   19.9394 C   0  0  0  0  0  0  0  0  0  0  0  0
  -23.8349   -9.8735   22.2339 C   0  0  0  0  0  0  0  0  0  0  0  0
  -29.7095  -34.6259   28.7314 C   0  0  0  0  0  0  0  0  0  0  0  0
  -30.2078  -31.9240   28.2870 C   0  0  0  0  0  0  0  0  0  0  0  0
  -33.2187  -27.4698   25.3543 C   0  0  0  0  0  0  0  0  0  0  0  0
  -22.3353   -8.7104   20.1891 C   0  0  0  0  0  0  0  0  0  0  0  0
  -23.0918   -8.7198   22.4836 C   0  0  0  0  0  0  0  0  0  0  0  0
  -33.0163  -26.0924   25.2798 C   0  0  0  0  0  0  0  0  0  0  0  0
  -19.8635   -7.9193   23.0820 C   0  0  0  0  0  0  0  0  0  0  0  0
  -19.1049   -7.8795   24.2518 C   0  0  0  0  0  0  0  0  0  0  0  0
  -31.8754  -18.8184   22.3737 C   0  0  0  0  0  0  0  0  0  0  0  0
  -31.7892  -17.5588   21.7133 C   0  0  0  0  0  0  0  0  0  0  0  0
  -31.8084  -26.3878   23.2127 C   0  0  0  0  0  0  0  0  0  0  0  0
  -20.3471   -5.9438   24.9915 C   0  0  0  0  0  0  0  0  0  0  0  0
  -23.8283  -10.4457   20.9618 C   0  0  0  0  0  0  0  0  0  0  0  0
  -24.1678  -12.9710   20.8404 C   0  0  0  0  0  0  0  0  0  0  0  0
  -29.3692  -34.0582   27.4934 C   0  0  0  0  0  0  0  0  0  0  0  0
  -32.7072  -28.3191   24.3625 C   0  0  0  0  0  0  0  0  0  0  0  0
  -29.6111  -32.6891   27.2705 C   0  0  0  0  0  0  0  0  0  0  0  0
  -32.0079  -27.7754   23.2756 C   0  0  0  0  0  0  0  0  0  0  0  0
  -22.3419   -8.1383   21.4612 C   0  0  0  0  0  0  0  0  0  0  0  0
  -32.3086  -25.5515   24.2104 C   0  0  0  0  0  0  0  0  0  0  0  0
  -20.8639   -6.9713   22.8669 C   0  0  0  0  0  0  0  0  0  0  0  0
  -19.3467   -6.8918   25.2066 C   0  0  0  0  0  0  0  0  0  0  0  0
  -21.1057   -5.9836   23.8217 C   0  0  0  0  0  0  0  0  0  0  0  0
  -24.5966  -11.6371   20.7043 C   0  0  0  0  0  0  0  0  0  0  0  0
  -25.2597  -13.7213   20.4781 C   0  0  0  0  0  0  0  0  0  0  0  0
  -30.7267  -19.1153   23.0738 C   0  0  0  0  0  0  0  0  0  0  0  0
  -30.5780  -16.9407   21.9341 C   0  0  0  0  0  0  0  0  0  0  0  0
  -30.6907  -22.3861   24.7083 C   0  0  0  0  0  0  0  0  0  0  0  0
  -30.9875  -23.6900   24.7203 C   0  0  0  0  0  0  0  0  0  1  0  0
  -22.8962  -13.4859   21.2570 C   0  0  0  0  0  0  0  0  0  0  0  0
  -30.6075  -30.7050   24.3170 C   0  0  0  0  0  0  0  0  0  0  0  0
  -31.5742  -30.9797   21.2328 C   0  0  0  0  0  0  0  0  0  0  0  0
  -32.9541  -29.4969   18.4861 C   0  0  0  0  0  0  0  0  0  0  0  0
  -30.7247  -14.7723   20.6602 C   0  0  0  0  0  0  0  0  0  0  0  0
  -28.6897  -34.9221   26.4607 C   0  0  0  0  0  0  0  0  0  0  0  0
  -32.9572  -29.8001   24.4436 C   0  0  0  0  0  0  0  0  0  0  0  0
  -31.4558  -28.6420   22.1744 C   0  0  0  0  0  0  0  0  0  0  0  0
  -29.4773  -21.7741   25.3335 C   0  0  0  0  0  0  0  0  0  0  0  0
  -31.4609  -21.3357   23.9661 C   0  0  0  0  0  0  0  0  0  0  0  0
  -28.7007  -34.3183   25.0588 C   0  0  0  0  0  0  0  0  0  0  0  0
  -29.6161  -12.3558   18.2919 C   0  0  0  0  0  0  0  0  0  0  0  0
  -28.2924  -32.8494   25.1069 C   0  0  0  0  0  0  0  0  0  0  0  0
  -28.1761  -12.0631   18.7196 C   0  0  0  0  0  0  0  0  0  0  0  0
  -29.2049  -20.5690   24.4378 C   0  0  0  0  0  0  0  0  0  0  0  0
  -30.5292  -12.5863   19.4947 C   0  0  0  0  0  0  0  0  0  0  0  0
  -28.6195  -13.3099   20.8727 C   0  0  0  0  0  0  0  0  0  0  0  0
  -29.2775  -32.0303   25.9496 C   0  0  1  0  0  0  0  0  0  0  0  0
  -31.9489  -30.6208   23.6453 C   0  0  1  0  0  0  0  0  0  0  0  0
  -27.6486  -13.1349   19.6936 C   0  0  2  0  0  0  0  0  0  0  0  0
  -33.5819  -29.9639   16.1018 C   0  0  0  0  0  0  0  0  0  0  0  0
  -28.6366  -30.8031   20.4273 C   0  0  0  0  0  0  0  0  0  0  0  0
  -29.3797  -30.3196   18.0859 C   0  0  0  0  0  0  0  0  0  0  0  0
  -29.9672  -32.4955   19.1548 C   0  0  0  0  0  0  0  0  0  0  0  0
  -35.8127  -28.9347   19.0069 C   0  0  0  0  0  0  0  0  0  0  0  0
  -31.1328  -30.3855   19.9171 C   0  0  1  0  0  0  0  0  0  0  0  0
  -34.0578  -29.9470   17.5460 C   0  0  2  0  0  0  0  0  0  0  0  0
  -29.7877  -30.9845   19.4179 C   0  0  0  0  0  0  0  0  0  0  0  0
  -25.8621  -11.5422   20.2879 N   0  0  0  0  0  0  0  0  0  0  0  0
  -26.2380  -12.8260   20.1592 N   0  0  0  0  0  0  0  0  0  0  0  0
  -30.4898  -20.2546   23.8175 N   0  0  3  0  0  0  0  0  0  0  0  0
  -31.7209  -30.0845   22.3019 N   0  0  0  0  0  0  0  0  0  0  0  0
  -29.9679  -13.6172   20.3706 N   0  0  0  0  0  0  0  0  0  0  0  0
  -25.4690  -15.0529   20.4044 N   0  0  0  0  0  0  0  0  0  0  0  0
  -21.8847  -12.5760   21.5935 N   0  0  0  0  0  0  0  0  0  0  0  0
  -30.0752  -15.6973   21.4770 N   0  0  0  0  0  0  0  0  0  0  0  0
  -30.4848  -31.7626   25.1978 N   0  0  0  0  0  0  0  0  0  0  0  0
  -32.2471  -30.5667   18.9930 N   0  0  0  0  0  0  0  0  0  0  0  0
  -35.2282  -29.0297   17.6445 N   0  3  0  0  0  0  0  0  0  0  0  0
  -22.6586  -14.7164   21.3131 O   0  0  0  0  0  0  0  0  0  0  0  0
  -29.7470  -29.8730   24.0543 O   0  0  0  0  0  0  0  0  0  0  0  0
  -31.7882  -32.1922   21.3072 O   0  0  0  0  0  0  0  0  0  0  0  0
  -32.7382  -28.3143   18.7421 O   0  0  0  0  0  0  0  0  0  0  0  0
  -31.8543  -14.9418   20.1941 O   0  0  0  0  0  0  0  0  0  0  0  0
  -21.6167   -7.0127   21.7053 O   0  0  0  0  0  0  0  0  0  0  0  0
  -32.1091  -24.2075   24.1355 O   0  0  0  0  0  0  0  0  0  1  0  0
  -18.6191   -6.8546   26.3306 F   0  0  0  0  0  0  0  0  0  0  0  0
  -22.0662   -5.0709   23.6211 F   0  0  0  0  0  0  0  0  0  0  0  0
  -29.5511  -17.8781   22.9336 S   0  0  0  0  0  0  0  0  0  0  0  0
  1  2  1  0  0  0  0
  1  5  2  0  0  0  0
  2  6  2  0  0  0  0
  3  8  2  0  0  0  0
  3 17  1  0  0  0  0
  4  9  1  0  0  0  0
  4 17  2  0  0  0  0
  5 19  1  0  0  0  0
  6 21  1  0  0  0  0
  7 10  2  0  0  0  0
  7 20  1  0  0  0  0
  8 23  1  0  0  0  0
  9 23  2  0  0  0  0
 10 24  1  0  0  0  0
 11 12  2  0  0  0  0
 11 25  1  0  0  0  0
 12 26  1  0  0  0  0
 13 14  1  0  0  0  0
 13 30  2  0  0  0  0
 14 31  2  0  0  0  0
 15 22  1  0  0  0  0
 15 24  2  0  0  0  0
 16 26  2  0  0  0  0
 16 27  1  0  0  0  0
 17 28  1  0  0  0  0
 18 28  1  0  0  0  0
 18 29  2  0  0  0  0
 18 34  1  0  0  0  0
 19 21  2  0  0  0  0
 19 39  1  0  0  0  0
 20 22  2  0  0  0  0
 20 40  1  0  0  0  0
 21 51  1  0  0  0  0
 22 41  1  0  0  0  0
 23 78  1  0  0  0  0
 24 79  1  0  0  0  0
 25 27  2  0  0  0  0
 25 78  1  0  0  0  0
 26 80  1  0  0  0  0
 27 81  1  0  0  0  0
 28 62  2  0  0  0  0
 29 63  1  0  0  0  0
 29 67  1  0  0  0  0
 30 64  1  0  0  0  0
 30 82  1  0  0  0  0
 31 69  1  0  0  0  0
 31 82  1  0  0  0  0
 32 33  2  0  0  0  0
 32 42  1  0  0  0  0
 32 43  1  0  0  0  0
 33 79  1  0  0  0  0
 34 68  1  0  0  0  0
 34 73  2  0  0  0  0
 35 52  1  0  0  0  0
 35 70  1  0  0  0  0
 35 74  2  0  0  0  0
 36 59  1  0  0  0  0
 36 65  1  0  0  0  0
 36 75  2  0  0  0  0
 37 60  1  0  0  0  0
 37 71  1  0  0  0  0
 37 76  2  0  0  0  0
 38 66  1  0  0  0  0
 38 69  1  0  0  0  0
 38 77  2  0  0  0  0
 39 44  1  0  0  0  0
 40 52  1  0  0  0  0
 41 65  1  0  0  0  0
 42 48  1  0  0  0  0
 43 64  1  0  0  0  0
 44 46  1  0  0  0  0
 45 47  1  0  0  0  0
 45 49  1  0  0  0  0
 46 51  1  0  0  0  0
 47 53  1  0  0  0  0
 48 64  1  0  0  0  0
 49 66  1  0  0  0  0
 50 53  1  0  0  0  0
 50 66  1  0  0  0  0
 51 70  1  0  0  0  0
 52 65  1  0  0  0  0
 53 63  1  0  0  0  0
 54 60  1  0  0  0  0
 55 61  1  0  0  0  0
 56 61  1  0  0  0  0
 57 61  1  0  0  0  0
 58 72  1  0  0  0  0
 59 61  1  0  0  0  0
 59 71  1  0  0  0  0
 60 72  1  0  0  0  0
 62 63  1  0  0  0  0
M  CHG  1  72   1
M  ISO  4  33 101  38 100  69 100  79 101
M  END
> <Batch ID>
0151

> <Smiles>
CNC(C)C(=O)NC(C(=O)N1Cc2cc([101O:1][101CH:1]=C3CCN(c4ccc([100NH:0][100C:0](=O)N5CCCC(n6nc(-c7ccc(Oc8ccc(F)cc8F)cc7)c(C(N)=O)c6N)C5)s4)C3)ccc2CC1C(=O)NC1CCCc2ccccc21)C(C)(C)C

> <Shape>
0.186

> <Color>
0.196

> <Negative vol penalty>
0.000

$$$$

  -OEChem-04052303243D

 87 96  0     1  0  0  0  0  0999 V2000
  -28.1495  -12.9957   17.8935 C   0  0  0  0  0  0  0  0  0  0  0  0
  -27.4011  -14.1593   17.7474 C   0  0  0  0  0  0  0  0  0  0  0  0
  -18.1861  -28.2330   23.4127 C   0  0  0  0  0  0  0  0  0  0  0  0
  -27.3312  -26.2190   17.9183 C   0  0  0  0  0  0  0  0  0  0  0  0
  -28.3978  -26.5270   20.0641 C   0  0  0  0  0  0  0  0  0  0  0  0
  -27.7267  -12.0025   18.7760 C   0  0  0  0  0  0  0  0  0  0  0  0
  -26.2287  -14.3298   18.4829 C   0  0  0  0  0  0  0  0  0  0  0  0
  -24.0355  -19.5795   20.7493 C   0  0  0  0  0  0  0  0  0  0  0  0
  -18.0112  -26.9601   22.8697 C   0  0  0  0  0  0  0  0  0  0  0  0
  -19.3674  -28.9360   23.1760 C   0  0  0  0  0  0  0  0  0  0  0  0
  -27.8045  -24.9078   17.8712 C   0  0  0  0  0  0  0  0  0  0  0  0
  -28.8711  -25.2158   20.0170 C   0  0  0  0  0  0  0  0  0  0  0  0
  -23.0597  -20.4638   20.2914 C   0  0  0  0  0  0  0  0  0  0  0  0
  -27.6569  -22.1099   20.5645 C   0  0  0  0  0  0  0  0  0  0  0  0
  -27.5354  -21.3368   21.7191 C   0  0  0  0  0  0  0  0  0  0  0  0
  -21.4278  -19.3842   21.7022 C   0  0  0  0  0  0  0  0  0  0  0  0
  -20.1989  -27.0931   21.8532 C   0  0  0  0  0  0  0  0  0  0  0  0
  -29.9346  -21.0604   21.7866 C   0  0  0  0  0  0  0  0  0  0  0  0
  -27.6279  -27.0287   19.0147 C   0  0  0  0  0  0  0  0  0  0  0  0
  -27.4114  -29.4185   18.1491 C   0  0  0  0  0  0  0  0  0  0  0  0
  -26.5537  -12.1652   19.5298 C   0  0  0  0  0  0  0  0  0  0  0  0
  -23.7117  -18.5823   21.6805 C   0  0  0  0  0  0  0  0  0  0  0  0
  -25.7891  -13.3373   19.3752 C   0  0  0  0  0  0  0  0  0  0  0  0
  -22.4019  -18.4901   22.1723 C   0  0  0  0  0  0  0  0  0  0  0  0
  -19.0176  -26.3902   22.0900 C   0  0  0  0  0  0  0  0  0  0  0  0
  -20.3738  -28.3660   22.3962 C   0  0  0  0  0  0  0  0  0  0  0  0
  -28.5745  -24.4062   18.9205 C   0  0  0  0  0  0  0  0  0  0  0  0
  -21.7550  -20.3644   20.7657 C   0  0  0  0  0  0  0  0  0  0  0  0
  -28.9173  -22.3582   20.0209 C   0  0  0  0  0  0  0  0  0  0  0  0
  -28.6742  -20.8121   22.3302 C   0  0  0  0  0  0  0  0  0  0  0  0
  -30.0561  -21.8335   20.6319 C   0  0  0  0  0  0  0  0  0  0  0  0
  -27.1397  -28.3834   19.0637 C   0  0  0  0  0  0  0  0  0  0  0  0
  -26.7178  -30.4989   18.6373 C   0  0  0  0  0  0  0  0  0  0  0  0
  -20.1087  -23.5249   20.1413 C   0  0  0  0  0  0  0  0  0  0  0  0
  -19.9172  -24.2185   21.2957 C   0  0  0  0  0  0  0  0  0  0  0  0
  -17.4087  -25.2838   19.5807 C   0  0  0  0  0  0  0  0  0  0  0  0
  -28.2184  -29.4047   16.9641 C   0  0  0  0  0  0  0  0  0  0  0  0
  -23.7640  -15.4041   21.6731 C   0  0  0  0  0  0  0  0  0  0  0  0
  -22.9829  -15.7722   24.7999 C   0  0  0  0  0  0  0  0  0  0  0  0
  -21.9012  -15.6598   28.0347 C   0  0  0  0  0  0  0  0  0  0  0  0
  -21.9167  -30.3535   22.6189 C   0  0  0  0  0  0  0  0  0  0  0  0
  -26.1117  -11.0434   20.4359 C   0  0  0  0  0  0  0  0  0  0  0  0
  -24.7818  -17.6531   22.1847 C   0  0  0  0  0  0  0  0  0  0  0  0
  -22.0074  -17.4501   23.1879 C   0  0  0  0  0  0  0  0  0  0  0  0
  -19.2465  -23.6749   18.8923 C   0  0  0  0  0  0  0  0  0  0  0  0
  -18.5857  -25.0341   18.6635 C   0  0  0  0  0  0  0  0  0  0  0  0
  -17.5024  -24.7918   21.0042 C   0  0  0  0  0  0  0  0  0  0  0  0
  -25.0570  -11.4642   21.4561 C   0  0  0  0  0  0  0  0  0  0  0  0
  -25.1677  -32.0800   22.9485 C   0  0  0  0  0  0  0  0  0  0  0  0
  -23.9590  -12.2813   20.7828 C   0  0  0  0  0  0  0  0  0  0  0  0
  -26.0151  -31.6182   21.7618 C   0  0  0  0  0  0  0  0  0  0  0  0
  -23.6774  -32.1042   22.6382 C   0  0  0  0  0  0  0  0  0  0  0  0
  -24.0910  -30.0118   21.3261 C   0  0  0  0  0  0  0  0  0  0  0  0
  -24.5250  -13.5699   20.1739 C   0  0  1  0  0  0  0  0  0  0  0  0
  -24.2245  -16.3490   22.7468 C   0  0  1  0  0  0  0  0  0  0  0  0
  -25.2011  -30.8668   20.6952 C   0  0  2  0  0  0  0  0  0  0  0  0
  -20.8464  -24.0141   22.4788 C   0  0  0  0  0  0  0  0  0  0  0  0
  -20.7530  -14.1487   29.6765 C   0  0  0  0  0  0  0  0  0  0  0  0
  -20.3098  -16.3266   23.4370 C   0  0  0  0  0  0  0  0  0  0  0  0
  -19.1666  -15.6456   25.5577 C   0  0  0  0  0  0  0  0  0  0  0  0
  -20.5701  -13.9996   24.3155 C   0  0  0  0  0  0  0  0  0  0  0  0
  -24.2377  -15.6660   29.8511 C   0  0  0  0  0  0  0  0  0  0  0  0
  -21.2314  -22.5314   19.9377 C   0  0  0  0  0  0  0  0  0  1  0  0
  -21.6912  -15.8847   25.5730 C   0  0  1  0  0  0  0  0  0  0  0  0
  -22.0894  -14.6196   29.1242 C   0  0  2  0  0  0  0  0  0  0  0  0
  -20.4536  -15.4851   24.7208 C   0  0  0  0  0  0  0  0  0  0  0  0
  -26.3364  -28.7714   20.0578 N   0  0  0  0  0  0  0  0  0  0  0  0
  -26.0973  -30.0623   19.7707 N   0  0  0  0  0  0  0  0  0  0  0  0
  -18.8384  -25.0910   21.5352 N   0  0  0  0  0  0  0  0  0  0  0  0
  -23.0879  -16.5608   23.6454 N   0  0  0  0  0  0  0  0  0  0  0  0
  -23.1980  -30.7896   22.2020 N   0  0  0  0  0  0  0  0  0  0  0  0
  -26.5843  -31.7702   18.2033 N   0  0  0  0  0  0  0  0  0  0  0  0
  -29.5774  -29.7284   17.0775 N   0  0  0  0  0  0  0  0  0  0  0  0
  -21.5743  -29.0801   22.1570 N   0  0  0  0  0  0  0  0  0  0  0  0
  -24.7523  -14.5590   21.2056 N   0  0  0  0  0  0  0  0  0  0  0  0
  -21.8677  -15.0863   26.7812 N   0  0  0  0  0  0  0  0  0  0  0  0
  -22.8892  -15.1849   30.2474 N   0  3  0  0  0  0  0  0  0  0  0  0
  -16.4079  -25.8797   19.1801 O   0  0  0  0  0  0  0  0  0  0  0  0
  -27.7448  -29.1299   15.8355 O   0  0  0  0  0  0  0  0  0  0  0  0
  -22.5980  -15.4381   21.2977 O   0  0  0  0  0  0  0  0  0  0  0  0
  -23.8690  -15.0180   25.2092 O   0  0  0  0  0  0  0  0  0  0  0  0
  -21.7908  -16.8607   28.2721 O   0  0  0  0  0  0  0  0  0  0  0  0
  -21.1974  -31.0508   23.3375 O   0  0  0  0  0  0  0  0  0  0  0  0
  -29.0363  -23.1266   18.8750 O   0  0  0  0  0  0  0  0  0  0  0  0
  -20.8005  -21.2258   20.3199 O   0  0  0  0  0  0  0  0  0  1  0  0
  -28.5575  -20.0710   23.4398 F   0  0  0  0  0  0  0  0  0  0  0  0
  -31.2697  -22.0697   20.1150 F   0  0  0  0  0  0  0  0  0  0  0  0
  1  2  1  0  0  0  0
  1  6  2  0  0  0  0
  2  7  2  0  0  0  0
  3  9  2  0  0  0  0
  3 10  1  0  0  0  0
  4 11  2  0  0  0  0
  4 19  1  0  0  0  0
  5 12  1  0  0  0  0
  5 19  2  0  0  0  0
  6 21  1  0  0  0  0
  7 23  1  0  0  0  0
  8 13  2  0  0  0  0
  8 22  1  0  0  0  0
  9 25  1  0  0  0  0
 10 26  2  0  0  0  0
 11 27  1  0  0  0  0
 12 27  2  0  0  0  0
 13 28  1  0  0  0  0
 14 15  2  0  0  0  0
 14 29  1  0  0  0  0
 15 30  1  0  0  0  0
 16 24  1  0  0  0  0
 16 28  2  0  0  0  0
 17 25  2  0  0  0  0
 17 26  1  0  0  0  0
 18 30  2  0  0  0  0
 18 31  1  0  0  0  0
 19 32  1  0  0  0  0
 20 32  1  0  0  0  0
 20 33  2  0  0  0  0
 20 37  1  0  0  0  0
 21 23  2  0  0  0  0
 21 42  1  0  0  0  0
 22 24  2  0  0  0  0
 22 43  1  0  0  0  0
 23 54  1  0  0  0  0
 24 44  1  0  0  0  0
 25 69  1  0  0  0  0
 26 74  1  0  0  0  0
 27 84  1  0  0  0  0
 28 85  1  0  0  0  0
 29 31  2  0  0  0  0
 29 84  1  0  0  0  0
 30 86  1  0  0  0  0
 31 87  1  0  0  0  0
 32 67  2  0  0  0  0
 33 68  1  0  0  0  0
 33 72  1  0  0  0  0
 34 35  2  0  0  0  0
 34 45  1  0  0  0  0
 34 63  1  0  0  0  0
 35 57  1  0  0  0  0
 35 69  1  0  0  0  0
 36 46  1  0  0  0  0
 36 47  1  0  0  0  0
 36 78  2  0  0  0  0
 37 73  1  0  0  0  0
 37 79  2  0  0  0  0
 38 55  1  0  0  0  0
 38 75  1  0  0  0  0
 38 80  2  0  0  0  0
 39 64  1  0  0  0  0
 39 70  1  0  0  0  0
 39 81  2  0  0  0  0
 40 65  1  0  0  0  0
 40 76  1  0  0  0  0
 40 82  2  0  0  0  0
 41 71  1  0  0  0  0
 41 74  1  0  0  0  0
 41 83  2  0  0  0  0
 42 48  1  0  0  0  0
 43 55  1  0  0  0  0
 44 70  1  0  0  0  0
 45 46  1  0  0  0  0
 47 69  1  0  0  0  0
 48 50  1  0  0  0  0
 49 51  1  0  0  0  0
 49 52  1  0  0  0  0
 50 54  1  0  0  0  0
 51 56  1  0  0  0  0
 52 71  1  0  0  0  0
 53 56  1  0  0  0  0
 53 71  1  0  0  0  0
 54 75  1  0  0  0  0
 55 70  1  0  0  0  0
 56 68  1  0  0  0  0
 58 65  1  0  0  0  0
 59 66  1  0  0  0  0
 60 66  1  0  0  0  0
 61 66  1  0  0  0  0
 62 77  1  0  0  0  0
 63 85  1  0  0  0  0
 64 66  1  0  0  0  0
 64 76  1  0  0  0  0
 65 77  1  0  0  0  0
 67 68  1  0  0  0  0
M  CHG  1  77   1
M  ISO  4  41 100  63 101  74 100  85 101
M  END
> <Batch ID>
0151

> <Smiles>
CNC(C)C(=O)NC(C(=O)N1Cc2cc([101O:1][101CH2:1]C3=C(C)N(c4cccc([100NH:0][100C:0](=O)N5CCCC(n6nc(-c7ccc(Oc8ccc(F)cc8F)cc7)c(C(N)=O)c6N)C5)c4)CC(=O)CC3)ccc2CC1C(=O)NC1CCCc2ccccc21)C(C)(C)C

> <Shape>
0.206

> <Color>
0.083

> <Negative vol penalty>
0.000

$$$$

  -OEChem-04052303243D

 83 92  0     1  0  0  0  0  0999 V2000
  -22.0162  -18.0788   21.0672 C   0  0  0  0  0  0  0  0  0  0  0  0
  -23.1996  -18.7758   21.2890 C   0  0  0  0  0  0  0  0  0  0  0  0
  -26.1635  -13.9518   21.5248 C   0  0  0  0  0  0  0  0  0  0  0  0
  -25.2609  -13.2365   19.4010 C   0  0  0  0  0  0  0  0  0  0  0  0
  -20.9433  -18.7109   20.4401 C   0  0  0  0  0  0  0  0  0  0  0  0
  -23.3111  -20.1050   20.8827 C   0  0  0  0  0  0  0  0  0  0  0  0
  -26.4260  -24.5652   23.6952 C   0  0  0  0  0  0  0  0  0  0  0  0
  -25.2641  -13.1170   22.1882 C   0  0  0  0  0  0  0  0  0  0  0  0
  -24.3615  -12.4017   20.0643 C   0  0  0  0  0  0  0  0  0  0  0  0
  -27.6890  -25.1117   23.4722 C   0  0  0  0  0  0  0  0  0  0  0  0
  -22.0707   -9.8110   21.1862 C   0  0  0  0  0  0  0  0  0  0  0  0
  -21.9072   -8.5146   20.6983 C   0  0  0  0  0  0  0  0  0  0  0  0
  -26.6878  -26.8797   22.1717 C   0  0  0  0  0  0  0  0  0  0  0  0
  -24.2525   -8.0759   21.0782 C   0  0  0  0  0  0  0  0  0  0  0  0
  -26.1618  -14.0116   20.1312 C   0  0  0  0  0  0  0  0  0  0  0  0
  -28.3866  -14.5479   19.0041 C   0  0  0  0  0  0  0  0  0  0  0  0
  -21.0384  -20.0514   20.0346 C   0  0  0  0  0  0  0  0  0  0  0  0
  -25.2834  -25.1668   23.1482 C   0  0  0  0  0  0  0  0  0  0  0  0
  -22.2390  -20.7552   20.2483 C   0  0  0  0  0  0  0  0  0  0  0  0
  -25.4111  -26.3403   22.3915 C   0  0  0  0  0  0  0  0  0  0  0  0
  -24.3632  -12.3420   21.4579 C   0  0  0  0  0  0  0  0  0  0  0  0
  -27.8204  -26.2675   22.7079 C   0  0  0  0  0  0  0  0  0  0  0  0
  -23.3251  -10.2400   21.6200 C   0  0  0  0  0  0  0  0  0  0  0  0
  -22.9981   -7.6470   20.6443 C   0  0  0  0  0  0  0  0  0  0  0  0
  -24.4160   -9.3724   21.5660 C   0  0  0  0  0  0  0  0  0  0  0  0
  -27.0902  -14.8741   19.4454 C   0  0  0  0  0  0  0  0  0  0  0  0
  -29.3318  -24.5928   19.2677 C   0  0  0  0  0  0  0  0  0  0  0  0
  -30.5286  -24.5341   18.6185 C   0  0  0  0  0  0  0  0  0  0  0  0
  -28.8499  -15.7005   18.4181 C   0  0  0  0  0  0  0  0  0  0  0  0
  -30.0045  -26.6113   19.6155 C   0  0  0  0  0  0  0  0  0  0  0  0
  -29.1075  -13.3134   19.1139 C   0  0  0  0  0  0  0  0  0  0  0  0
  -23.0458  -24.2641   21.0789 C   0  0  0  0  0  0  0  0  0  0  0  0
  -21.6938  -27.0954   21.9023 C   0  0  0  0  0  0  0  0  0  0  0  0
  -22.1029  -30.2525   23.1320 C   0  0  0  0  0  0  0  0  0  0  0  0
  -29.6263  -21.0637   18.4514 C   0  0  0  0  0  0  0  0  0  0  0  0
  -19.8684  -20.6779   19.3180 C   0  0  0  0  0  0  0  0  0  0  0  0
  -23.9255  -24.5799   23.4204 C   0  0  0  0  0  0  0  0  0  0  0  0
  -24.2139  -27.0360   21.7989 C   0  0  0  0  0  0  0  0  0  0  0  0
  -28.5983  -23.3209   19.1927 C   0  0  0  0  0  0  0  0  0  0  0  0
  -30.8136  -23.2237   18.0272 C   0  0  0  0  0  0  0  0  0  0  0  0
  -19.9375  -22.2015   19.2551 C   0  0  0  0  0  0  0  0  0  0  0  0
  -26.4696  -19.9583   17.1514 C   0  0  0  0  0  0  0  0  0  0  0  0
  -21.3306  -22.6557   18.8310 C   0  0  0  0  0  0  0  0  0  0  0  0
  -26.4367  -18.5119   17.6366 C   0  0  0  0  0  0  0  0  0  0  0  0
  -27.1153  -20.9012   18.1691 C   0  0  0  0  0  0  0  0  0  0  0  0
  -28.4198  -19.0082   19.1045 C   0  0  0  0  0  0  0  0  0  0  0  0
  -22.3899  -22.2058   19.8444 C   0  0  1  0  0  0  0  0  0  0  0  0
  -22.8806  -24.9866   22.3859 C   0  0  1  0  0  0  0  0  0  0  0  0
  -27.8414  -18.0494   18.0549 C   0  0  1  0  0  0  0  0  0  0  0  0
  -20.8200  -32.3455   23.6522 C   0  0  0  0  0  0  0  0  0  0  0  0
  -21.5886  -27.7673   18.9278 C   0  0  0  0  0  0  0  0  0  0  0  0
  -21.2094  -30.1618   19.5533 C   0  0  0  0  0  0  0  0  0  0  0  0
  -19.5490  -28.4228   20.2181 C   0  0  0  0  0  0  0  0  0  0  0  0
  -30.4837  -28.6760   22.8291 C   0  0  0  0  0  0  0  0  0  0  0  0
  -28.0076  -28.8653   23.1514 C   0  0  0  0  0  0  0  0  0  0  0  0
  -22.7989  -30.1037   26.0047 C   0  0  0  0  0  0  0  0  0  0  0  0
  -28.9946  -28.5511   20.8166 C   0  0  0  0  0  0  0  0  0  0  0  0
  -21.7866  -28.5130   21.3917 C   0  0  1  0  0  0  0  0  0  0  0  0
  -21.3441  -31.0254   24.1956 C   0  0  2  0  0  0  0  0  0  0  0  0
  -21.0563  -28.7023   20.0322 C   0  0  0  0  0  0  0  0  0  0  0  0
  -29.1155  -28.2226   22.3128 C   0  0  0  0  0  0  0  0  0  1  0  0
  -26.7517  -16.1351   19.1640 N   0  0  0  0  0  0  0  0  0  0  0  0
  -29.0020  -25.7791   19.8499 N   0  0  0  0  0  0  0  0  0  0  0  0
  -27.8423  -16.6115   18.5396 N   0  0  0  0  0  0  0  0  0  0  0  0
  -22.9083  -26.4200   22.0879 N   0  0  0  0  0  0  0  0  0  0  0  0
  -29.6006  -22.4626   18.4674 N   0  0  0  0  0  0  0  0  0  0  0  0
  -28.4114  -20.3941   18.6301 N   0  0  0  0  0  0  0  0  0  0  0  0
  -30.0169  -16.0134   17.8159 N   0  0  0  0  0  0  0  0  0  0  0  0
  -28.4832  -12.2290   19.7453 N   0  0  0  0  0  0  0  0  0  0  0  0
  -30.0459  -27.9020   20.0423 N   0  0  0  0  0  0  0  0  0  0  0  0
  -22.3686  -23.0615   21.0113 N   0  0  0  0  0  0  0  0  0  0  0  0
  -21.2849  -29.3665   22.4633 N   0  0  0  0  0  0  0  0  0  0  0  0
  -22.2312  -31.3145   25.3577 N   0  3  0  0  0  0  0  0  0  0  0  0
  -30.2770  -13.1810   18.6801 O   0  0  0  0  0  0  0  0  0  0  0  0
  -23.7354  -24.7616   20.1965 O   0  0  0  0  0  0  0  0  0  0  0  0
  -20.5848  -26.6078   22.1348 O   0  0  0  0  0  0  0  0  0  0  0  0
  -23.3006  -30.4207   22.9135 O   0  0  0  0  0  0  0  0  0  0  0  0
  -30.6910  -20.4432   18.3344 O   0  0  0  0  0  0  0  0  0  0  0  0
  -23.4856  -11.5272   22.1049 O   0  0  0  0  0  0  0  0  0  0  0  0
  -29.0577  -26.8051   22.4871 O   0  0  0  0  0  0  0  0  0  1  0  0
  -22.8407   -6.4015   20.1772 F   0  0  0  0  0  0  0  0  0  0  0  0
  -25.6233   -9.7784   21.9825 F   0  0  0  0  0  0  0  0  0  0  0  0
  -31.3463  -25.9882   18.6976 S   0  0  0  0  0  0  0  0  0  0  0  0
  1  2  1  0  0  0  0
  1  5  2  0  0  0  0
  2  6  2  0  0  0  0
  3  8  2  0  0  0  0
  3 15  1  0  0  0  0
  4  9  1  0  0  0  0
  4 15  2  0  0  0  0
  5 17  1  0  0  0  0
  6 19  1  0  0  0  0
  7 10  2  0  0  0  0
  7 18  1  0  0  0  0
  8 21  1  0  0  0  0
  9 21  2  0  0  0  0
 10 22  1  0  0  0  0
 11 12  2  0  0  0  0
 11 23  1  0  0  0  0
 12 24  1  0  0  0  0
 13 20  1  0  0  0  0
 13 22  2  0  0  0  0
 14 24  2  0  0  0  0
 14 25  1  0  0  0  0
 15 26  1  0  0  0  0
 16 26  1  0  0  0  0
 16 29  2  0  0  0  0
 16 31  1  0  0  0  0
 17 19  2  0  0  0  0
 17 36  1  0  0  0  0
 18 20  2  0  0  0  0
 18 37  1  0  0  0  0
 19 47  1  0  0  0  0
 20 38  1  0  0  0  0
 21 79  1  0  0  0  0
 22 80  1  0  0  0  0
 23 25  2  0  0  0  0
 23 79  1  0  0  0  0
 24 81  1  0  0  0  0
 25 82  1  0  0  0  0
 26 62  2  0  0  0  0
 27 28  2  0  0  0  0
 27 39  1  0  0  0  0
 27 63  1  0  0  0  0
 28 40  1  0  0  0  0
 28 83  1  0  0  0  0
 29 64  1  0  0  0  0
 29 68  1  0  0  0  0
 30 63  2  0  0  0  0
 30 70  1  0  0  0  0
 30 83  1  0  0  0  0
 31 69  1  0  0  0  0
 31 74  2  0  0  0  0
 32 48  1  0  0  0  0
 32 71  1  0  0  0  0
 32 75  2  0  0  0  0
 33 58  1  0  0  0  0
 33 65  1  0  0  0  0
 33 76  2  0  0  0  0
 34 59  1  0  0  0  0
 34 72  1  0  0  0  0
 34 77  2  0  0  0  0
 35 66  1  0  0  0  0
 35 67  1  0  0  0  0
 35 78  2  0  0  0  0
 36 41  1  0  0  0  0
 37 48  1  0  0  0  0
 38 65  1  0  0  0  0
 39 66  1  0  0  0  0
 40 66  1  0  0  0  0
 41 43  1  0  0  0  0
 42 44  1  0  0  0  0
 42 45  1  0  0  0  0
 43 47  1  0  0  0  0
 44 49  1  0  0  0  0
 45 67  1  0  0  0  0
 46 49  1  0  0  0  0
 46 67  1  0  0  0  0
 47 71  1  0  0  0  0
 48 65  1  0  0  0  0
 49 64  1  0  0  0  0
 50 59  1  0  0  0  0
 51 60  1  0  0  0  0
 52 60  1  0  0  0  0
 53 60  1  0  0  0  0
 54 61  1  0  0  0  0
 55 61  1  0  0  0  0
 56 73  1  0  0  0  0
 57 61  1  0  0  0  0
 57 70  1  0  0  0  0
 58 60  1  0  0  0  0
 58 72  1  0  0  0  0
 59 73  1  0  0  0  0
 61 80  1  0  0  0  0
 62 64  1  0  0  0  0
M  CHG  1  73   1
M  ISO  4  35 100  61 101  66 100  80 101
M  END
> <Batch ID>
0151

> <Smiles>
CNC(C)C(=O)NC(C(=O)N1Cc2cc([101O:1][101C:1](C)(C)CNc3nc4c(s3)C[100N:0]([100C:0](=O)N3CCCC(n5nc(-c6ccc(Oc7ccc(F)cc7F)cc6)c(C(N)=O)c5N)C3)C4)ccc2CC1C(=O)NC1CCCc2ccccc21)C(C)(C)C

> <Shape>
0.215

> <Color>
0.056

> <Negative vol penalty>
0.000

$$$$

  -OEChem-04052303243D

 85 94  0     1  0  0  0  0  0999 V2000
  -35.8874  -29.9723   25.6242 C   0  0  0  0  0  0  0  0  0  0  0  0
  -35.5733  -28.9293   24.7588 C   0  0  0  0  0  0  0  0  0  0  0  0
  -23.0752   -9.8685   19.9400 C   0  0  0  0  0  0  0  0  0  0  0  0
  -23.8345   -9.8743   22.2336 C   0  0  0  0  0  0  0  0  0  0  0  0
  -35.3553  -31.2423   25.4055 C   0  0  0  0  0  0  0  0  0  0  0  0
  -34.7258  -29.1556   23.6748 C   0  0  0  0  0  0  0  0  0  0  0  0
  -36.4387  -27.0533   19.3979 C   0  0  0  0  0  0  0  0  0  0  0  0
  -22.3309   -8.7154   20.1893 C   0  0  0  0  0  0  0  0  0  0  0  0
  -23.0902   -8.7213   22.4829 C   0  0  0  0  0  0  0  0  0  0  0  0
  -36.2550  -25.6797   19.2457 C   0  0  0  0  0  0  0  0  0  0  0  0
  -19.8616   -7.9242   23.0842 C   0  0  0  0  0  0  0  0  0  0  0  0
  -19.1043   -7.8841   24.2549 C   0  0  0  0  0  0  0  0  0  0  0  0
  -34.3415  -26.0978   17.8375 C   0  0  0  0  0  0  0  0  0  0  0  0
  -31.8754  -17.4539   21.6217 C   0  0  0  0  0  0  0  0  0  0  0  0
  -20.3449   -5.9460   24.9909 C   0  0  0  0  0  0  0  0  0  0  0  0
  -29.8665  -17.7844   22.7429 C   0  0  0  0  0  0  0  0  0  0  0  0
  -23.8271  -10.4479   20.9621 C   0  0  0  0  0  0  0  0  0  0  0  0
  -24.1698  -12.9730   20.8432 C   0  0  0  0  0  0  0  0  0  0  0  0
  -34.5087  -31.4865   24.3128 C   0  0  0  0  0  0  0  0  0  0  0  0
  -35.5672  -27.9609   18.7790 C   0  0  0  0  0  0  0  0  0  0  0  0
  -34.1808  -30.4297   23.4421 C   0  0  0  0  0  0  0  0  0  0  0  0
  -34.5178  -27.4825   17.9814 C   0  0  0  0  0  0  0  0  0  0  0  0
  -30.5861  -16.9335   21.9332 C   0  0  0  0  0  0  0  0  0  0  0  0
  -22.3384   -8.1419   21.4607 C   0  0  0  0  0  0  0  0  0  0  0  0
  -35.2045  -25.2017   18.4677 C   0  0  0  0  0  0  0  0  0  0  0  0
  -20.8605   -6.9752   22.8668 C   0  0  0  0  0  0  0  0  0  0  0  0
  -19.3460   -6.8950   25.2083 C   0  0  0  0  0  0  0  0  0  0  0  0
  -21.1022   -5.9861   23.8202 C   0  0  0  0  0  0  0  0  0  0  0  0
  -24.5966  -11.6386   20.7051 C   0  0  0  0  0  0  0  0  0  0  0  0
  -32.0920  -18.6831   22.2050 C   0  0  0  0  0  0  0  0  0  0  0  0
  -25.2622  -13.7222   20.4805 C   0  0  0  0  0  0  0  0  0  0  0  0
  -22.8993  -13.4890   21.2620 C   0  0  0  0  0  0  0  0  0  0  0  0
  -33.5555  -30.1966   19.8079 C   0  0  0  0  0  0  0  0  0  0  0  0
  -33.2618  -30.8374   16.6416 C   0  0  0  0  0  0  0  0  0  0  0  0
  -33.5193  -29.7270   13.4248 C   0  0  0  0  0  0  0  0  0  0  0  0
  -30.7287  -14.7662   20.6570 C   0  0  0  0  0  0  0  0  0  0  0  0
  -33.9200  -32.8648   24.1444 C   0  0  0  0  0  0  0  0  0  0  0  0
  -35.7949  -29.4399   18.9314 C   0  0  0  0  0  0  0  0  0  0  0  0
  -33.5665  -28.4155   17.2792 C   0  0  0  0  0  0  0  0  0  0  0  0
  -33.3293  -33.1097   22.7582 C   0  0  0  0  0  0  0  0  0  0  0  0
  -29.6142  -12.3534   18.2877 C   0  0  0  0  0  0  0  0  0  0  0  0
  -32.4598  -31.9308   22.3326 C   0  0  0  0  0  0  0  0  0  0  0  0
  -28.1744  -12.0621   18.7168 C   0  0  0  0  0  0  0  0  0  0  0  0
  -33.0750  -22.1364   19.6525 C   0  0  0  0  0  0  0  0  0  0  0  0
  -30.5291  -12.5816   19.4897 C   0  0  0  0  0  0  0  0  0  0  0  0
  -28.6219  -13.3062   20.8706 C   0  0  0  0  0  0  0  0  0  0  0  0
  -32.4523  -20.8244   20.1072 C   0  0  0  0  0  0  0  0  0  0  0  0
  -34.8514  -20.8799   20.6106 C   0  0  0  0  0  0  0  0  0  0  0  0
  -33.2850  -30.6415   22.2409 C   0  0  1  0  0  0  0  0  0  0  0  0
  -34.5393  -30.2674   18.6744 C   0  0  1  0  0  0  0  0  0  0  0  0
  -27.6494  -13.1336   19.6924 C   0  0  2  0  0  0  0  0  0  0  0  0
  -34.5458  -21.8001   19.4397 C   0  0  2  0  0  0  0  0  0  0  0  0
  -34.5765  -18.8654   22.6372 C   0  0  0  0  0  0  0  0  0  0  0  0
  -33.1758  -30.4675   11.0518 C   0  0  0  0  0  0  0  0  0  0  0  0
  -30.2444  -30.5487   16.9907 C   0  0  0  0  0  0  0  0  0  0  0  0
  -30.0458  -30.3487   14.5030 C   0  0  0  0  0  0  0  0  0  0  0  0
  -30.9474  -32.4423   15.5162 C   0  0  0  0  0  0  0  0  0  0  0  0
  -36.3717  -29.3051   12.7581 C   0  0  0  0  0  0  0  0  0  0  0  0
  -35.4337  -23.0254   19.3988 C   0  0  0  0  0  0  0  0  0  1  0  0
  -33.3193  -19.5609   22.1213 C   0  0  1  0  0  0  0  0  0  0  0  0
  -32.3643  -30.3484   15.5306 C   0  0  1  0  0  0  0  0  0  0  0  0
  -34.1685  -30.3393   12.1968 C   0  0  2  0  0  0  0  0  0  0  0  0
  -30.9171  -30.9041   15.6498 C   0  0  0  0  0  0  0  0  0  0  0  0
  -25.8616  -11.5425   20.2871 N   0  0  0  0  0  0  0  0  0  0  0  0
  -26.2389  -12.8260   20.1594 N   0  0  0  0  0  0  0  0  0  0  0  0
  -33.8270  -29.8526   17.4641 N   0  0  0  0  0  0  0  0  0  0  0  0
  -29.9701  -13.6123   20.3672 N   0  0  0  0  0  0  0  0  0  0  0  0
  -25.4731  -15.0537   20.4081 N   0  0  0  0  0  0  0  0  0  0  0  0
  -21.8870  -12.5800   21.5986 N   0  0  0  0  0  0  0  0  0  0  0  0
  -30.0813  -15.6912   21.4755 N   0  0  0  0  0  0  0  0  0  0  0  0
  -34.0621  -30.6245   21.0201 N   0  0  0  0  0  0  0  0  0  0  0  0
  -33.0356  -30.6928   14.2820 N   0  0  0  0  0  0  0  0  0  0  0  0
  -33.5912  -20.0414   20.7320 N   0  3  1  0  0  0  0  0  0  0  0  0
  -35.3082  -29.4957   11.7384 N   0  3  0  0  0  0  0  0  0  0  0  0
  -22.6634  -14.7197   21.3197 O   0  0  0  0  0  0  0  0  0  0  0  0
  -32.4203  -29.7856   19.5978 O   0  0  0  0  0  0  0  0  0  0  0  0
  -33.4600  -32.0481   16.7703 O   0  0  0  0  0  0  0  0  0  0  0  0
  -33.4450  -28.5134   13.6039 O   0  0  0  0  0  0  0  0  0  0  0  0
  -31.8579  -14.9347   20.1898 O   0  0  0  0  0  0  0  0  0  0  0  0
  -34.6921  -21.0869   18.2131 O   0  0  0  0  0  0  0  0  0  0  0  0
  -21.6120   -7.0169   21.7044 O   0  0  0  0  0  0  0  0  0  0  0  0
  -35.0225  -23.8614   18.3179 O   0  0  0  0  0  0  0  0  0  1  0  0
  -18.6197   -6.8575   26.3331 F   0  0  0  0  0  0  0  0  0  0  0  0
  -22.0613   -5.0724   23.6175 F   0  0  0  0  0  0  0  0  0  0  0  0
  -30.7445  -19.2043   23.1241 S   0  0  0  0  0  0  0  0  0  0  0  0
  1  2  1  0  0  0  0
  1  5  2  0  0  0  0
  2  6  2  0  0  0  0
  3  8  2  0  0  0  0
  3 17  1  0  0  0  0
  4  9  1  0  0  0  0
  4 17  2  0  0  0  0
  5 19  1  0  0  0  0
  6 21  1  0  0  0  0
  7 10  2  0  0  0  0
  7 20  1  0  0  0  0
  8 24  1  0  0  0  0
  9 24  2  0  0  0  0
 10 25  1  0  0  0  0
 11 12  2  0  0  0  0
 11 26  1  0  0  0  0
 12 27  1  0  0  0  0
 13 22  1  0  0  0  0
 13 25  2  0  0  0  0
 14 23  1  0  0  0  0
 14 30  2  0  0  0  0
 15 27  2  0  0  0  0
 15 28  1  0  0  0  0
 16 23  2  0  0  0  0
 16 85  1  0  0  0  0
 17 29  1  0  0  0  0
 18 29  1  0  0  0  0
 18 31  2  0  0  0  0
 18 32  1  0  0  0  0
 19 21  2  0  0  0  0
 19 37  1  0  0  0  0
 20 22  2  0  0  0  0
 20 38  1  0  0  0  0
 21 49  1  0  0  0  0
 22 39  1  0  0  0  0
 23 70  1  0  0  0  0
 24 81  1  0  0  0  0
 25 82  1  0  0  0  0
 26 28  2  0  0  0  0
 26 81  1  0  0  0  0
 27 83  1  0  0  0  0
 28 84  1  0  0  0  0
 29 64  2  0  0  0  0
 30 60  1  0  0  0  0
 30 85  1  0  0  0  0
 31 65  1  0  0  0  0
 31 68  1  0  0  0  0
 32 69  1  0  0  0  0
 32 75  2  0  0  0  0
 33 50  1  0  0  0  0
 33 71  1  0  0  0  0
 33 76  2  0  0  0  0
 34 61  1  0  0  0  0
 34 66  1  0  0  0  0
 34 77  2  0  0  0  0
 35 62  1  0  0  0  0
 35 72  1  0  0  0  0
 35 78  2  0  0  0  0
 36 67  1  0  0  0  0
 36 70  1  0  0  0  0
 36 79  2  0  0  0  0
 37 40  1  0  0  0  0
 38 50  1  0  0  0  0
 39 66  1  0  0  0  0
 40 42  1  0  0  0  0
 41 43  1  0  0  0  0
 41 45  1  0  0  0  0
 42 49  1  0  0  0  0
 43 51  1  0  0  0  0
 44 47  1  0  0  0  0
 44 52  1  0  0  0  0
 45 67  1  0  0  0  0
 46 51  1  0  0  0  0
 46 67  1  0  0  0  0
 47 73  1  0  0  0  0
 48 52  1  0  0  0  0
 48 73  1  0  0  0  0
 49 71  1  0  0  0  0
 50 66  1  0  0  0  0
 51 65  1  0  0  0  0
 52 59  1  0  0  0  0
 52 80  1  0  0  0  0
 53 60  1  0  0  0  0
 54 62  1  0  0  0  0
 55 63  1  0  0  0  0
 56 63  1  0  0  0  0
 57 63  1  0  0  0  0
 58 74  1  0  0  0  0
 59 82  1  0  0  0  0
 60 73  1  0  0  0  0
 61 63  1  0  0  0  0
 61 72  1  0  0  0  0
 62 74  1  0  0  0  0
 64 65  1  0  0  0  0
M  CHG  2  73   1  74   1
M  ISO  4  36 100  59 101  70 100  82 101
M  END
> <Batch ID>
0151

> <Smiles>
CNC(C)C(=O)NC(C(=O)N1Cc2cc([101O:1][101CH2:1]C3(O)CCN(C(C)c4cc([100NH:0][100C:0](=O)N5CCCC(n6nc(-c7ccc(Oc8ccc(F)cc8F)cc7)c(C(N)=O)c6N)C5)cs4)C3)ccc2CC1C(=O)NC1CCCc2ccccc21)C(C)(C)C

> <Shape>
0.167

> <Color>
0.180

> <Negative vol penalty>
0.000

$$$$

  -OEChem-04052303243D

 85 94  0     1  0  0  0  0  0999 V2000
  -30.0510  -24.7649   17.6483 C   0  0  0  0  0  0  0  0  0  0  0  0
  -28.8658  -24.7066   18.3745 C   0  0  0  0  0  0  0  0  0  0  0  0
  -24.6424   -9.2845   21.4620 C   0  0  0  0  0  0  0  0  0  0  0  0
  -22.5971  -10.2561   20.6194 C   0  0  0  0  0  0  0  0  0  0  0  0
  -31.0429  -25.6767   18.0072 C   0  0  0  0  0  0  0  0  0  0  0  0
  -28.6722  -25.5593   19.4607 C   0  0  0  0  0  0  0  0  0  0  0  0
  -24.0646  -27.6602   19.4844 C   0  0  0  0  0  0  0  0  0  0  0  0
  -23.9702   -8.0887   21.7149 C   0  0  0  0  0  0  0  0  0  0  0  0
  -21.9249   -9.0603   20.8722 C   0  0  0  0  0  0  0  0  0  0  0  0
  -23.0059  -26.8681   19.9268 C   0  0  0  0  0  0  0  0  0  0  0  0
  -22.8975   -5.4126   19.9484 C   0  0  0  0  0  0  0  0  0  0  0  0
  -23.5210   -4.2251   19.5655 C   0  0  0  0  0  0  0  0  0  0  0  0
  -21.9446  -19.8315   22.9654 C   0  0  0  0  0  0  0  0  0  0  0  0
  -23.1051  -27.9494   22.0809 C   0  0  0  0  0  0  0  0  0  0  0  0
  -23.4993   -3.4734   21.8615 C   0  0  0  0  0  0  0  0  0  0  0  0
  -23.9558  -10.3682   20.9144 C   0  0  0  0  0  0  0  0  0  0  0  0
  -20.7701  -20.3949   22.4122 C   0  0  0  0  0  0  0  0  0  0  0  0
  -25.3128  -11.9725   19.4678 C   0  0  0  0  0  0  0  0  0  0  0  0
  -30.8574  -26.5476   19.0924 C   0  0  0  0  0  0  0  0  0  0  0  0
  -24.6596  -28.5967   20.3419 C   0  0  0  0  0  0  0  0  0  0  0  0
  -29.6631  -26.4826   19.8353 C   0  0  0  0  0  0  0  0  0  0  0  0
  -24.1694  -28.7538   21.6462 C   0  0  0  0  0  0  0  0  0  0  0  0
  -22.6115   -7.9766   21.4199 C   0  0  0  0  0  0  0  0  0  0  0  0
  -22.5279  -27.0106   21.2261 C   0  0  0  0  0  0  0  0  0  0  0  0
  -22.5750   -5.6306   21.2878 C   0  0  0  0  0  0  0  0  0  0  0  0
  -23.8219   -3.2555   20.5220 C   0  0  0  0  0  0  0  0  0  0  0  0
  -22.8759   -4.6610   22.2444 C   0  0  0  0  0  0  0  0  0  0  0  0
  -24.6495  -11.6039   20.6535 C   0  0  0  0  0  0  0  0  0  0  0  0
  -20.2197  -19.4212   21.6116 C   0  0  0  0  0  0  0  0  0  0  0  0
  -25.8029  -13.2295   19.7251 C   0  0  0  0  0  0  0  0  0  0  0  0
  -22.0282  -18.5535   22.4636 C   0  0  0  0  0  0  0  0  0  0  0  0
  -20.2458  -21.7517   22.6496 C   0  0  0  0  0  0  0  0  0  0  0  0
  -25.4717  -11.2438   18.2433 C   0  0  0  0  0  0  0  0  0  0  0  0
  -27.5698  -28.9939   21.5569 C   0  0  0  0  0  0  0  0  0  0  0  0
  -26.2982  -31.7573   22.6836 C   0  0  0  0  0  0  0  0  0  0  0  0
  -23.5117  -33.5052   23.5930 C   0  0  0  0  0  0  0  0  0  0  0  0
  -24.1253  -17.5789   23.4631 C   0  0  0  0  0  0  0  0  0  0  0  0
  -31.9776  -27.4837   19.4716 C   0  0  0  0  0  0  0  0  0  0  0  0
  -25.7832  -29.4622   19.8409 C   0  0  0  0  0  0  0  0  0  0  0  0
  -24.7602  -29.7590   22.5996 C   0  0  0  0  0  0  0  0  0  0  0  0
  -31.5406  -28.6100   20.4048 C   0  0  0  0  0  0  0  0  0  0  0  0
  -27.3113  -15.9949   23.3323 C   0  0  0  0  0  0  0  0  0  0  0  0
  -30.6857  -28.0597   21.5420 C   0  0  0  0  0  0  0  0  0  0  0  0
  -27.0519  -14.7257   22.5174 C   0  0  0  0  0  0  0  0  0  0  0  0
  -22.5963  -24.1160   21.2730 C   0  0  0  0  0  0  0  0  0  0  0  0
  -26.1317  -16.3363   24.2410 C   0  0  0  0  0  0  0  0  0  0  0  0
  -22.3278  -22.6917   21.7394 C   0  0  0  0  0  0  0  0  0  0  0  0
  -24.5711  -15.1482   22.7503 C   0  0  0  0  0  0  0  0  0  0  0  0
  -20.5496  -24.1911   22.5312 C   0  0  0  0  0  0  0  0  0  0  0  0
  -29.4058  -27.4081   21.0046 C   0  0  1  0  0  0  0  0  0  0  0  0
  -26.6508  -30.0237   20.9631 C   0  0  1  0  0  0  0  0  0  0  0  0
  -25.7049  -14.7999   21.7720 C   0  0  2  0  0  0  0  0  0  0  0  0
  -21.8264  -24.9964   22.2654 C   0  0  1  0  0  0  0  0  0  1  0  0
  -19.0161  -19.3674   20.7685 C   0  0  0  0  0  0  0  0  0  0  0  0
  -22.6144  -25.2592   23.5473 C   0  0  0  0  0  0  0  0  0  0  0  0
  -22.7925  -35.7273   24.5108 C   0  0  0  0  0  0  0  0  0  0  0  0
  -27.2417  -30.9132   25.4598 C   0  0  0  0  0  0  0  0  0  0  0  0
  -25.7058  -32.6364   26.4293 C   0  0  0  0  0  0  0  0  0  0  0  0
  -27.5773  -33.3354   24.9356 C   0  0  0  0  0  0  0  0  0  0  0  0
  -21.9036  -34.1105   21.1833 C   0  0  0  0  0  0  0  0  0  0  0  0
  -25.5694  -32.1640   23.9415 C   0  0  1  0  0  0  0  0  0  0  0  0
  -23.0489  -34.9106   23.2538 C   0  0  2  0  0  0  0  0  0  0  0  0
  -26.5135  -32.2419   25.1744 C   0  0  0  0  0  0  0  0  0  0  0  0
  -24.7108  -12.5501   21.5942 N   0  0  0  0  0  0  0  0  0  0  0  0
  -25.4186  -13.5257   20.9997 N   0  0  0  0  0  0  0  0  0  0  0  0
  -20.9854  -22.7982   22.3300 N   0  0  0  0  0  0  0  0  0  0  0  0
  -25.8611  -30.5774   22.0650 N   0  0  0  0  0  0  0  0  0  0  0  0
  -24.8907  -16.3937   23.4654 N   0  0  0  0  0  0  0  0  0  0  0  0
  -26.5209  -14.0992   18.9831 N   0  0  0  0  0  0  0  0  0  0  0  0
  -24.9046   -9.9656   18.1480 N   0  0  0  0  0  0  0  0  0  0  0  0
  -22.9836  -17.5264   22.6641 N   0  0  0  0  0  0  0  0  0  0  0  0
  -28.4358  -28.4203   20.6456 N   0  0  0  0  0  0  0  0  0  0  0  0
  -24.8871  -33.4157   23.6314 N   0  0  0  0  0  0  0  0  0  0  0  0
  -19.0356  -21.9010   23.1802 N   0  3  0  0  0  0  0  0  0  0  0  0
  -21.7892  -34.8635   22.4589 N   0  3  0  0  0  0  0  0  0  0  0  0
  -26.1120  -11.7056   17.2684 O   0  0  0  0  0  0  0  0  0  0  0  0
  -27.4995  -28.7397   22.7537 O   0  0  0  0  0  0  0  0  0  0  0  0
  -27.2166  -32.4643   22.2613 O   0  0  0  0  0  0  0  0  0  0  0  0
  -22.7311  -32.5802   23.8065 O   0  0  0  0  0  0  0  0  0  0  0  0
  -24.4724  -18.5769   24.0999 O   0  0  0  0  0  0  0  0  0  0  0  0
  -20.9805  -18.2955   21.6376 O   0  0  0  0  0  0  0  0  0  0  0  0
  -21.9554   -6.8098   21.6663 O   0  0  0  0  0  0  0  0  0  0  0  0
  -21.4951  -26.2383   21.6606 O   0  0  0  0  0  0  0  0  0  1  0  0
  -24.4192   -2.1144   20.1540 F   0  0  0  0  0  0  0  0  0  0  0  0
  -22.5674   -4.8643   23.5325 F   0  0  0  0  0  0  0  0  0  0  0  0
  1  2  1  0  0  0  0
  1  5  2  0  0  0  0
  2  6  2  0  0  0  0
  3  8  2  0  0  0  0
  3 16  1  0  0  0  0
  4  9  1  0  0  0  0
  4 16  2  0  0  0  0
  5 19  1  0  0  0  0
  6 21  1  0  0  0  0
  7 10  2  0  0  0  0
  7 20  1  0  0  0  0
  8 23  1  0  0  0  0
  9 23  2  0  0  0  0
 10 24  1  0  0  0  0
 11 12  2  0  0  0  0
 11 25  1  0  0  0  0
 12 26  1  0  0  0  0
 13 17  1  0  0  0  0
 13 31  2  0  0  0  0
 14 22  1  0  0  0  0
 14 24  2  0  0  0  0
 15 26  2  0  0  0  0
 15 27  1  0  0  0  0
 16 28  1  0  0  0  0
 17 29  2  0  0  0  0
 17 32  1  0  0  0  0
 18 28  1  0  0  0  0
 18 30  2  0  0  0  0
 18 33  1  0  0  0  0
 19 21  2  0  0  0  0
 19 38  1  0  0  0  0
 20 22  2  0  0  0  0
 20 39  1  0  0  0  0
 21 50  1  0  0  0  0
 22 40  1  0  0  0  0
 23 82  1  0  0  0  0
 24 83  1  0  0  0  0
 25 27  2  0  0  0  0
 25 82  1  0  0  0  0
 26 84  1  0  0  0  0
 27 85  1  0  0  0  0
 28 64  2  0  0  0  0
 29 54  1  0  0  0  0
 29 81  1  0  0  0  0
 30 65  1  0  0  0  0
 30 69  1  0  0  0  0
 31 71  1  0  0  0  0
 31 81  1  0  0  0  0
 32 66  1  0  0  0  0
 32 74  2  0  0  0  0
 33 70  1  0  0  0  0
 33 76  2  0  0  0  0
 34 51  1  0  0  0  0
 34 72  1  0  0  0  0
 34 77  2  0  0  0  0
 35 61  1  0  0  0  0
 35 67  1  0  0  0  0
 35 78  2  0  0  0  0
 36 62  1  0  0  0  0
 36 73  1  0  0  0  0
 36 79  2  0  0  0  0
 37 68  1  0  0  0  0
 37 71  1  0  0  0  0
 37 80  2  0  0  0  0
 38 41  1  0  0  0  0
 39 51  1  0  0  0  0
 40 67  1  0  0  0  0
 41 43  1  0  0  0  0
 42 44  1  0  0  0  0
 42 46  1  0  0  0  0
 43 50  1  0  0  0  0
 44 52  1  0  0  0  0
 45 47  1  0  0  0  0
 45 53  1  0  0  0  0
 46 68  1  0  0  0  0
 47 66  1  0  0  0  0
 48 52  1  0  0  0  0
 48 68  1  0  0  0  0
 49 53  1  0  0  0  0
 49 66  1  0  0  0  0
 50 72  1  0  0  0  0
 51 67  1  0  0  0  0
 52 65  1  0  0  0  0
 53 55  1  0  0  0  0
 53 83  1  0  0  0  0
 56 62  1  0  0  0  0
 57 63  1  0  0  0  0
 58 63  1  0  0  0  0
 59 63  1  0  0  0  0
 60 75  1  0  0  0  0
 61 63  1  0  0  0  0
 61 73  1  0  0  0  0
 62 75  1  0  0  0  0
 64 65  1  0  0  0  0
M  CHG  2  74   1  75   1
M  ISO  4  37 100  53 101  71 100  83 101
M  END
> <Batch ID>
0151

> <Smiles>
CNC(C)C(=O)NC(C(=O)N1Cc2cc([101O:1][101C:1]3(C)CCN(C(=N)c4cc([100NH:0][100C:0](=O)N5CCCC(n6nc(-c7ccc(Oc8ccc(F)cc8F)cc7)c(C(N)=O)c6N)C5)oc4C)C3)ccc2CC1C(=O)NC1CCCc2ccccc21)C(C)(C)C

> <Shape>
0.250

> <Color>
0.087

> <Negative vol penalty>
0.000

$$$$

  -OEChem-04052303243D

 83 92  0     1  0  0  0  0  0999 V2000
  -16.2461  -30.0220   23.5775 C   0  0  0  0  0  0  0  0  0  0  0  0
  -16.9191  -28.9892   24.2223 C   0  0  0  0  0  0  0  0  0  0  0  0
  -24.5382   -8.4540   20.5563 C   0  0  0  0  0  0  0  0  0  0  0  0
  -23.0408  -10.3410   20.3712 C   0  0  0  0  0  0  0  0  0  0  0  0
  -16.8556  -30.6966   22.5205 C   0  0  0  0  0  0  0  0  0  0  0  0
  -18.2017  -28.6297   23.8097 C   0  0  0  0  0  0  0  0  0  0  0  0
  -24.3998  -26.1288   26.3874 C   0  0  0  0  0  0  0  0  0  0  0  0
  -23.5305   -7.7151   21.1762 C   0  0  0  0  0  0  0  0  0  0  0  0
  -22.0331   -9.6021   20.9911 C   0  0  0  0  0  0  0  0  0  0  0  0
  -25.3250  -25.1094   26.1669 C   0  0  0  0  0  0  0  0  0  0  0  0
  -22.1415   -7.4861   24.2491 C   0  0  0  0  0  0  0  0  0  0  0  0
  -22.4829   -6.7507   25.3840 C   0  0  0  0  0  0  0  0  0  0  0  0
  -26.3099  -26.3978   24.3811 C   0  0  0  0  0  0  0  0  0  0  0  0
  -29.0990  -20.0115   21.9321 C   0  0  0  0  0  0  0  0  0  0  0  0
  -21.8055   -4.7168   24.2698 C   0  0  0  0  0  0  0  0  0  0  0  0
  -24.2934   -9.7669   20.1539 C   0  0  0  0  0  0  0  0  0  0  0  0
  -25.6046  -10.6105   18.1348 C   0  0  0  0  0  0  0  0  0  0  0  0
  -18.1500  -30.3516   22.1010 C   0  0  0  0  0  0  0  0  0  0  0  0
  -24.4159  -27.2876   25.5979 C   0  0  0  0  0  0  0  0  0  0  0  0
  -18.8285  -29.2994   22.7451 C   0  0  0  0  0  0  0  0  0  0  0  0
  -25.3855  -27.4315   24.5952 C   0  0  0  0  0  0  0  0  0  0  0  0
  -29.6270  -19.1077   20.9609 C   0  0  0  0  0  0  0  0  0  0  0  0
  -22.2779   -8.2892   21.3935 C   0  0  0  0  0  0  0  0  0  0  0  0
  -26.2784  -25.2425   25.1617 C   0  0  0  0  0  0  0  0  0  0  0  0
  -21.6321   -6.8369   23.1245 C   0  0  0  0  0  0  0  0  0  0  0  0
  -22.3150   -5.3660   25.3944 C   0  0  0  0  0  0  0  0  0  0  0  0
  -21.4641   -5.4522   23.1348 C   0  0  0  0  0  0  0  0  0  0  0  0
  -25.3341  -10.5309   19.5140 C   0  0  0  0  0  0  0  0  0  0  0  0
  -29.9181  -19.7620   19.7786 C   0  0  0  0  0  0  0  0  0  0  0  0
  -26.6819  -11.4577   18.0445 C   0  0  0  0  0  0  0  0  0  0  0  0
  -29.0057  -21.2995   21.4493 C   0  0  0  0  0  0  0  0  0  0  0  0
  -24.9412   -9.9756   17.0336 C   0  0  0  0  0  0  0  0  0  0  0  0
  -22.3681  -28.6659   23.5952 C   0  0  0  0  0  0  0  0  0  0  0  0
  -24.5912  -31.0279   23.5639 C   0  0  0  0  0  0  0  0  0  0  0  0
  -28.0577  -22.6361   23.3594 C   0  0  0  0  0  0  0  0  0  0  0  0
  -27.8445  -31.9508   24.0233 C   0  0  0  0  0  0  0  0  0  0  0  0
  -29.3384  -15.9562   19.3200 C   0  0  0  0  0  0  0  0  0  0  0  0
  -18.7491  -31.0782   20.9229 C   0  0  0  0  0  0  0  0  0  0  0  0
  -23.4279  -28.3896   25.8660 C   0  0  0  0  0  0  0  0  0  0  0  0
  -25.4580  -28.6645   23.7333 C   0  0  0  0  0  0  0  0  0  0  0  0
  -29.8682  -17.6392   21.1545 C   0  0  0  0  0  0  0  0  0  0  0  0
  -30.4721  -19.0955   18.5599 C   0  0  0  0  0  0  0  0  0  0  0  0
  -20.2576  -30.8849   20.7910 C   0  0  0  0  0  0  0  0  0  0  0  0
  -29.7412  -13.3047   21.6127 C   0  0  0  0  0  0  0  0  0  0  0  0
  -20.6234  -29.4130   20.9532 C   0  0  0  0  0  0  0  0  0  0  0  0
  -28.6400  -12.3458   21.1627 C   0  0  0  0  0  0  0  0  0  0  0  0
  -31.0378  -17.7222   18.9453 C   0  0  0  0  0  0  0  0  0  0  0  0
  -29.2889  -14.7650   21.5591 C   0  0  0  0  0  0  0  0  0  0  0  0
  -27.6421  -14.2161   19.7956 C   0  0  0  0  0  0  0  0  0  0  0  0
  -20.2306  -28.8967   22.3427 C   0  0  1  0  0  0  0  0  0  0  0  0
  -23.2109  -29.3031   24.6635 C   0  0  1  0  0  0  0  0  0  0  0  0
  -28.0905  -12.7467   19.7824 C   0  0  2  0  0  0  0  0  0  0  0  0
  -29.3654  -33.9421   23.8862 C   0  0  0  0  0  0  0  0  0  0  0  0
  -24.5971  -30.8108   20.5204 C   0  0  0  0  0  0  0  0  0  0  0  0
  -26.7489  -32.0905   20.5029 C   0  0  0  0  0  0  0  0  0  0  0  0
  -24.6765  -33.1507   21.3995 C   0  0  0  0  0  0  0  0  0  0  0  0
  -28.5148  -31.7827   26.9011 C   0  0  0  0  0  0  0  0  0  0  0  0
  -27.6689  -24.0790   23.6226 C   0  0  0  0  0  0  0  0  0  1  0  0
  -25.8162  -31.3321   22.7358 C   0  0  1  0  0  0  0  0  0  0  0  0
  -28.4653  -33.1082   24.7846 C   0  0  2  0  0  0  0  0  0  0  0  0
  -25.4574  -31.8218   21.3044 C   0  0  0  0  0  0  0  0  0  0  0  0
  -26.1721  -11.2685   20.2472 N   0  0  0  0  0  0  0  0  0  0  0  0
  -26.9798  -11.8196   19.3253 N   0  0  0  0  0  0  0  0  0  0  0  0
  -24.4663  -29.7115   24.0301 N   0  0  0  0  0  0  0  0  0  0  0  0
  -30.1184  -17.0005   19.8420 N   0  0  0  0  0  0  0  0  0  0  0  0
  -28.7289  -15.0914   20.2406 N   0  0  0  0  0  0  0  0  0  0  0  0
  -27.3941  -11.9208   16.9953 N   0  0  0  0  0  0  0  0  0  0  0  0
  -23.8516   -9.1365   17.3039 N   0  0  0  0  0  0  0  0  0  0  0  0
  -28.5603  -22.4470   22.0445 N   0  0  0  0  0  0  0  0  0  0  0  0
  -21.1883  -29.3365   23.3346 N   0  0  0  0  0  0  0  0  0  0  0  0
  -26.6077  -32.2812   23.5112 N   0  0  0  0  0  0  0  0  0  0  0  0
  -29.2796  -32.6007   25.9249 N   0  3  0  0  0  0  0  0  0  0  0  0
  -25.3143  -10.1343   15.8465 O   0  0  0  0  0  0  0  0  0  0  0  0
  -22.7599  -27.6424   23.0468 O   0  0  0  0  0  0  0  0  0  0  0  0
  -23.7788  -31.9269   23.7948 O   0  0  0  0  0  0  0  0  0  0  0  0
  -27.9320  -21.7698   24.2187 O   0  0  0  0  0  0  0  0  0  0  0  0
  -28.4027  -30.8636   23.8927 O   0  0  0  0  0  0  0  0  0  0  0  0
  -29.1893  -15.8102   18.1001 O   0  0  0  0  0  0  0  0  0  0  0  0
  -21.2943   -7.5684   21.9982 O   0  0  0  0  0  0  0  0  0  0  0  0
  -27.1916  -24.2384   24.9417 O   0  0  0  0  0  0  0  0  0  1  0  0
  -22.6443   -4.6597   26.4838 F   0  0  0  0  0  0  0  0  0  0  0  0
  -20.9762   -4.8228   22.0570 F   0  0  0  0  0  0  0  0  0  0  0  0
  -29.5536  -21.4216   19.8311 S   0  0  0  0  0  0  0  0  0  0  0  0
  1  2  1  0  0  0  0
  1  5  2  0  0  0  0
  2  6  2  0  0  0  0
  3  8  2  0  0  0  0
  3 16  1  0  0  0  0
  4  9  1  0  0  0  0
  4 16  2  0  0  0  0
  5 18  1  0  0  0  0
  6 20  1  0  0  0  0
  7 10  2  0  0  0  0
  7 19  1  0  0  0  0
  8 23  1  0  0  0  0
  9 23  2  0  0  0  0
 10 24  1  0  0  0  0
 11 12  2  0  0  0  0
 11 25  1  0  0  0  0
 12 26  1  0  0  0  0
 13 21  1  0  0  0  0
 13 24  2  0  0  0  0
 14 22  1  0  0  0  0
 14 31  2  0  0  0  0
 15 26  2  0  0  0  0
 15 27  1  0  0  0  0
 16 28  1  0  0  0  0
 17 28  1  0  0  0  0
 17 30  2  0  0  0  0
 17 32  1  0  0  0  0
 18 20  2  0  0  0  0
 18 38  1  0  0  0  0
 19 21  2  0  0  0  0
 19 39  1  0  0  0  0
 20 50  1  0  0  0  0
 21 40  1  0  0  0  0
 22 29  2  0  0  0  0
 22 41  1  0  0  0  0
 23 79  1  0  0  0  0
 24 80  1  0  0  0  0
 25 27  2  0  0  0  0
 25 79  1  0  0  0  0
 26 81  1  0  0  0  0
 27 82  1  0  0  0  0
 28 62  2  0  0  0  0
 29 42  1  0  0  0  0
 29 83  1  0  0  0  0
 30 63  1  0  0  0  0
 30 67  1  0  0  0  0
 31 69  1  0  0  0  0
 31 83  1  0  0  0  0
 32 68  1  0  0  0  0
 32 73  2  0  0  0  0
 33 51  1  0  0  0  0
 33 70  1  0  0  0  0
 33 74  2  0  0  0  0
 34 59  1  0  0  0  0
 34 64  1  0  0  0  0
 34 75  2  0  0  0  0
 35 58  1  0  0  0  0
 35 69  1  0  0  0  0
 35 76  2  0  0  0  0
 36 60  1  0  0  0  0
 36 71  1  0  0  0  0
 36 77  2  0  0  0  0
 37 65  1  0  0  0  0
 37 66  1  0  0  0  0
 37 78  2  0  0  0  0
 38 43  1  0  0  0  0
 39 51  1  0  0  0  0
 40 64  1  0  0  0  0
 41 65  1  0  0  0  0
 42 47  1  0  0  0  0
 43 45  1  0  0  0  0
 44 46  1  0  0  0  0
 44 48  1  0  0  0  0
 45 50  1  0  0  0  0
 46 52  1  0  0  0  0
 47 65  1  0  0  0  0
 48 66  1  0  0  0  0
 49 52  1  0  0  0  0
 49 66  1  0  0  0  0
 50 70  1  0  0  0  0
 51 64  1  0  0  0  0
 52 63  1  0  0  0  0
 53 60  1  0  0  0  0
 54 61  1  0  0  0  0
 55 61  1  0  0  0  0
 56 61  1  0  0  0  0
 57 72  1  0  0  0  0
 58 80  1  0  0  0  0
 59 61  1  0  0  0  0
 59 71  1  0  0  0  0
 60 72  1  0  0  0  0
 62 63  1  0  0  0  0
M  CHG  1  72   1
M  ISO  4  37 100  58 101  65 100  80 101
M  END
> <Batch ID>
0151

> <Smiles>
CNC(C)C(=O)NC(C(=O)N1Cc2cc([101O:1][101CH2:1]C(=O)Nc3cc4c(s3)CC[100N:0]([100C:0](=O)N3CCCC(n5nc(-c6ccc(Oc7ccc(F)cc7F)cc6)c(C(N)=O)c5N)C3)C4)ccc2CC1C(=O)NC1CCCc2ccccc21)C(C)(C)C

> <Shape>
0.277

> <Color>
0.088

> <Negative vol penalty>
0.000

$$$$

  -OEChem-04052303243D

 90101  0     1  0  0  0  0  0999 V2000
  -23.2726  -37.8274   18.4074 C   0  0  0  0  0  0  0  0  0  0  0  0
  -23.5551  -36.6203   17.7762 C   0  0  0  0  0  0  0  0  0  0  0  0
  -23.5697   -9.4913   20.4339 C   0  0  0  0  0  0  0  0  0  0  0  0
  -23.9954  -10.1231   22.7266 C   0  0  0  0  0  0  0  0  0  0  0  0
  -23.8016  -38.0934   19.6697 C   0  0  0  0  0  0  0  0  0  0  0  0
  -24.3679  -35.6787   18.4066 C   0  0  0  0  0  0  0  0  0  0  0  0
  -25.2703  -28.5986   19.0174 C   0  0  0  0  0  0  0  0  0  0  0  0
  -22.9773   -8.3064   20.8704 C   0  0  0  0  0  0  0  0  0  0  0  0
  -23.4029   -8.9382   23.1632 C   0  0  0  0  0  0  0  0  0  0  0  0
  -26.2600  -27.6244   18.8944 C   0  0  0  0  0  0  0  0  0  0  0  0
  -20.2763   -7.7344   23.6057 C   0  0  0  0  0  0  0  0  0  0  0  0
  -19.3788   -7.8143   24.6705 C   0  0  0  0  0  0  0  0  0  0  0  0
  -28.3699  -18.8646   21.5418 C   0  0  0  0  0  0  0  0  0  0  0  0
  -27.0537  -28.1596   21.1086 C   0  0  0  0  0  0  0  0  0  0  0  0
  -20.7792   -6.3285   25.9622 C   0  0  0  0  0  0  0  0  0  0  0  0
  -30.2112  -18.5915   20.0614 C   0  0  0  0  0  0  0  0  0  0  0  0
  -24.0788  -10.3997   21.3620 C   0  0  0  0  0  0  0  0  0  0  0  0
  -24.0567  -12.8602   20.6890 C   0  0  0  0  0  0  0  0  0  0  0  0
  -24.6133  -37.1506   20.3200 C   0  0  0  0  0  0  0  0  0  0  0  0
  -25.1715  -29.3694   20.1847 C   0  0  0  0  0  0  0  0  0  0  0  0
  -24.9093  -35.9329   19.6782 C   0  0  0  0  0  0  0  0  0  0  0  0
  -28.3532  -20.2178   21.2227 C   0  0  0  0  0  0  0  0  0  0  0  0
  -26.0602  -29.1412   21.2450 C   0  0  0  0  0  0  0  0  0  0  0  0
  -29.3134  -18.0291   20.9544 C   0  0  0  0  0  0  0  0  0  0  0  0
  -22.8938   -8.0298   22.2350 C   0  0  0  0  0  0  0  0  0  0  0  0
  -27.1537  -27.4067   19.9389 C   0  0  0  0  0  0  0  0  0  0  0  0
  -21.4251   -6.9515   23.7191 C   0  0  0  0  0  0  0  0  0  0  0  0
  -19.6303   -7.1114   25.8488 C   0  0  0  0  0  0  0  0  0  0  0  0
  -21.6766   -6.2486   24.8973 C   0  0  0  0  0  0  0  0  0  0  0  0
  -24.6915  -11.6236   20.9117 C   0  0  0  0  0  0  0  0  0  0  0  0
  -29.2942  -20.6823   20.3179 C   0  0  0  0  0  0  0  0  0  0  0  0
  -25.0656  -13.6940   20.2728 C   0  0  0  0  0  0  0  0  0  0  0  0
  -28.5862  -24.1408   19.4816 C   0  0  0  0  0  0  0  0  0  0  0  0
  -28.2890  -22.8318   19.4193 C   0  0  0  0  0  0  0  0  0  0  0  0
  -22.6782  -13.2227   20.8445 C   0  0  0  0  0  0  0  0  0  0  0  0
  -25.4161  -32.4670   20.8546 C   0  0  0  0  0  0  0  0  0  0  0  0
  -24.4868  -31.5030   23.8091 C   0  0  0  0  0  0  0  0  0  0  0  0
  -24.2825  -28.9856   26.1044 C   0  0  0  0  0  0  0  0  0  0  0  0
  -30.2396  -15.6952   20.7503 C   0  0  0  0  0  0  0  0  0  0  0  0
  -25.2008  -37.5025   21.6637 C   0  0  0  0  0  0  0  0  0  0  0  0
  -24.0815  -30.3980   20.3123 C   0  0  0  0  0  0  0  0  0  0  0  0
  -25.9837  -29.9279   22.5271 C   0  0  0  0  0  0  0  0  0  0  0  0
  -29.9206  -24.3278   20.1572 C   0  0  0  0  0  0  0  0  0  0  0  0
  -25.7473  -36.2969   22.4242 C   0  0  0  0  0  0  0  0  0  0  0  0
  -26.3176  -21.5937   16.8836 C   0  0  0  0  0  0  0  0  0  0  0  0
  -29.8331  -12.6725   18.9131 C   0  0  0  0  0  0  0  0  0  0  0  0
  -27.8083  -22.3348   22.5994 C   0  0  0  0  0  0  0  0  0  0  0  0
  -27.2484  -21.1708   23.3557 C   0  0  0  0  0  0  0  0  0  0  0  0
  -26.5985  -35.4269   21.5048 C   0  0  0  0  0  0  0  0  0  0  0  0
  -26.7291  -22.9898   17.3954 C   0  0  0  0  0  0  0  0  0  0  0  0
  -27.2984  -21.0081   17.9207 C   0  0  0  0  0  0  0  0  0  0  0  0
  -28.4070  -12.2319   19.2510 C   0  0  0  0  0  0  0  0  0  0  0  0
  -30.4272  -22.8879   20.3767 C   0  0  0  0  0  0  0  0  0  0  0  0
  -30.5291  -13.3106   20.1141 C   0  0  0  0  0  0  0  0  0  0  0  0
  -28.3633  -13.9683   21.0867 C   0  0  0  0  0  0  0  0  0  0  0  0
  -27.3405  -21.1128   21.8535 C   0  0  0  0  0  0  0  0  0  0  0  0
  -25.7665  -34.8760   20.3404 C   0  0  1  0  0  0  0  0  0  0  0  0
  -27.0918  -22.3079   18.7393 C   0  0  0  0  0  0  0  0  0  0  0  0
  -24.3964  -31.4775   21.3432 C   0  0  1  0  0  0  0  0  0  0  0  0
  -27.5993  -13.3786   19.8900 C   0  0  2  0  0  0  0  0  0  0  0  0
  -23.5066  -28.5104   28.4431 C   0  0  0  0  0  0  0  0  0  0  0  0
  -26.9432  -32.9375   24.9129 C   0  0  0  0  0  0  0  0  0  0  0  0
  -26.6462  -31.6582   27.0445 C   0  0  0  0  0  0  0  0  0  0  0  0
  -24.8660  -33.2272   26.2752 C   0  0  0  0  0  0  0  0  0  0  0  0
  -22.3341  -26.9629   25.1710 C   0  0  0  0  0  0  0  0  0  0  0  0
  -27.8247  -25.3258   19.0033 C   0  0  0  0  0  0  0  0  0  1  0  0
  -25.2003  -31.0380   25.0556 C   0  0  1  0  0  0  0  0  0  0  0  0
  -23.1324  -28.5018   26.9691 C   0  0  2  0  0  0  0  0  0  0  0  0
  -25.9168  -32.2016   25.7973 C   0  0  0  0  0  0  0  0  0  0  0  0
  -30.2260  -19.9012   19.7269 N   0  0  0  0  0  0  0  0  0  0  0  0
  -26.0022  -11.6637   20.6578 N   0  0  0  0  0  0  0  0  0  0  0  0
  -26.1992  -12.9357   20.2712 N   0  0  0  0  0  0  0  0  0  0  0  0
  -29.2828  -22.0488   19.9914 N   0  0  0  0  0  0  0  0  0  0  0  0
  -24.9046  -30.9266   22.6012 N   0  0  0  0  0  0  0  0  0  0  0  0
  -29.7078  -14.3912   20.6643 N   0  0  0  0  0  0  0  0  0  0  0  0
  -25.0848  -14.9946   19.9115 N   0  0  0  0  0  0  0  0  0  0  0  0
  -21.7751  -12.2439   21.2811 N   0  0  0  0  0  0  0  0  0  0  0  0
  -29.3555  -16.6460   21.2593 N   0  0  0  0  0  0  0  0  0  0  0  0
  -24.9503  -33.7660   20.7831 N   0  0  0  0  0  0  0  0  0  0  0  0
  -24.2033  -30.3404   25.8605 N   0  0  0  0  0  0  0  0  0  0  0  0
  -22.7480  -27.1128   26.5899 N   0  3  0  0  0  0  0  0  0  0  0  0
  -22.2569  -14.3760   20.5877 O   0  0  0  0  0  0  0  0  0  0  0  0
  -26.5425  -32.0808   20.5653 O   0  0  0  0  0  0  0  0  0  0  0  0
  -23.5869  -32.3412   23.9046 O   0  0  0  0  0  0  0  0  0  0  0  0
  -25.1650  -28.2373   25.6900 O   0  0  0  0  0  0  0  0  0  0  0  0
  -31.3850  -15.9552   20.3730 O   0  0  0  0  0  0  0  0  0  0  0  0
  -22.3155   -6.8738   22.6613 O   0  0  0  0  0  0  0  0  0  0  0  0
  -28.1211  -26.4569   19.8212 O   0  0  0  0  0  0  0  0  0  1  0  0
  -18.7692   -7.1895   26.8718 F   0  0  0  0  0  0  0  0  0  0  0  0
  -22.7792   -5.4957   25.0126 F   0  0  0  0  0  0  0  0  0  0  0  0
  1  2  1  0  0  0  0
  1  5  2  0  0  0  0
  2  6  2  0  0  0  0
  3  8  2  0  0  0  0
  3 17  1  0  0  0  0
  4  9  1  0  0  0  0
  4 17  2  0  0  0  0
  5 19  1  0  0  0  0
  6 21  1  0  0  0  0
  7 10  2  0  0  0  0
  7 20  1  0  0  0  0
  8 25  1  0  0  0  0
  9 25  2  0  0  0  0
 10 26  1  0  0  0  0
 11 12  2  0  0  0  0
 11 27  1  0  0  0  0
 12 28  1  0  0  0  0
 13 22  1  0  0  0  0
 13 24  2  0  0  0  0
 14 23  1  0  0  0  0
 14 26  2  0  0  0  0
 15 28  2  0  0  0  0
 15 29  1  0  0  0  0
 16 24  1  0  0  0  0
 16 70  2  0  0  0  0
 17 30  1  0  0  0  0
 18 30  1  0  0  0  0
 18 32  2  0  0  0  0
 18 35  1  0  0  0  0
 19 21  2  0  0  0  0
 19 40  1  0  0  0  0
 20 23  2  0  0  0  0
 20 41  1  0  0  0  0
 21 57  1  0  0  0  0
 22 31  2  0  0  0  0
 22 56  1  0  0  0  0
 23 42  1  0  0  0  0
 24 78  1  0  0  0  0
 25 87  1  0  0  0  0
 26 88  1  0  0  0  0
 27 29  2  0  0  0  0
 27 87  1  0  0  0  0
 28 89  1  0  0  0  0
 29 90  1  0  0  0  0
 30 71  2  0  0  0  0
 31 70  1  0  0  0  0
 31 73  1  0  0  0  0
 32 72  1  0  0  0  0
 32 76  1  0  0  0  0
 33 34  2  0  0  0  0
 33 43  1  0  0  0  0
 33 66  1  0  0  0  0
 34 58  1  0  0  0  0
 34 73  1  0  0  0  0
 35 77  1  0  0  0  0
 35 82  2  0  0  0  0
 36 59  1  0  0  0  0
 36 79  1  0  0  0  0
 36 83  2  0  0  0  0
 37 67  1  0  0  0  0
 37 74  1  0  0  0  0
 37 84  2  0  0  0  0
 38 68  1  0  0  0  0
 38 80  1  0  0  0  0
 38 85  2  0  0  0  0
 39 75  1  0  0  0  0
 39 78  1  0  0  0  0
 39 86  2  0  0  0  0
 40 44  1  0  0  0  0
 41 59  1  0  0  0  0
 42 74  1  0  0  0  0
 43 53  1  0  0  0  0
 44 49  1  0  0  0  0
 45 50  1  0  0  0  0
 45 51  1  0  0  0  0
 46 52  1  0  0  0  0
 46 54  1  0  0  0  0
 47 48  1  0  0  0  0
 47 56  1  0  0  0  0
 48 56  1  0  0  0  0
 49 57  1  0  0  0  0
 50 58  1  0  0  0  0
 51 58  1  0  0  0  0
 52 60  1  0  0  0  0
 53 73  1  0  0  0  0
 54 75  1  0  0  0  0
 55 60  1  0  0  0  0
 55 75  1  0  0  0  0
 57 79  1  0  0  0  0
 59 74  1  0  0  0  0
 60 72  1  0  0  0  0
 61 68  1  0  0  0  0
 62 69  1  0  0  0  0
 63 69  1  0  0  0  0
 64 69  1  0  0  0  0
 65 81  1  0  0  0  0
 66 88  1  0  0  0  0
 67 69  1  0  0  0  0
 67 80  1  0  0  0  0
 68 81  1  0  0  0  0
 71 72  1  0  0  0  0
M  CHG  1  81   1
M  ISO  4  39 100  66 101  78 100  88 101
M  END
> <Batch ID>
0151

> <Smiles>
CNC(C)C(=O)NC(C(=O)N1Cc2cc([101O:1][101CH2:1]C3=C(C4CCC4)N(c4ncc([100NH:0][100C:0](=O)N5CCCC(n6nc(-c7ccc(Oc8ccc(F)cc8F)cc7)c(C(N)=O)c6N)C5)cc4C4CC4)CC3)ccc2CC1C(=O)NC1CCCc2ccccc21)C(C)(C)C

> <Shape>
0.352

> <Color>
0.219

> <Negative vol penalty>
0.000

$$$$

  -OEChem-04052303243D

 79 87  0     1  0  0  0  0  0999 V2000
  -26.1928  -35.5506   22.2424 C   0  0  0  0  0  0  0  0  0  0  0  0
  -26.7155  -34.2628   22.1833 C   0  0  0  0  0  0  0  0  0  0  0  0
  -26.2318  -13.4061   19.4621 C   0  0  0  0  0  0  0  0  0  0  0  0
  -24.6771  -13.6380   21.2968 C   0  0  0  0  0  0  0  0  0  0  0  0
  -24.8982  -35.7551   22.7179 C   0  0  0  0  0  0  0  0  0  0  0  0
  -25.9442  -33.1786   22.6007 C   0  0  0  0  0  0  0  0  0  0  0  0
  -26.1923  -29.2682   19.3926 C   0  0  0  0  0  0  0  0  0  0  0  0
  -25.6089  -12.2166   19.0845 C   0  0  0  0  0  0  0  0  0  0  0  0
  -24.0541  -12.4485   20.9191 C   0  0  0  0  0  0  0  0  0  0  0  0
  -27.3334  -28.4691   19.4498 C   0  0  0  0  0  0  0  0  0  0  0  0
  -24.6224   -9.1303   21.2313 C   0  0  0  0  0  0  0  0  0  0  0  0
  -24.3153   -8.2123   22.2356 C   0  0  0  0  0  0  0  0  0  0  0  0
  -26.1220  -26.8431   20.7565 C   0  0  0  0  0  0  0  0  0  0  0  0
  -21.9737   -8.3668   21.6609 C   0  0  0  0  0  0  0  0  0  0  0  0
  -25.7660  -14.1168   20.5683 C   0  0  0  0  0  0  0  0  0  0  0  0
  -27.7541  -15.5172   21.3389 C   0  0  0  0  0  0  0  0  0  0  0  0
  -24.1071  -34.6720   23.1323 C   0  0  0  0  0  0  0  0  0  0  0  0
  -25.0087  -28.8651   20.0273 C   0  0  0  0  0  0  0  0  0  0  0  0
  -24.6383  -33.3689   23.0835 C   0  0  0  0  0  0  0  0  0  0  0  0
  -24.9666  -27.6376   20.7038 C   0  0  0  0  0  0  0  0  0  0  0  0
  -24.5200  -11.7378   19.8130 C   0  0  0  0  0  0  0  0  0  0  0  0
  -27.2992  -27.2578   20.1342 C   0  0  0  0  0  0  0  0  0  0  0  0
  -23.6051   -9.6666   20.4418 C   0  0  0  0  0  0  0  0  0  0  0  0
  -22.9910   -7.8305   22.4504 C   0  0  0  0  0  0  0  0  0  0  0  0
  -22.2808   -9.2848   20.6566 C   0  0  0  0  0  0  0  0  0  0  0  0
  -26.4095  -15.3453   20.9592 C   0  0  0  0  0  0  0  0  0  0  0  0
  -27.8649  -16.8586   21.6123 C   0  0  0  0  0  0  0  0  0  0  0  0
  -28.8088  -14.5507   21.4357 C   0  0  0  0  0  0  0  0  0  0  0  0
  -26.8156  -22.1652   20.1768 C   0  0  0  0  0  0  0  0  0  0  0  0
  -23.2078  -30.0377   22.3695 C   0  0  0  0  0  0  0  0  0  0  0  0
  -29.0742  -24.1111   18.7160 C   0  0  0  0  0  0  0  0  0  0  0  0
  -21.2369  -27.5951   21.5501 C   0  0  0  0  0  0  0  0  0  0  0  0
  -20.8776  -24.5170   20.1208 C   0  0  0  0  0  0  0  0  0  0  0  0
  -22.7304  -34.9473   23.6832 C   0  0  0  0  0  0  0  0  0  0  0  0
  -23.7787  -29.7258   19.9338 C   0  0  0  0  0  0  0  0  0  0  0  0
  -23.7148  -27.1499   21.3847 C   0  0  0  0  0  0  0  0  0  0  0  0
  -21.8436  -33.7068   23.7546 C   0  0  0  0  0  0  0  0  0  0  0  0
  -24.3294  -20.4285   22.1198 C   0  0  0  0  0  0  0  0  0  0  0  0
  -22.6100  -32.5371   24.3639 C   0  0  0  0  0  0  0  0  0  0  0  0
  -24.7410  -18.9624   21.9925 C   0  0  0  0  0  0  0  0  0  0  0  0
  -29.2713  -21.4165   20.8014 C   0  0  0  0  0  0  0  0  0  0  0  0
  -24.6219  -21.2040   20.8391 C   0  0  0  0  0  0  0  0  0  0  0  0
  -26.4604  -19.6489   20.2613 C   0  0  0  0  0  0  0  0  0  0  0  0
  -23.8237  -32.1648   23.5039 C   0  0  1  0  0  0  0  0  0  0  0  0
  -28.2644  -21.9131   19.7515 C   0  0  2  0  0  0  0  0  0  0  0  0
  -22.7759  -29.4587   21.0520 C   0  0  1  0  0  0  0  0  0  0  0  0
  -26.2080  -18.8380   21.5446 C   0  0  2  0  0  0  0  0  0  0  0  0
  -29.9335  -22.8052   20.7951 C   0  0  2  0  0  0  0  0  0  0  0  0
  -29.6503  -23.6832   21.9983 C   0  0  0  0  0  0  0  0  0  0  0  0
  -19.1528  -22.7607   19.6333 C   0  0  0  0  0  0  0  0  0  0  0  0
  -21.2803  -26.7429   24.4796 C   0  0  0  0  0  0  0  0  0  0  0  0
  -20.3650  -24.5218   23.7747 C   0  0  0  0  0  0  0  0  0  0  0  0
  -19.0370  -26.5969   23.3837 C   0  0  0  0  0  0  0  0  0  0  0  0
  -21.3133  -24.7341   17.2016 C   0  0  0  0  0  0  0  0  0  0  0  0
  -30.0535  -25.2287   18.9555 C   0  0  0  0  0  0  0  0  0  0  0  0
  -29.3142  -26.5483   19.0890 C   0  0  0  0  0  0  0  0  0  1  0  0
  -21.0878  -26.1537   21.9732 C   0  0  1  0  0  0  0  0  0  0  0  0
  -19.8801  -23.9878   19.1062 C   0  0  2  0  0  0  0  0  0  0  0  0
  -20.4668  -26.0136   23.3917 C   0  0  0  0  0  0  0  0  0  0  0  0
  -25.7157  -16.4863   20.9878 N   0  0  0  0  0  0  0  0  0  0  0  0
  -26.6279  -17.3880   21.3888 N   0  0  0  0  0  0  0  0  0  0  0  0
  -26.0171  -21.0384   20.4279 N   0  0  0  0  0  0  0  0  0  0  0  0
  -22.5401  -28.0300   21.2703 N   0  0  0  0  0  0  0  0  0  0  0  0
  -29.0796  -23.1188   19.6601 N   0  0  0  0  0  0  0  0  0  0  0  0
  -28.8987  -17.6252   22.0197 N   0  0  0  0  0  0  0  0  0  0  0  0
  -28.9960  -13.8860   22.6553 N   0  0  0  0  0  0  0  0  0  0  0  0
  -23.4078  -31.4048   22.3447 N   0  0  0  0  0  0  0  0  0  0  0  0
  -20.3239  -25.4957   20.9188 N   0  0  0  0  0  0  0  0  0  0  0  0
  -20.5756  -23.6149   17.8420 N   0  3  0  0  0  0  0  0  0  0  0  0
  -29.5732  -14.2964   20.4742 O   0  0  0  0  0  0  0  0  0  0  0  0
  -26.3871  -23.3238   20.2887 O   0  0  0  0  0  0  0  0  0  0  0  0
  -23.3478  -29.2992   23.3373 O   0  0  0  0  0  0  0  0  0  0  0  0
  -28.3243  -24.1245   17.7398 O   0  0  0  0  0  0  0  0  0  0  0  0
  -20.2332  -28.3070   21.4639 O   0  0  0  0  0  0  0  0  0  0  0  0
  -22.0313  -24.1010   20.2001 O   0  0  0  0  0  0  0  0  0  0  0  0
  -23.9117  -10.5773   19.4446 O   0  0  0  0  0  0  0  0  0  0  0  0
  -28.4118  -26.4762   20.1921 O   0  0  0  0  0  0  0  0  0  1  0  0
  -22.6965   -6.9478   23.4138 F   0  0  0  0  0  0  0  0  0  0  0  0
  -21.2994   -9.7958   19.9006 F   0  0  0  0  0  0  0  0  0  0  0  0
  1  2  1  0  0  0  0
  1  5  2  0  0  0  0
  2  6  2  0  0  0  0
  3  8  2  0  0  0  0
  3 15  1  0  0  0  0
  4  9  1  0  0  0  0
  4 15  2  0  0  0  0
  5 17  1  0  0  0  0
  6 19  1  0  0  0  0
  7 10  2  0  0  0  0
  7 18  1  0  0  0  0
  8 21  1  0  0  0  0
  9 21  2  0  0  0  0
 10 22  1  0  0  0  0
 11 12  2  0  0  0  0
 11 23  1  0  0  0  0
 12 24  1  0  0  0  0
 13 20  1  0  0  0  0
 13 22  2  0  0  0  0
 14 24  2  0  0  0  0
 14 25  1  0  0  0  0
 15 26  1  0  0  0  0
 16 26  1  0  0  0  0
 16 27  2  0  0  0  0
 16 28  1  0  0  0  0
 17 19  2  0  0  0  0
 17 34  1  0  0  0  0
 18 20  2  0  0  0  0
 18 35  1  0  0  0  0
 19 44  1  0  0  0  0
 20 36  1  0  0  0  0
 21 76  1  0  0  0  0
 22 77  1  0  0  0  0
 23 25  2  0  0  0  0
 23 76  1  0  0  0  0
 24 78  1  0  0  0  0
 25 79  1  0  0  0  0
 26 60  2  0  0  0  0
 27 61  1  0  0  0  0
 27 65  1  0  0  0  0
 28 66  1  0  0  0  0
 28 70  2  0  0  0  0
 29 45  1  0  0  0  0
 29 62  1  0  0  0  0
 29 71  2  0  0  0  0
 30 46  1  0  0  0  0
 30 67  1  0  0  0  0
 30 72  2  0  0  0  0
 31 55  1  0  0  0  0
 31 64  1  0  0  0  0
 31 73  2  0  0  0  0
 32 57  1  0  0  0  0
 32 63  1  0  0  0  0
 32 74  2  0  0  0  0
 33 58  1  0  0  0  0
 33 68  1  0  0  0  0
 33 75  2  0  0  0  0
 34 37  1  0  0  0  0
 35 46  1  0  0  0  0
 36 63  1  0  0  0  0
 37 39  1  0  0  0  0
 38 40  1  0  0  0  0
 38 42  1  0  0  0  0
 39 44  1  0  0  0  0
 40 47  1  0  0  0  0
 41 45  1  0  0  0  0
 41 48  1  0  0  0  0
 42 62  1  0  0  0  0
 43 47  1  0  0  0  0
 43 62  1  0  0  0  0
 44 67  1  0  0  0  0
 45 64  1  0  0  0  0
 46 63  1  0  0  0  0
 47 61  1  0  0  0  0
 48 49  1  0  0  0  0
 48 64  1  0  0  0  0
 50 58  1  0  0  0  0
 51 59  1  0  0  0  0
 52 59  1  0  0  0  0
 53 59  1  0  0  0  0
 54 69  1  0  0  0  0
 55 56  1  0  0  0  0
 56 77  1  0  0  0  0
 57 59  1  0  0  0  0
 57 68  1  0  0  0  0
 58 69  1  0  0  0  0
 60 61  1  0  0  0  0
M  CHG  1  69   1
M  ISO  4  29 100  45 100  56 101  77 101
M  END
> <Batch ID>
0151

> <Smiles>
CNC(C)C(=O)NC(C(=O)N1Cc2cc([101O:1][101CH2:1]CC(=O)N3C(C)C[100CH:0]3[100C:0](=O)N3CCCC(n4nc(-c5ccc(Oc6ccc(F)cc6F)cc5)c(C(N)=O)c4N)C3)ccc2CC1C(=O)NC1CCCc2ccccc21)C(C)(C)C

> <Shape>
0.292

> <Color>
0.087

> <Negative vol penalty>
0.000

$$$$

  -OEChem-04052303243D

 82 91  0     1  0  0  0  0  0999 V2000
  -30.4800  -33.6265   24.1032 C   0  0  0  0  0  0  0  0  0  0  0  0
  -30.1632  -32.3418   23.6737 C   0  0  0  0  0  0  0  0  0  0  0  0
  -22.4059  -10.1896   22.3223 C   0  0  0  0  0  0  0  0  0  0  0  0
  -24.0540   -9.7661   20.6073 C   0  0  0  0  0  0  0  0  0  0  0  0
  -29.5109  -34.4101   24.7284 C   0  0  0  0  0  0  0  0  0  0  0  0
  -28.8773  -31.8394   23.8701 C   0  0  0  0  0  0  0  0  0  0  0  0
  -27.0618  -29.4899   19.7679 C   0  0  0  0  0  0  0  0  0  0  0  0
  -21.9417   -8.8800   22.1997 C   0  0  0  0  0  0  0  0  0  0  0  0
  -23.5899   -8.4564   20.4847 C   0  0  0  0  0  0  0  0  0  0  0  0
  -27.5210  -28.1973   19.5190 C   0  0  0  0  0  0  0  0  0  0  0  0
  -22.8783   -5.7986   23.2296 C   0  0  0  0  0  0  0  0  0  0  0  0
  -22.6375   -5.0837   24.4028 C   0  0  0  0  0  0  0  0  0  0  0  0
  -25.4956  -27.3003   20.4743 C   0  0  0  0  0  0  0  0  0  0  0  0
  -27.5066  -20.0892   18.6087 C   0  0  0  0  0  0  0  0  0  0  0  0
  -20.3208   -4.8235   23.7687 C   0  0  0  0  0  0  0  0  0  0  0  0
  -28.8069  -18.4669   19.6477 C   0  0  0  0  0  0  0  0  0  0  0  0
  -23.4620  -10.6327   21.5261 C   0  0  0  0  0  0  0  0  0  0  0  0
  -24.9550  -12.4519   22.5104 C   0  0  0  0  0  0  0  0  0  0  0  0
  -28.2098  -33.9206   24.9239 C   0  0  0  0  0  0  0  0  0  0  0  0
  -25.8187  -29.6976   20.3828 C   0  0  0  0  0  0  0  0  0  0  0  0
  -27.8903  -32.6166   24.4998 C   0  0  0  0  0  0  0  0  0  0  0  0
  -25.0218  -28.5966   20.7275 C   0  0  0  0  0  0  0  0  0  0  0  0
  -27.5614  -18.7695   19.1431 C   0  0  0  0  0  0  0  0  0  0  0  0
  -22.5338   -8.0134   21.2809 C   0  0  0  0  0  0  0  0  0  0  0  0
  -26.7392  -27.1022   19.8748 C   0  0  0  0  0  0  0  0  0  0  0  0
  -21.8404   -6.0260   22.3259 C   0  0  0  0  0  0  0  0  0  0  0  0
  -21.3587   -4.5961   24.6724 C   0  0  0  0  0  0  0  0  0  0  0  0
  -20.5616   -5.5385   22.5955 C   0  0  0  0  0  0  0  0  0  0  0  0
  -23.9415  -11.9856   21.6519 C   0  0  0  0  0  0  0  0  0  0  0  0
  -28.7125  -20.7451   18.7254 C   0  0  0  0  0  0  0  0  0  0  0  0
  -25.0323  -13.7984   22.2509 C   0  0  0  0  0  0  0  0  0  0  0  0
  -25.7552  -11.7322   23.4578 C   0  0  0  0  0  0  0  0  0  0  0  0
  -24.8555  -31.0439   23.0963 C   0  0  0  0  0  0  0  0  0  0  0  0
  -21.9046  -30.4990   21.8644 C   0  0  0  0  0  0  0  0  0  0  0  0
  -19.9409  -28.6881   19.7405 C   0  0  0  0  0  0  0  0  0  0  0  0
  -25.1852  -18.0705   18.6832 C   0  0  0  0  0  0  0  0  0  0  0  0
  -27.2093  -34.7871   25.6471 C   0  0  0  0  0  0  0  0  0  0  0  0
  -25.3259  -31.0988   20.6201 C   0  0  0  0  0  0  0  0  0  0  0  0
  -23.6709  -28.7662   21.3716 C   0  0  0  0  0  0  0  0  0  0  0  0
  -25.7658  -34.3192   25.4809 C   0  0  0  0  0  0  0  0  0  0  0  0
  -21.9742  -16.8183   19.5769 C   0  0  0  0  0  0  0  0  0  0  0  0
  -25.6637  -32.8136   25.7035 C   0  0  0  0  0  0  0  0  0  0  0  0
  -28.8288  -22.4228   16.8032 C   0  0  0  0  0  0  0  0  0  0  0  0
  -22.2832  -15.4877   20.2670 C   0  0  0  0  0  0  0  0  0  0  0  0
  -28.7146  -23.9369   16.7513 C   0  0  0  0  0  0  0  0  0  0  0  0
  -22.9210  -17.0842   18.4079 C   0  0  0  0  0  0  0  0  0  0  0  0
  -24.6591  -15.6642   19.4239 C   0  0  0  0  0  0  0  0  0  0  0  0
  -26.4996  -32.0455   24.6726 C   0  0  1  0  0  0  0  0  0  0  0  0
  -29.0660  -22.1417   18.2875 C   0  0  1  0  0  0  0  0  0  0  0  0
  -24.2712  -31.1831   21.7191 C   0  0  1  0  0  0  0  0  0  0  0  0
  -23.7729  -15.3833   20.6483 C   0  0  2  0  0  0  0  0  0  0  0  0
  -27.8576  -24.2557   17.9663 C   0  0  2  0  0  0  0  0  0  0  0  0
  -17.5615  -28.4477   18.9802 C   0  0  0  0  0  0  0  0  0  0  0  0
  -21.2209  -29.0605   24.4669 C   0  0  0  0  0  0  0  0  0  0  0  0
  -19.2462  -28.0484   23.3073 C   0  0  0  0  0  0  0  0  0  0  0  0
  -19.3998  -30.5238   23.5743 C   0  0  0  0  0  0  0  0  0  0  0  0
  -20.6451  -29.3551   16.9445 C   0  0  0  0  0  0  0  0  0  0  0  0
  -28.0445  -25.6578   18.5088 C   0  0  0  0  0  0  0  0  0  1  0  0
  -20.9165  -29.3591   21.9205 C   0  0  1  0  0  0  0  0  0  0  0  0
  -18.9030  -29.1144   18.7181 C   0  0  2  0  0  0  0  0  0  0  0  0
  -20.2221  -29.2444   23.3069 C   0  0  0  0  0  0  0  0  0  0  0  0
  -23.4127  -12.9570   20.9031 N   0  0  0  0  0  0  0  0  0  0  0  0
  -24.0965  -14.0472   21.2904 N   0  0  0  0  0  0  0  0  0  0  0  0
  -23.2358  -30.1558   21.5888 N   0  0  0  0  0  0  0  0  0  0  0  0
  -24.3144  -16.9722   18.8449 N   0  0  0  0  0  0  0  0  0  0  0  0
  -25.8086  -14.7821   22.7530 N   0  0  0  0  0  0  0  0  0  0  0  0
  -25.5460  -10.3535   23.5983 N   0  0  0  0  0  0  0  0  0  0  0  0
  -26.4764  -17.8584   19.1653 N   0  0  0  0  0  0  0  0  0  0  0  0
  -25.8112  -31.9945   23.4006 N   0  0  0  0  0  0  0  0  0  0  0  0
  -19.9966  -29.5611   20.8064 N   0  0  0  0  0  0  0  0  0  0  0  0
  -28.2908  -23.2403   18.9920 N   0  3  0  0  0  0  0  0  0  0  0  0
  -19.3490  -28.7489   17.3439 N   0  3  0  0  0  0  0  0  0  0  0  0
  -26.6185  -12.2980   24.1707 O   0  0  0  0  0  0  0  0  0  0  0  0
  -24.4670  -30.1420   23.8292 O   0  0  0  0  0  0  0  0  0  0  0  0
  -21.5086  -31.6523   22.0511 O   0  0  0  0  0  0  0  0  0  0  0  0
  -20.6305  -27.6793   19.6088 O   0  0  0  0  0  0  0  0  0  0  0  0
  -24.8054  -19.1313   18.1807 O   0  0  0  0  0  0  0  0  0  0  0  0
  -22.0813   -6.7353   21.1612 O   0  0  0  0  0  0  0  0  0  0  0  0
  -27.1853  -25.8394   19.6336 O   0  0  0  0  0  0  0  0  0  1  0  0
  -21.1280   -3.9083   25.7984 F   0  0  0  0  0  0  0  0  0  0  0  0
  -19.5607   -5.7528   21.7305 F   0  0  0  0  0  0  0  0  0  0  0  0
  -29.9037  -19.7707   19.4764 S   0  0  0  0  0  0  0  0  0  0  0  0
  1  2  1  0  0  0  0
  1  5  2  0  0  0  0
  2  6  2  0  0  0  0
  3  8  2  0  0  0  0
  3 17  1  0  0  0  0
  4  9  1  0  0  0  0
  4 17  2  0  0  0  0
  5 19  1  0  0  0  0
  6 21  1  0  0  0  0
  7 10  2  0  0  0  0
  7 20  1  0  0  0  0
  8 24  1  0  0  0  0
  9 24  2  0  0  0  0
 10 25  1  0  0  0  0
 11 12  2  0  0  0  0
 11 26  1  0  0  0  0
 12 27  1  0  0  0  0
 13 22  1  0  0  0  0
 13 25  2  0  0  0  0
 14 23  1  0  0  0  0
 14 30  2  0  0  0  0
 15 27  2  0  0  0  0
 15 28  1  0  0  0  0
 16 23  2  0  0  0  0
 16 82  1  0  0  0  0
 17 29  1  0  0  0  0
 18 29  1  0  0  0  0
 18 31  2  0  0  0  0
 18 32  1  0  0  0  0
 19 21  2  0  0  0  0
 19 37  1  0  0  0  0
 20 22  2  0  0  0  0
 20 38  1  0  0  0  0
 21 48  1  0  0  0  0
 22 39  1  0  0  0  0
 23 68  1  0  0  0  0
 24 78  1  0  0  0  0
 25 79  1  0  0  0  0
 26 28  2  0  0  0  0
 26 78  1  0  0  0  0
 27 80  1  0  0  0  0
 28 81  1  0  0  0  0
 29 62  2  0  0  0  0
 30 49  1  0  0  0  0
 30 82  1  0  0  0  0
 31 63  1  0  0  0  0
 31 66  1  0  0  0  0
 32 67  1  0  0  0  0
 32 73  2  0  0  0  0
 33 50  1  0  0  0  0
 33 69  1  0  0  0  0
 33 74  2  0  0  0  0
 34 59  1  0  0  0  0
 34 64  1  0  0  0  0
 34 75  2  0  0  0  0
 35 60  1  0  0  0  0
 35 70  1  0  0  0  0
 35 76  2  0  0  0  0
 36 65  1  0  0  0  0
 36 68  1  0  0  0  0
 36 77  2  0  0  0  0
 37 40  1  0  0  0  0
 38 50  1  0  0  0  0
 39 64  1  0  0  0  0
 40 42  1  0  0  0  0
 41 44  1  0  0  0  0
 41 46  1  0  0  0  0
 42 48  1  0  0  0  0
 43 45  1  0  0  0  0
 43 49  1  0  0  0  0
 44 51  1  0  0  0  0
 45 52  1  0  0  0  0
 46 65  1  0  0  0  0
 47 51  1  0  0  0  0
 47 65  1  0  0  0  0
 48 69  1  0  0  0  0
 49 71  1  0  0  0  0
 50 64  1  0  0  0  0
 51 63  1  0  0  0  0
 52 58  1  0  0  0  0
 52 71  1  0  0  0  0
 53 60  1  0  0  0  0
 54 61  1  0  0  0  0
 55 61  1  0  0  0  0
 56 61  1  0  0  0  0
 57 72  1  0  0  0  0
 58 79  1  0  0  0  0
 59 61  1  0  0  0  0
 59 70  1  0  0  0  0
 60 72  1  0  0  0  0
 62 63  1  0  0  0  0
M  CHG  2  71   1  72   1
M  ISO  4  36 100  58 101  68 100  79 101
M  END
> <Batch ID>
0151

> <Smiles>
CNC(C)C(=O)NC(C(=O)N1Cc2cc([101O:1][101CH2:1]C3CCC(c4cc([100NH:0][100C:0](=O)N5CCCC(n6nc(-c7ccc(Oc8ccc(F)cc8F)cc7)c(C(N)=O)c6N)C5)cs4)N3)ccc2CC1C(=O)NC1CCCc2ccccc21)C(C)(C)C

> <Shape>
0.280

> <Color>
0.092

> <Negative vol penalty>
0.000

$$$$

  -OEChem-04052303243D

 84 93  0     1  0  0  0  0  0999 V2000
  -30.3145  -36.4552   22.0700 C   0  0  0  0  0  0  0  0  0  0  0  0
  -30.3367  -35.2089   21.4523 C   0  0  0  0  0  0  0  0  0  0  0  0
  -24.6776   -8.4885   20.4748 C   0  0  0  0  0  0  0  0  0  0  0  0
  -22.9570  -10.1841   20.5106 C   0  0  0  0  0  0  0  0  0  0  0  0
  -29.5781  -36.6393   23.2395 C   0  0  0  0  0  0  0  0  0  0  0  0
  -29.6232  -34.1456   22.0044 C   0  0  0  0  0  0  0  0  0  0  0  0
  -26.7846  -29.6467   18.9699 C   0  0  0  0  0  0  0  0  0  0  0  0
  -26.8072  -19.6471   16.6327 C   0  0  0  0  0  0  0  0  0  0  0  0
  -27.1544  -20.8013   17.3347 C   0  0  0  0  0  0  0  0  0  0  0  0
  -23.7797   -7.5659   21.0115 C   0  0  0  0  0  0  0  0  0  0  0  0
  -22.0590   -9.2615   21.0473 C   0  0  0  0  0  0  0  0  0  0  0  0
  -27.1583  -28.3380   18.6675 C   0  0  0  0  0  0  0  0  0  0  0  0
  -21.2295   -5.6397   19.9074 C   0  0  0  0  0  0  0  0  0  0  0  0
  -21.1882   -4.3677   19.3366 C   0  0  0  0  0  0  0  0  0  0  0  0
  -25.9472  -27.5521   20.6001 C   0  0  0  0  0  0  0  0  0  0  0  0
  -27.9916  -19.4450   19.1504 C   0  0  0  0  0  0  0  0  0  0  0  0
  -21.7959   -3.3939   21.4625 C   0  0  0  0  0  0  0  0  0  0  0  0
  -24.2663   -9.7977   20.2243 C   0  0  0  0  0  0  0  0  0  0  0  0
  -25.4271  -11.0173   18.3079 C   0  0  0  0  0  0  0  0  0  0  0  0
  -28.8474  -35.5803   23.8009 C   0  0  0  0  0  0  0  0  0  0  0  0
  -25.9971  -29.9195   20.0977 C   0  0  0  0  0  0  0  0  0  0  0  0
  -28.8774  -34.3153   23.1832 C   0  0  0  0  0  0  0  0  0  0  0  0
  -25.5628  -28.8648   20.9132 C   0  0  0  0  0  0  0  0  0  0  0  0
  -27.0522  -18.3919   17.1895 C   0  0  0  0  0  0  0  0  0  0  0  0
  -27.7466  -20.7003   18.5936 C   0  0  0  0  0  0  0  0  0  0  0  0
  -27.6444  -18.2908   18.4484 C   0  0  0  0  0  0  0  0  0  0  0  0
  -22.4704   -7.9524   21.2977 C   0  0  0  0  0  0  0  0  0  0  0  0
  -26.7420  -27.2908   19.4843 C   0  0  0  0  0  0  0  0  0  0  0  0
  -21.5540   -5.7889   21.2558 C   0  0  0  0  0  0  0  0  0  0  0  0
  -21.4714   -3.2448   20.1141 C   0  0  0  0  0  0  0  0  0  0  0  0
  -21.8372   -4.6660   22.0334 C   0  0  0  0  0  0  0  0  0  0  0  0
  -25.1936  -10.7513   19.6704 C   0  0  0  0  0  0  0  0  0  0  0  0
  -26.3905  -11.9962   18.3093 C   0  0  0  0  0  0  0  0  0  0  0  0
  -28.2478  -24.0639   19.9376 C   0  0  0  0  0  0  0  0  0  0  0  0
  -27.8364  -25.3234   20.1187 C   0  0  0  0  0  0  0  0  0  1  0  0
  -24.8266  -10.4319   17.1449 C   0  0  0  0  0  0  0  0  0  0  0  0
  -26.4031  -31.6035   22.7629 C   0  0  0  0  0  0  0  0  0  0  0  0
  -23.2813  -30.8642   23.2425 C   0  0  0  0  0  0  0  0  0  0  0  0
  -20.6698  -28.7632   22.6002 C   0  0  0  0  0  0  0  0  0  0  0  0
  -28.4829  -16.7683   20.2719 C   0  0  0  0  0  0  0  0  0  0  0  0
  -28.1044  -35.8151   25.0921 C   0  0  0  0  0  0  0  0  0  0  0  0
  -25.5803  -31.3338   20.3951 C   0  0  0  0  0  0  0  0  0  0  0  0
  -24.6994  -29.1024   22.1242 C   0  0  0  0  0  0  0  0  0  0  0  0
  -29.0567  -23.2738   20.9170 C   0  0  0  0  0  0  0  0  0  0  0  0
  -27.8681  -23.1937   18.7774 C   0  0  0  0  0  0  0  0  0  0  0  0
  -27.0733  -34.7343   25.4068 C   0  0  0  0  0  0  0  0  0  0  0  0
  -29.2509  -13.7971   22.0771 C   0  0  0  0  0  0  0  0  0  0  0  0
  -27.6729  -33.3474   25.1977 C   0  0  0  0  0  0  0  0  0  0  0  0
  -28.2830  -12.7617   21.4998 C   0  0  0  0  0  0  0  0  0  0  0  0
  -28.5990  -21.8412   20.6580 C   0  0  0  0  0  0  0  0  0  0  0  0
  -28.6086  -15.1794   22.1783 C   0  0  0  0  0  0  0  0  0  0  0  0
  -27.0389  -14.6415   20.3574 C   0  0  0  0  0  0  0  0  0  0  0  0
  -28.0964  -33.1439   23.7380 C   0  0  1  0  0  0  0  0  0  0  0  0
  -25.2049  -31.5510   21.8578 C   0  0  1  0  0  0  0  0  0  0  0  0
  -27.6618  -13.2478   20.1757 C   0  0  2  0  0  0  0  0  0  0  0  0
  -26.6697  -17.1727   16.4148 C   0  0  0  0  0  0  0  0  0  0  0  0
  -18.2526  -28.3952   23.1652 C   0  0  0  0  0  0  0  0  0  0  0  0
  -24.0884  -29.7768   25.9768 C   0  0  0  0  0  0  0  0  0  0  0  0
  -21.8833  -28.5958   26.0806 C   0  0  0  0  0  0  0  0  0  0  0  0
  -21.9579  -31.0864   25.9624 C   0  0  0  0  0  0  0  0  0  0  0  0
  -19.8439  -29.0604   19.7738 C   0  0  0  0  0  0  0  0  0  0  0  0
  -22.5416  -29.7301   23.9101 C   0  0  1  0  0  0  0  0  0  0  0  0
  -19.2326  -29.0372   22.1955 C   0  0  2  0  0  0  0  0  0  0  0  0
  -22.6357  -29.7927   25.4608 C   0  0  0  0  0  0  0  0  0  0  0  0
  -25.9481  -11.5006   20.4787 N   0  0  0  0  0  0  0  0  0  0  0  0
  -26.6651  -12.2470   19.6215 N   0  0  0  0  0  0  0  0  0  0  0  0
  -28.0902  -21.8434   19.2884 N   0  0  3  0  0  0  0  0  0  0  0  0
  -24.3234  -30.5032   22.3767 N   0  0  0  0  0  0  0  0  0  0  0  0
  -28.0454  -15.5756   20.8858 N   0  0  0  0  0  0  0  0  0  0  0  0
  -27.0212  -12.6581   17.3161 N   0  0  0  0  0  0  0  0  0  0  0  0
  -23.8533   -9.4394   17.3233 N   0  0  0  0  0  0  0  0  0  0  0  0
  -27.9012  -17.0249   19.0307 N   0  0  0  0  0  0  0  0  0  0  0  0
  -26.9417  -32.8675   22.9106 N   0  0  0  0  0  0  0  0  0  0  0  0
  -21.1784  -29.7709   23.3921 N   0  0  0  0  0  0  0  0  0  0  0  0
  -18.9664  -28.4973   20.8322 N   0  3  0  0  0  0  0  0  0  0  0  0
  -25.1557  -10.7671   15.9818 O   0  0  0  0  0  0  0  0  0  0  0  0
  -26.8081  -30.5738   23.2895 O   0  0  0  0  0  0  0  0  0  0  0  0
  -22.9422  -32.0272   23.4750 O   0  0  0  0  0  0  0  0  0  0  0  0
  -21.2790  -27.7541   22.2521 O   0  0  0  0  0  0  0  0  0  0  0  0
  -29.3325  -17.4937   20.7952 O   0  0  0  0  0  0  0  0  0  0  0  0
  -21.5938   -7.0523   21.8213 O   0  0  0  0  0  0  0  0  0  0  0  0
  -27.1059  -26.0125   19.1917 O   0  0  0  0  0  0  0  0  0  1  0  0
  -21.4303   -2.0232   19.5662 F   0  0  0  0  0  0  0  0  0  0  0  0
  -22.1485   -4.8029   23.3296 F   0  0  0  0  0  0  0  0  0  0  0  0
  1  2  1  0  0  0  0
  1  5  2  0  0  0  0
  2  6  2  0  0  0  0
  3 10  2  0  0  0  0
  3 18  1  0  0  0  0
  4 11  1  0  0  0  0
  4 18  2  0  0  0  0
  5 20  1  0  0  0  0
  6 22  1  0  0  0  0
  7 12  2  0  0  0  0
  7 21  1  0  0  0  0
  8  9  2  0  0  0  0
  8 24  1  0  0  0  0
  9 25  1  0  0  0  0
 10 27  1  0  0  0  0
 11 27  2  0  0  0  0
 12 28  1  0  0  0  0
 13 14  2  0  0  0  0
 13 29  1  0  0  0  0
 14 30  1  0  0  0  0
 15 23  1  0  0  0  0
 15 28  2  0  0  0  0
 16 25  2  0  0  0  0
 16 26  1  0  0  0  0
 17 30  2  0  0  0  0
 17 31  1  0  0  0  0
 18 32  1  0  0  0  0
 19 32  1  0  0  0  0
 19 33  2  0  0  0  0
 19 36  1  0  0  0  0
 20 22  2  0  0  0  0
 20 41  1  0  0  0  0
 21 23  2  0  0  0  0
 21 42  1  0  0  0  0
 22 53  1  0  0  0  0
 23 43  1  0  0  0  0
 24 26  2  0  0  0  0
 24 56  1  0  0  0  0
 25 67  1  0  0  0  0
 26 72  1  0  0  0  0
 27 81  1  0  0  0  0
 28 82  1  0  0  0  0
 29 31  2  0  0  0  0
 29 81  1  0  0  0  0
 30 83  1  0  0  0  0
 31 84  1  0  0  0  0
 32 65  2  0  0  0  0
 33 66  1  0  0  0  0
 33 70  1  0  0  0  0
 34 35  2  0  0  0  0
 34 44  1  0  0  0  0
 34 45  1  0  0  0  0
 35 82  1  0  0  0  0
 36 71  1  0  0  0  0
 36 76  2  0  0  0  0
 37 54  1  0  0  0  0
 37 73  1  0  0  0  0
 37 77  2  0  0  0  0
 38 62  1  0  0  0  0
 38 68  1  0  0  0  0
 38 78  2  0  0  0  0
 39 63  1  0  0  0  0
 39 74  1  0  0  0  0
 39 79  2  0  0  0  0
 40 69  1  0  0  0  0
 40 72  1  0  0  0  0
 40 80  2  0  0  0  0
 41 46  1  0  0  0  0
 42 54  1  0  0  0  0
 43 68  1  0  0  0  0
 44 50  1  0  0  0  0
 45 67  1  0  0  0  0
 46 48  1  0  0  0  0
 47 49  1  0  0  0  0
 47 51  1  0  0  0  0
 48 53  1  0  0  0  0
 49 55  1  0  0  0  0
 50 67  1  0  0  0  0
 51 69  1  0  0  0  0
 52 55  1  0  0  0  0
 52 69  1  0  0  0  0
 53 73  1  0  0  0  0
 54 68  1  0  0  0  0
 55 66  1  0  0  0  0
 57 63  1  0  0  0  0
 58 64  1  0  0  0  0
 59 64  1  0  0  0  0
 60 64  1  0  0  0  0
 61 75  1  0  0  0  0
 62 64  1  0  0  0  0
 62 74  1  0  0  0  0
 63 75  1  0  0  0  0
 65 66  1  0  0  0  0
M  CHG  1  75   1
M  ISO  4  35 101  40 100  72 100  82 101
M  END
> <Batch ID>
0151

> <Smiles>
CNC(C)C(=O)NC(C(=O)N1Cc2cc([101O:1][101CH:1]=C3CCN(c4ccc(C)c([100NH:0][100C:0](=O)N5CCCC(n6nc(-c7ccc(Oc8ccc(F)cc8F)cc7)c(C(N)=O)c6N)C5)c4)C3)ccc2CC1C(=O)NC1CCCc2ccccc21)C(C)(C)C

> <Shape>
0.281

> <Color>
0.102

> <Negative vol penalty>
0.000

$$$$

  -OEChem-04052303243D

 84 93  0     1  0  0  0  0  0999 V2000
  -21.0602  -32.1256   24.3685 C   0  0  0  0  0  0  0  0  0  0  0  0
  -21.4255  -30.8188   24.6752 C   0  0  0  0  0  0  0  0  0  0  0  0
  -23.0226   -9.9108   19.9537 C   0  0  0  0  0  0  0  0  0  0  0  0
  -23.7895   -9.8965   22.2447 C   0  0  0  0  0  0  0  0  0  0  0  0
  -21.3095  -32.6374   23.0958 C   0  0  0  0  0  0  0  0  0  0  0  0
  -22.0392  -30.0225   23.7089 C   0  0  0  0  0  0  0  0  0  0  0  0
  -26.3445  -25.7672   24.6375 C   0  0  0  0  0  0  0  0  0  0  0  0
  -22.2471   -8.7793   20.2063 C   0  0  0  0  0  0  0  0  0  0  0  0
  -23.0139   -8.7650   22.4973 C   0  0  0  0  0  0  0  0  0  0  0  0
  -26.2823  -24.3790   24.7505 C   0  0  0  0  0  0  0  0  0  0  0  0
  -19.7663   -8.0593   23.1100 C   0  0  0  0  0  0  0  0  0  0  0  0
  -19.0122   -8.0410   24.2833 C   0  0  0  0  0  0  0  0  0  0  0  0
  -32.0485  -18.1504   24.1860 C   0  0  0  0  0  0  0  0  0  0  0  0
  -30.0480  -17.3045   23.1283 C   0  0  0  0  0  0  0  0  0  0  0  0
  -26.8375  -24.1698   22.4123 C   0  0  0  0  0  0  0  0  0  0  0  0
  -32.2057  -16.3947   22.5338 C   0  0  0  0  0  0  0  0  0  0  0  0
  -20.2003   -6.0692   25.0163 C   0  0  0  0  0  0  0  0  0  0  0  0
  -23.7939  -10.4694   20.9730 C   0  0  0  0  0  0  0  0  0  0  0  0
  -24.2070  -12.9838   20.8513 C   0  0  0  0  0  0  0  0  0  0  0  0
  -21.9353  -31.8502   22.1164 C   0  0  0  0  0  0  0  0  0  0  0  0
  -26.6435  -26.3684   23.4064 C   0  0  0  0  0  0  0  0  0  0  0  0
  -22.2959  -30.5238   22.4215 C   0  0  0  0  0  0  0  0  0  0  0  0
  -30.6625  -18.1717   24.0316 C   0  0  0  0  0  0  0  0  0  0  0  0
  -26.9054  -25.5658   22.2869 C   0  0  0  0  0  0  0  0  0  0  0  0
  -32.8202  -17.2620   23.4370 C   0  0  0  0  0  0  0  0  0  0  0  0
  -30.8196  -16.4159   22.3793 C   0  0  0  0  0  0  0  0  0  0  0  0
  -22.2427   -8.2064   21.4780 C   0  0  0  0  0  0  0  0  0  0  0  0
  -26.5260  -23.5801   23.6372 C   0  0  0  0  0  0  0  0  0  0  0  0
  -20.7374   -7.0824   22.8898 C   0  0  0  0  0  0  0  0  0  0  0  0
  -19.2292   -7.0460   25.2364 C   0  0  0  0  0  0  0  0  0  0  0  0
  -20.9544   -6.0874   23.8430 C   0  0  0  0  0  0  0  0  0  0  0  0
  -24.5957  -11.6379   20.7126 C   0  0  0  0  0  0  0  0  0  0  0  0
  -25.3189  -13.7018   20.4845 C   0  0  0  0  0  0  0  0  0  0  0  0
  -22.9530  -13.5355   21.2741 C   0  0  0  0  0  0  0  0  0  0  0  0
  -25.1067  -28.3359   21.4390 C   0  0  0  0  0  0  0  0  0  0  0  0
  -27.9342  -28.3276   19.8493 C   0  0  0  0  0  0  0  0  0  0  0  0
  -30.8664  -26.7227   19.1611 C   0  0  0  0  0  0  0  0  0  0  0  0
  -30.8131  -14.5917   20.6420 C   0  0  0  0  0  0  0  0  0  0  0  0
  -22.1413  -32.4317   20.7401 C   0  0  0  0  0  0  0  0  0  0  0  0
  -26.7331  -27.8666   23.3073 C   0  0  0  0  0  0  0  0  0  0  0  0
  -27.2506  -26.1614   20.9473 C   0  0  0  0  0  0  0  0  0  0  0  0
  -23.1348  -31.6451   19.8890 C   0  0  0  0  0  0  0  0  0  0  0  0
  -29.6232  -12.2102   18.2777 C   0  0  0  0  0  0  0  0  0  0  0  0
  -22.8412  -30.1504   19.9702 C   0  0  0  0  0  0  0  0  0  0  0  0
  -28.7557  -18.4778   25.7165 C   0  0  0  0  0  0  0  0  0  0  0  0
  -28.1772  -11.9597   18.7118 C   0  0  0  0  0  0  0  0  0  0  0  0
  -27.7824  -19.5863   26.0952 C   0  0  0  0  0  0  0  0  0  0  0  0
  -30.5481  -12.4131   19.4765 C   0  0  0  0  0  0  0  0  0  0  0  0
  -28.6669  -13.1916   20.8635 C   0  0  0  0  0  0  0  0  0  0  0  0
  -22.9861  -29.6371   21.4079 C   0  0  1  0  0  0  0  0  0  0  0  0
  -29.8280  -19.1327   24.8416 C   0  0  2  0  0  0  0  0  0  0  0  0
  -26.5407  -28.3839   21.8851 C   0  0  1  0  0  0  0  0  0  0  0  0
  -27.6858  -13.0459   19.6887 C   0  0  2  0  0  0  0  0  0  0  0  0
  -27.3798  -20.2697   24.7915 C   0  0  1  0  0  0  0  0  0  0  0  0
  -32.9602  -26.9446   17.7958 C   0  0  0  0  0  0  0  0  0  0  0  0
  -26.3797  -27.5465   17.3427 C   0  0  0  0  0  0  0  0  0  0  0  0
  -28.5490  -26.8668   16.2936 C   0  0  0  0  0  0  0  0  0  0  0  0
  -28.1811  -29.2402   16.9675 C   0  0  0  0  0  0  0  0  0  0  0  0
  -32.5783  -26.7294   21.5753 C   0  0  0  0  0  0  0  0  0  0  0  0
  -26.8032  -21.6578   25.0097 C   0  0  0  0  0  0  0  0  0  1  0  0
  -28.5417  -27.4866   18.7527 C   0  0  1  0  0  0  0  0  0  0  0  0
  -32.3027  -27.2136   19.1405 C   0  0  2  0  0  0  0  0  0  0  0  0
  -27.9045  -27.7735   17.3638 C   0  0  0  0  0  0  0  0  0  0  0  0
  -25.8560  -11.5061   20.2904 N   0  0  0  0  0  0  0  0  0  0  0  0
  -26.2689  -12.7784   20.1606 N   0  0  0  0  0  0  0  0  0  0  0  0
  -27.3197  -27.6313   20.8997 N   0  0  0  0  0  0  0  0  0  0  0  0
  -30.0214  -13.4595   20.3554 N   0  0  0  0  0  0  0  0  0  0  0  0
  -34.2221  -17.2408   23.5934 N   0  0  0  0  0  0  0  0  0  0  0  0
  -25.5668  -15.0268   20.4106 N   0  0  0  0  0  0  0  0  0  0  0  0
  -21.9167  -12.6555   21.6147 N   0  0  0  0  0  0  0  0  0  0  0  0
  -30.1948  -15.5349   21.4622 N   0  0  0  0  0  0  0  0  0  0  0  0
  -24.3833  -29.4722   21.7473 N   0  0  0  0  0  0  0  0  0  0  0  0
  -29.9808  -27.7193   18.8094 N   0  0  0  0  0  0  0  0  0  0  0  0
  -33.0991  -26.5298   20.1983 N   0  3  0  0  0  0  0  0  0  0  0  0
  -22.7520  -14.7724   21.3319 O   0  0  0  0  0  0  0  0  0  0  0  0
  -24.6879  -27.3422   20.8568 O   0  0  0  0  0  0  0  0  0  0  0  0
  -28.0087  -29.5570   19.7801 O   0  0  0  0  0  0  0  0  0  0  0  0
  -30.5609  -25.5693   19.4559 O   0  0  0  0  0  0  0  0  0  0  0  0
  -31.9451  -14.7282   20.1708 O   0  0  0  0  0  0  0  0  0  0  0  0
  -21.4858   -7.1024   21.7249 O   0  0  0  0  0  0  0  0  0  0  0  0
  -26.4652  -22.2249   23.7446 O   0  0  0  0  0  0  0  0  0  1  0  0
  -18.5060   -7.0295   26.3637 F   0  0  0  0  0  0  0  0  0  0  0  0
  -21.8867   -5.1470   23.6376 F   0  0  0  0  0  0  0  0  0  0  0  0
  -28.9152  -20.3308   23.8102 S   0  0  0  0  0  0  0  0  0  0  0  0
  1  2  1  0  0  0  0
  1  5  2  0  0  0  0
  2  6  2  0  0  0  0
  3  8  2  0  0  0  0
  3 18  1  0  0  0  0
  4  9  1  0  0  0  0
  4 18  2  0  0  0  0
  5 20  1  0  0  0  0
  6 22  1  0  0  0  0
  7 10  2  0  0  0  0
  7 21  1  0  0  0  0
  8 27  1  0  0  0  0
  9 27  2  0  0  0  0
 10 28  1  0  0  0  0
 11 12  2  0  0  0  0
 11 29  1  0  0  0  0
 12 30  1  0  0  0  0
 13 23  1  0  0  0  0
 13 25  2  0  0  0  0
 14 23  2  0  0  0  0
 14 26  1  0  0  0  0
 15 24  1  0  0  0  0
 15 28  2  0  0  0  0
 16 25  1  0  0  0  0
 16 26  2  0  0  0  0
 17 30  2  0  0  0  0
 17 31  1  0  0  0  0
 18 32  1  0  0  0  0
 19 32  1  0  0  0  0
 19 33  2  0  0  0  0
 19 34  1  0  0  0  0
 20 22  2  0  0  0  0
 20 39  1  0  0  0  0
 21 24  2  0  0  0  0
 21 40  1  0  0  0  0
 22 50  1  0  0  0  0
 23 51  1  0  0  0  0
 24 41  1  0  0  0  0
 25 68  1  0  0  0  0
 26 71  1  0  0  0  0
 27 80  1  0  0  0  0
 28 81  1  0  0  0  0
 29 31  2  0  0  0  0
 29 80  1  0  0  0  0
 30 82  1  0  0  0  0
 31 83  1  0  0  0  0
 32 64  2  0  0  0  0
 33 65  1  0  0  0  0
 33 69  1  0  0  0  0
 34 70  1  0  0  0  0
 34 75  2  0  0  0  0
 35 52  1  0  0  0  0
 35 72  1  0  0  0  0
 35 76  2  0  0  0  0
 36 61  1  0  0  0  0
 36 66  1  0  0  0  0
 36 77  2  0  0  0  0
 37 62  1  0  0  0  0
 37 73  1  0  0  0  0
 37 78  2  0  0  0  0
 38 67  1  0  0  0  0
 38 71  1  0  0  0  0
 38 79  2  0  0  0  0
 39 42  1  0  0  0  0
 40 52  1  0  0  0  0
 41 66  1  0  0  0  0
 42 44  1  0  0  0  0
 43 46  1  0  0  0  0
 43 48  1  0  0  0  0
 44 50  1  0  0  0  0
 45 47  1  0  0  0  0
 45 51  1  0  0  0  0
 46 53  1  0  0  0  0
 47 54  1  0  0  0  0
 48 67  1  0  0  0  0
 49 53  1  0  0  0  0
 49 67  1  0  0  0  0
 50 72  1  0  0  0  0
 51 84  1  0  0  0  0
 52 66  1  0  0  0  0
 53 65  1  0  0  0  0
 54 60  1  0  0  0  0
 54 84  1  0  0  0  0
 55 62  1  0  0  0  0
 56 63  1  0  0  0  0
 57 63  1  0  0  0  0
 58 63  1  0  0  0  0
 59 74  1  0  0  0  0
 60 81  1  0  0  0  0
 61 63  1  0  0  0  0
 61 73  1  0  0  0  0
 62 74  1  0  0  0  0
 64 65  1  0  0  0  0
M  CHG  1  74   1
M  ISO  4  38 100  60 101  71 100  81 101
M  END
> <Batch ID>
0151

> <Smiles>
CNC(C)C(=O)NC(C(=O)N1Cc2cc([101O:1][101CH2:1]C3CCC(c4cc(N)cc([100NH:0][100C:0](=O)N5CCCC(n6nc(-c7ccc(Oc8ccc(F)cc8F)cc7)c(C(N)=O)c6N)C5)c4)S3)ccc2CC1C(=O)NC1CCCc2ccccc21)C(C)(C)C

> <Shape>
0.265

> <Color>
0.207

> <Negative vol penalty>
0.000

$$$$

  -OEChem-04052303243D

 84 93  0     1  0  0  0  0  0999 V2000
  -32.3478  -31.4622   15.0974 C   0  0  0  0  0  0  0  0  0  0  0  0
  -32.4170  -30.4240   16.0208 C   0  0  0  0  0  0  0  0  0  0  0  0
  -23.0767   -9.8617   19.9361 C   0  0  0  0  0  0  0  0  0  0  0  0
  -23.8384   -9.8650   22.2289 C   0  0  0  0  0  0  0  0  0  0  0  0
  -31.1125  -32.0168   14.7650 C   0  0  0  0  0  0  0  0  0  0  0  0
  -31.2509  -29.9404   16.6132 C   0  0  0  0  0  0  0  0  0  0  0  0
  -31.0886  -24.8804   16.7361 C   0  0  0  0  0  0  0  0  0  0  0  0
  -22.3372   -8.7052   20.1834 C   0  0  0  0  0  0  0  0  0  0  0  0
  -23.0989   -8.7085   22.4762 C   0  0  0  0  0  0  0  0  0  0  0  0
  -31.8439  -24.2428   17.7193 C   0  0  0  0  0  0  0  0  0  0  0  0
  -19.8742   -7.8973   23.0791 C   0  0  0  0  0  0  0  0  0  0  0  0
  -19.1183   -7.8513   24.2505 C   0  0  0  0  0  0  0  0  0  0  0  0
  -31.7710  -17.5736   21.7178 C   0  0  0  0  0  0  0  0  0  0  0  0
  -29.8572  -23.9704   19.0602 C   0  0  0  0  0  0  0  0  0  0  0  0
  -20.3673   -5.9163   24.9805 C   0  0  0  0  0  0  0  0  0  0  0  0
  -30.7065  -19.1220   23.0859 C   0  0  0  0  0  0  0  0  0  0  0  0
  -23.8274  -10.4416   20.9588 C   0  0  0  0  0  0  0  0  0  0  0  0
  -31.8546  -18.8312   22.3824 C   0  0  0  0  0  0  0  0  0  0  0  0
  -24.1599  -12.9683   20.8456 C   0  0  0  0  0  0  0  0  0  0  0  0
  -29.9298  -31.5333   15.3463 C   0  0  0  0  0  0  0  0  0  0  0  0
  -29.7115  -25.0779   16.9127 C   0  0  0  0  0  0  0  0  0  0  0  0
  -29.9988  -30.4899   16.2892 C   0  0  0  0  0  0  0  0  0  0  0  0
  -29.0862  -24.6085   18.0766 C   0  0  0  0  0  0  0  0  0  0  0  0
  -22.3483   -8.1286   21.4535 C   0  0  0  0  0  0  0  0  0  0  0  0
  -31.2288  -23.7903   18.8829 C   0  0  0  0  0  0  0  0  0  0  0  0
  -20.8766   -6.9527   22.8584 C   0  0  0  0  0  0  0  0  0  0  0  0
  -19.3649   -6.8609   25.2012 C   0  0  0  0  0  0  0  0  0  0  0  0
  -21.1232   -5.9623   23.8091 C   0  0  0  0  0  0  0  0  0  0  0  0
  -24.5919  -11.6360   20.7038 C   0  0  0  0  0  0  0  0  0  0  0  0
  -25.2491  -13.7228   20.4836 C   0  0  0  0  0  0  0  0  0  0  0  0
  -30.5621  -16.9511   21.9388 C   0  0  0  0  0  0  0  0  0  0  0  0
  -32.1391  -20.8575   20.3373 C   0  0  0  0  0  0  0  0  0  0  0  0
  -33.0320  -19.7157   22.3231 C   0  0  0  0  0  0  0  0  0  0  0  0
  -22.8879  -13.4783   21.2670 C   0  0  0  0  0  0  0  0  0  0  0  0
  -27.8176  -27.6229   17.1112 C   0  0  0  0  0  0  0  0  0  0  0  0
  -25.4666  -25.3879   17.1180 C   0  0  0  0  0  0  0  0  0  0  0  0
  -24.5342  -22.1657   17.7462 C   0  0  0  0  0  0  0  0  0  0  0  0
  -30.7116  -14.7876   20.6569 C   0  0  0  0  0  0  0  0  0  0  0  0
  -28.6225  -32.1962   14.9910 C   0  0  0  0  0  0  0  0  0  0  0  0
  -28.9061  -25.7436   15.8308 C   0  0  0  0  0  0  0  0  0  0  0  0
  -27.6073  -24.7777   18.3056 C   0  0  0  0  0  0  0  0  0  0  0  0
  -27.3968  -31.3751   15.3832 C   0  0  0  0  0  0  0  0  0  0  0  0
  -29.6040  -12.3766   18.2826 C   0  0  0  0  0  0  0  0  0  0  0  0
  -27.5397  -30.8498   16.8081 C   0  0  0  0  0  0  0  0  0  0  0  0
  -28.1657  -12.0786   18.7125 C   0  0  0  0  0  0  0  0  0  0  0  0
  -34.1273  -22.0409   19.8065 C   0  0  0  0  0  0  0  0  0  0  0  0
  -30.5192  -12.6052   19.4841 C   0  0  0  0  0  0  0  0  0  0  0  0
  -34.2422  -21.5601   21.2509 C   0  0  0  0  0  0  0  0  0  0  0  0
  -28.6108  -13.3188   20.8690 C   0  0  0  0  0  0  0  0  0  0  0  0
  -28.7537  -29.9215   16.9347 C   0  0  1  0  0  0  0  0  0  0  0  0
  -32.6360  -21.9845   19.4736 C   0  0  2  0  0  0  0  0  0  1  0  0
  -27.6031  -26.3495   16.3430 C   0  0  1  0  0  0  0  0  0  0  0  0
  -27.6376  -13.1454   19.6915 C   0  0  2  0  0  0  0  0  0  0  0  0
  -22.5374  -20.6467   17.6922 C   0  0  0  0  0  0  0  0  0  0  0  0
  -24.4174  -26.6803   19.6751 C   0  0  0  0  0  0  0  0  0  0  0  0
  -23.0612  -24.6150   20.0796 C   0  0  0  0  0  0  0  0  0  0  0  0
  -22.6452  -26.0000   18.0470 C   0  0  0  0  0  0  0  0  0  0  0  0
  -25.8067  -20.3724   15.7654 C   0  0  0  0  0  0  0  0  0  0  0  0
  -24.7450  -24.5986   18.1834 C   0  0  1  0  0  0  0  0  0  0  0  0
  -23.7407  -21.1678   16.9221 C   0  0  2  0  0  0  0  0  0  0  0  0
  -23.7454  -25.4719   18.9931 C   0  0  0  0  0  0  0  0  0  0  0  0
  -25.8568  -11.5459   20.2843 N   0  0  0  0  0  0  0  0  0  0  0  0
  -26.2289  -12.8312   20.1592 N   0  0  0  0  0  0  0  0  0  0  0  0
  -33.1131  -20.6253   21.3682 N   0  0  0  0  0  0  0  0  0  0  0  0
  -26.8639  -25.4404   17.2213 N   0  0  0  0  0  0  0  0  0  0  0  0
  -29.9573  -13.6315   20.3649 N   0  0  0  0  0  0  0  0  0  0  0  0
  -25.4546  -15.0552   20.4141 N   0  0  0  0  0  0  0  0  0  0  0  0
  -21.8796  -12.5646   21.6026 N   0  0  0  0  0  0  0  0  0  0  0  0
  -30.0616  -15.7079   21.4785 N   0  0  0  0  0  0  0  0  0  0  0  0
  -28.4508  -28.6160   16.3885 N   0  0  0  0  0  0  0  0  0  0  0  0
  -24.1317  -23.4622   17.5045 N   0  0  0  0  0  0  0  0  0  0  0  0
  -33.9934  -19.5857   23.2326 N   0  3  0  0  0  0  0  0  0  0  0  0
  -24.5978  -20.0074   16.5479 N   0  3  0  0  0  0  0  0  0  0  0  0
  -31.0840  -20.2548   20.2545 O   0  0  0  0  0  0  0  0  0  0  0  0
  -22.6473  -14.7079   21.3280 O   0  0  0  0  0  0  0  0  0  0  0  0
  -27.4356  -27.6993   18.2730 O   0  0  0  0  0  0  0  0  0  0  0  0
  -24.8151  -25.9318   16.2228 O   0  0  0  0  0  0  0  0  0  0  0  0
  -25.4196  -21.8285   18.5289 O   0  0  0  0  0  0  0  0  0  0  0  0
  -31.8397  -14.9617   20.1888 O   0  0  0  0  0  0  0  0  0  0  0  0
  -21.6266   -7.0002   21.6952 O   0  0  0  0  0  0  0  0  0  0  0  0
  -31.9638  -23.1682   19.8444 O   0  0  0  0  0  0  0  0  0  1  0  0
  -18.6400   -6.8178   26.3268 F   0  0  0  0  0  0  0  0  0  0  0  0
  -22.0856   -5.0528   23.6031 F   0  0  0  0  0  0  0  0  0  0  0  0
  -29.5343  -17.8818   22.9436 S   0  0  0  0  0  0  0  0  0  0  0  0
  1  2  1  0  0  0  0
  1  5  2  0  0  0  0
  2  6  2  0  0  0  0
  3  8  2  0  0  0  0
  3 17  1  0  0  0  0
  4  9  1  0  0  0  0
  4 17  2  0  0  0  0
  5 20  1  0  0  0  0
  6 22  1  0  0  0  0
  7 10  2  0  0  0  0
  7 21  1  0  0  0  0
  8 24  1  0  0  0  0
  9 24  2  0  0  0  0
 10 25  1  0  0  0  0
 11 12  2  0  0  0  0
 11 26  1  0  0  0  0
 12 27  1  0  0  0  0
 13 18  1  0  0  0  0
 13 31  2  0  0  0  0
 14 23  1  0  0  0  0
 14 25  2  0  0  0  0
 15 27  2  0  0  0  0
 15 28  1  0  0  0  0
 16 18  2  0  0  0  0
 16 84  1  0  0  0  0
 17 29  1  0  0  0  0
 18 33  1  0  0  0  0
 19 29  1  0  0  0  0
 19 30  2  0  0  0  0
 19 34  1  0  0  0  0
 20 22  2  0  0  0  0
 20 39  1  0  0  0  0
 21 23  2  0  0  0  0
 21 40  1  0  0  0  0
 22 50  1  0  0  0  0
 23 41  1  0  0  0  0
 24 80  1  0  0  0  0
 25 81  1  0  0  0  0
 26 28  2  0  0  0  0
 26 80  1  0  0  0  0
 27 82  1  0  0  0  0
 28 83  1  0  0  0  0
 29 62  2  0  0  0  0
 30 63  1  0  0  0  0
 30 67  1  0  0  0  0
 31 69  1  0  0  0  0
 31 84  1  0  0  0  0
 32 51  1  0  0  0  0
 32 64  1  0  0  0  0
 32 74  2  0  0  0  0
 33 64  1  0  0  0  0
 33 72  2  0  0  0  0
 34 68  1  0  0  0  0
 34 75  2  0  0  0  0
 35 52  1  0  0  0  0
 35 70  1  0  0  0  0
 35 76  2  0  0  0  0
 36 59  1  0  0  0  0
 36 65  1  0  0  0  0
 36 77  2  0  0  0  0
 37 60  1  0  0  0  0
 37 71  1  0  0  0  0
 37 78  2  0  0  0  0
 38 66  1  0  0  0  0
 38 69  1  0  0  0  0
 38 79  2  0  0  0  0
 39 42  1  0  0  0  0
 40 52  1  0  0  0  0
 41 65  1  0  0  0  0
 42 44  1  0  0  0  0
 43 45  1  0  0  0  0
 43 47  1  0  0  0  0
 44 50  1  0  0  0  0
 45 53  1  0  0  0  0
 46 48  1  0  0  0  0
 46 51  1  0  0  0  0
 47 66  1  0  0  0  0
 48 64  1  0  0  0  0
 49 53  1  0  0  0  0
 49 66  1  0  0  0  0
 50 70  1  0  0  0  0
 51 81  1  0  0  0  0
 52 65  1  0  0  0  0
 53 63  1  0  0  0  0
 54 60  1  0  0  0  0
 55 61  1  0  0  0  0
 56 61  1  0  0  0  0
 57 61  1  0  0  0  0
 58 73  1  0  0  0  0
 59 61  1  0  0  0  0
 59 71  1  0  0  0  0
 60 73  1  0  0  0  0
 62 63  1  0  0  0  0
M  CHG  2  72   1  73   1
M  ISO  4  38 100  51 101  69 100  81 101
M  END
> <Batch ID>
0151

> <Smiles>
CNC(C)C(=O)NC(C(=O)N1Cc2cc([101O:1][101CH:1]3CCN(C(=N)c4csc([100NH:0][100C:0](=O)N5CCCC(n6nc(-c7ccc(Oc8ccc(F)cc8F)cc7)c(C(N)=O)c6N)C5)c4)C3=O)ccc2CC1C(=O)NC1CCCc2ccccc21)C(C)(C)C

> <Shape>
0.212

> <Color>
0.189

> <Negative vol penalty>
0.000

$$$$

  -OEChem-04052303243D

 85 94  0     1  0  0  0  0  0999 V2000
  -15.8553  -27.5986   20.7254 C   0  0  0  0  0  0  0  0  0  0  0  0
  -16.9489  -27.4406   19.8801 C   0  0  0  0  0  0  0  0  0  0  0  0
  -26.5060  -13.5003   21.8882 C   0  0  0  0  0  0  0  0  0  0  0  0
  -24.8754  -15.1816   21.2952 C   0  0  0  0  0  0  0  0  0  0  0  0
  -16.0483  -28.0100   22.0435 C   0  0  0  0  0  0  0  0  0  0  0  0
  -18.2361  -27.6949   20.3522 C   0  0  0  0  0  0  0  0  0  0  0  0
  -25.0072  -25.4921   19.5671 C   0  0  0  0  0  0  0  0  0  0  0  0
  -25.4793  -12.5821   22.1079 C   0  0  0  0  0  0  0  0  0  0  0  0
  -23.8487  -14.2633   21.5148 C   0  0  0  0  0  0  0  0  0  0  0  0
  -26.2805  -25.9964   19.3061 C   0  0  0  0  0  0  0  0  0  0  0  0
  -23.4599  -10.6106   20.2455 C   0  0  0  0  0  0  0  0  0  0  0  0
  -23.6167   -9.3261   19.7248 C   0  0  0  0  0  0  0  0  0  0  0  0
  -31.5174  -23.8072   17.2889 C   0  0  0  0  0  0  0  0  0  0  0  0
  -30.8237  -22.6351   17.6738 C   0  0  0  0  0  0  0  0  0  0  0  0
  -26.4998  -26.6257   21.6246 C   0  0  0  0  0  0  0  0  0  0  0  0
  -23.4630   -8.4042   21.9527 C   0  0  0  0  0  0  0  0  0  0  0  0
  -26.2040  -14.8002   21.4819 C   0  0  0  0  0  0  0  0  0  0  0  0
  -28.3194  -15.6404   20.3299 C   0  0  0  0  0  0  0  0  0  0  0  0
  -17.3393  -28.2602   22.5348 C   0  0  0  0  0  0  0  0  0  0  0  0
  -24.4653  -25.5607   20.8587 C   0  0  0  0  0  0  0  0  0  0  0  0
  -18.4464  -28.1114   21.6777 C   0  0  0  0  0  0  0  0  0  0  0  0
  -25.2205  -26.1192   21.8999 C   0  0  0  0  0  0  0  0  0  0  0  0
  -24.1507  -12.9635   21.9212 C   0  0  0  0  0  0  0  0  0  0  0  0
  -27.0259  -26.5659   20.3343 C   0  0  0  0  0  0  0  0  0  0  0  0
  -23.3048  -10.7919   21.6199 C   0  0  0  0  0  0  0  0  0  0  0  0
  -23.6182   -8.2229   20.5784 C   0  0  0  0  0  0  0  0  0  0  0  0
  -23.3063   -9.6887   22.4734 C   0  0  0  0  0  0  0  0  0  0  0  0
  -27.2641  -15.7494   21.2553 C   0  0  0  0  0  0  0  0  0  0  0  0
  -31.4979  -24.6396   18.3837 C   0  0  0  0  0  0  0  0  0  0  0  0
  -29.0490  -16.7910   20.5041 C   0  0  0  0  0  0  0  0  0  0  0  0
  -30.4300  -22.8347   18.9765 C   0  0  0  0  0  0  0  0  0  0  0  0
  -28.6137  -14.5929   19.3962 C   0  0  0  0  0  0  0  0  0  0  0  0
  -21.9282  -26.9701   22.1548 C   0  0  0  0  0  0  0  0  0  0  0  0
  -22.8502  -25.3263   24.7949 C   0  0  0  0  0  0  0  0  0  0  0  0
  -25.3599  -23.7831   26.5173 C   0  0  0  0  0  0  0  0  0  0  0  0
  -29.3540  -22.3079   21.1926 C   0  0  0  0  0  0  0  0  0  0  0  0
  -17.4942  -28.7487   23.9533 C   0  0  0  0  0  0  0  0  0  0  0  0
  -23.1011  -24.9880   21.1294 C   0  0  0  0  0  0  0  0  0  0  0  0
  -24.6924  -26.1986   23.3082 C   0  0  0  0  0  0  0  0  0  0  0  0
  -18.9211  -28.6361   24.4838 C   0  0  0  0  0  0  0  0  0  0  0  0
  -28.7958  -20.3385   24.1059 C   0  0  0  0  0  0  0  0  0  0  0  0
  -19.9158  -29.1692   23.4575 C   0  0  0  0  0  0  0  0  0  0  0  0
  -30.7278  -27.5008   17.2475 C   0  0  0  0  0  0  0  0  0  0  0  0
  -28.4344  -18.9600   23.5478 C   0  0  0  0  0  0  0  0  0  0  0  0
  -32.1552  -26.9919   17.4375 C   0  0  0  0  0  0  0  0  0  0  0  0
  -31.1570  -26.8756   19.5825 C   0  0  0  0  0  0  0  0  0  0  0  0
  -28.2309  -21.4655   23.2430 C   0  0  0  0  0  0  0  0  0  0  0  0
  -28.2081  -20.0061   21.2584 C   0  0  0  0  0  0  0  0  0  0  0  0
  -19.8602  -28.3537   22.1600 C   0  0  1  0  0  0  0  0  0  0  0  0
  -22.4427  -25.5755   22.3739 C   0  0  1  0  0  0  0  0  0  0  0  0
  -30.1384  -27.5788   18.6638 C   0  0  2  0  0  0  0  0  0  0  0  0
  -28.8100  -18.8390   22.0579 C   0  0  2  0  0  0  0  0  0  0  0  0
  -32.0564  -26.0389   18.6442 C   0  0  1  0  0  0  0  0  0  0  0  0
  -26.4521  -22.4265   28.3240 C   0  0  0  0  0  0  0  0  0  0  0  0
  -22.8147  -27.9774   26.3049 C   0  0  0  0  0  0  0  0  0  0  0  0
  -24.1595  -26.8859   28.1127 C   0  0  0  0  0  0  0  0  0  0  0  0
  -21.8749  -26.0399   27.5766 C   0  0  0  0  0  0  0  0  0  0  0  0
  -24.8740  -21.2486   25.0685 C   0  0  0  0  0  0  0  0  0  0  0  0
  -33.4079  -25.2733   20.6005 C   0  0  0  0  0  0  0  0  0  0  0  0
  -34.4193  -25.2933   18.3252 C   0  0  0  0  0  0  0  0  0  0  0  0
  -28.7469  -26.9610   18.7413 C   0  0  0  0  0  0  0  0  0  1  0  0
  -23.7692  -25.6034   25.9601 C   0  0  1  0  0  0  0  0  0  0  0  0
  -25.4288  -22.4284   27.1990 C   0  0  2  0  0  0  0  0  0  0  0  0
  -23.1640  -26.6271   26.9618 C   0  0  0  0  0  0  0  0  0  0  0  0
  -27.3153  -16.8798   21.9649 N   0  0  0  0  0  0  0  0  0  0  0  0
  -28.4114  -17.4917   21.4853 N   0  0  0  0  0  0  0  0  0  0  0  0
  -23.3509  -25.6308   23.5212 N   0  0  0  0  0  0  0  0  0  0  0  0
  -28.6311  -21.2871   21.8456 N   0  0  0  0  0  0  0  0  0  0  0  0
  -30.1673  -17.2615   19.9121 N   0  0  0  0  0  0  0  0  0  0  0  0
  -28.0626  -14.6701   18.1099 N   0  0  0  0  0  0  0  0  0  0  0  0
  -29.7078  -22.0124   19.8765 N   0  0  0  0  0  0  0  0  0  0  0  0
  -20.5624  -27.0986   22.3214 N   0  0  0  0  0  0  0  0  0  0  0  0
  -24.0845  -24.3063   26.5487 N   0  0  0  0  0  0  0  0  0  0  0  0
  -25.8078  -21.3732   26.2172 N   0  3  0  0  0  0  0  0  0  0  0  0
  -33.4268  -25.9431   19.2522 N   0  3  0  0  0  0  0  0  0  0  0  0
  -29.3303  -13.6089   19.6990 O   0  0  0  0  0  0  0  0  0  0  0  0
  -22.7124  -27.8638   21.8582 O   0  0  0  0  0  0  0  0  0  0  0  0
  -21.7320  -24.8503   25.0065 O   0  0  0  0  0  0  0  0  0  0  0  0
  -26.3402  -24.3247   26.0112 O   0  0  0  0  0  0  0  0  0  0  0  0
  -29.6617  -23.3549   21.7678 O   0  0  0  0  0  0  0  0  0  0  0  0
  -30.8371  -24.0542   19.4167 O   0  0  0  0  0  0  0  0  0  0  0  0
  -23.1486  -12.0677   22.1352 O   0  0  0  0  0  0  0  0  0  0  0  0
  -28.2687  -27.0595   20.0822 O   0  0  0  0  0  0  0  0  0  1  0  0
  -23.7672   -6.9894   20.0780 F   0  0  0  0  0  0  0  0  0  0  0  0
  -23.1565   -9.8565   23.7945 F   0  0  0  0  0  0  0  0  0  0  0  0
  1  2  1  0  0  0  0
  1  5  2  0  0  0  0
  2  6  2  0  0  0  0
  3  8  2  0  0  0  0
  3 17  1  0  0  0  0
  4  9  1  0  0  0  0
  4 17  2  0  0  0  0
  5 19  1  0  0  0  0
  6 21  1  0  0  0  0
  7 10  2  0  0  0  0
  7 20  1  0  0  0  0
  8 23  1  0  0  0  0
  9 23  2  0  0  0  0
 10 24  1  0  0  0  0
 11 12  2  0  0  0  0
 11 25  1  0  0  0  0
 12 26  1  0  0  0  0
 13 14  1  0  0  0  0
 13 29  2  0  0  0  0
 14 31  2  0  0  0  0
 15 22  1  0  0  0  0
 15 24  2  0  0  0  0
 16 26  2  0  0  0  0
 16 27  1  0  0  0  0
 17 28  1  0  0  0  0
 18 28  1  0  0  0  0
 18 30  2  0  0  0  0
 18 32  1  0  0  0  0
 19 21  2  0  0  0  0
 19 37  1  0  0  0  0
 20 22  2  0  0  0  0
 20 38  1  0  0  0  0
 21 49  1  0  0  0  0
 22 39  1  0  0  0  0
 23 82  1  0  0  0  0
 24 83  1  0  0  0  0
 25 27  2  0  0  0  0
 25 82  1  0  0  0  0
 26 84  1  0  0  0  0
 27 85  1  0  0  0  0
 28 65  2  0  0  0  0
 29 53  1  0  0  0  0
 29 81  1  0  0  0  0
 30 66  1  0  0  0  0
 30 69  1  0  0  0  0
 31 71  1  0  0  0  0
 31 81  1  0  0  0  0
 32 70  1  0  0  0  0
 32 76  2  0  0  0  0
 33 50  1  0  0  0  0
 33 72  1  0  0  0  0
 33 77  2  0  0  0  0
 34 62  1  0  0  0  0
 34 67  1  0  0  0  0
 34 78  2  0  0  0  0
 35 63  1  0  0  0  0
 35 73  1  0  0  0  0
 35 79  2  0  0  0  0
 36 68  1  0  0  0  0
 36 71  1  0  0  0  0
 36 80  2  0  0  0  0
 37 40  1  0  0  0  0
 38 50  1  0  0  0  0
 39 67  1  0  0  0  0
 40 42  1  0  0  0  0
 41 44  1  0  0  0  0
 41 47  1  0  0  0  0
 42 49  1  0  0  0  0
 43 45  1  0  0  0  0
 43 51  1  0  0  0  0
 44 52  1  0  0  0  0
 45 53  1  0  0  0  0
 46 51  1  0  0  0  0
 46 53  1  0  0  0  0
 47 68  1  0  0  0  0
 48 52  1  0  0  0  0
 48 68  1  0  0  0  0
 49 72  1  0  0  0  0
 50 67  1  0  0  0  0
 51 61  1  0  0  0  0
 52 66  1  0  0  0  0
 53 75  1  0  0  0  0
 54 63  1  0  0  0  0
 55 64  1  0  0  0  0
 56 64  1  0  0  0  0
 57 64  1  0  0  0  0
 58 74  1  0  0  0  0
 59 75  1  0  0  0  0
 60 75  1  0  0  0  0
 61 83  1  0  0  0  0
 62 64  1  0  0  0  0
 62 73  1  0  0  0  0
 63 74  1  0  0  0  0
 65 66  1  0  0  0  0
M  CHG  2  74   1  75   1
M  ISO  4  36 100  61 101  71 100  83 101
M  END
> <Batch ID>
0151

> <Smiles>
CNC(C)C(=O)NC(C(=O)N1Cc2cc([101O:1][101CH2:1]C3CCC(c4ccc([100NH:0][100C:0](=O)N5CCCC(n6nc(-c7ccc(Oc8ccc(F)cc8F)cc7)c(C(N)=O)c6N)C5)o4)(N(C)C)C3)ccc2CC1C(=O)NC1CCCc2ccccc21)C(C)(C)C

> <Shape>
0.224

> <Color>
0.060

> <Negative vol penalty>
0.000

$$$$

  -OEChem-04052303243D

 84 93  0     1  0  0  0  0  0999 V2000
  -27.2288  -37.5250   23.4077 C   0  0  0  0  0  0  0  0  0  0  0  0
  -27.7377  -36.6322   22.4700 C   0  0  0  0  0  0  0  0  0  0  0  0
  -24.7450   -9.3064   21.3951 C   0  0  0  0  0  0  0  0  0  0  0  0
  -23.2505  -11.1928   21.1830 C   0  0  0  0  0  0  0  0  0  0  0  0
  -26.5647  -37.0458   24.5361 C   0  0  0  0  0  0  0  0  0  0  0  0
  -27.5838  -35.2594   22.6608 C   0  0  0  0  0  0  0  0  0  0  0  0
  -26.6786  -29.1787   18.9836 C   0  0  0  0  0  0  0  0  0  0  0  0
  -23.8891   -8.7341   22.3360 C   0  0  0  0  0  0  0  0  0  0  0  0
  -22.3945  -10.6205   22.1239 C   0  0  0  0  0  0  0  0  0  0  0  0
  -27.2264  -27.9025   18.8609 C   0  0  0  0  0  0  0  0  0  0  0  0
  -20.9831   -7.0054   22.3337 C   0  0  0  0  0  0  0  0  0  0  0  0
  -20.6954   -5.6465   22.2063 C   0  0  0  0  0  0  0  0  0  0  0  0
  -25.9920  -27.1920   20.8078 C   0  0  0  0  0  0  0  0  0  0  0  0
  -21.6290   -5.2434   24.3979 C   0  0  0  0  0  0  0  0  0  0  0  0
  -24.4257  -10.5358   20.8186 C   0  0  0  0  0  0  0  0  0  0  0  0
  -25.2811  -10.9484   18.4509 C   0  0  0  0  0  0  0  0  0  0  0  0
  -26.3941  -35.6669   24.7359 C   0  0  0  0  0  0  0  0  0  0  0  0
  -25.7903  -29.4746   20.0276 C   0  0  0  0  0  0  0  0  0  0  0  0
  -26.9180  -34.7613   23.7936 C   0  0  0  0  0  0  0  0  0  0  0  0
  -25.4324  -28.4719   20.9401 C   0  0  0  0  0  0  0  0  0  0  0  0
  -22.7138   -9.3911   22.7004 C   0  0  0  0  0  0  0  0  0  0  0  0
  -26.8854  -26.9097   19.7747 C   0  0  0  0  0  0  0  0  0  0  0  0
  -21.5939   -7.4833   23.4932 C   0  0  0  0  0  0  0  0  0  0  0  0
  -21.0183   -4.7655   23.2384 C   0  0  0  0  0  0  0  0  0  0  0  0
  -21.9168   -6.6023   24.5253 C   0  0  0  0  0  0  0  0  0  0  0  0
  -25.3098  -11.1278   19.8469 C   0  0  0  0  0  0  0  0  0  0  0  0
  -26.1909  -20.4575   19.4383 C   0  0  0  0  0  0  0  0  0  0  0  0
  -27.5560  -20.6320   19.5285 C   0  0  0  0  0  0  0  0  0  0  0  0
  -26.3182  -11.7187   17.9844 C   0  0  0  0  0  0  0  0  0  0  0  0
  -27.4848  -18.4543   19.7785 C   0  0  0  0  0  0  0  0  0  0  0  0
  -24.3962  -10.1564   17.6477 C   0  0  0  0  0  0  0  0  0  0  0  0
  -25.8114  -31.4865   22.4884 C   0  0  0  0  0  0  0  0  0  0  0  0
  -22.7761  -30.4146   22.8892 C   0  0  0  0  0  0  0  0  0  0  0  0
  -20.4852  -27.9393   22.3683 C   0  0  0  0  0  0  0  0  0  0  0  0
  -29.0993  -16.5527   20.1299 C   0  0  0  0  0  0  0  0  0  0  0  0
  -25.7107  -35.1949   25.9948 C   0  0  0  0  0  0  0  0  0  0  0  0
  -25.1874  -30.8487   20.1304 C   0  0  0  0  0  0  0  0  0  0  0  0
  -24.4675  -28.7328   22.0668 C   0  0  0  0  0  0  0  0  0  0  0  0
  -25.2616  -33.7372   25.9342 C   0  0  0  0  0  0  0  0  0  0  0  0
  -30.5945  -13.4315   19.2935 C   0  0  0  0  0  0  0  0  0  0  0  0
  -26.3790  -32.8568   25.3836 C   0  0  0  0  0  0  0  0  0  0  0  0
  -29.4058  -12.4715   19.2075 C   0  0  0  0  0  0  0  0  0  0  0  0
  -29.5587  -23.7022   19.9398 C   0  0  0  0  0  0  0  0  0  0  0  0
  -30.4124  -14.4613   20.4071 C   0  0  0  0  0  0  0  0  0  0  0  0
  -29.4304  -22.1890   20.1118 C   0  0  0  0  0  0  0  0  0  0  0  0
  -27.9615  -14.2504   20.2736 C   0  0  0  0  0  0  0  0  0  0  0  0
  -27.6487  -22.9927   18.6783 C   0  0  0  0  0  0  0  0  0  0  0  0
  -26.7494  -33.2659   23.9529 C   0  0  1  0  0  0  0  0  0  0  0  0
  -24.6915  -31.1801   21.5346 C   0  0  1  0  0  0  0  0  0  0  0  0
  -28.0696  -13.2352   19.1242 C   0  0  2  0  0  0  0  0  0  0  0  0
  -28.8185  -23.9968   18.6270 C   0  0  2  0  0  0  0  0  0  0  0  0
  -25.1118  -21.4456   19.2334 C   0  0  0  0  0  0  0  0  0  0  0  0
  -29.7212  -23.7237   17.4118 C   0  0  0  0  0  0  0  0  0  0  0  0
  -18.0974  -27.3328   22.8460 C   0  0  0  0  0  0  0  0  0  0  0  0
  -23.5233  -29.7544   25.7729 C   0  0  0  0  0  0  0  0  0  0  0  0
  -21.4742  -28.3216   25.9023 C   0  0  0  0  0  0  0  0  0  0  0  0
  -21.2565  -30.7721   25.4894 C   0  0  0  0  0  0  0  0  0  0  0  0
  -19.8207  -27.8082   19.4873 C   0  0  0  0  0  0  0  0  0  0  0  0
  -28.3218  -25.4426   18.5746 C   0  0  0  0  0  0  0  0  0  1  0  0
  -22.1352  -29.2782   23.6486 C   0  0  1  0  0  0  0  0  0  0  0  0
  -19.0558  -27.9807   21.8588 C   0  0  2  0  0  0  0  0  0  0  0  0
  -22.1170  -29.5269   25.1833 C   0  0  0  0  0  0  0  0  0  0  0  0
  -26.2877  -11.9476   20.2415 N   0  0  0  0  0  0  0  0  0  0  0  0
  -28.2996  -19.4845   19.7240 N   0  0  0  0  0  0  0  0  0  0  0  0
  -26.8832  -12.2901   19.0864 N   0  0  0  0  0  0  0  0  0  0  0  0
  -28.1787  -21.8593   19.4366 N   0  0  3  0  0  0  0  0  0  0  0  0
  -23.9097  -30.0939   22.1289 N   0  0  0  0  0  0  0  0  0  0  0  0
  -29.1272  -15.1481   20.2610 N   0  0  0  0  0  0  0  0  0  0  0  0
  -26.7929  -11.9561   16.7431 N   0  0  0  0  0  0  0  0  0  0  0  0
  -23.3854   -9.4267   18.2882 N   0  0  0  0  0  0  0  0  0  0  0  0
  -27.8237  -17.0911   19.9646 N   0  0  0  0  0  0  0  0  0  0  0  0
  -25.7693  -32.7638   23.0139 N   0  0  0  0  0  0  0  0  0  0  0  0
  -20.8147  -29.0865   23.0587 N   0  0  0  0  0  0  0  0  0  0  0  0
  -18.9485  -27.2610   20.5582 N   0  3  0  0  0  0  0  0  0  0  0  0
  -24.5089  -10.0846   16.4004 O   0  0  0  0  0  0  0  0  0  0  0  0
  -26.6507  -30.6271   22.7308 O   0  0  0  0  0  0  0  0  0  0  0  0
  -22.2848  -31.5438   22.9619 O   0  0  0  0  0  0  0  0  0  0  0  0
  -21.2333  -26.9833   22.1765 O   0  0  0  0  0  0  0  0  0  0  0  0
  -30.1334  -17.2256   20.1346 O   0  0  0  0  0  0  0  0  0  0  0  0
  -21.8783   -8.8328   23.6184 O   0  0  0  0  0  0  0  0  0  0  0  0
  -27.4192  -25.6634   19.6576 O   0  0  0  0  0  0  0  0  0  1  0  0
  -20.7404   -3.4609   23.1166 F   0  0  0  0  0  0  0  0  0  0  0  0
  -22.5026   -7.0557   25.6420 F   0  0  0  0  0  0  0  0  0  0  0  0
  -25.8118  -18.7929   19.6016 S   0  0  0  0  0  0  0  0  0  0  0  0
  1  2  1  0  0  0  0
  1  5  2  0  0  0  0
  2  6  2  0  0  0  0
  3  8  2  0  0  0  0
  3 15  1  0  0  0  0
  4  9  1  0  0  0  0
  4 15  2  0  0  0  0
  5 17  1  0  0  0  0
  6 19  1  0  0  0  0
  7 10  2  0  0  0  0
  7 18  1  0  0  0  0
  8 21  1  0  0  0  0
  9 21  2  0  0  0  0
 10 22  1  0  0  0  0
 11 12  2  0  0  0  0
 11 23  1  0  0  0  0
 12 24  1  0  0  0  0
 13 20  1  0  0  0  0
 13 22  2  0  0  0  0
 14 24  2  0  0  0  0
 14 25  1  0  0  0  0
 15 26  1  0  0  0  0
 16 26  1  0  0  0  0
 16 29  2  0  0  0  0
 16 31  1  0  0  0  0
 17 19  2  0  0  0  0
 17 36  1  0  0  0  0
 18 20  2  0  0  0  0
 18 37  1  0  0  0  0
 19 48  1  0  0  0  0
 20 38  1  0  0  0  0
 21 80  1  0  0  0  0
 22 81  1  0  0  0  0
 23 25  2  0  0  0  0
 23 80  1  0  0  0  0
 24 82  1  0  0  0  0
 25 83  1  0  0  0  0
 26 63  2  0  0  0  0
 27 28  2  0  0  0  0
 27 52  1  0  0  0  0
 27 84  1  0  0  0  0
 28 64  1  0  0  0  0
 28 66  1  0  0  0  0
 29 65  1  0  0  0  0
 29 69  1  0  0  0  0
 30 64  2  0  0  0  0
 30 71  1  0  0  0  0
 30 84  1  0  0  0  0
 31 70  1  0  0  0  0
 31 75  2  0  0  0  0
 32 49  1  0  0  0  0
 32 72  1  0  0  0  0
 32 76  2  0  0  0  0
 33 60  1  0  0  0  0
 33 67  1  0  0  0  0
 33 77  2  0  0  0  0
 34 61  1  0  0  0  0
 34 73  1  0  0  0  0
 34 78  2  0  0  0  0
 35 68  1  0  0  0  0
 35 71  1  0  0  0  0
 35 79  2  0  0  0  0
 36 39  1  0  0  0  0
 37 49  1  0  0  0  0
 38 67  1  0  0  0  0
 39 41  1  0  0  0  0
 40 42  1  0  0  0  0
 40 44  1  0  0  0  0
 41 48  1  0  0  0  0
 42 50  1  0  0  0  0
 43 45  1  0  0  0  0
 43 51  1  0  0  0  0
 44 68  1  0  0  0  0
 45 66  1  0  0  0  0
 46 50  1  0  0  0  0
 46 68  1  0  0  0  0
 47 51  1  0  0  0  0
 47 66  1  0  0  0  0
 48 72  1  0  0  0  0
 49 67  1  0  0  0  0
 50 65  1  0  0  0  0
 51 53  1  0  0  0  0
 51 59  1  0  0  0  0
 54 61  1  0  0  0  0
 55 62  1  0  0  0  0
 56 62  1  0  0  0  0
 57 62  1  0  0  0  0
 58 74  1  0  0  0  0
 59 81  1  0  0  0  0
 60 62  1  0  0  0  0
 60 73  1  0  0  0  0
 61 74  1  0  0  0  0
 63 65  1  0  0  0  0
M  CHG  1  74   1
M  ISO  4  35 100  59 101  71 100  81 101
M  END
> <Batch ID>
0151

> <Smiles>
CNC(C)C(=O)NC(C(=O)N1Cc2cc([101O:1][101CH2:1]C3(C)CCN(c4nc([100NH:0][100C:0](=O)N5CCCC(n6nc(-c7ccc(Oc8ccc(F)cc8F)cc7)c(C(N)=O)c6N)C5)sc4C)C3)ccc2CC1C(=O)NC1CCCc2ccccc21)C(C)(C)C

> <Shape>
0.372

> <Color>
0.098

> <Negative vol penalty>
0.000

$$$$

  -OEChem-04052303243D

 87 96  0     1  0  0  0  0  0999 V2000
  -18.7096  -25.3369   20.2039 C   0  0  0  0  0  0  0  0  0  0  0  0
  -19.9359  -24.8352   20.6281 C   0  0  0  0  0  0  0  0  0  0  0  0
  -24.7007   -9.9824   21.8680 C   0  0  0  0  0  0  0  0  0  0  0  0
  -24.7550  -11.2600   23.9178 C   0  0  0  0  0  0  0  0  0  0  0  0
  -18.6107  -26.6582   19.7702 C   0  0  0  0  0  0  0  0  0  0  0  0
  -21.0643  -25.6544   20.6178 C   0  0  0  0  0  0  0  0  0  0  0  0
  -25.7015  -25.5838   24.6175 C   0  0  0  0  0  0  0  0  0  0  0  0
  -24.3934   -8.8314   22.5934 C   0  0  0  0  0  0  0  0  0  0  0  0
  -24.4477  -10.1090   24.6433 C   0  0  0  0  0  0  0  0  0  0  0  0
  -26.9695  -25.0060   24.5734 C   0  0  0  0  0  0  0  0  0  0  0  0
  -21.6682   -7.4582   24.0495 C   0  0  0  0  0  0  0  0  0  0  0  0
  -20.6527   -6.6361   23.5612 C   0  0  0  0  0  0  0  0  0  0  0  0
  -27.8921  -27.1030   23.8180 C   0  0  0  0  0  0  0  0  0  0  0  0
  -29.3009  -20.6612   20.2533 C   0  0  0  0  0  0  0  0  0  0  0  0
  -22.2203   -4.8064   23.3815 C   0  0  0  0  0  0  0  0  0  0  0  0
  -27.0885  -20.4749   20.9407 C   0  0  0  0  0  0  0  0  0  0  0  0
  -24.8816  -11.1967   22.5302 C   0  0  0  0  0  0  0  0  0  0  0  0
  -24.2931  -13.3107   21.2293 C   0  0  0  0  0  0  0  0  0  0  0  0
  -19.7364  -27.4969   19.7637 C   0  0  0  0  0  0  0  0  0  0  0  0
  -25.5172  -26.9248   24.2511 C   0  0  0  0  0  0  0  0  0  0  0  0
  -20.9806  -26.9878   20.1823 C   0  0  0  0  0  0  0  0  0  0  0  0
  -26.6212  -27.6962   23.8608 C   0  0  0  0  0  0  0  0  0  0  0  0
  -28.2593  -19.7934   20.6916 C   0  0  0  0  0  0  0  0  0  0  0  0
  -24.2669   -8.8947   23.9811 C   0  0  0  0  0  0  0  0  0  0  0  0
  -28.0646  -25.7648   24.1708 C   0  0  0  0  0  0  0  0  0  0  0  0
  -22.9598   -6.9545   24.2037 C   0  0  0  0  0  0  0  0  0  0  0  0
  -20.9287   -5.3102   23.2273 C   0  0  0  0  0  0  0  0  0  0  0  0
  -23.2358   -5.6286   23.8698 C   0  0  0  0  0  0  0  0  0  0  0  0
  -25.1997  -12.3860   21.7814 C   0  0  0  0  0  0  0  0  0  0  0  0
  -28.8863  -21.9731   20.1838 C   0  0  0  0  0  0  0  0  0  0  0  0
  -25.0891  -14.2516   20.6228 C   0  0  0  0  0  0  0  0  0  0  0  0
  -22.8598  -13.3187   21.2618 C   0  0  0  0  0  0  0  0  0  0  0  0
  -29.7457  -23.0924   19.7587 C   0  0  0  0  0  0  0  0  0  0  0  0
  -31.9446  -24.1278   23.9389 C   0  0  0  0  0  0  0  0  0  0  0  0
  -23.8680  -28.4249   21.9854 C   0  0  0  0  0  0  0  0  0  0  0  0
  -24.8609  -31.0788   23.5644 C   0  0  0  0  0  0  0  0  0  0  0  0
  -27.1451  -32.5271   25.6456 C   0  0  0  0  0  0  0  0  0  0  0  0
  -29.5255  -17.6162   20.6336 C   0  0  0  0  0  0  0  0  0  0  0  0
  -19.5902  -28.9042   19.2415 C   0  0  0  0  0  0  0  0  0  0  0  0
  -24.1472  -27.5407   24.3298 C   0  0  0  0  0  0  0  0  0  0  0  0
  -26.4799  -29.1457   23.4770 C   0  0  0  0  0  0  0  0  0  0  0  0
  -20.7555  -29.8167   19.6153 C   0  0  0  0  0  0  0  0  0  0  0  0
  -30.0578  -14.2340   19.6567 C   0  0  0  0  0  0  0  0  0  0  0  0
  -22.0860  -29.1179   19.3536 C   0  0  0  0  0  0  0  0  0  0  0  0
  -28.7668  -13.5278   20.0770 C   0  0  0  0  0  0  0  0  0  0  0  0
  -32.1304  -25.0614   21.6229 C   0  0  0  0  0  0  0  0  0  0  0  0
  -30.4640  -15.3154   20.6564 C   0  0  0  0  0  0  0  0  0  0  0  0
  -31.3366  -24.8740   20.3352 C   0  0  0  0  0  0  0  0  0  0  0  0
  -28.1274  -15.5928   21.3862 C   0  0  0  0  0  0  0  0  0  0  0  0
  -30.4335  -23.4202   22.0986 C   0  0  0  0  0  0  0  0  0  0  0  0
  -22.2222  -27.8526   20.2092 C   0  0  1  0  0  0  0  0  0  0  0  0
  -23.9936  -28.7717   23.4419 C   0  0  1  0  0  0  0  0  0  0  0  0
  -27.6430  -14.5392   20.3767 C   0  0  2  0  0  0  0  0  0  0  0  0
  -31.1771  -24.6027   22.7374 C   0  0  1  0  0  0  0  0  0  0  0  0
  -32.8542  -25.1281   24.5996 C   0  0  0  0  0  0  0  0  0  0  0  0
  -27.7145  -34.7199   26.7248 C   0  0  0  0  0  0  0  0  0  0  0  0
  -25.9438  -32.1048   20.9027 C   0  0  0  0  0  0  0  0  0  0  0  0
  -27.2964  -33.7813   22.1789 C   0  0  0  0  0  0  0  0  0  0  0  0
  -24.8055  -33.8363   22.3030 C   0  0  0  0  0  0  0  0  0  0  0  0
  -26.8490  -31.3978   28.3651 C   0  0  0  0  0  0  0  0  0  0  0  0
  -30.2147  -25.7164   23.1555 C   0  0  0  0  0  0  0  0  0  1  0  0
  -26.0645  -31.9860   23.4790 C   0  0  1  0  0  0  0  0  0  0  0  0
  -26.9756  -33.3994   26.8764 C   0  0  2  0  0  0  0  0  0  0  0  0
  -26.0302  -32.8993   22.2212 C   0  0  0  0  0  0  0  0  0  0  0  0
  -26.4740  -12.7099   21.5464 N   0  0  0  0  0  0  0  0  0  0  0  0
  -26.3739  -13.8487   20.8398 N   0  0  0  0  0  0  0  0  0  0  0  0
  -30.4530  -23.7468   20.6619 N   0  0  0  0  0  0  0  0  0  0  0  0
  -25.1190  -29.7006   23.5641 N   0  0  0  0  0  0  0  0  0  0  0  0
  -29.3515  -16.2393   20.8878 N   0  0  0  0  0  0  0  0  0  0  0  0
  -24.8083  -15.3759   19.9304 N   0  0  0  0  0  0  0  0  0  0  0  0
  -22.2008  -12.2764   21.9279 N   0  0  0  0  0  0  0  0  0  0  0  0
  -28.3890  -18.3923   20.8587 N   0  0  0  0  0  0  0  0  0  0  0  0
  -22.5694  -28.1983   21.5710 N   0  0  0  0  0  0  0  0  0  0  0  0
  -26.1190  -32.7119   24.7433 N   0  0  0  0  0  0  0  0  0  0  0  0
  -29.7969  -23.4247   18.4721 N   0  3  0  0  0  0  0  0  0  0  0  0
  -27.5033  -32.7013   28.0827 N   0  3  0  0  0  0  0  0  0  0  0  0
  -22.1830  -14.2144   20.7022 O   0  0  0  0  0  0  0  0  0  0  0  0
  -31.8332  -22.9785   24.3628 O   0  0  0  0  0  0  0  0  0  0  0  0
  -24.8745  -28.3684   21.2887 O   0  0  0  0  0  0  0  0  0  0  0  0
  -23.7337  -31.5747   23.6361 O   0  0  0  0  0  0  0  0  0  0  0  0
  -28.0950  -31.7613   25.4975 O   0  0  0  0  0  0  0  0  0  0  0  0
  -30.5953  -18.0694   20.2188 O   0  0  0  0  0  0  0  0  0  0  0  0
  -23.9667   -7.7718   24.6893 O   0  0  0  0  0  0  0  0  0  0  0  0
  -29.3033  -25.2031   24.1262 O   0  0  0  0  0  0  0  0  0  1  0  0
  -19.9530   -4.5204   22.7599 F   0  0  0  0  0  0  0  0  0  0  0  0
  -24.4744   -5.1388   24.0169 F   0  0  0  0  0  0  0  0  0  0  0  0
  -27.2475  -22.1543   20.6462 S   0  0  0  0  0  0  0  0  0  0  0  0
  1  2  1  0  0  0  0
  1  5  2  0  0  0  0
  2  6  2  0  0  0  0
  3  8  2  0  0  0  0
  3 17  1  0  0  0  0
  4  9  1  0  0  0  0
  4 17  2  0  0  0  0
  5 19  1  0  0  0  0
  6 21  1  0  0  0  0
  7 10  2  0  0  0  0
  7 20  1  0  0  0  0
  8 24  1  0  0  0  0
  9 24  2  0  0  0  0
 10 25  1  0  0  0  0
 11 12  2  0  0  0  0
 11 26  1  0  0  0  0
 12 27  1  0  0  0  0
 13 22  1  0  0  0  0
 13 25  2  0  0  0  0
 14 23  1  0  0  0  0
 14 30  2  0  0  0  0
 15 27  2  0  0  0  0
 15 28  1  0  0  0  0
 16 23  2  0  0  0  0
 16 87  1  0  0  0  0
 17 29  1  0  0  0  0
 18 29  1  0  0  0  0
 18 31  2  0  0  0  0
 18 32  1  0  0  0  0
 19 21  2  0  0  0  0
 19 39  1  0  0  0  0
 20 22  2  0  0  0  0
 20 40  1  0  0  0  0
 21 51  1  0  0  0  0
 22 41  1  0  0  0  0
 23 72  1  0  0  0  0
 24 83  1  0  0  0  0
 25 84  1  0  0  0  0
 26 28  2  0  0  0  0
 26 83  1  0  0  0  0
 27 85  1  0  0  0  0
 28 86  1  0  0  0  0
 29 65  2  0  0  0  0
 30 33  1  0  0  0  0
 30 87  1  0  0  0  0
 31 66  1  0  0  0  0
 31 70  1  0  0  0  0
 32 71  1  0  0  0  0
 32 77  2  0  0  0  0
 33 67  1  0  0  0  0
 33 75  2  0  0  0  0
 34 54  1  0  0  0  0
 34 55  1  0  0  0  0
 34 78  2  0  0  0  0
 35 52  1  0  0  0  0
 35 73  1  0  0  0  0
 35 79  2  0  0  0  0
 36 62  1  0  0  0  0
 36 68  1  0  0  0  0
 36 80  2  0  0  0  0
 37 63  1  0  0  0  0
 37 74  1  0  0  0  0
 37 81  2  0  0  0  0
 38 69  1  0  0  0  0
 38 72  1  0  0  0  0
 38 82  2  0  0  0  0
 39 42  1  0  0  0  0
 40 52  1  0  0  0  0
 41 68  1  0  0  0  0
 42 44  1  0  0  0  0
 43 45  1  0  0  0  0
 43 47  1  0  0  0  0
 44 51  1  0  0  0  0
 45 53  1  0  0  0  0
 46 48  1  0  0  0  0
 46 54  1  0  0  0  0
 47 69  1  0  0  0  0
 48 67  1  0  0  0  0
 49 53  1  0  0  0  0
 49 69  1  0  0  0  0
 50 54  1  0  0  0  0
 50 67  1  0  0  0  0
 51 73  1  0  0  0  0
 52 68  1  0  0  0  0
 53 66  1  0  0  0  0
 54 61  1  0  0  0  0
 56 63  1  0  0  0  0
 57 64  1  0  0  0  0
 58 64  1  0  0  0  0
 59 64  1  0  0  0  0
 60 76  1  0  0  0  0
 61 84  1  0  0  0  0
 62 64  1  0  0  0  0
 62 74  1  0  0  0  0
 63 76  1  0  0  0  0
 65 66  1  0  0  0  0
M  CHG  2  75   1  76   1
M  ISO  4  38 100  61 101  72 100  84 101
M  END
> <Batch ID>
0151

> <Smiles>
CNC(C)C(=O)NC(C(=O)N1Cc2cc([101O:1][101CH2:1]C3(C(C)=O)CCN(C(=N)c4cc([100NH:0][100C:0](=O)N5CCCC(n6nc(-c7ccc(Oc8ccc(F)cc8F)cc7)c(C(N)=O)c6N)C5)cs4)C3)ccc2CC1C(=O)NC1CCCc2ccccc21)C(C)(C)C

> <Shape>
0.277

> <Color>
0.099

> <Negative vol penalty>
0.000

$$$$

  -OEChem-04052303243D

 86 95  0     1  0  0  0  0  0999 V2000
  -31.7237  -12.7722   21.5092 C   0  0  0  0  0  0  0  0  0  0  0  0
  -31.1378  -13.9028   22.0694 C   0  0  0  0  0  0  0  0  0  0  0  0
  -22.6373  -30.6442   20.5627 C   0  0  0  0  0  0  0  0  0  0  0  0
  -22.5401  -28.8674   22.1970 C   0  0  0  0  0  0  0  0  0  0  0  0
  -31.1026  -12.1219   20.4437 C   0  0  0  0  0  0  0  0  0  0  0  0
  -29.9309  -14.3845   21.5635 C   0  0  0  0  0  0  0  0  0  0  0  0
  -26.6438  -15.6082   25.2163 C   0  0  0  0  0  0  0  0  0  0  0  0
  -21.2509  -30.5886   20.4198 C   0  0  0  0  0  0  0  0  0  0  0  0
  -21.1536  -28.8119   22.0541 C   0  0  0  0  0  0  0  0  0  0  0  0
  -26.8445  -16.8215   25.8731 C   0  0  0  0  0  0  0  0  0  0  0  0
  -18.4682  -30.5571   23.1328 C   0  0  0  0  0  0  0  0  0  0  0  0
  -17.7010  -30.4807   24.2952 C   0  0  0  0  0  0  0  0  0  0  0  0
  -28.8719  -20.8457   22.0875 C   0  0  0  0  0  0  0  0  0  0  0  0
  -28.2948  -23.1332   22.6081 C   0  0  0  0  0  0  0  0  0  0  0  0
  -25.1359  -17.8372   24.5062 C   0  0  0  0  0  0  0  0  0  0  0  0
  -29.4750  -22.6205   20.5632 C   0  0  0  0  0  0  0  0  0  0  0  0
  -16.7839  -28.3729   23.5514 C   0  0  0  0  0  0  0  0  0  0  0  0
  -23.2819  -29.7835   21.4513 C   0  0  0  0  0  0  0  0  0  0  0  0
  -28.2862  -21.7791   22.9427 C   0  0  0  0  0  0  0  0  0  0  0  0
  -25.4447  -30.6326   22.5043 C   0  0  0  0  0  0  0  0  0  0  0  0
  -29.8826  -12.5902   19.9309 C   0  0  0  0  0  0  0  0  0  0  0  0
  -25.6937  -15.5029   24.1903 C   0  0  0  0  0  0  0  0  0  0  0  0
  -29.2936  -13.7407   20.4893 C   0  0  0  0  0  0  0  0  0  0  0  0
  -24.9234  -16.6208   23.8396 C   0  0  0  0  0  0  0  0  0  0  0  0
  -29.4663  -21.2663   20.8978 C   0  0  0  0  0  0  0  0  0  0  0  0
  -28.8892  -23.5539   21.4184 C   0  0  0  0  0  0  0  0  0  0  0  0
  -20.5091  -29.6725   21.1655 C   0  0  0  0  0  0  0  0  0  0  0  0
  -26.0925  -17.9369   25.5161 C   0  0  0  0  0  0  0  0  0  0  0  0
  -18.3933  -29.5414   22.1797 C   0  0  0  0  0  0  0  0  0  0  0  0
  -16.8589  -29.3887   24.5045 C   0  0  0  0  0  0  0  0  0  0  0  0
  -17.5511  -28.4493   22.3890 C   0  0  0  0  0  0  0  0  0  0  0  0
  -24.7141  -29.8400   21.5989 C   0  0  0  0  0  0  0  0  0  0  0  0
  -26.7584  -30.3240   22.2482 C   0  0  0  0  0  0  0  0  0  0  0  0
  -27.6582  -21.3347   24.1998 C   0  0  0  0  0  0  0  0  0  0  0  0
  -24.9777  -31.5644   23.4889 C   0  0  0  0  0  0  0  0  0  0  0  0
  -25.8072  -14.8064   21.0910 C   0  0  0  0  0  0  0  0  0  0  0  0
  -22.5753  -14.9195   21.3454 C   0  0  0  0  0  0  0  0  0  0  0  0
  -19.8400  -16.0879   23.0187 C   0  0  0  0  0  0  0  0  0  0  0  0
  -29.4458  -25.5137   19.9366 C   0  0  0  0  0  0  0  0  0  0  0  0
  -29.2728  -11.8816   18.7473 C   0  0  0  0  0  0  0  0  0  0  0  0
  -25.4706  -14.1802   23.5098 C   0  0  0  0  0  0  0  0  0  0  0  0
  -23.8766  -16.5550   22.7587 C   0  0  0  0  0  0  0  0  0  0  0  0
  -27.8066  -12.2367   18.5140 C   0  0  0  0  0  0  0  0  0  0  0  0
  -29.6398  -28.8533   18.7172 C   0  0  0  0  0  0  0  0  0  0  0  0
  -30.2426  -21.1692   26.7307 C   0  0  0  0  0  0  0  0  0  0  0  0
  -27.6036  -13.7463   18.5947 C   0  0  0  0  0  0  0  0  0  0  0  0
  -28.4688  -29.5589   19.4049 C   0  0  0  0  0  0  0  0  0  0  0  0
  -28.9755  -21.3227   27.5656 C   0  0  0  0  0  0  0  0  0  0  0  0
  -29.8161  -21.6197   25.3393 C   0  0  0  0  0  0  0  0  0  0  0  0
  -29.2931  -27.4135   18.3421 C   0  0  0  0  0  0  0  0  0  0  0  0
  -27.6038  -27.2982   20.1315 C   0  0  0  0  0  0  0  0  0  0  0  0
  -27.9725  -14.2791   19.9845 C   0  0  1  0  0  0  0  0  0  0  0  0
  -24.8367  -14.3181   22.1290 C   0  0  1  0  0  0  0  0  0  0  0  0
  -27.9272  -28.7307   20.5865 C   0  0  2  0  0  0  0  0  0  0  0  0
  -27.8508  -20.8833   26.6233 C   0  0  2  0  0  0  0  0  0  0  0  0
  -17.3315  -16.0418   22.9680 C   0  0  0  0  0  0  0  0  0  0  0  0
  -22.5880  -16.9095   19.0325 C   0  0  0  0  0  0  0  0  0  0  0  0
  -20.2426  -17.5331   19.6478 C   0  0  0  0  0  0  0  0  0  0  0  0
  -20.7638  -15.2018   18.9294 C   0  0  0  0  0  0  0  0  0  0  0  0
  -19.6942  -14.8008   25.6797 C   0  0  0  0  0  0  0  0  0  0  0  0
  -27.5975  -19.3835   26.6557 C   0  0  0  0  0  0  0  0  0  1  0  0
  -21.5289  -15.9983   21.2037 C   0  0  1  0  0  0  0  0  0  0  0  0
  -18.5893  -15.3872   23.5178 C   0  0  2  0  0  0  0  0  0  0  0  0
  -21.3018  -16.4128   19.7225 C   0  0  0  0  0  0  0  0  0  0  0  0
  -25.4984  -29.0848   20.8253 N   0  0  0  0  0  0  0  0  0  0  0  0
  -26.7356  -29.4015   21.2439 N   0  0  0  0  0  0  0  0  0  0  0  0
  -28.3861  -21.2678   25.3010 N   0  0  0  0  0  0  0  0  0  0  0  0
  -23.7000  -15.2411   22.1185 N   0  0  0  0  0  0  0  0  0  0  0  0
  -28.7909  -26.6889   19.5115 N   0  0  0  0  0  0  0  0  0  0  0  0
  -30.0590  -20.3226   20.0334 N   0  0  0  0  0  0  0  0  0  0  0  0
  -27.9192  -30.7545   22.7864 N   0  0  0  0  0  0  0  0  0  0  0  0
  -23.5963  -31.7616   23.6200 N   0  0  0  0  0  0  0  0  0  0  0  0
  -28.8985  -24.9294   21.0783 N   0  0  0  0  0  0  0  0  0  0  0  0
  -26.9151  -13.9962   20.9313 N   0  0  0  0  0  0  0  0  0  0  0  0
  -20.3336  -15.4982   21.8742 N   0  0  0  0  0  0  0  0  0  0  0  0
  -26.3687  -21.0099   24.2068 N   0  3  0  0  0  0  0  0  0  0  0  0
  -18.5298  -15.4313   25.0062 N   0  3  0  0  0  0  0  0  0  0  0  0
  -25.7629  -32.2153   24.2192 O   0  0  0  0  0  0  0  0  0  0  0  0
  -25.5677  -15.8408   20.4791 O   0  0  0  0  0  0  0  0  0  0  0  0
  -22.3980  -13.8291   20.7966 O   0  0  0  0  0  0  0  0  0  0  0  0
  -20.3281  -17.0633   23.5852 O   0  0  0  0  0  0  0  0  0  0  0  0
  -30.4370  -25.0741   19.3481 O   0  0  0  0  0  0  0  0  0  0  0  0
  -19.1562  -29.6182   21.0265 O   0  0  0  0  0  0  0  0  0  0  0  0
  -26.2868  -19.1226   26.1552 O   0  0  0  0  0  0  0  0  0  1  0  0
  -16.1233  -29.3147   25.6215 F   0  0  0  0  0  0  0  0  0  0  0  0
  -17.4758  -27.4698   21.4775 F   0  0  0  0  0  0  0  0  0  0  0  0
  1  2  1  0  0  0  0
  1  5  2  0  0  0  0
  2  6  2  0  0  0  0
  3  8  2  0  0  0  0
  3 18  1  0  0  0  0
  4  9  1  0  0  0  0
  4 18  2  0  0  0  0
  5 21  1  0  0  0  0
  6 23  1  0  0  0  0
  7 10  2  0  0  0  0
  7 22  1  0  0  0  0
  8 27  1  0  0  0  0
  9 27  2  0  0  0  0
 10 28  1  0  0  0  0
 11 12  2  0  0  0  0
 11 29  1  0  0  0  0
 12 30  1  0  0  0  0
 13 19  1  0  0  0  0
 13 25  2  0  0  0  0
 14 19  2  0  0  0  0
 14 26  1  0  0  0  0
 15 24  1  0  0  0  0
 15 28  2  0  0  0  0
 16 25  1  0  0  0  0
 16 26  2  0  0  0  0
 17 30  2  0  0  0  0
 17 31  1  0  0  0  0
 18 32  1  0  0  0  0
 19 34  1  0  0  0  0
 20 32  1  0  0  0  0
 20 33  2  0  0  0  0
 20 35  1  0  0  0  0
 21 23  2  0  0  0  0
 21 40  1  0  0  0  0
 22 24  2  0  0  0  0
 22 41  1  0  0  0  0
 23 52  1  0  0  0  0
 24 42  1  0  0  0  0
 25 70  1  0  0  0  0
 26 73  1  0  0  0  0
 27 83  1  0  0  0  0
 28 84  1  0  0  0  0
 29 31  2  0  0  0  0
 29 83  1  0  0  0  0
 30 85  1  0  0  0  0
 31 86  1  0  0  0  0
 32 65  2  0  0  0  0
 33 66  1  0  0  0  0
 33 71  1  0  0  0  0
 34 67  1  0  0  0  0
 34 76  2  0  0  0  0
 35 72  1  0  0  0  0
 35 78  2  0  0  0  0
 36 53  1  0  0  0  0
 36 74  1  0  0  0  0
 36 79  2  0  0  0  0
 37 62  1  0  0  0  0
 37 68  1  0  0  0  0
 37 80  2  0  0  0  0
 38 63  1  0  0  0  0
 38 75  1  0  0  0  0
 38 81  2  0  0  0  0
 39 69  1  0  0  0  0
 39 73  1  0  0  0  0
 39 82  2  0  0  0  0
 40 43  1  0  0  0  0
 41 53  1  0  0  0  0
 42 68  1  0  0  0  0
 43 46  1  0  0  0  0
 44 47  1  0  0  0  0
 44 50  1  0  0  0  0
 45 48  1  0  0  0  0
 45 49  1  0  0  0  0
 46 52  1  0  0  0  0
 47 54  1  0  0  0  0
 48 55  1  0  0  0  0
 49 67  1  0  0  0  0
 50 69  1  0  0  0  0
 51 54  1  0  0  0  0
 51 69  1  0  0  0  0
 52 74  1  0  0  0  0
 53 68  1  0  0  0  0
 54 66  1  0  0  0  0
 55 61  1  0  0  0  0
 55 67  1  0  0  0  0
 56 63  1  0  0  0  0
 57 64  1  0  0  0  0
 58 64  1  0  0  0  0
 59 64  1  0  0  0  0
 60 77  1  0  0  0  0
 61 84  1  0  0  0  0
 62 64  1  0  0  0  0
 62 75  1  0  0  0  0
 63 77  1  0  0  0  0
 65 66  1  0  0  0  0
M  CHG  2  76   1  77   1
M  ISO  4  39 100  61 101  73 100  84 101
M  END
> <Batch ID>
0151

> <Smiles>
CNC(C)C(=O)NC(C(=O)N1Cc2cc([101O:1][101CH2:1]C3CCCN3C(=N)c3cc(N)cc([100NH:0][100C:0](=O)N4CCCC(n5nc(-c6ccc(Oc7ccc(F)cc7F)cc6)c(C(N)=O)c5N)C4)c3)ccc2CC1C(=O)NC1CCCc2ccccc21)C(C)(C)C

> <Shape>
0.250

> <Color>
0.083

> <Negative vol penalty>
0.000

$$$$

  -OEChem-04052303243D

 83 92  0     1  0  0  0  0  0999 V2000
  -27.3044  -38.1191   23.9562 C   0  0  0  0  0  0  0  0  0  0  0  0
  -27.9733  -37.1622   23.1998 C   0  0  0  0  0  0  0  0  0  0  0  0
  -24.6878   -8.4592   21.3575 C   0  0  0  0  0  0  0  0  0  0  0  0
  -23.0741  -10.2484   21.5361 C   0  0  0  0  0  0  0  0  0  0  0  0
  -26.3256  -37.7258   24.8679 C   0  0  0  0  0  0  0  0  0  0  0  0
  -27.6646  -35.8113   23.3554 C   0  0  0  0  0  0  0  0  0  0  0  0
  -27.2970  -29.7035   19.6303 C   0  0  0  0  0  0  0  0  0  0  0  0
  -24.0067   -7.7464   22.3443 C   0  0  0  0  0  0  0  0  0  0  0  0
  -22.3930   -9.5356   22.5228 C   0  0  0  0  0  0  0  0  0  0  0  0
  -27.7538  -28.3870   19.6726 C   0  0  0  0  0  0  0  0  0  0  0  0
  -21.2318   -5.8269   22.5634 C   0  0  0  0  0  0  0  0  0  0  0  0
  -21.0062   -4.4682   22.3426 C   0  0  0  0  0  0  0  0  0  0  0  0
  -25.9892  -27.8309   21.2206 C   0  0  0  0  0  0  0  0  0  0  0  0
  -27.3644  -19.0633   20.3006 C   0  0  0  0  0  0  0  0  0  0  0  0
  -22.2605   -3.9357   24.3376 C   0  0  0  0  0  0  0  0  0  0  0  0
  -25.1809  -19.8531   20.4036 C   0  0  0  0  0  0  0  0  0  0  0  0
  -24.2215   -9.7102   20.9535 C   0  0  0  0  0  0  0  0  0  0  0  0
  -24.7101  -10.3925   18.5444 C   0  0  0  0  0  0  0  0  0  0  0  0
  -25.9979  -36.3702   25.0278 C   0  0  0  0  0  0  0  0  0  0  0  0
  -26.1876  -30.0968   20.3925 C   0  0  0  0  0  0  0  0  0  0  0  0
  -26.6814  -35.3995   24.2710 C   0  0  0  0  0  0  0  0  0  0  0  0
  -25.5188  -29.1524   21.1842 C   0  0  0  0  0  0  0  0  0  0  0  0
  -26.5117  -20.2039   20.3452 C   0  0  0  0  0  0  0  0  0  0  0  0
  -22.8593   -8.2846   22.9269 C   0  0  0  0  0  0  0  0  0  0  0  0
  -27.1017  -27.4511   20.4701 C   0  0  0  0  0  0  0  0  0  0  0  0
  -21.9718   -6.2399   23.6713 C   0  0  0  0  0  0  0  0  0  0  0  0
  -21.5205   -3.5226   23.2297 C   0  0  0  0  0  0  0  0  0  0  0  0
  -22.4862   -5.2944   24.5584 C   0  0  0  0  0  0  0  0  0  0  0  0
  -24.9250  -10.4472   19.9346 C   0  0  0  0  0  0  0  0  0  0  0  0
  -25.6259  -11.2719   18.0206 C   0  0  0  0  0  0  0  0  0  0  0  0
  -26.6528  -17.8840   20.3268 C   0  0  0  0  0  0  0  0  0  0  0  0
  -23.7670   -9.6162   17.7938 C   0  0  0  0  0  0  0  0  0  0  0  0
  -25.7079  -32.1770   22.7476 C   0  0  0  0  0  0  0  0  0  0  0  0
  -22.6008  -31.3467   22.3241 C   0  0  0  0  0  0  0  0  0  0  0  0
  -20.3437  -29.0335   21.2280 C   0  0  0  0  0  0  0  0  0  0  0  0
  -28.4040  -16.0752   20.2376 C   0  0  0  0  0  0  0  0  0  0  0  0
  -24.9660  -35.9896   26.0599 C   0  0  0  0  0  0  0  0  0  0  0  0
  -25.6911  -31.5146   20.3152 C   0  0  0  0  0  0  0  0  0  0  0  0
  -24.3108  -29.5191   22.0057 C   0  0  0  0  0  0  0  0  0  0  0  0
  -24.4347  -34.5681   25.8946 C   0  0  0  0  0  0  0  0  0  0  0  0
  -29.9404  -13.1535   18.9034 C   0  0  0  0  0  0  0  0  0  0  0  0
  -25.5848  -33.5905   25.6749 C   0  0  0  0  0  0  0  0  0  0  0  0
  -28.8075  -12.1247   18.8842 C   0  0  0  0  0  0  0  0  0  0  0  0
  -28.3757  -23.3797   20.5594 C   0  0  0  0  0  0  0  0  0  0  0  0
  -29.8591  -14.0639   20.1274 C   0  0  0  0  0  0  0  0  0  0  0  0
  -28.3733  -21.8791   20.2696 C   0  0  0  0  0  0  0  0  0  0  0  0
  -27.4297  -13.6958   20.3057 C   0  0  0  0  0  0  0  0  0  0  0  0
  -26.0891  -22.6781   20.4090 C   0  0  0  0  0  0  0  0  0  0  0  0
  -26.3573  -33.9263   24.3935 C   0  0  1  0  0  0  0  0  0  0  0  0
  -24.8645  -31.9252   21.5299 C   0  0  1  0  0  0  0  0  0  0  0  0
  -27.4319  -12.7980   19.0576 C   0  0  2  0  0  0  0  0  0  0  0  0
  -27.0092  -23.8639   20.0529 C   0  0  2  0  0  0  0  0  0  0  0  0
  -27.0361  -24.0984   18.5330 C   0  0  0  0  0  0  0  0  0  0  0  0
  -17.8748  -28.6213   21.0488 C   0  0  0  0  0  0  0  0  0  0  0  0
  -22.4909  -30.7225   25.3088 C   0  0  0  0  0  0  0  0  0  0  0  0
  -20.3746  -29.4507   24.8939 C   0  0  0  0  0  0  0  0  0  0  0  0
  -20.4724  -31.8966   24.4135 C   0  0  0  0  0  0  0  0  0  0  0  0
  -20.4689  -28.8628   18.2761 C   0  0  0  0  0  0  0  0  0  0  0  0
  -26.5731  -25.1501   20.7566 C   0  0  0  0  0  0  0  0  0  1  0  0
  -21.6908  -30.2852   22.8933 C   0  0  1  0  0  0  0  0  0  0  0  0
  -19.1116  -29.1652   20.3509 C   0  0  2  0  0  0  0  0  0  0  0  0
  -21.2811  -30.5820   24.3635 C   0  0  0  0  0  0  0  0  0  0  0  0
  -25.9008  -11.2943   20.2726 N   0  0  0  0  0  0  0  0  0  0  0  0
  -26.3074  -11.7798   19.0872 N   0  0  0  0  0  0  0  0  0  0  0  0
  -26.9629  -21.5072   20.3316 N   0  0  3  0  0  0  0  0  0  0  0  0
  -23.8675  -30.9191   21.9015 N   0  0  0  0  0  0  0  0  0  0  0  0
  -28.5294  -14.6699   20.2245 N   0  0  0  0  0  0  0  0  0  0  0  0
  -25.9068  -11.6523   16.7562 N   0  0  0  0  0  0  0  0  0  0  0  0
  -22.8994   -8.7633   18.4896 N   0  0  0  0  0  0  0  0  0  0  0  0
  -27.0894  -16.5363   20.2998 N   0  0  0  0  0  0  0  0  0  0  0  0
  -25.6284  -33.4696   23.2296 N   0  0  0  0  0  0  0  0  0  0  0  0
  -20.5663  -30.1739   21.9705 N   0  0  0  0  0  0  0  0  0  0  0  0
  -19.3003  -28.4155   19.0769 N   0  3  0  0  0  0  0  0  0  0  0  0
  -23.7067   -9.6648   16.5418 O   0  0  0  0  0  0  0  0  0  0  0  0
  -26.3797  -31.2656   23.2162 O   0  0  0  0  0  0  0  0  0  0  0  0
  -22.1999  -32.5109   22.2503 O   0  0  0  0  0  0  0  0  0  0  0  0
  -21.0369  -28.0190   21.2548 O   0  0  0  0  0  0  0  0  0  0  0  0
  -29.3887  -16.8153   20.1692 O   0  0  0  0  0  0  0  0  0  0  0  0
  -22.1943   -7.5892   23.8896 O   0  0  0  0  0  0  0  0  0  0  0  0
  -27.5459  -26.1655   20.5137 O   0  0  0  0  0  0  0  0  0  1  0  0
  -21.3025   -2.2180   23.0184 F   0  0  0  0  0  0  0  0  0  0  0  0
  -23.1969   -5.6852   25.6252 F   0  0  0  0  0  0  0  0  0  0  0  0
  -24.9637  -18.1545   20.4046 S   0  0  0  0  0  0  0  0  0  0  0  0
  1  2  1  0  0  0  0
  1  5  2  0  0  0  0
  2  6  2  0  0  0  0
  3  8  2  0  0  0  0
  3 17  1  0  0  0  0
  4  9  1  0  0  0  0
  4 17  2  0  0  0  0
  5 19  1  0  0  0  0
  6 21  1  0  0  0  0
  7 10  2  0  0  0  0
  7 20  1  0  0  0  0
  8 24  1  0  0  0  0
  9 24  2  0  0  0  0
 10 25  1  0  0  0  0
 11 12  2  0  0  0  0
 11 26  1  0  0  0  0
 12 27  1  0  0  0  0
 13 22  1  0  0  0  0
 13 25  2  0  0  0  0
 14 23  1  0  0  0  0
 14 31  2  0  0  0  0
 15 27  2  0  0  0  0
 15 28  1  0  0  0  0
 16 23  2  0  0  0  0
 16 83  1  0  0  0  0
 17 29  1  0  0  0  0
 18 29  1  0  0  0  0
 18 30  2  0  0  0  0
 18 32  1  0  0  0  0
 19 21  2  0  0  0  0
 19 37  1  0  0  0  0
 20 22  2  0  0  0  0
 20 38  1  0  0  0  0
 21 49  1  0  0  0  0
 22 39  1  0  0  0  0
 23 65  1  0  0  0  0
 24 79  1  0  0  0  0
 25 80  1  0  0  0  0
 26 28  2  0  0  0  0
 26 79  1  0  0  0  0
 27 81  1  0  0  0  0
 28 82  1  0  0  0  0
 29 63  2  0  0  0  0
 30 64  1  0  0  0  0
 30 68  1  0  0  0  0
 31 70  1  0  0  0  0
 31 83  1  0  0  0  0
 32 69  1  0  0  0  0
 32 74  2  0  0  0  0
 33 50  1  0  0  0  0
 33 71  1  0  0  0  0
 33 75  2  0  0  0  0
 34 60  1  0  0  0  0
 34 66  1  0  0  0  0
 34 76  2  0  0  0  0
 35 61  1  0  0  0  0
 35 72  1  0  0  0  0
 35 77  2  0  0  0  0
 36 67  1  0  0  0  0
 36 70  1  0  0  0  0
 36 78  2  0  0  0  0
 37 40  1  0  0  0  0
 38 50  1  0  0  0  0
 39 66  1  0  0  0  0
 40 42  1  0  0  0  0
 41 43  1  0  0  0  0
 41 45  1  0  0  0  0
 42 49  1  0  0  0  0
 43 51  1  0  0  0  0
 44 46  1  0  0  0  0
 44 52  1  0  0  0  0
 45 67  1  0  0  0  0
 46 65  1  0  0  0  0
 47 51  1  0  0  0  0
 47 67  1  0  0  0  0
 48 52  1  0  0  0  0
 48 65  1  0  0  0  0
 49 71  1  0  0  0  0
 50 66  1  0  0  0  0
 51 64  1  0  0  0  0
 52 53  1  0  0  0  0
 52 59  1  0  0  0  0
 54 61  1  0  0  0  0
 55 62  1  0  0  0  0
 56 62  1  0  0  0  0
 57 62  1  0  0  0  0
 58 73  1  0  0  0  0
 59 80  1  0  0  0  0
 60 62  1  0  0  0  0
 60 72  1  0  0  0  0
 61 73  1  0  0  0  0
 63 64  1  0  0  0  0
M  CHG  1  73   1
M  ISO  4  36 100  59 101  70 100  80 101
M  END
> <Batch ID>
0151

> <Smiles>
CNC(C)C(=O)NC(C(=O)N1Cc2cc([101O:1][101CH2:1]C3(C)CCN(c4csc([100NH:0][100C:0](=O)N5CCCC(n6nc(-c7ccc(Oc8ccc(F)cc8F)cc7)c(C(N)=O)c6N)C5)c4)C3)ccc2CC1C(=O)NC1CCCc2ccccc21)C(C)(C)C

> <Shape>
0.302

> <Color>
0.098

> <Negative vol penalty>
0.000

$$$$

  -OEChem-04052303243D

 81 89  0     1  0  0  0  0  0999 V2000
  -29.9048  -24.7942   18.0307 C   0  0  0  0  0  0  0  0  0  0  0  0
  -28.5218  -24.8546   18.1684 C   0  0  0  0  0  0  0  0  0  0  0  0
  -26.6938  -12.9240   21.2568 C   0  0  0  0  0  0  0  0  0  0  0  0
  -25.0146  -13.0171   19.5223 C   0  0  0  0  0  0  0  0  0  0  0  0
  -30.7266  -25.3641   19.0022 C   0  0  0  0  0  0  0  0  0  0  0  0
  -27.9597  -25.4840   19.2785 C   0  0  0  0  0  0  0  0  0  0  0  0
  -22.7523  -28.7031   19.4408 C   0  0  0  0  0  0  0  0  0  0  0  0
  -26.4229  -11.5689   21.4463 C   0  0  0  0  0  0  0  0  0  0  0  0
  -24.7437  -11.6620   19.7117 C   0  0  0  0  0  0  0  0  0  0  0  0
  -21.4568  -28.3720   19.8355 C   0  0  0  0  0  0  0  0  0  0  0  0
  -23.0191   -9.7484   21.9013 C   0  0  0  0  0  0  0  0  0  0  0  0
  -21.6817   -9.3569   21.9603 C   0  0  0  0  0  0  0  0  0  0  0  0
  -21.8892  -29.3060   22.0172 C   0  0  0  0  0  0  0  0  0  0  0  0
  -22.0176   -7.9212   20.0464 C   0  0  0  0  0  0  0  0  0  0  0  0
  -20.8035  -23.1491   24.0506 C   0  0  0  0  0  0  0  0  0  0  0  0
  -25.9895  -13.6482   20.2948 C   0  0  0  0  0  0  0  0  0  0  0  0
  -27.2100  -15.6122   19.2176 C   0  0  0  0  0  0  0  0  0  0  0  0
  -30.1741  -26.0093   20.1199 C   0  0  0  0  0  0  0  0  0  0  0  0
  -23.6310  -29.3294   20.3364 C   0  0  0  0  0  0  0  0  0  0  0  0
  -28.7748  -26.0619   20.2666 C   0  0  0  0  0  0  0  0  0  0  0  0
  -23.1945  -29.6463   21.6306 C   0  0  0  0  0  0  0  0  0  0  0  0
  -25.4480  -10.9379   20.6737 C   0  0  0  0  0  0  0  0  0  0  0  0
  -21.0260  -28.6708   21.1247 C   0  0  0  0  0  0  0  0  0  0  0  0
  -23.8558   -9.2264   20.9148 C   0  0  0  0  0  0  0  0  0  0  0  0
  -21.1809   -8.4433   21.0329 C   0  0  0  0  0  0  0  0  0  0  0  0
  -23.3550   -8.3128   19.9874 C   0  0  0  0  0  0  0  0  0  0  0  0
  -26.2684  -15.0482   20.0991 C   0  0  0  0  0  0  0  0  0  0  0  0
  -20.4077  -23.0564   22.7327 C   0  0  0  0  0  0  0  0  0  0  0  0
  -27.0886  -16.9672   19.4067 C   0  0  0  0  0  0  0  0  0  0  0  0
  -19.4995  -24.9937   23.2143 C   0  0  0  0  0  0  0  0  0  0  0  0
  -28.1135  -14.9689   18.3090 C   0  0  0  0  0  0  0  0  0  0  0  0
  -20.7530  -21.9044   21.8738 C   0  0  0  0  0  0  0  0  0  0  0  0
  -26.4287  -28.5657   21.6377 C   0  0  0  0  0  0  0  0  0  0  0  0
  -26.2742  -31.5913   22.7971 C   0  0  0  0  0  0  0  0  0  0  0  0
  -24.3399  -34.2625   23.6744 C   0  0  0  0  0  0  0  0  0  0  0  0
  -22.4065  -20.1124   21.3927 C   0  0  0  0  0  0  0  0  0  0  0  0
  -31.1032  -26.5692   21.1677 C   0  0  0  0  0  0  0  0  0  0  0  0
  -25.0166  -29.7041   19.8867 C   0  0  0  0  0  0  0  0  0  0  0  0
  -24.0923  -30.3365   22.6236 C   0  0  0  0  0  0  0  0  0  0  0  0
  -30.4242  -27.5457   22.1247 C   0  0  0  0  0  0  0  0  0  0  0  0
  -25.8857  -20.2144   22.6745 C   0  0  0  0  0  0  0  0  0  0  0  0
  -29.0952  -26.9779   22.6127 C   0  0  0  0  0  0  0  0  0  0  0  0
  -26.4282  -18.8967   22.1322 C   0  0  0  0  0  0  0  0  0  0  0  0
  -24.3935  -20.1367   22.9948 C   0  0  0  0  0  0  0  0  0  0  0  0
  -24.1135  -18.3427   21.2980 C   0  0  0  0  0  0  0  0  0  0  0  0
  -28.1270  -26.7576   21.4441 C   0  0  1  0  0  0  0  0  0  0  0  0
  -25.9945  -29.8763   21.0449 C   0  0  1  0  0  0  0  0  0  0  0  0
  -25.6003  -18.4326   20.9253 C   0  0  2  0  0  0  0  0  0  0  0  0
  -24.4953  -36.5791   24.6266 C   0  0  0  0  0  0  0  0  0  0  0  0
  -26.7282  -30.4160   25.5760 C   0  0  0  0  0  0  0  0  0  0  0  0
  -25.9369  -32.5842   26.5461 C   0  0  0  0  0  0  0  0  0  0  0  0
  -27.9829  -32.5307   25.1201 C   0  0  0  0  0  0  0  0  0  0  0  0
  -23.1685  -35.4677   21.2383 C   0  0  0  0  0  0  0  0  0  0  0  0
  -18.1520  -26.5926   21.8530 C   0  0  0  0  0  0  0  0  0  0  0  0
  -19.1675  -27.2037   20.9020 C   0  0  0  0  0  0  0  0  0  1  0  0
  -25.7145  -32.2308   24.0447 C   0  0  1  0  0  0  0  0  0  0  0  0
  -24.4620  -35.7420   23.3574 C   0  0  2  0  0  0  0  0  0  0  0  0
  -26.5741  -31.9257   25.3039 C   0  0  0  0  0  0  0  0  0  0  0  0
  -25.5985  -15.9695   20.7965 N   0  0  0  0  0  0  0  0  0  0  0  0
  -19.6595  -24.1130   22.2516 N   0  0  0  0  0  0  0  0  0  0  0  0
  -26.1198  -17.1262   20.3533 N   0  0  0  0  0  0  0  0  0  0  0  0
  -25.4401  -30.6768   22.1385 N   0  0  0  0  0  0  0  0  0  0  0  0
  -23.6147  -19.5972   21.8717 N   0  0  0  0  0  0  0  0  0  0  0  0
  -27.7173  -18.0263   18.8539 N   0  0  0  0  0  0  0  0  0  0  0  0
  -28.1079  -13.5691   18.2403 N   0  0  0  0  0  0  0  0  0  0  0  0
  -18.7971  -26.1796   23.0783 N   0  0  0  0  0  0  0  0  0  0  0  0
  -21.9017  -21.2561   22.1215 N   0  0  0  0  0  0  0  0  0  0  0  0
  -27.5405  -28.0142   21.0300 N   0  0  0  0  0  0  0  0  0  0  0  0
  -25.5741  -33.6521   23.7472 N   0  0  0  0  0  0  0  0  0  0  0  0
  -19.9014  -21.5841   20.8998 N   0  3  0  0  0  0  0  0  0  0  0  0
  -23.3079  -36.1911   22.5284 N   0  3  0  0  0  0  0  0  0  0  0  0
  -28.9139  -15.6156   17.5916 O   0  0  0  0  0  0  0  0  0  0  0  0
  -25.8024  -28.0907   22.5778 O   0  0  0  0  0  0  0  0  0  0  0  0
  -27.4070  -31.8974   22.4167 O   0  0  0  0  0  0  0  0  0  0  0  0
  -23.2579  -33.7048   23.8445 O   0  0  0  0  0  0  0  0  0  0  0  0
  -21.7595  -19.6590   20.4548 O   0  0  0  0  0  0  0  0  0  0  0  0
  -25.1836   -9.6155   20.8581 O   0  0  0  0  0  0  0  0  0  0  0  0
  -19.7622  -28.3482   21.5127 O   0  0  0  0  0  0  0  0  0  1  0  0
  -19.8969   -8.0662   21.0906 F   0  0  0  0  0  0  0  0  0  0  0  0
  -24.1543   -7.8069   19.0381 F   0  0  0  0  0  0  0  0  0  0  0  0
  -20.2226  -24.6155   24.7240 S   0  0  0  0  0  0  0  0  0  0  0  0
  1  2  1  0  0  0  0
  1  5  2  0  0  0  0
  2  6  2  0  0  0  0
  3  8  2  0  0  0  0
  3 16  1  0  0  0  0
  4  9  1  0  0  0  0
  4 16  2  0  0  0  0
  5 18  1  0  0  0  0
  6 20  1  0  0  0  0
  7 10  2  0  0  0  0
  7 19  1  0  0  0  0
  8 22  1  0  0  0  0
  9 22  2  0  0  0  0
 10 23  1  0  0  0  0
 11 12  2  0  0  0  0
 11 24  1  0  0  0  0
 12 25  1  0  0  0  0
 13 21  1  0  0  0  0
 13 23  2  0  0  0  0
 14 25  2  0  0  0  0
 14 26  1  0  0  0  0
 15 28  2  0  0  0  0
 15 81  1  0  0  0  0
 16 27  1  0  0  0  0
 17 27  1  0  0  0  0
 17 29  2  0  0  0  0
 17 31  1  0  0  0  0
 18 20  2  0  0  0  0
 18 37  1  0  0  0  0
 19 21  2  0  0  0  0
 19 38  1  0  0  0  0
 20 46  1  0  0  0  0
 21 39  1  0  0  0  0
 22 77  1  0  0  0  0
 23 78  1  0  0  0  0
 24 26  2  0  0  0  0
 24 77  1  0  0  0  0
 25 79  1  0  0  0  0
 26 80  1  0  0  0  0
 27 59  2  0  0  0  0
 28 32  1  0  0  0  0
 28 60  1  0  0  0  0
 29 61  1  0  0  0  0
 29 64  1  0  0  0  0
 30 60  2  0  0  0  0
 30 66  1  0  0  0  0
 30 81  1  0  0  0  0
 31 65  1  0  0  0  0
 31 72  2  0  0  0  0
 32 67  1  0  0  0  0
 32 70  2  0  0  0  0
 33 47  1  0  0  0  0
 33 68  1  0  0  0  0
 33 73  2  0  0  0  0
 34 56  1  0  0  0  0
 34 62  1  0  0  0  0
 34 74  2  0  0  0  0
 35 57  1  0  0  0  0
 35 69  1  0  0  0  0
 35 75  2  0  0  0  0
 36 63  1  0  0  0  0
 36 67  1  0  0  0  0
 36 76  2  0  0  0  0
 37 40  1  0  0  0  0
 38 47  1  0  0  0  0
 39 62  1  0  0  0  0
 40 42  1  0  0  0  0
 41 43  1  0  0  0  0
 41 44  1  0  0  0  0
 42 46  1  0  0  0  0
 43 48  1  0  0  0  0
 44 63  1  0  0  0  0
 45 48  1  0  0  0  0
 45 63  1  0  0  0  0
 46 68  1  0  0  0  0
 47 62  1  0  0  0  0
 48 61  1  0  0  0  0
 49 57  1  0  0  0  0
 50 58  1  0  0  0  0
 51 58  1  0  0  0  0
 52 58  1  0  0  0  0
 53 71  1  0  0  0  0
 54 55  1  0  0  0  0
 54 66  1  0  0  0  0
 55 78  1  0  0  0  0
 56 58  1  0  0  0  0
 56 69  1  0  0  0  0
 57 71  1  0  0  0  0
 59 61  1  0  0  0  0
M  CHG  2  70   1  71   1
M  ISO  4  36 100  55 101  67 100  78 101
M  END
> <Batch ID>
0151

> <Smiles>
CNC(C)C(=O)NC(C(=O)N1Cc2cc([101O:1][101CH2:1]CNc3nc(C(=N)[100NH:0][100C:0](=O)N4CCCC(n5nc(-c6ccc(Oc7ccc(F)cc7F)cc6)c(C(N)=O)c5N)C4)cs3)ccc2CC1C(=O)NC1CCCc2ccccc21)C(C)(C)C

> <Shape>
0.294

> <Color>
0.078

> <Negative vol penalty>
0.000

$$$$

  -OEChem-04052303243D

 82 91  0     1  0  0  0  0  0999 V2000
  -31.8514  -27.7743    8.3703 C   0  0  0  0  0  0  0  0  0  0  0  0
  -32.7203  -26.7643    8.7709 C   0  0  0  0  0  0  0  0  0  0  0  0
  -23.1649   -9.8546   19.9080 C   0  0  0  0  0  0  0  0  0  0  0  0
  -23.8351   -9.8958   22.2288 C   0  0  0  0  0  0  0  0  0  0  0  0
  -31.0454  -28.4130    9.3118 C   0  0  0  0  0  0  0  0  0  0  0  0
  -32.7844  -26.3933   10.1135 C   0  0  0  0  0  0  0  0  0  0  0  0
  -33.7628  -20.7713   12.3365 C   0  0  0  0  0  0  0  0  0  0  0  0
  -22.4382   -8.6866   20.1386 C   0  0  0  0  0  0  0  0  0  0  0  0
  -23.1083   -8.7278   22.4594 C   0  0  0  0  0  0  0  0  0  0  0  0
  -34.9078  -20.1403   12.8209 C   0  0  0  0  0  0  0  0  0  0  0  0
  -19.8781   -7.8606   22.9436 C   0  0  0  0  0  0  0  0  0  0  0  0
  -19.0775   -7.8119   24.0847 C   0  0  0  0  0  0  0  0  0  0  0  0
  -34.2684  -20.7222   15.0730 C   0  0  0  0  0  0  0  0  0  0  0  0
  -34.3305  -18.2259   18.5823 C   0  0  0  0  0  0  0  0  0  0  0  0
  -20.3330   -5.9089   24.8844 C   0  0  0  0  0  0  0  0  0  0  0  0
  -23.8634  -10.4592   20.9531 C   0  0  0  0  0  0  0  0  0  0  0  0
  -24.1524  -12.9906   20.8257 C   0  0  0  0  0  0  0  0  0  0  0  0
  -31.0927  -28.0429   10.6651 C   0  0  0  0  0  0  0  0  0  0  0  0
  -32.8661  -21.3929   13.2173 C   0  0  0  0  0  0  0  0  0  0  0  0
  -31.9793  -27.0286   11.0742 C   0  0  0  0  0  0  0  0  0  0  0  0
  -33.1114  -21.3581   14.5974 C   0  0  0  0  0  0  0  0  0  0  0  0
  -33.4334  -17.6734   19.4731 C   0  0  0  0  0  0  0  0  0  0  0  0
  -22.4099   -8.1232   21.4143 C   0  0  0  0  0  0  0  0  0  0  0  0
  -35.1622  -20.1182   14.1891 C   0  0  0  0  0  0  0  0  0  0  0  0
  -20.9062   -6.9334   22.7728 C   0  0  0  0  0  0  0  0  0  0  0  0
  -19.3050   -6.8360   25.0551 C   0  0  0  0  0  0  0  0  0  0  0  0
  -21.1336   -5.9576   23.7432 C   0  0  0  0  0  0  0  0  0  0  0  0
  -24.6147  -11.6655   20.7155 C   0  0  0  0  0  0  0  0  0  0  0  0
  -33.8534  -16.5557   20.0779 C   0  0  0  0  0  0  0  0  0  0  0  0
  -25.2405  -13.7623   20.4986 C   0  0  0  0  0  0  0  0  0  0  0  0
  -35.4737  -17.4249   18.5701 C   0  0  0  0  0  0  0  0  0  0  0  0
  -22.8553  -13.4802   21.1911 C   0  0  0  0  0  0  0  0  0  0  0  0
  -31.8333  -24.3698   13.6360 C   0  0  0  0  0  0  0  0  0  0  0  0
  -29.8499  -22.9650   15.7842 C   0  0  0  0  0  0  0  0  0  0  0  0
  -29.2365  -20.3385   17.8751 C   0  0  0  0  0  0  0  0  0  0  0  0
  -30.5524  -14.9452   20.9960 C   0  0  0  0  0  0  0  0  0  0  0  0
  -30.2367  -28.7946   11.6535 C   0  0  0  0  0  0  0  0  0  0  0  0
  -31.6218  -22.0462   12.6811 C   0  0  0  0  0  0  0  0  0  0  0  0
  -32.1079  -17.6937   20.1568 C   0  0  0  0  0  0  0  0  0  0  0  0
  -32.1697  -21.9932   15.5866 C   0  0  0  0  0  0  0  0  0  0  0  0
  -30.0930  -28.0854   12.9977 C   0  0  0  0  0  0  0  0  0  0  0  0
  -29.7011  -12.4829   18.4856 C   0  0  0  0  0  0  0  0  0  0  0  0
  -31.4511  -27.5971   13.4915 C   0  0  0  0  0  0  0  0  0  0  0  0
  -28.2524  -12.1615   18.8566 C   0  0  0  0  0  0  0  0  0  0  0  0
  -30.5548  -12.7080   19.7305 C   0  0  0  0  0  0  0  0  0  0  0  0
  -28.5888  -13.4371   21.0234 C   0  0  0  0  0  0  0  0  0  0  0  0
  -32.0595  -26.5809   12.5176 C   0  0  1  0  0  0  0  0  0  0  0  0
  -32.6000  -16.3950   20.8850 C   0  0  1  0  0  0  0  0  0  0  0  0
  -31.0414  -23.0929   13.6270 C   0  0  1  0  0  0  0  0  0  0  0  0
  -27.6693  -13.2232   19.8075 C   0  0  2  0  0  0  0  0  0  0  0  0
  -27.5512  -19.4892   19.5291 C   0  0  0  0  0  0  0  0  0  0  0  0
  -36.6663  -17.1691   14.9272 C   0  0  0  0  0  0  0  0  0  0  0  0
  -30.8668  -24.9707   17.8465 C   0  0  0  0  0  0  0  0  0  0  0  0
  -29.9062  -23.5096   19.6384 C   0  0  0  0  0  0  0  0  0  0  0  0
  -28.4046  -24.5415   17.9346 C   0  0  0  0  0  0  0  0  0  0  0  0
  -28.7134  -17.9080   16.2696 C   0  0  0  0  0  0  0  0  0  0  0  0
  -36.7834  -18.7315   16.8959 C   0  0  0  0  0  0  0  0  0  0  0  0
  -29.9263  -22.6398   17.2564 C   0  0  1  0  0  0  0  0  0  0  0  0
  -28.0019  -19.4785   18.0767 C   0  0  2  0  0  0  0  0  0  0  0  0
  -36.0878  -18.4198   15.5729 C   0  0  1  0  0  0  0  0  0  1  0  0
  -29.7949  -23.9050   18.1504 C   0  0  0  0  0  0  0  0  0  0  0  0
  -25.8967  -11.5957   20.3470 N   0  0  0  0  0  0  0  0  0  0  0  0
  -26.2491  -12.8866   20.2228 N   0  0  0  0  0  0  0  0  0  0  0  0
  -30.9701  -22.6250   15.0127 N   0  0  0  0  0  0  0  0  0  0  0  0
  -29.9544  -13.7438   20.5835 N   0  0  0  0  0  0  0  0  0  0  0  0
  -25.4234  -15.0976   20.4228 N   0  0  0  0  0  0  0  0  0  0  0  0
  -21.8519  -12.5506   21.4965 N   0  0  0  0  0  0  0  0  0  0  0  0
  -36.6146  -17.6258   17.8113 N   0  0  0  0  0  0  0  0  0  0  0  0
  -31.4341  -25.2862   12.6819 N   0  0  0  0  0  0  0  0  0  0  0  0
  -28.9077  -21.6250   17.5036 N   0  0  0  0  0  0  0  0  0  0  0  0
  -31.8463  -15.1721   20.5391 N   0  0  0  0  0  0  0  0  0  0  0  0
  -28.2824  -18.0691   17.6821 N   0  3  0  0  0  0  0  0  0  0  0  0
  -22.5892  -14.7055   21.2291 O   0  0  0  0  0  0  0  0  0  0  0  0
  -32.7386  -24.5136   14.4493 O   0  0  0  0  0  0  0  0  0  0  0  0
  -28.8308  -23.4946   15.3339 O   0  0  0  0  0  0  0  0  0  0  0  0
  -30.3783  -19.9127   18.0350 O   0  0  0  0  0  0  0  0  0  0  0  0
  -29.9767  -15.7674   21.7173 O   0  0  0  0  0  0  0  0  0  0  0  0
  -21.7007   -6.9835   21.6397 O   0  0  0  0  0  0  0  0  0  0  0  0
  -36.2794  -19.5035   14.6645 O   0  0  0  0  0  0  0  0  0  1  0  0
  -18.5371   -6.7904   26.1517 F   0  0  0  0  0  0  0  0  0  0  0  0
  -22.1205   -5.0648   23.5852 F   0  0  0  0  0  0  0  0  0  0  0  0
  -35.3518  -16.0519   19.6619 S   0  0  0  0  0  0  0  0  0  0  0  0
  1  2  1  0  0  0  0
  1  5  2  0  0  0  0
  2  6  2  0  0  0  0
  3  8  2  0  0  0  0
  3 16  1  0  0  0  0
  4  9  1  0  0  0  0
  4 16  2  0  0  0  0
  5 18  1  0  0  0  0
  6 20  1  0  0  0  0
  7 10  2  0  0  0  0
  7 19  1  0  0  0  0
  8 23  1  0  0  0  0
  9 23  2  0  0  0  0
 10 24  1  0  0  0  0
 11 12  2  0  0  0  0
 11 25  1  0  0  0  0
 12 26  1  0  0  0  0
 13 21  1  0  0  0  0
 13 24  2  0  0  0  0
 14 22  1  0  0  0  0
 14 31  2  0  0  0  0
 15 26  2  0  0  0  0
 15 27  1  0  0  0  0
 16 28  1  0  0  0  0
 17 28  1  0  0  0  0
 17 30  2  0  0  0  0
 17 32  1  0  0  0  0
 18 20  2  0  0  0  0
 18 37  1  0  0  0  0
 19 21  2  0  0  0  0
 19 38  1  0  0  0  0
 20 47  1  0  0  0  0
 21 40  1  0  0  0  0
 22 29  2  0  0  0  0
 22 39  1  0  0  0  0
 23 78  1  0  0  0  0
 24 79  1  0  0  0  0
 25 27  2  0  0  0  0
 25 78  1  0  0  0  0
 26 80  1  0  0  0  0
 27 81  1  0  0  0  0
 28 62  2  0  0  0  0
 29 48  1  0  0  0  0
 29 82  1  0  0  0  0
 30 63  1  0  0  0  0
 30 66  1  0  0  0  0
 31 68  1  0  0  0  0
 31 82  1  0  0  0  0
 32 67  1  0  0  0  0
 32 73  2  0  0  0  0
 33 49  1  0  0  0  0
 33 69  1  0  0  0  0
 33 74  2  0  0  0  0
 34 58  1  0  0  0  0
 34 64  1  0  0  0  0
 34 75  2  0  0  0  0
 35 59  1  0  0  0  0
 35 70  1  0  0  0  0
 35 76  2  0  0  0  0
 36 65  1  0  0  0  0
 36 71  1  0  0  0  0
 36 77  2  0  0  0  0
 37 41  1  0  0  0  0
 38 49  1  0  0  0  0
 39 48  1  0  0  0  0
 40 64  1  0  0  0  0
 41 43  1  0  0  0  0
 42 44  1  0  0  0  0
 42 45  1  0  0  0  0
 43 47  1  0  0  0  0
 44 50  1  0  0  0  0
 45 65  1  0  0  0  0
 46 50  1  0  0  0  0
 46 65  1  0  0  0  0
 47 69  1  0  0  0  0
 48 71  1  0  0  0  0
 49 64  1  0  0  0  0
 50 63  1  0  0  0  0
 51 59  1  0  0  0  0
 52 60  1  0  0  0  0
 53 61  1  0  0  0  0
 54 61  1  0  0  0  0
 55 61  1  0  0  0  0
 56 72  1  0  0  0  0
 57 60  1  0  0  0  0
 57 68  1  0  0  0  0
 58 61  1  0  0  0  0
 58 70  1  0  0  0  0
 59 72  1  0  0  0  0
 60 79  1  0  0  0  0
 62 63  1  0  0  0  0
M  CHG  1  72   1
M  ISO  4  36 100  60 101  71 100  79 101
M  END
> <Batch ID>
0151

> <Smiles>
CNC(C)C(=O)NC(C(=O)N1Cc2cc([101O:1][101CH:1](C)CNc3cc4c(s3)C([100NH:0][100C:0](=O)N3CCCC(n5nc(-c6ccc(Oc7ccc(F)cc7F)cc6)c(C(N)=O)c5N)C3)C4)ccc2CC1C(=O)NC1CCCc2ccccc21)C(C)(C)C

> <Shape>
0.206

> <Color>
0.161

> <Negative vol penalty>
0.000

$$$$

  -OEChem-04052303243D

 84 93  0     1  0  0  0  0  0999 V2000
  -30.5608  -24.7531   18.7175 C   0  0  0  0  0  0  0  0  0  0  0  0
  -29.1746  -24.8455   18.6436 C   0  0  0  0  0  0  0  0  0  0  0  0
  -27.5812  -16.5392   21.8183 C   0  0  0  0  0  0  0  0  0  0  0  0
  -25.8682  -17.0863   20.2047 C   0  0  0  0  0  0  0  0  0  0  0  0
  -31.2369  -25.2926   19.8110 C   0  0  0  0  0  0  0  0  0  0  0  0
  -28.4637  -25.4765   19.6638 C   0  0  0  0  0  0  0  0  0  0  0  0
  -23.3659  -28.8191   19.0758 C   0  0  0  0  0  0  0  0  0  0  0  0
  -27.5538  -15.2099   21.3967 C   0  0  0  0  0  0  0  0  0  0  0  0
  -25.8409  -15.7569   19.7831 C   0  0  0  0  0  0  0  0  0  0  0  0
  -22.0183  -28.5153   19.2635 C   0  0  0  0  0  0  0  0  0  0  0  0
  -28.1918  -11.7459   20.4976 C   0  0  0  0  0  0  0  0  0  0  0  0
  -29.4137  -11.1053   20.2924 C   0  0  0  0  0  0  0  0  0  0  0  0
  -22.1330  -29.4154   21.4987 C   0  0  0  0  0  0  0  0  0  0  0  0
  -19.6852  -23.9335   23.7432 C   0  0  0  0  0  0  0  0  0  0  0  0
  -29.9922  -12.7459   18.6158 C   0  0  0  0  0  0  0  0  0  0  0  0
  -18.7867  -23.8599   21.6009 C   0  0  0  0  0  0  0  0  0  0  0  0
  -26.7384  -17.4774   21.2223 C   0  0  0  0  0  0  0  0  0  0  0  0
  -27.5732  -19.8870   21.1516 C   0  0  0  0  0  0  0  0  0  0  0  0
  -30.5348  -25.9390   20.8404 C   0  0  0  0  0  0  0  0  0  0  0  0
  -24.1113  -29.4143   20.1037 C   0  0  0  0  0  0  0  0  0  0  0  0
  -29.1310  -26.0240   20.7728 C   0  0  0  0  0  0  0  0  0  0  0  0
  -23.4893  -29.7280   21.3206 C   0  0  0  0  0  0  0  0  0  0  0  0
  -18.6472  -24.3730   22.8717 C   0  0  0  0  0  0  0  0  0  0  0  0
  -26.6836  -14.8187   20.3791 C   0  0  0  0  0  0  0  0  0  0  0  0
  -21.4023  -28.8108   20.4761 C   0  0  0  0  0  0  0  0  0  0  0  0
  -27.8700  -12.8864   19.7619 C   0  0  0  0  0  0  0  0  0  0  0  0
  -30.3139  -11.6053   19.3516 C   0  0  0  0  0  0  0  0  0  0  0  0
  -28.7702  -13.3864   18.8211 C   0  0  0  0  0  0  0  0  0  0  0  0
  -26.7658  -18.8507   21.6577 C   0  0  0  0  0  0  0  0  0  0  0  0
  -27.2240  -20.9882   21.8945 C   0  0  0  0  0  0  0  0  0  0  0  0
  -20.5784  -23.1009   23.1053 C   0  0  0  0  0  0  0  0  0  0  0  0
  -28.5513  -19.8568   20.1038 C   0  0  0  0  0  0  0  0  0  0  0  0
  -26.6596  -28.5693   21.8054 C   0  0  0  0  0  0  0  0  0  0  0  0
  -18.5137  -27.2327   21.9781 C   0  0  0  0  0  0  0  0  0  0  0  0
  -26.3974  -31.5852   22.9705 C   0  0  0  0  0  0  0  0  0  0  0  0
  -24.4118  -34.2931   23.5804 C   0  0  0  0  0  0  0  0  0  0  0  0
  -22.2692  -22.4990   24.8732 C   0  0  0  0  0  0  0  0  0  0  0  0
  -31.3052  -26.4651   22.0255 C   0  0  0  0  0  0  0  0  0  0  0  0
  -25.5573  -29.7601   19.8759 C   0  0  0  0  0  0  0  0  0  0  0  0
  -24.2401  -30.3856   22.4485 C   0  0  0  0  0  0  0  0  0  0  0  0
  -30.5100  -27.4475   22.8815 C   0  0  0  0  0  0  0  0  0  0  0  0
  -15.3767  -25.4132   23.9260 C   0  0  0  0  0  0  0  0  0  0  0  0
  -25.5563  -22.2176   26.2121 C   0  0  0  0  0  0  0  0  0  0  0  0
  -29.1096  -26.9070   23.1530 C   0  0  0  0  0  0  0  0  0  0  0  0
  -26.3146  -21.4218   25.1472 C   0  0  0  0  0  0  0  0  0  0  0  0
  -16.0855  -25.1842   22.5796 C   0  0  0  0  0  0  0  0  0  0  0  0
  -16.6748  -24.9675   24.6218 C   0  0  0  0  0  0  0  0  0  0  0  0
  -24.1126  -21.7395   26.3564 C   0  0  0  0  0  0  0  0  0  0  0  0
  -24.1034  -20.8998   24.0404 C   0  0  0  0  0  0  0  0  0  0  0  0
  -28.3267  -26.7227   21.8474 C   0  0  1  0  0  0  0  0  0  0  0  0
  -26.3504  -29.8962   21.1720 C   0  0  1  0  0  0  0  0  0  0  0  0
  -25.5434  -21.3882   23.8132 C   0  0  2  0  0  0  0  0  0  0  0  0
  -17.4581  -25.3497   23.3187 C   0  0  0  0  0  0  0  0  0  0  0  0
  -24.4717  -36.5950   24.5779 C   0  0  0  0  0  0  0  0  0  0  0  0
  -26.3950  -30.3698   25.7692 C   0  0  0  0  0  0  0  0  0  0  0  0
  -25.5134  -32.5462   26.6379 C   0  0  0  0  0  0  0  0  0  0  0  0
  -27.7516  -32.4582   25.5400 C   0  0  0  0  0  0  0  0  0  0  0  0
  -23.6537  -35.5521   21.0115 C   0  0  0  0  0  0  0  0  0  0  0  0
  -17.9763  -26.7950   23.3225 C   0  0  0  0  0  0  0  0  0  0  0  0
  -19.6724  -28.2083   21.9928 C   0  0  0  0  0  0  0  0  0  1  0  0
  -25.6680  -32.2249   24.1271 C   0  0  1  0  0  0  0  0  0  0  0  0
  -24.6140  -35.7725   23.3067 C   0  0  2  0  0  0  0  0  0  0  0  0
  -26.3181  -31.8856   25.4982 C   0  0  0  0  0  0  0  0  0  0  0  0
  -25.9642  -19.2572   22.6457 N   0  0  0  0  0  0  0  0  0  0  0  0
  -26.2662  -20.5611   22.7666 N   0  0  0  0  0  0  0  0  0  0  0  0
  -25.6534  -30.6983   22.1795 N   0  0  0  0  0  0  0  0  0  0  0  0
  -23.4435  -21.7380   25.0537 N   0  0  0  0  0  0  0  0  0  0  0  0
  -27.6458  -22.2705   21.8803 N   0  0  0  0  0  0  0  0  0  0  0  0
  -28.7863  -18.6429   19.4439 N   0  0  0  0  0  0  0  0  0  0  0  0
  -21.7403  -22.4462   23.5840 N   0  0  0  0  0  0  0  0  0  0  0  0
  -27.8385  -27.9974   21.3666 N   0  0  0  0  0  0  0  0  0  0  0  0
  -25.6065  -33.6522   23.8318 N   0  0  0  0  0  0  0  0  0  0  0  0
  -23.6105  -36.2582   22.3178 N   0  3  0  0  0  0  0  0  0  0  0  0
  -29.2095  -20.8724   19.7738 O   0  0  0  0  0  0  0  0  0  0  0  0
  -25.8865  -28.0997   22.6322 O   0  0  0  0  0  0  0  0  0  0  0  0
  -18.0048  -26.8341   20.9308 O   0  0  0  0  0  0  0  0  0  0  0  0
  -27.5815  -31.8678   22.7717 O   0  0  0  0  0  0  0  0  0  0  0  0
  -23.3044  -33.7601   23.5756 O   0  0  0  0  0  0  0  0  0  0  0  0
  -21.7847  -23.1713   25.7871 O   0  0  0  0  0  0  0  0  0  0  0  0
  -26.6568  -13.5217   19.9674 O   0  0  0  0  0  0  0  0  0  0  0  0
  -20.0872  -28.5148   20.6622 O   0  0  0  0  0  0  0  0  0  1  0  0
  -31.4880  -10.9909   19.1557 F   0  0  0  0  0  0  0  0  0  0  0  0
  -28.4672  -14.4825   18.1121 F   0  0  0  0  0  0  0  0  0  0  0  0
  -20.1644  -22.8525   21.4624 S   0  0  0  0  0  0  0  0  0  0  0  0
  1  2  1  0  0  0  0
  1  5  2  0  0  0  0
  2  6  2  0  0  0  0
  3  8  2  0  0  0  0
  3 17  1  0  0  0  0
  4  9  1  0  0  0  0
  4 17  2  0  0  0  0
  5 19  1  0  0  0  0
  6 21  1  0  0  0  0
  7 10  2  0  0  0  0
  7 20  1  0  0  0  0
  8 24  1  0  0  0  0
  9 24  2  0  0  0  0
 10 25  1  0  0  0  0
 11 12  2  0  0  0  0
 11 26  1  0  0  0  0
 12 27  1  0  0  0  0
 13 22  1  0  0  0  0
 13 25  2  0  0  0  0
 14 23  1  0  0  0  0
 14 31  2  0  0  0  0
 15 27  2  0  0  0  0
 15 28  1  0  0  0  0
 16 23  2  0  0  0  0
 16 84  1  0  0  0  0
 17 29  1  0  0  0  0
 18 29  1  0  0  0  0
 18 30  2  0  0  0  0
 18 32  1  0  0  0  0
 19 21  2  0  0  0  0
 19 38  1  0  0  0  0
 20 22  2  0  0  0  0
 20 39  1  0  0  0  0
 21 50  1  0  0  0  0
 22 40  1  0  0  0  0
 23 53  1  0  0  0  0
 24 80  1  0  0  0  0
 25 81  1  0  0  0  0
 26 28  2  0  0  0  0
 26 80  1  0  0  0  0
 27 82  1  0  0  0  0
 28 83  1  0  0  0  0
 29 64  2  0  0  0  0
 30 65  1  0  0  0  0
 30 68  1  0  0  0  0
 31 70  1  0  0  0  0
 31 84  1  0  0  0  0
 32 69  1  0  0  0  0
 32 74  2  0  0  0  0
 33 51  1  0  0  0  0
 33 71  1  0  0  0  0
 33 75  2  0  0  0  0
 34 59  1  0  0  0  0
 34 60  1  0  0  0  0
 34 76  2  0  0  0  0
 35 61  1  0  0  0  0
 35 66  1  0  0  0  0
 35 77  2  0  0  0  0
 36 62  1  0  0  0  0
 36 72  1  0  0  0  0
 36 78  2  0  0  0  0
 37 67  1  0  0  0  0
 37 70  1  0  0  0  0
 37 79  2  0  0  0  0
 38 41  1  0  0  0  0
 39 51  1  0  0  0  0
 40 66  1  0  0  0  0
 41 44  1  0  0  0  0
 42 46  1  0  0  0  0
 42 47  1  0  0  0  0
 43 45  1  0  0  0  0
 43 48  1  0  0  0  0
 44 50  1  0  0  0  0
 45 52  1  0  0  0  0
 46 53  1  0  0  0  0
 47 53  1  0  0  0  0
 48 67  1  0  0  0  0
 49 52  1  0  0  0  0
 49 67  1  0  0  0  0
 50 71  1  0  0  0  0
 51 66  1  0  0  0  0
 52 65  1  0  0  0  0
 53 59  1  0  0  0  0
 54 62  1  0  0  0  0
 55 63  1  0  0  0  0
 56 63  1  0  0  0  0
 57 63  1  0  0  0  0
 58 73  1  0  0  0  0
 60 81  1  0  0  0  0
 61 63  1  0  0  0  0
 61 72  1  0  0  0  0
 62 73  1  0  0  0  0
 64 65  1  0  0  0  0
M  CHG  1  73   1
M  ISO  4  37 100  60 101  70 100  81 101
M  END
> <Batch ID>
0151

> <Smiles>
CNC(C)C(=O)NC(C(=O)N1Cc2cc([101O:1][101CH2:1]C(=O)CC3(c4csc([100NH:0][100C:0](=O)N5CCCC(n6nc(-c7ccc(Oc8ccc(F)cc8F)cc7)c(C(N)=O)c6N)C5)c4)CCC3)ccc2CC1C(=O)NC1CCCc2ccccc21)C(C)(C)C

> <Shape>
0.299

> <Color>
0.078

> <Negative vol penalty>
0.000

$$$$

  -OEChem-04052303243D

 84 93  0     1  0  0  0  0  0999 V2000
  -30.6547  -34.0921   28.4719 C   0  0  0  0  0  0  0  0  0  0  0  0
  -30.9376  -33.1632   27.4757 C   0  0  0  0  0  0  0  0  0  0  0  0
  -23.4036   -9.5902   20.1231 C   0  0  0  0  0  0  0  0  0  0  0  0
  -23.9530   -9.9688   22.4451 C   0  0  0  0  0  0  0  0  0  0  0  0
  -29.3888  -34.1231   29.0554 C   0  0  0  0  0  0  0  0  0  0  0  0
  -29.9550  -32.2639   27.0631 C   0  0  0  0  0  0  0  0  0  0  0  0
  -29.0992  -30.0872   21.4031 C   0  0  0  0  0  0  0  0  0  0  0  0
  -22.7819   -8.3896   20.4659 C   0  0  0  0  0  0  0  0  0  0  0  0
  -23.3312   -8.7682   22.7880 C   0  0  0  0  0  0  0  0  0  0  0  0
  -29.4749  -28.8923   20.7910 C   0  0  0  0  0  0  0  0  0  0  0  0
  -20.1793   -7.6416   23.2536 C   0  0  0  0  0  0  0  0  0  0  0  0
  -19.3324   -7.6455   24.3619 C   0  0  0  0  0  0  0  0  0  0  0  0
  -27.3020  -27.9656   21.2799 C   0  0  0  0  0  0  0  0  0  0  0  0
  -30.4129  -18.4054   20.3398 C   0  0  0  0  0  0  0  0  0  0  0  0
  -28.6120  -18.5986   21.9638 C   0  0  0  0  0  0  0  0  0  0  0  0
  -20.7241   -5.9851   25.4311 C   0  0  0  0  0  0  0  0  0  0  0  0
  -23.9893  -10.3798   21.1127 C   0  0  0  0  0  0  0  0  0  0  0  0
  -24.0402  -12.8953   20.6915 C   0  0  0  0  0  0  0  0  0  0  0  0
  -28.3872  -33.2301   28.6430 C   0  0  0  0  0  0  0  0  0  0  0  0
  -27.8237  -30.2268   21.9689 C   0  0  0  0  0  0  0  0  0  0  0  0
  -28.6749  -32.2821   27.6426 C   0  0  0  0  0  0  0  0  0  0  0  0
  -26.9116  -29.1642   21.8964 C   0  0  0  0  0  0  0  0  0  0  0  0
  -30.3764  -19.7804   20.1995 C   0  0  0  0  0  0  0  0  0  0  0  0
  -29.4964  -20.5745   20.9518 C   0  0  0  0  0  0  0  0  0  0  0  0
  -29.5130  -17.8129   21.2271 C   0  0  0  0  0  0  0  0  0  0  0  0
  -28.6018  -19.9903   21.8310 C   0  0  0  0  0  0  0  0  0  0  0  0
  -22.7456   -7.9786   21.7983 C   0  0  0  0  0  0  0  0  0  0  0  0
  -28.5772  -27.8303   20.7318 C   0  0  0  0  0  0  0  0  0  0  0  0
  -21.2986   -6.8094   23.2339 C   0  0  0  0  0  0  0  0  0  0  0  0
  -19.6048   -6.8173   25.4507 C   0  0  0  0  0  0  0  0  0  0  0  0
  -21.5710   -5.9811   24.3227 C   0  0  0  0  0  0  0  0  0  0  0  0
  -24.6322  -11.6199   20.7591 C   0  0  0  0  0  0  0  0  0  0  0  0
  -25.0640  -13.7295   20.3141 C   0  0  0  0  0  0  0  0  0  0  0  0
  -22.6859  -13.2906   20.9470 C   0  0  0  0  0  0  0  0  0  0  0  0
  -26.7164  -30.7696   24.8986 C   0  0  0  0  0  0  0  0  0  0  0  0
  -23.8628  -30.9453   23.3663 C   0  0  0  0  0  0  0  0  0  0  0  0
  -21.9723  -30.0927   20.6559 C   0  0  0  0  0  0  0  0  0  0  0  0
  -30.3321  -15.4795   20.7470 C   0  0  0  0  0  0  0  0  0  0  0  0
  -27.0484  -33.2705   29.3363 C   0  0  0  0  0  0  0  0  0  0  0  0
  -27.4244  -31.5315   22.6020 C   0  0  0  0  0  0  0  0  0  0  0  0
  -25.5233  -29.2703   22.4706 C   0  0  0  0  0  0  0  0  0  0  0  0
  -25.9482  -32.5305   28.5797 C   0  0  0  0  0  0  0  0  0  0  0  0
  -29.7225  -12.6770   18.6371 C   0  0  0  0  0  0  0  0  0  0  0  0
  -26.4448  -31.1648   28.1161 C   0  0  0  0  0  0  0  0  0  0  0  0
  -28.2951  -12.2571   18.9955 C   0  0  0  0  0  0  0  0  0  0  0  0
  -30.4951  -13.1632   19.8620 C   0  0  0  0  0  0  0  0  0  0  0  0
  -28.4021  -13.7976   20.9961 C   0  0  0  0  0  0  0  0  0  0  0  0
  -30.6737  -21.9361   19.5631 C   0  0  0  0  0  0  0  0  0  0  0  0
  -27.6278  -31.3065   27.1507 C   0  0  1  0  0  0  0  0  0  0  0  0
  -26.2796  -31.3858   23.5997 C   0  0  1  0  0  0  0  0  0  0  0  0
  -27.5638  -13.3616   19.7834 C   0  0  2  0  0  0  0  0  0  0  0  0
  -19.6650  -30.3511   19.7035 C   0  0  0  0  0  0  0  0  0  0  0  0
  -22.8199  -28.8585   25.3329 C   0  0  0  0  0  0  0  0  0  0  0  0
  -20.8904  -28.4667   23.7863 C   0  0  0  0  0  0  0  0  0  0  0  0
  -21.2159  -30.7098   24.8282 C   0  0  0  0  0  0  0  0  0  0  0  0
  -22.9921  -31.5070   18.2646 C   0  0  0  0  0  0  0  0  0  0  0  0
  -29.3103  -24.3076   20.4128 C   0  0  0  0  0  0  0  0  0  0  0  0
  -28.7720  -22.9780   20.9274 C   0  0  0  0  0  0  0  0  0  0  0  0
  -28.3439  -25.4656   20.6318 C   0  0  0  0  0  0  0  0  0  1  0  0
  -22.7855  -29.9548   22.9956 C   0  0  1  0  0  0  0  0  0  0  0  0
  -21.0745  -30.9198   19.7535 C   0  0  2  0  0  0  0  0  0  0  0  0
  -21.9547  -29.4945   24.2265 C   0  0  0  0  0  0  0  0  0  0  0  0
  -25.9314  -11.6374   20.4494 N   0  0  0  0  0  0  0  0  0  0  0  0
  -26.1641  -12.9340   20.1834 N   0  0  0  0  0  0  0  0  0  0  0  0
  -31.2045  -20.5819   19.4075 N   0  0  0  0  0  0  0  0  0  0  0  0
  -29.7009  -21.9146   20.6581 N   0  0  1  0  0  0  0  0  0  0  0  0
  -25.1823  -30.5641   23.0849 N   0  0  0  0  0  0  0  0  0  0  0  0
  -29.7436  -14.2115   20.5556 N   0  0  0  0  0  0  0  0  0  0  0  0
  -27.6930  -20.7414   22.5987 N   0  0  0  0  0  0  0  0  0  0  0  0
  -25.1215  -15.0586   20.0846 N   0  0  0  0  0  0  0  0  0  0  0  0
  -21.7625  -12.3064   21.3251 N   0  0  0  0  0  0  0  0  0  0  0  0
  -29.5108  -16.4053   21.3896 N   0  0  0  0  0  0  0  0  0  0  0  0
  -27.1626  -31.6842   25.8333 N   0  0  0  0  0  0  0  0  0  0  0  0
  -21.9956  -30.5854   21.9435 N   0  0  0  0  0  0  0  0  0  0  0  0
  -21.6192  -30.9486   18.3666 N   0  3  0  0  0  0  0  0  0  0  0  0
  -22.3020  -14.4788   20.8271 O   0  0  0  0  0  0  0  0  0  0  0  0
  -26.6520  -29.5543   25.0426 O   0  0  0  0  0  0  0  0  0  0  0  0
  -23.5446  -32.0208   23.8798 O   0  0  0  0  0  0  0  0  0  0  0  0
  -22.5881  -29.1058   20.2592 O   0  0  0  0  0  0  0  0  0  0  0  0
  -31.4701  -15.7342   20.3444 O   0  0  0  0  0  0  0  0  0  0  0  0
  -22.1388   -6.8072   22.1332 O   0  0  0  0  0  0  0  0  0  0  0  0
  -28.9416  -26.6626   20.1354 O   0  0  0  0  0  0  0  0  0  1  0  0
  -18.7924   -6.8223   26.5156 F   0  0  0  0  0  0  0  0  0  0  0  0
  -22.6454   -5.1803   24.3102 F   0  0  0  0  0  0  0  0  0  0  0  0
  1  2  1  0  0  0  0
  1  5  2  0  0  0  0
  2  6  2  0  0  0  0
  3  8  2  0  0  0  0
  3 17  1  0  0  0  0
  4  9  1  0  0  0  0
  4 17  2  0  0  0  0
  5 19  1  0  0  0  0
  6 21  1  0  0  0  0
  7 10  2  0  0  0  0
  7 20  1  0  0  0  0
  8 27  1  0  0  0  0
  9 27  2  0  0  0  0
 10 28  1  0  0  0  0
 11 12  2  0  0  0  0
 11 29  1  0  0  0  0
 12 30  1  0  0  0  0
 13 22  1  0  0  0  0
 13 28  2  0  0  0  0
 14 23  1  0  0  0  0
 14 25  2  0  0  0  0
 15 25  1  0  0  0  0
 15 26  2  0  0  0  0
 16 30  2  0  0  0  0
 16 31  1  0  0  0  0
 17 32  1  0  0  0  0
 18 32  1  0  0  0  0
 18 33  2  0  0  0  0
 18 34  1  0  0  0  0
 19 21  2  0  0  0  0
 19 39  1  0  0  0  0
 20 22  2  0  0  0  0
 20 40  1  0  0  0  0
 21 49  1  0  0  0  0
 22 41  1  0  0  0  0
 23 24  2  0  0  0  0
 23 65  1  0  0  0  0
 24 26  1  0  0  0  0
 24 66  1  0  0  0  0
 25 72  1  0  0  0  0
 26 69  1  0  0  0  0
 27 81  1  0  0  0  0
 28 82  1  0  0  0  0
 29 31  2  0  0  0  0
 29 81  1  0  0  0  0
 30 83  1  0  0  0  0
 31 84  1  0  0  0  0
 32 63  2  0  0  0  0
 33 64  1  0  0  0  0
 33 70  1  0  0  0  0
 34 71  1  0  0  0  0
 34 76  2  0  0  0  0
 35 50  1  0  0  0  0
 35 73  1  0  0  0  0
 35 77  2  0  0  0  0
 36 60  1  0  0  0  0
 36 67  1  0  0  0  0
 36 78  2  0  0  0  0
 37 61  1  0  0  0  0
 37 74  1  0  0  0  0
 37 79  2  0  0  0  0
 38 68  1  0  0  0  0
 38 72  1  0  0  0  0
 38 80  2  0  0  0  0
 39 42  1  0  0  0  0
 40 50  1  0  0  0  0
 41 67  1  0  0  0  0
 42 44  1  0  0  0  0
 43 45  1  0  0  0  0
 43 46  1  0  0  0  0
 44 49  1  0  0  0  0
 45 51  1  0  0  0  0
 46 68  1  0  0  0  0
 47 51  1  0  0  0  0
 47 68  1  0  0  0  0
 48 65  1  0  0  0  0
 48 66  1  0  0  0  0
 49 73  1  0  0  0  0
 50 67  1  0  0  0  0
 51 64  1  0  0  0  0
 52 61  1  0  0  0  0
 53 62  1  0  0  0  0
 54 62  1  0  0  0  0
 55 62  1  0  0  0  0
 56 75  1  0  0  0  0
 57 58  1  0  0  0  0
 57 59  1  0  0  0  0
 58 66  1  0  0  0  0
 59 82  1  0  0  0  0
 60 62  1  0  0  0  0
 60 74  1  0  0  0  0
 61 75  1  0  0  0  0
 63 64  1  0  0  0  0
M  CHG  1  75   1
M  ISO  4  38 100  59 101  72 100  82 101
M  END
> <Batch ID>
0151

> <Smiles>
CNC(C)C(=O)NC(C(=O)N1Cc2cc([101O:1][101CH2:1]CCN3CNc4cc([100NH:0][100C:0](=O)N5CCCC(n6nc(-c7ccc(Oc8ccc(F)cc8F)cc7)c(C(N)=O)c6N)C5)cc(N)c43)ccc2CC1C(=O)NC1CCCc2ccccc21)C(C)(C)C

> <Shape>
0.355

> <Color>
0.190

> <Negative vol penalty>
0.000

$$$$

  -OEChem-04052303243D

 84 93  0     1  0  0  0  0  0999 V2000
  -17.4202  -30.2718   24.7976 C   0  0  0  0  0  0  0  0  0  0  0  0
  -18.7413  -30.4573   25.1919 C   0  0  0  0  0  0  0  0  0  0  0  0
  -25.3807  -15.6480   21.6043 C   0  0  0  0  0  0  0  0  0  0  0  0
  -25.3851  -15.1786   19.2343 C   0  0  0  0  0  0  0  0  0  0  0  0
  -17.1204  -29.3861   23.7634 C   0  0  0  0  0  0  0  0  0  0  0  0
  -19.7635  -29.7563   24.5529 C   0  0  0  0  0  0  0  0  0  0  0  0
  -25.4396  -31.7516   23.4100 C   0  0  0  0  0  0  0  0  0  0  0  0
  -24.3030  -14.7789   21.7744 C   0  0  0  0  0  0  0  0  0  0  0  0
  -24.3075  -14.3095   19.4044 C   0  0  0  0  0  0  0  0  0  0  0  0
  -26.6531  -31.5551   24.0676 C   0  0  0  0  0  0  0  0  0  0  0  0
  -21.7887  -11.6912   19.2692 C   0  0  0  0  0  0  0  0  0  0  0  0
  -21.8424  -10.4562   18.6232 C   0  0  0  0  0  0  0  0  0  0  0  0
  -31.5097  -27.0085   26.7583 C   0  0  0  0  0  0  0  0  0  0  0  0
  -31.8451  -25.6817   26.3977 C   0  0  0  0  0  0  0  0  0  0  0  0
  -27.1764  -29.7537   22.5510 C   0  0  0  0  0  0  0  0  0  0  0  0
  -23.8587   -9.9090   19.8366 C   0  0  0  0  0  0  0  0  0  0  0  0
  -25.9217  -15.8479   20.3342 C   0  0  0  0  0  0  0  0  0  0  0  0
  -28.4039  -16.4259   20.2235 C   0  0  0  0  0  0  0  0  0  0  0  0
  -18.1403  -28.6811   23.1049 C   0  0  0  0  0  0  0  0  0  0  0  0
  -25.0799  -30.9421   22.3229 C   0  0  0  0  0  0  0  0  0  0  0  0
  -19.4770  -28.8593   23.5098 C   0  0  0  0  0  0  0  0  0  0  0  0
  -25.9589  -29.9436   21.8796 C   0  0  0  0  0  0  0  0  0  0  0  0
  -23.7664  -14.1097   20.6744 C   0  0  0  0  0  0  0  0  0  0  0  0
  -27.5205  -30.5541   23.6400 C   0  0  0  0  0  0  0  0  0  0  0  0
  -22.7701  -12.0352   20.1989 C   0  0  0  0  0  0  0  0  0  0  0  0
  -22.8773   -9.5651   18.9068 C   0  0  0  0  0  0  0  0  0  0  0  0
  -23.8050  -11.1441   20.4826 C   0  0  0  0  0  0  0  0  0  0  0  0
  -27.0346  -16.7459   20.1578 C   0  0  0  0  0  0  0  0  0  0  0  0
  -30.7173  -27.4916   25.7431 C   0  0  0  0  0  0  0  0  0  0  0  0
  -31.2336  -25.4484   25.1879 C   0  0  0  0  0  0  0  0  0  0  0  0
  -29.0465  -17.6167   19.9881 C   0  0  0  0  0  0  0  0  0  0  0  0
  -29.0383  -15.1649   20.4749 C   0  0  0  0  0  0  0  0  0  0  0  0
  -30.0889  -28.7546   25.5562 C   0  0  0  0  0  0  0  0  0  0  0  0
  -22.7152  -28.9021   21.7309 C   0  0  0  0  0  0  0  0  0  0  0  0
  -24.0292  -28.8445   18.7657 C   0  0  0  0  0  0  0  0  0  0  0  0
  -26.7864  -29.3095   16.8090 C   0  0  0  0  0  0  0  0  0  0  0  0
  -29.6715  -23.0190   20.6546 C   0  0  0  0  0  0  0  0  0  0  0  0
  -17.7630  -27.6991   22.0242 C   0  0  0  0  0  0  0  0  0  0  0  0
  -23.7792  -31.1844   21.6074 C   0  0  0  0  0  0  0  0  0  0  0  0
  -25.6287  -29.0609   20.7048 C   0  0  0  0  0  0  0  0  0  0  0  0
  -18.9392  -27.2764   21.1477 C   0  0  0  0  0  0  0  0  0  0  0  0
  -27.2775  -22.0568   18.3544 C   0  0  0  0  0  0  0  0  0  0  0  0
  -20.1476  -26.9243   22.0094 C   0  0  0  0  0  0  0  0  0  0  0  0
  -27.1051  -20.5603   18.6138 C   0  0  0  0  0  0  0  0  0  0  0  0
  -29.7581  -23.7012   24.0963 C   0  0  0  0  0  0  0  0  0  0  0  0
  -31.8161  -24.5502   22.8907 C   0  0  0  0  0  0  0  0  0  0  0  0
  -27.4106  -22.8257   19.6638 C   0  0  0  0  0  0  0  0  0  0  0  0
  -29.7146  -22.5088   23.1363 C   0  0  0  0  0  0  0  0  0  0  0  0
  -31.7399  -23.3287   21.9793 C   0  0  0  0  0  0  0  0  0  0  0  0
  -28.3668  -20.8497   20.8036 C   0  0  0  0  0  0  0  0  0  0  0  0
  -20.6158  -28.1358   22.8245 C   0  0  1  0  0  0  0  0  0  0  0  0
  -31.1878  -24.2467   24.2630 C   0  0  0  0  0  0  0  0  0  0  0  0
  -23.2860  -29.9648   20.8350 C   0  0  1  0  0  0  0  0  0  0  0  0
  -28.2340  -20.0208   19.5098 C   0  0  1  0  0  0  0  0  0  0  0  0
  -27.5622  -29.1479   14.4280 C   0  0  0  0  0  0  0  0  0  0  0  0
  -24.1435  -25.8054   19.0118 C   0  0  0  0  0  0  0  0  0  0  0  0
  -25.7490  -25.7799   17.0908 C   0  0  0  0  0  0  0  0  0  0  0  0
  -23.4317  -26.6441   16.7658 C   0  0  0  0  0  0  0  0  0  0  0  0
  -27.4397  -32.1941   16.7043 C   0  0  0  0  0  0  0  0  0  0  0  0
  -29.2338  -29.0405   24.2954 C   0  0  0  0  0  0  0  0  0  1  0  0
  -25.0939  -28.0194   18.0840 C   0  0  1  0  0  0  0  0  0  0  0  0
  -26.9790  -30.0546   15.5005 C   0  0  2  0  0  0  0  0  0  0  0  0
  -24.6102  -26.5774   17.7615 C   0  0  0  0  0  0  0  0  0  0  0  0
  -26.8190  -18.0388   19.9008 N   0  0  0  0  0  0  0  0  0  0  0  0
  -28.0614  -18.5417   19.8031 N   0  0  0  0  0  0  0  0  0  0  0  0
  -24.3424  -29.3327   20.0421 N   0  0  0  0  0  0  0  0  0  0  0  0
  -28.4899  -22.2812   20.4874 N   0  0  0  0  0  0  0  0  0  0  0  0
  -30.3647  -22.8444   21.8619 N   0  0  0  0  0  0  0  0  0  0  0  0
  -30.3525  -17.9524   19.9233 N   0  0  0  0  0  0  0  0  0  0  0  0
  -28.2290  -14.0423   20.6964 N   0  0  0  0  0  0  0  0  0  0  0  0
  -21.3655  -29.0485   21.9881 N   0  0  0  0  0  0  0  0  0  0  0  0
  -25.5163  -28.7834   16.9151 N   0  0  0  0  0  0  0  0  0  0  0  0
  -27.9017  -31.2090   15.6928 N   0  3  0  0  0  0  0  0  0  0  0  0
  -30.2857  -15.0407   20.5185 O   0  0  0  0  0  0  0  0  0  0  0  0
  -30.1945  -29.6921   26.3973 O   0  0  0  0  0  0  0  0  0  0  0  0
  -23.4450  -28.0143   22.1560 O   0  0  0  0  0  0  0  0  0  0  0  0
  -22.9619  -29.0543   18.1840 O   0  0  0  0  0  0  0  0  0  0  0  0
  -27.6751  -29.2015   17.6511 O   0  0  0  0  0  0  0  0  0  0  0  0
  -30.0839  -23.7879   19.7772 O   0  0  0  0  0  0  0  0  0  0  0  0
  -30.5440  -26.5467   24.7820 O   0  0  0  0  0  0  0  0  0  0  0  0
  -22.7150  -13.2614   20.8401 O   0  0  0  0  0  0  0  0  0  0  0  0
  -28.7161  -30.3579   24.2864 O   0  0  0  0  0  0  0  0  0  1  0  0
  -22.9279   -8.3785   18.2875 F   0  0  0  0  0  0  0  0  0  0  0  0
  -24.7500  -11.4685   21.3757 F   0  0  0  0  0  0  0  0  0  0  0  0
  1  2  1  0  0  0  0
  1  5  2  0  0  0  0
  2  6  2  0  0  0  0
  3  8  2  0  0  0  0
  3 17  1  0  0  0  0
  4  9  1  0  0  0  0
  4 17  2  0  0  0  0
  5 19  1  0  0  0  0
  6 21  1  0  0  0  0
  7 10  2  0  0  0  0
  7 20  1  0  0  0  0
  8 23  1  0  0  0  0
  9 23  2  0  0  0  0
 10 24  1  0  0  0  0
 11 12  2  0  0  0  0
 11 25  1  0  0  0  0
 12 26  1  0  0  0  0
 13 14  1  0  0  0  0
 13 29  2  0  0  0  0
 14 30  2  0  0  0  0
 15 22  1  0  0  0  0
 15 24  2  0  0  0  0
 16 26  2  0  0  0  0
 16 27  1  0  0  0  0
 17 28  1  0  0  0  0
 18 28  1  0  0  0  0
 18 31  2  0  0  0  0
 18 32  1  0  0  0  0
 19 21  2  0  0  0  0
 19 38  1  0  0  0  0
 20 22  2  0  0  0  0
 20 39  1  0  0  0  0
 21 51  1  0  0  0  0
 22 40  1  0  0  0  0
 23 81  1  0  0  0  0
 24 82  1  0  0  0  0
 25 27  2  0  0  0  0
 25 81  1  0  0  0  0
 26 83  1  0  0  0  0
 27 84  1  0  0  0  0
 28 64  2  0  0  0  0
 29 33  1  0  0  0  0
 29 80  1  0  0  0  0
 30 52  1  0  0  0  0
 30 80  1  0  0  0  0
 31 65  1  0  0  0  0
 31 69  1  0  0  0  0
 32 70  1  0  0  0  0
 32 74  2  0  0  0  0
 33 60  1  0  0  0  0
 33 75  2  0  0  0  0
 34 53  1  0  0  0  0
 34 71  1  0  0  0  0
 34 76  2  0  0  0  0
 35 61  1  0  0  0  0
 35 66  1  0  0  0  0
 35 77  2  0  0  0  0
 36 62  1  0  0  0  0
 36 72  1  0  0  0  0
 36 78  2  0  0  0  0
 37 67  1  0  0  0  0
 37 68  1  0  0  0  0
 37 79  2  0  0  0  0
 38 41  1  0  0  0  0
 39 53  1  0  0  0  0
 40 66  1  0  0  0  0
 41 43  1  0  0  0  0
 42 44  1  0  0  0  0
 42 47  1  0  0  0  0
 43 51  1  0  0  0  0
 44 54  1  0  0  0  0
 45 48  1  0  0  0  0
 45 52  1  0  0  0  0
 46 49  1  0  0  0  0
 46 52  1  0  0  0  0
 47 67  1  0  0  0  0
 48 68  1  0  0  0  0
 49 68  1  0  0  0  0
 50 54  1  0  0  0  0
 50 67  1  0  0  0  0
 51 71  1  0  0  0  0
 53 66  1  0  0  0  0
 54 65  1  0  0  0  0
 55 62  1  0  0  0  0
 56 63  1  0  0  0  0
 57 63  1  0  0  0  0
 58 63  1  0  0  0  0
 59 73  1  0  0  0  0
 60 82  1  0  0  0  0
 61 63  1  0  0  0  0
 61 72  1  0  0  0  0
 62 73  1  0  0  0  0
 64 65  1  0  0  0  0
M  CHG  1  73   1
M  ISO  4  37 100  60 101  68 100  82 101
M  END
> <Batch ID>
0151

> <Smiles>
CNC(C)C(=O)NC(C(=O)N1Cc2cc([101O:1][101CH2:1]C(=O)c3ccc(C4CC[100N:0]([100C:0](=O)N5CCCC(n6nc(-c7ccc(Oc8ccc(F)cc8F)cc7)c(C(N)=O)c6N)C5)CC4)o3)ccc2CC1C(=O)NC1CCCc2ccccc21)C(C)(C)C

> <Shape>
0.281

> <Color>
0.087

> <Negative vol penalty>
0.000

$$$$

  -OEChem-04052303243D

 81 89  0     1  0  0  0  0  0999 V2000
  -27.7720  -11.1072   18.8402 C   0  0  0  0  0  0  0  0  0  0  0  0
  -28.0146  -12.4621   18.6385 C   0  0  0  0  0  0  0  0  0  0  0  0
  -18.6777  -25.0198   19.5125 C   0  0  0  0  0  0  0  0  0  0  0  0
  -19.6831  -23.8078   21.3448 C   0  0  0  0  0  0  0  0  0  0  0  0
  -26.6391  -10.7002   19.5436 C   0  0  0  0  0  0  0  0  0  0  0  0
  -27.1238  -13.4109   19.1391 C   0  0  0  0  0  0  0  0  0  0  0  0
  -29.4772  -17.2797   21.4060 C   0  0  0  0  0  0  0  0  0  0  0  0
  -17.9094  -23.9002   19.1934 C   0  0  0  0  0  0  0  0  0  0  0  0
  -18.9148  -22.6881   21.0257 C   0  0  0  0  0  0  0  0  0  0  0  0
  -30.0400  -18.2535   20.5822 C   0  0  0  0  0  0  0  0  0  0  0  0
  -18.9782  -20.1898   18.7486 C   0  0  0  0  0  0  0  0  0  0  0  0
  -19.6170  -18.9500   18.7280 C   0  0  0  0  0  0  0  0  0  0  0  0
  -29.5468  -24.8302   20.2945 C   0  0  0  0  0  0  0  0  0  0  0  0
  -28.1284  -19.6740   20.9655 C   0  0  0  0  0  0  0  0  0  0  0  0
  -18.1230  -18.1516   20.4506 C   0  0  0  0  0  0  0  0  0  0  0  0
  -19.5646  -24.9736   20.5882 C   0  0  0  0  0  0  0  0  0  0  0  0
  -30.6254  -24.1282   19.7055 C   0  0  0  0  0  0  0  0  0  0  0  0
  -20.0158  -27.1740   21.7973 C   0  0  0  0  0  0  0  0  0  0  0  0
  -25.7390  -11.6448   20.0615 C   0  0  0  0  0  0  0  0  0  0  0  0
  -28.2286  -17.4917   22.0081 C   0  0  0  0  0  0  0  0  0  0  0  0
  -25.9770  -13.0161   19.8490 C   0  0  0  0  0  0  0  0  0  0  0  0
  -27.5531  -18.7024   21.7986 C   0  0  0  0  0  0  0  0  0  0  0  0
  -18.0279  -22.7344   19.9500 C   0  0  0  0  0  0  0  0  0  0  0  0
  -29.3643  -19.4497   20.3595 C   0  0  0  0  0  0  0  0  0  0  0  0
  -17.9119  -20.4106   19.6203 C   0  0  0  0  0  0  0  0  0  0  0  0
  -19.1894  -17.9309   19.5790 C   0  0  0  0  0  0  0  0  0  0  0  0
  -17.4842  -19.3915   20.4713 C   0  0  0  0  0  0  0  0  0  0  0  0
  -20.3589  -26.1296   20.9179 C   0  0  0  0  0  0  0  0  0  0  0  0
  -29.9163  -26.1551   20.3100 C   0  0  0  0  0  0  0  0  0  0  0  0
  -21.0975  -28.0199   21.7644 C   0  0  0  0  0  0  0  0  0  0  0  0
  -31.5771  -25.0741   19.4028 C   0  0  0  0  0  0  0  0  0  0  0  0
  -30.7409  -22.6637   19.4487 C   0  0  0  0  0  0  0  0  0  0  0  0
  -18.8258  -27.3627   22.5745 C   0  0  0  0  0  0  0  0  0  0  0  0
  -25.3924  -16.0648   21.8531 C   0  0  0  0  0  0  0  0  0  0  0  0
  -24.6498  -18.1482   24.2259 C   0  0  0  0  0  0  0  0  0  0  0  0
  -25.2974  -21.1140   25.7853 C   0  0  0  0  0  0  0  0  0  0  0  0
  -26.7993  -27.0687   20.5645 C   0  0  0  0  0  0  0  0  0  0  0  0
  -24.5033  -11.1553   20.7744 C   0  0  0  0  0  0  0  0  0  0  0  0
  -27.6474  -16.4423   22.9155 C   0  0  0  0  0  0  0  0  0  0  0  0
  -26.2194  -18.9873   22.4377 C   0  0  0  0  0  0  0  0  0  0  0  0
  -23.8054  -12.2364   21.5957 C   0  0  0  0  0  0  0  0  0  0  0  0
  -24.6478  -29.4488   18.8903 C   0  0  0  0  0  0  0  0  0  0  0  0
  -23.6709  -13.5204   20.7833 C   0  0  0  0  0  0  0  0  0  0  0  0
  -23.2625  -28.9562   19.3126 C   0  0  0  0  0  0  0  0  0  0  0  0
  -25.5990  -28.2811   18.6457 C   0  0  0  0  0  0  0  0  0  0  0  0
  -24.3541  -26.8536   20.2225 C   0  0  0  0  0  0  0  0  0  0  0  0
  -25.0471  -14.0763   20.3980 C   0  0  1  0  0  0  0  0  0  0  0  0
  -26.1333  -16.5540   23.0653 C   0  0  1  0  0  0  0  0  0  0  0  0
  -23.3522  -27.9875   20.5067 C   0  0  2  0  0  0  0  0  0  0  0  0
  -24.4988  -22.5632   27.6720 C   0  0  0  0  0  0  0  0  0  0  0  0
  -22.2622  -19.0236   22.5397 C   0  0  0  0  0  0  0  0  0  0  0  0
  -22.0779  -21.0605   23.9838 C   0  0  0  0  0  0  0  0  0  0  0  0
  -21.7851  -18.7941   24.9839 C   0  0  0  0  0  0  0  0  0  0  0  0
  -27.9052  -20.9430   27.1742 C   0  0  0  0  0  0  0  0  0  0  0  0
  -29.2517  -27.3784   20.7805 C   0  0  0  0  0  0  0  0  0  0  0  0
  -29.5898  -21.7610   19.8468 C   0  0  0  0  0  0  0  0  0  1  0  0
  -24.0932  -19.5504   24.2822 C   0  0  1  0  0  0  0  0  0  0  0  0
  -25.4639  -21.4652   27.2528 C   0  0  2  0  0  0  0  0  0  0  0  0
  -22.5788  -19.6013   23.9337 C   0  0  0  0  0  0  0  0  0  0  0  0
  -21.5641  -26.2948   20.3665 N   0  0  0  0  0  0  0  0  0  0  0  0
  -21.9878  -27.4529   20.9007 N   0  0  0  0  0  0  0  0  0  0  0  0
  -25.6895  -17.9275   23.3116 N   0  0  0  0  0  0  0  0  0  0  0  0
  -25.6531  -27.4079   19.8267 N   0  0  0  0  0  0  0  0  0  0  0  0
  -21.3643  -29.1859   22.3903 N   0  0  0  0  0  0  0  0  0  0  0  0
  -32.7977  -24.9827   18.8333 N   0  0  0  0  0  0  0  0  0  0  0  0
  -17.8131  -26.3975   22.4907 N   0  0  0  0  0  0  0  0  0  0  0  0
  -25.6549  -14.7480   21.5266 N   0  0  0  0  0  0  0  0  0  0  0  0
  -24.4191  -20.0661   25.6074 N   0  0  0  0  0  0  0  0  0  0  0  0
  -27.9902  -27.6298   20.1200 N   0  0  0  0  0  0  0  0  0  0  0  0
  -26.8533  -21.9339   27.5188 N   0  3  0  0  0  0  0  0  0  0  0  0
  -31.7582  -22.2184   18.9224 O   0  0  0  0  0  0  0  0  0  0  0  0
  -18.6584  -28.3661   23.3085 O   0  0  0  0  0  0  0  0  0  0  0  0
  -24.6373  -16.8254   21.2589 O   0  0  0  0  0  0  0  0  0  0  0  0
  -24.1842  -17.2824   24.9711 O   0  0  0  0  0  0  0  0  0  0  0  0
  -25.8847  -21.7121   24.8865 O   0  0  0  0  0  0  0  0  0  0  0  0
  -26.7635  -26.3246   21.5505 O   0  0  0  0  0  0  0  0  0  0  0  0
  -31.1525  -26.3122   19.7681 O   0  0  0  0  0  0  0  0  0  0  0  0
  -17.2782  -21.6418   19.6390 O   0  0  0  0  0  0  0  0  0  0  0  0
  -29.9111  -20.4016   19.5553 O   0  0  0  0  0  0  0  0  0  1  0  0
  -19.8019  -16.7399   19.5579 F   0  0  0  0  0  0  0  0  0  0  0  0
  -16.4596  -19.5972   21.3101 F   0  0  0  0  0  0  0  0  0  0  0  0
  1  2  1  0  0  0  0
  1  5  2  0  0  0  0
  2  6  2  0  0  0  0
  3  8  2  0  0  0  0
  3 16  1  0  0  0  0
  4  9  1  0  0  0  0
  4 16  2  0  0  0  0
  5 19  1  0  0  0  0
  6 21  1  0  0  0  0
  7 10  2  0  0  0  0
  7 20  1  0  0  0  0
  8 23  1  0  0  0  0
  9 23  2  0  0  0  0
 10 24  1  0  0  0  0
 11 12  2  0  0  0  0
 11 25  1  0  0  0  0
 12 26  1  0  0  0  0
 13 17  1  0  0  0  0
 13 29  2  0  0  0  0
 14 22  1  0  0  0  0
 14 24  2  0  0  0  0
 15 26  2  0  0  0  0
 15 27  1  0  0  0  0
 16 28  1  0  0  0  0
 17 31  2  0  0  0  0
 17 32  1  0  0  0  0
 18 28  1  0  0  0  0
 18 30  2  0  0  0  0
 18 33  1  0  0  0  0
 19 21  2  0  0  0  0
 19 38  1  0  0  0  0
 20 22  2  0  0  0  0
 20 39  1  0  0  0  0
 21 47  1  0  0  0  0
 22 40  1  0  0  0  0
 23 78  1  0  0  0  0
 24 79  1  0  0  0  0
 25 27  2  0  0  0  0
 25 78  1  0  0  0  0
 26 80  1  0  0  0  0
 27 81  1  0  0  0  0
 28 60  2  0  0  0  0
 29 55  1  0  0  0  0
 29 77  1  0  0  0  0
 30 61  1  0  0  0  0
 30 64  1  0  0  0  0
 31 65  1  0  0  0  0
 31 77  1  0  0  0  0
 32 56  1  0  0  0  0
 32 71  2  0  0  0  0
 33 66  1  0  0  0  0
 33 72  2  0  0  0  0
 34 48  1  0  0  0  0
 34 67  1  0  0  0  0
 34 73  2  0  0  0  0
 35 57  1  0  0  0  0
 35 62  1  0  0  0  0
 35 74  2  0  0  0  0
 36 58  1  0  0  0  0
 36 68  1  0  0  0  0
 36 75  2  0  0  0  0
 37 63  1  0  0  0  0
 37 69  1  0  0  0  0
 37 76  2  0  0  0  0
 38 41  1  0  0  0  0
 39 48  1  0  0  0  0
 40 62  1  0  0  0  0
 41 43  1  0  0  0  0
 42 44  1  0  0  0  0
 42 45  1  0  0  0  0
 43 47  1  0  0  0  0
 44 49  1  0  0  0  0
 45 63  1  0  0  0  0
 46 49  1  0  0  0  0
 46 63  1  0  0  0  0
 47 67  1  0  0  0  0
 48 62  1  0  0  0  0
 49 61  1  0  0  0  0
 50 58  1  0  0  0  0
 51 59  1  0  0  0  0
 52 59  1  0  0  0  0
 53 59  1  0  0  0  0
 54 70  1  0  0  0  0
 55 69  1  0  0  0  0
 56 79  1  0  0  0  0
 57 59  1  0  0  0  0
 57 68  1  0  0  0  0
 58 70  1  0  0  0  0
 60 61  1  0  0  0  0
M  CHG  1  70   1
M  ISO  4  37 100  56 101  69 100  79 101
M  END
> <Batch ID>
0151

> <Smiles>
CNC(C)C(=O)NC(C(=O)N1Cc2cc([101O:1][101CH2:1]C(=O)c3cc(C[100NH:0][100C:0](=O)N4CCCC(n5nc(-c6ccc(Oc7ccc(F)cc7F)cc6)c(C(N)=O)c5N)C4)oc3N)ccc2CC1C(=O)NC1CCCc2ccccc21)C(C)(C)C

> <Shape>
0.217

> <Color>
0.055

> <Negative vol penalty>
0.000

$$$$

  -OEChem-04052303243D

 85 94  0     1  0  0  0  0  0999 V2000
  -23.6164  -20.7357   19.7746 C   0  0  0  0  0  0  0  0  0  0  0  0
  -24.5990  -19.8603   19.3234 C   0  0  0  0  0  0  0  0  0  0  0  0
  -27.3093  -28.4878   20.5165 C   0  0  0  0  0  0  0  0  0  0  0  0
  -25.7075  -26.7391   20.0547 C   0  0  0  0  0  0  0  0  0  0  0  0
  -22.9997  -20.5151   21.0054 C   0  0  0  0  0  0  0  0  0  0  0  0
  -24.9664  -18.7644   20.1035 C   0  0  0  0  0  0  0  0  0  0  0  0
  -26.6705  -13.2309   18.1080 C   0  0  0  0  0  0  0  0  0  0  0  0
  -26.2856  -29.4346   20.4823 C   0  0  0  0  0  0  0  0  0  0  0  0
  -24.6837  -27.6859   20.0205 C   0  0  0  0  0  0  0  0  0  0  0  0
  -27.9220  -12.6448   17.9232 C   0  0  0  0  0  0  0  0  0  0  0  0
  -24.0405  -32.2667   20.8743 C   0  0  0  0  0  0  0  0  0  0  0  0
  -24.0156  -33.2315   21.8813 C   0  0  0  0  0  0  0  0  0  0  0  0
  -27.7504  -11.6084   20.0948 C   0  0  0  0  0  0  0  0  0  0  0  0
  -31.0805  -15.9197   18.3534 C   0  0  0  0  0  0  0  0  0  0  0  0
  -23.8058  -31.4910   23.5438 C   0  0  0  0  0  0  0  0  0  0  0  0
  -27.0202  -27.1400   20.3026 C   0  0  0  0  0  0  0  0  0  0  0  0
  -28.5360  -25.4449   21.4588 C   0  0  0  0  0  0  0  0  0  0  0  0
  -23.3529  -19.4106   21.7965 C   0  0  0  0  0  0  0  0  0  0  0  0
  -25.9532  -13.0186   19.2941 C   0  0  0  0  0  0  0  0  0  0  0  0
  -24.3549  -18.5297   21.3467 C   0  0  0  0  0  0  0  0  0  0  0  0
  -26.4889  -12.1909   20.2910 C   0  0  0  0  0  0  0  0  0  0  0  0
  -31.2869  -16.8433   19.4058 C   0  0  0  0  0  0  0  0  0  0  0  0
  -24.9728  -29.0337   20.2344 C   0  0  0  0  0  0  0  0  0  0  0  0
  -28.4634  -11.8358   18.9179 C   0  0  0  0  0  0  0  0  0  0  0  0
  -23.9480  -30.9140   21.2020 C   0  0  0  0  0  0  0  0  0  0  0  0
  -23.8983  -32.8437   23.2161 C   0  0  0  0  0  0  0  0  0  0  0  0
  -23.8307  -30.5261   22.5367 C   0  0  0  0  0  0  0  0  0  0  0  0
  -28.0774  -26.1615   20.3372 C   0  0  0  0  0  0  0  0  0  0  0  0
  -31.7655  -16.1117   20.4677 C   0  0  0  0  0  0  0  0  0  0  0  0
  -29.5436  -24.6499   20.9697 C   0  0  0  0  0  0  0  0  0  0  0  0
  -31.4479  -14.6896   18.8472 C   0  0  0  0  0  0  0  0  0  0  0  0
  -28.0910  -25.4935   22.8209 C   0  0  0  0  0  0  0  0  0  0  0  0
  -24.8893  -14.8851   21.6368 C   0  0  0  0  0  0  0  0  0  0  0  0
  -23.4813  -12.1453   22.6534 C   0  0  0  0  0  0  0  0  0  0  0  0
  -23.4577   -8.7327   22.6680 C   0  0  0  0  0  0  0  0  0  0  0  0
  -31.5224  -21.2061   17.0552 C   0  0  0  0  0  0  0  0  0  0  0  0
  -22.6919  -19.2399   23.1414 C   0  0  0  0  0  0  0  0  0  0  0  0
  -24.5927  -13.6365   19.4667 C   0  0  0  0  0  0  0  0  0  0  0  0
  -25.7502  -11.9150   21.5742 C   0  0  0  0  0  0  0  0  0  0  0  0
  -22.8733  -17.8460   23.7367 C   0  0  0  0  0  0  0  0  0  0  0  0
  -31.9162  -24.6766   16.5230 C   0  0  0  0  0  0  0  0  0  0  0  0
  -24.3277  -17.4011   23.6208 C   0  0  0  0  0  0  0  0  0  0  0  0
  -30.9696  -25.3218   17.5315 C   0  0  0  0  0  0  0  0  0  0  0  0
  -29.5999  -18.7822   19.0257 C   0  0  0  0  0  0  0  0  0  0  0  0
  -31.3089  -23.4038   15.9486 C   0  0  0  0  0  0  0  0  0  0  0  0
  -29.7768  -20.2522   18.6700 C   0  0  0  0  0  0  0  0  0  0  0  0
  -31.8405  -19.0910   18.3029 C   0  0  0  0  0  0  0  0  0  0  0  0
  -30.0203  -23.0105   18.0306 C   0  0  0  0  0  0  0  0  0  0  0  0
  -31.0307  -18.3336   19.3647 C   0  0  2  0  0  0  0  0  0  0  0  0
  -24.7632  -17.3158   22.1529 C   0  0  1  0  0  0  0  0  0  0  0  0
  -24.1772  -13.7674   20.9288 C   0  0  1  0  0  0  0  0  0  0  0  0
  -30.5801  -24.3181   18.6278 C   0  0  2  0  0  0  0  0  0  0  0  0
  -32.1732  -16.4649   21.8352 C   0  0  0  0  0  0  0  0  0  0  0  0
  -22.2079   -6.7754   23.6191 C   0  0  0  0  0  0  0  0  0  0  0  0
  -31.1123  -10.3228   20.4036 C   0  0  0  0  0  0  0  0  0  0  0  0
  -24.8158  -12.6105   25.3576 C   0  0  0  0  0  0  0  0  0  0  0  0
  -24.3325  -10.2212   25.9287 C   0  0  0  0  0  0  0  0  0  0  0  0
  -22.4531  -11.8005   25.4857 C   0  0  0  0  0  0  0  0  0  0  0  0
  -22.7234   -7.7453   19.9764 C   0  0  0  0  0  0  0  0  0  0  0  0
  -31.8876  -12.2363   18.9656 C   0  0  0  0  0  0  0  0  0  0  0  0
  -23.8861  -11.0077   23.5595 C   0  0  1  0  0  0  0  0  0  0  0  0
  -22.3381   -7.7321   22.4442 C   0  0  2  0  0  0  0  0  0  0  0  0
  -30.7014  -11.6010   19.6873 C   0  0  1  0  0  0  0  0  0  1  0  0
  -23.8869  -11.4165   25.0596 C   0  0  0  0  0  0  0  0  0  0  0  0
  -28.7394  -25.8495   19.2199 N   0  0  0  0  0  0  0  0  0  0  0  0
  -29.6244  -24.9281   19.6370 N   0  0  0  0  0  0  0  0  0  0  0  0
  -24.4263  -12.5469   21.6987 N   0  0  0  0  0  0  0  0  0  0  0  0
  -30.9153  -22.4657   17.0014 N   0  0  0  0  0  0  0  0  0  0  0  0
  -31.0940  -20.3173   18.0404 N   0  0  0  0  0  0  0  0  0  0  0  0
  -30.3597  -23.7471   21.5540 N   0  0  0  0  0  0  0  0  0  0  0  0
  -27.0448  -26.3656   23.1513 N   0  0  0  0  0  0  0  0  0  0  0  0
  -31.4588  -13.4620   18.2883 N   0  0  0  0  0  0  0  0  0  0  0  0
  -24.2513  -16.1072   21.5433 N   0  0  0  0  0  0  0  0  0  0  0  0
  -22.9946   -9.8970   23.2434 N   0  0  0  0  0  0  0  0  0  0  0  0
  -22.5964   -6.9325   21.2134 N   0  3  0  0  0  0  0  0  0  0  0  0
  -28.6168  -24.7965   23.7215 O   0  0  0  0  0  0  0  0  0  0  0  0
  -25.9392  -14.6554   22.2256 O   0  0  0  0  0  0  0  0  0  0  0  0
  -22.3650  -12.6539   22.7829 O   0  0  0  0  0  0  0  0  0  0  0  0
  -24.6267   -8.5028   22.3662 O   0  0  0  0  0  0  0  0  0  0  0  0
  -32.3839  -20.8721   16.2306 O   0  0  0  0  0  0  0  0  0  0  0  0
  -31.8667  -14.7980   20.1354 O   0  0  0  0  0  0  0  0  0  0  0  0
  -23.9736  -29.9572   20.2012 O   0  0  0  0  0  0  0  0  0  0  0  0
  -29.6918  -11.2598   18.7394 O   0  0  0  0  0  0  0  0  0  1  0  0
  -23.8760  -33.7702   24.1831 F   0  0  0  0  0  0  0  0  0  0  0  0
  -23.7426  -29.2281   22.8578 F   0  0  0  0  0  0  0  0  0  0  0  0
  1  2  1  0  0  0  0
  1  5  2  0  0  0  0
  2  6  2  0  0  0  0
  3  8  2  0  0  0  0
  3 16  1  0  0  0  0
  4  9  1  0  0  0  0
  4 16  2  0  0  0  0
  5 18  1  0  0  0  0
  6 20  1  0  0  0  0
  7 10  2  0  0  0  0
  7 19  1  0  0  0  0
  8 23  1  0  0  0  0
  9 23  2  0  0  0  0
 10 24  1  0  0  0  0
 11 12  2  0  0  0  0
 11 25  1  0  0  0  0
 12 26  1  0  0  0  0
 13 21  1  0  0  0  0
 13 24  2  0  0  0  0
 14 22  1  0  0  0  0
 14 31  2  0  0  0  0
 15 26  2  0  0  0  0
 15 27  1  0  0  0  0
 16 28  1  0  0  0  0
 17 28  1  0  0  0  0
 17 30  2  0  0  0  0
 17 32  1  0  0  0  0
 18 20  2  0  0  0  0
 18 37  1  0  0  0  0
 19 21  2  0  0  0  0
 19 38  1  0  0  0  0
 20 50  1  0  0  0  0
 21 39  1  0  0  0  0
 22 29  2  0  0  0  0
 22 49  1  0  0  0  0
 23 82  1  0  0  0  0
 24 83  1  0  0  0  0
 25 27  2  0  0  0  0
 25 82  1  0  0  0  0
 26 84  1  0  0  0  0
 27 85  1  0  0  0  0
 28 65  2  0  0  0  0
 29 53  1  0  0  0  0
 29 81  1  0  0  0  0
 30 66  1  0  0  0  0
 30 70  1  0  0  0  0
 31 72  1  0  0  0  0
 31 81  1  0  0  0  0
 32 71  1  0  0  0  0
 32 76  2  0  0  0  0
 33 51  1  0  0  0  0
 33 73  1  0  0  0  0
 33 77  2  0  0  0  0
 34 61  1  0  0  0  0
 34 67  1  0  0  0  0
 34 78  2  0  0  0  0
 35 62  1  0  0  0  0
 35 74  1  0  0  0  0
 35 79  2  0  0  0  0
 36 68  1  0  0  0  0
 36 69  1  0  0  0  0
 36 80  2  0  0  0  0
 37 40  1  0  0  0  0
 38 51  1  0  0  0  0
 39 67  1  0  0  0  0
 40 42  1  0  0  0  0
 41 43  1  0  0  0  0
 41 45  1  0  0  0  0
 42 50  1  0  0  0  0
 43 52  1  0  0  0  0
 44 46  1  0  0  0  0
 44 49  1  0  0  0  0
 45 68  1  0  0  0  0
 46 69  1  0  0  0  0
 47 49  1  0  0  0  0
 47 69  1  0  0  0  0
 48 52  1  0  0  0  0
 48 68  1  0  0  0  0
 50 73  1  0  0  0  0
 51 67  1  0  0  0  0
 52 66  1  0  0  0  0
 54 62  1  0  0  0  0
 55 63  1  0  0  0  0
 56 64  1  0  0  0  0
 57 64  1  0  0  0  0
 58 64  1  0  0  0  0
 59 75  1  0  0  0  0
 60 63  1  0  0  0  0
 60 72  1  0  0  0  0
 61 64  1  0  0  0  0
 61 74  1  0  0  0  0
 62 75  1  0  0  0  0
 63 83  1  0  0  0  0
 65 66  1  0  0  0  0
M  CHG  1  75   1
M  ISO  4  36 100  63 101  69 100  83 101
M  END
> <Batch ID>
0151

> <Smiles>
CNC(C)C(=O)NC(C(=O)N1Cc2cc([101O:1][101CH:1](C)CNc3cc(C4CC[100N:0]([100C:0](=O)N5CCCC(n6nc(-c7ccc(Oc8ccc(F)cc8F)cc7)c(C(N)=O)c6N)C5)C4)c(C)o3)ccc2CC1C(=O)NC1CCCc2ccccc21)C(C)(C)C

> <Shape>
0.256

> <Color>
0.060

> <Negative vol penalty>
0.000

$$$$

  -OEChem-04052303243D

 84 93  0     1  0  0  0  0  0999 V2000
  -24.4089  -32.8044   13.4469 C   0  0  0  0  0  0  0  0  0  0  0  0
  -25.2787  -31.7549   13.7255 C   0  0  0  0  0  0  0  0  0  0  0  0
  -24.4622   -9.4211   21.2985 C   0  0  0  0  0  0  0  0  0  0  0  0
  -24.9110  -10.3814   23.4695 C   0  0  0  0  0  0  0  0  0  0  0  0
  -24.2118  -33.8136   14.3885 C   0  0  0  0  0  0  0  0  0  0  0  0
  -25.9527  -31.7147   14.9455 C   0  0  0  0  0  0  0  0  0  0  0  0
  -27.4258  -26.7238   18.1747 C   0  0  0  0  0  0  0  0  0  0  0  0
  -24.1834   -8.1935   21.8991 C   0  0  0  0  0  0  0  0  0  0  0  0
  -24.6321   -9.1538   24.0702 C   0  0  0  0  0  0  0  0  0  0  0  0
  -28.6074  -25.9917   18.2830 C   0  0  0  0  0  0  0  0  0  0  0  0
  -21.6117   -6.7612   23.5628 C   0  0  0  0  0  0  0  0  0  0  0  0
  -20.4785   -6.0713   23.1321 C   0  0  0  0  0  0  0  0  0  0  0  0
  -29.1834  -27.2271   20.2732 C   0  0  0  0  0  0  0  0  0  0  0  0
  -29.5304  -19.9761   20.4564 C   0  0  0  0  0  0  0  0  0  0  0  0
  -21.8663   -4.2110   22.4609 C   0  0  0  0  0  0  0  0  0  0  0  0
  -27.4363  -19.8030   21.4500 C   0  0  0  0  0  0  0  0  0  0  0  0
  -24.8260  -10.5151   22.0837 C   0  0  0  0  0  0  0  0  0  0  0  0
  -24.2055  -12.8232   21.1920 C   0  0  0  0  0  0  0  0  0  0  0  0
  -24.8763  -33.7806   15.6246 C   0  0  0  0  0  0  0  0  0  0  0  0
  -27.1189  -27.7223   19.1102 C   0  0  0  0  0  0  0  0  0  0  0  0
  -25.7652  -32.7251   15.9040 C   0  0  0  0  0  0  0  0  0  0  0  0
  -27.9961  -27.9688   20.1760 C   0  0  0  0  0  0  0  0  0  0  0  0
  -28.5053  -19.1071   20.9298 C   0  0  0  0  0  0  0  0  0  0  0  0
  -24.2683   -8.0598   23.2849 C   0  0  0  0  0  0  0  0  0  0  0  0
  -29.4877  -26.2453   19.3307 C   0  0  0  0  0  0  0  0  0  0  0  0
  -22.8722   -6.1761   23.4426 C   0  0  0  0  0  0  0  0  0  0  0  0
  -20.6058   -4.7962   22.5812 C   0  0  0  0  0  0  0  0  0  0  0  0
  -22.9995   -4.9010   22.8917 C   0  0  0  0  0  0  0  0  0  0  0  0
  -25.1147  -11.7834   21.4638 C   0  0  0  0  0  0  0  0  0  0  0  0
  -29.2057  -21.3033   20.6326 C   0  0  0  0  0  0  0  0  0  0  0  0
  -24.9687  -13.8013   20.6026 C   0  0  0  0  0  0  0  0  0  0  0  0
  -22.7971  -12.8984   21.4494 C   0  0  0  0  0  0  0  0  0  0  0  0
  -30.0712  -22.4280   20.2348 C   0  0  0  0  0  0  0  0  0  0  0  0
  -26.6600  -30.8645   18.9684 C   0  0  0  0  0  0  0  0  0  0  0  0
  -25.8537  -30.4947   22.0886 C   0  0  0  0  0  0  0  0  0  0  0  0
  -26.1162  -28.6540   24.9503 C   0  0  0  0  0  0  0  0  0  0  0  0
  -29.5887  -16.9009   20.3775 C   0  0  0  0  0  0  0  0  0  0  0  0
  -24.6673  -34.9188   16.5917 C   0  0  0  0  0  0  0  0  0  0  0  0
  -25.8276  -28.4849   18.9945 C   0  0  0  0  0  0  0  0  0  0  0  0
  -27.7033  -29.0160   21.2181 C   0  0  0  0  0  0  0  0  0  0  0  0
  -25.1334  -34.6054   18.0111 C   0  0  0  0  0  0  0  0  0  0  0  0
  -29.7256  -13.6750   18.8768 C   0  0  0  0  0  0  0  0  0  0  0  0
  -32.0523  -23.3731   23.1148 C   0  0  0  0  0  0  0  0  0  0  0  0
  -26.5169  -33.9633   17.9891 C   0  0  0  0  0  0  0  0  0  0  0  0
  -28.4634  -12.9808   19.3937 C   0  0  0  0  0  0  0  0  0  0  0  0
  -32.8909  -23.8973   21.9538 C   0  0  0  0  0  0  0  0  0  0  0  0
  -31.1137  -22.3684   22.4588 C   0  0  0  0  0  0  0  0  0  0  0  0
  -30.3520  -14.5771   19.9387 C   0  0  0  0  0  0  0  0  0  0  0  0
  -28.1752  -14.8621   21.0564 C   0  0  0  0  0  0  0  0  0  0  0  0
  -26.4957  -32.6332   17.2262 C   0  0  1  0  0  0  0  0  0  0  0  0
  -25.8622  -29.8308   19.7119 C   0  0  1  0  0  0  0  0  0  0  0  0
  -27.4722  -13.9929   20.0010 C   0  0  2  0  0  0  0  0  0  0  0  0
  -31.8991  -23.9978   20.7909 C   0  0  2  0  0  0  0  0  0  0  0  0
  -25.3761  -28.6239   27.3480 C   0  0  0  0  0  0  0  0  0  0  0  0
  -27.8974  -32.6635   22.7441 C   0  0  0  0  0  0  0  0  0  0  0  0
  -27.8066  -31.9284   25.1357 C   0  0  0  0  0  0  0  0  0  0  0  0
  -25.7579  -32.8235   24.0292 C   0  0  0  0  0  0  0  0  0  0  0  0
  -24.6894  -26.0851   24.5986 C   0  0  0  0  0  0  0  0  0  0  0  0
  -31.1572  -25.3254   20.7530 C   0  0  0  0  0  0  0  0  0  1  0  0
  -26.6045  -30.5264   23.3978 C   0  0  1  0  0  0  0  0  0  0  0  0
  -25.0675  -28.1631   25.9320 C   0  0  2  0  0  0  0  0  0  0  0  0
  -27.0233  -31.9670   23.8061 C   0  0  0  0  0  0  0  0  0  0  0  0
  -26.3602  -12.0736   21.0785 N   0  0  0  0  0  0  0  0  0  0  0  0
  -26.2391  -13.3069   20.5585 N   0  0  0  0  0  0  0  0  0  0  0  0
  -30.9502  -22.9075   21.0976 N   0  0  0  0  0  0  0  0  0  0  0  0
  -26.4310  -29.7394   21.0581 N   0  0  0  0  0  0  0  0  0  0  0  0
  -29.3554  -15.5121   20.4655 N   0  0  0  0  0  0  0  0  0  0  0  0
  -24.6704  -15.0273   20.1227 N   0  0  0  0  0  0  0  0  0  0  0  0
  -22.1705  -11.8045   22.0619 N   0  0  0  0  0  0  0  0  0  0  0  0
  -28.5569  -17.6919   20.8817 N   0  0  0  0  0  0  0  0  0  0  0  0
  -25.9252  -31.5879   18.0486 N   0  0  0  0  0  0  0  0  0  0  0  0
  -25.7537  -29.8525   24.3727 N   0  0  0  0  0  0  0  0  0  0  0  0
  -29.9553  -22.9415   19.0137 N   0  3  0  0  0  0  0  0  0  0  0  0
  -25.0081  -26.6740   25.9248 N   0  3  0  0  0  0  0  0  0  0  0  0
  -22.1113  -13.8991   21.1303 O   0  0  0  0  0  0  0  0  0  0  0  0
  -27.8536  -30.9969   19.2123 O   0  0  0  0  0  0  0  0  0  0  0  0
  -24.7903  -31.1115   21.9862 O   0  0  0  0  0  0  0  0  0  0  0  0
  -27.1548  -28.0380   24.7218 O   0  0  0  0  0  0  0  0  0  0  0  0
  -30.6153  -17.3554   19.8661 O   0  0  0  0  0  0  0  0  0  0  0  0
  -23.9961   -6.8621   23.8714 O   0  0  0  0  0  0  0  0  0  0  0  0
  -30.6420  -25.5325   19.4384 O   0  0  0  0  0  0  0  0  0  1  0  0
  -19.5174   -4.1331   22.1690 F   0  0  0  0  0  0  0  0  0  0  0  0
  -24.2077   -4.3332   22.7747 F   0  0  0  0  0  0  0  0  0  0  0  0
  -27.6707  -21.4973   21.3663 S   0  0  0  0  0  0  0  0  0  0  0  0
  1  2  1  0  0  0  0
  1  5  2  0  0  0  0
  2  6  2  0  0  0  0
  3  8  2  0  0  0  0
  3 17  1  0  0  0  0
  4  9  1  0  0  0  0
  4 17  2  0  0  0  0
  5 19  1  0  0  0  0
  6 21  1  0  0  0  0
  7 10  2  0  0  0  0
  7 20  1  0  0  0  0
  8 24  1  0  0  0  0
  9 24  2  0  0  0  0
 10 25  1  0  0  0  0
 11 12  2  0  0  0  0
 11 26  1  0  0  0  0
 12 27  1  0  0  0  0
 13 22  1  0  0  0  0
 13 25  2  0  0  0  0
 14 23  1  0  0  0  0
 14 30  2  0  0  0  0
 15 27  2  0  0  0  0
 15 28  1  0  0  0  0
 16 23  2  0  0  0  0
 16 84  1  0  0  0  0
 17 29  1  0  0  0  0
 18 29  1  0  0  0  0
 18 31  2  0  0  0  0
 18 32  1  0  0  0  0
 19 21  2  0  0  0  0
 19 38  1  0  0  0  0
 20 22  2  0  0  0  0
 20 39  1  0  0  0  0
 21 50  1  0  0  0  0
 22 40  1  0  0  0  0
 23 70  1  0  0  0  0
 24 80  1  0  0  0  0
 25 81  1  0  0  0  0
 26 28  2  0  0  0  0
 26 80  1  0  0  0  0
 27 82  1  0  0  0  0
 28 83  1  0  0  0  0
 29 63  2  0  0  0  0
 30 33  1  0  0  0  0
 30 84  1  0  0  0  0
 31 64  1  0  0  0  0
 31 68  1  0  0  0  0
 32 69  1  0  0  0  0
 32 75  2  0  0  0  0
 33 65  1  0  0  0  0
 33 73  2  0  0  0  0
 34 51  1  0  0  0  0
 34 71  1  0  0  0  0
 34 76  2  0  0  0  0
 35 60  1  0  0  0  0
 35 66  1  0  0  0  0
 35 77  2  0  0  0  0
 36 61  1  0  0  0  0
 36 72  1  0  0  0  0
 36 78  2  0  0  0  0
 37 67  1  0  0  0  0
 37 70  1  0  0  0  0
 37 79  2  0  0  0  0
 38 41  1  0  0  0  0
 39 51  1  0  0  0  0
 40 66  1  0  0  0  0
 41 44  1  0  0  0  0
 42 45  1  0  0  0  0
 42 48  1  0  0  0  0
 43 46  1  0  0  0  0
 43 47  1  0  0  0  0
 44 50  1  0  0  0  0
 45 52  1  0  0  0  0
 46 53  1  0  0  0  0
 47 65  1  0  0  0  0
 48 67  1  0  0  0  0
 49 52  1  0  0  0  0
 49 67  1  0  0  0  0
 50 71  1  0  0  0  0
 51 66  1  0  0  0  0
 52 64  1  0  0  0  0
 53 59  1  0  0  0  0
 53 65  1  0  0  0  0
 54 61  1  0  0  0  0
 55 62  1  0  0  0  0
 56 62  1  0  0  0  0
 57 62  1  0  0  0  0
 58 74  1  0  0  0  0
 59 81  1  0  0  0  0
 60 62  1  0  0  0  0
 60 72  1  0  0  0  0
 61 74  1  0  0  0  0
 63 64  1  0  0  0  0
M  CHG  2  73   1  74   1
M  ISO  4  37 100  59 101  70 100  81 101
M  END
> <Batch ID>
0151

> <Smiles>
CNC(C)C(=O)NC(C(=O)N1Cc2cc([101O:1][101CH2:1]C3CCCN3C(=N)c3cc([100NH:0][100C:0](=O)N4CCCC(n5nc(-c6ccc(Oc7ccc(F)cc7F)cc6)c(C(N)=O)c5N)C4)cs3)ccc2CC1C(=O)NC1CCCc2ccccc21)C(C)(C)C

> <Shape>
0.298

> <Color>
0.123

> <Negative vol penalty>
0.000

$$$$

  -OEChem-04052303243D

 83 92  0     1  0  0  0  0  0999 V2000
  -22.5370  -37.2377   17.6260 C   0  0  0  0  0  0  0  0  0  0  0  0
  -22.8206  -35.9754   17.1147 C   0  0  0  0  0  0  0  0  0  0  0  0
  -23.4846  -10.1960   21.9317 C   0  0  0  0  0  0  0  0  0  0  0  0
  -24.7099   -8.3526   20.9636 C   0  0  0  0  0  0  0  0  0  0  0  0
  -23.1584  -37.6701   18.7968 C   0  0  0  0  0  0  0  0  0  0  0  0
  -23.7268  -35.1451   17.7733 C   0  0  0  0  0  0  0  0  0  0  0  0
  -25.0055  -28.2241   19.1083 C   0  0  0  0  0  0  0  0  0  0  0  0
  -22.2924   -9.4918   21.7638 C   0  0  0  0  0  0  0  0  0  0  0  0
  -23.5177   -7.6483   20.7957 C   0  0  0  0  0  0  0  0  0  0  0  0
  -26.0253  -27.2787   19.0094 C   0  0  0  0  0  0  0  0  0  0  0  0
  -20.8371   -5.2176   20.4429 C   0  0  0  0  0  0  0  0  0  0  0  0
  -20.8217   -3.8711   20.8067 C   0  0  0  0  0  0  0  0  0  0  0  0
  -26.9785  -28.1004   21.0674 C   0  0  0  0  0  0  0  0  0  0  0  0
  -29.8404  -21.0798   20.2462 C   0  0  0  0  0  0  0  0  0  0  0  0
  -21.3950   -4.4772   23.0741 C   0  0  0  0  0  0  0  0  0  0  0  0
  -24.6934   -9.6264   21.5315 C   0  0  0  0  0  0  0  0  0  0  0  0
  -26.7763  -10.3303   22.8253 C   0  0  0  0  0  0  0  0  0  0  0  0
  -24.0654  -36.8408   19.4754 C   0  0  0  0  0  0  0  0  0  0  0  0
  -24.9706  -29.1236   20.1836 C   0  0  0  0  0  0  0  0  0  0  0  0
  -24.3620  -35.5672   18.9535 C   0  0  0  0  0  0  0  0  0  0  0  0
  -25.9558  -29.0547   21.1790 C   0  0  0  0  0  0  0  0  0  0  0  0
  -30.1320  -19.6888   20.1321 C   0  0  0  0  0  0  0  0  0  0  0  0
  -22.3089   -8.2179   21.1959 C   0  0  0  0  0  0  0  0  0  0  0  0
  -27.0136  -27.2186   19.9875 C   0  0  0  0  0  0  0  0  0  0  0  0
  -21.1316   -6.1939   21.3947 C   0  0  0  0  0  0  0  0  0  0  0  0
  -21.1006   -3.5009   22.1223 C   0  0  0  0  0  0  0  0  0  0  0  0
  -21.4105   -5.8237   22.7103 C   0  0  0  0  0  0  0  0  0  0  0  0
  -25.9253  -10.3537   21.7042 C   0  0  0  0  0  0  0  0  0  0  0  0
  -29.3531  -19.0843   19.1631 C   0  0  0  0  0  0  0  0  0  0  0  0
  -27.8013  -11.1832   22.4963 C   0  0  0  0  0  0  0  0  0  0  0  0
  -28.8618  -21.4776   19.3607 C   0  0  0  0  0  0  0  0  0  0  0  0
  -26.6515   -9.6025   24.0543 C   0  0  0  0  0  0  0  0  0  0  0  0
  -25.1272  -32.2855   20.4692 C   0  0  0  0  0  0  0  0  0  0  0  0
  -24.4981  -31.6447   23.5863 C   0  0  0  0  0  0  0  0  0  0  0  0
  -28.5697  -23.9403   19.7889 C   0  0  0  0  0  0  0  0  0  0  0  0
  -24.6067  -29.4109   26.1641 C   0  0  0  0  0  0  0  0  0  0  0  0
  -29.7177  -15.8086   20.5266 C   0  0  0  0  0  0  0  0  0  0  0  0
  -24.7480  -37.3702   20.7117 C   0  0  0  0  0  0  0  0  0  0  0  0
  -23.8488  -30.1199   20.2899 C   0  0  0  0  0  0  0  0  0  0  0  0
  -31.1263  -18.9079   20.9327 C   0  0  0  0  0  0  0  0  0  0  0  0
  -25.9521  -29.9843   22.3640 C   0  0  0  0  0  0  0  0  0  0  0  0
  -29.4147  -17.6358   18.7799 C   0  0  0  0  0  0  0  0  0  0  0  0
  -25.4125  -36.2836   21.5532 C   0  0  0  0  0  0  0  0  0  0  0  0
  -29.0175  -13.3446   18.0977 C   0  0  0  0  0  0  0  0  0  0  0  0
  -26.2220  -35.3423   20.6669 C   0  0  0  0  0  0  0  0  0  0  0  0
  -28.2062  -12.3384   18.9125 C   0  0  0  0  0  0  0  0  0  0  0  0
  -31.4400  -17.5709   20.2476 C   0  0  0  0  0  0  0  0  0  0  0  0
  -28.6664  -14.7901   18.4548 C   0  0  0  0  0  0  0  0  0  0  0  0
  -27.9518  -14.0832   20.7160 C   0  0  0  0  0  0  0  0  0  0  0  0
  -25.3205  -34.6279   19.6528 C   0  0  1  0  0  0  0  0  0  0  0  0
  -24.1997  -31.3245   21.1577 C   0  0  1  0  0  0  0  0  0  0  0  0
  -28.3287  -12.6237   20.4194 C   0  0  1  0  0  0  0  0  0  0  0  0
  -24.0553  -29.1879   28.6020 C   0  0  0  0  0  0  0  0  0  0  0  0
  -26.9702  -33.2877   24.2932 C   0  0  0  0  0  0  0  0  0  0  0  0
  -26.9151  -32.2597   26.5754 C   0  0  0  0  0  0  0  0  0  0  0  0
  -25.0051  -33.6612   25.7943 C   0  0  0  0  0  0  0  0  0  0  0  0
  -22.6819  -27.2228   25.6476 C   0  0  0  0  0  0  0  0  0  0  0  0
  -27.7141  -25.0701   19.2465 C   0  0  0  0  0  0  0  0  0  1  0  0
  -25.3358  -31.3566   24.8087 C   0  0  1  0  0  0  0  0  0  0  0  0
  -23.5579  -28.9915   27.1783 C   0  0  2  0  0  0  0  0  0  0  0  0
  -26.0580  -32.6249   25.3447 C   0  0  0  0  0  0  0  0  0  0  0  0
  -26.3708  -11.1580   20.7354 N   0  0  0  0  0  0  0  0  0  0  0  0
  -27.5129  -11.6479   21.2468 N   0  0  0  0  0  0  0  0  0  0  0  0
  -24.8380  -30.9451   22.4198 N   0  0  0  0  0  0  0  0  0  0  0  0
  -30.2062  -16.9039   19.7961 N   0  0  0  0  0  0  0  0  0  0  0  0
  -28.7499  -15.0059   19.9056 N   0  0  0  0  0  0  0  0  0  0  0  0
  -28.9120  -11.5737   23.1567 N   0  0  0  0  0  0  0  0  0  0  0  0
  -25.5367   -8.7711   24.2283 N   0  0  0  0  0  0  0  0  0  0  0  0
  -28.2973  -22.7041   19.1449 N   0  0  0  0  0  0  0  0  0  0  0  0
  -24.5973  -33.5492   20.2914 N   0  0  0  0  0  0  0  0  0  0  0  0
  -24.4442  -30.7236   25.7745 N   0  0  0  0  0  0  0  0  0  0  0  0
  -23.2075  -27.5544   26.9970 N   0  3  0  0  0  0  0  0  0  0  0  0
  -27.4950   -9.6995   24.9777 O   0  0  0  0  0  0  0  0  0  0  0  0
  -26.2416  -31.9087   20.1261 O   0  0  0  0  0  0  0  0  0  0  0  0
  -23.5716  -32.4553   23.6655 O   0  0  0  0  0  0  0  0  0  0  0  0
  -29.3885  -24.1267   20.6829 O   0  0  0  0  0  0  0  0  0  0  0  0
  -25.4845  -28.6512   25.7607 O   0  0  0  0  0  0  0  0  0  0  0  0
  -30.1176  -15.5675   21.6727 O   0  0  0  0  0  0  0  0  0  0  0  0
  -21.1457   -7.5303   21.0321 O   0  0  0  0  0  0  0  0  0  0  0  0
  -28.0209  -26.2875   19.8921 O   0  0  0  0  0  0  0  0  0  1  0  0
  -21.0842   -2.2080   22.4718 F   0  0  0  0  0  0  0  0  0  0  0  0
  -21.6929   -6.7572   23.6293 F   0  0  0  0  0  0  0  0  0  0  0  0
  -28.2973  -20.1787   18.3969 S   0  0  0  0  0  0  0  0  0  0  0  0
  1  2  1  0  0  0  0
  1  5  2  0  0  0  0
  2  6  2  0  0  0  0
  3  8  2  0  0  0  0
  3 16  1  0  0  0  0
  4  9  1  0  0  0  0
  4 16  2  0  0  0  0
  5 18  1  0  0  0  0
  6 20  1  0  0  0  0
  7 10  2  0  0  0  0
  7 19  1  0  0  0  0
  8 23  1  0  0  0  0
  9 23  2  0  0  0  0
 10 24  1  0  0  0  0
 11 12  2  0  0  0  0
 11 25  1  0  0  0  0
 12 26  1  0  0  0  0
 13 21  1  0  0  0  0
 13 24  2  0  0  0  0
 14 22  1  0  0  0  0
 14 31  2  0  0  0  0
 15 26  2  0  0  0  0
 15 27  1  0  0  0  0
 16 28  1  0  0  0  0
 17 28  1  0  0  0  0
 17 30  2  0  0  0  0
 17 32  1  0  0  0  0
 18 20  2  0  0  0  0
 18 38  1  0  0  0  0
 19 21  2  0  0  0  0
 19 39  1  0  0  0  0
 20 50  1  0  0  0  0
 21 41  1  0  0  0  0
 22 29  2  0  0  0  0
 22 40  1  0  0  0  0
 23 79  1  0  0  0  0
 24 80  1  0  0  0  0
 25 27  2  0  0  0  0
 25 79  1  0  0  0  0
 26 81  1  0  0  0  0
 27 82  1  0  0  0  0
 28 62  2  0  0  0  0
 29 42  1  0  0  0  0
 29 83  1  0  0  0  0
 30 63  1  0  0  0  0
 30 67  1  0  0  0  0
 31 69  1  0  0  0  0
 31 83  1  0  0  0  0
 32 68  1  0  0  0  0
 32 73  2  0  0  0  0
 33 51  1  0  0  0  0
 33 70  1  0  0  0  0
 33 74  2  0  0  0  0
 34 59  1  0  0  0  0
 34 64  1  0  0  0  0
 34 75  2  0  0  0  0
 35 58  1  0  0  0  0
 35 69  1  0  0  0  0
 35 76  2  0  0  0  0
 36 60  1  0  0  0  0
 36 71  1  0  0  0  0
 36 77  2  0  0  0  0
 37 65  1  0  0  0  0
 37 66  1  0  0  0  0
 37 78  2  0  0  0  0
 38 43  1  0  0  0  0
 39 51  1  0  0  0  0
 40 47  1  0  0  0  0
 41 64  1  0  0  0  0
 42 65  1  0  0  0  0
 43 45  1  0  0  0  0
 44 46  1  0  0  0  0
 44 48  1  0  0  0  0
 45 50  1  0  0  0  0
 46 52  1  0  0  0  0
 47 65  1  0  0  0  0
 48 66  1  0  0  0  0
 49 52  1  0  0  0  0
 49 66  1  0  0  0  0
 50 70  1  0  0  0  0
 51 64  1  0  0  0  0
 52 63  1  0  0  0  0
 53 60  1  0  0  0  0
 54 61  1  0  0  0  0
 55 61  1  0  0  0  0
 56 61  1  0  0  0  0
 57 72  1  0  0  0  0
 58 80  1  0  0  0  0
 59 61  1  0  0  0  0
 59 71  1  0  0  0  0
 60 72  1  0  0  0  0
 62 63  1  0  0  0  0
M  CHG  1  72   1
M  ISO  4  37 100  58 101  65 100  80 101
M  END
> <Batch ID>
0151

> <Smiles>
CNC(C)C(=O)NC(C(=O)N1Cc2cc([101O:1][101CH2:1]C(=O)Nc3cc4c(s3)C[100N:0]([100C:0](=O)N3CCCC(n5nc(-c6ccc(Oc7ccc(F)cc7F)cc6)c(C(N)=O)c5N)C3)CC4)ccc2CC1C(=O)NC1CCCc2ccccc21)C(C)(C)C

> <Shape>
0.294

> <Color>
0.114

> <Negative vol penalty>
0.000

$$$$

  -OEChem-04052303243D

 87 96  0     1  0  0  0  0  0999 V2000
  -26.7174  -36.4237   20.8370 C   0  0  0  0  0  0  0  0  0  0  0  0
  -27.2294  -35.1324   20.9134 C   0  0  0  0  0  0  0  0  0  0  0  0
  -24.4630   -9.1425   21.5622 C   0  0  0  0  0  0  0  0  0  0  0  0
  -24.2928  -10.5734   23.5015 C   0  0  0  0  0  0  0  0  0  0  0  0
  -25.5331  -36.7431   21.4998 C   0  0  0  0  0  0  0  0  0  0  0  0
  -26.5579  -34.1600   21.6536 C   0  0  0  0  0  0  0  0  0  0  0  0
  -26.2305  -29.7380   19.2073 C   0  0  0  0  0  0  0  0  0  0  0  0
  -24.1488   -8.0360   22.3511 C   0  0  0  0  0  0  0  0  0  0  0  0
  -23.9785   -9.4668   24.2904 C   0  0  0  0  0  0  0  0  0  0  0  0
  -27.3680  -28.9320   19.1940 C   0  0  0  0  0  0  0  0  0  0  0  0
  -21.3772   -6.6413   23.6951 C   0  0  0  0  0  0  0  0  0  0  0  0
  -20.4424   -5.7341   23.1963 C   0  0  0  0  0  0  0  0  0  0  0  0
  -28.5678  -19.9605   19.4748 C   0  0  0  0  0  0  0  0  0  0  0  0
  -26.4344  -27.5955   20.9720 C   0  0  0  0  0  0  0  0  0  0  0  0
  -22.0991   -3.9778   23.2862 C   0  0  0  0  0  0  0  0  0  0  0  0
  -24.5351  -10.4113   22.1374 C   0  0  0  0  0  0  0  0  0  0  0  0
  -27.9525  -21.2339   19.3012 C   0  0  0  0  0  0  0  0  0  0  0  0
  -23.9618  -12.3877   20.6299 C   0  0  0  0  0  0  0  0  0  0  0  0
  -24.8416  -35.7716   22.2406 C   0  0  0  0  0  0  0  0  0  0  0  0
  -25.1894  -29.4850   20.1120 C   0  0  0  0  0  0  0  0  0  0  0  0
  -25.3639  -34.4670   22.3280 C   0  0  0  0  0  0  0  0  0  0  0  0
  -25.2837  -28.3983   20.9931 C   0  0  0  0  0  0  0  0  0  0  0  0
  -23.9065   -8.1981   23.7152 C   0  0  0  0  0  0  0  0  0  0  0  0
  -27.4714  -27.8623   20.0784 C   0  0  0  0  0  0  0  0  0  0  0  0
  -22.6729   -6.2168   23.9894 C   0  0  0  0  0  0  0  0  0  0  0  0
  -20.8033   -4.4024   22.9919 C   0  0  0  0  0  0  0  0  0  0  0  0
  -23.0338   -4.8851   23.7850 C   0  0  0  0  0  0  0  0  0  0  0  0
  -24.8603  -11.5547   21.3232 C   0  0  0  0  0  0  0  0  0  0  0  0
  -26.6055  -21.2011   19.5880 C   0  0  0  0  0  0  0  0  0  0  0  0
  -24.7622  -13.3188   20.0142 C   0  0  0  0  0  0  0  0  0  0  0  0
  -27.6675  -19.0030   19.8880 C   0  0  0  0  0  0  0  0  0  0  0  0
  -28.6822  -22.4378   18.8649 C   0  0  0  0  0  0  0  0  0  0  0  0
  -22.5316  -12.3255   20.5497 C   0  0  0  0  0  0  0  0  0  0  0  0
  -23.8498  -31.1009   22.4991 C   0  0  0  0  0  0  0  0  0  0  0  0
  -21.7785  -28.6045   22.5096 C   0  0  0  0  0  0  0  0  0  0  0  0
  -21.1810  -25.3324   21.7457 C   0  0  0  0  0  0  0  0  0  0  0  0
  -29.0294  -16.8945   20.1027 C   0  0  0  0  0  0  0  0  0  0  0  0
  -23.5903  -36.1763   22.9788 C   0  0  0  0  0  0  0  0  0  0  0  0
  -23.9573  -30.3476   20.0956 C   0  0  0  0  0  0  0  0  0  0  0  0
  -24.1849  -28.0720   21.9702 C   0  0  0  0  0  0  0  0  0  0  0  0
  -22.7416  -34.9919   23.4340 C   0  0  0  0  0  0  0  0  0  0  0  0
  -29.7891  -13.4791   19.4431 C   0  0  0  0  0  0  0  0  0  0  0  0
  -23.6170  -33.9288   24.0900 C   0  0  0  0  0  0  0  0  0  0  0  0
  -28.5006  -12.7425   19.8164 C   0  0  0  0  0  0  0  0  0  0  0  0
  -30.0190  -24.0539   21.8236 C   0  0  0  0  0  0  0  0  0  0  0  0
  -30.0639  -14.6525   20.3820 C   0  0  0  0  0  0  0  0  0  0  0  0
  -29.1483  -22.9592   21.2162 C   0  0  0  0  0  0  0  0  0  0  0  0
  -27.6655  -14.8660   20.9029 C   0  0  0  0  0  0  0  0  0  0  0  0
  -24.6513  -33.3783   23.1006 C   0  0  1  0  0  0  0  0  0  0  0  0
  -23.1834  -30.3092   21.4097 C   0  0  1  0  0  0  0  0  0  0  0  0
  -27.3124  -13.7157   19.9459 C   0  0  2  0  0  0  0  0  0  0  0  0
  -29.9374  -24.4926   19.4470 C   0  0  1  0  0  0  0  0  0  0  0  0
  -29.9416  -25.2218   20.8190 C   0  0  2  0  0  0  0  0  0  0  0  0
  -25.6169  -22.3014   19.5332 C   0  0  0  0  0  0  0  0  0  0  0  0
  -31.3076  -24.1401   18.8767 C   0  0  0  0  0  0  0  0  0  0  0  0
  -31.1063  -26.1960   21.0175 C   0  0  0  0  0  0  0  0  0  0  0  0
  -19.4085  -23.5635   21.9085 C   0  0  0  0  0  0  0  0  0  0  0  0
  -22.3754  -28.2837   25.4846 C   0  0  0  0  0  0  0  0  0  0  0  0
  -21.3608  -25.9977   25.3705 C   0  0  0  0  0  0  0  0  0  0  0  0
  -19.9678  -28.0050   24.8676 C   0  0  0  0  0  0  0  0  0  0  0  0
  -21.0615  -25.0176   18.8054 C   0  0  0  0  0  0  0  0  0  0  0  0
  -28.6202  -25.9957   21.0013 C   0  0  0  0  0  0  0  0  0  1  0  0
  -21.7219  -27.2652   23.2039 C   0  0  1  0  0  0  0  0  0  0  0  0
  -20.0153  -24.6583   21.0449 C   0  0  2  0  0  0  0  0  0  0  0  0
  -21.3782  -27.3949   24.7147 C   0  0  0  0  0  0  0  0  0  0  0  0
  -26.1339  -11.9238   21.1632 N   0  0  0  0  0  0  0  0  0  0  0  0
  -26.0415  -12.9990   20.3623 N   0  0  0  0  0  0  0  0  0  0  0  0
  -29.2318  -23.2282   19.7712 N   0  0  0  0  0  0  0  0  0  0  0  0
  -23.0031  -28.9485   21.9199 N   0  0  0  0  0  0  0  0  0  0  0  0
  -28.8964  -15.5339   20.4515 N   0  0  0  0  0  0  0  0  0  0  0  0
  -24.4893  -14.3715   19.2144 N   0  0  0  0  0  0  0  0  0  0  0  0
  -21.8673  -11.3050   21.2435 N   0  0  0  0  0  0  0  0  0  0  0  0
  -27.8450  -17.6270   20.1759 N   0  0  0  0  0  0  0  0  0  0  0  0
  -24.0315  -32.4362   22.1936 N   0  0  0  0  0  0  0  0  0  0  0  0
  -20.7791  -26.4512   22.4444 N   0  0  0  0  0  0  0  0  0  0  0  0
  -28.7779  -22.7091   17.5667 N   0  3  0  0  0  0  0  0  0  0  0  0
  -20.4648  -24.0493   19.7611 N   0  3  0  0  0  0  0  0  0  0  0  0
  -21.8638  -13.1407   19.8693 O   0  0  0  0  0  0  0  0  0  0  0  0
  -24.1737  -30.5419   23.5404 O   0  0  0  0  0  0  0  0  0  0  0  0
  -20.7711  -29.3160   22.4850 O   0  0  0  0  0  0  0  0  0  0  0  0
  -22.3323  -24.9068   21.6830 O   0  0  0  0  0  0  0  0  0  0  0  0
  -30.1084  -17.3684   19.7377 O   0  0  0  0  0  0  0  0  0  0  0  0
  -23.5996   -7.1186   24.4852 O   0  0  0  0  0  0  0  0  0  0  0  0
  -28.5809  -27.0744   20.0679 O   0  0  0  0  0  0  0  0  0  1  0  0
  -19.9051   -3.5309   22.5144 F   0  0  0  0  0  0  0  0  0  0  0  0
  -24.2768   -4.4711   24.0669 F   0  0  0  0  0  0  0  0  0  0  0  0
  -26.0878  -19.6400   20.0645 S   0  0  0  0  0  0  0  0  0  0  0  0
  1  2  1  0  0  0  0
  1  5  2  0  0  0  0
  2  6  2  0  0  0  0
  3  8  2  0  0  0  0
  3 16  1  0  0  0  0
  4  9  1  0  0  0  0
  4 16  2  0  0  0  0
  5 19  1  0  0  0  0
  6 21  1  0  0  0  0
  7 10  2  0  0  0  0
  7 20  1  0  0  0  0
  8 23  1  0  0  0  0
  9 23  2  0  0  0  0
 10 24  1  0  0  0  0
 11 12  2  0  0  0  0
 11 25  1  0  0  0  0
 12 26  1  0  0  0  0
 13 17  1  0  0  0  0
 13 31  2  0  0  0  0
 14 22  1  0  0  0  0
 14 24  2  0  0  0  0
 15 26  2  0  0  0  0
 15 27  1  0  0  0  0
 16 28  1  0  0  0  0
 17 29  2  0  0  0  0
 17 32  1  0  0  0  0
 18 28  1  0  0  0  0
 18 30  2  0  0  0  0
 18 33  1  0  0  0  0
 19 21  2  0  0  0  0
 19 38  1  0  0  0  0
 20 22  2  0  0  0  0
 20 39  1  0  0  0  0
 21 49  1  0  0  0  0
 22 40  1  0  0  0  0
 23 83  1  0  0  0  0
 24 84  1  0  0  0  0
 25 27  2  0  0  0  0
 25 83  1  0  0  0  0
 26 85  1  0  0  0  0
 27 86  1  0  0  0  0
 28 66  2  0  0  0  0
 29 54  1  0  0  0  0
 29 87  1  0  0  0  0
 30 67  1  0  0  0  0
 30 71  1  0  0  0  0
 31 73  1  0  0  0  0
 31 87  1  0  0  0  0
 32 68  1  0  0  0  0
 32 76  2  0  0  0  0
 33 72  1  0  0  0  0
 33 78  2  0  0  0  0
 34 50  1  0  0  0  0
 34 74  1  0  0  0  0
 34 79  2  0  0  0  0
 35 63  1  0  0  0  0
 35 69  1  0  0  0  0
 35 80  2  0  0  0  0
 36 64  1  0  0  0  0
 36 75  1  0  0  0  0
 36 81  2  0  0  0  0
 37 70  1  0  0  0  0
 37 73  1  0  0  0  0
 37 82  2  0  0  0  0
 38 41  1  0  0  0  0
 39 50  1  0  0  0  0
 40 69  1  0  0  0  0
 41 43  1  0  0  0  0
 42 44  1  0  0  0  0
 42 46  1  0  0  0  0
 43 49  1  0  0  0  0
 44 51  1  0  0  0  0
 45 47  1  0  0  0  0
 45 53  1  0  0  0  0
 46 70  1  0  0  0  0
 47 68  1  0  0  0  0
 48 51  1  0  0  0  0
 48 70  1  0  0  0  0
 49 74  1  0  0  0  0
 50 69  1  0  0  0  0
 51 67  1  0  0  0  0
 52 53  1  0  0  0  0
 52 55  1  0  0  0  0
 52 68  1  0  0  0  0
 53 56  1  0  0  0  0
 53 62  1  0  0  0  0
 57 64  1  0  0  0  0
 58 65  1  0  0  0  0
 59 65  1  0  0  0  0
 60 65  1  0  0  0  0
 61 77  1  0  0  0  0
 62 84  1  0  0  0  0
 63 65  1  0  0  0  0
 63 75  1  0  0  0  0
 64 77  1  0  0  0  0
 66 67  1  0  0  0  0
M  CHG  2  76   1  77   1
M  ISO  4  37 100  62 101  73 100  84 101
M  END
> <Batch ID>
0151

> <Smiles>
CNC(C)C(=O)NC(C(=O)N1Cc2cc([101O:1][101CH2:1]C3(C)CCN(C(=N)c4cc([100NH:0][100C:0](=O)N5CCCC(n6nc(-c7ccc(Oc8ccc(F)cc8F)cc7)c(C(N)=O)c6N)C5)sc4C)C3C)ccc2CC1C(=O)NC1CCCc2ccccc21)C(C)(C)C

> <Shape>
0.338

> <Color>
0.112

> <Negative vol penalty>
0.000

$$$$

  -OEChem-04052303243D

 85 94  0     1  0  0  0  0  0999 V2000
  -30.7841  -23.1028   16.0830 C   0  0  0  0  0  0  0  0  0  0  0  0
  -29.4191  -23.3467   16.1964 C   0  0  0  0  0  0  0  0  0  0  0  0
  -26.3822  -13.5860   19.0782 C   0  0  0  0  0  0  0  0  0  0  0  0
  -24.3485  -14.0438   20.2996 C   0  0  0  0  0  0  0  0  0  0  0  0
  -31.6187  -23.2922   17.1837 C   0  0  0  0  0  0  0  0  0  0  0  0
  -28.8878  -23.7791   17.4110 C   0  0  0  0  0  0  0  0  0  0  0  0
  -24.2114  -27.6512   18.2133 C   0  0  0  0  0  0  0  0  0  0  0  0
  -26.4570  -12.3273   19.6746 C   0  0  0  0  0  0  0  0  0  0  0  0
  -24.4234  -12.7850   20.8960 C   0  0  0  0  0  0  0  0  0  0  0  0
  -22.8592  -27.4456   18.4838 C   0  0  0  0  0  0  0  0  0  0  0  0
  -23.7277   -9.5868   20.0549 C   0  0  0  0  0  0  0  0  0  0  0  0
  -22.5575   -8.8303   20.1174 C   0  0  0  0  0  0  0  0  0  0  0  0
  -23.2878  -27.7623   20.8365 C   0  0  0  0  0  0  0  0  0  0  0  0
  -20.4381  -22.7356   21.6549 C   0  0  0  0  0  0  0  0  0  0  0  0
  -22.7097   -8.7941   22.5283 C   0  0  0  0  0  0  0  0  0  0  0  0
  -25.3279  -14.4443   19.3908 C   0  0  0  0  0  0  0  0  0  0  0  0
  -25.1549  -16.0303   17.4003 C   0  0  0  0  0  0  0  0  0  0  0  0
  -31.0988  -23.7364   18.4097 C   0  0  0  0  0  0  0  0  0  0  0  0
  -25.1153  -27.9035   19.2553 C   0  0  0  0  0  0  0  0  0  0  0  0
  -29.7161  -23.9734   18.5295 C   0  0  0  0  0  0  0  0  0  0  0  0
  -24.6505  -27.9732   20.5763 C   0  0  0  0  0  0  0  0  0  0  0  0
  -19.0189  -22.8386   21.7299 C   0  0  0  0  0  0  0  0  0  0  0  0
  -25.4777  -11.9268   20.5835 C   0  0  0  0  0  0  0  0  0  0  0  0
  -22.3977  -27.4983   19.7958 C   0  0  0  0  0  0  0  0  0  0  0  0
  -24.3890   -9.9468   21.2291 C   0  0  0  0  0  0  0  0  0  0  0  0
  -22.0484   -8.4340   21.3541 C   0  0  0  0  0  0  0  0  0  0  0  0
  -23.8799   -9.5505   22.4658 C   0  0  0  0  0  0  0  0  0  0  0  0
  -25.2503  -15.7448   18.7755 C   0  0  0  0  0  0  0  0  0  0  0  0
  -18.3950  -21.6658   21.3652 C   0  0  0  0  0  0  0  0  0  0  0  0
  -25.1100  -17.4016   17.3366 C   0  0  0  0  0  0  0  0  0  0  0  0
  -20.8448  -21.4878   21.2359 C   0  0  0  0  0  0  0  0  0  0  0  0
  -25.1108  -15.1360   16.2805 C   0  0  0  0  0  0  0  0  0  0  0  0
  -27.6836  -26.4244   20.4041 C   0  0  0  0  0  0  0  0  0  0  0  0
  -19.4768  -25.9019   21.2288 C   0  0  0  0  0  0  0  0  0  0  0  0
  -27.9045  -29.0796   22.2544 C   0  0  0  0  0  0  0  0  0  0  0  0
  -26.4992  -31.7115   24.2831 C   0  0  0  0  0  0  0  0  0  0  0  0
  -23.3606  -21.6123   21.1987 C   0  0  0  0  0  0  0  0  0  0  0  0
  -32.0332  -23.8814   19.5846 C   0  0  0  0  0  0  0  0  0  0  0  0
  -26.5662  -28.1495   18.9443 C   0  0  0  0  0  0  0  0  0  0  0  0
  -25.5767  -28.2609   21.7287 C   0  0  0  0  0  0  0  0  0  0  0  0
  -31.4473  -24.7011   20.7313 C   0  0  0  0  0  0  0  0  0  0  0  0
  -26.5705  -21.3095   19.6880 C   0  0  0  0  0  0  0  0  0  0  0  0
  -30.0214  -24.2519   21.0344 C   0  0  0  0  0  0  0  0  0  0  0  0
  -17.9914  -25.8158   24.8204 C   0  0  0  0  0  0  0  0  0  0  0  0
  -18.6719  -27.0553   24.3099 C   0  0  0  0  0  0  0  0  0  0  0  0
  -26.5852  -19.8761   19.1521 C   0  0  0  0  0  0  0  0  0  0  0  0
  -25.8309  -21.4091   21.0210 C   0  0  0  0  0  0  0  0  0  0  0  0
  -24.4889  -19.4136   20.4857 C   0  0  0  0  0  0  0  0  0  0  0  0
  -29.1059  -24.4672   19.8232 C   0  0  1  0  0  0  0  0  0  0  0  0
  -27.4849  -27.8891   20.1340 C   0  0  1  0  0  0  0  0  0  0  0  0
  -18.1034  -26.0565   23.3404 C   0  0  0  0  0  0  0  0  0  0  0  0
  -25.1667  -19.2746   19.1128 C   0  0  2  0  0  0  0  0  0  0  0  0
  -16.9472  -21.3588   21.3073 C   0  0  0  0  0  0  0  0  0  0  0  0
  -27.6002  -33.6573   25.4229 C   0  0  0  0  0  0  0  0  0  0  0  0
  -28.0067  -27.2295   24.6786 C   0  0  0  0  0  0  0  0  0  0  0  0
  -27.4844  -29.2070   26.1225 C   0  0  0  0  0  0  0  0  0  0  0  0
  -29.5850  -29.1668   24.7776 C   0  0  0  0  0  0  0  0  0  0  0  0
  -24.7158  -33.6554   22.9417 C   0  0  0  0  0  0  0  0  0  0  0  0
  -20.7520  -26.7205   21.3263 C   0  0  0  0  0  0  0  0  0  1  0  0
  -19.0185  -25.2107   22.5036 C   0  0  1  0  0  0  0  0  0  0  0  0
  -27.3685  -29.4891   23.6050 C   0  0  1  0  0  0  0  0  0  0  0  0
  -26.8222  -33.1925   24.2016 C   0  0  2  0  0  0  0  0  0  0  0  0
  -28.0938  -28.7658   24.7746 C   0  0  0  0  0  0  0  0  0  0  0  0
  -25.2653  -16.8462   19.5309 N   0  0  0  0  0  0  0  0  0  0  0  0
  -25.1788  -17.8372   18.6272 N   0  0  0  0  0  0  0  0  0  0  0  0
  -26.9874  -28.4883   21.3741 N   0  0  0  0  0  0  0  0  0  0  0  0
  -24.4934  -20.8234   20.9067 N   0  0  0  0  0  0  0  0  0  0  0  0
  -25.0187  -18.2653   16.3031 N   0  0  0  0  0  0  0  0  0  0  0  0
  -26.3193  -14.7558   15.6811 N   0  0  0  0  0  0  0  0  0  0  0  0
  -18.3513  -23.9864   22.1233 N   0  0  0  0  0  0  0  0  0  0  0  0
  -22.1417  -20.9581   21.0233 N   0  0  0  0  0  0  0  0  0  0  0  0
  -28.7377  -25.8622   19.7096 N   0  0  0  0  0  0  0  0  0  0  0  0
  -27.4578  -30.9444   23.6554 N   0  0  0  0  0  0  0  0  0  0  0  0
  -25.5678  -33.9921   24.1112 N   0  3  0  0  0  0  0  0  0  0  0  0
  -24.0307  -14.7002   15.8148 O   0  0  0  0  0  0  0  0  0  0  0  0
  -26.9369  -25.8474   21.1859 O   0  0  0  0  0  0  0  0  0  0  0  0
  -18.8536  -25.8057   20.1713 O   0  0  0  0  0  0  0  0  0  0  0  0
  -29.0915  -29.2835   21.9877 O   0  0  0  0  0  0  0  0  0  0  0  0
  -25.4988  -31.2782   24.8504 O   0  0  0  0  0  0  0  0  0  0  0  0
  -23.4633  -22.7903   21.5502 O   0  0  0  0  0  0  0  0  0  0  0  0
  -25.5503  -10.6985   21.1654 O   0  0  0  0  0  0  0  0  0  0  0  0
  -21.0785  -27.2973   20.0626 O   0  0  0  0  0  0  0  0  0  1  0  0
  -20.9238   -7.7089   21.4140 F   0  0  0  0  0  0  0  0  0  0  0  0
  -24.5102   -9.8945   23.5973 F   0  0  0  0  0  0  0  0  0  0  0  0
  -19.5185  -20.4473   20.9348 S   0  0  0  0  0  0  0  0  0  0  0  0
  1  2  1  0  0  0  0
  1  5  2  0  0  0  0
  2  6  2  0  0  0  0
  3  8  2  0  0  0  0
  3 16  1  0  0  0  0
  4  9  1  0  0  0  0
  4 16  2  0  0  0  0
  5 18  1  0  0  0  0
  6 20  1  0  0  0  0
  7 10  2  0  0  0  0
  7 19  1  0  0  0  0
  8 23  1  0  0  0  0
  9 23  2  0  0  0  0
 10 24  1  0  0  0  0
 11 12  2  0  0  0  0
 11 25  1  0  0  0  0
 12 26  1  0  0  0  0
 13 21  1  0  0  0  0
 13 24  2  0  0  0  0
 14 22  1  0  0  0  0
 14 31  2  0  0  0  0
 15 26  2  0  0  0  0
 15 27  1  0  0  0  0
 16 28  1  0  0  0  0
 17 28  1  0  0  0  0
 17 30  2  0  0  0  0
 17 32  1  0  0  0  0
 18 20  2  0  0  0  0
 18 38  1  0  0  0  0
 19 21  2  0  0  0  0
 19 39  1  0  0  0  0
 20 49  1  0  0  0  0
 21 40  1  0  0  0  0
 22 29  2  0  0  0  0
 22 70  1  0  0  0  0
 23 81  1  0  0  0  0
 24 82  1  0  0  0  0
 25 27  2  0  0  0  0
 25 81  1  0  0  0  0
 26 83  1  0  0  0  0
 27 84  1  0  0  0  0
 28 64  2  0  0  0  0
 29 53  1  0  0  0  0
 29 85  1  0  0  0  0
 30 65  1  0  0  0  0
 30 68  1  0  0  0  0
 31 71  1  0  0  0  0
 31 85  1  0  0  0  0
 32 69  1  0  0  0  0
 32 75  2  0  0  0  0
 33 50  1  0  0  0  0
 33 72  1  0  0  0  0
 33 76  2  0  0  0  0
 34 59  1  0  0  0  0
 34 60  1  0  0  0  0
 34 77  2  0  0  0  0
 35 61  1  0  0  0  0
 35 66  1  0  0  0  0
 35 78  2  0  0  0  0
 36 62  1  0  0  0  0
 36 73  1  0  0  0  0
 36 79  2  0  0  0  0
 37 67  1  0  0  0  0
 37 71  1  0  0  0  0
 37 80  2  0  0  0  0
 38 41  1  0  0  0  0
 39 50  1  0  0  0  0
 40 66  1  0  0  0  0
 41 43  1  0  0  0  0
 42 46  1  0  0  0  0
 42 47  1  0  0  0  0
 43 49  1  0  0  0  0
 44 45  1  0  0  0  0
 44 51  1  0  0  0  0
 45 51  1  0  0  0  0
 46 52  1  0  0  0  0
 47 67  1  0  0  0  0
 48 52  1  0  0  0  0
 48 67  1  0  0  0  0
 49 72  1  0  0  0  0
 50 66  1  0  0  0  0
 51 60  1  0  0  0  0
 52 65  1  0  0  0  0
 54 62  1  0  0  0  0
 55 63  1  0  0  0  0
 56 63  1  0  0  0  0
 57 63  1  0  0  0  0
 58 74  1  0  0  0  0
 59 82  1  0  0  0  0
 60 70  1  0  0  0  0
 61 63  1  0  0  0  0
 61 73  1  0  0  0  0
 62 74  1  0  0  0  0
 64 65  1  0  0  0  0
M  CHG  1  74   1
M  ISO  4  37 100  59 101  71 100  82 101
M  END
> <Batch ID>
0151

> <Smiles>
CNC(C)C(=O)NC(C(=O)N1Cc2cc([101O:1][101CH2:1]C(=O)C(Nc3cc([100NH:0][100C:0](=O)N4CCCC(n5nc(-c6ccc(Oc7ccc(F)cc7F)cc6)c(C(N)=O)c5N)C4)sc3C)C3CC3)ccc2CC1C(=O)NC1CCCc2ccccc21)C(C)(C)C

> <Shape>
0.232

> <Color>
0.070

> <Negative vol penalty>
0.000

$$$$

  -OEChem-04052303243D

 87 96  0     1  0  0  0  0  0999 V2000
  -31.2601  -34.1398   20.8182 C   0  0  0  0  0  0  0  0  0  0  0  0
  -30.7903  -32.8437   21.0046 C   0  0  0  0  0  0  0  0  0  0  0  0
  -22.8710  -11.0052   19.1170 C   0  0  0  0  0  0  0  0  0  0  0  0
  -23.1439   -9.7503   21.1634 C   0  0  0  0  0  0  0  0  0  0  0  0
  -29.9245  -19.4387   20.6655 C   0  0  0  0  0  0  0  0  0  0  0  0
  -28.2734  -18.1731   19.4370 C   0  0  0  0  0  0  0  0  0  0  0  0
  -30.5282  -35.2221   21.3050 C   0  0  0  0  0  0  0  0  0  0  0  0
  -29.5888  -32.6290   21.6790 C   0  0  0  0  0  0  0  0  0  0  0  0
  -26.6369  -29.2328   19.3559 C   0  0  0  0  0  0  0  0  0  0  0  0
  -29.0313  -20.5052   20.7674 C   0  0  0  0  0  0  0  0  0  0  0  0
  -27.3801  -19.2396   19.5390 C   0  0  0  0  0  0  0  0  0  0  0  0
  -21.8744  -10.1197   18.7068 C   0  0  0  0  0  0  0  0  0  0  0  0
  -22.1472   -8.8648   20.7533 C   0  0  0  0  0  0  0  0  0  0  0  0
  -26.9620  -27.8873   19.5217 C   0  0  0  0  0  0  0  0  0  0  0  0
  -21.8642   -6.2333   18.6494 C   0  0  0  0  0  0  0  0  0  0  0  0
  -22.1036   -4.8686   18.8102 C   0  0  0  0  0  0  0  0  0  0  0  0
  -25.2418  -27.6847   21.2007 C   0  0  0  0  0  0  0  0  0  0  0  0
  -20.1673   -4.6983   20.2452 C   0  0  0  0  0  0  0  0  0  0  0  0
  -23.5059  -10.8204   20.3452 C   0  0  0  0  0  0  0  0  0  0  0  0
  -29.5456  -18.2727   20.0002 C   0  0  0  0  0  0  0  0  0  0  0  0
  -24.3691  -12.9160   21.5162 C   0  0  0  0  0  0  0  0  0  0  0  0
  -29.3124  -35.0211   21.9773 C   0  0  0  0  0  0  0  0  0  0  0  0
  -25.6173  -29.8181   20.1202 C   0  0  0  0  0  0  0  0  0  0  0  0
  -28.8407  -33.7095   22.1765 C   0  0  0  0  0  0  0  0  0  0  0  0
  -24.9039  -29.0373   21.0408 C   0  0  0  0  0  0  0  0  0  0  0  0
  -27.7591  -20.4056   20.2042 C   0  0  0  0  0  0  0  0  0  0  0  0
  -21.5125   -9.0495   19.5250 C   0  0  0  0  0  0  0  0  0  0  0  0
  -26.2664  -27.1137   20.4463 C   0  0  0  0  0  0  0  0  0  0  0  0
  -20.7765   -6.8306   19.2865 C   0  0  0  0  0  0  0  0  0  0  0  0
  -21.2551   -4.1011   19.6081 C   0  0  0  0  0  0  0  0  0  0  0  0
  -19.9281   -6.0630   20.0844 C   0  0  0  0  0  0  0  0  0  0  0  0
  -24.5358  -11.7345   20.7692 C   0  0  0  0  0  0  0  0  0  0  0  0
  -25.6404  -13.4169   21.6549 C   0  0  0  0  0  0  0  0  0  0  0  0
  -25.8089  -23.5510   20.5012 C   0  0  0  0  0  0  0  0  0  0  0  0
  -25.6101  -24.8700   20.3714 C   0  0  0  0  0  0  0  0  0  1  0  0
  -30.4970  -17.1370   19.8917 C   0  0  0  0  0  0  0  0  0  0  0  0
  -23.1720  -13.5077   22.0382 C   0  0  0  0  0  0  0  0  0  0  0  0
  -25.4816  -32.1722   22.2519 C   0  0  0  0  0  0  0  0  0  0  0  0
  -22.2883  -31.6331   22.0650 C   0  0  0  0  0  0  0  0  0  0  0  0
  -19.7535  -29.4680   21.3344 C   0  0  0  0  0  0  0  0  0  0  0  0
  -30.6311  -14.6823   19.6080 C   0  0  0  0  0  0  0  0  0  0  0  0
  -28.5801  -36.2195   22.5271 C   0  0  0  0  0  0  0  0  0  0  0  0
  -25.2607  -31.2642   19.9103 C   0  0  0  0  0  0  0  0  0  0  0  0
  -23.7871  -29.6128   21.8715 C   0  0  0  0  0  0  0  0  0  0  0  0
  -24.7400  -22.5412   20.2374 C   0  0  0  0  0  0  0  0  0  0  0  0
  -27.1295  -35.9275   22.9024 C   0  0  0  0  0  0  0  0  0  0  0  0
  -30.1376  -11.3305   20.6172 C   0  0  0  0  0  0  0  0  0  0  0  0
  -27.0357  -34.6333   23.7043 C   0  0  0  0  0  0  0  0  0  0  0  0
  -28.6227  -11.2328   20.8169 C   0  0  0  0  0  0  0  0  0  0  0  0
  -25.5303  -21.3577   19.7106 C   0  0  0  0  0  0  0  0  0  0  0  0
  -30.4967  -12.2138   19.4232 C   0  0  0  0  0  0  0  0  0  0  0  0
  -28.3779  -13.4493   19.6289 C   0  0  0  0  0  0  0  0  0  0  0  0
  -27.5295  -33.4374   22.8813 C   0  0  1  0  0  0  0  0  0  0  0  0
  -24.5494  -31.8844   21.1091 C   0  0  1  0  0  0  0  0  0  0  0  0
  -27.9669  -12.6276   20.8614 C   0  0  1  0  0  0  0  0  0  0  0  0
  -27.1144  -22.8319   20.8478 C   0  0  0  0  0  0  0  0  0  0  0  0
  -27.2360  -22.8202   22.3783 C   0  0  0  0  0  0  0  0  0  0  0  0
  -28.3101  -23.5131   20.1660 C   0  0  0  0  0  0  0  0  0  0  0  0
  -17.2497  -29.3009   21.3150 C   0  0  0  0  0  0  0  0  0  0  0  0
  -22.2867  -31.3398   25.1020 C   0  0  0  0  0  0  0  0  0  0  0  0
  -20.0342  -30.2610   24.9269 C   0  0  0  0  0  0  0  0  0  0  0  0
  -20.3474  -32.6193   24.1765 C   0  0  0  0  0  0  0  0  0  0  0  0
  -19.6931  -28.9770   18.4165 C   0  0  0  0  0  0  0  0  0  0  0  0
  -21.3110  -30.7386   22.7885 C   0  0  1  0  0  0  0  0  0  0  0  0
  -18.4929  -29.6358   20.5056 C   0  0  2  0  0  0  0  0  0  0  0  0
  -21.0171  -31.2290   24.2344 C   0  0  0  0  0  0  0  0  0  0  0  0
  -25.8125  -11.4989   20.4551 N   0  0  0  0  0  0  0  0  0  0  0  0
  -26.4595  -12.5393   21.0074 N   0  0  0  0  0  0  0  0  0  0  0  0
  -26.8699  -21.4672   20.3057 N   0  0  3  0  0  0  0  0  0  0  0  0
  -23.4801  -31.0330   21.6343 N   0  0  0  0  0  0  0  0  0  0  0  0
  -29.8446  -13.5188   19.5458 N   0  0  0  0  0  0  0  0  0  0  0  0
  -26.1264  -14.5180   22.2662 N   0  0  0  0  0  0  0  0  0  0  0  0
  -21.9504  -12.8618   21.8041 N   0  0  0  0  0  0  0  0  0  0  0  0
  -29.9161  -15.8746   19.7677 N   0  0  0  0  0  0  0  0  0  0  0  0
  -26.5189  -33.0265   21.9303 N   0  0  0  0  0  0  0  0  0  0  0  0
  -20.1304  -30.6501   21.9360 N   0  0  0  0  0  0  0  0  0  0  0  0
  -18.5332  -28.7412   19.3143 N   0  3  0  0  0  0  0  0  0  0  0  0
  -31.7032  -17.3665   19.8771 O   0  0  0  0  0  0  0  0  0  0  0  0
  -23.1833  -14.5862   22.6788 O   0  0  0  0  0  0  0  0  0  0  0  0
  -25.2741  -31.6584   23.3449 O   0  0  0  0  0  0  0  0  0  0  0  0
  -22.0017  -32.8189   21.8821 O   0  0  0  0  0  0  0  0  0  0  0  0
  -20.3427  -28.3947   21.4408 O   0  0  0  0  0  0  0  0  0  0  0  0
  -31.8651  -14.6589   19.5636 O   0  0  0  0  0  0  0  0  0  0  0  0
  -20.5398   -8.1854   19.1252 O   0  0  0  0  0  0  0  0  0  0  0  0
  -26.5823  -25.8003   20.6106 O   0  0  0  0  0  0  0  0  0  1  0  0
  -21.4841   -2.7902   19.7613 F   0  0  0  0  0  0  0  0  0  0  0  0
  -18.8808   -6.6309   20.6980 F   0  0  0  0  0  0  0  0  0  0  0  0
  1  2  1  0  0  0  0
  1  7  2  0  0  0  0
  2  8  2  0  0  0  0
  3 12  2  0  0  0  0
  3 19  1  0  0  0  0
  4 13  1  0  0  0  0
  4 19  2  0  0  0  0
  5 10  2  0  0  0  0
  5 20  1  0  0  0  0
  6 11  1  0  0  0  0
  6 20  2  0  0  0  0
  7 22  1  0  0  0  0
  8 24  1  0  0  0  0
  9 14  2  0  0  0  0
  9 23  1  0  0  0  0
 10 26  1  0  0  0  0
 11 26  2  0  0  0  0
 12 27  1  0  0  0  0
 13 27  2  0  0  0  0
 14 28  1  0  0  0  0
 15 16  2  0  0  0  0
 15 29  1  0  0  0  0
 16 30  1  0  0  0  0
 17 25  1  0  0  0  0
 17 28  2  0  0  0  0
 18 30  2  0  0  0  0
 18 31  1  0  0  0  0
 19 32  1  0  0  0  0
 20 36  1  0  0  0  0
 21 32  1  0  0  0  0
 21 33  2  0  0  0  0
 21 37  1  0  0  0  0
 22 24  2  0  0  0  0
 22 42  1  0  0  0  0
 23 25  2  0  0  0  0
 23 43  1  0  0  0  0
 24 53  1  0  0  0  0
 25 44  1  0  0  0  0
 26 69  1  0  0  0  0
 27 84  1  0  0  0  0
 28 85  1  0  0  0  0
 29 31  2  0  0  0  0
 29 84  1  0  0  0  0
 30 86  1  0  0  0  0
 31 87  1  0  0  0  0
 32 67  2  0  0  0  0
 33 68  1  0  0  0  0
 33 72  1  0  0  0  0
 34 35  2  0  0  0  0
 34 45  1  0  0  0  0
 34 56  1  0  0  0  0
 35 85  1  0  0  0  0
 36 74  1  0  0  0  0
 36 78  2  0  0  0  0
 37 73  1  0  0  0  0
 37 79  2  0  0  0  0
 38 54  1  0  0  0  0
 38 75  1  0  0  0  0
 38 80  2  0  0  0  0
 39 64  1  0  0  0  0
 39 70  1  0  0  0  0
 39 81  2  0  0  0  0
 40 65  1  0  0  0  0
 40 76  1  0  0  0  0
 40 82  2  0  0  0  0
 41 71  1  0  0  0  0
 41 74  1  0  0  0  0
 41 83  2  0  0  0  0
 42 46  1  0  0  0  0
 43 54  1  0  0  0  0
 44 70  1  0  0  0  0
 45 50  1  0  0  0  0
 46 48  1  0  0  0  0
 47 49  1  0  0  0  0
 47 51  1  0  0  0  0
 48 53  1  0  0  0  0
 49 55  1  0  0  0  0
 50 69  1  0  0  0  0
 51 71  1  0  0  0  0
 52 55  1  0  0  0  0
 52 71  1  0  0  0  0
 53 75  1  0  0  0  0
 54 70  1  0  0  0  0
 55 68  1  0  0  0  0
 56 57  1  0  0  0  0
 56 58  1  0  0  0  0
 56 69  1  0  0  0  0
 59 65  1  0  0  0  0
 60 66  1  0  0  0  0
 61 66  1  0  0  0  0
 62 66  1  0  0  0  0
 63 77  1  0  0  0  0
 64 66  1  0  0  0  0
 64 76  1  0  0  0  0
 65 77  1  0  0  0  0
 67 68  1  0  0  0  0
M  CHG  1  77   1
M  ISO  4  35 101  41 100  74 100  85 101
M  END
> <Batch ID>
0151

> <Smiles>
CNC(C)C(=O)NC(C(=O)N1Cc2cc([101O:1][101CH:1]=C3CCN(c4ccc(C(=O)[100NH:0][100C:0](=O)N5CCCC(n6nc(-c7ccc(Oc8ccc(F)cc8F)cc7)c(C(N)=O)c6N)C5)cc4)C3(C)C)ccc2CC1C(=O)NC1CCCc2ccccc21)C(C)(C)C

> <Shape>
0.265

> <Color>
0.122

> <Negative vol penalty>
0.000

$$$$

  -OEChem-04052303243D

 85 94  0     1  0  0  0  0  0999 V2000
  -29.5868  -35.1820   25.8425 C   0  0  0  0  0  0  0  0  0  0  0  0
  -29.1475  -33.8636   25.9088 C   0  0  0  0  0  0  0  0  0  0  0  0
  -24.3298   -8.9793   21.5287 C   0  0  0  0  0  0  0  0  0  0  0  0
  -24.4020  -10.4934   23.4099 C   0  0  0  0  0  0  0  0  0  0  0  0
  -28.7042  -36.1913   25.4601 C   0  0  0  0  0  0  0  0  0  0  0  0
  -27.8249  -33.5540   25.5938 C   0  0  0  0  0  0  0  0  0  0  0  0
  -27.4403  -29.4704   22.6236 C   0  0  0  0  0  0  0  0  0  0  0  0
  -23.9354   -7.9444   22.3766 C   0  0  0  0  0  0  0  0  0  0  0  0
  -24.0076   -9.4586   24.2580 C   0  0  0  0  0  0  0  0  0  0  0  0
  -27.5793  -28.2243   23.2332 C   0  0  0  0  0  0  0  0  0  0  0  0
  -21.0948   -6.9116   23.8923 C   0  0  0  0  0  0  0  0  0  0  0  0
  -20.0468   -6.0928   23.4719 C   0  0  0  0  0  0  0  0  0  0  0  0
  -28.5068  -19.5985   23.8214 C   0  0  0  0  0  0  0  0  0  0  0  0
  -27.9135  -20.8889   23.9361 C   0  0  0  0  0  0  0  0  0  0  0  0
  -25.1800  -27.9755   23.2579 C   0  0  0  0  0  0  0  0  0  0  0  0
  -21.5086   -4.1717   23.5690 C   0  0  0  0  0  0  0  0  0  0  0  0
  -24.5632  -10.2538   22.0453 C   0  0  0  0  0  0  0  0  0  0  0  0
  -24.1362  -12.2216   20.4790 C   0  0  0  0  0  0  0  0  0  0  0  0
  -27.3726  -35.8925   25.1309 C   0  0  0  0  0  0  0  0  0  0  0  0
  -26.1676  -29.9841   22.3360 C   0  0  0  0  0  0  0  0  0  0  0  0
  -26.9233  -34.5604   25.2079 C   0  0  0  0  0  0  0  0  0  0  0  0
  -25.0277  -29.2272   22.6422 C   0  0  0  0  0  0  0  0  0  0  0  0
  -23.7743   -8.1841   23.7413 C   0  0  0  0  0  0  0  0  0  0  0  0
  -26.4490  -27.4779   23.5531 C   0  0  0  0  0  0  0  0  0  0  0  0
  -22.3499   -6.3605   24.1510 C   0  0  0  0  0  0  0  0  0  0  0  0
  -20.2536   -4.7229   23.3103 C   0  0  0  0  0  0  0  0  0  0  0  0
  -22.5567   -4.9905   23.9893 C   0  0  0  0  0  0  0  0  0  0  0  0
  -24.9712  -11.3231   21.1699 C   0  0  0  0  0  0  0  0  0  0  0  0
  -29.8396  -19.6702   23.4807 C   0  0  0  0  0  0  0  0  0  0  0  0
  -25.0026  -13.0359   19.7915 C   0  0  0  0  0  0  0  0  0  0  0  0
  -28.8157  -21.8978   23.6789 C   0  0  0  0  0  0  0  0  0  0  0  0
  -22.7054  -12.3121   20.4606 C   0  0  0  0  0  0  0  0  0  0  0  0
  -24.5214  -32.5434   23.2545 C   0  0  0  0  0  0  0  0  0  0  0  0
  -22.4030  -31.4961   21.0324 C   0  0  0  0  0  0  0  0  0  0  0  0
  -27.5006  -24.0256   23.9558 C   0  0  0  0  0  0  0  0  0  0  0  0
  -21.1657  -28.8882   19.2118 C   0  0  0  0  0  0  0  0  0  0  0  0
  -30.7124  -14.5981   20.6910 C   0  0  0  0  0  0  0  0  0  0  0  0
  -26.4430  -37.0236   24.7688 C   0  0  0  0  0  0  0  0  0  0  0  0
  -26.0355  -31.3181   21.6538 C   0  0  0  0  0  0  0  0  0  0  0  0
  -23.6395  -29.7248   22.3358 C   0  0  0  0  0  0  0  0  0  0  0  0
  -25.1567  -36.5610   24.0893 C   0  0  0  0  0  0  0  0  0  0  0  0
  -29.3501  -13.0396   17.7940 C   0  0  0  0  0  0  0  0  0  0  0  0
  -24.5490  -35.3822   24.8428 C   0  0  0  0  0  0  0  0  0  0  0  0
  -31.0242  -17.6249   24.4903 C   0  0  0  0  0  0  0  0  0  0  0  0
  -27.9981  -12.5041   18.2684 C   0  0  0  0  0  0  0  0  0  0  0  0
  -30.5774  -16.2323   24.0539 C   0  0  0  0  0  0  0  0  0  0  0  0
  -30.3920  -17.6027   22.1138 C   0  0  0  0  0  0  0  0  0  0  0  0
  -30.4143  -12.9302   18.8838 C   0  0  0  0  0  0  0  0  0  0  0  0
  -28.6943  -13.0100   20.6471 C   0  0  0  0  0  0  0  0  0  0  0  0
  -25.5026  -34.1813   24.8500 C   0  0  1  0  0  0  0  0  0  0  0  0
  -30.8176  -18.5377   23.2622 C   0  0  1  0  0  0  0  0  0  0  0  0
  -24.6738  -31.9697   21.8742 C   0  0  1  0  0  0  0  0  0  0  0  0
  -27.5751  -13.1507   19.6012 C   0  0  2  0  0  0  0  0  0  0  0  0
  -30.8649  -16.2243   22.5595 C   0  0  2  0  0  0  0  0  0  0  0  0
  -19.4100  -28.3338   17.5067 C   0  0  0  0  0  0  0  0  0  0  0  0
  -20.2634  -31.5999   23.2053 C   0  0  0  0  0  0  0  0  0  0  0  0
  -18.8130  -30.1714   21.7479 C   0  0  0  0  0  0  0  0  0  0  0  0
  -19.5192  -32.4331   20.9678 C   0  0  0  0  0  0  0  0  0  0  0  0
  -23.1923  -28.0220   17.2366 C   0  0  0  0  0  0  0  0  0  0  0  0
  -27.7613  -25.5166   23.8483 C   0  0  0  0  0  0  0  0  0  1  0  0
  -21.2174  -30.5616   21.0425 C   0  0  1  0  0  0  0  0  0  0  0  0
  -20.8551  -28.7503   17.7323 C   0  0  2  0  0  0  0  0  0  0  0  0
  -19.9792  -31.1827   21.7485 C   0  0  0  0  0  0  0  0  0  0  0  0
  -26.2684  -11.5453   20.9419 N   0  0  0  0  0  0  0  0  0  0  0  0
  -26.2550  -12.5927   20.1000 N   0  0  0  0  0  0  0  0  0  0  0  0
  -23.5623  -31.0377   21.6741 N   0  0  0  0  0  0  0  0  0  0  0  0
  -29.9516  -13.5641   20.1207 N   0  0  0  0  0  0  0  0  0  0  0  0
  -24.8076  -14.0806   18.9590 N   0  0  0  0  0  0  0  0  0  0  0  0
  -21.9682  -11.3970   21.2244 N   0  0  0  0  0  0  0  0  0  0  0  0
  -28.6571  -23.3039   23.6807 N   0  0  0  0  0  0  0  0  0  0  0  0
  -25.4665  -33.4996   23.5738 N   0  0  0  0  0  0  0  0  0  0  0  0
  -20.9851  -30.1820   19.6531 N   0  0  0  0  0  0  0  0  0  0  0  0
  -30.1993  -15.1485   21.8591 N   0  0  0  0  0  0  0  0  0  0  0  0
  -21.7418  -27.7269   17.1100 N   0  3  0  0  0  0  0  0  0  0  0  0
  -22.0983  -13.1683   19.7738 O   0  0  0  0  0  0  0  0  0  0  0  0
  -23.6128  -32.1488   23.9759 O   0  0  0  0  0  0  0  0  0  0  0  0
  -22.3063  -32.5895   20.4696 O   0  0  0  0  0  0  0  0  0  0  0  0
  -26.3937  -23.5865   24.2499 O   0  0  0  0  0  0  0  0  0  0  0  0
  -21.5284  -27.9420   19.9073 O   0  0  0  0  0  0  0  0  0  0  0  0
  -31.7677  -15.0044   20.1929 O   0  0  0  0  0  0  0  0  0  0  0  0
  -23.3892   -7.1745   24.5690 O   0  0  0  0  0  0  0  0  0  0  0  0
  -26.5819  -26.2616   24.1487 O   0  0  0  0  0  0  0  0  0  1  0  0
  -19.2467   -3.9365   22.9081 F   0  0  0  0  0  0  0  0  0  0  0  0
  -23.7599   -4.4551   24.2375 F   0  0  0  0  0  0  0  0  0  0  0  0
  -30.3705  -21.2882   23.3007 S   0  0  0  0  0  0  0  0  0  0  0  0
  1  2  1  0  0  0  0
  1  5  2  0  0  0  0
  2  6  2  0  0  0  0
  3  8  2  0  0  0  0
  3 17  1  0  0  0  0
  4  9  1  0  0  0  0
  4 17  2  0  0  0  0
  5 19  1  0  0  0  0
  6 21  1  0  0  0  0
  7 10  2  0  0  0  0
  7 20  1  0  0  0  0
  8 23  1  0  0  0  0
  9 23  2  0  0  0  0
 10 24  1  0  0  0  0
 11 12  2  0  0  0  0
 11 25  1  0  0  0  0
 12 26  1  0  0  0  0
 13 14  1  0  0  0  0
 13 29  2  0  0  0  0
 14 31  2  0  0  0  0
 15 22  1  0  0  0  0
 15 24  2  0  0  0  0
 16 26  2  0  0  0  0
 16 27  1  0  0  0  0
 17 28  1  0  0  0  0
 18 28  1  0  0  0  0
 18 30  2  0  0  0  0
 18 32  1  0  0  0  0
 19 21  2  0  0  0  0
 19 38  1  0  0  0  0
 20 22  2  0  0  0  0
 20 39  1  0  0  0  0
 21 50  1  0  0  0  0
 22 40  1  0  0  0  0
 23 81  1  0  0  0  0
 24 82  1  0  0  0  0
 25 27  2  0  0  0  0
 25 81  1  0  0  0  0
 26 83  1  0  0  0  0
 27 84  1  0  0  0  0
 28 64  2  0  0  0  0
 29 51  1  0  0  0  0
 29 85  1  0  0  0  0
 30 65  1  0  0  0  0
 30 68  1  0  0  0  0
 31 70  1  0  0  0  0
 31 85  1  0  0  0  0
 32 69  1  0  0  0  0
 32 75  2  0  0  0  0
 33 52  1  0  0  0  0
 33 71  1  0  0  0  0
 33 76  2  0  0  0  0
 34 61  1  0  0  0  0
 34 66  1  0  0  0  0
 34 77  2  0  0  0  0
 35 60  1  0  0  0  0
 35 70  1  0  0  0  0
 35 78  2  0  0  0  0
 36 62  1  0  0  0  0
 36 72  1  0  0  0  0
 36 79  2  0  0  0  0
 37 67  1  0  0  0  0
 37 73  1  0  0  0  0
 37 80  2  0  0  0  0
 38 41  1  0  0  0  0
 39 52  1  0  0  0  0
 40 66  1  0  0  0  0
 41 43  1  0  0  0  0
 42 45  1  0  0  0  0
 42 48  1  0  0  0  0
 43 50  1  0  0  0  0
 44 46  1  0  0  0  0
 44 51  1  0  0  0  0
 45 53  1  0  0  0  0
 46 54  1  0  0  0  0
 47 51  1  0  0  0  0
 47 54  1  0  0  0  0
 48 67  1  0  0  0  0
 49 53  1  0  0  0  0
 49 67  1  0  0  0  0
 50 71  1  0  0  0  0
 52 66  1  0  0  0  0
 53 65  1  0  0  0  0
 54 73  1  0  0  0  0
 55 62  1  0  0  0  0
 56 63  1  0  0  0  0
 57 63  1  0  0  0  0
 58 63  1  0  0  0  0
 59 74  1  0  0  0  0
 60 82  1  0  0  0  0
 61 63  1  0  0  0  0
 61 72  1  0  0  0  0
 62 74  1  0  0  0  0
 64 65  1  0  0  0  0
M  CHG  1  74   1
M  ISO  4  37 100  60 101  73 100  82 101
M  END
> <Batch ID>
0151

> <Smiles>
CNC(C)C(=O)NC(C(=O)N1Cc2cc([101O:1][101CH2:1]C(=O)Nc3ccc(C4CCC([100NH:0][100C:0](=O)N5CCCC(n6nc(-c7ccc(Oc8ccc(F)cc8F)cc7)c(C(N)=O)c6N)C5)C4)s3)ccc2CC1C(=O)NC1CCCc2ccccc21)C(C)(C)C

> <Shape>
0.272

> <Color>
0.117

> <Negative vol penalty>
0.000

$$$$

  -OEChem-04052303243D

 83 92  0     1  0  0  0  0  0999 V2000
  -28.1486  -33.9099   25.6170 C   0  0  0  0  0  0  0  0  0  0  0  0
  -28.3174  -32.6934   24.9636 C   0  0  0  0  0  0  0  0  0  0  0  0
  -32.1614  -21.3429   21.3648 C   0  0  0  0  0  0  0  0  0  0  0  0
  -23.2402   -9.6993   19.9816 C   0  0  0  0  0  0  0  0  0  0  0  0
  -23.8026   -9.7174   22.3311 C   0  0  0  0  0  0  0  0  0  0  0  0
  -26.8881  -34.2802   26.0837 C   0  0  0  0  0  0  0  0  0  0  0  0
  -27.2258  -31.8458   24.7776 C   0  0  0  0  0  0  0  0  0  0  0  0
  -31.7061  -20.1618   21.9562 C   0  0  0  0  0  0  0  0  0  0  0  0
  -27.0284  -29.9321   20.0932 C   0  0  0  0  0  0  0  0  0  0  0  0
  -31.2604  -22.3711   21.0262 C   0  0  0  0  0  0  0  0  0  0  0  0
  -23.0669   -8.3163   20.0337 C   0  0  0  0  0  0  0  0  0  0  0  0
  -23.6292   -8.3344   22.3833 C   0  0  0  0  0  0  0  0  0  0  0  0
  -27.8896  -28.8754   19.8002 C   0  0  0  0  0  0  0  0  0  0  0  0
  -21.0537   -6.1534   22.5583 C   0  0  0  0  0  0  0  0  0  0  0  0
  -20.3330   -5.6322   23.6327 C   0  0  0  0  0  0  0  0  0  0  0  0
  -26.0750  -27.3174   20.1149 C   0  0  0  0  0  0  0  0  0  0  0  0
  -22.2603   -4.3349   24.2960 C   0  0  0  0  0  0  0  0  0  0  0  0
  -23.6082  -10.3999   21.1303 C   0  0  0  0  0  0  0  0  0  0  0  0
  -22.8117  -12.8172   21.3032 C   0  0  0  0  0  0  0  0  0  0  0  0
  -25.7786  -33.4412   25.8947 C   0  0  0  0  0  0  0  0  0  0  0  0
  -25.6845  -29.6880   20.4104 C   0  0  0  0  0  0  0  0  0  0  0  0
  -25.9495  -32.2047   25.2434 C   0  0  0  0  0  0  0  0  0  0  0  0
  -30.3544  -20.0539   22.1866 C   0  0  0  0  0  0  0  0  0  0  0  0
  -25.1983  -28.3728   20.4090 C   0  0  0  0  0  0  0  0  0  0  0  0
  -29.4757  -21.0575   21.8565 C   0  0  0  0  0  0  0  0  0  0  0  0
  -29.8925  -22.2311   21.2740 C   0  0  0  0  0  0  0  0  0  0  0  0
  -23.2614   -7.6338   21.2345 C   0  0  0  0  0  0  0  0  0  0  0  0
  -27.4136  -27.5676   19.8139 C   0  0  0  0  0  0  0  0  0  0  0  0
  -22.3777   -5.7653   22.3526 C   0  0  0  0  0  0  0  0  0  0  0  0
  -20.9363   -4.7229   24.5016 C   0  0  0  0  0  0  0  0  0  0  0  0
  -22.9809   -4.8561   23.2215 C   0  0  0  0  0  0  0  0  0  0  0  0
  -23.7879  -11.8285   21.0769 C   0  0  0  0  0  0  0  0  0  0  0  0
  -23.4804  -14.0050   21.1348 C   0  0  0  0  0  0  0  0  0  0  0  0
  -21.4243  -12.6747   21.6359 C   0  0  0  0  0  0  0  0  0  0  0  0
  -23.8536  -30.1943   22.9590 C   0  0  0  0  0  0  0  0  0  0  0  0
  -21.4980  -29.1458   20.9907 C   0  0  0  0  0  0  0  0  0  0  0  0
  -29.2492  -24.4797   20.3445 C   0  0  0  0  0  0  0  0  0  0  0  0
  -20.6150  -27.3258   18.2421 C   0  0  0  0  0  0  0  0  0  0  0  0
  -27.8835  -17.1214   22.2863 C   0  0  0  0  0  0  0  0  0  0  0  0
  -24.4449  -33.8631   26.4586 C   0  0  0  0  0  0  0  0  0  0  0  0
  -24.7621  -30.8408   20.6979 C   0  0  0  0  0  0  0  0  0  0  0  0
  -28.2759  -20.3022   22.3488 C   0  0  0  0  0  0  0  0  0  0  0  0
  -23.7591  -28.0590   20.7233 C   0  0  0  0  0  0  0  0  0  0  0  0
  -23.2668  -33.0764   25.8900 C   0  0  0  0  0  0  0  0  0  0  0  0
  -28.0573  -14.9871   19.2708 C   0  0  0  0  0  0  0  0  0  0  0  0
  -23.5739  -31.5823   25.8877 C   0  0  0  0  0  0  0  0  0  0  0  0
  -26.9088  -14.0183   19.5331 C   0  0  0  0  0  0  0  0  0  0  0  0
  -28.7446  -15.4283   20.5625 C   0  0  0  0  0  0  0  0  0  0  0  0
  -26.6522  -15.0249   21.8331 C   0  0  0  0  0  0  0  0  0  0  0  0
  -29.2803  -19.1588   22.7428 C   0  0  1  0  0  0  0  0  0  0  0  0
  -24.7849  -31.2693   25.0005 C   0  0  1  0  0  0  0  0  0  0  0  0
  -23.5359  -30.4366   21.5105 C   0  0  1  0  0  0  0  0  0  0  0  0
  -25.9203  -14.6135   20.5468 C   0  0  2  0  0  0  0  0  0  0  0  0
  -18.6110  -26.6244   16.9045 C   0  0  0  0  0  0  0  0  0  0  0  0
  -20.7754  -27.1099   23.1455 C   0  0  0  0  0  0  0  0  0  0  0  0
  -19.4566  -25.8594   21.4235 C   0  0  0  0  0  0  0  0  0  0  0  0
  -18.8143  -28.1915   22.0327 C   0  0  0  0  0  0  0  0  0  0  0  0
  -21.6233  -28.6738   15.8078 C   0  0  0  0  0  0  0  0  0  0  0  0
  -27.9753  -25.2819   20.1543 C   0  0  0  0  0  0  0  0  0  1  0  0
  -20.9012  -27.7990   20.6605 C   0  0  1  0  0  0  0  0  0  0  0  0
  -19.7187  -27.6544   17.0618 C   0  0  2  0  0  0  0  0  0  0  0  0
  -20.0145  -27.2454   21.8115 C   0  0  0  0  0  0  0  0  0  0  0  0
  -24.9857  -12.3435   20.7868 N   0  0  0  0  0  0  0  0  0  0  0  0
  -24.7665  -13.6687   20.8295 N   0  0  0  0  0  0  0  0  0  0  0  0
  -22.8980  -29.2198   21.0039 N   0  0  0  0  0  0  0  0  0  0  0  0
  -27.7763  -15.9265   21.5523 N   0  0  0  0  0  0  0  0  0  0  0  0
  -23.0880  -15.2939   21.2196 N   0  0  0  0  0  0  0  0  0  0  0  0
  -20.8990  -11.3823   21.7708 N   0  0  0  0  0  0  0  0  0  0  0  0
  -28.9726  -23.2523   20.9369 N   0  0  0  0  0  0  0  0  0  0  0  0
  -24.4057  -31.2846   23.6039 N   0  0  0  0  0  0  0  0  0  0  0  0
  -20.1996  -27.9634   19.3919 N   0  0  0  0  0  0  0  0  0  0  0  0
  -29.0222  -17.8834   22.0435 N   0  0  0  0  0  0  0  0  0  0  0  0
  -20.5131  -27.6866   15.8013 N   0  3  0  0  0  0  0  0  0  0  0  0
  -20.6690  -13.6639   21.7923 O   0  0  0  0  0  0  0  0  0  0  0  0
  -23.6142  -29.0996   23.4551 O   0  0  0  0  0  0  0  0  0  0  0  0
  -20.7495  -30.0988   21.2213 O   0  0  0  0  0  0  0  0  0  0  0  0
  -30.3417  -24.9174   19.9989 O   0  0  0  0  0  0  0  0  0  0  0  0
  -21.5844  -26.5755   18.1538 O   0  0  0  0  0  0  0  0  0  0  0  0
  -27.0332  -17.4853   23.1059 O   0  0  0  0  0  0  0  0  0  0  0  0
  -23.0921   -6.2843   21.2858 O   0  0  0  0  0  0  0  0  0  0  0  0
  -28.2521  -26.5344   19.5290 O   0  0  0  0  0  0  0  0  0  1  0  0
  -20.2446   -4.2237   25.5343 F   0  0  0  0  0  0  0  0  0  0  0  0
  -24.2529   -4.4804   23.0297 F   0  0  0  0  0  0  0  0  0  0  0  0
  1  2  1  0  0  0  0
  1  6  2  0  0  0  0
  2  7  2  0  0  0  0
  3  8  1  0  0  0  0
  3 10  2  0  0  0  0
  4 11  2  0  0  0  0
  4 18  1  0  0  0  0
  5 12  1  0  0  0  0
  5 18  2  0  0  0  0
  6 20  1  0  0  0  0
  7 22  1  0  0  0  0
  8 23  2  0  0  0  0
  9 13  2  0  0  0  0
  9 21  1  0  0  0  0
 10 26  1  0  0  0  0
 11 27  1  0  0  0  0
 12 27  2  0  0  0  0
 13 28  1  0  0  0  0
 14 15  2  0  0  0  0
 14 29  1  0  0  0  0
 15 30  1  0  0  0  0
 16 24  1  0  0  0  0
 16 28  2  0  0  0  0
 17 30  2  0  0  0  0
 17 31  1  0  0  0  0
 18 32  1  0  0  0  0
 19 32  1  0  0  0  0
 19 33  2  0  0  0  0
 19 34  1  0  0  0  0
 20 22  2  0  0  0  0
 20 40  1  0  0  0  0
 21 24  2  0  0  0  0
 21 41  1  0  0  0  0
 22 51  1  0  0  0  0
 23 25  1  0  0  0  0
 23 50  1  0  0  0  0
 24 43  1  0  0  0  0
 25 26  2  0  0  0  0
 25 42  1  0  0  0  0
 26 69  1  0  0  0  0
 27 80  1  0  0  0  0
 28 81  1  0  0  0  0
 29 31  2  0  0  0  0
 29 80  1  0  0  0  0
 30 82  1  0  0  0  0
 31 83  1  0  0  0  0
 32 63  2  0  0  0  0
 33 64  1  0  0  0  0
 33 67  1  0  0  0  0
 34 68  1  0  0  0  0
 34 74  2  0  0  0  0
 35 52  1  0  0  0  0
 35 70  1  0  0  0  0
 35 75  2  0  0  0  0
 36 60  1  0  0  0  0
 36 65  1  0  0  0  0
 36 76  2  0  0  0  0
 37 59  1  0  0  0  0
 37 69  1  0  0  0  0
 37 77  2  0  0  0  0
 38 61  1  0  0  0  0
 38 71  1  0  0  0  0
 38 78  2  0  0  0  0
 39 66  1  0  0  0  0
 39 72  1  0  0  0  0
 39 79  2  0  0  0  0
 40 44  1  0  0  0  0
 41 52  1  0  0  0  0
 42 50  1  0  0  0  0
 43 65  1  0  0  0  0
 44 46  1  0  0  0  0
 45 47  1  0  0  0  0
 45 48  1  0  0  0  0
 46 51  1  0  0  0  0
 47 53  1  0  0  0  0
 48 66  1  0  0  0  0
 49 53  1  0  0  0  0
 49 66  1  0  0  0  0
 50 72  1  0  0  0  0
 51 70  1  0  0  0  0
 52 65  1  0  0  0  0
 53 64  1  0  0  0  0
 54 61  1  0  0  0  0
 55 62  1  0  0  0  0
 56 62  1  0  0  0  0
 57 62  1  0  0  0  0
 58 73  1  0  0  0  0
 59 81  1  0  0  0  0
 60 62  1  0  0  0  0
 60 71  1  0  0  0  0
 61 73  1  0  0  0  0
 63 64  1  0  0  0  0
M  CHG  1  73   1
M  ISO  4  39 100  59 101  72 100  81 101
M  END
> <Batch ID>
0151

> <Smiles>
CNC(C)C(=O)NC(C(=O)N1Cc2cc([101O:1][101CH2:1]C(=O)Nc3cccc4c3CC4[100NH:0][100C:0](=O)N3CCCC(n4nc(-c5ccc(Oc6ccc(F)cc6F)cc5)c(C(N)=O)c4N)C3)ccc2CC1C(=O)NC1CCCc2ccccc21)C(C)(C)C

> <Shape>
0.329

> <Color>
0.117

> <Negative vol penalty>
0.000

$$$$

  -OEChem-04052303243D

 87 95  0     1  0  0  0  0  0999 V2000
  -29.1865  -24.9690   16.9817 C   0  0  0  0  0  0  0  0  0  0  0  0
  -27.9355  -25.0899   17.5782 C   0  0  0  0  0  0  0  0  0  0  0  0
  -24.0605  -11.6926   20.2935 C   0  0  0  0  0  0  0  0  0  0  0  0
  -25.0437  -13.5080   21.5484 C   0  0  0  0  0  0  0  0  0  0  0  0
  -30.3045  -25.5410   17.5874 C   0  0  0  0  0  0  0  0  0  0  0  0
  -27.8019  -25.7819   18.7814 C   0  0  0  0  0  0  0  0  0  0  0  0
  -23.8267  -28.9192   18.7870 C   0  0  0  0  0  0  0  0  0  0  0  0
  -25.3317  -11.2802   19.8941 C   0  0  0  0  0  0  0  0  0  0  0  0
  -26.3149  -13.0956   21.1490 C   0  0  0  0  0  0  0  0  0  0  0  0
  -22.5682  -28.3519   18.9820 C   0  0  0  0  0  0  0  0  0  0  0  0
  -28.2654  -13.3452   18.3987 C   0  0  0  0  0  0  0  0  0  0  0  0
  -29.1571  -14.3249   17.9620 C   0  0  0  0  0  0  0  0  0  0  0  0
  -22.6313  -29.0224   21.2983 C   0  0  0  0  0  0  0  0  0  0  0  0
  -21.4788  -20.8052   21.9922 C   0  0  0  0  0  0  0  0  0  0  0  0
  -21.4990  -23.0859   21.1955 C   0  0  0  0  0  0  0  0  0  0  0  0
  -20.0707  -21.4494   20.1376 C   0  0  0  0  0  0  0  0  0  0  0  0
  -30.6891  -13.7181   19.7289 C   0  0  0  0  0  0  0  0  0  0  0  0
  -23.9165  -12.8066   21.1206 C   0  0  0  0  0  0  0  0  0  0  0  0
  -21.8976  -12.8233   22.6799 C   0  0  0  0  0  0  0  0  0  0  0  0
  -30.1830  -26.2487   18.7937 C   0  0  0  0  0  0  0  0  0  0  0  0
  -24.5029  -29.5338   19.8507 C   0  0  0  0  0  0  0  0  0  0  0  0
  -28.9196  -26.3628   19.4045 C   0  0  0  0  0  0  0  0  0  0  0  0
  -23.8972  -29.5990   21.1137 C   0  0  0  0  0  0  0  0  0  0  0  0
  -21.9616  -22.1109   22.0792 C   0  0  0  0  0  0  0  0  0  0  0  0
  -20.5334  -20.4744   21.0213 C   0  0  0  0  0  0  0  0  0  0  0  0
  -20.5535  -22.7552   20.2247 C   0  0  0  0  0  0  0  0  0  0  0  0
  -26.4589  -11.9817   20.3218 C   0  0  0  0  0  0  0  0  0  0  0  0
  -21.9715  -28.4009   20.2384 C   0  0  0  0  0  0  0  0  0  0  0  0
  -28.5855  -12.5521   19.5006 C   0  0  0  0  0  0  0  0  0  0  0  0
  -30.3690  -14.5113   18.6270 C   0  0  0  0  0  0  0  0  0  0  0  0
  -29.7974  -12.7385   20.1656 C   0  0  0  0  0  0  0  0  0  0  0  0
  -22.6035  -13.2334   21.5331 C   0  0  0  0  0  0  0  0  0  0  0  0
  -20.7104  -13.5112   22.6165 C   0  0  0  0  0  0  0  0  0  0  0  0
  -22.2807  -11.9029   23.7103 C   0  0  0  0  0  0  0  0  0  0  0  0
  -27.2459  -29.0077   21.3682 C   0  0  0  0  0  0  0  0  0  0  0  0
  -19.4241  -25.8186   20.3477 C   0  0  0  0  0  0  0  0  0  0  0  0
  -26.4994  -31.7856   22.8675 C   0  0  0  0  0  0  0  0  0  0  0  0
  -24.0882  -33.9985   23.8351 C   0  0  0  0  0  0  0  0  0  0  0  0
  -19.1044  -18.6523   20.0292 C   0  0  0  0  0  0  0  0  0  0  0  0
  -31.4277  -26.8092   19.4350 C   0  0  0  0  0  0  0  0  0  0  0  0
  -25.8483  -30.1646   19.6177 C   0  0  0  0  0  0  0  0  0  0  0  0
  -24.5725  -30.2652   22.2836 C   0  0  0  0  0  0  0  0  0  0  0  0
  -31.1408  -27.8468   20.5173 C   0  0  0  0  0  0  0  0  0  0  0  0
  -17.6662  -15.4444   19.4654 C   0  0  0  0  0  0  0  0  0  0  0  0
  -30.0443  -27.3513   21.4547 C   0  0  0  0  0  0  0  0  0  0  0  0
  -18.7021  -14.4763   20.0415 C   0  0  0  0  0  0  0  0  0  0  0  0
  -18.3262  -16.6446   18.7889 C   0  0  0  0  0  0  0  0  0  0  0  0
  -20.3345  -16.3995   20.1944 C   0  0  0  0  0  0  0  0  0  0  0  0
  -28.7302  -27.1270   20.6968 C   0  0  1  0  0  0  0  0  0  0  0  0
  -26.6686  -30.3119   20.8955 C   0  0  1  0  0  0  0  0  0  0  0  0
  -19.7165  -15.2073   20.9428 C   0  0  2  0  0  0  0  0  0  0  0  0
  -24.2770  -23.0208   22.5310 C   0  0  0  0  0  0  0  0  0  0  0  0
  -23.7792  -36.1560   25.0789 C   0  0  0  0  0  0  0  0  0  0  0  0
  -17.9629  -23.7462   20.4739 C   0  0  0  0  0  0  0  0  0  0  0  0
  -18.3012  -24.9491   18.2842 C   0  0  0  0  0  0  0  0  0  0  0  0
  -26.8612  -30.3094   25.5132 C   0  0  0  0  0  0  0  0  0  0  0  0
  -25.6440  -32.1820   26.6446 C   0  0  0  0  0  0  0  0  0  0  0  0
  -27.8017  -32.6263   25.4743 C   0  0  0  0  0  0  0  0  0  0  0  0
  -22.9834  -35.3520   21.4462 C   0  0  0  0  0  0  0  0  0  0  0  0
  -20.4010  -26.7263   19.6178 C   0  0  0  0  0  0  0  0  0  1  0  0
  -22.9725  -22.4645   23.1170 C   0  0  1  0  0  0  0  0  0  0  0  0
  -25.7259  -32.1555   24.1101 C   0  0  1  0  0  0  0  0  0  0  0  0
  -24.0036  -35.5099   23.7206 C   0  0  2  0  0  0  0  0  0  0  0  0
  -18.9365  -24.5562   19.6185 C   0  0  0  0  0  0  0  0  0  0  0  0
  -26.4960  -31.8040   25.4142 C   0  0  0  0  0  0  0  0  0  0  0  0
  -21.9217  -14.1135   20.7951 N   0  0  0  0  0  0  0  0  0  0  0  0
  -20.7748  -14.2619   21.4797 N   0  0  0  0  0  0  0  0  0  0  0  0
  -25.8897  -30.8618   22.0069 N   0  0  0  0  0  0  0  0  0  0  0  0
  -19.2707  -17.2895   19.7036 N   0  0  0  0  0  0  0  0  0  0  0  0
  -19.6281  -13.5409   23.4228 N   0  0  0  0  0  0  0  0  0  0  0  0
  -23.5351  -11.2843   23.6211 N   0  0  0  0  0  0  0  0  0  0  0  0
  -20.0434  -19.1478   20.9333 N   0  0  0  0  0  0  0  0  0  0  0  0
  -20.0958  -23.7201   19.3507 N   0  0  0  0  0  0  0  0  0  0  0  0
  -28.0694  -28.3899   20.4464 N   0  0  0  0  0  0  0  0  0  0  0  0
  -25.3908  -33.5691   23.9766 N   0  0  0  0  0  0  0  0  0  0  0  0
  -22.4720  -23.4644   24.1218 N   0  3  0  0  0  0  0  0  0  0  0  0
  -22.8793  -35.8993   22.8234 N   0  3  0  0  0  0  0  0  0  0  0  0
  -21.5260  -11.6246   24.6729 O   0  0  0  0  0  0  0  0  0  0  0  0
  -26.9663  -28.5933   22.4870 O   0  0  0  0  0  0  0  0  0  0  0  0
  -19.0655  -26.0789   21.4988 O   0  0  0  0  0  0  0  0  0  0  0  0
  -27.6006  -32.3029   22.6644 O   0  0  0  0  0  0  0  0  0  0  0  0
  -23.0974  -33.2718   23.8058 O   0  0  0  0  0  0  0  0  0  0  0  0
  -18.1798  -19.3228   19.5629 O   0  0  0  0  0  0  0  0  0  0  0  0
  -27.6995  -11.5794   19.9325 O   0  0  0  0  0  0  0  0  0  0  0  0
  -20.7434  -27.8474   20.4316 O   0  0  0  0  0  0  0  0  0  1  0  0
  -31.2259  -15.4511   18.2066 F   0  0  0  0  0  0  0  0  0  0  0  0
  -30.1109  -11.9787   21.2241 F   0  0  0  0  0  0  0  0  0  0  0  0
  1  2  1  0  0  0  0
  1  5  2  0  0  0  0
  2  6  2  0  0  0  0
  3  8  2  0  0  0  0
  3 18  1  0  0  0  0
  4  9  1  0  0  0  0
  4 18  2  0  0  0  0
  5 20  1  0  0  0  0
  6 22  1  0  0  0  0
  7 10  2  0  0  0  0
  7 21  1  0  0  0  0
  8 27  1  0  0  0  0
  9 27  2  0  0  0  0
 10 28  1  0  0  0  0
 11 12  2  0  0  0  0
 11 29  1  0  0  0  0
 12 30  1  0  0  0  0
 13 23  1  0  0  0  0
 13 28  2  0  0  0  0
 14 24  2  0  0  0  0
 14 25  1  0  0  0  0
 15 24  1  0  0  0  0
 15 26  2  0  0  0  0
 16 25  2  0  0  0  0
 16 26  1  0  0  0  0
 17 30  2  0  0  0  0
 17 31  1  0  0  0  0
 18 32  1  0  0  0  0
 19 32  1  0  0  0  0
 19 33  2  0  0  0  0
 19 34  1  0  0  0  0
 20 22  2  0  0  0  0
 20 40  1  0  0  0  0
 21 23  2  0  0  0  0
 21 41  1  0  0  0  0
 22 49  1  0  0  0  0
 23 42  1  0  0  0  0
 24 61  1  0  0  0  0
 25 72  1  0  0  0  0
 26 73  1  0  0  0  0
 27 84  1  0  0  0  0
 28 85  1  0  0  0  0
 29 31  2  0  0  0  0
 29 84  1  0  0  0  0
 30 86  1  0  0  0  0
 31 87  1  0  0  0  0
 32 66  2  0  0  0  0
 33 67  1  0  0  0  0
 33 70  1  0  0  0  0
 34 71  1  0  0  0  0
 34 78  2  0  0  0  0
 35 50  1  0  0  0  0
 35 74  1  0  0  0  0
 35 79  2  0  0  0  0
 36 60  1  0  0  0  0
 36 64  1  0  0  0  0
 36 80  2  0  0  0  0
 37 62  1  0  0  0  0
 37 68  1  0  0  0  0
 37 81  2  0  0  0  0
 38 63  1  0  0  0  0
 38 75  1  0  0  0  0
 38 82  2  0  0  0  0
 39 69  1  0  0  0  0
 39 72  1  0  0  0  0
 39 83  2  0  0  0  0
 40 43  1  0  0  0  0
 41 50  1  0  0  0  0
 42 68  1  0  0  0  0
 43 45  1  0  0  0  0
 44 46  1  0  0  0  0
 44 47  1  0  0  0  0
 45 49  1  0  0  0  0
 46 51  1  0  0  0  0
 47 69  1  0  0  0  0
 48 51  1  0  0  0  0
 48 69  1  0  0  0  0
 49 74  1  0  0  0  0
 50 68  1  0  0  0  0
 51 67  1  0  0  0  0
 52 61  1  0  0  0  0
 53 63  1  0  0  0  0
 54 64  1  0  0  0  0
 55 64  1  0  0  0  0
 56 65  1  0  0  0  0
 57 65  1  0  0  0  0
 58 65  1  0  0  0  0
 59 77  1  0  0  0  0
 60 85  1  0  0  0  0
 61 76  1  0  0  0  0
 62 65  1  0  0  0  0
 62 75  1  0  0  0  0
 63 77  1  0  0  0  0
 64 73  1  0  0  0  0
 66 67  1  0  0  0  0
M  CHG  2  76   1  77   1
M  ISO  4  39 100  60 101  72 100  85 101
M  END
> <Batch ID>
0151

> <Smiles>
CNC(C)C(=O)NC(C(=O)N1Cc2cc([101O:1][101CH2:1]C(=O)C(C)(C)Nc3cc([100NH:0][100C:0](=O)N4CCCC(n5nc(-c6ccc(Oc7ccc(F)cc7F)cc6)c(C(N)=O)c5N)C4)cc(C(C)N)c3)ccc2CC1C(=O)NC1CCCc2ccccc21)C(C)(C)C

> <Shape>
0.284

> <Color>
0.084

> <Negative vol penalty>
0.000

$$$$

  -OEChem-04052303243D

 82 90  0     1  0  0  0  0  0999 V2000
  -28.5401  -36.2380   21.9752 C   0  0  0  0  0  0  0  0  0  0  0  0
  -28.7304  -34.8605   22.0170 C   0  0  0  0  0  0  0  0  0  0  0  0
  -23.6602   -9.9150   23.0229 C   0  0  0  0  0  0  0  0  0  0  0  0
  -23.7855  -10.2161   20.6291 C   0  0  0  0  0  0  0  0  0  0  0  0
  -27.3093  -36.7819   22.3399 C   0  0  0  0  0  0  0  0  0  0  0  0
  -27.6901  -34.0261   22.4246 C   0  0  0  0  0  0  0  0  0  0  0  0
  -27.1630  -29.9746   19.4326 C   0  0  0  0  0  0  0  0  0  0  0  0
  -22.8368   -8.8041   22.8401 C   0  0  0  0  0  0  0  0  0  0  0  0
  -22.9621   -9.1051   20.4462 C   0  0  0  0  0  0  0  0  0  0  0  0
  -28.0649  -28.9271   19.6145 C   0  0  0  0  0  0  0  0  0  0  0  0
  -23.1956   -5.5493   21.9974 C   0  0  0  0  0  0  0  0  0  0  0  0
  -23.4724   -4.4067   22.7480 C   0  0  0  0  0  0  0  0  0  0  0  0
  -26.4091  -27.7329   20.8997 C   0  0  0  0  0  0  0  0  0  0  0  0
  -30.2336  -19.7280   19.2782 C   0  0  0  0  0  0  0  0  0  0  0  0
  -21.2740   -4.5277   23.7429 C   0  0  0  0  0  0  0  0  0  0  0  0
  -24.1345  -10.6211   21.9174 C   0  0  0  0  0  0  0  0  0  0  0  0
  -26.3904  -11.7827   22.1807 C   0  0  0  0  0  0  0  0  0  0  0  0
  -26.2503  -35.9531   22.7430 C   0  0  0  0  0  0  0  0  0  0  0  0
  -25.8790  -29.9139   19.9929 C   0  0  0  0  0  0  0  0  0  0  0  0
  -26.4443  -34.5596   22.7964 C   0  0  0  0  0  0  0  0  0  0  0  0
  -25.4920  -28.7799   20.7212 C   0  0  0  0  0  0  0  0  0  0  0  0
  -29.5566  -18.5063   19.5069 C   0  0  0  0  0  0  0  0  0  0  0  0
  -22.4877   -8.3991   21.5518 C   0  0  0  0  0  0  0  0  0  0  0  0
  -27.6889  -27.8073   20.3506 C   0  0  0  0  0  0  0  0  0  0  0  0
  -21.9580   -6.1812   22.1196 C   0  0  0  0  0  0  0  0  0  0  0  0
  -22.5116   -3.8959   23.6208 C   0  0  0  0  0  0  0  0  0  0  0  0
  -20.9973   -5.6704   22.9923 C   0  0  0  0  0  0  0  0  0  0  0  0
  -24.9847  -11.7691   22.1056 C   0  0  0  0  0  0  0  0  0  0  0  0
  -26.7117  -13.1056   22.3630 C   0  0  0  0  0  0  0  0  0  0  0  0
  -29.3941  -20.7201   19.7288 C   0  0  0  0  0  0  0  0  0  0  0  0
  -28.3518  -18.8389   20.0812 C   0  0  0  0  0  0  0  0  0  0  0  0
  -27.3224  -10.6967   22.0933 C   0  0  0  0  0  0  0  0  0  0  0  0
  -24.2813  -31.6384   22.1323 C   0  0  0  0  0  0  0  0  0  0  0  0
  -28.9885  -24.4249   20.1667 C   0  0  0  0  0  0  0  0  0  0  0  0
  -21.8224  -29.7020   21.2801 C   0  0  0  0  0  0  0  0  0  0  0  0
  -20.8026  -26.7186   19.9739 C   0  0  0  0  0  0  0  0  0  0  0  0
  -26.0748  -18.4913   21.1014 C   0  0  0  0  0  0  0  0  0  0  0  0
  -24.9529  -36.5905   23.1732 C   0  0  0  0  0  0  0  0  0  0  0  0
  -24.9088  -31.0405   19.7649 C   0  0  0  0  0  0  0  0  0  0  0  0
  -24.1182  -28.6568   21.3263 C   0  0  0  0  0  0  0  0  0  0  0  0
  -23.7839  -35.6107   23.2346 C   0  0  0  0  0  0  0  0  0  0  0  0
  -23.7794  -17.0900   23.4348 C   0  0  0  0  0  0  0  0  0  0  0  0
  -24.1970  -34.3313   23.9553 C   0  0  0  0  0  0  0  0  0  0  0  0
  -24.0040  -15.5818   23.3032 C   0  0  0  0  0  0  0  0  0  0  0  0
  -23.9011  -17.8011   22.0883 C   0  0  0  0  0  0  0  0  0  0  0  0
  -25.3673  -16.0214   21.2211 C   0  0  0  0  0  0  0  0  0  0  0  0
  -25.3323  -33.6199   23.2093 C   0  0  1  0  0  0  0  0  0  0  0  0
  -23.8030  -31.0983   20.8143 C   0  0  1  0  0  0  0  0  0  0  0  0
  -25.3189  -15.2705   22.5618 C   0  0  2  0  0  0  0  0  0  0  0  0
  -18.7307  -25.4077   19.4388 C   0  0  0  0  0  0  0  0  0  0  0  0
  -21.4696  -29.0556   24.2411 C   0  0  0  0  0  0  0  0  0  0  0  0
  -20.0790  -27.0837   23.5734 C   0  0  0  0  0  0  0  0  0  0  0  0
  -19.3333  -29.3902   22.9847 C   0  0  0  0  0  0  0  0  0  0  0  0
  -21.4607  -26.6343   17.0897 C   0  0  0  0  0  0  0  0  0  0  0  0
  -28.5186  -22.9903   20.2814 C   0  0  0  0  0  0  0  0  0  0  0  0
  -28.0185  -25.4743   20.6740 C   0  0  0  0  0  0  0  0  0  1  0  0
  -21.2949  -28.3707   21.7579 C   0  0  1  0  0  0  0  0  0  0  0  0
  -19.7708  -26.3841   18.9118 C   0  0  2  0  0  0  0  0  0  0  0  0
  -20.5708  -28.4779   23.1296 C   0  0  0  0  0  0  0  0  0  0  0  0
  -24.4498  -12.9866   22.2302 N   0  0  0  0  0  0  0  0  0  0  0  0
  -25.5251  -13.7777   22.3855 N   0  0  0  0  0  0  0  0  0  0  0  0
  -23.2076  -29.7873   21.0808 N   0  0  0  0  0  0  0  0  0  0  0  0
  -25.1730  -17.4623   21.4461 N   0  0  0  0  0  0  0  0  0  0  0  0
  -30.0057  -17.2677   19.2175 N   0  0  0  0  0  0  0  0  0  0  0  0
  -27.8906  -13.7479   22.5048 N   0  0  0  0  0  0  0  0  0  0  0  0
  -26.8227   -9.4009   21.9050 N   0  0  0  0  0  0  0  0  0  0  0  0
  -27.2648  -18.0465   20.5265 N   0  0  0  0  0  0  0  0  0  0  0  0
  -29.5254  -22.1010   19.7610 N   0  0  0  0  0  0  0  0  0  0  0  0
  -24.8147  -32.9110   22.0587 N   0  0  0  0  0  0  0  0  0  0  0  0
  -20.4594  -27.8520   20.6802 N   0  0  0  0  0  0  0  0  0  0  0  0
  -20.4302  -25.7723   17.7236 N   0  3  0  0  0  0  0  0  0  0  0  0
  -28.5608  -10.8682   22.1962 O   0  0  0  0  0  0  0  0  0  0  0  0
  -24.1731  -30.9520   23.1417 O   0  0  0  0  0  0  0  0  0  0  0  0
  -30.0827  -24.7309   19.6945 O   0  0  0  0  0  0  0  0  0  0  0  0
  -21.0336  -30.6298   21.0838 O   0  0  0  0  0  0  0  0  0  0  0  0
  -21.8101  -26.0401   20.1609 O   0  0  0  0  0  0  0  0  0  0  0  0
  -25.8224  -19.6778   21.3265 O   0  0  0  0  0  0  0  0  0  0  0  0
  -28.2450  -20.1864   20.2200 O   0  0  0  0  0  0  0  0  0  0  0  0
  -21.6845   -7.3150   21.3730 O   0  0  0  0  0  0  0  0  0  0  0  0
  -28.5675  -26.7837   20.5303 O   0  0  0  0  0  0  0  0  0  1  0  0
  -22.7770   -2.7978   24.3404 F   0  0  0  0  0  0  0  0  0  0  0  0
  -19.8061   -6.2724   23.1130 F   0  0  0  0  0  0  0  0  0  0  0  0
  1  2  1  0  0  0  0
  1  5  2  0  0  0  0
  2  6  2  0  0  0  0
  3  8  2  0  0  0  0
  3 16  1  0  0  0  0
  4  9  1  0  0  0  0
  4 16  2  0  0  0  0
  5 18  1  0  0  0  0
  6 20  1  0  0  0  0
  7 10  2  0  0  0  0
  7 19  1  0  0  0  0
  8 23  1  0  0  0  0
  9 23  2  0  0  0  0
 10 24  1  0  0  0  0
 11 12  2  0  0  0  0
 11 25  1  0  0  0  0
 12 26  1  0  0  0  0
 13 21  1  0  0  0  0
 13 24  2  0  0  0  0
 14 22  1  0  0  0  0
 14 30  2  0  0  0  0
 15 26  2  0  0  0  0
 15 27  1  0  0  0  0
 16 28  1  0  0  0  0
 17 28  1  0  0  0  0
 17 29  2  0  0  0  0
 17 32  1  0  0  0  0
 18 20  2  0  0  0  0
 18 38  1  0  0  0  0
 19 21  2  0  0  0  0
 19 39  1  0  0  0  0
 20 47  1  0  0  0  0
 21 40  1  0  0  0  0
 22 31  2  0  0  0  0
 22 64  1  0  0  0  0
 23 79  1  0  0  0  0
 24 80  1  0  0  0  0
 25 27  2  0  0  0  0
 25 79  1  0  0  0  0
 26 81  1  0  0  0  0
 27 82  1  0  0  0  0
 28 60  2  0  0  0  0
 29 61  1  0  0  0  0
 29 65  1  0  0  0  0
 30 68  1  0  0  0  0
 30 78  1  0  0  0  0
 31 67  1  0  0  0  0
 31 78  1  0  0  0  0
 32 66  1  0  0  0  0
 32 72  2  0  0  0  0
 33 48  1  0  0  0  0
 33 69  1  0  0  0  0
 33 73  2  0  0  0  0
 34 55  1  0  0  0  0
 34 56  1  0  0  0  0
 34 74  2  0  0  0  0
 35 57  1  0  0  0  0
 35 62  1  0  0  0  0
 35 75  2  0  0  0  0
 36 58  1  0  0  0  0
 36 70  1  0  0  0  0
 36 76  2  0  0  0  0
 37 63  1  0  0  0  0
 37 67  1  0  0  0  0
 37 77  2  0  0  0  0
 38 41  1  0  0  0  0
 39 48  1  0  0  0  0
 40 62  1  0  0  0  0
 41 43  1  0  0  0  0
 42 44  1  0  0  0  0
 42 45  1  0  0  0  0
 43 47  1  0  0  0  0
 44 49  1  0  0  0  0
 45 63  1  0  0  0  0
 46 49  1  0  0  0  0
 46 63  1  0  0  0  0
 47 69  1  0  0  0  0
 48 62  1  0  0  0  0
 49 61  1  0  0  0  0
 50 58  1  0  0  0  0
 51 59  1  0  0  0  0
 52 59  1  0  0  0  0
 53 59  1  0  0  0  0
 54 71  1  0  0  0  0
 55 68  1  0  0  0  0
 56 80  1  0  0  0  0
 57 59  1  0  0  0  0
 57 70  1  0  0  0  0
 58 71  1  0  0  0  0
 60 61  1  0  0  0  0
M  CHG  1  71   1
M  ISO  4  37 100  56 101  67 100  80 101
M  END
> <Batch ID>
0151

> <Smiles>
CNC(C)C(=O)NC(C(=O)N1Cc2cc([101O:1][101CH2:1]C(=O)CNc3cc(N)c([100NH:0][100C:0](=O)N4CCCC(n5nc(-c6ccc(Oc7ccc(F)cc7F)cc6)c(C(N)=O)c5N)C4)o3)ccc2CC1C(=O)NC1CCCc2ccccc21)C(C)(C)C

> <Shape>
0.304

> <Color>
0.095

> <Negative vol penalty>
0.000

$$$$

  -OEChem-04052303243D

 84 92  0     1  0  0  0  0  0999 V2000
  -16.1519  -21.6045   24.8535 C   0  0  0  0  0  0  0  0  0  0  0  0
  -17.5407  -21.5298   24.8211 C   0  0  0  0  0  0  0  0  0  0  0  0
  -23.0722   -9.8730   19.9411 C   0  0  0  0  0  0  0  0  0  0  0  0
  -23.8394   -9.8745   22.2320 C   0  0  0  0  0  0  0  0  0  0  0  0
  -15.4708  -22.3276   23.8751 C   0  0  0  0  0  0  0  0  0  0  0  0
  -18.2492  -22.1774   23.8096 C   0  0  0  0  0  0  0  0  0  0  0  0
  -22.2814  -24.6892   25.5639 C   0  0  0  0  0  0  0  0  0  0  0  0
  -22.3293   -8.7192   20.1906 C   0  0  0  0  0  0  0  0  0  0  0  0
  -23.0964   -8.7206   22.4816 C   0  0  0  0  0  0  0  0  0  0  0  0
  -23.4162  -23.9386   25.8683 C   0  0  0  0  0  0  0  0  0  0  0  0
  -19.8703   -7.9210   23.0924 C   0  0  0  0  0  0  0  0  0  0  0  0
  -19.1171   -7.8781   24.2656 C   0  0  0  0  0  0  0  0  0  0  0  0
  -28.7701  -18.6813   24.5088 C   0  0  0  0  0  0  0  0  0  0  0  0
  -24.3977  -24.5785   23.7597 C   0  0  0  0  0  0  0  0  0  0  0  0
  -20.3610   -5.9390   24.9933 C   0  0  0  0  0  0  0  0  0  0  0  0
  -23.8274  -10.4507   20.9618 C   0  0  0  0  0  0  0  0  0  0  0  0
  -29.6169  -17.6267   24.0605 C   0  0  0  0  0  0  0  0  0  0  0  0
  -24.1685  -12.9761   20.8469 C   0  0  0  0  0  0  0  0  0  0  0  0
  -16.1719  -22.9924   22.8567 C   0  0  0  0  0  0  0  0  0  0  0  0
  -22.1916  -25.3824   24.3483 C   0  0  0  0  0  0  0  0  0  0  0  0
  -17.5768  -22.9090   22.8159 C   0  0  0  0  0  0  0  0  0  0  0  0
  -23.2618  -25.3392   23.4434 C   0  0  0  0  0  0  0  0  0  0  0  0
  -22.3413   -8.1430   21.4608 C   0  0  0  0  0  0  0  0  0  0  0  0
  -24.4733  -23.8808   24.9650 C   0  0  0  0  0  0  0  0  0  0  0  0
  -20.8689   -6.9728   22.8696 C   0  0  0  0  0  0  0  0  0  0  0  0
  -19.3625   -6.8871   25.2161 C   0  0  0  0  0  0  0  0  0  0  0  0
  -21.1142   -5.9818   23.8201 C   0  0  0  0  0  0  0  0  0  0  0  0
  -24.5955  -11.6423   20.7045 C   0  0  0  0  0  0  0  0  0  0  0  0
  -29.9591  -17.7665   22.7335 C   0  0  0  0  0  0  0  0  0  0  0  0
  -25.2594  -13.7266   20.4820 C   0  0  0  0  0  0  0  0  0  0  0  0
  -28.4976  -19.5872   23.5072 C   0  0  0  0  0  0  0  0  0  0  0  0
  -30.0555  -16.5487   24.9030 C   0  0  0  0  0  0  0  0  0  0  0  0
  -22.8993  -13.4908   21.2711 C   0  0  0  0  0  0  0  0  0  0  0  0
  -20.2606  -25.2482   21.8269 C   0  0  0  0  0  0  0  0  0  0  0  0
  -21.9375  -27.8631   20.8929 C   0  0  0  0  0  0  0  0  0  0  0  0
  -27.0044  -21.3055   24.5803 C   0  0  0  0  0  0  0  0  0  0  0  0
  -24.8199  -29.6796   21.0915 C   0  0  0  0  0  0  0  0  0  0  0  0
  -30.7436  -14.7458   20.6554 C   0  0  0  0  0  0  0  0  0  0  0  0
  -15.3894  -23.7224   21.7940 C   0  0  0  0  0  0  0  0  0  0  0  0
  -20.9718  -26.2092   24.0465 C   0  0  0  0  0  0  0  0  0  0  0  0
  -23.2233  -26.0818   22.1336 C   0  0  0  0  0  0  0  0  0  0  0  0
  -16.2358  -24.6906   20.9715 C   0  0  0  0  0  0  0  0  0  0  0  0
  -29.5987  -12.3671   18.2664 C   0  0  0  0  0  0  0  0  0  0  0  0
  -17.5371  -24.0246   20.5357 C   0  0  0  0  0  0  0  0  0  0  0  0
  -28.1627  -12.0721   18.7032 C   0  0  0  0  0  0  0  0  0  0  0  0
  -30.5196  -12.5851   19.4649 C   0  0  0  0  0  0  0  0  0  0  0  0
  -28.6222  -13.3125   20.8593 C   0  0  0  0  0  0  0  0  0  0  0  0
  -18.3822  -23.6184   21.7491 C   0  0  1  0  0  0  0  0  0  0  0  0
  -20.7732  -26.4587   22.5547 C   0  0  1  0  0  0  0  0  0  0  0  0
  -27.6443  -13.1407   19.6844 C   0  0  2  0  0  0  0  0  0  0  0  0
  -25.9102  -31.7496   20.1840 C   0  0  0  0  0  0  0  0  0  0  0  0
  -22.4805  -26.4199   18.2600 C   0  0  0  0  0  0  0  0  0  0  0  0
  -24.3042  -28.0749   17.8093 C   0  0  0  0  0  0  0  0  0  0  0  0
  -21.9434  -28.8512   18.0255 C   0  0  0  0  0  0  0  0  0  0  0  0
  -25.0345  -30.8875   23.7848 C   0  0  0  0  0  0  0  0  0  0  0  0
  -30.8132  -16.8934   21.8973 C   0  0  0  0  0  0  0  0  0  0  0  0
  -26.2951  -22.5800   24.1618 C   0  0  0  0  0  0  0  0  0  1  0  0
  -23.1939  -28.0965   20.0892 C   0  0  1  0  0  0  0  0  0  0  0  0
  -25.0630  -31.1631   21.3025 C   0  0  2  0  0  0  0  0  0  0  0  0
  -22.9807  -27.8450   18.5698 C   0  0  0  0  0  0  0  0  0  0  0  0
  -25.8590  -11.5476   20.2820 N   0  0  0  0  0  0  0  0  0  0  0  0
  -26.2354  -12.8315   20.1556 N   0  0  0  0  0  0  0  0  0  0  0  0
  -22.0064  -26.8712   21.8815 N   0  0  0  0  0  0  0  0  0  0  0  0
  -29.9718  -13.6113   20.3551 N   0  0  0  0  0  0  0  0  0  0  0  0
  -25.4695  -15.0583   20.4116 N   0  0  0  0  0  0  0  0  0  0  0  0
  -31.1975  -16.6482   25.6130 N   0  0  0  0  0  0  0  0  0  0  0  0
  -21.8886  -12.5807   21.6094 N   0  0  0  0  0  0  0  0  0  0  0  0
  -27.7133  -20.7651   23.5129 N   0  0  0  0  0  0  0  0  0  0  0  0
  -19.0548  -24.7726   22.3057 N   0  0  0  0  0  0  0  0  0  0  0  0
  -23.6416  -29.4465   20.4143 N   0  0  0  0  0  0  0  0  0  0  0  0
  -30.1471  -15.6725   21.5016 N   0  0  0  0  0  0  0  0  0  0  0  0
  -29.3342  -15.4140   25.0041 N   0  3  0  0  0  0  0  0  0  0  0  0
  -25.7669  -31.3939   22.5957 N   0  3  0  0  0  0  0  0  0  0  0  0
  -22.6631  -14.7212   21.3322 O   0  0  0  0  0  0  0  0  0  0  0  0
  -20.9102  -24.7812   20.8987 O   0  0  0  0  0  0  0  0  0  0  0  0
  -20.9342  -28.5410   20.6573 O   0  0  0  0  0  0  0  0  0  0  0  0
  -26.9195  -20.8687   25.7234 O   0  0  0  0  0  0  0  0  0  0  0  0
  -25.5992  -28.8144   21.4846 O   0  0  0  0  0  0  0  0  0  0  0  0
  -31.8781  -14.9226   20.1986 O   0  0  0  0  0  0  0  0  0  0  0  0
  -21.6163   -7.0172   21.7047 O   0  0  0  0  0  0  0  0  0  0  0  0
  -25.5819  -23.1484   25.2593 O   0  0  0  0  0  0  0  0  0  1  0  0
  -18.6401   -6.8469   26.3433 F   0  0  0  0  0  0  0  0  0  0  0  0
  -22.0730   -5.0690   23.6121 F   0  0  0  0  0  0  0  0  0  0  0  0
  -29.2608  -19.1647   22.0337 S   0  0  0  0  0  0  0  0  0  0  0  0
  1  2  1  0  0  0  0
  1  5  2  0  0  0  0
  2  6  2  0  0  0  0
  3  8  2  0  0  0  0
  3 16  1  0  0  0  0
  4  9  1  0  0  0  0
  4 16  2  0  0  0  0
  5 19  1  0  0  0  0
  6 21  1  0  0  0  0
  7 10  2  0  0  0  0
  7 20  1  0  0  0  0
  8 23  1  0  0  0  0
  9 23  2  0  0  0  0
 10 24  1  0  0  0  0
 11 12  2  0  0  0  0
 11 25  1  0  0  0  0
 12 26  1  0  0  0  0
 13 17  1  0  0  0  0
 13 31  2  0  0  0  0
 14 22  1  0  0  0  0
 14 24  2  0  0  0  0
 15 26  2  0  0  0  0
 15 27  1  0  0  0  0
 16 28  1  0  0  0  0
 17 29  2  0  0  0  0
 17 32  1  0  0  0  0
 18 28  1  0  0  0  0
 18 30  2  0  0  0  0
 18 33  1  0  0  0  0
 19 21  2  0  0  0  0
 19 39  1  0  0  0  0
 20 22  2  0  0  0  0
 20 40  1  0  0  0  0
 21 48  1  0  0  0  0
 22 41  1  0  0  0  0
 23 80  1  0  0  0  0
 24 81  1  0  0  0  0
 25 27  2  0  0  0  0
 25 80  1  0  0  0  0
 26 82  1  0  0  0  0
 27 83  1  0  0  0  0
 28 61  2  0  0  0  0
 29 56  1  0  0  0  0
 29 84  1  0  0  0  0
 30 62  1  0  0  0  0
 30 65  1  0  0  0  0
 31 68  1  0  0  0  0
 31 84  1  0  0  0  0
 32 66  1  0  0  0  0
 32 72  2  0  0  0  0
 33 67  1  0  0  0  0
 33 74  2  0  0  0  0
 34 49  1  0  0  0  0
 34 69  1  0  0  0  0
 34 75  2  0  0  0  0
 35 58  1  0  0  0  0
 35 63  1  0  0  0  0
 35 76  2  0  0  0  0
 36 57  1  0  0  0  0
 36 68  1  0  0  0  0
 36 77  2  0  0  0  0
 37 59  1  0  0  0  0
 37 70  1  0  0  0  0
 37 78  2  0  0  0  0
 38 64  1  0  0  0  0
 38 71  1  0  0  0  0
 38 79  2  0  0  0  0
 39 42  1  0  0  0  0
 40 49  1  0  0  0  0
 41 63  1  0  0  0  0
 42 44  1  0  0  0  0
 43 45  1  0  0  0  0
 43 46  1  0  0  0  0
 44 48  1  0  0  0  0
 45 50  1  0  0  0  0
 46 64  1  0  0  0  0
 47 50  1  0  0  0  0
 47 64  1  0  0  0  0
 48 69  1  0  0  0  0
 49 63  1  0  0  0  0
 50 62  1  0  0  0  0
 51 59  1  0  0  0  0
 52 60  1  0  0  0  0
 53 60  1  0  0  0  0
 54 60  1  0  0  0  0
 55 73  1  0  0  0  0
 56 71  1  0  0  0  0
 57 81  1  0  0  0  0
 58 60  1  0  0  0  0
 58 70  1  0  0  0  0
 59 73  1  0  0  0  0
 61 62  1  0  0  0  0
M  CHG  2  72   1  73   1
M  ISO  4  38 100  57 101  71 100  81 101
M  END
> <Batch ID>
0151

> <Smiles>
CNC(C)C(=O)NC(C(=O)N1Cc2cc([101O:1][101CH2:1]C(=O)Nc3cc(C(=N)N)c(C[100NH:0][100C:0](=O)N4CCCC(n5nc(-c6ccc(Oc7ccc(F)cc7F)cc6)c(C(N)=O)c5N)C4)s3)ccc2CC1C(=O)NC1CCCc2ccccc21)C(C)(C)C

> <Shape>
0.256

> <Color>
0.180

> <Negative vol penalty>
0.000

$$$$

  -OEChem-04052303243D

 83 92  0     1  0  0  0  0  0999 V2000
  -29.3305  -36.5223   23.2028 C   0  0  0  0  0  0  0  0  0  0  0  0
  -29.6154  -35.3363   22.5338 C   0  0  0  0  0  0  0  0  0  0  0  0
  -24.2478   -9.8859   18.9892 C   0  0  0  0  0  0  0  0  0  0  0  0
  -23.7015   -9.6575   21.3315 C   0  0  0  0  0  0  0  0  0  0  0  0
  -28.3939  -36.5311   24.2356 C   0  0  0  0  0  0  0  0  0  0  0  0
  -28.9646  -34.1580   22.8979 C   0  0  0  0  0  0  0  0  0  0  0  0
  -27.2717  -29.5896   19.1872 C   0  0  0  0  0  0  0  0  0  0  0  0
  -23.7167   -8.6201   18.7418 C   0  0  0  0  0  0  0  0  0  0  0  0
  -23.1703   -8.3916   21.0841 C   0  0  0  0  0  0  0  0  0  0  0  0
  -27.8564  -28.3604   18.8857 C   0  0  0  0  0  0  0  0  0  0  0  0
  -20.3132   -7.0925   19.8313 C   0  0  0  0  0  0  0  0  0  0  0  0
  -19.0853   -6.7811   20.4154 C   0  0  0  0  0  0  0  0  0  0  0  0
  -26.4557  -27.2960   20.5362 C   0  0  0  0  0  0  0  0  0  0  0  0
  -29.1531  -20.5846   19.2467 C   0  0  0  0  0  0  0  0  0  0  0  0
  -20.1128   -4.9389   21.5933 C   0  0  0  0  0  0  0  0  0  0  0  0
  -24.2403  -10.4046   20.2841 C   0  0  0  0  0  0  0  0  0  0  0  0
  -24.1074  -12.9428   20.5015 C   0  0  0  0  0  0  0  0  0  0  0  0
  -27.7242  -35.3543   24.6061 C   0  0  0  0  0  0  0  0  0  0  0  0
  -26.2806  -29.6832   20.1748 C   0  0  0  0  0  0  0  0  0  0  0  0
  -28.0191  -34.1508   23.9375 C   0  0  0  0  0  0  0  0  0  0  0  0
  -25.8581  -28.5271   20.8466 C   0  0  0  0  0  0  0  0  0  0  0  0
  -29.2181  -19.1913   19.4575 C   0  0  0  0  0  0  0  0  0  0  0  0
  -23.1779   -7.8730   19.7893 C   0  0  0  0  0  0  0  0  0  0  0  0
  -27.4505  -27.2138   19.5622 C   0  0  0  0  0  0  0  0  0  0  0  0
  -21.4408   -6.3270   20.1283 C   0  0  0  0  0  0  0  0  0  0  0  0
  -18.9851   -5.7044   21.2964 C   0  0  0  0  0  0  0  0  0  0  0  0
  -21.3406   -5.2502   21.0093 C   0  0  0  0  0  0  0  0  0  0  0  0
  -24.7893  -11.7119   20.5403 C   0  0  0  0  0  0  0  0  0  0  0  0
  -28.3554  -18.7764   20.4301 C   0  0  0  0  0  0  0  0  0  0  0  0
  -25.0648  -13.8758   20.8167 C   0  0  0  0  0  0  0  0  0  0  0  0
  -28.2138  -21.1612   20.0872 C   0  0  0  0  0  0  0  0  0  0  0  0
  -22.7315  -13.2183   20.2070 C   0  0  0  0  0  0  0  0  0  0  0  0
  -26.0203  -31.2026   22.9546 C   0  0  0  0  0  0  0  0  0  0  0  0
  -22.9845  -30.0644   22.8485 C   0  0  0  0  0  0  0  0  0  0  0  0
  -28.2720  -23.6146   19.5291 C   0  0  0  0  0  0  0  0  0  0  0  0
  -20.8090  -27.7212   21.6557 C   0  0  0  0  0  0  0  0  0  0  0  0
  -30.2918  -15.7693   19.9097 C   0  0  0  0  0  0  0  0  0  0  0  0
  -26.7544  -35.4035   25.7602 C   0  0  0  0  0  0  0  0  0  0  0  0
  -25.6407  -31.0122   20.4695 C   0  0  0  0  0  0  0  0  0  0  0  0
  -24.7836  -28.5707   21.9011 C   0  0  0  0  0  0  0  0  0  0  0  0
  -28.3937  -17.3255   20.6814 C   0  0  0  0  0  0  0  0  0  0  0  0
  -25.8344  -34.1877   25.8350 C   0  0  0  0  0  0  0  0  0  0  0  0
  -29.7679  -13.3194   22.5958 C   0  0  0  0  0  0  0  0  0  0  0  0
  -26.6348  -32.9010   25.6601 C   0  0  0  0  0  0  0  0  0  0  0  0
  -28.3854  -12.7536   22.2639 C   0  0  0  0  0  0  0  0  0  0  0  0
  -30.5180  -13.7714   21.3446 C   0  0  0  0  0  0  0  0  0  0  0  0
  -28.3921  -14.1264   20.1502 C   0  0  0  0  0  0  0  0  0  0  0  0
  -27.3158  -32.8572   24.2869 C   0  0  1  0  0  0  0  0  0  0  0  0
  -29.9981  -18.0556   18.9070 C   0  0  2  0  0  0  0  0  0  0  0  0
  -25.0046  -31.0750   21.8547 C   0  0  1  0  0  0  0  0  0  0  0  0
  -27.5778  -13.7317   21.3894 C   0  0  1  0  0  0  0  0  0  0  0  0
  -29.7117  -17.7802   17.4380 C   0  0  0  0  0  0  0  0  0  0  0  0
  -18.4001  -27.0281   21.7747 C   0  0  0  0  0  0  0  0  0  0  0  0
  -23.4641  -28.8823   25.6203 C   0  0  0  0  0  0  0  0  0  0  0  0
  -21.4438  -27.4433   25.2797 C   0  0  0  0  0  0  0  0  0  0  0  0
  -21.2136  -29.9271   25.3068 C   0  0  0  0  0  0  0  0  0  0  0  0
  -20.4286  -28.1255   18.7487 C   0  0  0  0  0  0  0  0  0  0  0  0
  -27.5684  -24.8774   19.9903 C   0  0  0  0  0  0  0  0  0  1  0  0
  -22.2982  -28.8045   23.3180 C   0  0  1  0  0  0  0  0  0  0  0  0
  -19.4349  -27.8516   21.0238 C   0  0  2  0  0  0  0  0  0  0  0  0
  -22.1266  -28.7635   24.8627 C   0  0  0  0  0  0  0  0  0  0  0  0
  -26.0803  -11.8472   20.8551 N   0  0  0  0  0  0  0  0  0  0  0  0
  -26.2172  -13.1743   21.0170 N   0  0  0  0  0  0  0  0  0  0  0  0
  -24.1929  -29.8946   22.1579 N   0  0  0  0  0  0  0  0  0  0  0  0
  -29.5140  -16.9262   19.7711 N   0  0  0  0  0  0  0  0  0  0  0  0
  -29.6942  -14.6739   20.5421 N   0  0  0  0  0  0  0  0  0  0  0  0
  -25.0250  -15.2196   20.9392 N   0  0  0  0  0  0  0  0  0  0  0  0
  -21.8849  -12.1432   19.9040 N   0  0  0  0  0  0  0  0  0  0  0  0
  -27.8186  -22.4631   20.2258 N   0  0  0  0  0  0  0  0  0  0  0  0
  -26.3588  -32.5073   23.2591 N   0  0  0  0  0  0  0  0  0  0  0  0
  -21.0453  -28.7211   22.5752 N   0  0  0  0  0  0  0  0  0  0  0  0
  -19.4692  -27.3858   19.6086 N   0  3  0  0  0  0  0  0  0  0  0  0
  -22.2703  -14.3848   20.1964 O   0  0  0  0  0  0  0  0  0  0  0  0
  -26.4629  -30.1923   23.4885 O   0  0  0  0  0  0  0  0  0  0  0  0
  -22.4640  -31.1586   23.0796 O   0  0  0  0  0  0  0  0  0  0  0  0
  -29.1279  -23.6402   18.6509 O   0  0  0  0  0  0  0  0  0  0  0  0
  -21.5928  -26.8200   21.3655 O   0  0  0  0  0  0  0  0  0  0  0  0
  -31.4701  -15.7338   19.5340 O   0  0  0  0  0  0  0  0  0  0  0  0
  -22.6593   -6.6379   19.5482 O   0  0  0  0  0  0  0  0  0  0  0  0
  -28.0260  -26.0004   19.2673 O   0  0  0  0  0  0  0  0  0  1  0  0
  -17.8063   -5.4065   21.8583 F   0  0  0  0  0  0  0  0  0  0  0  0
  -22.4207   -4.5119   21.2993 F   0  0  0  0  0  0  0  0  0  0  0  0
  -27.4424  -19.9992   21.1118 S   0  0  0  0  0  0  0  0  0  0  0  0
  1  2  1  0  0  0  0
  1  5  2  0  0  0  0
  2  6  2  0  0  0  0
  3  8  2  0  0  0  0
  3 16  1  0  0  0  0
  4  9  1  0  0  0  0
  4 16  2  0  0  0  0
  5 18  1  0  0  0  0
  6 20  1  0  0  0  0
  7 10  2  0  0  0  0
  7 19  1  0  0  0  0
  8 23  1  0  0  0  0
  9 23  2  0  0  0  0
 10 24  1  0  0  0  0
 11 12  2  0  0  0  0
 11 25  1  0  0  0  0
 12 26  1  0  0  0  0
 13 21  1  0  0  0  0
 13 24  2  0  0  0  0
 14 22  1  0  0  0  0
 14 31  2  0  0  0  0
 15 26  2  0  0  0  0
 15 27  1  0  0  0  0
 16 28  1  0  0  0  0
 17 28  1  0  0  0  0
 17 30  2  0  0  0  0
 17 32  1  0  0  0  0
 18 20  2  0  0  0  0
 18 38  1  0  0  0  0
 19 21  2  0  0  0  0
 19 39  1  0  0  0  0
 20 48  1  0  0  0  0
 21 40  1  0  0  0  0
 22 29  2  0  0  0  0
 22 49  1  0  0  0  0
 23 79  1  0  0  0  0
 24 80  1  0  0  0  0
 25 27  2  0  0  0  0
 25 79  1  0  0  0  0
 26 81  1  0  0  0  0
 27 82  1  0  0  0  0
 28 62  2  0  0  0  0
 29 41  1  0  0  0  0
 29 83  1  0  0  0  0
 30 63  1  0  0  0  0
 30 67  1  0  0  0  0
 31 69  1  0  0  0  0
 31 83  1  0  0  0  0
 32 68  1  0  0  0  0
 32 73  2  0  0  0  0
 33 50  1  0  0  0  0
 33 70  1  0  0  0  0
 33 74  2  0  0  0  0
 34 59  1  0  0  0  0
 34 64  1  0  0  0  0
 34 75  2  0  0  0  0
 35 58  1  0  0  0  0
 35 69  1  0  0  0  0
 35 76  2  0  0  0  0
 36 60  1  0  0  0  0
 36 71  1  0  0  0  0
 36 77  2  0  0  0  0
 37 65  1  0  0  0  0
 37 66  1  0  0  0  0
 37 78  2  0  0  0  0
 38 42  1  0  0  0  0
 39 50  1  0  0  0  0
 40 64  1  0  0  0  0
 41 65  1  0  0  0  0
 42 44  1  0  0  0  0
 43 45  1  0  0  0  0
 43 46  1  0  0  0  0
 44 48  1  0  0  0  0
 45 51  1  0  0  0  0
 46 66  1  0  0  0  0
 47 51  1  0  0  0  0
 47 66  1  0  0  0  0
 48 70  1  0  0  0  0
 49 52  1  0  0  0  0
 49 65  1  0  0  0  0
 50 64  1  0  0  0  0
 51 63  1  0  0  0  0
 53 60  1  0  0  0  0
 54 61  1  0  0  0  0
 55 61  1  0  0  0  0
 56 61  1  0  0  0  0
 57 72  1  0  0  0  0
 58 80  1  0  0  0  0
 59 61  1  0  0  0  0
 59 71  1  0  0  0  0
 60 72  1  0  0  0  0
 62 63  1  0  0  0  0
M  CHG  1  72   1
M  ISO  4  37 100  58 101  65 100  80 101
M  END
> <Batch ID>
0151

> <Smiles>
CNC(C)C(=O)NC(C(=O)N1Cc2cc([101O:1][101CH2:1]C(=O)Nc3cc4c(s3)C[100N:0]([100C:0](=O)N3CCCC(n5nc(-c6ccc(Oc7ccc(F)cc7F)cc6)c(C(N)=O)c5N)C3)C4C)ccc2CC1C(=O)NC1CCCc2ccccc21)C(C)(C)C

> <Shape>
0.328

> <Color>
0.145

> <Negative vol penalty>
0.000

$$$$

  -OEChem-04052303243D

 83 92  0     1  0  0  0  0  0999 V2000
  -27.1366  -33.4156   26.6755 C   0  0  0  0  0  0  0  0  0  0  0  0
  -27.4969  -32.3341   25.8780 C   0  0  0  0  0  0  0  0  0  0  0  0
  -31.3889  -21.5120   23.9308 C   0  0  0  0  0  0  0  0  0  0  0  0
  -23.5778  -14.4349   21.6858 C   0  0  0  0  0  0  0  0  0  0  0  0
  -25.6682  -14.4410   22.8971 C   0  0  0  0  0  0  0  0  0  0  0  0
  -25.8067  -33.5858   27.0579 C   0  0  0  0  0  0  0  0  0  0  0  0
  -26.5276  -31.4214   25.4634 C   0  0  0  0  0  0  0  0  0  0  0  0
  -31.9554  -22.4935   23.1177 C   0  0  0  0  0  0  0  0  0  0  0  0
  -26.9547  -30.2266   20.5609 C   0  0  0  0  0  0  0  0  0  0  0  0
  -30.0221  -21.2446   23.8522 C   0  0  0  0  0  0  0  0  0  0  0  0
  -23.8837  -13.1780   21.1642 C   0  0  0  0  0  0  0  0  0  0  0  0
  -25.9741  -13.1840   22.3756 C   0  0  0  0  0  0  0  0  0  0  0  0
  -27.9510  -29.3160   20.2119 C   0  0  0  0  0  0  0  0  0  0  0  0
  -23.8066   -9.9624   22.2069 C   0  0  0  0  0  0  0  0  0  0  0  0
  -22.8000   -8.9969   22.2101 C   0  0  0  0  0  0  0  0  0  0  0  0
  -29.7884  -22.9405   22.1475 C   0  0  0  0  0  0  0  0  0  0  0  0
  -26.3021  -27.5578   20.1162 C   0  0  0  0  0  0  0  0  0  0  0  0
  -22.9415   -8.8416   19.8032 C   0  0  0  0  0  0  0  0  0  0  0  0
  -24.4701  -15.0665   22.5522 C   0  0  0  0  0  0  0  0  0  0  0  0
  -23.4629  -16.6454   24.2843 C   0  0  0  0  0  0  0  0  0  0  0  0
  -31.1552  -23.2078   22.2260 C   0  0  0  0  0  0  0  0  0  0  0  0
  -24.8190  -32.6801   26.6398 C   0  0  0  0  0  0  0  0  0  0  0  0
  -25.6241  -29.8069   20.7010 C   0  0  0  0  0  0  0  0  0  0  0  0
  -25.1834  -31.5789   25.8417 C   0  0  0  0  0  0  0  0  0  0  0  0
  -25.2904  -28.4657   20.4645 C   0  0  0  0  0  0  0  0  0  0  0  0
  -29.2218  -21.9589   22.9606 C   0  0  0  0  0  0  0  0  0  0  0  0
  -25.0818  -12.5525   21.5091 C   0  0  0  0  0  0  0  0  0  0  0  0
  -27.6253  -27.9808   19.9923 C   0  0  0  0  0  0  0  0  0  0  0  0
  -24.3806  -10.3677   21.0019 C   0  0  0  0  0  0  0  0  0  0  0  0
  -22.3675   -8.4364   21.0082 C   0  0  0  0  0  0  0  0  0  0  0  0
  -23.9481   -9.8072   19.8001 C   0  0  0  0  0  0  0  0  0  0  0  0
  -24.1550  -16.3652   23.0909 C   0  0  0  0  0  0  0  0  0  0  0  0
  -23.4246  -18.0170   24.3451 C   0  0  0  0  0  0  0  0  0  0  0  0
  -31.1056  -25.5954   21.5370 C   0  0  0  0  0  0  0  0  0  0  0  0
  -30.6189  -26.0569   20.3784 C   0  0  0  0  0  0  0  0  0  0  0  0
  -22.9045  -15.7463   25.2515 C   0  0  0  0  0  0  0  0  0  0  0  0
  -23.5331  -29.7405   23.0941 C   0  0  0  0  0  0  0  0  0  0  0  0
  -21.4902  -28.7752   20.7666 C   0  0  0  0  0  0  0  0  0  0  0  0
  -21.0596  -27.3133   17.7131 C   0  0  0  0  0  0  0  0  0  0  0  0
  -26.8983  -22.3033   22.0502 C   0  0  0  0  0  0  0  0  0  0  0  0
  -23.4024  -32.8792   27.1177 C   0  0  0  0  0  0  0  0  0  0  0  0
  -24.5568  -30.8069   21.0519 C   0  0  0  0  0  0  0  0  0  0  0  0
  -23.8735  -27.9684   20.5821 C   0  0  0  0  0  0  0  0  0  0  0  0
  -30.8788  -25.0963   19.2646 C   0  0  0  0  0  0  0  0  0  0  0  0
  -22.3739  -32.0756   26.3260 C   0  0  0  0  0  0  0  0  0  0  0  0
  -23.4002  -21.8910   21.5298 C   0  0  0  0  0  0  0  0  0  0  0  0
  -22.8456  -30.6364   26.1448 C   0  0  0  0  0  0  0  0  0  0  0  0
  -23.1327  -20.4547   21.9854 C   0  0  0  0  0  0  0  0  0  0  0  0
  -24.7519  -22.0216   20.8300 C   0  0  0  0  0  0  0  0  0  0  0  0
  -25.6292  -20.0661   22.0448 C   0  0  0  0  0  0  0  0  0  0  0  0
  -31.7608  -24.2560   21.3578 C   0  0  2  0  0  0  0  0  0  0  0  0
  -24.1566  -30.5813   25.3514 C   0  0  1  0  0  0  0  0  0  0  0  0
  -23.3175  -30.1664   21.6694 C   0  0  1  0  0  0  0  0  0  0  0  0
  -24.3080  -19.8978   22.8126 C   0  0  2  0  0  0  0  0  0  0  0  0
  -19.2710  -26.6286   16.0915 C   0  0  0  0  0  0  0  0  0  0  0  0
  -20.8155  -26.3764   22.5275 C   0  0  0  0  0  0  0  0  0  0  0  0
  -19.8002  -25.2769   20.5204 C   0  0  0  0  0  0  0  0  0  0  0  0
  -18.8499  -27.4160   21.3829 C   0  0  0  0  0  0  0  0  0  0  0  0
  -22.1185  -29.1055   15.6094 C   0  0  0  0  0  0  0  0  0  0  0  0
  -29.9108  -27.3416   20.1462 C   0  0  0  0  0  0  0  0  0  1  0  0
  -21.0791  -27.4417   20.1905 C   0  0  1  0  0  0  0  0  0  0  0  0
  -20.2383  -27.7267   16.5052 C   0  0  2  0  0  0  0  0  0  0  0  0
  -20.1633  -26.6364   21.1549 C   0  0  0  0  0  0  0  0  0  0  0  0
  -24.5293  -17.4700   22.4403 N   0  0  0  0  0  0  0  0  0  0  0  0
  -24.0707  -18.4578   23.2278 N   0  0  0  0  0  0  0  0  0  0  0  0
  -22.8666  -28.9833   20.9337 N   0  0  0  0  0  0  0  0  0  0  0  0
  -25.8177  -21.4776   21.6745 N   0  0  0  0  0  0  0  0  0  0  0  0
  -22.9016  -18.8770   25.2447 N   0  0  0  0  0  0  0  0  0  0  0  0
  -23.0333  -14.3676   25.0346 N   0  0  0  0  0  0  0  0  0  0  0  0
  -27.8336  -21.6867   22.8806 N   0  0  0  0  0  0  0  0  0  0  0  0
  -23.9012  -30.7698   23.9394 N   0  0  0  0  0  0  0  0  0  0  0  0
  -20.4767  -27.7261   18.8926 N   0  0  0  0  0  0  0  0  0  0  0  0
  -31.6201  -23.9349   19.8772 N   0  3  0  0  0  0  0  0  0  0  0  0
  -21.1308  -28.0266   15.3500 N   0  3  0  0  0  0  0  0  0  0  0  0
  -22.2947  -16.1533   26.2693 O   0  0  0  0  0  0  0  0  0  0  0  0
  -23.3755  -28.5654   23.4039 O   0  0  0  0  0  0  0  0  0  0  0  0
  -20.6224  -29.6044   21.0511 O   0  0  0  0  0  0  0  0  0  0  0  0
  -22.1109  -26.6836   17.6198 O   0  0  0  0  0  0  0  0  0  0  0  0
  -26.9733  -23.4796   21.6860 O   0  0  0  0  0  0  0  0  0  0  0  0
  -25.3804  -11.3258   21.0006 O   0  0  0  0  0  0  0  0  0  0  0  0
  -28.5959  -27.0897   19.6523 O   0  0  0  0  0  0  0  0  0  1  0  0
  -21.4019   -7.5081   21.0115 F   0  0  0  0  0  0  0  0  0  0  0  0
  -24.4966  -10.1916   18.6394 F   0  0  0  0  0  0  0  0  0  0  0  0
  1  2  1  0  0  0  0
  1  6  2  0  0  0  0
  2  7  2  0  0  0  0
  3  8  2  0  0  0  0
  3 10  1  0  0  0  0
  4 11  2  0  0  0  0
  4 19  1  0  0  0  0
  5 12  1  0  0  0  0
  5 19  2  0  0  0  0
  6 22  1  0  0  0  0
  7 24  1  0  0  0  0
  8 21  1  0  0  0  0
  9 13  2  0  0  0  0
  9 23  1  0  0  0  0
 10 26  2  0  0  0  0
 11 27  1  0  0  0  0
 12 27  2  0  0  0  0
 13 28  1  0  0  0  0
 14 15  2  0  0  0  0
 14 29  1  0  0  0  0
 15 30  1  0  0  0  0
 16 21  2  0  0  0  0
 16 26  1  0  0  0  0
 17 25  1  0  0  0  0
 17 28  2  0  0  0  0
 18 30  2  0  0  0  0
 18 31  1  0  0  0  0
 19 32  1  0  0  0  0
 20 32  1  0  0  0  0
 20 33  2  0  0  0  0
 20 36  1  0  0  0  0
 21 51  1  0  0  0  0
 22 24  2  0  0  0  0
 22 41  1  0  0  0  0
 23 25  2  0  0  0  0
 23 42  1  0  0  0  0
 24 52  1  0  0  0  0
 25 43  1  0  0  0  0
 26 70  1  0  0  0  0
 27 80  1  0  0  0  0
 28 81  1  0  0  0  0
 29 31  2  0  0  0  0
 29 80  1  0  0  0  0
 30 82  1  0  0  0  0
 31 83  1  0  0  0  0
 32 64  2  0  0  0  0
 33 65  1  0  0  0  0
 33 68  1  0  0  0  0
 34 35  2  0  0  0  0
 34 51  1  0  0  0  0
 35 44  1  0  0  0  0
 35 60  1  0  0  0  0
 36 69  1  0  0  0  0
 36 75  2  0  0  0  0
 37 53  1  0  0  0  0
 37 71  1  0  0  0  0
 37 76  2  0  0  0  0
 38 61  1  0  0  0  0
 38 66  1  0  0  0  0
 38 77  2  0  0  0  0
 39 62  1  0  0  0  0
 39 72  1  0  0  0  0
 39 78  2  0  0  0  0
 40 67  1  0  0  0  0
 40 70  1  0  0  0  0
 40 79  2  0  0  0  0
 41 45  1  0  0  0  0
 42 53  1  0  0  0  0
 43 66  1  0  0  0  0
 44 73  1  0  0  0  0
 45 47  1  0  0  0  0
 46 48  1  0  0  0  0
 46 49  1  0  0  0  0
 47 52  1  0  0  0  0
 48 54  1  0  0  0  0
 49 67  1  0  0  0  0
 50 54  1  0  0  0  0
 50 67  1  0  0  0  0
 51 73  1  0  0  0  0
 52 71  1  0  0  0  0
 53 66  1  0  0  0  0
 54 65  1  0  0  0  0
 55 62  1  0  0  0  0
 56 63  1  0  0  0  0
 57 63  1  0  0  0  0
 58 63  1  0  0  0  0
 59 74  1  0  0  0  0
 60 81  1  0  0  0  0
 61 63  1  0  0  0  0
 61 72  1  0  0  0  0
 62 74  1  0  0  0  0
 64 65  1  0  0  0  0
M  CHG  2  73   1  74   1
M  ISO  4  40 100  60 101  70 100  81 101
M  END
> <Batch ID>
0151

> <Smiles>
CNC(C)C(=O)NC(C(=O)N1Cc2cc([101O:1][101CH2:1]C3=CC(c4cccc([100NH:0][100C:0](=O)N5CCCC(n6nc(-c7ccc(Oc8ccc(F)cc8F)cc7)c(C(N)=O)c6N)C5)c4)NC3)ccc2CC1C(=O)NC1CCCc2ccccc21)C(C)(C)C

> <Shape>
0.219

> <Color>
0.077

> <Negative vol penalty>
0.000

$$$$

  -OEChem-04052303243D

 88 97  0     1  0  0  0  0  0999 V2000
  -28.0414  -34.7138   21.7667 C   0  0  0  0  0  0  0  0  0  0  0  0
  -28.1898  -33.3535   22.0178 C   0  0  0  0  0  0  0  0  0  0  0  0
  -32.3680  -17.9721   23.1739 C   0  0  0  0  0  0  0  0  0  0  0  0
  -23.1608   -9.7243   20.1130 C   0  0  0  0  0  0  0  0  0  0  0  0
  -23.7855  -10.0340   22.4262 C   0  0  0  0  0  0  0  0  0  0  0  0
  -31.5117  -18.9030   23.7619 C   0  0  0  0  0  0  0  0  0  0  0  0
  -26.8466  -35.3550   22.0910 C   0  0  0  0  0  0  0  0  0  0  0  0
  -27.1438  -32.6339   22.5943 C   0  0  0  0  0  0  0  0  0  0  0  0
  -26.3507  -28.1875   20.3040 C   0  0  0  0  0  0  0  0  0  0  0  0
  -31.8505  -16.9682   22.3552 C   0  0  0  0  0  0  0  0  0  0  0  0
  -22.4258   -8.5918   20.4630 C   0  0  0  0  0  0  0  0  0  0  0  0
  -23.0504   -8.9014   22.7763 C   0  0  0  0  0  0  0  0  0  0  0  0
  -27.2265  -27.1474   20.6121 C   0  0  0  0  0  0  0  0  0  0  0  0
  -19.8084   -8.0998   23.2935 C   0  0  0  0  0  0  0  0  0  0  0  0
  -18.9854   -8.1848   24.4165 C   0  0  0  0  0  0  0  0  0  0  0  0
  -29.6205  -17.8263   22.7126 C   0  0  0  0  0  0  0  0  0  0  0  0
  -25.5954  -26.2335   22.1365 C   0  0  0  0  0  0  0  0  0  0  0  0
  -20.2184   -6.3861   25.4563 C   0  0  0  0  0  0  0  0  0  0  0  0
  -23.8407  -10.4454   21.0946 C   0  0  0  0  0  0  0  0  0  0  0  0
  -30.1380  -18.8302   23.5312 C   0  0  0  0  0  0  0  0  0  0  0  0
  -24.1408  -12.9446   20.6799 C   0  0  0  0  0  0  0  0  0  0  0  0
  -25.7819  -34.6409   22.6630 C   0  0  0  0  0  0  0  0  0  0  0  0
  -25.0928  -28.2646   20.9191 C   0  0  0  0  0  0  0  0  0  0  0  0
  -25.9341  -33.2664   22.9278 C   0  0  0  0  0  0  0  0  0  0  0  0
  -24.7045  -27.2742   21.8326 C   0  0  0  0  0  0  0  0  0  0  0  0
  -30.4768  -16.8953   22.1246 C   0  0  0  0  0  0  0  0  0  0  0  0
  -22.3705   -8.1803   21.7947 C   0  0  0  0  0  0  0  0  0  0  0  0
  -26.8501  -26.1718   21.5306 C   0  0  0  0  0  0  0  0  0  0  0  0
  -20.8364   -7.1579   23.2519 C   0  0  0  0  0  0  0  0  0  0  0  0
  -19.1904   -7.3280   25.4979 C   0  0  0  0  0  0  0  0  0  0  0  0
  -21.0414   -6.3011   24.3333 C   0  0  0  0  0  0  0  0  0  0  0  0
  -24.6007  -11.6151   20.7335 C   0  0  0  0  0  0  0  0  0  0  0  0
  -25.2377  -13.6718   20.2873 C   0  0  0  0  0  0  0  0  0  0  0  0
  -29.2325  -19.8137   24.1516 C   0  0  0  0  0  0  0  0  0  0  0  0
  -22.8384  -13.4747   20.9602 C   0  0  0  0  0  0  0  0  0  0  0  0
  -23.6516  -30.3627   22.8228 C   0  0  0  0  0  0  0  0  0  0  0  0
  -21.0958  -28.4128   22.3887 C   0  0  0  0  0  0  0  0  0  0  0  0
  -19.9227  -25.3033   21.6131 C   0  0  0  0  0  0  0  0  0  0  0  0
  -30.6635  -14.8736   20.6333 C   0  0  0  0  0  0  0  0  0  0  0  0
  -24.5266  -35.3871   23.0399 C   0  0  0  0  0  0  0  0  0  0  0  0
  -24.1491  -29.3781   20.5559 C   0  0  0  0  0  0  0  0  0  0  0  0
  -23.3572  -27.3002   22.5053 C   0  0  0  0  0  0  0  0  0  0  0  0
  -23.3315  -34.4747   23.3032 C   0  0  0  0  0  0  0  0  0  0  0  0
  -29.7353  -12.1578   18.5261 C   0  0  0  0  0  0  0  0  0  0  0  0
  -23.7371  -33.3089   24.1994 C   0  0  0  0  0  0  0  0  0  0  0  0
  -28.2789  -11.8839   18.9081 C   0  0  0  0  0  0  0  0  0  0  0  0
  -28.6738  -22.3937   21.6829 C   0  0  0  0  0  0  0  0  0  0  0  0
  -30.5743  -12.5569   19.7388 C   0  0  0  0  0  0  0  0  0  0  0  0
  -29.5220  -21.2279   22.1775 C   0  0  0  0  0  0  0  0  0  0  0  0
  -28.5766  -13.3961   20.9111 C   0  0  0  0  0  0  0  0  0  0  0  0
  -24.8134  -32.4464   23.5293 C   0  0  1  0  0  0  0  0  0  0  0  0
  -23.0957  -29.6419   21.6274 C   0  0  1  0  0  0  0  0  0  0  0  0
  -27.6775  -13.0535   19.7119 C   0  0  2  0  0  0  0  0  0  0  0  0
  -28.3324  -23.1410   22.9713 C   0  0  2  0  0  0  0  0  0  0  0  0
  -28.0339  -22.0089   23.9908 C   0  0  0  0  0  0  0  0  0  0  0  0
  -26.6009  -21.4693   23.9215 C   0  0  0  0  0  0  0  0  0  0  0  0
  -28.3904  -22.4258   25.4176 C   0  0  0  0  0  0  0  0  0  0  0  0
  -17.7879  -24.0055   21.3771 C   0  0  0  0  0  0  0  0  0  0  0  0
  -20.8609  -28.2516   25.4266 C   0  0  0  0  0  0  0  0  0  0  0  0
  -19.3792  -26.2545   25.1363 C   0  0  0  0  0  0  0  0  0  0  0  0
  -18.6801  -28.4675   24.2216 C   0  0  0  0  0  0  0  0  0  0  0  0
  -20.4431  -24.7436   18.7539 C   0  0  0  0  0  0  0  0  0  0  0  0
  -27.2528  -24.1908   22.7833 C   0  0  0  0  0  0  0  0  0  1  0  0
  -20.5494  -27.1939   23.0920 C   0  0  1  0  0  0  0  0  0  0  0  0
  -18.8326  -24.8467   20.6604 C   0  0  2  0  0  0  0  0  0  0  0  0
  -19.8936  -27.5422   24.4581 C   0  0  0  0  0  0  0  0  0  0  0  0
  -25.8894  -11.5016   20.4012 N   0  0  0  0  0  0  0  0  0  0  0  0
  -26.2486  -12.7689   20.1351 N   0  0  0  0  0  0  0  0  0  0  0  0
  -28.9507  -20.9352   23.5071 N   0  0  0  0  0  0  0  0  0  0  0  0
  -22.4723  -28.4126   22.1219 N   0  0  0  0  0  0  0  0  0  0  0  0
  -29.9455  -13.6731   20.4485 N   0  0  0  0  0  0  0  0  0  0  0  0
  -25.4266  -14.9892   20.0607 N   0  0  0  0  0  0  0  0  0  0  0  0
  -21.8261  -12.5879   21.3515 N   0  0  0  0  0  0  0  0  0  0  0  0
  -29.9520  -15.8753   21.2928 N   0  0  0  0  0  0  0  0  0  0  0  0
  -24.2208  -31.5867   22.5272 N   0  0  0  0  0  0  0  0  0  0  0  0
  -19.6488  -26.5456   22.1449 N   0  0  0  0  0  0  0  0  0  0  0  0
  -28.7115  -19.5584   25.3481 N   0  3  0  0  0  0  0  0  0  0  0  0
  -19.4164  -24.0316   19.5577 N   0  3  0  0  0  0  0  0  0  0  0  0
  -22.5758  -14.6964   20.8505 O   0  0  0  0  0  0  0  0  0  0  0  0
  -23.5688  -29.8473   23.9315 O   0  0  0  0  0  0  0  0  0  0  0  0
  -20.3284  -29.3282   22.0808 O   0  0  0  0  0  0  0  0  0  0  0  0
  -20.9160  -24.6241   21.8635 O   0  0  0  0  0  0  0  0  0  0  0  0
  -31.8145  -15.0128   20.2116 O   0  0  0  0  0  0  0  0  0  0  0  0
  -21.6531   -7.0753   22.1367 O   0  0  0  0  0  0  0  0  0  0  0  0
  -27.7033  -25.1559   21.8336 O   0  0  0  0  0  0  0  0  0  1  0  0
  -18.4009   -7.4108   26.5768 F   0  0  0  0  0  0  0  0  0  0  0  0
  -22.0282   -5.3950   24.2997 F   0  0  0  0  0  0  0  0  0  0  0  0
  -29.4734  -23.7895   23.3619 F   0  0  0  0  0  0  0  0  0  0  0  0
  1  2  1  0  0  0  0
  1  7  2  0  0  0  0
  2  8  2  0  0  0  0
  3  6  2  0  0  0  0
  3 10  1  0  0  0  0
  4 11  2  0  0  0  0
  4 19  1  0  0  0  0
  5 12  1  0  0  0  0
  5 19  2  0  0  0  0
  6 20  1  0  0  0  0
  7 22  1  0  0  0  0
  8 24  1  0  0  0  0
  9 13  2  0  0  0  0
  9 23  1  0  0  0  0
 10 26  2  0  0  0  0
 11 27  1  0  0  0  0
 12 27  2  0  0  0  0
 13 28  1  0  0  0  0
 14 15  2  0  0  0  0
 14 29  1  0  0  0  0
 15 30  1  0  0  0  0
 16 20  2  0  0  0  0
 16 26  1  0  0  0  0
 17 25  1  0  0  0  0
 17 28  2  0  0  0  0
 18 30  2  0  0  0  0
 18 31  1  0  0  0  0
 19 32  1  0  0  0  0
 20 34  1  0  0  0  0
 21 32  1  0  0  0  0
 21 33  2  0  0  0  0
 21 35  1  0  0  0  0
 22 24  2  0  0  0  0
 22 40  1  0  0  0  0
 23 25  2  0  0  0  0
 23 41  1  0  0  0  0
 24 51  1  0  0  0  0
 25 42  1  0  0  0  0
 26 74  1  0  0  0  0
 27 84  1  0  0  0  0
 28 85  1  0  0  0  0
 29 31  2  0  0  0  0
 29 84  1  0  0  0  0
 30 86  1  0  0  0  0
 31 87  1  0  0  0  0
 32 67  2  0  0  0  0
 33 68  1  0  0  0  0
 33 72  1  0  0  0  0
 34 69  1  0  0  0  0
 34 77  2  0  0  0  0
 35 73  1  0  0  0  0
 35 79  2  0  0  0  0
 36 52  1  0  0  0  0
 36 75  1  0  0  0  0
 36 80  2  0  0  0  0
 37 64  1  0  0  0  0
 37 70  1  0  0  0  0
 37 81  2  0  0  0  0
 38 65  1  0  0  0  0
 38 76  1  0  0  0  0
 38 82  2  0  0  0  0
 39 71  1  0  0  0  0
 39 74  1  0  0  0  0
 39 83  2  0  0  0  0
 40 43  1  0  0  0  0
 41 52  1  0  0  0  0
 42 70  1  0  0  0  0
 43 45  1  0  0  0  0
 44 46  1  0  0  0  0
 44 48  1  0  0  0  0
 45 51  1  0  0  0  0
 46 53  1  0  0  0  0
 47 49  1  0  0  0  0
 47 54  1  0  0  0  0
 48 71  1  0  0  0  0
 49 69  1  0  0  0  0
 50 53  1  0  0  0  0
 50 71  1  0  0  0  0
 51 75  1  0  0  0  0
 52 70  1  0  0  0  0
 53 68  1  0  0  0  0
 54 55  1  0  0  0  0
 54 63  1  0  0  0  0
 54 88  1  0  0  0  0
 55 56  1  0  0  0  0
 55 57  1  0  0  0  0
 55 69  1  0  0  0  0
 58 65  1  0  0  0  0
 59 66  1  0  0  0  0
 60 66  1  0  0  0  0
 61 66  1  0  0  0  0
 62 78  1  0  0  0  0
 63 85  1  0  0  0  0
 64 66  1  0  0  0  0
 64 76  1  0  0  0  0
 65 78  1  0  0  0  0
 67 68  1  0  0  0  0
M  CHG  2  77   1  78   1
M  ISO  4  39 100  63 101  74 100  85 101
M  END
> <Batch ID>
0151

> <Smiles>
CNC(C)C(=O)NC(C(=O)N1Cc2cc([101O:1][101CH2:1]C3(F)CCN(C(=N)c4cccc([100NH:0][100C:0](=O)N5CCCC(n6nc(-c7ccc(Oc8ccc(F)cc8F)cc7)c(C(N)=O)c6N)C5)c4)C3(C)C)ccc2CC1C(=O)NC1CCCc2ccccc21)C(C)(C)C

> <Shape>
0.326

> <Color>
0.179

> <Negative vol penalty>
0.000

$$$$

  -OEChem-04052303243D

 85 94  0     1  0  0  0  0  0999 V2000
  -22.0586  -11.2579   19.9418 C   0  0  0  0  0  0  0  0  0  0  0  0
  -21.7377  -12.4404   20.6007 C   0  0  0  0  0  0  0  0  0  0  0  0
  -28.4507  -25.2595   21.2015 C   0  0  0  0  0  0  0  0  0  0  0  0
  -29.4801  -27.3926   21.6783 C   0  0  0  0  0  0  0  0  0  0  0  0
  -23.3941  -10.9270   19.7166 C   0  0  0  0  0  0  0  0  0  0  0  0
  -22.7523  -13.2923   21.0358 C   0  0  0  0  0  0  0  0  0  0  0  0
  -18.2690  -25.5047   22.5449 C   0  0  0  0  0  0  0  0  0  0  0  0
  -22.5896  -19.4111   21.2343 C   0  0  0  0  0  0  0  0  0  0  0  0
  -19.1173  -24.5107   23.0364 C   0  0  0  0  0  0  0  0  0  0  0  0
  -29.4585  -24.6131   21.9171 C   0  0  0  0  0  0  0  0  0  0  0  0
  -30.4880  -26.7462   22.3939 C   0  0  0  0  0  0  0  0  0  0  0  0
  -22.3355  -20.3095   22.2696 C   0  0  0  0  0  0  0  0  0  0  0  0
  -30.2288  -24.0248   25.1564 C   0  0  0  0  0  0  0  0  0  0  0  0
  -29.8494  -23.0212   26.0477 C   0  0  0  0  0  0  0  0  0  0  0  0
  -20.8316  -26.1616   23.5436 C   0  0  0  0  0  0  0  0  0  0  0  0
  -24.7075  -20.5418   22.6420 C   0  0  0  0  0  0  0  0  0  0  0  0
  -31.1815  -21.4248   24.8171 C   0  0  0  0  0  0  0  0  0  0  0  0
  -28.4615  -26.6493   21.0821 C   0  0  0  0  0  0  0  0  0  0  0  0
  -27.0973  -27.1427   18.9838 C   0  0  0  0  0  0  0  0  0  0  0  0
  -24.4254  -11.7799   20.1405 C   0  0  0  0  0  0  0  0  0  0  0  0
  -18.7207  -26.8139   22.5476 C   0  0  0  0  0  0  0  0  0  0  0  0
  -23.9064  -19.0623   20.9016 C   0  0  0  0  0  0  0  0  0  0  0  0
  -24.1030  -12.9718   20.8172 C   0  0  0  0  0  0  0  0  0  0  0  0
  -19.9916  -27.1422   23.0392 C   0  0  0  0  0  0  0  0  0  0  0  0
  -24.9757  -19.6407   21.6004 C   0  0  0  0  0  0  0  0  0  0  0  0
  -20.3891  -24.8368   23.5325 C   0  0  0  0  0  0  0  0  0  0  0  0
  -30.4772  -25.3565   22.5133 C   0  0  0  0  0  0  0  0  0  0  0  0
  -23.3944  -20.8729   22.9756 C   0  0  0  0  0  0  0  0  0  0  0  0
  -31.0844  -23.7284   24.0954 C   0  0  0  0  0  0  0  0  0  0  0  0
  -30.3258  -21.7212   25.8781 C   0  0  0  0  0  0  0  0  0  0  0  0
  -31.5608  -22.4284   23.9258 C   0  0  0  0  0  0  0  0  0  0  0  0
  -27.4210  -27.3175   20.3426 C   0  0  0  0  0  0  0  0  0  0  0  0
  -26.0450  -27.9988   18.7686 C   0  0  0  0  0  0  0  0  0  0  0  0
  -27.6943  -26.2831   18.0037 C   0  0  0  0  0  0  0  0  0  0  0  0
  -25.5780  -16.3587   20.8976 C   0  0  0  0  0  0  0  0  0  0  0  0
  -27.8437  -18.2181   19.5077 C   0  0  0  0  0  0  0  0  0  0  0  0
  -29.1219  -21.3431   19.0103 C   0  0  0  0  0  0  0  0  0  0  0  0
  -21.8940  -30.3482   22.3881 C   0  0  0  0  0  0  0  0  0  0  0  0
  -25.8556  -11.3569   19.9164 C   0  0  0  0  0  0  0  0  0  0  0  0
  -17.9802  -28.0405   22.1142 C   0  0  0  0  0  0  0  0  0  0  0  0
  -24.1646  -18.1121   19.7646 C   0  0  0  0  0  0  0  0  0  0  0  0
  -26.4084  -19.3149   21.2691 C   0  0  0  0  0  0  0  0  0  0  0  0
  -26.8598  -12.4953   20.0770 C   0  0  0  0  0  0  0  0  0  0  0  0
  -19.1334  -29.0443   21.9605 C   0  0  0  0  0  0  0  0  0  0  0  0
  -24.1947  -32.1247   20.3320 C   0  0  0  0  0  0  0  0  0  0  0  0
  -26.5658  -13.2917   21.3444 C   0  0  0  0  0  0  0  0  0  0  0  0
  -25.2532  -31.0784   19.9789 C   0  0  0  0  0  0  0  0  0  0  0  0
  -23.6787  -31.9465   21.7581 C   0  0  0  0  0  0  0  0  0  0  0  0
  -24.2410  -29.5474   21.7197 C   0  0  0  0  0  0  0  0  0  0  0  0
  -25.1747  -13.9338   21.2822 C   0  0  1  0  0  0  0  0  0  0  0  0
  -20.2083  -28.6256   22.9798 C   0  0  2  0  0  0  0  0  0  0  0  0
  -25.5288  -17.4347   19.8500 C   0  0  1  0  0  0  0  0  0  0  0  0
  -24.7512  -29.6518   20.2722 C   0  0  2  0  0  0  0  0  0  0  0  0
  -30.6045  -23.1271   18.0529 C   0  0  0  0  0  0  0  0  0  0  0  0
  -29.7727  -17.2682   21.6726 C   0  0  0  0  0  0  0  0  0  0  0  0
  -31.2844  -19.1681   21.0614 C   0  0  0  0  0  0  0  0  0  0  0  0
  -30.7618  -17.4016   19.3794 C   0  0  0  0  0  0  0  0  0  0  0  0
  -22.1921  -22.0774   26.1361 C   0  0  0  0  0  0  0  0  0  0  0  0
  -21.5788  -20.0919   24.7389 C   0  0  0  0  0  0  0  0  0  0  0  0
  -27.3057  -21.7835   16.7154 C   0  0  0  0  0  0  0  0  0  0  0  0
  -20.8355  -22.4392   24.0597 C   0  0  0  0  0  0  0  0  0  0  0  0
  -28.9777  -19.0778   20.0115 C   0  0  1  0  0  0  0  0  0  0  0  0
  -29.5630  -22.0618   17.7480 C   0  0  2  0  0  0  0  0  0  0  0  0
  -30.1722  -18.2338   20.5390 C   0  0  0  0  0  0  0  0  0  0  0  0
  -21.9312  -21.5814   24.7114 C   0  0  0  0  0  0  0  0  0  1  0  0
  -26.6379  -28.2144   20.9480 N   0  0  0  0  0  0  0  0  0  0  0  0
  -25.8118  -28.6109   19.9649 N   0  0  0  0  0  0  0  0  0  0  0  0
  -26.6091  -18.3756   20.1532 N   0  0  0  0  0  0  0  0  0  0  0  0
  -23.2162  -30.5729   21.9704 N   0  0  0  0  0  0  0  0  0  0  0  0
  -25.3059  -28.2804   17.6746 N   0  0  0  0  0  0  0  0  0  0  0  0
  -28.7629  -26.7776   17.2436 N   0  0  0  0  0  0  0  0  0  0  0  0
  -21.2097  -23.8353   24.0230 N   0  0  0  0  0  0  0  0  0  0  0  0
  -25.1985  -15.1110   20.4408 N   0  0  0  0  0  0  0  0  0  0  0  0
  -29.3211  -19.9817   18.9190 N   0  0  0  0  0  0  0  0  0  0  0  0
  -21.5354  -29.0168   22.5595 N   0  0  0  0  0  0  0  0  0  0  0  0
  -28.3972  -22.7184   17.0916 N   0  3  0  0  0  0  0  0  0  0  0  0
  -27.2813  -25.1169   17.7965 O   0  0  0  0  0  0  0  0  0  0  0  0
  -25.9353  -16.6394   22.0356 O   0  0  0  0  0  0  0  0  0  0  0  0
  -28.0440  -17.4407   18.5711 O   0  0  0  0  0  0  0  0  0  0  0  0
  -28.6515  -21.9309   19.9816 O   0  0  0  0  0  0  0  0  0  0  0  0
  -21.0910  -31.2659   22.5878 O   0  0  0  0  0  0  0  0  0  0  0  0
  -31.4607  -24.7261   23.2118 O   0  0  0  0  0  0  0  0  0  0  0  0
  -23.1492  -21.7496   23.9871 O   0  0  0  0  0  0  0  0  0  1  0  0
  -29.9627  -20.7578   26.7350 F   0  0  0  0  0  0  0  0  0  0  0  0
  -32.3840  -22.1379   22.9090 F   0  0  0  0  0  0  0  0  0  0  0  0
  1  2  1  0  0  0  0
  1  5  2  0  0  0  0
  2  6  2  0  0  0  0
  3 10  2  0  0  0  0
  3 18  1  0  0  0  0
  4 11  1  0  0  0  0
  4 18  2  0  0  0  0
  5 20  1  0  0  0  0
  6 23  1  0  0  0  0
  7  9  2  0  0  0  0
  7 21  1  0  0  0  0
  8 12  2  0  0  0  0
  8 22  1  0  0  0  0
  9 26  1  0  0  0  0
 10 27  1  0  0  0  0
 11 27  2  0  0  0  0
 12 28  1  0  0  0  0
 13 14  2  0  0  0  0
 13 29  1  0  0  0  0
 14 30  1  0  0  0  0
 15 24  1  0  0  0  0
 15 26  2  0  0  0  0
 16 25  1  0  0  0  0
 16 28  2  0  0  0  0
 17 30  2  0  0  0  0
 17 31  1  0  0  0  0
 18 32  1  0  0  0  0
 19 32  1  0  0  0  0
 19 33  2  0  0  0  0
 19 34  1  0  0  0  0
 20 23  2  0  0  0  0
 20 39  1  0  0  0  0
 21 24  2  0  0  0  0
 21 40  1  0  0  0  0
 22 25  2  0  0  0  0
 22 41  1  0  0  0  0
 23 50  1  0  0  0  0
 24 51  1  0  0  0  0
 25 42  1  0  0  0  0
 26 72  1  0  0  0  0
 27 82  1  0  0  0  0
 28 83  1  0  0  0  0
 29 31  2  0  0  0  0
 29 82  1  0  0  0  0
 30 84  1  0  0  0  0
 31 85  1  0  0  0  0
 32 66  2  0  0  0  0
 33 67  1  0  0  0  0
 33 70  1  0  0  0  0
 34 71  1  0  0  0  0
 34 77  2  0  0  0  0
 35 52  1  0  0  0  0
 35 73  1  0  0  0  0
 35 78  2  0  0  0  0
 36 62  1  0  0  0  0
 36 68  1  0  0  0  0
 36 79  2  0  0  0  0
 37 63  1  0  0  0  0
 37 74  1  0  0  0  0
 37 80  2  0  0  0  0
 38 69  1  0  0  0  0
 38 75  1  0  0  0  0
 38 81  2  0  0  0  0
 39 43  1  0  0  0  0
 40 44  1  0  0  0  0
 41 52  1  0  0  0  0
 42 68  1  0  0  0  0
 43 46  1  0  0  0  0
 44 51  1  0  0  0  0
 45 47  1  0  0  0  0
 45 48  1  0  0  0  0
 46 50  1  0  0  0  0
 47 53  1  0  0  0  0
 48 69  1  0  0  0  0
 49 53  1  0  0  0  0
 49 69  1  0  0  0  0
 50 73  1  0  0  0  0
 51 75  1  0  0  0  0
 52 68  1  0  0  0  0
 53 67  1  0  0  0  0
 54 63  1  0  0  0  0
 55 64  1  0  0  0  0
 56 64  1  0  0  0  0
 57 64  1  0  0  0  0
 58 65  1  0  0  0  0
 59 65  1  0  0  0  0
 60 76  1  0  0  0  0
 61 65  1  0  0  0  0
 61 72  1  0  0  0  0
 62 64  1  0  0  0  0
 62 74  1  0  0  0  0
 63 76  1  0  0  0  0
 65 83  1  0  0  0  0
 66 67  1  0  0  0  0
M  CHG  1  76   1
M  ISO  4  38 100  65 101  75 100  83 101
M  END
> <Batch ID>
0151

> <Smiles>
CNC(C)C(=O)NC(C(=O)N1Cc2cc([101O:1][101C:1](C)(C)CNc3ccc4c(c3)C([100NH:0][100C:0](=O)N3CCCC(n5nc(-c6ccc(Oc7ccc(F)cc7F)cc6)c(C(N)=O)c5N)C3)CC4)ccc2CC1C(=O)NC1CCCc2ccccc21)C(C)(C)C

> <Shape>
0.249

> <Color>
0.093

> <Negative vol penalty>
0.000

$$$$

  -OEChem-04052303243D

 83 92  0     1  0  0  0  0  0999 V2000
  -29.2975  -37.7614   20.4113 C   0  0  0  0  0  0  0  0  0  0  0  0
  -29.5412  -36.4233   20.1191 C   0  0  0  0  0  0  0  0  0  0  0  0
  -22.7347   -9.4255   19.9922 C   0  0  0  0  0  0  0  0  0  0  0  0
  -24.5299   -8.5590   21.3573 C   0  0  0  0  0  0  0  0  0  0  0  0
  -28.4367  -38.1005   21.4543 C   0  0  0  0  0  0  0  0  0  0  0  0
  -28.9249  -35.4233   20.8706 C   0  0  0  0  0  0  0  0  0  0  0  0
  -26.9996  -29.9673   18.8628 C   0  0  0  0  0  0  0  0  0  0  0  0
  -21.8016   -8.8346   20.8441 C   0  0  0  0  0  0  0  0  0  0  0  0
  -23.5968   -7.9681   22.2093 C   0  0  0  0  0  0  0  0  0  0  0  0
  -27.5687  -28.6955   18.9121 C   0  0  0  0  0  0  0  0  0  0  0  0
  -21.6435   -5.2086   22.2349 C   0  0  0  0  0  0  0  0  0  0  0  0
  -21.8758   -3.8937   22.6384 C   0  0  0  0  0  0  0  0  0  0  0  0
  -26.2952  -28.2092   20.9023 C   0  0  0  0  0  0  0  0  0  0  0  0
  -21.9286   -4.6109   24.9449 C   0  0  0  0  0  0  0  0  0  0  0  0
  -28.0756  -18.8119   20.4204 C   0  0  0  0  0  0  0  0  0  0  0  0
  -24.0988   -9.2876   20.2487 C   0  0  0  0  0  0  0  0  0  0  0  0
  -25.2351   -9.6497   17.9936 C   0  0  0  0  0  0  0  0  0  0  0  0
  -27.8020  -37.1042   22.2127 C   0  0  0  0  0  0  0  0  0  0  0  0
  -26.0807  -30.3742   19.8408 C   0  0  0  0  0  0  0  0  0  0  0  0
  -28.0558  -35.7494   21.9256 C   0  0  0  0  0  0  0  0  0  0  0  0
  -25.7139  -29.4858   20.8617 C   0  0  0  0  0  0  0  0  0  0  0  0
  -22.2326   -8.1059   21.9526 C   0  0  0  0  0  0  0  0  0  0  0  0
  -27.2187  -27.8173   19.9335 C   0  0  0  0  0  0  0  0  0  0  0  0
  -21.5538   -6.2246   23.1864 C   0  0  0  0  0  0  0  0  0  0  0  0
  -22.0183   -3.5949   23.9934 C   0  0  0  0  0  0  0  0  0  0  0  0
  -21.6963   -5.9258   24.5414 C   0  0  0  0  0  0  0  0  0  0  0  0
  -25.0632   -9.8973   19.3687 C   0  0  0  0  0  0  0  0  0  0  0  0
  -28.7102  -20.0614   20.5280 C   0  0  0  0  0  0  0  0  0  0  0  0
  -26.2706  -10.4726   17.6234 C   0  0  0  0  0  0  0  0  0  0  0  0
  -29.1156  -17.9252   20.3293 C   0  0  0  0  0  0  0  0  0  0  0  0
  -24.5224   -8.7559   17.1283 C   0  0  0  0  0  0  0  0  0  0  0  0
  -26.0096  -32.6745   22.0334 C   0  0  0  0  0  0  0  0  0  0  0  0
  -22.9809  -31.6075   22.4919 C   0  0  0  0  0  0  0  0  0  0  0  0
  -20.7400  -29.0472   22.2275 C   0  0  0  0  0  0  0  0  0  0  0  0
  -28.0721  -15.6325   20.1306 C   0  0  0  0  0  0  0  0  0  0  0  0
  -26.9165  -37.5194   23.3608 C   0  0  0  0  0  0  0  0  0  0  0  0
  -25.4556  -31.7398   19.7584 C   0  0  0  0  0  0  0  0  0  0  0  0
  -24.7168  -29.8669   21.9243 C   0  0  0  0  0  0  0  0  0  0  0  0
  -26.0113  -36.3997   23.8678 C   0  0  0  0  0  0  0  0  0  0  0  0
  -29.9700  -12.2976   20.1528 C   0  0  0  0  0  0  0  0  0  0  0  0
  -26.8049  -35.1084   24.0399 C   0  0  0  0  0  0  0  0  0  0  0  0
  -28.3966  -22.3379   19.4666 C   0  0  0  0  0  0  0  0  0  0  0  0
  -28.4209  -22.1074   21.9897 C   0  0  0  0  0  0  0  0  0  0  0  0
  -27.7266  -23.7051   19.6012 C   0  0  0  0  0  0  0  0  0  0  0  0
  -27.7509  -23.4751   22.1179 C   0  0  0  0  0  0  0  0  0  0  0  0
  -29.1132  -11.5118   19.1629 C   0  0  0  0  0  0  0  0  0  0  0  0
  -29.8401  -13.8033   19.9607 C   0  0  0  0  0  0  0  0  0  0  0  0
  -27.4021  -13.2451   19.9361 C   0  0  0  0  0  0  0  0  0  0  0  0
  -27.3868  -34.6360   22.7020 C   0  0  1  0  0  0  0  0  0  0  0  0
  -28.0596  -21.4265   20.6588 C   0  0  0  0  0  0  0  0  0  0  0  0
  -24.9191  -32.2332   21.0986 C   0  0  1  0  0  0  0  0  0  0  0  0
  -28.0865  -24.3848   20.9288 C   0  0  0  0  0  0  0  0  0  0  0  0
  -27.7454  -12.1697   18.8936 C   0  0  2  0  0  0  0  0  0  0  0  0
  -18.3497  -28.4626   22.7200 C   0  0  0  0  0  0  0  0  0  0  0  0
  -23.6633  -31.3214   25.4520 C   0  0  0  0  0  0  0  0  0  0  0  0
  -21.6324  -29.8800   25.7094 C   0  0  0  0  0  0  0  0  0  0  0  0
  -21.3901  -32.2566   24.9911 C   0  0  0  0  0  0  0  0  0  0  0  0
  -20.1515  -28.5498   19.3700 C   0  0  0  0  0  0  0  0  0  0  0  0
  -27.3693  -25.7273   21.0583 C   0  0  0  0  0  0  0  0  0  1  0  0
  -22.3371  -30.5625   23.3709 C   0  0  1  0  0  0  0  0  0  0  0  0
  -19.3236  -29.0004   21.6831 C   0  0  2  0  0  0  0  0  0  0  0  0
  -22.2760  -30.9984   24.8621 C   0  0  0  0  0  0  0  0  0  0  0  0
  -25.9209  -10.8062   19.8401 N   0  0  0  0  0  0  0  0  0  0  0  0
  -30.0420  -19.9576   20.5053 N   0  0  0  0  0  0  0  0  0  0  0  0
  -26.6418  -11.1369   18.7552 N   0  0  0  0  0  0  0  0  0  0  0  0
  -24.1380  -31.2152   21.8042 N   0  0  0  0  0  0  0  0  0  0  0  0
  -28.4475  -14.2727   20.0030 N   0  0  0  0  0  0  0  0  0  0  0  0
  -26.8907  -10.6854   16.4433 N   0  0  0  0  0  0  0  0  0  0  0  0
  -24.9952   -7.4441   16.9869 N   0  0  0  0  0  0  0  0  0  0  0  0
  -29.1540  -16.5142   20.2003 N   0  0  0  0  0  0  0  0  0  0  0  0
  -26.3612  -34.0042   21.8998 N   0  0  0  0  0  0  0  0  0  0  0  0
  -21.0351  -30.2764   22.7781 N   0  0  0  0  0  0  0  0  0  0  0  0
  -19.2601  -28.1239   20.4795 N   0  3  0  0  0  0  0  0  0  0  0  0
  -23.5061   -9.1147   16.4864 O   0  0  0  0  0  0  0  0  0  0  0  0
  -26.4951  -31.8687   22.8187 O   0  0  0  0  0  0  0  0  0  0  0  0
  -22.4716  -32.7282   22.4126 O   0  0  0  0  0  0  0  0  0  0  0  0
  -21.5065  -28.0880   22.1733 O   0  0  0  0  0  0  0  0  0  0  0  0
  -26.8890  -15.9778   20.1615 O   0  0  0  0  0  0  0  0  0  0  0  0
  -30.2943  -18.5969   20.3788 O   0  0  0  0  0  0  0  0  0  0  0  0
  -21.3224   -7.5294   22.7843 O   0  0  0  0  0  0  0  0  0  0  0  0
  -27.7732  -26.5756   19.9843 O   0  0  0  0  0  0  0  0  0  1  0  0
  -22.2398   -2.3319   24.3808 F   0  0  0  0  0  0  0  0  0  0  0  0
  -21.6100   -6.8974   25.4602 F   0  0  0  0  0  0  0  0  0  0  0  0
  1  2  1  0  0  0  0
  1  5  2  0  0  0  0
  2  6  2  0  0  0  0
  3  8  2  0  0  0  0
  3 16  1  0  0  0  0
  4  9  1  0  0  0  0
  4 16  2  0  0  0  0
  5 18  1  0  0  0  0
  6 20  1  0  0  0  0
  7 10  2  0  0  0  0
  7 19  1  0  0  0  0
  8 22  1  0  0  0  0
  9 22  2  0  0  0  0
 10 23  1  0  0  0  0
 11 12  2  0  0  0  0
 11 24  1  0  0  0  0
 12 25  1  0  0  0  0
 13 21  1  0  0  0  0
 13 23  2  0  0  0  0
 14 25  2  0  0  0  0
 14 26  1  0  0  0  0
 15 28  1  0  0  0  0
 15 30  2  0  0  0  0
 16 27  1  0  0  0  0
 17 27  1  0  0  0  0
 17 29  2  0  0  0  0
 17 31  1  0  0  0  0
 18 20  2  0  0  0  0
 18 36  1  0  0  0  0
 19 21  2  0  0  0  0
 19 37  1  0  0  0  0
 20 49  1  0  0  0  0
 21 38  1  0  0  0  0
 22 80  1  0  0  0  0
 23 81  1  0  0  0  0
 24 26  2  0  0  0  0
 24 80  1  0  0  0  0
 25 82  1  0  0  0  0
 26 83  1  0  0  0  0
 27 63  2  0  0  0  0
 28 50  1  0  0  0  0
 28 64  2  0  0  0  0
 29 65  1  0  0  0  0
 29 68  1  0  0  0  0
 30 70  1  0  0  0  0
 30 79  1  0  0  0  0
 31 69  1  0  0  0  0
 31 74  2  0  0  0  0
 32 51  1  0  0  0  0
 32 71  1  0  0  0  0
 32 75  2  0  0  0  0
 33 60  1  0  0  0  0
 33 66  1  0  0  0  0
 33 76  2  0  0  0  0
 34 61  1  0  0  0  0
 34 72  1  0  0  0  0
 34 77  2  0  0  0  0
 35 67  1  0  0  0  0
 35 70  1  0  0  0  0
 35 78  2  0  0  0  0
 36 39  1  0  0  0  0
 37 51  1  0  0  0  0
 38 66  1  0  0  0  0
 39 41  1  0  0  0  0
 40 46  1  0  0  0  0
 40 47  1  0  0  0  0
 41 49  1  0  0  0  0
 42 44  1  0  0  0  0
 42 50  1  0  0  0  0
 43 45  1  0  0  0  0
 43 50  1  0  0  0  0
 44 52  1  0  0  0  0
 45 52  1  0  0  0  0
 46 53  1  0  0  0  0
 47 67  1  0  0  0  0
 48 53  1  0  0  0  0
 48 67  1  0  0  0  0
 49 71  1  0  0  0  0
 51 66  1  0  0  0  0
 52 59  1  0  0  0  0
 53 65  1  0  0  0  0
 54 61  1  0  0  0  0
 55 62  1  0  0  0  0
 56 62  1  0  0  0  0
 57 62  1  0  0  0  0
 58 73  1  0  0  0  0
 59 81  1  0  0  0  0
 60 62  1  0  0  0  0
 60 72  1  0  0  0  0
 61 73  1  0  0  0  0
 63 65  1  0  0  0  0
 64 79  1  0  0  0  0
M  CHG  1  73   1
M  ISO  4  35 100  59 101  70 100  81 101
M  END
> <Batch ID>
0151

> <Smiles>
CNC(C)C(=O)NC(C(=O)N1Cc2cc([101O:1][101CH2:1]C3CCC(c4cc([100NH:0][100C:0](=O)N5CCCC(n6nc(-c7ccc(Oc8ccc(F)cc8F)cc7)c(C(N)=O)c6N)C5)on4)CC3)ccc2CC1C(=O)NC1CCCc2ccccc21)C(C)(C)C

> <Shape>
0.315

> <Color>
0.102

> <Negative vol penalty>
0.000

$$$$

  -OEChem-04052303243D

 80 89  0     1  0  0  0  0  0999 V2000
  -30.6612  -11.5385   19.1531 C   0  0  0  0  0  0  0  0  0  0  0  0
  -30.4808  -12.9141   19.0501 C   0  0  0  0  0  0  0  0  0  0  0  0
  -19.4770  -28.3769   21.9756 C   0  0  0  0  0  0  0  0  0  0  0  0
  -20.3374  -27.4024   24.0120 C   0  0  0  0  0  0  0  0  0  0  0  0
  -29.5665  -10.7093   19.3941 C   0  0  0  0  0  0  0  0  0  0  0  0
  -29.2055  -13.4612   19.1870 C   0  0  0  0  0  0  0  0  0  0  0  0
  -29.1616  -17.5703   22.1464 C   0  0  0  0  0  0  0  0  0  0  0  0
  -18.3877  -27.5068   22.0194 C   0  0  0  0  0  0  0  0  0  0  0  0
  -19.2481  -26.5323   24.0559 C   0  0  0  0  0  0  0  0  0  0  0  0
  -29.6060  -18.7656   21.5829 C   0  0  0  0  0  0  0  0  0  0  0  0
  -18.2934  -23.6580   22.5532 C   0  0  0  0  0  0  0  0  0  0  0  0
  -18.5467  -22.3164   22.8389 C   0  0  0  0  0  0  0  0  0  0  0  0
  -31.3749  -24.2316   18.7322 C   0  0  0  0  0  0  0  0  0  0  0  0
  -31.4702  -22.8198   18.7614 C   0  0  0  0  0  0  0  0  0  0  0  0
  -27.3177  -19.4455   21.2353 C   0  0  0  0  0  0  0  0  0  0  0  0
  -17.1358  -22.4665   24.7944 C   0  0  0  0  0  0  0  0  0  0  0  0
  -20.4519  -28.3247   22.9719 C   0  0  0  0  0  0  0  0  0  0  0  0
  -21.6664  -30.5043   23.5029 C   0  0  0  0  0  0  0  0  0  0  0  0
  -28.2786  -11.2473   19.5436 C   0  0  0  0  0  0  0  0  0  0  0  0
  -27.7897  -17.2984   22.2488 C   0  0  0  0  0  0  0  0  0  0  0  0
  -28.0925  -12.6382   19.4288 C   0  0  0  0  0  0  0  0  0  0  0  0
  -26.8584  -18.2471   21.8029 C   0  0  0  0  0  0  0  0  0  0  0  0
  -18.2732  -26.5845   23.0596 C   0  0  0  0  0  0  0  0  0  0  0  0
  -28.6840  -19.7022   21.1246 C   0  0  0  0  0  0  0  0  0  0  0  0
  -17.4614  -24.4039   23.3882 C   0  0  0  0  0  0  0  0  0  0  0  0
  -17.9679  -21.7206   23.9595 C   0  0  0  0  0  0  0  0  0  0  0  0
  -16.8826  -23.8081   24.5087 C   0  0  0  0  0  0  0  0  0  0  0  0
  -21.5777  -29.2229   22.9269 C   0  0  0  0  0  0  0  0  0  0  0  0
  -30.6504  -24.5887   19.8456 C   0  0  0  0  0  0  0  0  0  0  0  0
  -30.7974  -22.4148   19.8907 C   0  0  0  0  0  0  0  0  0  0  0  0
  -22.9281  -30.9397   23.1791 C   0  0  0  0  0  0  0  0  0  0  0  0
  -20.6951  -31.2357   24.2628 C   0  0  0  0  0  0  0  0  0  0  0  0
  -25.8498  -15.0731   21.0705 C   0  0  0  0  0  0  0  0  0  0  0  0
  -23.6710  -16.5051   23.0003 C   0  0  0  0  0  0  0  0  0  0  0  0
  -22.6876  -19.3087   24.6795 C   0  0  0  0  0  0  0  0  0  0  0  0
  -27.8576  -27.8502   21.9370 C   0  0  0  0  0  0  0  0  0  0  0  0
  -27.1190  -10.3066   19.7561 C   0  0  0  0  0  0  0  0  0  0  0  0
  -27.3262  -16.0160   22.8836 C   0  0  0  0  0  0  0  0  0  0  0  0
  -25.3745  -18.0122   21.9084 C   0  0  0  0  0  0  0  0  0  0  0  0
  -25.8567  -11.0003   20.2615 C   0  0  0  0  0  0  0  0  0  0  0  0
  -26.3326  -30.4912   19.8841 C   0  0  0  0  0  0  0  0  0  0  0  0
  -25.5815  -12.2638   19.4524 C   0  0  0  0  0  0  0  0  0  0  0  0
  -24.9169  -30.5199   20.4491 C   0  0  0  0  0  0  0  0  0  0  0  0
  -26.9454  -29.0908   19.9152 C   0  0  0  0  0  0  0  0  0  0  0  0
  -28.8733  -26.6194   19.8870 C   0  0  0  0  0  0  0  0  0  0  0  0
  -29.9218  -26.3865   21.7202 C   0  0  0  0  0  0  0  0  0  0  0  0
  -25.4729  -28.4863   21.8254 C   0  0  0  0  0  0  0  0  0  0  0  0
  -26.7283  -13.2716   19.5961 C   0  0  1  0  0  0  0  0  0  0  0  0
  -30.2745  -26.0751   20.2511 C   0  0  0  0  0  0  0  0  0  0  0  0
  -25.9125  -15.6206   22.4683 C   0  0  1  0  0  0  0  0  0  0  0  0
  -24.8898  -29.9055   21.8561 C   0  0  2  0  0  0  0  0  0  0  0  0
  -20.8439  -20.1861   26.1384 C   0  0  0  0  0  0  0  0  0  0  0  0
  -21.8668  -16.7739   20.5544 C   0  0  0  0  0  0  0  0  0  0  0  0
  -20.5126  -18.4535   21.8245 C   0  0  0  0  0  0  0  0  0  0  0  0
  -20.6842  -16.1075   22.6548 C   0  0  0  0  0  0  0  0  0  0  0  0
  -24.5468  -19.8085   26.9274 C   0  0  0  0  0  0  0  0  0  0  0  0
  -30.5260  -21.0691   20.4963 C   0  0  0  0  0  0  0  0  0  1  0  0
  -22.6868  -17.6391   22.8446 C   0  0  1  0  0  0  0  0  0  0  0  0
  -22.2069  -19.5125   26.1050 C   0  0  2  0  0  0  0  0  0  0  0  0
  -21.4655  -17.2474   21.9657 C   0  0  0  0  0  0  0  0  0  0  0  0
  -22.6941  -28.8674   22.2856 N   0  0  0  0  0  0  0  0  0  0  0  0
  -23.4963  -29.9320   22.4567 N   0  0  0  0  0  0  0  0  0  0  0  0
  -24.9710  -16.7404   22.5308 N   0  0  0  0  0  0  0  0  0  0  0  0
  -26.8134  -28.4567   21.2309 N   0  0  0  0  0  0  0  0  0  0  0  0
  -28.8583  -27.2437   21.2044 N   0  0  0  0  0  0  0  0  0  0  0  0
  -23.5960  -32.0825   23.4447 N   0  0  0  0  0  0  0  0  0  0  0  0
  -19.4492  -30.6406   24.5035 N   0  0  0  0  0  0  0  0  0  0  0  0
  -26.6411  -13.9587   20.8668 N   0  0  0  0  0  0  0  0  0  0  0  0
  -22.3384  -18.0657   24.1956 N   0  0  0  0  0  0  0  0  0  0  0  0
  -23.1702  -20.3630   26.8598 N   0  3  0  0  0  0  0  0  0  0  0  0
  -20.9193  -32.3895   24.7008 O   0  0  0  0  0  0  0  0  0  0  0  0
  -25.1353  -15.6202   20.2387 O   0  0  0  0  0  0  0  0  0  0  0  0
  -23.3019  -15.4519   23.5259 O   0  0  0  0  0  0  0  0  0  0  0  0
  -23.3074  -20.1678   24.0564 O   0  0  0  0  0  0  0  0  0  0  0  0
  -27.8832  -27.8192   23.1740 O   0  0  0  0  0  0  0  0  0  0  0  0
  -30.2948  -23.4870   20.5572 O   0  0  0  0  0  0  0  0  0  0  0  0
  -17.2103  -25.7355   23.1028 O   0  0  0  0  0  0  0  0  0  0  0  0
  -29.1151  -20.8694   20.5736 O   0  0  0  0  0  0  0  0  0  1  0  0
  -18.2099  -20.4319   24.2328 F   0  0  0  0  0  0  0  0  0  0  0  0
  -16.0814  -24.5192   25.3139 F   0  0  0  0  0  0  0  0  0  0  0  0
  1  2  1  0  0  0  0
  1  5  2  0  0  0  0
  2  6  2  0  0  0  0
  3  8  2  0  0  0  0
  3 17  1  0  0  0  0
  4  9  1  0  0  0  0
  4 17  2  0  0  0  0
  5 19  1  0  0  0  0
  6 21  1  0  0  0  0
  7 10  2  0  0  0  0
  7 20  1  0  0  0  0
  8 23  1  0  0  0  0
  9 23  2  0  0  0  0
 10 24  1  0  0  0  0
 11 12  2  0  0  0  0
 11 25  1  0  0  0  0
 12 26  1  0  0  0  0
 13 14  1  0  0  0  0
 13 29  2  0  0  0  0
 14 30  2  0  0  0  0
 15 22  1  0  0  0  0
 15 24  2  0  0  0  0
 16 26  2  0  0  0  0
 16 27  1  0  0  0  0
 17 28  1  0  0  0  0
 18 28  1  0  0  0  0
 18 31  2  0  0  0  0
 18 32  1  0  0  0  0
 19 21  2  0  0  0  0
 19 37  1  0  0  0  0
 20 22  2  0  0  0  0
 20 38  1  0  0  0  0
 21 48  1  0  0  0  0
 22 39  1  0  0  0  0
 23 77  1  0  0  0  0
 24 78  1  0  0  0  0
 25 27  2  0  0  0  0
 25 77  1  0  0  0  0
 26 79  1  0  0  0  0
 27 80  1  0  0  0  0
 28 61  2  0  0  0  0
 29 49  1  0  0  0  0
 29 76  1  0  0  0  0
 30 57  1  0  0  0  0
 30 76  1  0  0  0  0
 31 62  1  0  0  0  0
 31 66  1  0  0  0  0
 32 67  1  0  0  0  0
 32 71  2  0  0  0  0
 33 50  1  0  0  0  0
 33 68  1  0  0  0  0
 33 72  2  0  0  0  0
 34 58  1  0  0  0  0
 34 63  1  0  0  0  0
 34 73  2  0  0  0  0
 35 59  1  0  0  0  0
 35 69  1  0  0  0  0
 35 74  2  0  0  0  0
 36 64  1  0  0  0  0
 36 65  1  0  0  0  0
 36 75  2  0  0  0  0
 37 40  1  0  0  0  0
 38 50  1  0  0  0  0
 39 63  1  0  0  0  0
 40 42  1  0  0  0  0
 41 43  1  0  0  0  0
 41 44  1  0  0  0  0
 42 48  1  0  0  0  0
 43 51  1  0  0  0  0
 44 64  1  0  0  0  0
 45 49  1  0  0  0  0
 45 65  1  0  0  0  0
 46 49  1  0  0  0  0
 46 65  1  0  0  0  0
 47 51  1  0  0  0  0
 47 64  1  0  0  0  0
 48 68  1  0  0  0  0
 50 63  1  0  0  0  0
 51 62  1  0  0  0  0
 52 59  1  0  0  0  0
 53 60  1  0  0  0  0
 54 60  1  0  0  0  0
 55 60  1  0  0  0  0
 56 70  1  0  0  0  0
 57 78  1  0  0  0  0
 58 60  1  0  0  0  0
 58 69  1  0  0  0  0
 59 70  1  0  0  0  0
 61 62  1  0  0  0  0
M  CHG  1  70   1
M  ISO  4  36 100  57 101  65 100  78 101
M  END
> <Batch ID>
0151

> <Smiles>
CNC(C)C(=O)NC(C(=O)N1Cc2cc([101O:1][101CH2:1]c3ccc(C4C[100N:0]([100C:0](=O)N5CCCC(n6nc(-c7ccc(Oc8ccc(F)cc8F)cc7)c(C(N)=O)c6N)C5)C4)o3)ccc2CC1C(=O)NC1CCCc2ccccc21)C(C)(C)C

> <Shape>
0.239

> <Color>
0.079

> <Negative vol penalty>
0.000

$$$$

  -OEChem-04052303243D

 83 92  0     1  0  0  0  0  0999 V2000
  -26.5380  -35.0757   13.8537 C   0  0  0  0  0  0  0  0  0  0  0  0
  -27.0865  -33.8624   14.2568 C   0  0  0  0  0  0  0  0  0  0  0  0
  -22.5412  -10.4611   20.9823 C   0  0  0  0  0  0  0  0  0  0  0  0
  -24.3468   -9.3992   22.1862 C   0  0  0  0  0  0  0  0  0  0  0  0
  -25.8740  -35.8807   14.7784 C   0  0  0  0  0  0  0  0  0  0  0  0
  -26.9721  -33.4538   15.5851 C   0  0  0  0  0  0  0  0  0  0  0  0
  -26.3092  -27.7189   17.6289 C   0  0  0  0  0  0  0  0  0  0  0  0
  -21.9284   -9.2204   20.8069 C   0  0  0  0  0  0  0  0  0  0  0  0
  -23.7340   -8.1585   22.0108 C   0  0  0  0  0  0  0  0  0  0  0  0
  -27.2181  -26.7959   18.1445 C   0  0  0  0  0  0  0  0  0  0  0  0
  -22.4637   -4.7568   22.1929 C   0  0  0  0  0  0  0  0  0  0  0  0
  -22.3968   -3.9042   23.2948 C   0  0  0  0  0  0  0  0  0  0  0  0
  -26.6227  -27.4691   20.3831 C   0  0  0  0  0  0  0  0  0  0  0  0
  -28.4683  -21.5375   17.2447 C   0  0  0  0  0  0  0  0  0  0  0  0
  -21.1229   -5.5646   24.5021 C   0  0  0  0  0  0  0  0  0  0  0  0
  -23.7505  -10.5505   21.6719 C   0  0  0  0  0  0  0  0  0  0  0  0
  -24.1989  -12.7284   22.9222 C   0  0  0  0  0  0  0  0  0  0  0  0
  -25.7430  -35.4773   16.1166 C   0  0  0  0  0  0  0  0  0  0  0  0
  -25.5569  -28.5330   18.4878 C   0  0  0  0  0  0  0  0  0  0  0  0
  -26.3069  -34.2548   16.5288 C   0  0  0  0  0  0  0  0  0  0  0  0
  -25.7031  -28.3998   19.8760 C   0  0  0  0  0  0  0  0  0  0  0  0
  -28.1206  -20.1814   17.0803 C   0  0  0  0  0  0  0  0  0  0  0  0
  -22.5248   -8.0691   21.3212 C   0  0  0  0  0  0  0  0  0  0  0  0
  -27.3771  -26.6729   19.5217 C   0  0  0  0  0  0  0  0  0  0  0  0
  -21.8603   -6.0133   22.2456 C   0  0  0  0  0  0  0  0  0  0  0  0
  -21.7263   -4.3081   24.4494 C   0  0  0  0  0  0  0  0  0  0  0  0
  -21.1899   -6.4172   23.4002 C   0  0  0  0  0  0  0  0  0  0  0  0
  -24.3843  -11.8318   21.8528 C   0  0  0  0  0  0  0  0  0  0  0  0
  -25.0204  -13.7890   22.6273 C   0  0  0  0  0  0  0  0  0  0  0  0
  -27.8607  -19.5724   18.2730 C   0  0  0  0  0  0  0  0  0  0  0  0
  -28.4507  -21.8841   18.5878 C   0  0  0  0  0  0  0  0  0  0  0  0
  -23.3593  -12.6129   24.0787 C   0  0  0  0  0  0  0  0  0  0  0  0
  -25.3185  -31.6654   18.9724 C   0  0  0  0  0  0  0  0  0  0  0  0
  -22.9134  -30.7807   20.9612 C   0  0  0  0  0  0  0  0  0  0  0  0
  -21.5109  -28.3576   22.9127 C   0  0  0  0  0  0  0  0  0  0  0  0
  -26.9647  -17.4830   19.1693 C   0  0  0  0  0  0  0  0  0  0  0  0
  -25.0577  -36.4032   17.0901 C   0  0  0  0  0  0  0  0  0  0  0  0
  -24.5613  -29.5049   17.9165 C   0  0  0  0  0  0  0  0  0  0  0  0
  -27.9413  -19.2410   15.9442 C   0  0  0  0  0  0  0  0  0  0  0  0
  -24.9046  -29.2359   20.8413 C   0  0  0  0  0  0  0  0  0  0  0  0
  -24.6543  -35.7235   18.3961 C   0  0  0  0  0  0  0  0  0  0  0  0
  -28.6355  -14.3099   19.1538 C   0  0  0  0  0  0  0  0  0  0  0  0
  -25.8053  -34.8816   18.9374 C   0  0  0  0  0  0  0  0  0  0  0  0
  -27.6365  -13.4400   19.9118 C   0  0  0  0  0  0  0  0  0  0  0  0
  -27.6177  -17.8953   16.6764 C   0  0  0  0  0  0  0  0  0  0  0  0
  -27.9485  -15.3369   18.2511 C   0  0  0  0  0  0  0  0  0  0  0  0
  -25.9440  -15.2919   19.7143 C   0  0  0  0  0  0  0  0  0  0  0  0
  -26.1820  -33.7656   17.9555 C   0  0  1  0  0  0  0  0  0  0  0  0
  -24.2213  -30.6436   18.8731 C   0  0  1  0  0  0  0  0  0  0  0  0
  -26.6296  -14.3132   20.6775 C   0  0  1  0  0  0  0  0  0  0  0  0
  -19.5677  -27.9422   24.4453 C   0  0  0  0  0  0  0  0  0  0  0  0
  -24.2979  -32.3939   23.1499 C   0  0  0  0  0  0  0  0  0  0  0  0
  -22.8843  -31.1938   24.8320 C   0  0  0  0  0  0  0  0  0  0  0  0
  -21.8086  -32.6282   23.0976 C   0  0  0  0  0  0  0  0  0  0  0  0
  -30.5514  -25.1272   20.1873 C   0  0  0  0  0  0  0  0  0  0  0  0
  -29.7825  -26.7377   18.4307 C   0  0  0  0  0  0  0  0  0  0  0  0
  -20.4638  -26.1928   21.1876 C   0  0  0  0  0  0  0  0  0  0  0  0
  -29.1072  -24.2767   18.3235 C   0  0  0  0  0  0  0  0  0  0  0  0
  -22.8152  -30.4098   22.4212 C   0  0  1  0  0  0  0  0  0  0  0  0
  -20.0843  -27.8494   23.0180 C   0  0  2  0  0  0  0  0  0  0  0  0
  -22.9681  -31.6419   23.3572 C   0  0  0  0  0  0  0  0  0  0  0  0
  -29.4143  -25.4822   19.2255 C   0  0  0  0  0  0  0  0  0  1  0  0
  -25.2550  -12.2834   20.9463 N   0  0  0  0  0  0  0  0  0  0  0  0
  -25.6240  -13.4755   21.4452 N   0  0  0  0  0  0  0  0  0  0  0  0
  -27.5314  -18.2360   18.1406 N   0  0  0  0  0  0  0  0  0  0  0  0
  -23.9485  -30.1764   20.2337 N   0  0  0  0  0  0  0  0  0  0  0  0
  -26.9236  -16.0934   18.9767 N   0  0  0  0  0  0  0  0  0  0  0  0
  -25.2779  -14.9498   23.2665 N   0  0  0  0  0  0  0  0  0  0  0  0
  -22.5803  -11.4572   24.2260 N   0  0  0  0  0  0  0  0  0  0  0  0
  -28.7321  -23.1047   19.1091 N   0  0  0  0  0  0  0  0  0  0  0  0
  -25.2303  -32.6784   18.0367 N   0  0  0  0  0  0  0  0  0  0  0  0
  -21.5534  -29.6942   22.5767 N   0  0  0  0  0  0  0  0  0  0  0  0
  -20.0079  -26.4264   22.5821 N   0  3  0  0  0  0  0  0  0  0  0  0
  -23.2892  -13.5154   24.9471 O   0  0  0  0  0  0  0  0  0  0  0  0
  -26.1804  -31.5445   19.8350 O   0  0  0  0  0  0  0  0  0  0  0  0
  -22.0972  -31.5718   20.4820 O   0  0  0  0  0  0  0  0  0  0  0  0
  -22.4896  -27.6415   23.1125 O   0  0  0  0  0  0  0  0  0  0  0  0
  -26.4561  -17.9920   20.1755 O   0  0  0  0  0  0  0  0  0  0  0  0
  -21.9270   -6.8583   21.1505 O   0  0  0  0  0  0  0  0  0  0  0  0
  -28.2681  -25.7692   20.0298 O   0  0  0  0  0  0  0  0  0  1  0  0
  -21.6608   -3.4886   25.5069 F   0  0  0  0  0  0  0  0  0  0  0  0
  -20.6072   -7.6227   23.4563 F   0  0  0  0  0  0  0  0  0  0  0  0
  -28.0103  -20.5550   19.6086 S   0  0  0  0  0  0  0  0  0  0  0  0
  1  2  1  0  0  0  0
  1  5  2  0  0  0  0
  2  6  2  0  0  0  0
  3  8  2  0  0  0  0
  3 16  1  0  0  0  0
  4  9  1  0  0  0  0
  4 16  2  0  0  0  0
  5 18  1  0  0  0  0
  6 20  1  0  0  0  0
  7 10  2  0  0  0  0
  7 19  1  0  0  0  0
  8 23  1  0  0  0  0
  9 23  2  0  0  0  0
 10 24  1  0  0  0  0
 11 12  2  0  0  0  0
 11 25  1  0  0  0  0
 12 26  1  0  0  0  0
 13 21  1  0  0  0  0
 13 24  2  0  0  0  0
 14 22  1  0  0  0  0
 14 31  2  0  0  0  0
 15 26  2  0  0  0  0
 15 27  1  0  0  0  0
 16 28  1  0  0  0  0
 17 28  1  0  0  0  0
 17 29  2  0  0  0  0
 17 32  1  0  0  0  0
 18 20  2  0  0  0  0
 18 37  1  0  0  0  0
 19 21  2  0  0  0  0
 19 38  1  0  0  0  0
 20 48  1  0  0  0  0
 21 40  1  0  0  0  0
 22 30  2  0  0  0  0
 22 39  1  0  0  0  0
 23 79  1  0  0  0  0
 24 80  1  0  0  0  0
 25 27  2  0  0  0  0
 25 79  1  0  0  0  0
 26 81  1  0  0  0  0
 27 82  1  0  0  0  0
 28 63  2  0  0  0  0
 29 64  1  0  0  0  0
 29 68  1  0  0  0  0
 30 65  1  0  0  0  0
 30 83  1  0  0  0  0
 31 70  1  0  0  0  0
 31 83  1  0  0  0  0
 32 69  1  0  0  0  0
 32 74  2  0  0  0  0
 33 49  1  0  0  0  0
 33 71  1  0  0  0  0
 33 75  2  0  0  0  0
 34 59  1  0  0  0  0
 34 66  1  0  0  0  0
 34 76  2  0  0  0  0
 35 60  1  0  0  0  0
 35 72  1  0  0  0  0
 35 77  2  0  0  0  0
 36 65  1  0  0  0  0
 36 67  1  0  0  0  0
 36 78  2  0  0  0  0
 37 41  1  0  0  0  0
 38 49  1  0  0  0  0
 39 45  1  0  0  0  0
 40 66  1  0  0  0  0
 41 43  1  0  0  0  0
 42 44  1  0  0  0  0
 42 46  1  0  0  0  0
 43 48  1  0  0  0  0
 44 50  1  0  0  0  0
 45 65  1  0  0  0  0
 46 67  1  0  0  0  0
 47 50  1  0  0  0  0
 47 67  1  0  0  0  0
 48 71  1  0  0  0  0
 49 66  1  0  0  0  0
 50 64  1  0  0  0  0
 51 60  1  0  0  0  0
 52 61  1  0  0  0  0
 53 61  1  0  0  0  0
 54 61  1  0  0  0  0
 55 62  1  0  0  0  0
 56 62  1  0  0  0  0
 57 73  1  0  0  0  0
 58 62  1  0  0  0  0
 58 70  1  0  0  0  0
 59 61  1  0  0  0  0
 59 72  1  0  0  0  0
 60 73  1  0  0  0  0
 62 80  1  0  0  0  0
 63 64  1  0  0  0  0
M  CHG  1  73   1
M  ISO  4  36 100  62 101  65 100  80 101
M  END
> <Batch ID>
0151

> <Smiles>
CNC(C)C(=O)NC(C(=O)N1Cc2cc([101O:1][101C:1](C)(C)CNc3cc4c(s3)[100N:0]([100C:0](=O)N3CCCC(n5nc(-c6ccc(Oc7ccc(F)cc7F)cc6)c(C(N)=O)c5N)C3)CC4)ccc2CC1C(=O)NC1CCCc2ccccc21)C(C)(C)C

> <Shape>
0.280

> <Color>
0.093

> <Negative vol penalty>
0.000

$$$$

  -OEChem-04052303243D

 86 95  0     1  0  0  0  0  0999 V2000
  -17.8703  -25.6949   20.8582 C   0  0  0  0  0  0  0  0  0  0  0  0
  -19.1556  -25.7399   20.3278 C   0  0  0  0  0  0  0  0  0  0  0  0
  -27.9860  -19.0799   15.3220 C   0  0  0  0  0  0  0  0  0  0  0  0
  -21.5931  -13.4874   22.2267 C   0  0  0  0  0  0  0  0  0  0  0  0
  -21.8262  -15.1665   20.5053 C   0  0  0  0  0  0  0  0  0  0  0  0
  -28.8126  -20.1906   15.4912 C   0  0  0  0  0  0  0  0  0  0  0  0
  -17.3051  -26.8431   21.4113 C   0  0  0  0  0  0  0  0  0  0  0  0
  -19.8761  -26.9336   20.3491 C   0  0  0  0  0  0  0  0  0  0  0  0
  -24.6755  -26.2801   21.8267 C   0  0  0  0  0  0  0  0  0  0  0  0
  -27.8878  -18.1232   16.3323 C   0  0  0  0  0  0  0  0  0  0  0  0
  -20.2666  -13.8718   22.4221 C   0  0  0  0  0  0  0  0  0  0  0  0
  -20.4996  -15.5508   20.7005 C   0  0  0  0  0  0  0  0  0  0  0  0
  -25.5672  -25.7672   20.8857 C   0  0  0  0  0  0  0  0  0  0  0  0
  -17.2824  -13.3805   20.9100 C   0  0  0  0  0  0  0  0  0  0  0  0
  -16.3249  -12.3722   21.0205 C   0  0  0  0  0  0  0  0  0  0  0  0
  -29.4431  -19.3878   17.6810 C   0  0  0  0  0  0  0  0  0  0  0  0
  -26.3902  -27.9945   20.4605 C   0  0  0  0  0  0  0  0  0  0  0  0
  -15.7522  -13.1584   23.2321 C   0  0  0  0  0  0  0  0  0  0  0  0
  -22.3730  -14.1348   21.2684 C   0  0  0  0  0  0  0  0  0  0  0  0
  -29.5412  -20.3445   16.6706 C   0  0  0  0  0  0  0  0  0  0  0  0
  -24.2132  -12.4693   20.6793 C   0  0  0  0  0  0  0  0  0  0  0  0
  -18.0226  -28.0491   21.4482 C   0  0  0  0  0  0  0  0  0  0  0  0
  -24.6268  -27.6576   22.0843 C   0  0  0  0  0  0  0  0  0  0  0  0
  -19.3193  -28.0994   20.9020 C   0  0  0  0  0  0  0  0  0  0  0  0
  -25.4987  -28.5221   21.4071 C   0  0  0  0  0  0  0  0  0  0  0  0
  -28.6164  -18.2771   17.5118 C   0  0  0  0  0  0  0  0  0  0  0  0
  -19.7198  -14.9035   21.6589 C   0  0  0  0  0  0  0  0  0  0  0  0
  -26.4227  -26.6247   20.2003 C   0  0  0  0  0  0  0  0  0  0  0  0
  -17.4749  -14.2777   21.9606 C   0  0  0  0  0  0  0  0  0  0  0  0
  -15.5598  -12.2612   22.1815 C   0  0  0  0  0  0  0  0  0  0  0  0
  -16.7098  -14.1667   23.1216 C   0  0  0  0  0  0  0  0  0  0  0  0
  -23.7435  -13.7386   21.0666 C   0  0  0  0  0  0  0  0  0  0  0  0
  -25.5786  -12.6094   20.6281 C   0  0  0  0  0  0  0  0  0  0  0  0
  -30.4127  -21.5167   16.8477 C   0  0  0  0  0  0  0  0  0  0  0  0
  -23.4809  -11.2708   20.3913 C   0  0  0  0  0  0  0  0  0  0  0  0
  -22.4110  -29.9176   21.7901 C   0  0  0  0  0  0  0  0  0  0  0  0
  -24.6410  -31.7506   23.2698 C   0  0  0  0  0  0  0  0  0  0  0  0
  -27.9308  -32.2799   24.0075 C   0  0  0  0  0  0  0  0  0  0  0  0
  -29.1710  -17.3064   19.7693 C   0  0  0  0  0  0  0  0  0  0  0  0
  -17.3518  -29.2759   22.0136 C   0  0  0  0  0  0  0  0  0  0  0  0
  -23.6778  -28.1920   23.1217 C   0  0  0  0  0  0  0  0  0  0  0  0
  -25.5000  -30.0065   21.6617 C   0  0  0  0  0  0  0  0  0  0  0  0
  -18.3240  -30.4079   22.3356 C   0  0  0  0  0  0  0  0  0  0  0  0
  -29.1612  -15.1186   22.5783 C   0  0  0  0  0  0  0  0  0  0  0  0
  -19.2948  -30.6230   21.1788 C   0  0  0  0  0  0  0  0  0  0  0  0
  -27.8161  -14.3965   22.4708 C   0  0  0  0  0  0  0  0  0  0  0  0
  -29.7280  -24.7903   18.4115 C   0  0  0  0  0  0  0  0  0  0  0  0
  -29.0572  -16.5791   22.1428 C   0  0  0  0  0  0  0  0  0  0  0  0
  -30.6389  -23.8581   17.6251 C   0  0  0  0  0  0  0  0  0  0  0  0
  -27.1210  -16.0685   20.7077 C   0  0  0  0  0  0  0  0  0  0  0  0
  -28.4650  -22.8417   17.8342 C   0  0  0  0  0  0  0  0  0  0  0  0
  -20.1419  -29.3694   20.9291 C   0  0  1  0  0  0  0  0  0  0  0  0
  -23.3561  -29.6711   22.9319 C   0  0  1  0  0  0  0  0  0  0  0  0
  -27.1898  -14.5769   21.0741 C   0  0  2  0  0  0  0  0  0  0  0  0
  -28.3082  -24.3618   17.9957 C   0  0  2  0  0  0  0  0  0  0  0  0
  -27.9033  -25.0118   16.6625 C   0  0  0  0  0  0  0  0  0  0  0  0
  -29.4487  -33.8815   25.2026 C   0  0  0  0  0  0  0  0  0  0  0  0
  -24.3582  -33.7328   20.9674 C   0  0  0  0  0  0  0  0  0  0  0  0
  -26.5094  -34.7835   21.6998 C   0  0  0  0  0  0  0  0  0  0  0  0
  -24.5398  -34.7815   23.2305 C   0  0  0  0  0  0  0  0  0  0  0  0
  -28.8679  -30.1815   25.8722 C   0  0  0  0  0  0  0  0  0  0  0  0
  -27.2773  -24.7158   19.0682 C   0  0  0  0  0  0  0  0  0  1  0  0
  -25.7851  -32.6217   22.8102 C   0  0  1  0  0  0  0  0  0  0  0  0
  -28.6303  -32.6046   25.3150 C   0  0  2  0  0  0  0  0  0  0  0  0
  -25.2970  -33.9522   22.1706 C   0  0  0  0  0  0  0  0  0  0  0  0
  -24.7303  -14.6201   21.2488 N   0  0  0  0  0  0  0  0  0  0  0  0
  -25.8338  -13.9036   20.9748 N   0  0  0  0  0  0  0  0  0  0  0  0
  -29.8561  -22.6492   17.4225 N   0  0  0  0  0  0  0  0  0  0  0  0
  -24.5496  -30.4815   22.6809 N   0  0  0  0  0  0  0  0  0  0  0  0
  -28.4590  -16.6720   20.8092 N   0  0  0  0  0  0  0  0  0  0  0  0
  -26.5738  -11.7505   20.3210 N   0  0  0  0  0  0  0  0  0  0  0  0
  -22.0833  -11.3013   20.4923 N   0  0  0  0  0  0  0  0  0  0  0  0
  -28.5163  -17.3053   18.5381 N   0  0  0  0  0  0  0  0  0  0  0  0
  -21.1975  -29.2683   21.9139 N   0  0  0  0  0  0  0  0  0  0  0  0
  -26.6540  -32.7991   23.9686 N   0  0  0  0  0  0  0  0  0  0  0  0
  -29.5442  -31.4934   25.7035 N   0  3  0  0  0  0  0  0  0  0  0  0
  -31.5767  -21.4177   16.4646 O   0  0  0  0  0  0  0  0  0  0  0  0
  -24.0500  -10.2000   20.0704 O   0  0  0  0  0  0  0  0  0  0  0  0
  -22.7566  -30.6444   20.8659 O   0  0  0  0  0  0  0  0  0  0  0  0
  -23.8616  -32.1776   24.1252 O   0  0  0  0  0  0  0  0  0  0  0  0
  -28.4650  -31.6336   23.1088 O   0  0  0  0  0  0  0  0  0  0  0  0
  -30.2916  -17.7894   19.9508 O   0  0  0  0  0  0  0  0  0  0  0  0
  -18.4253  -15.2786   21.8491 O   0  0  0  0  0  0  0  0  0  0  0  0
  -27.2936  -26.1268   19.2808 O   0  0  0  0  0  0  0  0  0  1  0  0
  -14.6393  -11.2939   22.2868 F   0  0  0  0  0  0  0  0  0  0  0  0
  -16.8893  -15.0264   24.1338 F   0  0  0  0  0  0  0  0  0  0  0  0
  1  2  1  0  0  0  0
  1  7  2  0  0  0  0
  2  8  2  0  0  0  0
  3  6  2  0  0  0  0
  3 10  1  0  0  0  0
  4 11  2  0  0  0  0
  4 19  1  0  0  0  0
  5 12  1  0  0  0  0
  5 19  2  0  0  0  0
  6 20  1  0  0  0  0
  7 22  1  0  0  0  0
  8 24  1  0  0  0  0
  9 13  2  0  0  0  0
  9 23  1  0  0  0  0
 10 26  2  0  0  0  0
 11 27  1  0  0  0  0
 12 27  2  0  0  0  0
 13 28  1  0  0  0  0
 14 15  2  0  0  0  0
 14 29  1  0  0  0  0
 15 30  1  0  0  0  0
 16 20  2  0  0  0  0
 16 26  1  0  0  0  0
 17 25  1  0  0  0  0
 17 28  2  0  0  0  0
 18 30  2  0  0  0  0
 18 31  1  0  0  0  0
 19 32  1  0  0  0  0
 20 34  1  0  0  0  0
 21 32  1  0  0  0  0
 21 33  2  0  0  0  0
 21 35  1  0  0  0  0
 22 24  2  0  0  0  0
 22 40  1  0  0  0  0
 23 25  2  0  0  0  0
 23 41  1  0  0  0  0
 24 52  1  0  0  0  0
 25 42  1  0  0  0  0
 26 73  1  0  0  0  0
 27 83  1  0  0  0  0
 28 84  1  0  0  0  0
 29 31  2  0  0  0  0
 29 83  1  0  0  0  0
 30 85  1  0  0  0  0
 31 86  1  0  0  0  0
 32 66  2  0  0  0  0
 33 67  1  0  0  0  0
 33 71  1  0  0  0  0
 34 68  1  0  0  0  0
 34 77  2  0  0  0  0
 35 72  1  0  0  0  0
 35 78  2  0  0  0  0
 36 53  1  0  0  0  0
 36 74  1  0  0  0  0
 36 79  2  0  0  0  0
 37 63  1  0  0  0  0
 37 69  1  0  0  0  0
 37 80  2  0  0  0  0
 38 64  1  0  0  0  0
 38 75  1  0  0  0  0
 38 81  2  0  0  0  0
 39 70  1  0  0  0  0
 39 73  1  0  0  0  0
 39 82  2  0  0  0  0
 40 43  1  0  0  0  0
 41 53  1  0  0  0  0
 42 69  1  0  0  0  0
 43 45  1  0  0  0  0
 44 46  1  0  0  0  0
 44 48  1  0  0  0  0
 45 52  1  0  0  0  0
 46 54  1  0  0  0  0
 47 49  1  0  0  0  0
 47 55  1  0  0  0  0
 48 70  1  0  0  0  0
 49 68  1  0  0  0  0
 50 54  1  0  0  0  0
 50 70  1  0  0  0  0
 51 55  1  0  0  0  0
 51 68  1  0  0  0  0
 52 74  1  0  0  0  0
 53 69  1  0  0  0  0
 54 67  1  0  0  0  0
 55 56  1  0  0  0  0
 55 62  1  0  0  0  0
 57 64  1  0  0  0  0
 58 65  1  0  0  0  0
 59 65  1  0  0  0  0
 60 65  1  0  0  0  0
 61 76  1  0  0  0  0
 62 84  1  0  0  0  0
 63 65  1  0  0  0  0
 63 75  1  0  0  0  0
 64 76  1  0  0  0  0
 66 67  1  0  0  0  0
M  CHG  1  76   1
M  ISO  4  39 100  62 101  73 100  84 101
M  END
> <Batch ID>
0151

> <Smiles>
CNC(C)C(=O)NC(C(=O)N1Cc2cc([101O:1][101CH2:1]C3(C)CCN(C(=O)c4cccc([100NH:0][100C:0](=O)N5CCCC(n6nc(-c7ccc(Oc8ccc(F)cc8F)cc7)c(C(N)=O)c6N)C5)c4)C3)ccc2CC1C(=O)NC1CCCc2ccccc21)C(C)(C)C

> <Shape>
0.264

> <Color>
0.081

> <Negative vol penalty>
0.000

$$$$

  -OEChem-04052303243D

 87 97  0     1  0  0  0  0  0999 V2000
  -28.2268  -37.4054   24.2803 C   0  0  0  0  0  0  0  0  0  0  0  0
  -28.7235  -36.2676   23.6524 C   0  0  0  0  0  0  0  0  0  0  0  0
  -24.1344   -9.3719   20.1747 C   0  0  0  0  0  0  0  0  0  0  0  0
  -22.9075  -10.4360   21.9635 C   0  0  0  0  0  0  0  0  0  0  0  0
  -27.1428  -37.3026   25.1511 C   0  0  0  0  0  0  0  0  0  0  0  0
  -28.1371  -35.0261   23.8959 C   0  0  0  0  0  0  0  0  0  0  0  0
  -27.4855  -30.4181   19.9151 C   0  0  0  0  0  0  0  0  0  0  0  0
  -26.3775  -20.8857   20.9079 C   0  0  0  0  0  0  0  0  0  0  0  0
  -26.3433  -19.6168   21.4935 C   0  0  0  0  0  0  0  0  0  0  0  0
  -23.4823   -8.1684   20.4434 C   0  0  0  0  0  0  0  0  0  0  0  0
  -22.2554   -9.2326   22.2321 C   0  0  0  0  0  0  0  0  0  0  0  0
  -28.2232  -29.2553   19.6973 C   0  0  0  0  0  0  0  0  0  0  0  0
  -19.6959   -7.4454   20.9378 C   0  0  0  0  0  0  0  0  0  0  0  0
  -18.3173   -7.4894   21.1456 C   0  0  0  0  0  0  0  0  0  0  0  0
  -28.7874  -19.5359   21.6353 C   0  0  0  0  0  0  0  0  0  0  0  0
  -26.6867  -28.0262   21.0928 C   0  0  0  0  0  0  0  0  0  0  0  0
  -18.6223   -6.5768   23.3617 C   0  0  0  0  0  0  0  0  0  0  0  0
  -23.8470  -10.5056   20.9348 C   0  0  0  0  0  0  0  0  0  0  0  0
  -24.1065  -12.7614   19.7720 C   0  0  0  0  0  0  0  0  0  0  0  0
  -26.5367  -36.0606   25.3979 C   0  0  0  0  0  0  0  0  0  0  0  0
  -26.3471  -30.3959   20.7336 C   0  0  0  0  0  0  0  0  0  0  0  0
  -27.0448  -34.9064   24.7719 C   0  0  0  0  0  0  0  0  0  0  0  0
  -28.7864  -20.7785   21.0611 C   0  0  0  0  0  0  0  0  0  0  0  0
  -25.9348  -29.1895   21.3173 C   0  0  0  0  0  0  0  0  0  0  0  0
  -27.6155  -21.4209   20.7319 C   0  0  0  0  0  0  0  0  0  0  0  0
  -27.5361  -18.9502   21.8594 C   0  0  0  0  0  0  0  0  0  0  0  0
  -22.5428   -8.0988   21.4720 C   0  0  0  0  0  0  0  0  0  0  0  0
  -27.8255  -28.0597   20.2885 C   0  0  0  0  0  0  0  0  0  0  0  0
  -20.5377   -6.9670   21.9419 C   0  0  0  0  0  0  0  0  0  0  0  0
  -17.7805   -7.0551   22.3575 C   0  0  0  0  0  0  0  0  0  0  0  0
  -20.0009   -6.5327   23.1539 C   0  0  0  0  0  0  0  0  0  0  0  0
  -24.5207  -11.7489   20.6581 C   0  0  0  0  0  0  0  0  0  0  0  0
  -25.0819  -13.7234   19.8698 C   0  0  0  0  0  0  0  0  0  0  0  0
  -22.9440  -12.8264   18.9354 C   0  0  0  0  0  0  0  0  0  0  0  0
  -25.5114  -31.8143   23.4526 C   0  0  0  0  0  0  0  0  0  0  0  0
  -22.6506  -30.4074   22.8534 C   0  0  0  0  0  0  0  0  0  0  0  0
  -20.9196  -27.9068   21.3052 C   0  0  0  0  0  0  0  0  0  0  0  0
  -28.5230  -16.8803   22.9022 C   0  0  0  0  0  0  0  0  0  0  0  0
  -25.3973  -35.9921   26.3837 C   0  0  0  0  0  0  0  0  0  0  0  0
  -25.5469  -31.6532   20.9369 C   0  0  0  0  0  0  0  0  0  0  0  0
  -29.5609  -21.9162   20.4859 C   0  0  0  0  0  0  0  0  0  0  0  0
  -24.7085  -29.1083   22.1881 C   0  0  0  0  0  0  0  0  0  0  0  0
  -24.5953  -34.6960   26.2984 C   0  0  0  0  0  0  0  0  0  0  0  0
  -29.6262  -13.5925   22.0955 C   0  0  0  0  0  0  0  0  0  0  0  0
  -27.3218  -25.2860   15.7378 C   0  0  0  0  0  0  0  0  0  0  0  0
  -28.3013  -24.1318   15.6679 C   0  0  0  0  0  0  0  0  0  0  0  0
  -25.5306  -33.4924   26.2394 C   0  0  0  0  0  0  0  0  0  0  0  0
  -28.3622  -12.9031   21.5768 C   0  0  0  0  0  0  0  0  0  0  0  0
  -29.3185  -14.5511   23.2445 C   0  0  0  0  0  0  0  0  0  0  0  0
  -27.0082  -14.8528   22.4441 C   0  0  0  0  0  0  0  0  0  0  0  0
  -27.1222  -25.4594   17.2281 C   0  0  0  0  0  0  0  0  0  0  0  0
  -29.2882  -24.4174   16.7862 C   0  0  0  0  0  0  0  0  0  0  0  0
  -26.4200  -33.5457   24.9914 C   0  0  1  0  0  0  0  0  0  0  0  0
  -24.6978  -31.6227   22.2040 C   0  0  1  0  0  0  0  0  0  0  0  0
  -27.2588  -13.9262   21.2432 C   0  0  2  0  0  0  0  0  0  0  0  0
  -18.5978  -26.9944   21.0325 C   0  0  0  0  0  0  0  0  0  0  0  0
  -22.7973  -29.2039   25.6534 C   0  0  0  0  0  0  0  0  0  0  0  0
  -20.9999  -27.5961   24.9809 C   0  0  0  0  0  0  0  0  0  0  0  0
  -20.5360  -30.0470   24.9975 C   0  0  0  0  0  0  0  0  0  0  0  0
  -20.9647  -28.3484   18.3791 C   0  0  0  0  0  0  0  0  0  0  0  0
  -27.8487  -23.3104   19.1677 C   0  0  0  0  0  0  0  0  0  0  0  0
  -27.8300  -25.6884   20.1081 C   0  0  0  0  0  0  0  0  0  1  0  0
  -22.0204  -29.0787   23.1944 C   0  0  1  0  0  0  0  0  0  0  0  0
  -19.6558  -27.9275   20.4644 C   0  0  2  0  0  0  0  0  0  0  0  0
  -28.5129  -24.6862   19.1813 C   0  0  2  0  0  0  0  0  0  0  0  0
  -21.6127  -28.9830   24.6917 C   0  0  0  0  0  0  0  0  0  0  0  0
  -25.6698  -12.0406   21.2734 N   0  0  0  0  0  0  0  0  0  0  0  0
  -25.9860  -13.2471   20.7731 N   0  0  0  0  0  0  0  0  0  0  0  0
  -28.2573  -22.5072   20.2847 N   0  0  1  0  0  0  0  0  0  0  0  0
  -23.9630  -30.3659   22.3619 N   0  0  0  0  0  0  0  0  0  0  0  0
  -28.2675  -15.4935   22.8545 N   0  0  0  0  0  0  0  0  0  0  0  0
  -25.2459  -14.9218   19.2703 N   0  0  0  0  0  0  0  0  0  0  0  0
  -22.0445  -11.7518   18.9567 N   0  0  0  0  0  0  0  0  0  0  0  0
  -27.4606  -17.6773   22.4773 N   0  0  0  0  0  0  0  0  0  0  0  0
  -25.6737  -33.1362   23.8210 N   0  0  0  0  0  0  0  0  0  0  0  0
  -20.9133  -28.9005   22.2611 N   0  0  0  0  0  0  0  0  0  0  0  0
  -28.5086  -25.2426   17.7938 N   0  3  0  0  0  0  0  0  0  0  0  0
  -19.9558  -27.5029   19.0677 N   0  3  0  0  0  0  0  0  0  0  0  0
  -22.7182  -13.8010   18.1786 O   0  0  0  0  0  0  0  0  0  0  0  0
  -25.9575  -30.8353   24.0393 O   0  0  0  0  0  0  0  0  0  0  0  0
  -21.9998  -31.4435   23.0104 O   0  0  0  0  0  0  0  0  0  0  0  0
  -21.8204  -27.0884   21.1337 O   0  0  0  0  0  0  0  0  0  0  0  0
  -29.6141  -17.3270   23.2656 O   0  0  0  0  0  0  0  0  0  0  0  0
  -21.9062   -6.9247   21.7343 O   0  0  0  0  0  0  0  0  0  0  0  0
  -28.5442  -26.9235   20.0781 O   0  0  0  0  0  0  0  0  0  1  0  0
  -16.4568   -7.0989   22.5575 F   0  0  0  0  0  0  0  0  0  0  0  0
  -20.8046   -6.0733   24.1227 F   0  0  0  0  0  0  0  0  0  0  0  0
  1  2  1  0  0  0  0
  1  5  2  0  0  0  0
  2  6  2  0  0  0  0
  3 10  2  0  0  0  0
  3 18  1  0  0  0  0
  4 11  1  0  0  0  0
  4 18  2  0  0  0  0
  5 20  1  0  0  0  0
  6 22  1  0  0  0  0
  7 12  2  0  0  0  0
  7 21  1  0  0  0  0
  8  9  2  0  0  0  0
  8 25  1  0  0  0  0
  9 26  1  0  0  0  0
 10 27  1  0  0  0  0
 11 27  2  0  0  0  0
 12 28  1  0  0  0  0
 13 14  2  0  0  0  0
 13 29  1  0  0  0  0
 14 30  1  0  0  0  0
 15 23  1  0  0  0  0
 15 26  2  0  0  0  0
 16 24  1  0  0  0  0
 16 28  2  0  0  0  0
 17 30  2  0  0  0  0
 17 31  1  0  0  0  0
 18 32  1  0  0  0  0
 19 32  1  0  0  0  0
 19 33  2  0  0  0  0
 19 34  1  0  0  0  0
 20 22  2  0  0  0  0
 20 39  1  0  0  0  0
 21 24  2  0  0  0  0
 21 40  1  0  0  0  0
 22 53  1  0  0  0  0
 23 25  2  0  0  0  0
 23 41  1  0  0  0  0
 24 42  1  0  0  0  0
 25 69  1  0  0  0  0
 26 74  1  0  0  0  0
 27 84  1  0  0  0  0
 28 85  1  0  0  0  0
 29 31  2  0  0  0  0
 29 84  1  0  0  0  0
 30 86  1  0  0  0  0
 31 87  1  0  0  0  0
 32 67  2  0  0  0  0
 33 68  1  0  0  0  0
 33 72  1  0  0  0  0
 34 73  1  0  0  0  0
 34 79  2  0  0  0  0
 35 54  1  0  0  0  0
 35 75  1  0  0  0  0
 35 80  2  0  0  0  0
 36 63  1  0  0  0  0
 36 70  1  0  0  0  0
 36 81  2  0  0  0  0
 37 64  1  0  0  0  0
 37 76  1  0  0  0  0
 37 82  2  0  0  0  0
 38 71  1  0  0  0  0
 38 74  1  0  0  0  0
 38 83  2  0  0  0  0
 39 43  1  0  0  0  0
 40 54  1  0  0  0  0
 41 69  1  0  0  0  0
 42 70  1  0  0  0  0
 43 47  1  0  0  0  0
 44 48  1  0  0  0  0
 44 49  1  0  0  0  0
 45 46  1  0  0  0  0
 45 51  1  0  0  0  0
 46 52  1  0  0  0  0
 47 53  1  0  0  0  0
 48 55  1  0  0  0  0
 49 71  1  0  0  0  0
 50 55  1  0  0  0  0
 50 71  1  0  0  0  0
 51 77  1  0  0  0  0
 52 77  1  0  0  0  0
 53 75  1  0  0  0  0
 54 70  1  0  0  0  0
 55 68  1  0  0  0  0
 56 64  1  0  0  0  0
 57 66  1  0  0  0  0
 58 66  1  0  0  0  0
 59 66  1  0  0  0  0
 60 78  1  0  0  0  0
 61 65  1  0  0  0  0
 61 69  1  0  0  0  0
 62 65  1  0  0  0  0
 62 85  1  0  0  0  0
 63 66  1  0  0  0  0
 63 76  1  0  0  0  0
 64 78  1  0  0  0  0
 65 77  1  0  0  0  0
 67 68  1  0  0  0  0
M  CHG  2  77   1  78   1
M  ISO  4  38 100  62 101  74 100  85 101
M  END
> <Batch ID>
0151

> <Smiles>
CNC(C)C(=O)NC(C(=O)N1Cc2cc([101O:1][101CH2:1]C(CN3Cc4cc([100NH:0][100C:0](=O)N5CCCC(n6nc(-c7ccc(Oc8ccc(F)cc8F)cc7)c(C(N)=O)c6N)C5)ccc43)N3CCCC3)ccc2CC1C(=O)NC1CCCc2ccccc21)C(C)(C)C

> <Shape>
0.306

> <Color>
0.126

> <Negative vol penalty>
0.000

$$$$

  -OEChem-04052303243D

 83 91  0     1  0  0  0  0  0999 V2000
  -21.8421  -30.9806   14.3674 C   0  0  0  0  0  0  0  0  0  0  0  0
  -23.0741  -30.6532   14.9245 C   0  0  0  0  0  0  0  0  0  0  0  0
  -26.4018  -12.0824   21.3271 C   0  0  0  0  0  0  0  0  0  0  0  0
  -25.4231  -13.2442   19.4485 C   0  0  0  0  0  0  0  0  0  0  0  0
  -21.0313  -31.9335   14.9826 C   0  0  0  0  0  0  0  0  0  0  0  0
  -23.4966  -31.2795   16.0966 C   0  0  0  0  0  0  0  0  0  0  0  0
  -25.4680  -28.0237   19.4370 C   0  0  0  0  0  0  0  0  0  0  0  0
  -25.1786  -11.4621   21.5809 C   0  0  0  0  0  0  0  0  0  0  0  0
  -24.1998  -12.6238   19.7022 C   0  0  0  0  0  0  0  0  0  0  0  0
  -26.7726  -27.5884   19.2080 C   0  0  0  0  0  0  0  0  0  0  0  0
  -23.3917   -8.8755   20.3360 C   0  0  0  0  0  0  0  0  0  0  0  0
  -23.4024   -7.5069   20.6053 C   0  0  0  0  0  0  0  0  0  0  0  0
  -27.5812  -29.1747   20.8355 C   0  0  0  0  0  0  0  0  0  0  0  0
  -29.2252  -22.3623   18.6824 C   0  0  0  0  0  0  0  0  0  0  0  0
  -22.4184   -7.9255   22.7718 C   0  0  0  0  0  0  0  0  0  0  0  0
  -27.9066  -20.9749   17.3637 C   0  0  0  0  0  0  0  0  0  0  0  0
  -26.5241  -12.9735   20.2610 C   0  0  0  0  0  0  0  0  0  0  0  0
  -28.8230  -13.1457   19.1686 C   0  0  0  0  0  0  0  0  0  0  0  0
  -21.4397  -32.5647   16.1681 C   0  0  0  0  0  0  0  0  0  0  0  0
  -25.2110  -29.0471   20.3606 C   0  0  0  0  0  0  0  0  0  0  0  0
  -22.6910  -32.2427   16.7275 C   0  0  0  0  0  0  0  0  0  0  0  0
  -26.2723  -29.6195   21.0762 C   0  0  0  0  0  0  0  0  0  0  0  0
  -28.6815  -21.0580   18.4996 C   0  0  0  0  0  0  0  0  0  0  0  0
  -24.0775  -11.7327   20.7684 C   0  0  0  0  0  0  0  0  0  0  0  0
  -27.8297  -28.1659   19.9052 C   0  0  0  0  0  0  0  0  0  0  0  0
  -22.8944   -9.7691   21.2847 C   0  0  0  0  0  0  0  0  0  0  0  0
  -22.9157   -7.0319   21.8231 C   0  0  0  0  0  0  0  0  0  0  0  0
  -22.4077   -9.2941   22.5025 C   0  0  0  0  0  0  0  0  0  0  0  0
  -27.7873  -13.6150   19.9987 C   0  0  0  0  0  0  0  0  0  0  0  0
  -29.7970  -14.1101   19.2564 C   0  0  0  0  0  0  0  0  0  0  0  0
  -28.8453  -23.2264   17.6790 C   0  0  0  0  0  0  0  0  0  0  0  0
  -28.8977  -11.9454   18.3880 C   0  0  0  0  0  0  0  0  0  0  0  0
  -30.0302  -26.7933   17.7143 C   0  0  0  0  0  0  0  0  0  0  0  0
  -29.6101  -27.8615   18.4191 C   0  0  0  0  0  0  0  0  0  1  0  0
  -29.9413  -25.4094   18.2633 C   0  0  0  0  0  0  0  0  0  0  0  0
  -23.9633  -31.9654   20.1854 C   0  0  0  0  0  0  0  0  0  0  0  0
  -24.2280  -31.8496   23.4163 C   0  0  0  0  0  0  0  0  0  0  0  0
  -25.7696  -30.5105   26.1508 C   0  0  0  0  0  0  0  0  0  0  0  0
  -29.6611  -19.9451   20.5363 C   0  0  0  0  0  0  0  0  0  0  0  0
  -20.5499  -33.6228   16.7708 C   0  0  0  0  0  0  0  0  0  0  0  0
  -23.7954  -29.4869   20.6156 C   0  0  0  0  0  0  0  0  0  0  0  0
  -26.0474  -30.7074   22.0933 C   0  0  0  0  0  0  0  0  0  0  0  0
  -20.9057  -33.9676   18.2147 C   0  0  0  0  0  0  0  0  0  0  0  0
  -31.5180  -17.4331   22.2447 C   0  0  0  0  0  0  0  0  0  0  0  0
  -22.4110  -34.1661   18.3608 C   0  0  0  0  0  0  0  0  0  0  0  0
  -30.8703  -16.1259   21.7824 C   0  0  0  0  0  0  0  0  0  0  0  0
  -30.4869  -18.5470   22.4173 C   0  0  0  0  0  0  0  0  0  0  0  0
  -28.9806  -17.4775   20.7876 C   0  0  0  0  0  0  0  0  0  0  0  0
  -23.1732  -32.8822   18.0115 C   0  0  1  0  0  0  0  0  0  0  0  0
  -23.7029  -30.8916   21.2036 C   0  0  1  0  0  0  0  0  0  0  0  0
  -29.9883  -16.3436   20.5373 C   0  0  2  0  0  0  0  0  0  0  0  0
  -29.6567  -29.2876   17.9572 C   0  0  0  0  0  0  0  0  0  0  0  0
  -25.7986  -30.6408   28.6567 C   0  0  0  0  0  0  0  0  0  0  0  0
  -25.7665  -34.4799   23.2594 C   0  0  0  0  0  0  0  0  0  0  0  0
  -26.5686  -34.0696   25.5953 C   0  0  0  0  0  0  0  0  0  0  0  0
  -24.1299  -34.3395   25.1452 C   0  0  0  0  0  0  0  0  0  0  0  0
  -24.9894  -27.6687   26.4233 C   0  0  0  0  0  0  0  0  0  0  0  0
  -25.2978  -32.2193   24.4153 C   0  0  1  0  0  0  0  0  0  0  0  0
  -25.2125  -29.9384   27.4418 C   0  0  2  0  0  0  0  0  0  0  0  0
  -25.4454  -33.7579   24.5833 C   0  0  0  0  0  0  0  0  0  0  0  0
  -28.0765  -14.7863   20.5717 N   0  0  0  0  0  0  0  0  0  0  0  0
  -29.3049  -15.0611   20.1011 N   0  0  0  0  0  0  0  0  0  0  0  0
  -24.6462  -31.1075   22.3026 N   0  0  0  0  0  0  0  0  0  0  0  0
  -29.6915  -18.6988   21.1971 N   0  0  0  0  0  0  0  0  0  0  0  0
  -31.0180  -14.2287   18.6928 N   0  0  0  0  0  0  0  0  0  0  0  0
  -27.8082  -11.0641   18.4115 N   0  0  0  0  0  0  0  0  0  0  0  0
  -28.8978  -19.9605   19.3694 N   0  0  0  0  0  0  0  0  0  0  0  0
  -29.1508  -24.5919   17.4678 N   0  0  0  0  0  0  0  0  0  0  0  0
  -23.1012  -31.9380   19.1058 N   0  0  0  0  0  0  0  0  0  0  0  0
  -24.9669  -31.5126   25.6480 N   0  0  0  0  0  0  0  0  0  0  0  0
  -25.5264  -28.4850   27.5423 N   0  3  0  0  0  0  0  0  0  0  0  0
  -29.9077  -11.6549   17.7031 O   0  0  0  0  0  0  0  0  0  0  0  0
  -30.5110  -25.1339   19.3131 O   0  0  0  0  0  0  0  0  0  0  0  0
  -24.8777  -32.7608   20.3665 O   0  0  0  0  0  0  0  0  0  0  0  0
  -23.0630  -32.2000   23.6203 O   0  0  0  0  0  0  0  0  0  0  0  0
  -26.8144  -30.1112   25.6414 O   0  0  0  0  0  0  0  0  0  0  0  0
  -30.2894  -20.9191   20.9588 O   0  0  0  0  0  0  0  0  0  0  0  0
  -22.8838  -11.1274   21.0155 O   0  0  0  0  0  0  0  0  0  0  0  0
  -29.1040  -27.7432   19.6831 O   0  0  0  0  0  0  0  0  0  1  0  0
  -22.9246   -5.7175   22.0809 F   0  0  0  0  0  0  0  0  0  0  0  0
  -21.9276  -10.1476   23.4173 F   0  0  0  0  0  0  0  0  0  0  0  0
  -27.8370  -22.4652   16.5231 S   0  0  0  0  0  0  0  0  0  0  0  0
  -30.6803  -26.9006   16.1116 S   0  0  0  0  0  0  0  0  0  0  0  0
  1  2  1  0  0  0  0
  1  5  2  0  0  0  0
  2  6  2  0  0  0  0
  3  8  2  0  0  0  0
  3 17  1  0  0  0  0
  4  9  1  0  0  0  0
  4 17  2  0  0  0  0
  5 19  1  0  0  0  0
  6 21  1  0  0  0  0
  7 10  2  0  0  0  0
  7 20  1  0  0  0  0
  8 24  1  0  0  0  0
  9 24  2  0  0  0  0
 10 25  1  0  0  0  0
 11 12  2  0  0  0  0
 11 26  1  0  0  0  0
 12 27  1  0  0  0  0
 13 22  1  0  0  0  0
 13 25  2  0  0  0  0
 14 23  1  0  0  0  0
 14 31  2  0  0  0  0
 15 27  2  0  0  0  0
 15 28  1  0  0  0  0
 16 23  2  0  0  0  0
 16 82  1  0  0  0  0
 17 29  1  0  0  0  0
 18 29  1  0  0  0  0
 18 30  2  0  0  0  0
 18 32  1  0  0  0  0
 19 21  2  0  0  0  0
 19 40  1  0  0  0  0
 20 22  2  0  0  0  0
 20 41  1  0  0  0  0
 21 49  1  0  0  0  0
 22 42  1  0  0  0  0
 23 67  1  0  0  0  0
 24 78  1  0  0  0  0
 25 79  1  0  0  0  0
 26 28  2  0  0  0  0
 26 78  1  0  0  0  0
 27 80  1  0  0  0  0
 28 81  1  0  0  0  0
 29 61  2  0  0  0  0
 30 62  1  0  0  0  0
 30 65  1  0  0  0  0
 31 68  1  0  0  0  0
 31 82  1  0  0  0  0
 32 66  1  0  0  0  0
 32 72  2  0  0  0  0
 33 34  2  0  0  0  0
 33 35  1  0  0  0  0
 33 83  1  0  0  0  0
 34 52  1  0  0  0  0
 34 79  1  0  0  0  0
 35 68  1  0  0  0  0
 35 73  2  0  0  0  0
 36 50  1  0  0  0  0
 36 69  1  0  0  0  0
 36 74  2  0  0  0  0
 37 58  1  0  0  0  0
 37 63  1  0  0  0  0
 37 75  2  0  0  0  0
 38 59  1  0  0  0  0
 38 70  1  0  0  0  0
 38 76  2  0  0  0  0
 39 64  1  0  0  0  0
 39 67  1  0  0  0  0
 39 77  2  0  0  0  0
 40 43  1  0  0  0  0
 41 50  1  0  0  0  0
 42 63  1  0  0  0  0
 43 45  1  0  0  0  0
 44 46  1  0  0  0  0
 44 47  1  0  0  0  0
 45 49  1  0  0  0  0
 46 51  1  0  0  0  0
 47 64  1  0  0  0  0
 48 51  1  0  0  0  0
 48 64  1  0  0  0  0
 49 69  1  0  0  0  0
 50 63  1  0  0  0  0
 51 62  1  0  0  0  0
 53 59  1  0  0  0  0
 54 60  1  0  0  0  0
 55 60  1  0  0  0  0
 56 60  1  0  0  0  0
 57 71  1  0  0  0  0
 58 60  1  0  0  0  0
 58 70  1  0  0  0  0
 59 71  1  0  0  0  0
 61 62  1  0  0  0  0
M  CHG  1  71   1
M  ISO  4  34 101  39 100  67 100  79 101
M  END
> <Batch ID>
0151

> <Smiles>
CNC(C)C(=O)NC(C(=O)N1Cc2cc([101O:1][101CH:1](C)C(=S)C(=O)Nc3cc([100NH:0][100C:0](=O)N4CCCC(n5nc(-c6ccc(Oc7ccc(F)cc7F)cc6)c(C(N)=O)c5N)C4)cs3)ccc2CC1C(=O)NC1CCCc2ccccc21)C(C)(C)C

> <Shape>
0.334

> <Color>
0.100

> <Negative vol penalty>
0.000

$$$$

  -OEChem-04052303243D

 86 95  0     1  0  0  0  0  0999 V2000
  -26.1859  -32.9082   25.0921 C   0  0  0  0  0  0  0  0  0  0  0  0
  -25.5555  -31.7445   24.6635 C   0  0  0  0  0  0  0  0  0  0  0  0
  -24.6351   -8.8147   21.4650 C   0  0  0  0  0  0  0  0  0  0  0  0
  -22.9227  -10.5190   21.4452 C   0  0  0  0  0  0  0  0  0  0  0  0
  -27.1949  -33.4789   24.3175 C   0  0  0  0  0  0  0  0  0  0  0  0
  -25.9330  -31.1514   23.4593 C   0  0  0  0  0  0  0  0  0  0  0  0
  -26.4476  -26.1284   23.8451 C   0  0  0  0  0  0  0  0  0  0  0  0
  -23.8997   -8.0867   22.4002 C   0  0  0  0  0  0  0  0  0  0  0  0
  -22.1873   -9.7909   22.3804 C   0  0  0  0  0  0  0  0  0  0  0  0
  -25.2798  -25.3668   23.8457 C   0  0  0  0  0  0  0  0  0  0  0  0
  -21.2179   -6.0273   22.4033 C   0  0  0  0  0  0  0  0  0  0  0  0
  -21.0841   -4.6544   22.1960 C   0  0  0  0  0  0  0  0  0  0  0  0
  -25.9501  -20.6175   20.3377 C   0  0  0  0  0  0  0  0  0  0  0  0
  -26.8588  -19.5219   20.4024 C   0  0  0  0  0  0  0  0  0  0  0  0
  -25.6219  -24.8514   21.5140 C   0  0  0  0  0  0  0  0  0  0  0  0
  -22.1668   -4.2292   24.3136 C   0  0  0  0  0  0  0  0  0  0  0  0
  -24.1466  -10.0310   20.9875 C   0  0  0  0  0  0  0  0  0  0  0  0
  -24.8287  -10.6900   18.6193 C   0  0  0  0  0  0  0  0  0  0  0  0
  -27.5917  -32.8872   23.1079 C   0  0  0  0  0  0  0  0  0  0  0  0
  -27.2068  -26.2662   22.6741 C   0  0  0  0  0  0  0  0  0  0  0  0
  -26.9474  -31.7155   22.6670 C   0  0  0  0  0  0  0  0  0  0  0  0
  -26.8003  -25.6131   21.5019 C   0  0  0  0  0  0  0  0  0  0  0  0
  -22.6758   -8.5747   22.8579 C   0  0  0  0  0  0  0  0  0  0  0  0
  -24.8652  -24.7306   22.6793 C   0  0  0  0  0  0  0  0  0  0  0  0
  -21.8263   -6.5011   23.5656 C   0  0  0  0  0  0  0  0  0  0  0  0
  -21.5584   -3.7554   23.1512 C   0  0  0  0  0  0  0  0  0  0  0  0
  -22.3007   -5.6021   24.5208 C   0  0  0  0  0  0  0  0  0  0  0  0
  -24.9061  -10.7838   20.0218 C   0  0  0  0  0  0  0  0  0  0  0  0
  -24.6389  -20.1995   20.2784 C   0  0  0  0  0  0  0  0  0  0  0  0
  -25.7445  -11.6061   18.1628 C   0  0  0  0  0  0  0  0  0  0  0  0
  -26.2073  -18.3081   20.3903 C   0  0  0  0  0  0  0  0  0  0  0  0
  -24.0026   -9.8499   17.8022 C   0  0  0  0  0  0  0  0  0  0  0  0
  -23.4808  -21.1080   20.2040 C   0  0  0  0  0  0  0  0  0  0  0  0
  -28.0599  -28.7096   20.8286 C   0  0  0  0  0  0  0  0  0  0  0  0
  -29.8288  -26.4474   19.3200 C   0  0  0  0  0  0  0  0  0  0  0  0
  -30.2953  -23.1474   18.5857 C   0  0  0  0  0  0  0  0  0  0  0  0
  -28.0488  -16.5935   20.5126 C   0  0  0  0  0  0  0  0  0  0  0  0
  -28.6546  -33.5668   22.2816 C   0  0  0  0  0  0  0  0  0  0  0  0
  -28.4784  -27.0693   22.6968 C   0  0  0  0  0  0  0  0  0  0  0  0
  -27.5907  -25.7129   20.2236 C   0  0  0  0  0  0  0  0  0  0  0  0
  -29.2538  -32.6690   21.2021 C   0  0  0  0  0  0  0  0  0  0  0  0
  -29.8529  -13.7313   19.4032 C   0  0  0  0  0  0  0  0  0  0  0  0
  -28.1509  -31.9384   20.4427 C   0  0  0  0  0  0  0  0  0  0  0  0
  -28.7810  -12.6437   19.3025 C   0  0  0  0  0  0  0  0  0  0  0  0
  -21.3014  -22.3425   22.7994 C   0  0  0  0  0  0  0  0  0  0  0  0
  -29.6084  -14.6604   20.5910 C   0  0  0  0  0  0  0  0  0  0  0  0
  -21.7549  -22.4338   21.3488 C   0  0  0  0  0  0  0  0  0  0  0  0
  -27.1950  -14.1675   20.5474 C   0  0  0  0  0  0  0  0  0  0  0  0
  -23.3766  -21.1372   22.6626 C   0  0  0  0  0  0  0  0  0  0  0  0
  -27.3460  -31.0288   21.3788 C   0  0  1  0  0  0  0  0  0  0  0  0
  -28.8987  -27.5620   21.3155 C   0  0  1  0  0  0  0  0  0  0  0  0
  -27.3626  -13.2463   19.3279 C   0  0  2  0  0  0  0  0  0  0  0  0
  -22.5891  -22.0717   23.5877 C   0  0  1  0  0  0  0  0  0  0  0  0
  -31.8047  -21.6098   17.2993 C   0  0  0  0  0  0  0  0  0  0  0  0
  -28.4923  -27.3161   16.7183 C   0  0  0  0  0  0  0  0  0  0  0  0
  -29.2912  -25.1838   15.6774 C   0  0  0  0  0  0  0  0  0  0  0  0
  -30.9419  -26.8497   16.5276 C   0  0  0  0  0  0  0  0  0  0  0  0
  -31.1048  -21.7018   21.0380 C   0  0  0  0  0  0  0  0  0  0  0  0
  -21.4213  -22.1790   25.6179 C   0  0  0  0  0  0  0  0  0  0  0  0
  -23.3623  -23.3511   23.9017 C   0  0  0  0  0  0  0  0  0  1  0  0
  -29.5908  -25.4907   18.1768 C   0  0  1  0  0  0  0  0  0  0  0  0
  -31.5311  -22.2677   18.6429 C   0  0  2  0  0  0  0  0  0  0  0  0
  -29.5629  -26.2096   16.7984 C   0  0  0  0  0  0  0  0  0  0  0  0
  -25.8006  -11.6880   20.4295 N   0  0  0  0  0  0  0  0  0  0  0  0
  -26.2937  -12.1707   19.2762 N   0  0  0  0  0  0  0  0  0  0  0  0
  -22.9127  -21.5278   21.3199 N   0  0  0  0  0  0  0  0  0  0  0  0
  -28.8233  -26.5148   20.2948 N   0  0  0  0  0  0  0  0  0  0  0  0
  -28.2463  -15.1968   20.5465 N   0  0  0  0  0  0  0  0  0  0  0  0
  -26.1256  -11.9756   16.9216 N   0  0  0  0  0  0  0  0  0  0  0  0
  -23.1169   -8.9662   18.4338 N   0  0  0  0  0  0  0  0  0  0  0  0
  -26.7126  -16.9852   20.4385 N   0  0  0  0  0  0  0  0  0  0  0  0
  -28.0813  -29.8141   21.6587 N   0  0  0  0  0  0  0  0  0  0  0  0
  -30.6133  -24.4563   18.2906 N   0  0  0  0  0  0  0  0  0  0  0  0
  -23.0272  -21.4923   19.0145 N   0  3  0  0  0  0  0  0  0  0  0  0
  -31.3575  -21.1963   19.6641 N   0  3  0  0  0  0  0  0  0  0  0  0
  -24.0604   -9.8702   16.5493 O   0  0  0  0  0  0  0  0  0  0  0  0
  -27.4404  -28.6016   19.7768 O   0  0  0  0  0  0  0  0  0  0  0  0
  -30.8718  -27.1054   19.3508 O   0  0  0  0  0  0  0  0  0  0  0  0
  -29.1609  -22.7159   18.7796 O   0  0  0  0  0  0  0  0  0  0  0  0
  -28.9966  -17.3832   20.5194 O   0  0  0  0  0  0  0  0  0  0  0  0
  -21.9578   -7.8644   23.7703 O   0  0  0  0  0  0  0  0  0  0  0  0
  -23.7253  -23.9872   22.6770 O   0  0  0  0  0  0  0  0  0  1  0  0
  -22.2852  -21.4022   24.8032 O   0  0  0  0  0  0  0  0  0  0  0  0
  -21.4284   -2.4371   22.9527 F   0  0  0  0  0  0  0  0  0  0  0  0
  -22.8850   -6.0513   25.6400 F   0  0  0  0  0  0  0  0  0  0  0  0
  -24.5072  -18.4923   20.3010 S   0  0  0  0  0  0  0  0  0  0  0  0
  1  2  1  0  0  0  0
  1  5  2  0  0  0  0
  2  6  2  0  0  0  0
  3  8  2  0  0  0  0
  3 17  1  0  0  0  0
  4  9  1  0  0  0  0
  4 17  2  0  0  0  0
  5 19  1  0  0  0  0
  6 21  1  0  0  0  0
  7 10  2  0  0  0  0
  7 20  1  0  0  0  0
  8 23  1  0  0  0  0
  9 23  2  0  0  0  0
 10 24  1  0  0  0  0
 11 12  2  0  0  0  0
 11 25  1  0  0  0  0
 12 26  1  0  0  0  0
 13 14  1  0  0  0  0
 13 29  2  0  0  0  0
 14 31  2  0  0  0  0
 15 22  1  0  0  0  0
 15 24  2  0  0  0  0
 16 26  2  0  0  0  0
 16 27  1  0  0  0  0
 17 28  1  0  0  0  0
 18 28  1  0  0  0  0
 18 30  2  0  0  0  0
 18 32  1  0  0  0  0
 19 21  2  0  0  0  0
 19 38  1  0  0  0  0
 20 22  2  0  0  0  0
 20 39  1  0  0  0  0
 21 50  1  0  0  0  0
 22 40  1  0  0  0  0
 23 81  1  0  0  0  0
 24 82  1  0  0  0  0
 25 27  2  0  0  0  0
 25 81  1  0  0  0  0
 26 84  1  0  0  0  0
 27 85  1  0  0  0  0
 28 64  2  0  0  0  0
 29 33  1  0  0  0  0
 29 86  1  0  0  0  0
 30 65  1  0  0  0  0
 30 69  1  0  0  0  0
 31 71  1  0  0  0  0
 31 86  1  0  0  0  0
 32 70  1  0  0  0  0
 32 76  2  0  0  0  0
 33 66  1  0  0  0  0
 33 74  2  0  0  0  0
 34 51  1  0  0  0  0
 34 72  1  0  0  0  0
 34 77  2  0  0  0  0
 35 61  1  0  0  0  0
 35 67  1  0  0  0  0
 35 78  2  0  0  0  0
 36 62  1  0  0  0  0
 36 73  1  0  0  0  0
 36 79  2  0  0  0  0
 37 68  1  0  0  0  0
 37 71  1  0  0  0  0
 37 80  2  0  0  0  0
 38 41  1  0  0  0  0
 39 51  1  0  0  0  0
 40 67  1  0  0  0  0
 41 43  1  0  0  0  0
 42 44  1  0  0  0  0
 42 46  1  0  0  0  0
 43 50  1  0  0  0  0
 44 52  1  0  0  0  0
 45 47  1  0  0  0  0
 45 53  1  0  0  0  0
 46 68  1  0  0  0  0
 47 66  1  0  0  0  0
 48 52  1  0  0  0  0
 48 68  1  0  0  0  0
 49 53  1  0  0  0  0
 49 66  1  0  0  0  0
 50 72  1  0  0  0  0
 51 67  1  0  0  0  0
 52 65  1  0  0  0  0
 53 60  1  0  0  0  0
 53 83  1  0  0  0  0
 54 62  1  0  0  0  0
 55 63  1  0  0  0  0
 56 63  1  0  0  0  0
 57 63  1  0  0  0  0
 58 75  1  0  0  0  0
 59 83  1  0  0  0  0
 60 82  1  0  0  0  0
 61 63  1  0  0  0  0
 61 73  1  0  0  0  0
 62 75  1  0  0  0  0
 64 65  1  0  0  0  0
M  CHG  2  74   1  75   1
M  ISO  4  37 100  60 101  71 100  82 101
M  END
> <Batch ID>
0151

> <Smiles>
CNC(C)C(=O)NC(C(=O)N1Cc2cc([101O:1][101CH2:1]C3(OC)CCN(C(=N)c4ccc([100NH:0][100C:0](=O)N5CCCC(n6nc(-c7ccc(Oc8ccc(F)cc8F)cc7)c(C(N)=O)c6N)C5)s4)C3)ccc2CC1C(=O)NC1CCCc2ccccc21)C(C)(C)C

> <Shape>
0.240

> <Color>
0.068

> <Negative vol penalty>
0.000

$$$$

  -OEChem-04052303243D

 88 97  0     1  0  0  0  0  0999 V2000
  -22.1149  -23.8855   27.9609 C   0  0  0  0  0  0  0  0  0  0  0  0
  -22.6045  -23.5812   26.6947 C   0  0  0  0  0  0  0  0  0  0  0  0
  -23.0707   -9.8750   19.9398 C   0  0  0  0  0  0  0  0  0  0  0  0
  -23.8403   -9.8713   22.2299 C   0  0  0  0  0  0  0  0  0  0  0  0
  -20.7587  -24.1578   28.1356 C   0  0  0  0  0  0  0  0  0  0  0  0
  -21.7380  -23.5480   25.6027 C   0  0  0  0  0  0  0  0  0  0  0  0
  -23.6387  -25.9023   21.5421 C   0  0  0  0  0  0  0  0  0  0  0  0
  -22.3275   -8.7209   20.1877 C   0  0  0  0  0  0  0  0  0  0  0  0
  -23.0970   -8.7172   22.4779 C   0  0  0  0  0  0  0  0  0  0  0  0
  -24.5940  -25.2136   20.7958 C   0  0  0  0  0  0  0  0  0  0  0  0
  -19.8712   -7.9178   23.0905 C   0  0  0  0  0  0  0  0  0  0  0  0
  -19.1192   -7.8728   24.2644 C   0  0  0  0  0  0  0  0  0  0  0  0
  -22.8966  -24.6096   19.1917 C   0  0  0  0  0  0  0  0  0  0  0  0
  -31.5023  -18.4959   20.0139 C   0  0  0  0  0  0  0  0  0  0  0  0
  -20.3631   -5.9316   24.9867 C   0  0  0  0  0  0  0  0  0  0  0  0
  -23.8271  -10.4501   20.9609 C   0  0  0  0  0  0  0  0  0  0  0  0
  -24.1694  -12.9757   20.8509 C   0  0  0  0  0  0  0  0  0  0  0  0
  -19.8768  -24.1374   27.0436 C   0  0  0  0  0  0  0  0  0  0  0  0
  -22.3008  -25.9408   21.1237 C   0  0  0  0  0  0  0  0  0  0  0  0
  -20.3685  -23.8190   25.7633 C   0  0  0  0  0  0  0  0  0  0  0  0
  -21.9268  -25.3017   19.9330 C   0  0  0  0  0  0  0  0  0  0  0  0
  -30.9395  -19.5663   19.2604 C   0  0  0  0  0  0  0  0  0  0  0  0
  -22.3406   -8.1421   21.4567 C   0  0  0  0  0  0  0  0  0  0  0  0
  -24.2224  -24.5647   19.6219 C   0  0  0  0  0  0  0  0  0  0  0  0
  -20.8691   -6.9696   22.8646 C   0  0  0  0  0  0  0  0  0  0  0  0
  -19.3652   -6.8797   25.2125 C   0  0  0  0  0  0  0  0  0  0  0  0
  -21.1150   -5.9766   23.8128 C   0  0  0  0  0  0  0  0  0  0  0  0
  -24.5955  -11.6419   20.7053 C   0  0  0  0  0  0  0  0  0  0  0  0
  -30.6148  -17.9916   20.9389 C   0  0  0  0  0  0  0  0  0  0  0  0
  -25.2602  -13.7264   20.4864 C   0  0  0  0  0  0  0  0  0  0  0  0
  -29.6431  -19.8393   19.6382 C   0  0  0  0  0  0  0  0  0  0  0  0
  -25.8149  -22.8566   19.4911 C   0  0  0  0  0  0  0  0  0  1  0  0
  -22.9008  -13.4900   21.2776 C   0  0  0  0  0  0  0  0  0  0  0  0
  -26.7481  -22.1268   18.8680 C   0  0  0  0  0  0  0  0  0  0  0  0
  -27.4166  -21.0108   19.6136 C   0  0  0  0  0  0  0  0  0  0  0  0
  -19.5401  -24.9417   22.3419 C   0  0  0  0  0  0  0  0  0  0  0  0
  -18.2952  -26.4918   19.7787 C   0  0  0  0  0  0  0  0  0  0  0  0
  -18.7512  -27.6927   16.6170 C   0  0  0  0  0  0  0  0  0  0  0  0
  -30.7451  -14.7428   20.6561 C   0  0  0  0  0  0  0  0  0  0  0  0
  -18.4108  -24.3921   27.2896 C   0  0  0  0  0  0  0  0  0  0  0  0
  -21.2877  -26.7105   21.9259 C   0  0  0  0  0  0  0  0  0  0  0  0
  -20.5075  -25.3300   19.4298 C   0  0  0  0  0  0  0  0  0  0  0  0
  -17.6250  -24.7038   26.0185 C   0  0  0  0  0  0  0  0  0  0  0  0
  -33.3011  -21.5124   17.1278 C   0  0  0  0  0  0  0  0  0  0  0  0
  -32.1808  -21.2131   16.1524 C   0  0  0  0  0  0  0  0  0  0  0  0
  -29.5965  -12.3695   18.2634 C   0  0  0  0  0  0  0  0  0  0  0  0
  -17.9777  -23.7105   24.9158 C   0  0  0  0  0  0  0  0  0  0  0  0
  -28.1608  -12.0743   18.7011 C   0  0  0  0  0  0  0  0  0  0  0  0
  -33.0868  -20.4679   18.2173 C   0  0  0  0  0  0  0  0  0  0  0  0
  -31.0130  -20.8792   17.0736 C   0  0  0  0  0  0  0  0  0  0  0  0
  -30.5188  -12.5846   19.4613 C   0  0  0  0  0  0  0  0  0  0  0  0
  -28.6232  -13.3100   20.8593 C   0  0  0  0  0  0  0  0  0  0  0  0
  -19.4644  -23.7974   24.5499 C   0  0  1  0  0  0  0  0  0  0  0  0
  -19.8544  -26.2516   21.6763 C   0  0  1  0  0  0  0  0  0  0  0  0
  -27.6440  -13.1411   19.6850 C   0  0  2  0  0  0  0  0  0  0  0  0
  -17.5400  -28.8784   14.7664 C   0  0  0  0  0  0  0  0  0  0  0  0
  -16.8296  -23.9070   19.0851 C   0  0  0  0  0  0  0  0  0  0  0  0
  -16.4282  -24.8315   16.7933 C   0  0  0  0  0  0  0  0  0  0  0  0
  -15.4737  -25.9872   18.7873 C   0  0  0  0  0  0  0  0  0  0  0  0
  -20.6276  -29.9800   16.6975 C   0  0  0  0  0  0  0  0  0  0  0  0
  -30.8169  -16.8877   21.9024 C   0  0  0  0  0  0  0  0  0  0  0  0
  -17.9620  -26.1100   18.3567 C   0  0  1  0  0  0  0  0  0  0  0  0
  -18.4242  -29.0376   15.9934 C   0  0  2  0  0  0  0  0  0  0  0  0
  -16.6998  -25.2066   18.2658 C   0  0  0  0  0  0  0  0  0  0  0  0
  -25.8586  -11.5475   20.2812 N   0  0  0  0  0  0  0  0  0  0  0  0
  -26.2354  -12.8315   20.1571 N   0  0  0  0  0  0  0  0  0  0  0  0
  -31.6340  -20.2589   18.2503 N   0  0  0  0  0  0  0  0  0  0  0  0
  -19.5523  -26.0905   20.2526 N   0  0  0  0  0  0  0  0  0  0  0  0
  -29.9724  -13.6092   20.3543 N   0  0  0  0  0  0  0  0  0  0  0  0
  -25.4708  -15.0581   20.4186 N   0  0  0  0  0  0  0  0  0  0  0  0
  -21.8900  -12.5796   21.6150 N   0  0  0  0  0  0  0  0  0  0  0  0
  -28.7153  -20.8010   19.1706 N   0  0  0  0  0  0  0  0  0  0  0  0
  -19.7123  -24.9516   23.7129 N   0  0  0  0  0  0  0  0  0  0  0  0
  -17.8567  -27.3603   17.6123 N   0  0  0  0  0  0  0  0  0  0  0  0
  -30.1498  -15.6679   21.5049 N   0  0  0  0  0  0  0  0  0  0  0  0
  -19.6751  -29.7365   15.5838 N   0  3  0  0  0  0  0  0  0  0  0  0
  -22.6653  -14.7204   21.3415 O   0  0  0  0  0  0  0  0  0  0  0  0
  -26.8249  -20.4004   20.4974 O   0  0  0  0  0  0  0  0  0  0  0  0
  -19.1676  -23.9926   21.6620 O   0  0  0  0  0  0  0  0  0  0  0  0
  -17.4734  -27.1290   20.4422 O   0  0  0  0  0  0  0  0  0  0  0  0
  -19.7025  -27.0041   16.2546 O   0  0  0  0  0  0  0  0  0  0  0  0
  -31.8791  -14.9199   20.1984 O   0  0  0  0  0  0  0  0  0  0  0  0
  -27.1213  -22.3596   17.5599 O   0  0  0  0  0  0  0  0  0  0  0  0
  -21.6153   -7.0161   21.6990 O   0  0  0  0  0  0  0  0  0  0  0  0
  -25.1527  -23.8911   18.8920 O   0  0  0  0  0  0  0  0  0  1  0  0
  -18.6440   -6.8375   26.3405 F   0  0  0  0  0  0  0  0  0  0  0  0
  -22.0732   -5.0637   23.6019 F   0  0  0  0  0  0  0  0  0  0  0  0
  -29.1099  -18.8076   20.8966 S   0  0  0  0  0  0  0  0  0  0  0  0
  1  2  1  0  0  0  0
  1  5  2  0  0  0  0
  2  6  2  0  0  0  0
  3  8  2  0  0  0  0
  3 16  1  0  0  0  0
  4  9  1  0  0  0  0
  4 16  2  0  0  0  0
  5 18  1  0  0  0  0
  6 20  1  0  0  0  0
  7 10  2  0  0  0  0
  7 19  1  0  0  0  0
  8 23  1  0  0  0  0
  9 23  2  0  0  0  0
 10 24  1  0  0  0  0
 11 12  2  0  0  0  0
 11 25  1  0  0  0  0
 12 26  1  0  0  0  0
 13 21  1  0  0  0  0
 13 24  2  0  0  0  0
 14 22  1  0  0  0  0
 14 29  2  0  0  0  0
 15 26  2  0  0  0  0
 15 27  1  0  0  0  0
 16 28  1  0  0  0  0
 17 28  1  0  0  0  0
 17 30  2  0  0  0  0
 17 33  1  0  0  0  0
 18 20  2  0  0  0  0
 18 40  1  0  0  0  0
 19 21  2  0  0  0  0
 19 41  1  0  0  0  0
 20 53  1  0  0  0  0
 21 42  1  0  0  0  0
 22 31  2  0  0  0  0
 22 67  1  0  0  0  0
 23 84  1  0  0  0  0
 24 85  1  0  0  0  0
 25 27  2  0  0  0  0
 25 84  1  0  0  0  0
 26 86  1  0  0  0  0
 27 87  1  0  0  0  0
 28 65  2  0  0  0  0
 29 61  1  0  0  0  0
 29 88  1  0  0  0  0
 30 66  1  0  0  0  0
 30 70  1  0  0  0  0
 31 72  1  0  0  0  0
 31 88  1  0  0  0  0
 32 34  2  0  0  0  0
 32 85  1  0  0  0  0
 33 71  1  0  0  0  0
 33 77  2  0  0  0  0
 34 35  1  0  0  0  0
 34 83  1  0  0  0  0
 35 72  1  0  0  0  0
 35 78  2  0  0  0  0
 36 54  1  0  0  0  0
 36 73  1  0  0  0  0
 36 79  2  0  0  0  0
 37 62  1  0  0  0  0
 37 68  1  0  0  0  0
 37 80  2  0  0  0  0
 38 63  1  0  0  0  0
 38 74  1  0  0  0  0
 38 81  2  0  0  0  0
 39 69  1  0  0  0  0
 39 75  1  0  0  0  0
 39 82  2  0  0  0  0
 40 43  1  0  0  0  0
 41 54  1  0  0  0  0
 42 68  1  0  0  0  0
 43 47  1  0  0  0  0
 44 45  1  0  0  0  0
 44 49  1  0  0  0  0
 45 50  1  0  0  0  0
 46 48  1  0  0  0  0
 46 51  1  0  0  0  0
 47 53  1  0  0  0  0
 48 55  1  0  0  0  0
 49 67  1  0  0  0  0
 50 67  1  0  0  0  0
 51 69  1  0  0  0  0
 52 55  1  0  0  0  0
 52 69  1  0  0  0  0
 53 73  1  0  0  0  0
 54 68  1  0  0  0  0
 55 66  1  0  0  0  0
 56 63  1  0  0  0  0
 57 64  1  0  0  0  0
 58 64  1  0  0  0  0
 59 64  1  0  0  0  0
 60 76  1  0  0  0  0
 61 75  1  0  0  0  0
 62 64  1  0  0  0  0
 62 74  1  0  0  0  0
 63 76  1  0  0  0  0
 65 66  1  0  0  0  0
M  CHG  1  76   1
M  ISO  4  32 101  39 100  75 100  85 101
M  END
> <Batch ID>
0151

> <Smiles>
CNC(C)C(=O)NC(C(=O)N1Cc2cc([101O:1][101CH2:1]C(=O)C(=O)Nc3sc(C[100NH:0][100C:0](=O)N4CCCC(n5nc(-c6ccc(Oc7ccc(F)cc7F)cc6)c(C(N)=O)c5N)C4)cc3N3CCCC3)ccc2CC1C(=O)NC1CCCc2ccccc21)C(C)(C)C

> <Shape>
0.226

> <Color>
0.184

> <Negative vol penalty>
0.000

$$$$

  -OEChem-04052303243D

 84 93  0     1  0  0  0  0  0999 V2000
  -27.0697  -35.7778   24.5433 C   0  0  0  0  0  0  0  0  0  0  0  0
  -26.9004  -35.3808   23.2217 C   0  0  0  0  0  0  0  0  0  0  0  0
  -22.8068  -10.0775   22.3168 C   0  0  0  0  0  0  0  0  0  0  0  0
  -23.3322   -9.6307   20.0013 C   0  0  0  0  0  0  0  0  0  0  0  0
  -27.4186  -34.8373   25.5103 C   0  0  0  0  0  0  0  0  0  0  0  0
  -27.0682  -34.0413   22.8687 C   0  0  0  0  0  0  0  0  0  0  0  0
  -27.2893  -27.6283   18.0925 C   0  0  0  0  0  0  0  0  0  0  0  0
  -23.0143   -8.7326   22.6234 C   0  0  0  0  0  0  0  0  0  0  0  0
  -23.5397   -8.2858   20.3079 C   0  0  0  0  0  0  0  0  0  0  0  0
  -27.7529  -26.3174   17.9903 C   0  0  0  0  0  0  0  0  0  0  0  0
  -21.3197   -5.8224   22.3344 C   0  0  0  0  0  0  0  0  0  0  0  0
  -20.3827   -5.1933   23.1540 C   0  0  0  0  0  0  0  0  0  0  0  0
  -26.6951  -25.7860   20.0920 C   0  0  0  0  0  0  0  0  0  0  0  0
  -22.1151   -4.7173   24.7693 C   0  0  0  0  0  0  0  0  0  0  0  0
  -27.5114  -17.3670   23.6754 C   0  0  0  0  0  0  0  0  0  0  0  0
  -22.9658  -10.5265   21.0057 C   0  0  0  0  0  0  0  0  0  0  0  0
  -21.5649  -12.6536   20.8616 C   0  0  0  0  0  0  0  0  0  0  0  0
  -27.6028  -33.4881   25.1659 C   0  0  0  0  0  0  0  0  0  0  0  0
  -26.5325  -28.0318   19.2021 C   0  0  0  0  0  0  0  0  0  0  0  0
  -27.3969  -33.0729   23.8345 C   0  0  0  0  0  0  0  0  0  0  0  0
  -26.2192  -27.1012   20.2034 C   0  0  0  0  0  0  0  0  0  0  0  0
  -23.3807   -7.8368   21.6189 C   0  0  0  0  0  0  0  0  0  0  0  0
  -27.4577  -25.3966   18.9912 C   0  0  0  0  0  0  0  0  0  0  0  0
  -22.6545   -5.8989   22.7322 C   0  0  0  0  0  0  0  0  0  0  0  0
  -20.7804   -4.6408   24.3715 C   0  0  0  0  0  0  0  0  0  0  0  0
  -23.0522   -5.3464   23.9497 C   0  0  0  0  0  0  0  0  0  0  0  0
  -22.7511  -11.9155   20.6883 C   0  0  0  0  0  0  0  0  0  0  0  0
  -27.6013  -17.5930   22.3178 C   0  0  0  0  0  0  0  0  0  0  0  0
  -21.8759  -13.9137   20.4124 C   0  0  0  0  0  0  0  0  0  0  0  0
  -28.8314  -19.2702   23.0134 C   0  0  0  0  0  0  0  0  0  0  0  0
  -20.2954  -12.2373   21.3821 C   0  0  0  0  0  0  0  0  0  0  0  0
  -26.8233  -30.1934   21.5449 C   0  0  0  0  0  0  0  0  0  0  0  0
  -29.2788  -22.4372   19.8422 C   0  0  0  0  0  0  0  0  0  0  0  0
  -23.7531  -29.1098   22.2177 C   0  0  0  0  0  0  0  0  0  0  0  0
  -22.5903  -32.1658   23.1915 C   0  0  0  0  0  0  0  0  0  0  0  0
  -27.0119  -16.9338   19.9589 C   0  0  0  0  0  0  0  0  0  0  0  0
  -27.9724  -32.5109   26.2540 C   0  0  0  0  0  0  0  0  0  0  0  0
  -26.0163  -29.4432   19.2783 C   0  0  0  0  0  0  0  0  0  0  0  0
  -25.4076  -27.4835   21.4117 C   0  0  0  0  0  0  0  0  0  0  0  0
  -28.5590  -31.2116   25.7119 C   0  0  0  0  0  0  0  0  0  0  0  0
  -24.7414  -16.1858   17.3203 C   0  0  0  0  0  0  0  0  0  0  0  0
  -27.6676  -30.6587   24.6099 C   0  0  0  0  0  0  0  0  0  0  0  0
  -23.8615  -15.0773   17.9025 C   0  0  0  0  0  0  0  0  0  0  0  0
  -31.0282  -20.2619   22.2497 C   0  0  0  0  0  0  0  0  0  0  0  0
  -26.1921  -16.0597   17.7820 C   0  0  0  0  0  0  0  0  0  0  0  0
  -30.7234  -20.6694   20.8153 C   0  0  0  0  0  0  0  0  0  0  0  0
  -29.1404  -21.7375   22.2819 C   0  0  0  0  0  0  0  0  0  0  0  0
  -25.4953  -14.8611   19.8184 C   0  0  0  0  0  0  0  0  0  0  0  0
  -27.6040  -31.6268   23.4218 C   0  0  1  0  0  0  0  0  0  0  0  0
  -29.7100  -20.5082   23.0019 C   0  0  1  0  0  0  0  0  0  0  0  0
  -25.6287  -29.8757   20.6909 C   0  0  1  0  0  0  0  0  0  0  0  0
  -24.0119  -14.9839   19.4336 C   0  0  2  0  0  0  0  0  0  0  0  0
  -21.0619  -33.8415   24.2655 C   0  0  0  0  0  0  0  0  0  0  0  0
  -22.2115  -28.8389   19.5994 C   0  0  0  0  0  0  0  0  0  0  0  0
  -20.7260  -30.7040   20.3629 C   0  0  0  0  0  0  0  0  0  0  0  0
  -20.8207  -28.5760   21.6612 C   0  0  0  0  0  0  0  0  0  0  0  0
  -23.9680  -31.9240   25.7997 C   0  0  0  0  0  0  0  0  0  0  0  0
  -28.1745  -23.4266   20.1143 C   0  0  0  0  0  0  0  0  0  1  0  0
  -22.7864  -30.1640   21.7394 C   0  0  1  0  0  0  0  0  0  0  0  0
  -21.9639  -32.6381   24.4912 C   0  0  2  0  0  0  0  0  0  0  0  0
  -21.6643  -29.5744   20.8389 C   0  0  0  0  0  0  0  0  0  0  0  0
  -23.7417  -12.6458   20.1694 N   0  0  0  0  0  0  0  0  0  0  0  0
  -28.3574  -18.6841   21.9364 N   0  0  0  0  0  0  0  0  0  0  0  0
  -23.1786  -13.8560   20.0127 N   0  0  0  0  0  0  0  0  0  0  0  0
  -24.8575  -28.8452   21.3978 N   0  0  0  0  0  0  0  0  0  0  0  0
  -29.6764  -21.6723   20.9244 N   0  0  0  0  0  0  0  0  0  0  0  0
  -26.2570  -15.9807   19.2429 N   0  0  0  0  0  0  0  0  0  0  0  0
  -21.1594  -15.0544   20.3243 N   0  0  0  0  0  0  0  0  0  0  0  0
  -19.3420  -11.7281   20.4899 N   0  0  0  0  0  0  0  0  0  0  0  0
  -26.9729  -16.7776   21.3441 N   0  0  0  0  0  0  0  0  0  0  0  0
  -26.5923  -31.1703   22.4945 N   0  0  0  0  0  0  0  0  0  0  0  0
  -22.2983  -30.8429   22.9349 N   0  0  0  0  0  0  0  0  0  0  0  0
  -23.0227  -33.0208   25.4675 N   0  3  0  0  0  0  0  0  0  0  0  0
  -20.0090  -12.3299   22.5998 O   0  0  0  0  0  0  0  0  0  0  0  0
  -27.8763  -29.5953   21.3573 O   0  0  0  0  0  0  0  0  0  0  0  0
  -29.7648  -22.3400   18.7141 O   0  0  0  0  0  0  0  0  0  0  0  0
  -23.5333  -28.5299   23.2848 O   0  0  0  0  0  0  0  0  0  0  0  0
  -23.2677  -32.8983   22.4738 O   0  0  0  0  0  0  0  0  0  0  0  0
  -27.6242  -17.8393   19.3869 O   0  0  0  0  0  0  0  0  0  0  0  0
  -23.5835   -6.5245   21.9178 O   0  0  0  0  0  0  0  0  0  0  0  0
  -27.9084  -24.1163   18.8937 O   0  0  0  0  0  0  0  0  0  1  0  0
  -19.8801   -4.0380   25.1592 F   0  0  0  0  0  0  0  0  0  0  0  0
  -24.3329   -5.4179   24.3378 F   0  0  0  0  0  0  0  0  0  0  0  0
  -28.4077  -18.5619   24.5180 S   0  0  0  0  0  0  0  0  0  0  0  0
  1  2  1  0  0  0  0
  1  5  2  0  0  0  0
  2  6  2  0  0  0  0
  3  8  2  0  0  0  0
  3 16  1  0  0  0  0
  4  9  1  0  0  0  0
  4 16  2  0  0  0  0
  5 18  1  0  0  0  0
  6 20  1  0  0  0  0
  7 10  2  0  0  0  0
  7 19  1  0  0  0  0
  8 22  1  0  0  0  0
  9 22  2  0  0  0  0
 10 23  1  0  0  0  0
 11 12  2  0  0  0  0
 11 24  1  0  0  0  0
 12 25  1  0  0  0  0
 13 21  1  0  0  0  0
 13 23  2  0  0  0  0
 14 25  2  0  0  0  0
 14 26  1  0  0  0  0
 15 28  2  0  0  0  0
 15 84  1  0  0  0  0
 16 27  1  0  0  0  0
 17 27  1  0  0  0  0
 17 29  2  0  0  0  0
 17 31  1  0  0  0  0
 18 20  2  0  0  0  0
 18 37  1  0  0  0  0
 19 21  2  0  0  0  0
 19 38  1  0  0  0  0
 20 49  1  0  0  0  0
 21 39  1  0  0  0  0
 22 80  1  0  0  0  0
 23 81  1  0  0  0  0
 24 26  2  0  0  0  0
 24 80  1  0  0  0  0
 25 82  1  0  0  0  0
 26 83  1  0  0  0  0
 27 62  2  0  0  0  0
 28 63  1  0  0  0  0
 28 70  1  0  0  0  0
 29 64  1  0  0  0  0
 29 68  1  0  0  0  0
 30 50  1  0  0  0  0
 30 63  2  0  0  0  0
 30 84  1  0  0  0  0
 31 69  1  0  0  0  0
 31 74  2  0  0  0  0
 32 51  1  0  0  0  0
 32 71  1  0  0  0  0
 32 75  2  0  0  0  0
 33 58  1  0  0  0  0
 33 66  1  0  0  0  0
 33 76  2  0  0  0  0
 34 59  1  0  0  0  0
 34 65  1  0  0  0  0
 34 77  2  0  0  0  0
 35 60  1  0  0  0  0
 35 72  1  0  0  0  0
 35 78  2  0  0  0  0
 36 67  1  0  0  0  0
 36 70  1  0  0  0  0
 36 79  2  0  0  0  0
 37 40  1  0  0  0  0
 38 51  1  0  0  0  0
 39 65  1  0  0  0  0
 40 42  1  0  0  0  0
 41 43  1  0  0  0  0
 41 45  1  0  0  0  0
 42 49  1  0  0  0  0
 43 52  1  0  0  0  0
 44 46  1  0  0  0  0
 44 50  1  0  0  0  0
 45 67  1  0  0  0  0
 46 66  1  0  0  0  0
 47 50  1  0  0  0  0
 47 66  1  0  0  0  0
 48 52  1  0  0  0  0
 48 67  1  0  0  0  0
 49 71  1  0  0  0  0
 51 65  1  0  0  0  0
 52 64  1  0  0  0  0
 53 60  1  0  0  0  0
 54 61  1  0  0  0  0
 55 61  1  0  0  0  0
 56 61  1  0  0  0  0
 57 73  1  0  0  0  0
 58 81  1  0  0  0  0
 59 61  1  0  0  0  0
 59 72  1  0  0  0  0
 60 73  1  0  0  0  0
 62 64  1  0  0  0  0
M  CHG  1  73   1
M  ISO  4  36 100  58 101  70 100  81 101
M  END
> <Batch ID>
0151

> <Smiles>
CNC(C)C(=O)NC(C(=O)N1Cc2cc([101O:1][101CH2:1]C(=O)N3CCC(c4nc([100NH:0][100C:0](=O)N5CCCC(n6nc(-c7ccc(Oc8ccc(F)cc8F)cc7)c(C(N)=O)c6N)C5)cs4)C3)ccc2CC1C(=O)NC1CCCc2ccccc21)C(C)(C)C

> <Shape>
0.277

> <Color>
0.085

> <Negative vol penalty>
0.000

$$$$

  -OEChem-04052303243D

 86 95  0     1  0  0  0  0  0999 V2000
  -24.9022  -37.6002   21.5972 C   0  0  0  0  0  0  0  0  0  0  0  0
  -25.7598  -36.5692   21.2272 C   0  0  0  0  0  0  0  0  0  0  0  0
  -24.4702   -9.1383   21.5439 C   0  0  0  0  0  0  0  0  0  0  0  0
  -24.2578  -10.5446   23.4969 C   0  0  0  0  0  0  0  0  0  0  0  0
  -23.9130  -37.3734   22.5532 C   0  0  0  0  0  0  0  0  0  0  0  0
  -25.6294  -35.3109   21.8139 C   0  0  0  0  0  0  0  0  0  0  0  0
  -26.6063  -29.8858   19.1456 C   0  0  0  0  0  0  0  0  0  0  0  0
  -24.1938   -8.0148   22.3228 C   0  0  0  0  0  0  0  0  0  0  0  0
  -23.9813   -9.4210   24.2759 C   0  0  0  0  0  0  0  0  0  0  0  0
  -27.6968  -29.0173   19.1580 C   0  0  0  0  0  0  0  0  0  0  0  0
  -21.4718   -6.5182   23.6586 C   0  0  0  0  0  0  0  0  0  0  0  0
  -20.5660   -5.5859   23.1530 C   0  0  0  0  0  0  0  0  0  0  0  0
  -26.6622  -27.7533   20.9332 C   0  0  0  0  0  0  0  0  0  0  0  0
  -28.3533  -20.0336   19.5394 C   0  0  0  0  0  0  0  0  0  0  0  0
  -22.2790   -3.8835   23.2232 C   0  0  0  0  0  0  0  0  0  0  0  0
  -26.1127  -19.7106   20.0665 C   0  0  0  0  0  0  0  0  0  0  0  0
  -24.5023  -10.4033   22.1309 C   0  0  0  0  0  0  0  0  0  0  0  0
  -23.8619  -12.3741   20.6432 C   0  0  0  0  0  0  0  0  0  0  0  0
  -23.7642  -36.1091   23.1448 C   0  0  0  0  0  0  0  0  0  0  0  0
  -25.5388  -29.7008   20.0359 C   0  0  0  0  0  0  0  0  0  0  0  0
  -24.6381  -35.0673   22.7797 C   0  0  0  0  0  0  0  0  0  0  0  0
  -25.5582  -28.6195   20.9283 C   0  0  0  0  0  0  0  0  0  0  0  0
  -27.3490  -19.1130   19.9565 C   0  0  0  0  0  0  0  0  0  0  0  0
  -23.9493   -8.1561   23.6888 C   0  0  0  0  0  0  0  0  0  0  0  0
  -27.7262  -27.9525   20.0538 C   0  0  0  0  0  0  0  0  0  0  0  0
  -22.7813   -6.1333   23.9465 C   0  0  0  0  0  0  0  0  0  0  0  0
  -20.9695   -4.2685   22.9353 C   0  0  0  0  0  0  0  0  0  0  0  0
  -23.1848   -4.8160   23.7288 C   0  0  0  0  0  0  0  0  0  0  0  0
  -24.7884  -11.5642   21.3269 C   0  0  0  0  0  0  0  0  0  0  0  0
  -27.8462  -21.2999   19.3462 C   0  0  0  0  0  0  0  0  0  0  0  0
  -24.6303  -13.3364   20.0349 C   0  0  0  0  0  0  0  0  0  0  0  0
  -22.4343  -12.2663   20.5651 C   0  0  0  0  0  0  0  0  0  0  0  0
  -28.6490  -22.4566   18.9105 C   0  0  0  0  0  0  0  0  0  0  0  0
  -24.2553  -31.4134   22.3860 C   0  0  0  0  0  0  0  0  0  0  0  0
  -22.0471  -29.0372   22.3865 C   0  0  0  0  0  0  0  0  0  0  0  0
  -21.2786  -25.7961   21.6436 C   0  0  0  0  0  0  0  0  0  0  0  0
  -28.7791  -17.0481   20.1491 C   0  0  0  0  0  0  0  0  0  0  0  0
  -22.7106  -35.9246   24.2081 C   0  0  0  0  0  0  0  0  0  0  0  0
  -24.3575  -30.6309   19.9916 C   0  0  0  0  0  0  0  0  0  0  0  0
  -24.4279  -28.3652   21.8907 C   0  0  0  0  0  0  0  0  0  0  0  0
  -22.3978  -34.4609   24.5082 C   0  0  0  0  0  0  0  0  0  0  0  0
  -29.6481  -13.6655   19.4563 C   0  0  0  0  0  0  0  0  0  0  0  0
  -23.6870  -33.6614   24.6676 C   0  0  0  0  0  0  0  0  0  0  0  0
  -28.3850  -12.8839   19.8250 C   0  0  0  0  0  0  0  0  0  0  0  0
  -30.0285  -24.0253   21.8750 C   0  0  0  0  0  0  0  0  0  0  0  0
  -29.8866  -14.8384   20.4056 C   0  0  0  0  0  0  0  0  0  0  0  0
  -29.1073  -22.9750   21.2640 C   0  0  0  0  0  0  0  0  0  0  0  0
  -27.4836  -14.9689   20.9328 C   0  0  0  0  0  0  0  0  0  0  0  0
  -24.5122  -33.6819   23.3753 C   0  0  1  0  0  0  0  0  0  0  0  0
  -23.5624  -30.6492   21.2935 C   0  0  1  0  0  0  0  0  0  0  0  0
  -27.1661  -13.8166   19.9657 C   0  0  2  0  0  0  0  0  0  0  0  0
  -30.0085  -24.4436   19.4934 C   0  0  1  0  0  0  0  0  0  0  0  0
  -30.0325  -25.1854   20.8585 C   0  0  2  0  0  0  0  0  0  0  0  0
  -31.3655  -24.0092   18.9485 C   0  0  0  0  0  0  0  0  0  0  0  0
  -31.2468  -26.0948   21.0666 C   0  0  0  0  0  0  0  0  0  0  0  0
  -19.4072  -24.1311   21.7945 C   0  0  0  0  0  0  0  0  0  0  0  0
  -22.5789  -28.7138   25.3736 C   0  0  0  0  0  0  0  0  0  0  0  0
  -21.4394  -26.4871   25.2644 C   0  0  0  0  0  0  0  0  0  0  0  0
  -20.1693  -28.5641   24.7207 C   0  0  0  0  0  0  0  0  0  0  0  0
  -21.1871  -25.4585   18.7048 C   0  0  0  0  0  0  0  0  0  0  0  0
  -28.7540  -26.0340   21.0124 C   0  0  0  0  0  0  0  0  0  1  0  0
  -21.9046  -27.7103   23.0922 C   0  0  1  0  0  0  0  0  0  0  0  0
  -20.0879  -25.1813   20.9305 C   0  0  2  0  0  0  0  0  0  0  0  0
  -21.5454  -27.8745   24.5961 C   0  0  0  0  0  0  0  0  0  0  0  0
  -26.0490  -11.9760   21.1681 N   0  0  0  0  0  0  0  0  0  0  0  0
  -25.9201  -13.0552   20.3776 N   0  0  0  0  0  0  0  0  0  0  0  0
  -29.2280  -23.2242   19.8180 N   0  0  0  0  0  0  0  0  0  0  0  0
  -23.2981  -29.3060   21.8133 N   0  0  0  0  0  0  0  0  0  0  0  0
  -28.6911  -15.6806   20.4855 N   0  0  0  0  0  0  0  0  0  0  0  0
  -24.3217  -14.3872   19.2456 N   0  0  0  0  0  0  0  0  0  0  0  0
  -21.8050  -11.2181   21.2504 N   0  0  0  0  0  0  0  0  0  0  0  0
  -27.5717  -17.7409   20.2312 N   0  0  0  0  0  0  0  0  0  0  0  0
  -23.9562  -32.7623   22.4059 N   0  0  0  0  0  0  0  0  0  0  0  0
  -20.9294  -26.9427   22.3253 N   0  0  0  0  0  0  0  0  0  0  0  0
  -28.7799  -22.7088   17.6114 N   0  3  0  0  0  0  0  0  0  0  0  0
  -20.5222  -24.5350   19.6598 N   0  3  0  0  0  0  0  0  0  0  0  0
  -21.7389  -13.0657   19.8936 O   0  0  0  0  0  0  0  0  0  0  0  0
  -25.0045  -30.8226   23.1550 O   0  0  0  0  0  0  0  0  0  0  0  0
  -21.0818  -29.8037   22.3391 O   0  0  0  0  0  0  0  0  0  0  0  0
  -22.4050  -25.3061   21.6033 O   0  0  0  0  0  0  0  0  0  0  0  0
  -29.8414  -17.5602   19.7867 O   0  0  0  0  0  0  0  0  0  0  0  0
  -23.6792   -7.0600   24.4492 O   0  0  0  0  0  0  0  0  0  0  0  0
  -28.7897  -27.1036   20.0685 O   0  0  0  0  0  0  0  0  0  1  0  0
  -20.0991   -3.3729   22.4513 F   0  0  0  0  0  0  0  0  0  0  0  0
  -24.4412   -4.4400   24.0046 F   0  0  0  0  0  0  0  0  0  0  0  0
  -26.1659  -21.3751   19.6677 S   0  0  0  0  0  0  0  0  0  0  0  0
  1  2  1  0  0  0  0
  1  5  2  0  0  0  0
  2  6  2  0  0  0  0
  3  8  2  0  0  0  0
  3 17  1  0  0  0  0
  4  9  1  0  0  0  0
  4 17  2  0  0  0  0
  5 19  1  0  0  0  0
  6 21  1  0  0  0  0
  7 10  2  0  0  0  0
  7 20  1  0  0  0  0
  8 24  1  0  0  0  0
  9 24  2  0  0  0  0
 10 25  1  0  0  0  0
 11 12  2  0  0  0  0
 11 26  1  0  0  0  0
 12 27  1  0  0  0  0
 13 22  1  0  0  0  0
 13 25  2  0  0  0  0
 14 23  1  0  0  0  0
 14 30  2  0  0  0  0
 15 27  2  0  0  0  0
 15 28  1  0  0  0  0
 16 23  2  0  0  0  0
 16 86  1  0  0  0  0
 17 29  1  0  0  0  0
 18 29  1  0  0  0  0
 18 31  2  0  0  0  0
 18 32  1  0  0  0  0
 19 21  2  0  0  0  0
 19 38  1  0  0  0  0
 20 22  2  0  0  0  0
 20 39  1  0  0  0  0
 21 49  1  0  0  0  0
 22 40  1  0  0  0  0
 23 72  1  0  0  0  0
 24 82  1  0  0  0  0
 25 83  1  0  0  0  0
 26 28  2  0  0  0  0
 26 82  1  0  0  0  0
 27 84  1  0  0  0  0
 28 85  1  0  0  0  0
 29 65  2  0  0  0  0
 30 33  1  0  0  0  0
 30 86  1  0  0  0  0
 31 66  1  0  0  0  0
 31 70  1  0  0  0  0
 32 71  1  0  0  0  0
 32 77  2  0  0  0  0
 33 67  1  0  0  0  0
 33 75  2  0  0  0  0
 34 50  1  0  0  0  0
 34 73  1  0  0  0  0
 34 78  2  0  0  0  0
 35 62  1  0  0  0  0
 35 68  1  0  0  0  0
 35 79  2  0  0  0  0
 36 63  1  0  0  0  0
 36 74  1  0  0  0  0
 36 80  2  0  0  0  0
 37 69  1  0  0  0  0
 37 72  1  0  0  0  0
 37 81  2  0  0  0  0
 38 41  1  0  0  0  0
 39 50  1  0  0  0  0
 40 68  1  0  0  0  0
 41 43  1  0  0  0  0
 42 44  1  0  0  0  0
 42 46  1  0  0  0  0
 43 49  1  0  0  0  0
 44 51  1  0  0  0  0
 45 47  1  0  0  0  0
 45 53  1  0  0  0  0
 46 69  1  0  0  0  0
 47 67  1  0  0  0  0
 48 51  1  0  0  0  0
 48 69  1  0  0  0  0
 49 73  1  0  0  0  0
 50 68  1  0  0  0  0
 51 66  1  0  0  0  0
 52 53  1  0  0  0  0
 52 54  1  0  0  0  0
 52 67  1  0  0  0  0
 53 55  1  0  0  0  0
 53 61  1  0  0  0  0
 56 63  1  0  0  0  0
 57 64  1  0  0  0  0
 58 64  1  0  0  0  0
 59 64  1  0  0  0  0
 60 76  1  0  0  0  0
 61 83  1  0  0  0  0
 62 64  1  0  0  0  0
 62 74  1  0  0  0  0
 63 76  1  0  0  0  0
 65 66  1  0  0  0  0
M  CHG  2  75   1  76   1
M  ISO  4  37 100  61 101  72 100  83 101
M  END
> <Batch ID>
0151

> <Smiles>
CNC(C)C(=O)NC(C(=O)N1Cc2cc([101O:1][101CH2:1]C3(C)CCN(C(=N)c4cc([100NH:0][100C:0](=O)N5CCCC(n6nc(-c7ccc(Oc8ccc(F)cc8F)cc7)c(C(N)=O)c6N)C5)cs4)C3C)ccc2CC1C(=O)NC1CCCc2ccccc21)C(C)(C)C

> <Shape>
0.346

> <Color>
0.105

> <Negative vol penalty>
0.000

$$$$

  -OEChem-04052303243D

 85 94  0     1  0  0  0  0  0999 V2000
  -27.0123  -37.4307   23.0497 C   0  0  0  0  0  0  0  0  0  0  0  0
  -27.6280  -36.2554   22.6313 C   0  0  0  0  0  0  0  0  0  0  0  0
  -24.2658  -10.6345   23.5618 C   0  0  0  0  0  0  0  0  0  0  0  0
  -23.3610  -12.8446   23.1961 C   0  0  0  0  0  0  0  0  0  0  0  0
  -25.8165  -37.3736   23.7643 C   0  0  0  0  0  0  0  0  0  0  0  0
  -27.0488  -35.0223   22.9283 C   0  0  0  0  0  0  0  0  0  0  0  0
  -27.1182  -29.9874   19.4425 C   0  0  0  0  0  0  0  0  0  0  0  0
  -27.6683  -19.9774   19.4053 C   0  0  0  0  0  0  0  0  0  0  0  0
  -27.5903  -18.5897   19.2887 C   0  0  0  0  0  0  0  0  0  0  0  0
  -23.6564  -10.5924   24.8157 C   0  0  0  0  0  0  0  0  0  0  0  0
  -22.7515  -12.8026   24.4501 C   0  0  0  0  0  0  0  0  0  0  0  0
  -27.9133  -28.8423   19.4643 C   0  0  0  0  0  0  0  0  0  0  0  0
  -20.5665  -10.0241   26.0658 C   0  0  0  0  0  0  0  0  0  0  0  0
  -19.8943   -8.8547   26.4210 C   0  0  0  0  0  0  0  0  0  0  0  0
  -26.2262  -27.7028   20.7584 C   0  0  0  0  0  0  0  0  0  0  0  0
  -29.9990  -18.4443   19.4059 C   0  0  0  0  0  0  0  0  0  0  0  0
  -21.3657   -8.5852   28.3183 C   0  0  0  0  0  0  0  0  0  0  0  0
  -24.1182  -11.7606   22.7519 C   0  0  0  0  0  0  0  0  0  0  0  0
  -24.2020  -11.3788   20.2311 C   0  0  0  0  0  0  0  0  0  0  0  0
  -25.2173  -36.1395   24.0619 C   0  0  0  0  0  0  0  0  0  0  0  0
  -25.8738  -30.0022   20.0888 C   0  0  0  0  0  0  0  0  0  0  0  0
  -25.8445  -34.9486   23.6487 C   0  0  0  0  0  0  0  0  0  0  0  0
  -25.4161  -28.8485   20.7411 C   0  0  0  0  0  0  0  0  0  0  0  0
  -28.9118  -20.5987   19.5220 C   0  0  0  0  0  0  0  0  0  0  0  0
  -28.7556  -17.8231   19.2891 C   0  0  0  0  0  0  0  0  0  0  0  0
  -22.8992  -11.6765   25.2599 C   0  0  0  0  0  0  0  0  0  0  0  0
  -27.4686  -27.7007   20.1247 C   0  0  0  0  0  0  0  0  0  0  0  0
  -21.6384  -10.4741   26.8368 C   0  0  0  0  0  0  0  0  0  0  0  0
  -20.2939   -8.1352   27.5472 C   0  0  0  0  0  0  0  0  0  0  0  0
  -30.0771  -19.8321   19.5224 C   0  0  0  0  0  0  0  0  0  0  0  0
  -22.0379   -9.7546   27.9631 C   0  0  0  0  0  0  0  0  0  0  0  0
  -24.7479  -11.8048   21.4567 C   0  0  0  0  0  0  0  0  0  0  0  0
  -25.1887  -11.6311   19.3095 C   0  0  0  0  0  0  0  0  0  0  0  0
  -22.9178  -10.8062   19.9506 C   0  0  0  0  0  0  0  0  0  0  0  0
  -24.6101  -31.6664   22.4841 C   0  0  0  0  0  0  0  0  0  0  0  0
  -21.9093  -30.0755   21.6492 C   0  0  0  0  0  0  0  0  0  0  0  0
  -20.4956  -27.3471   20.1646 C   0  0  0  0  0  0  0  0  0  0  0  0
  -29.7348  -15.5059   19.1540 C   0  0  0  0  0  0  0  0  0  0  0  0
  -23.9489  -36.1263   24.8778 C   0  0  0  0  0  0  0  0  0  0  0  0
  -25.0163  -31.2368   20.0334 C   0  0  0  0  0  0  0  0  0  0  0  0
  -24.0790  -28.8063   21.4331 C   0  0  0  0  0  0  0  0  0  0  0  0
  -23.2059  -34.7937   24.8271 C   0  0  0  0  0  0  0  0  0  0  0  0
  -29.9502  -11.9599   18.9164 C   0  0  0  0  0  0  0  0  0  0  0  0
  -24.1744  -33.6342   25.0376 C   0  0  0  0  0  0  0  0  0  0  0  0
  -28.5887  -11.4792   19.4236 C   0  0  0  0  0  0  0  0  0  0  0  0
  -29.7989  -24.1263   20.1345 C   0  0  0  0  0  0  0  0  0  0  0  0
  -30.4423  -13.1841   19.6864 C   0  0  0  0  0  0  0  0  0  0  0  0
  -30.2383  -22.7106   19.7622 C   0  0  0  0  0  0  0  0  0  0  0  0
  -28.1314  -13.8221   20.2536 C   0  0  0  0  0  0  0  0  0  0  0  0
  -27.8203  -22.8547   19.6748 C   0  0  0  0  0  0  0  0  0  0  0  0
  -25.2342  -33.5926   23.9301 C   0  0  1  0  0  0  0  0  0  0  0  0
  -23.9930  -31.3047   21.1628 C   0  0  1  0  0  0  0  0  0  0  0  0
  -27.5644  -12.6302   19.4652 C   0  0  2  0  0  0  0  0  0  0  0  0
  -28.4089  -24.2695   19.4977 C   0  0  2  0  0  0  0  0  0  0  0  0
  -28.5199  -24.6334   18.0074 C   0  0  0  0  0  0  0  0  0  0  0  0
  -18.2658  -26.3070   19.6711 C   0  0  0  0  0  0  0  0  0  0  0  0
  -21.6815  -29.1887   24.5598 C   0  0  0  0  0  0  0  0  0  0  0  0
  -20.0488  -27.4383   23.8260 C   0  0  0  0  0  0  0  0  0  0  0  0
  -19.5163  -29.8534   23.4993 C   0  0  0  0  0  0  0  0  0  0  0  0
  -20.9536  -27.4724   17.2434 C   0  0  0  0  0  0  0  0  0  0  0  0
  -27.5683  -25.3264   20.2162 C   0  0  0  0  0  0  0  0  0  1  0  0
  -21.2750  -28.7643   22.0457 C   0  0  1  0  0  0  0  0  0  0  0  0
  -19.3677  -27.2201   19.1565 C   0  0  2  0  0  0  0  0  0  0  0  0
  -20.6565  -28.8123   23.4714 C   0  0  0  0  0  0  0  0  0  0  0  0
  -25.9854  -12.2908   21.3289 N   0  0  0  0  0  0  0  0  0  0  0  0
  -26.2254  -12.1716   20.0119 N   0  0  0  0  0  0  0  0  0  0  0  0
  -28.9859  -21.9712   19.6356 N   0  0  3  0  0  0  0  0  0  0  0  0
  -23.2799  -30.0405   21.3562 N   0  0  0  0  0  0  0  0  0  0  0  0
  -29.4219  -14.2346   19.6798 N   0  0  0  0  0  0  0  0  0  0  0  0
  -25.2621  -11.4411   17.9750 N   0  0  0  0  0  0  0  0  0  0  0  0
  -22.0247  -10.6156   21.0137 N   0  0  0  0  0  0  0  0  0  0  0  0
  -28.6761  -16.4133   19.1707 N   0  0  0  0  0  0  0  0  0  0  0  0
  -24.6786  -33.0262   22.7198 N   0  0  0  0  0  0  0  0  0  0  0  0
  -20.3214  -28.4368   20.9914 N   0  0  0  0  0  0  0  0  0  0  0  0
  -19.8802  -26.6613   17.8735 N   0  3  0  0  0  0  0  0  0  0  0  0
  -22.5788  -10.4582   18.7941 O   0  0  0  0  0  0  0  0  0  0  0  0
  -24.9943  -30.7774   23.2350 O   0  0  0  0  0  0  0  0  0  0  0  0
  -21.2126  -31.0921   21.5943 O   0  0  0  0  0  0  0  0  0  0  0  0
  -21.4352  -26.5565   20.2160 O   0  0  0  0  0  0  0  0  0  0  0  0
  -30.8513  -15.7618   18.6958 O   0  0  0  0  0  0  0  0  0  0  0  0
  -22.3042  -11.6357   26.4833 O   0  0  0  0  0  0  0  0  0  0  0  0
  -28.2430  -26.5820   20.1481 O   0  0  0  0  0  0  0  0  0  1  0  0
  -19.6473   -7.0131   27.8891 F   0  0  0  0  0  0  0  0  0  0  0  0
  -31.2773  -20.4193   19.6326 F   0  0  0  0  0  0  0  0  0  0  0  0
  -23.0661  -10.1826   28.7083 F   0  0  0  0  0  0  0  0  0  0  0  0
  1  2  1  0  0  0  0
  1  5  2  0  0  0  0
  2  6  2  0  0  0  0
  3 10  2  0  0  0  0
  3 18  1  0  0  0  0
  4 11  1  0  0  0  0
  4 18  2  0  0  0  0
  5 20  1  0  0  0  0
  6 22  1  0  0  0  0
  7 12  2  0  0  0  0
  7 21  1  0  0  0  0
  8  9  2  0  0  0  0
  8 24  1  0  0  0  0
  9 25  1  0  0  0  0
 10 26  1  0  0  0  0
 11 26  2  0  0  0  0
 12 27  1  0  0  0  0
 13 14  2  0  0  0  0
 13 28  1  0  0  0  0
 14 29  1  0  0  0  0
 15 23  1  0  0  0  0
 15 27  2  0  0  0  0
 16 25  2  0  0  0  0
 16 30  1  0  0  0  0
 17 29  2  0  0  0  0
 17 31  1  0  0  0  0
 18 32  1  0  0  0  0
 19 32  1  0  0  0  0
 19 33  2  0  0  0  0
 19 34  1  0  0  0  0
 20 22  2  0  0  0  0
 20 39  1  0  0  0  0
 21 23  2  0  0  0  0
 21 40  1  0  0  0  0
 22 51  1  0  0  0  0
 23 41  1  0  0  0  0
 24 30  2  0  0  0  0
 24 67  1  0  0  0  0
 25 72  1  0  0  0  0
 26 81  1  0  0  0  0
 27 82  1  0  0  0  0
 28 31  2  0  0  0  0
 28 81  1  0  0  0  0
 29 83  1  0  0  0  0
 30 84  1  0  0  0  0
 31 85  1  0  0  0  0
 32 65  2  0  0  0  0
 33 66  1  0  0  0  0
 33 70  1  0  0  0  0
 34 71  1  0  0  0  0
 34 76  2  0  0  0  0
 35 52  1  0  0  0  0
 35 73  1  0  0  0  0
 35 77  2  0  0  0  0
 36 62  1  0  0  0  0
 36 68  1  0  0  0  0
 36 78  2  0  0  0  0
 37 63  1  0  0  0  0
 37 74  1  0  0  0  0
 37 79  2  0  0  0  0
 38 69  1  0  0  0  0
 38 72  1  0  0  0  0
 38 80  2  0  0  0  0
 39 42  1  0  0  0  0
 40 52  1  0  0  0  0
 41 68  1  0  0  0  0
 42 44  1  0  0  0  0
 43 45  1  0  0  0  0
 43 47  1  0  0  0  0
 44 51  1  0  0  0  0
 45 53  1  0  0  0  0
 46 48  1  0  0  0  0
 46 54  1  0  0  0  0
 47 69  1  0  0  0  0
 48 67  1  0  0  0  0
 49 53  1  0  0  0  0
 49 69  1  0  0  0  0
 50 54  1  0  0  0  0
 50 67  1  0  0  0  0
 51 73  1  0  0  0  0
 52 68  1  0  0  0  0
 53 66  1  0  0  0  0
 54 55  1  0  0  0  0
 54 61  1  0  0  0  0
 56 63  1  0  0  0  0
 57 64  1  0  0  0  0
 58 64  1  0  0  0  0
 59 64  1  0  0  0  0
 60 75  1  0  0  0  0
 61 82  1  0  0  0  0
 62 64  1  0  0  0  0
 62 74  1  0  0  0  0
 63 75  1  0  0  0  0
 65 66  1  0  0  0  0
M  CHG  1  75   1
M  ISO  4  38 100  61 101  72 100  82 101
M  END
> <Batch ID>
0151

> <Smiles>
CNC(C)C(=O)NC(C(=O)N1Cc2cc([101O:1][101CH2:1]C3(C)CCN(c4ccc([100NH:0][100C:0](=O)N5CCCC(n6nc(-c7ccc(Oc8ccc(F)cc8F)cc7)c(C(N)=O)c6N)C5)cc4F)C3)ccc2CC1C(=O)NC1CCCc2ccccc21)C(C)(C)C

> <Shape>
0.317

> <Color>
0.085

> <Negative vol penalty>
0.000

$$$$

  -OEChem-04052303243D

 83 92  0     1  0  0  0  0  0999 V2000
  -26.2714  -24.1650   14.8527 C   0  0  0  0  0  0  0  0  0  0  0  0
  -26.3754  -23.7548   16.1780 C   0  0  0  0  0  0  0  0  0  0  0  0
  -23.1113   -9.7324   20.2409 C   0  0  0  0  0  0  0  0  0  0  0  0
  -23.8202  -10.0494   22.5287 C   0  0  0  0  0  0  0  0  0  0  0  0
  -27.3009  -24.9025   14.2696 C   0  0  0  0  0  0  0  0  0  0  0  0
  -27.5096  -24.0811   16.9207 C   0  0  0  0  0  0  0  0  0  0  0  0
  -26.3765  -25.7478   21.5664 C   0  0  0  0  0  0  0  0  0  0  0  0
  -22.3799   -8.6079   20.6233 C   0  0  0  0  0  0  0  0  0  0  0  0
  -23.0888   -8.9250   22.9112 C   0  0  0  0  0  0  0  0  0  0  0  0
  -26.0358  -24.7903   22.5209 C   0  0  0  0  0  0  0  0  0  0  0  0
  -19.4129   -7.9524   22.1067 C   0  0  0  0  0  0  0  0  0  0  0  0
  -18.1179   -7.8202   21.6057 C   0  0  0  0  0  0  0  0  0  0  0  0
  -28.2690  -24.9063   23.4256 C   0  0  0  0  0  0  0  0  0  0  0  0
  -18.7365   -5.7330   20.5577 C   0  0  0  0  0  0  0  0  0  0  0  0
  -31.7647  -18.9192   21.5886 C   0  0  0  0  0  0  0  0  0  0  0  0
  -23.8315  -10.4531   21.1936 C   0  0  0  0  0  0  0  0  0  0  0  0
  -24.1370  -12.9474   20.7542 C   0  0  0  0  0  0  0  0  0  0  0  0
  -28.4440  -25.2463   15.0084 C   0  0  0  0  0  0  0  0  0  0  0  0
  -27.6713  -26.2846   21.5274 C   0  0  0  0  0  0  0  0  0  0  0  0
  -28.5560  -24.8229   16.3465 C   0  0  0  0  0  0  0  0  0  0  0  0
  -28.6228  -25.8723   22.4713 C   0  0  0  0  0  0  0  0  0  0  0  0
  -22.3686   -8.2043   21.9585 C   0  0  0  0  0  0  0  0  0  0  0  0
  -26.9830  -24.3673   23.4488 C   0  0  0  0  0  0  0  0  0  0  0  0
  -20.3698   -6.9749   21.8332 C   0  0  0  0  0  0  0  0  0  0  0  0
  -17.7797   -6.7105   20.8312 C   0  0  0  0  0  0  0  0  0  0  0  0
  -20.0315   -5.8652   21.0588 C   0  0  0  0  0  0  0  0  0  0  0  0
  -24.5877  -11.6144   20.7990 C   0  0  0  0  0  0  0  0  0  0  0  0
  -30.5793  -19.2096   22.2030 C   0  0  0  0  0  0  0  0  0  0  0  0
  -25.2253  -13.6632   20.3186 C   0  0  0  0  0  0  0  0  0  0  0  0
  -30.4657  -17.1324   21.4463 C   0  0  0  0  0  0  0  0  0  0  0  0
  -22.8498  -13.4899   21.0774 C   0  0  0  0  0  0  0  0  0  0  0  0
  -30.0279  -26.3049   19.3944 C   0  0  0  0  0  0  0  0  0  0  0  0
  -31.4250  -28.3015   21.5355 C   0  0  0  0  0  0  0  0  0  0  0  0
  -31.6607  -29.3811   24.7644 C   0  0  0  0  0  0  0  0  0  0  0  0
  -30.6697  -14.8211   20.4652 C   0  0  0  0  0  0  0  0  0  0  0  0
  -29.5518  -26.0045   14.3209 C   0  0  0  0  0  0  0  0  0  0  0  0
  -28.0152  -27.3362   20.5085 C   0  0  0  0  0  0  0  0  0  0  0  0
  -30.0208  -26.4326   22.4847 C   0  0  0  0  0  0  0  0  0  0  0  0
  -30.5534  -26.6299   15.2883 C   0  0  0  0  0  0  0  0  0  0  0  0
  -29.6448  -12.1021   18.4076 C   0  0  0  0  0  0  0  0  0  0  0  0
  -30.9660  -25.6212   16.3556 C   0  0  0  0  0  0  0  0  0  0  0  0
  -28.2007  -11.8424   18.8426 C   0  0  0  0  0  0  0  0  0  0  0  0
  -30.5296  -12.5005   19.5874 C   0  0  0  0  0  0  0  0  0  0  0  0
  -28.5819  -13.3627   20.8252 C   0  0  0  0  0  0  0  0  0  0  0  0
  -29.5614  -20.3825   24.2885 C   0  0  0  0  0  0  0  0  0  0  0  0
  -28.7968  -21.0820   22.4836 C   0  0  0  0  0  0  0  0  0  0  0  0
  -29.7595  -25.1785   17.1921 C   0  0  1  0  0  0  0  0  0  0  0  0
  -30.1922  -20.5332   22.8798 C   0  0  0  0  0  0  0  0  0  0  0  0
  -29.5129  -27.4377   20.2366 C   0  0  1  0  0  0  0  0  0  0  0  0
  -27.6380  -13.0213   19.6606 C   0  0  2  0  0  0  0  0  0  0  0  0
  -32.9186  -30.9976   26.2141 C   0  0  0  0  0  0  0  0  0  0  0  0
  -24.7921  -21.9005   24.3476 C   0  0  0  0  0  0  0  0  0  0  0  0
  -33.8517  -26.4525   21.4874 C   0  0  0  0  0  0  0  0  0  0  0  0
  -34.6426  -27.5502   23.5940 C   0  0  0  0  0  0  0  0  0  0  0  0
  -34.3996  -28.8925   21.5055 C   0  0  0  0  0  0  0  0  0  0  0  0
  -29.1857  -30.8287   25.4978 C   0  0  0  0  0  0  0  0  0  0  0  0
  -27.2210  -21.0977   24.3571 C   0  0  0  0  0  0  0  0  0  0  0  0
  -32.3273  -28.1233   22.7326 C   0  0  1  0  0  0  0  0  0  0  0  0
  -31.6792  -30.7768   25.3610 C   0  0  2  0  0  0  0  0  0  0  0  0
  -26.2251  -22.1588   23.9005 C   0  0  2  0  0  0  0  0  0  1  0  0
  -33.7796  -27.7425   22.3287 C   0  0  0  0  0  0  0  0  0  0  0  0
  -25.8628  -11.4882   20.4219 N   0  0  0  0  0  0  0  0  0  0  0  0
  -29.7945  -18.0865   22.0996 N   0  0  0  0  0  0  0  0  0  0  0  0
  -26.2226  -12.7511   20.1359 N   0  0  0  0  0  0  0  0  0  0  0  0
  -31.6665  -17.6276   21.1301 N   0  3  0  0  0  0  0  0  0  0  0  0
  -30.3105  -27.4538   21.4645 N   0  0  0  0  0  0  0  0  0  0  0  0
  -29.9358  -13.6257   20.3127 N   0  0  0  0  0  0  0  0  0  0  0  0
  -25.4168  -14.9777   20.0779 N   0  0  0  0  0  0  0  0  0  0  0  0
  -21.8448  -12.6138   21.5094 N   0  0  0  0  0  0  0  0  0  0  0  0
  -29.9904  -15.8322   21.1439 N   0  0  0  0  0  0  0  0  0  0  0  0
  -29.4149  -26.1972   18.1607 N   0  0  0  0  0  0  0  0  0  0  0  0
  -32.2261  -29.3555   23.5070 N   0  0  0  0  0  0  0  0  0  0  0  0
  -28.5951  -21.4248   23.9019 N   0  3  0  0  0  0  0  0  0  0  0  0
  -30.4767  -30.9912   26.2148 N   0  3  0  0  0  0  0  0  0  0  0  0
  -22.5935  -14.7131   20.9700 O   0  0  0  0  0  0  0  0  0  0  0  0
  -30.9167  -25.5830   19.8310 O   0  0  0  0  0  0  0  0  0  0  0  0
  -31.6951  -29.1659   20.6980 O   0  0  0  0  0  0  0  0  0  0  0  0
  -31.1948  -28.4098   25.3562 O   0  0  0  0  0  0  0  0  0  0  0  0
  -31.8061  -14.9484   20.0022 O   0  0  0  0  0  0  0  0  0  0  0  0
  -21.6548   -7.1072   22.3321 O   0  0  0  0  0  0  0  0  0  0  0  0
  -26.6533  -23.4324   24.3811 O   0  0  0  0  0  0  0  0  0  1  0  0
  -16.5356   -6.5829   20.3514 F   0  0  0  0  0  0  0  0  0  0  0  0
  -20.9461   -4.9223   20.7937 F   0  0  0  0  0  0  0  0  0  0  0  0
  1  2  1  0  0  0  0
  1  5  2  0  0  0  0
  2  6  2  0  0  0  0
  3  8  2  0  0  0  0
  3 16  1  0  0  0  0
  4  9  1  0  0  0  0
  4 16  2  0  0  0  0
  5 18  1  0  0  0  0
  6 20  1  0  0  0  0
  7 10  2  0  0  0  0
  7 19  1  0  0  0  0
  8 22  1  0  0  0  0
  9 22  2  0  0  0  0
 10 23  1  0  0  0  0
 11 12  2  0  0  0  0
 11 24  1  0  0  0  0
 12 25  1  0  0  0  0
 13 21  1  0  0  0  0
 13 23  2  0  0  0  0
 14 25  2  0  0  0  0
 14 26  1  0  0  0  0
 15 28  2  0  0  0  0
 15 65  1  0  0  0  0
 16 27  1  0  0  0  0
 17 27  1  0  0  0  0
 17 29  2  0  0  0  0
 17 31  1  0  0  0  0
 18 20  2  0  0  0  0
 18 36  1  0  0  0  0
 19 21  2  0  0  0  0
 19 37  1  0  0  0  0
 20 47  1  0  0  0  0
 21 38  1  0  0  0  0
 22 80  1  0  0  0  0
 23 81  1  0  0  0  0
 24 26  2  0  0  0  0
 24 80  1  0  0  0  0
 25 82  1  0  0  0  0
 26 83  1  0  0  0  0
 27 62  2  0  0  0  0
 28 48  1  0  0  0  0
 28 63  1  0  0  0  0
 29 64  1  0  0  0  0
 29 68  1  0  0  0  0
 30 63  1  0  0  0  0
 30 65  2  0  0  0  0
 30 70  1  0  0  0  0
 31 69  1  0  0  0  0
 31 75  2  0  0  0  0
 32 49  1  0  0  0  0
 32 71  1  0  0  0  0
 32 76  2  0  0  0  0
 33 58  1  0  0  0  0
 33 66  1  0  0  0  0
 33 77  2  0  0  0  0
 34 59  1  0  0  0  0
 34 72  1  0  0  0  0
 34 78  2  0  0  0  0
 35 67  1  0  0  0  0
 35 70  1  0  0  0  0
 35 79  2  0  0  0  0
 36 39  1  0  0  0  0
 37 49  1  0  0  0  0
 38 66  1  0  0  0  0
 39 41  1  0  0  0  0
 40 42  1  0  0  0  0
 40 43  1  0  0  0  0
 41 47  1  0  0  0  0
 42 50  1  0  0  0  0
 43 67  1  0  0  0  0
 44 50  1  0  0  0  0
 44 67  1  0  0  0  0
 45 48  1  0  0  0  0
 45 73  1  0  0  0  0
 46 48  1  0  0  0  0
 46 73  1  0  0  0  0
 47 71  1  0  0  0  0
 49 66  1  0  0  0  0
 50 64  1  0  0  0  0
 51 59  1  0  0  0  0
 52 60  1  0  0  0  0
 53 61  1  0  0  0  0
 54 61  1  0  0  0  0
 55 61  1  0  0  0  0
 56 74  1  0  0  0  0
 57 60  1  0  0  0  0
 57 73  1  0  0  0  0
 58 61  1  0  0  0  0
 58 72  1  0  0  0  0
 59 74  1  0  0  0  0
 60 81  1  0  0  0  0
 62 64  1  0  0  0  0
M  CHG  3  65   1  73   1  74   1
M  ISO  4  35 100  60 101  70 100  81 101
M  END
> <Batch ID>
0151

> <Smiles>
CNC(C)C(=O)NC(C(=O)N1Cc2cc([101O:1][101CH:1](C)CN3CC(c4c[nH]c([100NH:0][100C:0](=O)N5CCCC(n6nc(-c7ccc(Oc8ccc(F)cc8F)cc7)c(C(N)=O)c6N)C5)n4)C3)ccc2CC1C(=O)NC1CCCc2ccccc21)C(C)(C)C

> <Shape>
0.214

> <Color>
0.180

> <Negative vol penalty>
0.000

$$$$

  -OEChem-04052303243D

 82 90  0     1  0  0  0  0  0999 V2000
  -22.9990  -20.2188   21.9952 C   0  0  0  0  0  0  0  0  0  0  0  0
  -23.8555  -21.1063   21.3517 C   0  0  0  0  0  0  0  0  0  0  0  0
  -26.2127  -12.7681   21.6704 C   0  0  0  0  0  0  0  0  0  0  0  0
  -25.7997  -13.6075   19.4429 C   0  0  0  0  0  0  0  0  0  0  0  0
  -21.7046  -20.6171   22.3264 C   0  0  0  0  0  0  0  0  0  0  0  0
  -23.4177  -22.3926   21.0381 C   0  0  0  0  0  0  0  0  0  0  0  0
  -26.8454  -25.9427   22.1748 C   0  0  0  0  0  0  0  0  0  0  0  0
  -25.0237  -12.0408   21.6168 C   0  0  0  0  0  0  0  0  0  0  0  0
  -24.6107  -12.8802   19.3892 C   0  0  0  0  0  0  0  0  0  0  0  0
  -27.9151  -26.1000   21.2945 C   0  0  0  0  0  0  0  0  0  0  0  0
  -23.9316   -9.1502   20.2441 C   0  0  0  0  0  0  0  0  0  0  0  0
  -23.9603   -7.8275   20.6859 C   0  0  0  0  0  0  0  0  0  0  0  0
  -28.4362  -22.8065   16.6234 C   0  0  0  0  0  0  0  0  0  0  0  0
  -28.2570  -21.5104   17.1630 C   0  0  0  0  0  0  0  0  0  0  0  0
  -26.8138  -28.0052   20.3063 C   0  0  0  0  0  0  0  0  0  0  0  0
  -22.3067   -8.3531   22.3671 C   0  0  0  0  0  0  0  0  0  0  0  0
  -26.6007  -13.5515   20.5834 C   0  0  0  0  0  0  0  0  0  0  0  0
  -29.1078  -13.8728   20.2386 C   0  0  0  0  0  0  0  0  0  0  0  0
  -21.2539  -21.9121   22.0253 C   0  0  0  0  0  0  0  0  0  0  0  0
  -25.7451  -26.8103   22.1201 C   0  0  0  0  0  0  0  0  0  0  0  0
  -22.1156  -22.8082   21.3644 C   0  0  0  0  0  0  0  0  0  0  0  0
  -25.7327  -27.8584   21.1887 C   0  0  0  0  0  0  0  0  0  0  0  0
  -24.2227  -12.0968   20.4762 C   0  0  0  0  0  0  0  0  0  0  0  0
  -27.8981  -27.1296   20.3582 C   0  0  0  0  0  0  0  0  0  0  0  0
  -23.0905  -10.0744   20.8638 C   0  0  0  0  0  0  0  0  0  0  0  0
  -23.1479   -7.4289   21.7473 C   0  0  0  0  0  0  0  0  0  0  0  0
  -22.2780   -9.6758   21.9253 C   0  0  0  0  0  0  0  0  0  0  0  0
  -27.8285  -14.3035   20.6384 C   0  0  0  0  0  0  0  0  0  0  0  0
  -29.9260  -14.9468   20.4907 C   0  0  0  0  0  0  0  0  0  0  0  0
  -28.8580  -23.5991   17.6655 C   0  0  0  0  0  0  0  0  0  0  0  0
  -28.5823  -21.6033   18.4963 C   0  0  0  0  0  0  0  0  0  0  0  0
  -29.5197  -12.6144   19.6885 C   0  0  0  0  0  0  0  0  0  0  0  0
  -22.6408  -26.4618   21.5324 C   0  0  0  0  0  0  0  0  0  0  0  0
  -22.5312  -29.5988   22.3507 C   0  0  0  0  0  0  0  0  0  0  0  0
  -29.1663  -25.8976   16.6841 C   0  0  0  0  0  0  0  0  0  0  0  0
  -24.1743  -32.5756   22.6437 C   0  0  0  0  0  0  0  0  0  0  0  0
  -28.9422  -20.8286   20.8662 C   0  0  0  0  0  0  0  0  0  0  0  0
  -19.8306  -22.2816   22.3607 C   0  0  0  0  0  0  0  0  0  0  0  0
  -24.6114  -26.6436   23.0944 C   0  0  0  0  0  0  0  0  0  0  0  0
  -24.5843  -28.8291   21.1026 C   0  0  0  0  0  0  0  0  0  0  0  0
  -19.5681  -23.7850   22.3292 C   0  0  0  0  0  0  0  0  0  0  0  0
  -30.3428  -18.7388   23.3857 C   0  0  0  0  0  0  0  0  0  0  0  0
  -20.1637  -24.4047   21.0691 C   0  0  0  0  0  0  0  0  0  0  0  0
  -29.9787  -17.3247   22.9276 C   0  0  0  0  0  0  0  0  0  0  0  0
  -29.2285  -19.7383   23.0808 C   0  0  0  0  0  0  0  0  0  0  0  0
  -28.4081  -18.3386   21.2269 C   0  0  0  0  0  0  0  0  0  0  0  0
  -21.6855  -24.2200   21.0298 C   0  0  1  0  0  0  0  0  0  0  0  0
  -23.3085  -27.2709   22.6081 C   0  0  1  0  0  0  0  0  0  0  0  0
  -29.5266  -17.3086   21.4541 C   0  0  2  0  0  0  0  0  0  0  0  0
  -23.8112  -34.9694   23.3035 C   0  0  0  0  0  0  0  0  0  0  0  0
  -21.1125  -30.1122   19.6986 C   0  0  0  0  0  0  0  0  0  0  0  0
  -21.6268  -32.5468   19.9747 C   0  0  0  0  0  0  0  0  0  0  0  0
  -20.1826  -31.3821   21.6421 C   0  0  0  0  0  0  0  0  0  0  0  0
  -26.1529  -32.3923   24.8369 C   0  0  0  0  0  0  0  0  0  0  0  0
  -28.6480  -27.8430   18.2170 C   0  0  0  0  0  0  0  0  0  1  0  0
  -22.6649  -30.9038   21.6037 C   0  0  1  0  0  0  0  0  0  0  0  0
  -29.5960  -27.2789   17.1639 C   0  0  2  0  0  0  0  0  0  0  0  0
  -24.2334  -33.5864   23.7747 C   0  0  2  0  0  0  0  0  0  0  0  0
  -21.4176  -31.2169   20.7299 C   0  0  0  0  0  0  0  0  0  0  0  0
  -27.8290  -15.5536   21.1088 N   0  0  0  0  0  0  0  0  0  0  0  0
  -29.1186  -15.9175   21.0064 N   0  0  0  0  0  0  0  0  0  0  0  0
  -23.4966  -28.6207   22.0725 N   0  0  0  0  0  0  0  0  0  0  0  0
  -28.8553  -19.6697   21.6663 N   0  0  0  0  0  0  0  0  0  0  0  0
  -31.2502  -15.1460   20.3195 N   0  0  0  0  0  0  0  0  0  0  0  0
  -28.5505  -11.6207   19.4946 N   0  0  0  0  0  0  0  0  0  0  0  0
  -29.1899  -24.9735   17.7243 N   0  0  0  0  0  0  0  0  0  0  0  0
  -28.5928  -20.6345   19.5303 N   0  0  0  0  0  0  0  0  0  0  0  0
  -22.3327  -25.1688   21.9103 N   0  0  0  0  0  0  0  0  0  0  0  0
  -22.9617  -31.9201   22.6074 N   0  0  0  0  0  0  0  0  0  0  0  0
  -29.6634  -28.2305   16.0173 N   0  3  0  0  0  0  0  0  0  0  0  0
  -25.6188  -33.6771   24.3164 N   0  3  0  0  0  0  0  0  0  0  0  0
  -30.7146  -12.3724   19.3935 O   0  0  0  0  0  0  0  0  0  0  0  0
  -22.4200  -26.9732   20.4409 O   0  0  0  0  0  0  0  0  0  0  0  0
  -21.6086  -29.4552   23.1568 O   0  0  0  0  0  0  0  0  0  0  0  0
  -28.8507  -25.6931   15.5156 O   0  0  0  0  0  0  0  0  0  0  0  0
  -25.1087  -32.3890   21.8675 O   0  0  0  0  0  0  0  0  0  0  0  0
  -29.3263  -21.9072   21.3258 O   0  0  0  0  0  0  0  0  0  0  0  0
  -28.9497  -22.8732   18.8106 O   0  0  0  0  0  0  0  0  0  0  0  0
  -23.0625  -11.3870   20.4235 O   0  0  0  0  0  0  0  0  0  0  0  0
  -28.9406  -27.2850   19.4973 O   0  0  0  0  0  0  0  0  0  1  0  0
  -23.1744   -6.1583   22.1705 F   0  0  0  0  0  0  0  0  0  0  0  0
  -21.4670  -10.5589   22.5238 F   0  0  0  0  0  0  0  0  0  0  0  0
  1  2  1  0  0  0  0
  1  5  2  0  0  0  0
  2  6  2  0  0  0  0
  3  8  2  0  0  0  0
  3 17  1  0  0  0  0
  4  9  1  0  0  0  0
  4 17  2  0  0  0  0
  5 19  1  0  0  0  0
  6 21  1  0  0  0  0
  7 10  2  0  0  0  0
  7 20  1  0  0  0  0
  8 23  1  0  0  0  0
  9 23  2  0  0  0  0
 10 24  1  0  0  0  0
 11 12  2  0  0  0  0
 11 25  1  0  0  0  0
 12 26  1  0  0  0  0
 13 14  1  0  0  0  0
 13 30  2  0  0  0  0
 14 31  2  0  0  0  0
 15 22  1  0  0  0  0
 15 24  2  0  0  0  0
 16 26  2  0  0  0  0
 16 27  1  0  0  0  0
 17 28  1  0  0  0  0
 18 28  1  0  0  0  0
 18 29  2  0  0  0  0
 18 32  1  0  0  0  0
 19 21  2  0  0  0  0
 19 38  1  0  0  0  0
 20 22  2  0  0  0  0
 20 39  1  0  0  0  0
 21 47  1  0  0  0  0
 22 40  1  0  0  0  0
 23 79  1  0  0  0  0
 24 80  1  0  0  0  0
 25 27  2  0  0  0  0
 25 79  1  0  0  0  0
 26 81  1  0  0  0  0
 27 82  1  0  0  0  0
 28 60  2  0  0  0  0
 29 61  1  0  0  0  0
 29 64  1  0  0  0  0
 30 66  1  0  0  0  0
 30 78  1  0  0  0  0
 31 67  1  0  0  0  0
 31 78  1  0  0  0  0
 32 65  1  0  0  0  0
 32 72  2  0  0  0  0
 33 48  1  0  0  0  0
 33 68  1  0  0  0  0
 33 73  2  0  0  0  0
 34 56  1  0  0  0  0
 34 62  1  0  0  0  0
 34 74  2  0  0  0  0
 35 57  1  0  0  0  0
 35 66  1  0  0  0  0
 35 75  2  0  0  0  0
 36 58  1  0  0  0  0
 36 69  1  0  0  0  0
 36 76  2  0  0  0  0
 37 63  1  0  0  0  0
 37 67  1  0  0  0  0
 37 77  2  0  0  0  0
 38 41  1  0  0  0  0
 39 48  1  0  0  0  0
 40 62  1  0  0  0  0
 41 43  1  0  0  0  0
 42 44  1  0  0  0  0
 42 45  1  0  0  0  0
 43 47  1  0  0  0  0
 44 49  1  0  0  0  0
 45 63  1  0  0  0  0
 46 49  1  0  0  0  0
 46 63  1  0  0  0  0
 47 68  1  0  0  0  0
 48 62  1  0  0  0  0
 49 61  1  0  0  0  0
 50 58  1  0  0  0  0
 51 59  1  0  0  0  0
 52 59  1  0  0  0  0
 53 59  1  0  0  0  0
 54 71  1  0  0  0  0
 55 57  1  0  0  0  0
 55 80  1  0  0  0  0
 56 59  1  0  0  0  0
 56 69  1  0  0  0  0
 57 70  1  0  0  0  0
 58 71  1  0  0  0  0
 60 61  1  0  0  0  0
M  CHG  2  70   1  71   1
M  ISO  4  37 100  55 101  67 100  80 101
M  END
> <Batch ID>
0151

> <Smiles>
CNC(C)C(=O)NC(C(=O)N1Cc2cc([101O:1][101CH2:1]C(N)C(=O)Nc3ccc([100NH:0][100C:0](=O)N4CCCC(n5nc(-c6ccc(Oc7ccc(F)cc7F)cc6)c(C(N)=O)c5N)C4)o3)ccc2CC1C(=O)NC1CCCc2ccccc21)C(C)(C)C

> <Shape>
0.272

> <Color>
0.087

> <Negative vol penalty>
0.000

$$$$

  -OEChem-04052303243D

 81 90  0     1  0  0  0  0  0999 V2000
  -24.5745   -7.5615   25.8698 C   0  0  0  0  0  0  0  0  0  0  0  0
  -25.5713   -8.5104   25.6660 C   0  0  0  0  0  0  0  0  0  0  0  0
  -24.0186  -31.0346   22.1731 C   0  0  0  0  0  0  0  0  0  0  0  0
  -24.0114  -29.0484   23.5486 C   0  0  0  0  0  0  0  0  0  0  0  0
  -23.7099   -7.2258   24.8288 C   0  0  0  0  0  0  0  0  0  0  0  0
  -25.7046   -9.1235   24.4207 C   0  0  0  0  0  0  0  0  0  0  0  0
  -27.4263  -14.8977   23.3254 C   0  0  0  0  0  0  0  0  0  0  0  0
  -22.6265  -31.0872   22.2418 C   0  0  0  0  0  0  0  0  0  0  0  0
  -22.6192  -29.1010   23.6173 C   0  0  0  0  0  0  0  0  0  0  0  0
  -28.6501  -15.4590   22.9635 C   0  0  0  0  0  0  0  0  0  0  0  0
  -19.9952  -28.2892   21.6460 C   0  0  0  0  0  0  0  0  0  0  0  0
  -19.2916  -27.0998   21.4567 C   0  0  0  0  0  0  0  0  0  0  0  0
  -27.9800  -15.4114   20.6466 C   0  0  0  0  0  0  0  0  0  0  0  0
  -18.3369  -27.3130   23.6658 C   0  0  0  0  0  0  0  0  0  0  0  0
  -24.7111  -30.0151   22.8265 C   0  0  0  0  0  0  0  0  0  0  0  0
  -27.0676  -30.5649   23.6342 C   0  0  0  0  0  0  0  0  0  0  0  0
  -23.8266   -7.8421   23.5729 C   0  0  0  0  0  0  0  0  0  0  0  0
  -26.4728  -14.5785   22.3479 C   0  0  0  0  0  0  0  0  0  0  0  0
  -24.8416   -8.7948   23.3616 C   0  0  0  0  0  0  0  0  0  0  0  0
  -26.7438  -14.8485   20.9989 C   0  0  0  0  0  0  0  0  0  0  0  0
  -21.9268  -30.1204   22.9639 C   0  0  0  0  0  0  0  0  0  0  0  0
  -28.9283  -15.7133   21.6237 C   0  0  0  0  0  0  0  0  0  0  0  0
  -19.8697  -28.9905   22.8452 C   0  0  0  0  0  0  0  0  0  0  0  0
  -18.4624  -26.6117   22.4666 C   0  0  0  0  0  0  0  0  0  0  0  0
  -19.0405  -28.5024   23.8551 C   0  0  0  0  0  0  0  0  0  0  0  0
  -26.1492  -29.9599   22.7554 C   0  0  0  0  0  0  0  0  0  0  0  0
  -28.2995  -30.2154   23.1375 C   0  0  0  0  0  0  0  0  0  0  0  0
  -29.2026  -20.9169   20.9190 C   0  0  0  0  0  0  0  0  0  0  0  0
  -29.8855  -18.6964   21.3310 C   0  0  0  0  0  0  0  0  0  0  0  0
  -26.8285  -31.3707   24.7958 C   0  0  0  0  0  0  0  0  0  0  0  0
  -25.0775  -11.8962   21.3670 C   0  0  0  0  0  0  0  0  0  0  0  0
  -23.3250  -13.9327   19.5494 C   0  0  0  0  0  0  0  0  0  0  0  0
  -23.0854  -16.9712   18.0143 C   0  0  0  0  0  0  0  0  0  0  0  0
  -30.1526  -25.6442   19.7508 C   0  0  0  0  0  0  0  0  0  0  0  0
  -22.8988   -7.4122   22.4643 C   0  0  0  0  0  0  0  0  0  0  0  0
  -25.1468  -13.9982   22.7572 C   0  0  0  0  0  0  0  0  0  0  0  0
  -25.7458  -14.5430   19.9130 C   0  0  0  0  0  0  0  0  0  0  0  0
  -22.8689   -8.3809   21.2850 C   0  0  0  0  0  0  0  0  0  0  0  0
  -30.5347  -29.0919   19.0800 C   0  0  0  0  0  0  0  0  0  0  0  0
  -24.2861   -8.7780   20.8843 C   0  0  0  0  0  0  0  0  0  0  0  0
  -29.5201  -29.7685   19.9977 C   0  0  0  0  0  0  0  0  0  0  0  0
  -27.7496  -22.8898   20.0553 C   0  0  0  0  0  0  0  0  0  0  0  0
  -29.9797  -27.7846   18.5306 C   0  0  0  0  0  0  0  0  0  0  0  0
  -27.9369  -24.4008   20.0806 C   0  0  0  0  0  0  0  0  0  0  0  0
  -30.0111  -23.3328   20.6277 C   0  0  0  0  0  0  0  0  0  0  0  0
  -28.5712  -27.4685   20.5472 C   0  0  0  0  0  0  0  0  0  0  0  0
  -25.0023   -9.4998   22.0322 C   0  0  1  0  0  0  0  0  0  0  0  0
  -28.8581  -22.3879   20.9948 C   0  0  2  0  0  0  0  0  0  0  0  0
  -24.4542  -13.2377   21.6306 C   0  0  1  0  0  0  0  0  0  0  0  0
  -29.0769  -28.8109   21.1146 C   0  0  2  0  0  0  0  0  0  0  0  0
  -21.5496  -18.3334   16.5709 C   0  0  0  0  0  0  0  0  0  0  0  0
  -24.1135  -12.2517   17.1281 C   0  0  0  0  0  0  0  0  0  0  0  0
  -23.3765  -14.1431   15.6625 C   0  0  0  0  0  0  0  0  0  0  0  0
  -21.7275  -13.0010   17.1455 C   0  0  0  0  0  0  0  0  0  0  0  0
  -22.8483  -19.0909   20.0660 C   0  0  0  0  0  0  0  0  0  0  0  0
  -23.4668  -14.5247   18.1680 C   0  0  1  0  0  0  0  0  0  0  0  0
  -21.9736  -18.0046   17.9939 C   0  0  2  0  0  0  0  0  0  0  0  0
  -23.1909  -13.4842   17.0461 C   0  0  0  0  0  0  0  0  0  0  0  0
  -26.7466  -29.2779   21.7746 N   0  0  0  0  0  0  0  0  0  0  0  0
  -29.0624  -20.1578   19.8531 N   0  0  0  0  0  0  0  0  0  0  0  0
  -29.4620  -18.8551   20.0951 N   0  0  0  0  0  0  0  0  0  0  0  0
  -28.0536  -29.4523   22.0341 N   0  0  0  0  0  0  0  0  0  0  0  0
  -24.4662  -13.9706   20.3630 N   0  0  0  0  0  0  0  0  0  0  0  0
  -29.5342  -26.8904   19.6009 N   0  0  0  0  0  0  0  0  0  0  0  0
  -29.3794  -24.5853   20.2250 N   0  0  0  0  0  0  0  0  0  0  0  0
  -29.5581  -30.4895   23.5412 N   0  0  0  0  0  0  0  0  0  0  0  0
  -25.5023  -31.6327   25.1658 N   0  0  0  0  0  0  0  0  0  0  0  0
  -30.3399  -17.5297   21.8561 N   0  0  0  0  0  0  0  0  0  1  0  0
  -24.5491  -10.8709   22.1279 N   0  0  0  0  0  0  0  0  0  0  0  0
  -22.5896  -15.6899   18.1312 N   0  0  0  0  0  0  0  0  0  0  0  0
  -22.4241  -19.2632   18.6528 N   0  3  0  0  0  0  0  0  0  0  0  0
  -27.7633  -31.8580   25.4757 O   0  0  0  0  0  0  0  0  0  0  0  0
  -25.9707  -11.7983   20.5337 O   0  0  0  0  0  0  0  0  0  0  0  0
  -22.2395  -13.4605   19.8965 O   0  0  0  0  0  0  0  0  0  0  0  0
  -24.2745  -17.2704   17.9307 O   0  0  0  0  0  0  0  0  0  0  0  0
  -31.3378  -25.4726   19.4348 O   0  0  0  0  0  0  0  0  0  0  0  0
  -20.5683  -30.1716   23.0313 O   0  0  0  0  0  0  0  0  0  0  0  0
  -30.1359  -16.2667   21.2635 O   0  0  0  0  0  0  0  0  0  1  0  0
  -17.7856  -25.4703   22.2841 F   0  0  0  0  0  0  0  0  0  0  0  0
  -18.9151  -29.1724   25.0089 F   0  0  0  0  0  0  0  0  0  0  0  0
  -29.8319  -20.1125   22.2969 S   0  0  0  0  0  0  0  0  0  0  0  0
  1  2  1  0  0  0  0
  1  5  2  0  0  0  0
  2  6  2  0  0  0  0
  3  8  2  0  0  0  0
  3 15  1  0  0  0  0
  4  9  1  0  0  0  0
  4 15  2  0  0  0  0
  5 17  1  0  0  0  0
  6 19  1  0  0  0  0
  7 10  2  0  0  0  0
  7 18  1  0  0  0  0
  8 21  1  0  0  0  0
  9 21  2  0  0  0  0
 10 22  1  0  0  0  0
 11 12  2  0  0  0  0
 11 23  1  0  0  0  0
 12 24  1  0  0  0  0
 13 20  1  0  0  0  0
 13 22  2  0  0  0  0
 14 24  2  0  0  0  0
 14 25  1  0  0  0  0
 15 26  1  0  0  0  0
 16 26  1  0  0  0  0
 16 27  2  0  0  0  0
 16 30  1  0  0  0  0
 17 19  2  0  0  0  0
 17 35  1  0  0  0  0
 18 20  2  0  0  0  0
 18 36  1  0  0  0  0
 19 47  1  0  0  0  0
 20 37  1  0  0  0  0
 21 77  1  0  0  0  0
 22 78  1  0  0  0  0
 23 25  2  0  0  0  0
 23 77  1  0  0  0  0
 24 79  1  0  0  0  0
 25 80  1  0  0  0  0
 26 59  2  0  0  0  0
 27 62  1  0  0  0  0
 27 66  1  0  0  0  0
 28 48  1  0  0  0  0
 28 60  2  0  0  0  0
 28 81  1  0  0  0  0
 29 61  2  0  0  0  0
 29 68  1  0  0  0  0
 29 81  1  0  0  0  0
 30 67  1  0  0  0  0
 30 72  2  0  0  0  0
 31 49  1  0  0  0  0
 31 69  1  0  0  0  0
 31 73  2  0  0  0  0
 32 56  1  0  0  0  0
 32 63  1  0  0  0  0
 32 74  2  0  0  0  0
 33 57  1  0  0  0  0
 33 70  1  0  0  0  0
 33 75  2  0  0  0  0
 34 64  1  0  0  0  0
 34 65  1  0  0  0  0
 34 76  2  0  0  0  0
 35 38  1  0  0  0  0
 36 49  1  0  0  0  0
 37 63  1  0  0  0  0
 38 40  1  0  0  0  0
 39 41  1  0  0  0  0
 39 43  1  0  0  0  0
 40 47  1  0  0  0  0
 41 50  1  0  0  0  0
 42 44  1  0  0  0  0
 42 48  1  0  0  0  0
 43 64  1  0  0  0  0
 44 65  1  0  0  0  0
 45 48  1  0  0  0  0
 45 65  1  0  0  0  0
 46 50  1  0  0  0  0
 46 64  1  0  0  0  0
 47 69  1  0  0  0  0
 49 63  1  0  0  0  0
 50 62  1  0  0  0  0
 51 57  1  0  0  0  0
 52 58  1  0  0  0  0
 53 58  1  0  0  0  0
 54 58  1  0  0  0  0
 55 71  1  0  0  0  0
 56 58  1  0  0  0  0
 56 70  1  0  0  0  0
 57 71  1  0  0  0  0
 59 62  1  0  0  0  0
 60 61  1  0  0  0  0
 68 78  1  0  0  0  0
M  CHG  1  71   1
M  ISO  4  34 100  65 100  68 101  78 101
M  END
> <Batch ID>
0151

> <Smiles>
CNC(C)C(=O)NC(C(=O)N1Cc2cc([101O:1][101NH:1]c3nnc(C4CC[100N:0]([100C:0](=O)N5CCCC(n6nc(-c7ccc(Oc8ccc(F)cc8F)cc7)c(C(N)=O)c6N)C5)C4)s3)ccc2CC1C(=O)NC1CCCc2ccccc21)C(C)(C)C

> <Shape>
0.298

> <Color>
0.076

> <Negative vol penalty>
0.000

$$$$

  -OEChem-04052303243D

 84 93  0     1  0  0  0  0  0999 V2000
  -31.6049  -19.2925   20.6727 C   0  0  0  0  0  0  0  0  0  0  0  0
  -30.4805  -19.2958   21.4904 C   0  0  0  0  0  0  0  0  0  0  0  0
  -29.6913  -27.9445   21.7123 C   0  0  0  0  0  0  0  0  0  0  0  0
  -28.0008  -27.4097   20.0712 C   0  0  0  0  0  0  0  0  0  0  0  0
  -31.5978  -18.5605   19.4872 C   0  0  0  0  0  0  0  0  0  0  0  0
  -29.3529  -18.5577   21.1288 C   0  0  0  0  0  0  0  0  0  0  0  0
  -18.4428  -25.3570   21.1202 C   0  0  0  0  0  0  0  0  0  0  0  0
  -25.7035  -18.2966   24.4177 C   0  0  0  0  0  0  0  0  0  0  0  0
  -19.0106  -24.1062   21.3700 C   0  0  0  0  0  0  0  0  0  0  0  0
  -30.5638  -27.0389   21.1087 C   0  0  0  0  0  0  0  0  0  0  0  0
  -28.8733  -26.5042   19.4675 C   0  0  0  0  0  0  0  0  0  0  0  0
  -24.8754  -19.3788   24.7122 C   0  0  0  0  0  0  0  0  0  0  0  0
  -30.5282  -23.7877   17.7092 C   0  0  0  0  0  0  0  0  0  0  0  0
  -30.0207  -22.5387   17.3512 C   0  0  0  0  0  0  0  0  0  0  0  0
  -20.3877  -25.0363   23.1477 C   0  0  0  0  0  0  0  0  0  0  0  0
  -23.1211  -18.3902   23.3840 C   0  0  0  0  0  0  0  0  0  0  0  0
  -29.4617  -22.1038   19.6611 C   0  0  0  0  0  0  0  0  0  0  0  0
  -28.4098  -28.1298   21.1936 C   0  0  0  0  0  0  0  0  0  0  0  0
  -27.3629  -30.4331   21.5201 C   0  0  0  0  0  0  0  0  0  0  0  0
  -30.4647  -17.8234   19.1055 C   0  0  0  0  0  0  0  0  0  0  0  0
  -18.8666  -26.4342   21.8806 C   0  0  0  0  0  0  0  0  0  0  0  0
  -25.2496  -17.2565   23.5939 C   0  0  0  0  0  0  0  0  0  0  0  0
  -29.3349  -17.7933   19.9481 C   0  0  0  0  0  0  0  0  0  0  0  0
  -19.8326  -26.2789   22.8841 C   0  0  0  0  0  0  0  0  0  0  0  0
  -23.9445  -17.2946   23.0827 C   0  0  0  0  0  0  0  0  0  0  0  0
  -19.9756  -23.9469   22.3766 C   0  0  0  0  0  0  0  0  0  0  0  0
  -30.1548  -26.3188   19.9862 C   0  0  0  0  0  0  0  0  0  0  0  0
  -23.5850  -19.4272   24.1930 C   0  0  0  0  0  0  0  0  0  0  0  0
  -30.5025  -24.1947   19.0431 C   0  0  0  0  0  0  0  0  0  0  0  0
  -29.4875  -21.6968   18.3271 C   0  0  0  0  0  0  0  0  0  0  0  0
  -29.9692  -23.3528   20.0191 C   0  0  0  0  0  0  0  0  0  0  0  0
  -27.5079  -29.0647   21.8170 C   0  0  0  0  0  0  0  0  0  0  0  0
  -26.3869  -30.8700   22.3820 C   0  0  0  0  0  0  0  0  0  0  0  0
  -28.0492  -31.2374   20.5517 C   0  0  0  0  0  0  0  0  0  0  0  0
  -26.1453  -16.0651   20.7864 C   0  0  0  0  0  0  0  0  0  0  0  0
  -23.8840  -13.8362   21.4505 C   0  0  0  0  0  0  0  0  0  0  0  0
  -21.4876  -22.3245   23.5665 C   0  0  0  0  0  0  0  0  0  0  0  0
  -21.0335  -13.0143   23.1374 C   0  0  0  0  0  0  0  0  0  0  0  0
  -21.8903  -28.0920   25.1954 C   0  0  0  0  0  0  0  0  0  0  0  0
  -30.5142  -17.0427   17.8158 C   0  0  0  0  0  0  0  0  0  0  0  0
  -18.3759  -27.8472   21.8227 C   0  0  0  0  0  0  0  0  0  0  0  0
  -26.1459  -16.0831   23.3075 C   0  0  0  0  0  0  0  0  0  0  0  0
  -23.4023  -16.1935   22.2097 C   0  0  0  0  0  0  0  0  0  0  0  0
  -29.1312  -16.6568   17.3011 C   0  0  0  0  0  0  0  0  0  0  0  0
  -19.5016  -28.5827   22.5663 C   0  0  0  0  0  0  0  0  0  0  0  0
  -24.5208  -29.9661   26.6938 C   0  0  0  0  0  0  0  0  0  0  0  0
  -28.3184  -16.0229   18.4200 C   0  0  0  0  0  0  0  0  0  0  0  0
  -25.5715  -30.0711   25.5871 C   0  0  0  0  0  0  0  0  0  0  0  0
  -23.8102  -28.6146   26.6710 C   0  0  0  0  0  0  0  0  0  0  0  0
  -24.2696  -28.3526   24.2640 C   0  0  0  0  0  0  0  0  0  0  0  0
  -28.0860  -17.0225   19.5601 C   0  0  1  0  0  0  0  0  0  0  0  0
  -20.0682  -27.5819   23.5895 C   0  0  2  0  0  0  0  0  0  0  0  0
  -25.7578  -15.3304   22.0385 C   0  0  1  0  0  0  0  0  0  0  0  0
  -24.9741  -29.7191   24.2114 C   0  0  2  0  0  0  0  0  0  0  0  0
  -19.4017  -11.1335   23.4489 C   0  0  0  0  0  0  0  0  0  0  0  0
  -22.6488  -14.4606   18.7312 C   0  0  0  0  0  0  0  0  0  0  0  0
  -20.5650  -13.2978   19.4886 C   0  0  0  0  0  0  0  0  0  0  0  0
  -22.7066  -12.0301   19.3174 C   0  0  0  0  0  0  0  0  0  0  0  0
  -21.6259  -12.8254   26.0309 C   0  0  0  0  0  0  0  0  0  0  0  0
  -21.8062  -20.8427   23.4942 C   0  0  0  0  0  0  0  0  0  1  0  0
  -22.4033  -13.7042   21.1875 C   0  0  1  0  0  0  0  0  0  0  0  0
  -20.6693  -11.7957   23.9661 C   0  0  2  0  0  0  0  0  0  0  0  0
  -22.0915  -13.3950   19.6960 C   0  0  0  0  0  0  0  0  0  0  0  0
  -26.6895  -28.6590   22.7916 N   0  0  0  0  0  0  0  0  0  0  0  0
  -26.0210  -29.7792   23.1145 N   0  0  0  0  0  0  0  0  0  0  0  0
  -24.3192  -15.0706   21.9532 N   0  0  0  0  0  0  0  0  0  0  0  0
  -23.2651  -28.3420   25.3390 N   0  0  0  0  0  0  0  0  0  0  0  0
  -25.8145  -32.0769   22.5773 N   0  0  0  0  0  0  0  0  0  0  0  0
  -29.0231  -30.6295   19.7478 N   0  0  0  0  0  0  0  0  0  0  0  0
  -20.5296  -22.6674   22.6185 N   0  0  0  0  0  0  0  0  0  0  0  0
  -27.4981  -16.3281   20.6843 N   0  0  0  0  0  0  0  0  0  0  0  0
  -21.9109  -12.6978   22.1219 N   0  0  0  0  0  0  0  0  0  0  0  0
  -21.4553  -27.8492   23.8983 N   0  0  0  0  0  0  0  0  0  0  0  0
  -20.4505  -12.1830   25.3884 N   0  3  0  0  0  0  0  0  0  0  0  0
  -27.8177  -32.4627   20.4151 O   0  0  0  0  0  0  0  0  0  0  0  0
  -25.2813  -16.3693   19.9725 O   0  0  0  0  0  0  0  0  0  0  0  0
  -24.6261  -12.8770   21.2251 O   0  0  0  0  0  0  0  0  0  0  0  0
  -22.0393  -23.0616   24.3770 O   0  0  0  0  0  0  0  0  0  0  0  0
  -20.5816  -14.1343   23.3656 O   0  0  0  0  0  0  0  0  0  0  0  0
  -21.1077  -28.0909   26.1516 O   0  0  0  0  0  0  0  0  0  0  0  0
  -31.0060  -25.4353   19.3968 O   0  0  0  0  0  0  0  0  0  0  0  0
  -22.7749  -20.4827   24.4784 O   0  0  0  0  0  0  0  0  0  1  0  0
  -28.9988  -20.4980   17.9830 F   0  0  0  0  0  0  0  0  0  0  0  0
  -29.9408  -23.7388   21.3020 F   0  0  0  0  0  0  0  0  0  0  0  0
  1  2  1  0  0  0  0
  1  5  2  0  0  0  0
  2  6  2  0  0  0  0
  3 10  2  0  0  0  0
  3 18  1  0  0  0  0
  4 11  1  0  0  0  0
  4 18  2  0  0  0  0
  5 20  1  0  0  0  0
  6 23  1  0  0  0  0
  7  9  2  0  0  0  0
  7 21  1  0  0  0  0
  8 12  2  0  0  0  0
  8 22  1  0  0  0  0
  9 26  1  0  0  0  0
 10 27  1  0  0  0  0
 11 27  2  0  0  0  0
 12 28  1  0  0  0  0
 13 14  2  0  0  0  0
 13 29  1  0  0  0  0
 14 30  1  0  0  0  0
 15 24  1  0  0  0  0
 15 26  2  0  0  0  0
 16 25  1  0  0  0  0
 16 28  2  0  0  0  0
 17 30  2  0  0  0  0
 17 31  1  0  0  0  0
 18 32  1  0  0  0  0
 19 32  1  0  0  0  0
 19 33  2  0  0  0  0
 19 34  1  0  0  0  0
 20 23  2  0  0  0  0
 20 40  1  0  0  0  0
 21 24  2  0  0  0  0
 21 41  1  0  0  0  0
 22 25  2  0  0  0  0
 22 42  1  0  0  0  0
 23 51  1  0  0  0  0
 24 52  1  0  0  0  0
 25 43  1  0  0  0  0
 26 70  1  0  0  0  0
 27 81  1  0  0  0  0
 28 82  1  0  0  0  0
 29 31  2  0  0  0  0
 29 81  1  0  0  0  0
 30 83  1  0  0  0  0
 31 84  1  0  0  0  0
 32 64  2  0  0  0  0
 33 65  1  0  0  0  0
 33 68  1  0  0  0  0
 34 69  1  0  0  0  0
 34 75  2  0  0  0  0
 35 53  1  0  0  0  0
 35 71  1  0  0  0  0
 35 76  2  0  0  0  0
 36 61  1  0  0  0  0
 36 66  1  0  0  0  0
 36 77  2  0  0  0  0
 37 60  1  0  0  0  0
 37 70  1  0  0  0  0
 37 78  2  0  0  0  0
 38 62  1  0  0  0  0
 38 72  1  0  0  0  0
 38 79  2  0  0  0  0
 39 67  1  0  0  0  0
 39 73  1  0  0  0  0
 39 80  2  0  0  0  0
 40 44  1  0  0  0  0
 41 45  1  0  0  0  0
 42 53  1  0  0  0  0
 43 66  1  0  0  0  0
 44 47  1  0  0  0  0
 45 52  1  0  0  0  0
 46 48  1  0  0  0  0
 46 49  1  0  0  0  0
 47 51  1  0  0  0  0
 48 54  1  0  0  0  0
 49 67  1  0  0  0  0
 50 54  1  0  0  0  0
 50 67  1  0  0  0  0
 51 71  1  0  0  0  0
 52 73  1  0  0  0  0
 53 66  1  0  0  0  0
 54 65  1  0  0  0  0
 55 62  1  0  0  0  0
 56 63  1  0  0  0  0
 57 63  1  0  0  0  0
 58 63  1  0  0  0  0
 59 74  1  0  0  0  0
 60 82  1  0  0  0  0
 61 63  1  0  0  0  0
 61 72  1  0  0  0  0
 62 74  1  0  0  0  0
 64 65  1  0  0  0  0
M  CHG  1  74   1
M  ISO  4  39 100  60 101  73 100  82 101
M  END
> <Batch ID>
0151

> <Smiles>
CNC(C)C(=O)NC(C(=O)N1Cc2cc([101O:1][101CH2:1]C(=O)Nc3ccc4c(c3)C([100NH:0][100C:0](=O)N3CCCC(n5nc(-c6ccc(Oc7ccc(F)cc7F)cc6)c(C(N)=O)c5N)C3)CC4)ccc2CC1C(=O)NC1CCCc2ccccc21)C(C)(C)C

> <Shape>
0.233

> <Color>
0.057

> <Negative vol penalty>
0.000

$$$$

  -OEChem-04052303243D

 85 94  0     1  0  0  0  0  0999 V2000
  -17.0015  -29.0416   24.5485 C   0  0  0  0  0  0  0  0  0  0  0  0
  -17.7742  -27.9615   24.1342 C   0  0  0  0  0  0  0  0  0  0  0  0
  -29.2103  -16.3194   19.3669 C   0  0  0  0  0  0  0  0  0  0  0  0
  -27.5012  -17.3460   20.7315 C   0  0  0  0  0  0  0  0  0  0  0  0
  -17.1785  -30.2916   23.9568 C   0  0  0  0  0  0  0  0  0  0  0  0
  -18.7237  -28.1305   23.1271 C   0  0  0  0  0  0  0  0  0  0  0  0
  -23.1395  -25.9091   24.2276 C   0  0  0  0  0  0  0  0  0  0  0  0
  -29.4632  -17.5489   18.7586 C   0  0  0  0  0  0  0  0  0  0  0  0
  -27.7541  -18.5755   20.1233 C   0  0  0  0  0  0  0  0  0  0  0  0
  -23.2167  -24.5273   24.0586 C   0  0  0  0  0  0  0  0  0  0  0  0
  -28.1983  -22.0599   19.1852 C   0  0  0  0  0  0  0  0  0  0  0  0
  -28.2937  -23.1832   20.0066 C   0  0  0  0  0  0  0  0  0  0  0  0
  -24.3307  -24.8543   21.9440 C   0  0  0  0  0  0  0  0  0  0  0  0
  -22.5561  -19.4173   23.3298 C   0  0  0  0  0  0  0  0  0  0  0  0
  -30.1472  -22.1690   21.1784 C   0  0  0  0  0  0  0  0  0  0  0  0
  -24.7575  -19.7782   23.3212 C   0  0  0  0  0  0  0  0  0  0  0  0
  -28.2293  -16.2179   20.3533 C   0  0  0  0  0  0  0  0  0  0  0  0
  -28.5792  -14.4296   22.1386 C   0  0  0  0  0  0  0  0  0  0  0  0
  -18.1374  -30.4782   22.9486 C   0  0  0  0  0  0  0  0  0  0  0  0
  -23.6484  -26.7753   23.2493 C   0  0  0  0  0  0  0  0  0  0  0  0
  -18.9128  -29.3838   22.5203 C   0  0  0  0  0  0  0  0  0  0  0  0
  -24.2610  -26.2466   22.1042 C   0  0  0  0  0  0  0  0  0  0  0  0
  -23.5492  -20.4124   23.4936 C   0  0  0  0  0  0  0  0  0  0  0  0
  -28.7351  -18.6770   19.1368 C   0  0  0  0  0  0  0  0  0  0  0  0
  -23.8098  -23.9997   22.9153 C   0  0  0  0  0  0  0  0  0  0  0  0
  -29.0773  -20.9911   19.3604 C   0  0  0  0  0  0  0  0  0  0  0  0
  -29.2681  -23.2378   21.0031 C   0  0  0  0  0  0  0  0  0  0  0  0
  -30.0517  -21.0456   20.3570 C   0  0  0  0  0  0  0  0  0  0  0  0
  -27.9672  -14.9480   20.9817 C   0  0  0  0  0  0  0  0  0  0  0  0
  -23.2284  -18.2460   23.0687 C   0  0  0  0  0  0  0  0  0  0  0  0
  -27.9869  -13.2038   22.3204 C   0  0  0  0  0  0  0  0  0  0  0  0
  -29.5925  -15.0047   22.9742 C   0  0  0  0  0  0  0  0  0  0  0  0
  -22.4000  -29.0052   21.3591 C   0  0  0  0  0  0  0  0  0  0  0  0
  -25.5043  -29.5238   20.5736 C   0  0  0  0  0  0  0  0  0  0  0  0
  -28.6844  -28.3022   20.3706 C   0  0  0  0  0  0  0  0  0  0  0  0
  -22.9808  -13.7008   21.6450 C   0  0  0  0  0  0  0  0  0  0  0  0
  -18.2597  -31.8371   22.3057 C   0  0  0  0  0  0  0  0  0  0  0  0
  -23.5812  -28.2633   23.4592 C   0  0  0  0  0  0  0  0  0  0  0  0
  -24.8408  -27.1335   21.0339 C   0  0  0  0  0  0  0  0  0  0  0  0
  -19.5473  -32.0189   21.5061 C   0  0  0  0  0  0  0  0  0  0  0  0
  -24.9431  -12.5283   18.8988 C   0  0  0  0  0  0  0  0  0  0  0  0
  -21.2636  -12.5442   24.6222 C   0  0  0  0  0  0  0  0  0  0  0  0
  -19.7967  -30.8076   20.6132 C   0  0  0  0  0  0  0  0  0  0  0  0
  -26.0004  -11.6291   19.5299 C   0  0  0  0  0  0  0  0  0  0  0  0
  -21.4522  -14.0045   25.0083 C   0  0  0  0  0  0  0  0  0  0  0  0
  -23.6225  -12.4066   19.6432 C   0  0  0  0  0  0  0  0  0  0  0  0
  -22.4420  -12.2909   23.6947 C   0  0  0  0  0  0  0  0  0  0  0  0
  -24.8111  -11.9326   21.7759 C   0  0  0  0  0  0  0  0  0  0  0  0
  -19.9702  -29.5331   21.4481 C   0  0  1  0  0  0  0  0  0  0  0  0
  -23.6716  -29.0548   22.1581 C   0  0  1  0  0  0  0  0  0  0  0  0
  -26.1680  -11.8841   21.0364 C   0  0  2  0  0  0  0  0  0  0  0  0
  -21.9579  -14.6478   23.7141 C   0  0  1  0  0  0  0  0  0  0  0  0
  -31.0008  -28.9483   19.6533 C   0  0  0  0  0  0  0  0  0  0  0  0
  -24.3304  -15.2943   24.1347 C   0  0  0  0  0  0  0  0  0  0  0  0
  -22.4705  -16.4866   25.3204 C   0  0  0  0  0  0  0  0  0  0  0  0
  -24.6913  -29.1860   17.6522 C   0  0  0  0  0  0  0  0  0  0  0  0
  -27.1120  -28.8912   17.0851 C   0  0  0  0  0  0  0  0  0  0  0  0
  -26.3172  -31.0385   18.0750 C   0  0  0  0  0  0  0  0  0  0  0  0
  -29.7627  -27.9150   23.0994 C   0  0  0  0  0  0  0  0  0  0  0  0
  -23.3342  -21.8397   23.7895 C   0  0  0  0  0  0  0  0  0  1  0  0
  -22.7727  -16.8284   22.7995 C   0  0  0  0  0  0  0  0  0  0  0  0
  -26.4492  -28.9761   19.5315 C   0  0  1  0  0  0  0  0  0  0  0  0
  -30.0164  -28.8824   20.8106 C   0  0  2  0  0  0  0  0  0  0  0  0
  -22.8865  -15.8238   23.9883 C   0  0  0  0  0  0  0  0  0  0  0  0
  -26.1299  -29.5060   18.1050 C   0  0  0  0  0  0  0  0  0  0  0  0
  -27.0560  -14.1193   20.4649 N   0  0  0  0  0  0  0  0  0  0  0  0
  -27.0912  -13.0677   21.3009 N   0  0  0  0  0  0  0  0  0  0  0  0
  -24.7452  -28.5816   21.2820 N   0  0  0  0  0  0  0  0  0  0  0  0
  -23.7701  -12.6937   21.0702 N   0  0  0  0  0  0  0  0  0  0  0  0
  -22.6243  -13.5598   22.9882 N   0  0  0  0  0  0  0  0  0  0  0  0
  -28.1501  -12.2398   23.2513 N   0  0  0  0  0  0  0  0  0  0  0  0
  -30.0911  -16.2721   22.6437 N   0  0  0  0  0  0  0  0  0  0  0  0
  -21.2936  -29.4875   22.0319 N   0  0  0  0  0  0  0  0  0  0  0  0
  -27.7961  -29.2884   19.9972 N   0  0  0  0  0  0  0  0  0  0  0  0
  -30.6146  -28.0462   21.8894 N   0  3  0  0  0  0  0  0  0  0  0  0
  -30.0542  -14.4050   23.9746 O   0  0  0  0  0  0  0  0  0  0  0  0
  -22.4215  -28.5636   20.2162 O   0  0  0  0  0  0  0  0  0  0  0  0
  -25.4472  -30.7422   20.7576 O   0  0  0  0  0  0  0  0  0  0  0  0
  -28.4563  -27.0946   20.3557 O   0  0  0  0  0  0  0  0  0  0  0  0
  -22.6025  -14.6779   20.9853 O   0  0  0  0  0  0  0  0  0  0  0  0
  -24.5708  -18.4575   23.0616 O   0  0  0  0  0  0  0  0  0  0  0  0
  -28.9818  -19.8769   18.5437 O   0  0  0  0  0  0  0  0  0  0  0  0
  -23.8862  -22.6448   22.7467 O   0  0  0  0  0  0  0  0  0  1  0  0
  -29.3606  -24.3172   21.7908 F   0  0  0  0  0  0  0  0  0  0  0  0
  -30.8998  -20.0224   20.5293 F   0  0  0  0  0  0  0  0  0  0  0  0
  1  2  1  0  0  0  0
  1  5  2  0  0  0  0
  2  6  2  0  0  0  0
  3  8  2  0  0  0  0
  3 17  1  0  0  0  0
  4  9  1  0  0  0  0
  4 17  2  0  0  0  0
  5 19  1  0  0  0  0
  6 21  1  0  0  0  0
  7 10  2  0  0  0  0
  7 20  1  0  0  0  0
  8 24  1  0  0  0  0
  9 24  2  0  0  0  0
 10 25  1  0  0  0  0
 11 12  2  0  0  0  0
 11 26  1  0  0  0  0
 12 27  1  0  0  0  0
 13 22  1  0  0  0  0
 13 25  2  0  0  0  0
 14 23  1  0  0  0  0
 14 30  2  0  0  0  0
 15 27  2  0  0  0  0
 15 28  1  0  0  0  0
 16 23  2  0  0  0  0
 16 81  1  0  0  0  0
 17 29  1  0  0  0  0
 18 29  1  0  0  0  0
 18 31  2  0  0  0  0
 18 32  1  0  0  0  0
 19 21  2  0  0  0  0
 19 37  1  0  0  0  0
 20 22  2  0  0  0  0
 20 38  1  0  0  0  0
 21 49  1  0  0  0  0
 22 39  1  0  0  0  0
 23 60  1  0  0  0  0
 24 82  1  0  0  0  0
 25 83  1  0  0  0  0
 26 28  2  0  0  0  0
 26 82  1  0  0  0  0
 27 84  1  0  0  0  0
 28 85  1  0  0  0  0
 29 66  2  0  0  0  0
 30 61  1  0  0  0  0
 30 81  1  0  0  0  0
 31 67  1  0  0  0  0
 31 71  1  0  0  0  0
 32 72  1  0  0  0  0
 32 76  2  0  0  0  0
 33 50  1  0  0  0  0
 33 73  1  0  0  0  0
 33 77  2  0  0  0  0
 34 62  1  0  0  0  0
 34 68  1  0  0  0  0
 34 78  2  0  0  0  0
 35 63  1  0  0  0  0
 35 74  1  0  0  0  0
 35 79  2  0  0  0  0
 36 69  1  0  0  0  0
 36 70  1  0  0  0  0
 36 80  2  0  0  0  0
 37 40  1  0  0  0  0
 38 50  1  0  0  0  0
 39 68  1  0  0  0  0
 40 43  1  0  0  0  0
 41 44  1  0  0  0  0
 41 46  1  0  0  0  0
 42 45  1  0  0  0  0
 42 47  1  0  0  0  0
 43 49  1  0  0  0  0
 44 51  1  0  0  0  0
 45 52  1  0  0  0  0
 46 69  1  0  0  0  0
 47 70  1  0  0  0  0
 48 51  1  0  0  0  0
 48 69  1  0  0  0  0
 49 73  1  0  0  0  0
 50 68  1  0  0  0  0
 51 67  1  0  0  0  0
 52 64  1  0  0  0  0
 52 70  1  0  0  0  0
 53 63  1  0  0  0  0
 54 64  1  0  0  0  0
 55 64  1  0  0  0  0
 56 65  1  0  0  0  0
 57 65  1  0  0  0  0
 58 65  1  0  0  0  0
 59 75  1  0  0  0  0
 60 83  1  0  0  0  0
 61 64  1  0  0  0  0
 62 65  1  0  0  0  0
 62 74  1  0  0  0  0
 63 75  1  0  0  0  0
 66 67  1  0  0  0  0
M  CHG  1  75   1
M  ISO  4  36 100  60 101  70 100  83 101
M  END
> <Batch ID>
0151

> <Smiles>
CNC(C)C(=O)NC(C(=O)N1Cc2cc([101O:1][101CH2:1]c3coc(CC(C)(C)C4CCC[100N:0]4[100C:0](=O)N4CCCC(n5nc(-c6ccc(Oc7ccc(F)cc7F)cc6)c(C(N)=O)c5N)C4)c3)ccc2CC1C(=O)NC1CCCc2ccccc21)C(C)(C)C

> <Shape>
0.225

> <Color>
0.081

> <Negative vol penalty>
0.000

$$$$

  -OEChem-04052303243D

 84 92  0     1  0  0  0  0  0999 V2000
  -30.7261  -35.3990   19.4942 C   0  0  0  0  0  0  0  0  0  0  0  0
  -30.7211  -34.0686   19.0875 C   0  0  0  0  0  0  0  0  0  0  0  0
  -23.9196   -9.8185   19.5420 C   0  0  0  0  0  0  0  0  0  0  0  0
  -23.9066   -9.7892   21.9578 C   0  0  0  0  0  0  0  0  0  0  0  0
  -30.0686  -35.7710   20.6660 C   0  0  0  0  0  0  0  0  0  0  0  0
  -30.0594  -33.1092   19.8531 C   0  0  0  0  0  0  0  0  0  0  0  0
  -27.0747  -28.1739   17.7939 C   0  0  0  0  0  0  0  0  0  0  0  0
  -23.3875   -8.5293   19.5235 C   0  0  0  0  0  0  0  0  0  0  0  0
  -23.3743   -8.5000   21.9393 C   0  0  0  0  0  0  0  0  0  0  0  0
  -27.4424  -26.8336   17.6835 C   0  0  0  0  0  0  0  0  0  0  0  0
  -20.3548   -7.0602   21.4597 C   0  0  0  0  0  0  0  0  0  0  0  0
  -19.2950   -6.7858   22.3240 C   0  0  0  0  0  0  0  0  0  0  0  0
  -26.3747  -26.3728   19.7970 C   0  0  0  0  0  0  0  0  0  0  0  0
  -30.6011  -20.3317   20.1130 C   0  0  0  0  0  0  0  0  0  0  0  0
  -20.6129   -5.0669   23.3943 C   0  0  0  0  0  0  0  0  0  0  0  0
  -24.1793  -10.4484   20.7592 C   0  0  0  0  0  0  0  0  0  0  0  0
  -24.0172  -12.9941   20.7901 C   0  0  0  0  0  0  0  0  0  0  0  0
  -29.3903  -34.8173   21.4412 C   0  0  0  0  0  0  0  0  0  0  0  0
  -26.3624  -28.6266   18.9138 C   0  0  0  0  0  0  0  0  0  0  0  0
  -29.3933  -33.4686   21.0371 C   0  0  0  0  0  0  0  0  0  0  0  0
  -25.9969  -27.7187   19.9180 C   0  0  0  0  0  0  0  0  0  0  0  0
  -31.2939  -19.2629   20.7516 C   0  0  0  0  0  0  0  0  0  0  0  0
  -23.1148   -7.8700   20.7221 C   0  0  0  0  0  0  0  0  0  0  0  0
  -27.0950  -25.9334   18.6865 C   0  0  0  0  0  0  0  0  0  0  0  0
  -21.5437   -6.3379   21.5627 C   0  0  0  0  0  0  0  0  0  0  0  0
  -19.4240   -5.7892   23.2913 C   0  0  0  0  0  0  0  0  0  0  0  0
  -21.6727   -5.3413   22.5300 C   0  0  0  0  0  0  0  0  0  0  0  0
  -24.7295  -11.7799   20.7790 C   0  0  0  0  0  0  0  0  0  0  0  0
  -24.9904  -13.9631   20.8080 C   0  0  0  0  0  0  0  0  0  0  0  0
  -29.7615  -20.9954   20.9802 C   0  0  0  0  0  0  0  0  0  0  0  0
  -30.9576  -19.1507   22.0829 C   0  0  0  0  0  0  0  0  0  0  0  0
  -22.6022  -13.2254   20.7848 C   0  0  0  0  0  0  0  0  0  0  0  0
  -26.9284  -30.7231   21.2351 C   0  0  0  0  0  0  0  0  0  0  0  0
  -23.8553  -30.0700   22.0425 C   0  0  0  0  0  0  0  0  0  0  0  0
  -28.6915  -22.7993   19.5891 C   0  0  0  0  0  0  0  0  0  0  0  0
  -21.2312  -27.8908   21.9321 C   0  0  0  0  0  0  0  0  0  0  0  0
  -29.6511  -15.9978   22.8088 C   0  0  0  0  0  0  0  0  0  0  0  0
  -28.7339  -35.2593   22.7251 C   0  0  0  0  0  0  0  0  0  0  0  0
  -25.9500  -30.0702   19.0051 C   0  0  0  0  0  0  0  0  0  0  0  0
  -25.2149  -28.1502   21.1307 C   0  0  0  0  0  0  0  0  0  0  0  0
  -27.7394  -34.2437   23.2818 C   0  0  0  0  0  0  0  0  0  0  0  0
  -29.9868  -13.6311   20.1072 C   0  0  0  0  0  0  0  0  0  0  0  0
  -28.3398  -32.8416   23.2603 C   0  0  0  0  0  0  0  0  0  0  0  0
  -28.5802  -13.0334   20.0473 C   0  0  0  0  0  0  0  0  0  0  0  0
  -30.4147  -13.9065   21.5465 C   0  0  0  0  0  0  0  0  0  0  0  0
  -28.0674  -14.1693   22.2539 C   0  0  0  0  0  0  0  0  0  0  0  0
  -28.6656  -32.4029   21.8276 C   0  0  1  0  0  0  0  0  0  0  0  0
  -25.6722  -30.5229   20.4353 C   0  0  1  0  0  0  0  0  0  0  0  0
  -27.5716  -13.9016   20.8218 C   0  0  2  0  0  0  0  0  0  0  0  0
  -32.2619  -18.3802   20.0594 C   0  0  0  0  0  0  0  0  0  0  0  0
  -18.8625  -27.6186   22.7146 C   0  0  0  0  0  0  0  0  0  0  0  0
  -24.8589  -29.4438   24.8551 C   0  0  0  0  0  0  0  0  0  0  0  0
  -22.6800  -28.2943   25.3013 C   0  0  0  0  0  0  0  0  0  0  0  0
  -22.7170  -30.7323   24.7745 C   0  0  0  0  0  0  0  0  0  0  0  0
  -20.2119  -27.7225   19.1587 C   0  0  0  0  0  0  0  0  0  0  0  0
  -27.6846  -23.9151   19.7977 C   0  0  0  0  0  0  0  0  0  1  0  0
  -23.1760  -29.0596   22.9351 C   0  0  1  0  0  0  0  0  0  0  0  0
  -19.7667  -28.0943   21.5881 C   0  0  2  0  0  0  0  0  0  0  0  0
  -23.3744  -29.3744   24.4447 C   0  0  0  0  0  0  0  0  0  0  0  0
  -26.0532  -11.9586   20.7889 N   0  0  0  0  0  0  0  0  0  0  0  0
  -26.1803  -13.2964   20.8062 N   0  0  0  0  0  0  0  0  0  0  0  0
  -24.8404  -29.5733   21.1772 N   0  0  0  0  0  0  0  0  0  0  0  0
  -29.4181  -14.7405   22.2282 N   0  0  0  0  0  0  0  0  0  0  0  0
  -24.9360  -15.3118   20.8248 N   0  0  0  0  0  0  0  0  0  0  0  0
  -21.7441  -12.1173   20.7660 N   0  0  0  0  0  0  0  0  0  0  0  0
  -28.8998  -22.0985   20.7721 N   0  0  0  0  0  0  0  0  0  0  0  0
  -27.4608  -31.9945   21.1377 N   0  0  0  0  0  0  0  0  0  0  0  0
  -21.7804  -29.0146   22.5124 N   0  0  0  0  0  0  0  0  0  0  0  0
  -30.9802  -16.5403   22.7297 N   0  0  0  0  0  0  0  0  0  0  0  0
  -19.4151  -27.3391   20.3524 N   0  3  0  0  0  0  0  0  0  0  0  0
  -22.1133  -14.3806   20.7799 O   0  0  0  0  0  0  0  0  0  0  0  0
  -27.3803  -29.7933   21.8930 O   0  0  0  0  0  0  0  0  0  0  0  0
  -23.5190  -31.2552   22.1054 O   0  0  0  0  0  0  0  0  0  0  0  0
  -29.2123  -22.5998   18.4966 O   0  0  0  0  0  0  0  0  0  0  0  0
  -21.8273  -26.8389   21.7116 O   0  0  0  0  0  0  0  0  0  0  0  0
  -28.7581  -16.6381   23.3652 O   0  0  0  0  0  0  0  0  0  0  0  0
  -32.9077  -18.1135   23.4327 O   0  0  0  0  0  0  0  0  0  0  0  0
  -30.6642  -18.3485   24.5529 O   0  0  0  0  0  0  0  0  0  0  0  0
  -22.5953   -6.6121   20.7044 O   0  0  0  0  0  0  0  0  0  0  0  0
  -27.4533  -24.6248   18.5815 O   0  0  0  0  0  0  0  0  0  1  0  0
  -18.4067   -5.5268   24.1223 F   0  0  0  0  0  0  0  0  0  0  0  0
  -22.8128   -4.6449   22.6345 F   0  0  0  0  0  0  0  0  0  0  0  0
  -29.8107  -20.3304   22.5574 S   0  0  0  0  0  0  0  0  0  0  0  0
  -31.4598  -18.0559   23.3762 S   0  0  0  0  0  0  0  0  0  0  0  0
  1  2  1  0  0  0  0
  1  5  2  0  0  0  0
  2  6  2  0  0  0  0
  3  8  2  0  0  0  0
  3 16  1  0  0  0  0
  4  9  1  0  0  0  0
  4 16  2  0  0  0  0
  5 18  1  0  0  0  0
  6 20  1  0  0  0  0
  7 10  2  0  0  0  0
  7 19  1  0  0  0  0
  8 23  1  0  0  0  0
  9 23  2  0  0  0  0
 10 24  1  0  0  0  0
 11 12  2  0  0  0  0
 11 25  1  0  0  0  0
 12 26  1  0  0  0  0
 13 21  1  0  0  0  0
 13 24  2  0  0  0  0
 14 22  1  0  0  0  0
 14 30  2  0  0  0  0
 15 26  2  0  0  0  0
 15 27  1  0  0  0  0
 16 28  1  0  0  0  0
 17 28  1  0  0  0  0
 17 29  2  0  0  0  0
 17 32  1  0  0  0  0
 18 20  2  0  0  0  0
 18 38  1  0  0  0  0
 19 21  2  0  0  0  0
 19 39  1  0  0  0  0
 20 47  1  0  0  0  0
 21 40  1  0  0  0  0
 22 31  2  0  0  0  0
 22 50  1  0  0  0  0
 23 79  1  0  0  0  0
 24 80  1  0  0  0  0
 25 27  2  0  0  0  0
 25 79  1  0  0  0  0
 26 81  1  0  0  0  0
 27 82  1  0  0  0  0
 28 60  2  0  0  0  0
 29 61  1  0  0  0  0
 29 64  1  0  0  0  0
 30 66  1  0  0  0  0
 30 83  1  0  0  0  0
 31 83  1  0  0  0  0
 31 84  1  0  0  0  0
 32 65  1  0  0  0  0
 32 71  2  0  0  0  0
 33 48  1  0  0  0  0
 33 67  1  0  0  0  0
 33 72  2  0  0  0  0
 34 57  1  0  0  0  0
 34 62  1  0  0  0  0
 34 73  2  0  0  0  0
 35 56  1  0  0  0  0
 35 66  1  0  0  0  0
 35 74  2  0  0  0  0
 36 58  1  0  0  0  0
 36 68  1  0  0  0  0
 36 75  2  0  0  0  0
 37 63  1  0  0  0  0
 37 69  1  0  0  0  0
 37 76  2  0  0  0  0
 38 41  1  0  0  0  0
 39 48  1  0  0  0  0
 40 62  1  0  0  0  0
 41 43  1  0  0  0  0
 42 44  1  0  0  0  0
 42 45  1  0  0  0  0
 43 47  1  0  0  0  0
 44 49  1  0  0  0  0
 45 63  1  0  0  0  0
 46 49  1  0  0  0  0
 46 63  1  0  0  0  0
 47 67  1  0  0  0  0
 48 62  1  0  0  0  0
 49 61  1  0  0  0  0
 51 58  1  0  0  0  0
 52 59  1  0  0  0  0
 53 59  1  0  0  0  0
 54 59  1  0  0  0  0
 55 70  1  0  0  0  0
 56 80  1  0  0  0  0
 57 59  1  0  0  0  0
 57 68  1  0  0  0  0
 58 70  1  0  0  0  0
 60 61  1  0  0  0  0
 69 84  1  0  0  0  0
 77 84  2  0  0  0  0
 78 84  2  0  0  0  0
M  CHG  1  70   1
M  ISO  4  37 100  56 101  69 100  80 101
M  END
> <Batch ID>
0151

> <Smiles>
CNC(C)C(=O)NC(C(=O)N1Cc2cc([101O:1][101CH2:1]C(=O)Nc3cc(C)c(S(=O)(=O)[100NH:0][100C:0](=O)N4CCCC(n5nc(-c6ccc(Oc7ccc(F)cc7F)cc6)c(C(N)=O)c5N)C4)s3)ccc2CC1C(=O)NC1CCCc2ccccc21)C(C)(C)C

> <Shape>
0.293

> <Color>
0.140

> <Negative vol penalty>
0.000

$$$$

  -OEChem-04052303243D

 85 94  0     1  0  0  0  0  0999 V2000
  -31.5894  -34.4030   20.7450 C   0  0  0  0  0  0  0  0  0  0  0  0
  -31.5918  -33.1229   21.2898 C   0  0  0  0  0  0  0  0  0  0  0  0
  -32.6487  -17.4914   23.4592 C   0  0  0  0  0  0  0  0  0  0  0  0
  -23.0759   -9.8667   19.9389 C   0  0  0  0  0  0  0  0  0  0  0  0
  -23.8363   -9.8711   22.2321 C   0  0  0  0  0  0  0  0  0  0  0  0
  -31.8508  -18.3567   24.2076 C   0  0  0  0  0  0  0  0  0  0  0  0
  -30.8995  -34.6536   19.5596 C   0  0  0  0  0  0  0  0  0  0  0  0
  -30.9033  -32.0929   20.6499 C   0  0  0  0  0  0  0  0  0  0  0  0
  -32.5170  -26.1907   20.3918 C   0  0  0  0  0  0  0  0  0  0  0  0
  -32.0607  -16.6083   22.5535 C   0  0  0  0  0  0  0  0  0  0  0  0
  -22.3326   -8.7129   20.1875 C   0  0  0  0  0  0  0  0  0  0  0  0
  -23.0929   -8.7174   22.4808 C   0  0  0  0  0  0  0  0  0  0  0  0
  -32.1138  -25.0752   21.1244 C   0  0  0  0  0  0  0  0  0  0  0  0
  -19.8652   -7.9174   23.0830 C   0  0  0  0  0  0  0  0  0  0  0  0
  -19.1085   -7.8757   24.2540 C   0  0  0  0  0  0  0  0  0  0  0  0
  -29.8769  -17.4558   23.1448 C   0  0  0  0  0  0  0  0  0  0  0  0
  -30.5189  -24.5266   19.3997 C   0  0  0  0  0  0  0  0  0  0  0  0
  -20.3509   -5.9379   24.9878 C   0  0  0  0  0  0  0  0  0  0  0  0
  -23.8278  -10.4458   20.9611 C   0  0  0  0  0  0  0  0  0  0  0  0
  -30.4649  -18.3390   24.0504 C   0  0  0  0  0  0  0  0  0  0  0  0
  -24.1686  -12.9712   20.8441 C   0  0  0  0  0  0  0  0  0  0  0  0
  -30.2102  -33.6240   18.8998 C   0  0  0  0  0  0  0  0  0  0  0  0
  -31.9156  -26.4892   19.1607 C   0  0  0  0  0  0  0  0  0  0  0  0
  -30.2024  -32.3303   19.4553 C   0  0  0  0  0  0  0  0  0  0  0  0
  -30.9181  -25.6451   18.6522 C   0  0  0  0  0  0  0  0  0  0  0  0
  -30.6749  -16.5905   22.3964 C   0  0  0  0  0  0  0  0  0  0  0  0
  -22.3411   -8.1382   21.4585 C   0  0  0  0  0  0  0  0  0  0  0  0
  -31.1126  -24.2445   20.6297 C   0  0  0  0  0  0  0  0  0  0  0  0
  -20.8647   -6.9693   22.8643 C   0  0  0  0  0  0  0  0  0  0  0  0
  -19.3513   -6.8860   25.2064 C   0  0  0  0  0  0  0  0  0  0  0  0
  -21.1076   -5.9796   23.8167 C   0  0  0  0  0  0  0  0  0  0  0  0
  -24.5964  -11.6373   20.7047 C   0  0  0  0  0  0  0  0  0  0  0  0
  -25.2603  -13.7216   20.4816 C   0  0  0  0  0  0  0  0  0  0  0  0
  -29.2280  -22.3101   22.9937 C   0  0  0  0  0  0  0  0  0  0  0  0
  -29.6975  -23.3097   22.2404 C   0  0  0  0  0  0  0  0  0  1  0  0
  -29.6210  -19.2533   24.8404 C   0  0  0  0  0  0  0  0  0  0  0  0
  -22.8979  -13.4860   21.2639 C   0  0  0  0  0  0  0  0  0  0  0  0
  -30.2129  -28.9224   18.0273 C   0  0  0  0  0  0  0  0  0  0  0  0
  -30.4786  -27.2988   15.2316 C   0  0  0  0  0  0  0  0  0  0  0  0
  -30.9755  -24.3162   13.6493 C   0  0  0  0  0  0  0  0  0  0  0  0
  -30.7261  -14.7693   20.6565 C   0  0  0  0  0  0  0  0  0  0  0  0
  -29.4396  -33.9537   17.6460 C   0  0  0  0  0  0  0  0  0  0  0  0
  -32.3805  -27.6814   18.3701 C   0  0  0  0  0  0  0  0  0  0  0  0
  -30.2549  -25.9102   17.3262 C   0  0  0  0  0  0  0  0  0  0  0  0
  -28.1131  -22.4298   23.9909 C   0  0  0  0  0  0  0  0  0  0  0  0
  -29.8151  -20.9331   23.0547 C   0  0  0  0  0  0  0  0  0  0  0  0
  -29.0463  -32.7238   16.8317 C   0  0  0  0  0  0  0  0  0  0  0  0
  -29.6123  -12.3579   18.2855 C   0  0  0  0  0  0  0  0  0  0  0  0
  -28.4599  -31.6475   17.7397 C   0  0  0  0  0  0  0  0  0  0  0  0
  -28.1728  -12.0652   18.7150 C   0  0  0  0  0  0  0  0  0  0  0  0
  -28.5055  -21.4336   25.0752 C   0  0  0  0  0  0  0  0  0  0  0  0
  -30.5275  -12.5857   19.4873 C   0  0  0  0  0  0  0  0  0  0  0  0
  -28.6205  -13.3076   20.8698 C   0  0  0  0  0  0  0  0  0  0  0  0
  -29.4879  -31.1812   18.7776 C   0  0  1  0  0  0  0  0  0  0  0  0
  -31.3406  -28.1778   17.3703 C   0  0  1  0  0  0  0  0  0  0  0  0
  -27.6475  -13.1354   19.6919 C   0  0  2  0  0  0  0  0  0  0  0  0
  -31.1009  -23.2981   11.3591 C   0  0  0  0  0  0  0  0  0  0  0  0
  -27.4393  -27.4430   15.0038 C   0  0  0  0  0  0  0  0  0  0  0  0
  -27.5538  -25.6428   13.2675 C   0  0  0  0  0  0  0  0  0  0  0  0
  -28.6660  -27.8383   12.8606 C   0  0  0  0  0  0  0  0  0  0  0  0
  -33.7710  -23.4385   14.0659 C   0  0  0  0  0  0  0  0  0  0  0  0
  -29.6704  -26.2314   14.5343 C   0  0  1  0  0  0  0  0  0  0  0  0
  -31.8869  -23.9252   12.5001 C   0  0  2  0  0  0  0  0  0  0  0  0
  -28.3433  -26.7847   13.9425 C   0  0  0  0  0  0  0  0  0  0  0  0
  -25.8612  -11.5425   20.2861 N   0  0  0  0  0  0  0  0  0  0  0  0
  -26.2375  -12.8264   20.1593 N   0  0  0  0  0  0  0  0  0  0  0  0
  -29.3333  -20.4495   24.3592 N   0  0  0  0  0  0  0  0  0  0  0  0
  -30.7397  -27.0916   16.5935 N   0  0  0  0  0  0  0  0  0  0  0  0
  -29.9683  -13.6152   20.3660 N   0  0  0  0  0  0  0  0  0  0  0  0
  -25.4701  -15.0533   20.4102 N   0  0  0  0  0  0  0  0  0  0  0  0
  -21.8865  -12.5759   21.6003 N   0  0  0  0  0  0  0  0  0  0  0  0
  -30.0785  -15.6931   21.4762 N   0  0  0  0  0  0  0  0  0  0  0  0
  -30.4426  -30.2772   18.1727 N   0  0  0  0  0  0  0  0  0  0  0  0
  -30.5584  -25.6265   13.5474 N   0  0  0  0  0  0  0  0  0  0  0  0
  -29.1611  -18.8592   26.0242 N   0  3  0  0  0  0  0  0  0  0  0  0
  -32.9099  -22.9443   12.9608 N   0  3  0  0  0  0  0  0  0  0  0  0
  -22.6612  -14.7164   21.3228 O   0  0  0  0  0  0  0  0  0  0  0  0
  -29.2082  -28.3130   18.3753 O   0  0  0  0  0  0  0  0  0  0  0  0
  -30.8701  -28.2769   14.5899 O   0  0  0  0  0  0  0  0  0  0  0  0
  -30.6617  -23.5361   14.5457 O   0  0  0  0  0  0  0  0  0  0  0  0
  -31.8550  -14.9391   20.1889 O   0  0  0  0  0  0  0  0  0  0  0  0
  -21.6156   -7.0125   21.7016 O   0  0  0  0  0  0  0  0  0  0  0  0
  -30.7167  -23.1554   21.3431 O   0  0  0  0  0  0  0  0  0  1  0  0
  -18.6256   -6.8470   26.3316 F   0  0  0  0  0  0  0  0  0  0  0  0
  -22.0672   -5.0668   23.6128 F   0  0  0  0  0  0  0  0  0  0  0  0
  1  2  1  0  0  0  0
  1  7  2  0  0  0  0
  2  8  2  0  0  0  0
  3  6  2  0  0  0  0
  3 10  1  0  0  0  0
  4 11  2  0  0  0  0
  4 19  1  0  0  0  0
  5 12  1  0  0  0  0
  5 19  2  0  0  0  0
  6 20  1  0  0  0  0
  7 22  1  0  0  0  0
  8 24  1  0  0  0  0
  9 13  2  0  0  0  0
  9 23  1  0  0  0  0
 10 26  2  0  0  0  0
 11 27  1  0  0  0  0
 12 27  2  0  0  0  0
 13 28  1  0  0  0  0
 14 15  2  0  0  0  0
 14 29  1  0  0  0  0
 15 30  1  0  0  0  0
 16 20  2  0  0  0  0
 16 26  1  0  0  0  0
 17 25  1  0  0  0  0
 17 28  2  0  0  0  0
 18 30  2  0  0  0  0
 18 31  1  0  0  0  0
 19 32  1  0  0  0  0
 20 36  1  0  0  0  0
 21 32  1  0  0  0  0
 21 33  2  0  0  0  0
 21 37  1  0  0  0  0
 22 24  2  0  0  0  0
 22 42  1  0  0  0  0
 23 25  2  0  0  0  0
 23 43  1  0  0  0  0
 24 54  1  0  0  0  0
 25 44  1  0  0  0  0
 26 72  1  0  0  0  0
 27 82  1  0  0  0  0
 28 83  1  0  0  0  0
 29 31  2  0  0  0  0
 29 82  1  0  0  0  0
 30 84  1  0  0  0  0
 31 85  1  0  0  0  0
 32 65  2  0  0  0  0
 33 66  1  0  0  0  0
 33 70  1  0  0  0  0
 34 35  2  0  0  0  0
 34 45  1  0  0  0  0
 34 46  1  0  0  0  0
 35 83  1  0  0  0  0
 36 67  1  0  0  0  0
 36 75  2  0  0  0  0
 37 71  1  0  0  0  0
 37 77  2  0  0  0  0
 38 55  1  0  0  0  0
 38 73  1  0  0  0  0
 38 78  2  0  0  0  0
 39 62  1  0  0  0  0
 39 68  1  0  0  0  0
 39 79  2  0  0  0  0
 40 63  1  0  0  0  0
 40 74  1  0  0  0  0
 40 80  2  0  0  0  0
 41 69  1  0  0  0  0
 41 72  1  0  0  0  0
 41 81  2  0  0  0  0
 42 47  1  0  0  0  0
 43 55  1  0  0  0  0
 44 68  1  0  0  0  0
 45 51  1  0  0  0  0
 46 67  1  0  0  0  0
 47 49  1  0  0  0  0
 48 50  1  0  0  0  0
 48 52  1  0  0  0  0
 49 54  1  0  0  0  0
 50 56  1  0  0  0  0
 51 67  1  0  0  0  0
 52 69  1  0  0  0  0
 53 56  1  0  0  0  0
 53 69  1  0  0  0  0
 54 73  1  0  0  0  0
 55 68  1  0  0  0  0
 56 66  1  0  0  0  0
 57 63  1  0  0  0  0
 58 64  1  0  0  0  0
 59 64  1  0  0  0  0
 60 64  1  0  0  0  0
 61 76  1  0  0  0  0
 62 64  1  0  0  0  0
 62 74  1  0  0  0  0
 63 76  1  0  0  0  0
 65 66  1  0  0  0  0
M  CHG  2  75   1  76   1
M  ISO  4  35 101  41 100  72 100  83 101
M  END
> <Batch ID>
0151

> <Smiles>
CNC(C)C(=O)NC(C(=O)N1Cc2cc([101O:1][101CH:1]=C3CCN(C(=N)c4cccc([100NH:0][100C:0](=O)N5CCCC(n6nc(-c7ccc(Oc8ccc(F)cc8F)cc7)c(C(N)=O)c6N)C5)c4)C3)ccc2CC1C(=O)NC1CCCc2ccccc21)C(C)(C)C

> <Shape>
0.206

> <Color>
0.188

> <Negative vol penalty>
0.000

$$$$

  -OEChem-04052303243D

 86 95  0     1  0  0  0  0  0999 V2000
  -24.9267  -25.7836   15.3548 C   0  0  0  0  0  0  0  0  0  0  0  0
  -25.5646  -25.6631   16.5853 C   0  0  0  0  0  0  0  0  0  0  0  0
  -32.8745  -19.2476   25.1593 C   0  0  0  0  0  0  0  0  0  0  0  0
  -23.0791   -9.9175   19.8693 C   0  0  0  0  0  0  0  0  0  0  0  0
  -23.9069   -9.7794   22.1349 C   0  0  0  0  0  0  0  0  0  0  0  0
  -24.7834  -27.0389   14.7652 C   0  0  0  0  0  0  0  0  0  0  0  0
  -26.0606  -26.7978   17.2263 C   0  0  0  0  0  0  0  0  0  0  0  0
  -32.1522  -18.2680   24.4780 C   0  0  0  0  0  0  0  0  0  0  0  0
  -24.9453  -26.8822   22.1654 C   0  0  0  0  0  0  0  0  0  0  0  0
  -32.3463  -20.5307   25.3022 C   0  0  0  0  0  0  0  0  0  0  0  0
  -22.3576   -8.7393   20.0611 C   0  0  0  0  0  0  0  0  0  0  0  0
  -23.1854   -8.6012   22.3267 C   0  0  0  0  0  0  0  0  0  0  0  0
  -25.7155  -26.0796   23.0058 C   0  0  0  0  0  0  0  0  0  0  0  0
  -19.9870   -7.7170   22.9662 C   0  0  0  0  0  0  0  0  0  0  0  0
  -19.2659   -7.5863   24.1530 C   0  0  0  0  0  0  0  0  0  0  0  0
  -30.3735  -19.8545   24.0824 C   0  0  0  0  0  0  0  0  0  0  0  0
  -27.0170  -28.0077   23.6445 C   0  0  0  0  0  0  0  0  0  0  0  0
  -20.5531   -5.6216   24.7188 C   0  0  0  0  0  0  0  0  0  0  0  0
  -23.8538  -10.4376   20.9062 C   0  0  0  0  0  0  0  0  0  0  0  0
  -24.1599  -12.9698   20.9496 C   0  0  0  0  0  0  0  0  0  0  0  0
  -30.9017  -18.5714   23.9395 C   0  0  0  0  0  0  0  0  0  0  0  0
  -25.2693  -28.1907   15.4039 C   0  0  0  0  0  0  0  0  0  0  0  0
  -25.2126  -28.2539   22.0497 C   0  0  0  0  0  0  0  0  0  0  0  0
  -25.9248  -28.0695   16.6441 C   0  0  0  0  0  0  0  0  0  0  0  0
  -26.2471  -28.8260   22.8038 C   0  0  0  0  0  0  0  0  0  0  0  0
  -31.0958  -20.8341   24.7637 C   0  0  0  0  0  0  0  0  0  0  0  0
  -22.4107   -8.0811   21.2898 C   0  0  0  0  0  0  0  0  0  0  0  0
  -26.7534  -26.6417   23.7434 C   0  0  0  0  0  0  0  0  0  0  0  0
  -20.9911   -6.7999   22.6556 C   0  0  0  0  0  0  0  0  0  0  0  0
  -19.5489   -6.5387   25.0293 C   0  0  0  0  0  0  0  0  0  0  0  0
  -21.2742   -5.7523   23.5319 C   0  0  0  0  0  0  0  0  0  0  0  0
  -24.5997  -11.6544   20.7085 C   0  0  0  0  0  0  0  0  0  0  0  0
  -25.2312  -13.7582   20.6071 C   0  0  0  0  0  0  0  0  0  0  0  0
  -22.8961  -13.4372   21.4394 C   0  0  0  0  0  0  0  0  0  0  0  0
  -26.0944  -30.1750   19.6757 C   0  0  0  0  0  0  0  0  0  0  0  0
  -29.0039  -23.9608   24.7086 C   0  0  0  0  0  0  0  0  0  0  0  0
  -25.6350  -32.4915   21.8995 C   0  0  0  0  0  0  0  0  0  0  0  0
  -25.4864  -33.3519   25.1987 C   0  0  0  0  0  0  0  0  0  0  0  0
  -30.7089  -14.7966   20.7257 C   0  0  0  0  0  0  0  0  0  0  0  0
  -25.1328  -29.5204   14.7054 C   0  0  0  0  0  0  0  0  0  0  0  0
  -24.3555  -29.1110   21.1590 C   0  0  0  0  0  0  0  0  0  0  0  0
  -26.5618  -30.2971   22.7307 C   0  0  0  0  0  0  0  0  0  0  0  0
  -25.3542  -30.7177   15.6261 C   0  0  0  0  0  0  0  0  0  0  0  0
  -29.5109  -12.6542   18.1846 C   0  0  0  0  0  0  0  0  0  0  0  0
  -26.6011  -30.5111   16.4800 C   0  0  0  0  0  0  0  0  0  0  0  0
  -28.1040  -12.2784   18.6415 C   0  0  0  0  0  0  0  0  0  0  0  0
  -29.7892  -16.2239   23.9770 C   0  0  0  0  0  0  0  0  0  0  0  0
  -30.4591  -12.7456   19.3726 C   0  0  0  0  0  0  0  0  0  0  0  0
  -29.3915  -15.2501   22.8759 C   0  0  0  0  0  0  0  0  0  0  0  0
  -30.8294  -16.9370   21.9651 C   0  0  0  0  0  0  0  0  0  0  0  0
  -28.5987  -13.3874   20.8816 C   0  0  0  0  0  0  0  0  0  0  0  0
  -30.1190  -17.5088   23.2001 C   0  0  2  0  0  0  0  0  0  0  0  0
  -26.4542  -29.2798   17.3822 C   0  0  1  0  0  0  0  0  0  0  0  0
  -25.0456  -30.4013   20.7276 C   0  0  1  0  0  0  0  0  0  0  0  0
  -27.6016  -13.2602   19.7113 C   0  0  2  0  0  0  0  0  0  0  0  0
  -25.1313  -35.3271   26.7053 C   0  0  0  0  0  0  0  0  0  0  0  0
  -28.4657  -33.4575   21.2963 C   0  0  0  0  0  0  0  0  0  0  0  0
  -28.3986  -34.7668   23.4292 C   0  0  0  0  0  0  0  0  0  0  0  0
  -26.7831  -35.2826   21.5998 C   0  0  0  0  0  0  0  0  0  0  0  0
  -23.0836  -32.1328   26.4231 C   0  0  0  0  0  0  0  0  0  0  0  0
  -29.2870  -22.5098   24.3819 C   0  0  0  0  0  0  0  0  0  0  0  0
  -27.6806  -24.5002   24.2015 C   0  0  0  0  0  0  0  0  0  1  0  0
  -26.4989  -33.1590   22.9421 C   0  0  1  0  0  0  0  0  0  0  0  0
  -24.4710  -34.1628   25.9835 C   0  0  2  0  0  0  0  0  0  0  0  0
  -27.5321  -34.1384   22.3170 C   0  0  0  0  0  0  0  0  0  0  0  0
  -25.8526  -11.6058   20.2483 N   0  0  0  0  0  0  0  0  0  0  0  0
  -26.2093  -12.9005   20.1973 N   0  0  0  0  0  0  0  0  0  0  0  0
  -25.6995  -31.0921   21.8409 N   0  0  0  0  0  0  0  0  0  0  0  0
  -29.9584  -13.6617   20.3990 N   0  0  0  0  0  0  0  0  0  0  0  0
  -30.2299  -15.6257   21.7393 N   0  0  0  0  0  0  0  0  0  0  0  0
  -25.4225  -15.0945   20.6194 N   0  0  0  0  0  0  0  0  0  0  0  0
  -21.9063  -12.4925   21.7427 N   0  0  0  0  0  0  0  0  0  0  0  0
  -30.5616  -22.1314   24.9086 N   0  0  0  0  0  0  0  0  0  0  0  0
  -25.6155  -29.5852   18.5215 N   0  0  0  0  0  0  0  0  0  0  0  0
  -25.5840  -33.7822   23.8923 N   0  0  0  0  0  0  0  0  0  0  0  0
  -23.7944  -33.3045   26.9967 N   0  3  0  0  0  0  0  0  0  0  0  0
  -22.6462  -14.6575   21.5877 O   0  0  0  0  0  0  0  0  0  0  0  0
  -27.2521  -30.5119   19.8945 O   0  0  0  0  0  0  0  0  0  0  0  0
  -29.7885  -24.6653   25.3426 O   0  0  0  0  0  0  0  0  0  0  0  0
  -24.9235  -33.1856   21.1690 O   0  0  0  0  0  0  0  0  0  0  0  0
  -26.1315  -32.4315   25.6959 O   0  0  0  0  0  0  0  0  0  0  0  0
  -31.7857  -15.0388   20.1639 O   0  0  0  0  0  0  0  0  0  0  0  0
  -21.7067   -6.9315   21.4773 O   0  0  0  0  0  0  0  0  0  0  0  0
  -27.5149  -25.8524   24.5725 O   0  0  0  0  0  0  0  0  0  1  0  0
  -18.8574   -6.4142   26.1697 F   0  0  0  0  0  0  0  0  0  0  0  0
  -22.2385   -4.8688   23.2395 F   0  0  0  0  0  0  0  0  0  0  0  0
  1  2  1  0  0  0  0
  1  6  2  0  0  0  0
  2  7  2  0  0  0  0
  3  8  1  0  0  0  0
  3 10  2  0  0  0  0
  4 11  2  0  0  0  0
  4 19  1  0  0  0  0
  5 12  1  0  0  0  0
  5 19  2  0  0  0  0
  6 22  1  0  0  0  0
  7 24  1  0  0  0  0
  8 21  2  0  0  0  0
  9 13  2  0  0  0  0
  9 23  1  0  0  0  0
 10 26  1  0  0  0  0
 11 27  1  0  0  0  0
 12 27  2  0  0  0  0
 13 28  1  0  0  0  0
 14 15  2  0  0  0  0
 14 29  1  0  0  0  0
 15 30  1  0  0  0  0
 16 21  1  0  0  0  0
 16 26  2  0  0  0  0
 17 25  1  0  0  0  0
 17 28  2  0  0  0  0
 18 30  2  0  0  0  0
 18 31  1  0  0  0  0
 19 32  1  0  0  0  0
 20 32  1  0  0  0  0
 20 33  2  0  0  0  0
 20 34  1  0  0  0  0
 21 52  1  0  0  0  0
 22 24  2  0  0  0  0
 22 40  1  0  0  0  0
 23 25  2  0  0  0  0
 23 41  1  0  0  0  0
 24 53  1  0  0  0  0
 25 42  1  0  0  0  0
 26 73  1  0  0  0  0
 27 83  1  0  0  0  0
 28 84  1  0  0  0  0
 29 31  2  0  0  0  0
 29 83  1  0  0  0  0
 30 85  1  0  0  0  0
 31 86  1  0  0  0  0
 32 66  2  0  0  0  0
 33 67  1  0  0  0  0
 33 71  1  0  0  0  0
 34 72  1  0  0  0  0
 34 77  2  0  0  0  0
 35 54  1  0  0  0  0
 35 74  1  0  0  0  0
 35 78  2  0  0  0  0
 36 61  1  0  0  0  0
 36 62  1  0  0  0  0
 36 79  2  0  0  0  0
 37 63  1  0  0  0  0
 37 68  1  0  0  0  0
 37 80  2  0  0  0  0
 38 64  1  0  0  0  0
 38 75  1  0  0  0  0
 38 81  2  0  0  0  0
 39 69  1  0  0  0  0
 39 70  1  0  0  0  0
 39 82  2  0  0  0  0
 40 43  1  0  0  0  0
 41 54  1  0  0  0  0
 42 68  1  0  0  0  0
 43 45  1  0  0  0  0
 44 46  1  0  0  0  0
 44 48  1  0  0  0  0
 45 53  1  0  0  0  0
 46 55  1  0  0  0  0
 47 49  1  0  0  0  0
 47 52  1  0  0  0  0
 48 69  1  0  0  0  0
 49 70  1  0  0  0  0
 50 52  1  0  0  0  0
 50 70  1  0  0  0  0
 51 55  1  0  0  0  0
 51 69  1  0  0  0  0
 53 74  1  0  0  0  0
 54 68  1  0  0  0  0
 55 67  1  0  0  0  0
 56 64  1  0  0  0  0
 57 65  1  0  0  0  0
 58 65  1  0  0  0  0
 59 65  1  0  0  0  0
 60 76  1  0  0  0  0
 61 73  1  0  0  0  0
 62 84  1  0  0  0  0
 63 65  1  0  0  0  0
 63 75  1  0  0  0  0
 64 76  1  0  0  0  0
 66 67  1  0  0  0  0
M  CHG  1  76   1
M  ISO  4  39 100  62 101  70 100  84 101
M  END
> <Batch ID>
0151

> <Smiles>
CNC(C)C(=O)NC(C(=O)N1Cc2cc([101O:1][101CH2:1]C(=O)CNc3cccc(C4CC[100N:0]([100C:0](=O)N5CCCC(n6nc(-c7ccc(Oc8ccc(F)cc8F)cc7)c(C(N)=O)c6N)C5)C4)c3)ccc2CC1C(=O)NC1CCCc2ccccc21)C(C)(C)C

> <Shape>
0.260

> <Color>
0.214

> <Negative vol penalty>
0.000

$$$$

  -OEChem-04052303243D

 85 94  0     1  0  0  0  0  0999 V2000
  -17.3695  -28.5766   12.8254 C   0  0  0  0  0  0  0  0  0  0  0  0
  -18.2542  -27.5252   13.0427 C   0  0  0  0  0  0  0  0  0  0  0  0
  -23.2056   -9.6703   20.0980 C   0  0  0  0  0  0  0  0  0  0  0  0
  -23.7870  -10.0094   22.4183 C   0  0  0  0  0  0  0  0  0  0  0  0
  -17.6225  -29.8268   13.3884 C   0  0  0  0  0  0  0  0  0  0  0  0
  -19.3932  -27.7237   13.8223 C   0  0  0  0  0  0  0  0  0  0  0  0
  -23.6910  -24.2825   18.4052 C   0  0  0  0  0  0  0  0  0  0  0  0
  -22.4828   -8.5292   20.4458 C   0  0  0  0  0  0  0  0  0  0  0  0
  -23.0642   -8.8682   22.7662 C   0  0  0  0  0  0  0  0  0  0  0  0
  -25.0410  -24.0030   18.6129 C   0  0  0  0  0  0  0  0  0  0  0  0
  -19.4597   -7.8045   21.7757 C   0  0  0  0  0  0  0  0  0  0  0  0
  -18.1960   -7.6397   21.2087 C   0  0  0  0  0  0  0  0  0  0  0  0
  -25.3344  -26.1844   19.6002 C   0  0  0  0  0  0  0  0  0  0  0  0
  -31.5098  -17.8843   21.4426 C   0  0  0  0  0  0  0  0  0  0  0  0
  -18.9185   -5.5660   20.2012 C   0  0  0  0  0  0  0  0  0  0  0  0
  -23.8577  -10.4104   21.0843 C   0  0  0  0  0  0  0  0  0  0  0  0
  -24.1250  -12.9104   20.6529 C   0  0  0  0  0  0  0  0  0  0  0  0
  -18.7601  -30.0382   14.1832 C   0  0  0  0  0  0  0  0  0  0  0  0
  -23.1540  -25.5212   18.7842 C   0  0  0  0  0  0  0  0  0  0  0  0
  -19.6624  -28.9783   14.3954 C   0  0  0  0  0  0  0  0  0  0  0  0
  -23.9767  -26.4761   19.3985 C   0  0  0  0  0  0  0  0  0  0  0  0
  -31.5054  -19.2218   21.9339 C   0  0  0  0  0  0  0  0  0  0  0  0
  -22.4121   -8.1281   21.7799 C   0  0  0  0  0  0  0  0  0  0  0  0
  -25.8636  -24.9551   19.2078 C   0  0  0  0  0  0  0  0  0  0  0  0
  -20.4528   -6.8501   21.5554 C   0  0  0  0  0  0  0  0  0  0  0  0
  -17.9254   -6.5205   20.4215 C   0  0  0  0  0  0  0  0  0  0  0  0
  -20.1822   -5.7309   20.7682 C   0  0  0  0  0  0  0  0  0  0  0  0
  -24.6049  -11.5890   20.7255 C   0  0  0  0  0  0  0  0  0  0  0  0
  -30.2984  -19.5591   22.5055 C   0  0  0  0  0  0  0  0  0  0  0  0
  -25.2167  -13.6517   20.2719 C   0  0  0  0  0  0  0  0  0  0  0  0
  -30.3057  -17.2503   21.6576 C   0  0  0  0  0  0  0  0  0  0  0  0
  -22.8100  -13.4221   20.9072 C   0  0  0  0  0  0  0  0  0  0  0  0
  -21.7736  -27.9338   17.2422 C   0  0  0  0  0  0  0  0  0  0  0  0
  -21.2910  -29.0646   20.2440 C   0  0  0  0  0  0  0  0  0  0  0  0
  -22.2503  -29.0911   23.5191 C   0  0  0  0  0  0  0  0  0  0  0  0
  -30.6165  -14.9426   20.6963 C   0  0  0  0  0  0  0  0  0  0  0  0
  -19.0161  -31.4196   14.7317 C   0  0  0  0  0  0  0  0  0  0  0  0
  -21.6899  -25.7970   18.5776 C   0  0  0  0  0  0  0  0  0  0  0  0
  -23.4447  -27.8135   19.8421 C   0  0  0  0  0  0  0  0  0  0  0  0
  -20.0504  -31.4474   15.8540 C   0  0  0  0  0  0  0  0  0  0  0  0
  -29.7660  -12.1948   18.5978 C   0  0  0  0  0  0  0  0  0  0  0  0
  -21.2729  -30.6180   15.4740 C   0  0  0  0  0  0  0  0  0  0  0  0
  -28.3080  -11.9010   18.9583 C   0  0  0  0  0  0  0  0  0  0  0  0
  -28.5438  -23.9473   21.8721 C   0  0  0  0  0  0  0  0  0  0  0  0
  -30.5785  -12.6174   19.8205 C   0  0  0  0  0  0  0  0  0  0  0  0
  -28.5488  -13.4344   20.9527 C   0  0  0  0  0  0  0  0  0  0  0  0
  -29.5828  -23.3477   22.8091 C   0  0  0  0  0  0  0  0  0  0  0  0
  -29.1040  -21.8382   20.9476 C   0  0  0  0  0  0  0  0  0  0  0  0
  -20.8958  -29.1477   15.2556 C   0  0  1  0  0  0  0  0  0  0  0  0
  -21.3627  -27.2865   18.5345 C   0  0  1  0  0  0  0  0  0  0  0  0
  -27.6751  -13.0675   19.7419 C   0  0  2  0  0  0  0  0  0  0  0  0
  -28.7844  -23.2700   20.5191 C   0  0  2  0  0  0  0  0  0  0  0  0
  -32.6698  -20.1338   21.8357 C   0  0  0  0  0  0  0  0  0  0  0  0
  -29.9644  -23.9141   19.7726 C   0  0  0  0  0  0  0  0  0  0  0  0
  -21.6891  -30.1421   25.7277 C   0  0  0  0  0  0  0  0  0  0  0  0
  -22.6302  -31.6559   19.3485 C   0  0  0  0  0  0  0  0  0  0  0  0
  -22.8973  -32.2698   21.7610 C   0  0  0  0  0  0  0  0  0  0  0  0
  -20.6160  -31.9692   20.7975 C   0  0  0  0  0  0  0  0  0  0  0  0
  -21.6353  -26.4675   24.7426 C   0  0  0  0  0  0  0  0  0  0  0  0
  -29.8842  -20.8566   23.1348 C   0  0  0  0  0  0  0  0  0  0  0  0
  -27.5389  -23.3214   19.6322 C   0  0  0  0  0  0  0  0  0  1  0  0
  -22.0710  -29.9400   21.1949 C   0  0  1  0  0  0  0  0  0  0  0  0
  -21.4523  -28.9578   24.8035 C   0  0  2  0  0  0  0  0  0  0  0  0
  -22.0644  -31.4344   20.7655 C   0  0  0  0  0  0  0  0  0  0  0  0
  -25.9006  -11.4932   20.4154 N   0  0  0  0  0  0  0  0  0  0  0  0
  -26.2441  -12.7638   20.1441 N   0  0  0  0  0  0  0  0  0  0  0  0
  -22.0079  -28.0383   19.6127 N   0  0  0  0  0  0  0  0  0  0  0  0
  -29.9206  -13.7293   20.5102 N   0  0  0  0  0  0  0  0  0  0  0  0
  -25.3885  -14.9700   20.0370 N   0  0  0  0  0  0  0  0  0  0  0  0
  -21.8055  -12.5226   21.2895 N   0  0  0  0  0  0  0  0  0  0  0  0
  -29.8785  -15.9383   21.3355 N   0  0  0  0  0  0  0  0  0  0  0  0
  -20.7237  -28.4760   16.5259 N   0  0  0  0  0  0  0  0  0  0  0  0
  -21.5156  -29.6973   22.5220 N   0  0  0  0  0  0  0  0  0  0  0  0
  -29.9514  -22.0135   22.1902 N   0  3  2  0  0  0  0  0  0  0  0  0
  -21.8384  -27.7130   25.5264 N   0  3  0  0  0  0  0  0  0  0  0  0
  -22.5300  -14.6385   20.7826 O   0  0  0  0  0  0  0  0  0  0  0  0
  -22.9558  -27.9421   16.9198 O   0  0  0  0  0  0  0  0  0  0  0  0
  -20.0882  -29.2788   20.0733 O   0  0  0  0  0  0  0  0  0  0  0  0
  -23.4106  -28.7003   23.4121 O   0  0  0  0  0  0  0  0  0  0  0  0
  -31.7719  -15.0966   20.2924 O   0  0  0  0  0  0  0  0  0  0  0  0
  -21.7067   -7.0148   22.1197 O   0  0  0  0  0  0  0  0  0  0  0  0
  -27.1818  -24.6852   19.4111 O   0  0  0  0  0  0  0  0  0  1  0  0
  -16.7113   -6.3616   19.8783 F   0  0  0  0  0  0  0  0  0  0  0  0
  -21.1319   -4.8100   20.5540 F   0  0  0  0  0  0  0  0  0  0  0  0
  -29.1768  -18.2663   22.4486 S   0  0  0  0  0  0  0  0  0  0  0  0
  1  2  1  0  0  0  0
  1  5  2  0  0  0  0
  2  6  2  0  0  0  0
  3  8  2  0  0  0  0
  3 16  1  0  0  0  0
  4  9  1  0  0  0  0
  4 16  2  0  0  0  0
  5 18  1  0  0  0  0
  6 20  1  0  0  0  0
  7 10  2  0  0  0  0
  7 19  1  0  0  0  0
  8 23  1  0  0  0  0
  9 23  2  0  0  0  0
 10 24  1  0  0  0  0
 11 12  2  0  0  0  0
 11 25  1  0  0  0  0
 12 26  1  0  0  0  0
 13 21  1  0  0  0  0
 13 24  2  0  0  0  0
 14 22  1  0  0  0  0
 14 31  2  0  0  0  0
 15 26  2  0  0  0  0
 15 27  1  0  0  0  0
 16 28  1  0  0  0  0
 17 28  1  0  0  0  0
 17 30  2  0  0  0  0
 17 32  1  0  0  0  0
 18 20  2  0  0  0  0
 18 37  1  0  0  0  0
 19 21  2  0  0  0  0
 19 38  1  0  0  0  0
 20 49  1  0  0  0  0
 21 39  1  0  0  0  0
 22 29  2  0  0  0  0
 22 53  1  0  0  0  0
 23 81  1  0  0  0  0
 24 82  1  0  0  0  0
 25 27  2  0  0  0  0
 25 81  1  0  0  0  0
 26 83  1  0  0  0  0
 27 84  1  0  0  0  0
 28 65  2  0  0  0  0
 29 60  1  0  0  0  0
 29 85  1  0  0  0  0
 30 66  1  0  0  0  0
 30 69  1  0  0  0  0
 31 71  1  0  0  0  0
 31 85  1  0  0  0  0
 32 70  1  0  0  0  0
 32 76  2  0  0  0  0
 33 50  1  0  0  0  0
 33 72  1  0  0  0  0
 33 77  2  0  0  0  0
 34 62  1  0  0  0  0
 34 67  1  0  0  0  0
 34 78  2  0  0  0  0
 35 63  1  0  0  0  0
 35 73  1  0  0  0  0
 35 79  2  0  0  0  0
 36 68  1  0  0  0  0
 36 71  1  0  0  0  0
 36 80  2  0  0  0  0
 37 40  1  0  0  0  0
 38 50  1  0  0  0  0
 39 67  1  0  0  0  0
 40 42  1  0  0  0  0
 41 43  1  0  0  0  0
 41 45  1  0  0  0  0
 42 49  1  0  0  0  0
 43 51  1  0  0  0  0
 44 47  1  0  0  0  0
 44 52  1  0  0  0  0
 45 68  1  0  0  0  0
 46 51  1  0  0  0  0
 46 68  1  0  0  0  0
 47 74  1  0  0  0  0
 48 52  1  0  0  0  0
 48 74  1  0  0  0  0
 49 72  1  0  0  0  0
 50 67  1  0  0  0  0
 51 66  1  0  0  0  0
 52 54  1  0  0  0  0
 52 61  1  0  0  0  0
 55 63  1  0  0  0  0
 56 64  1  0  0  0  0
 57 64  1  0  0  0  0
 58 64  1  0  0  0  0
 59 75  1  0  0  0  0
 60 74  1  0  0  0  0
 61 82  1  0  0  0  0
 62 64  1  0  0  0  0
 62 73  1  0  0  0  0
 63 75  1  0  0  0  0
 65 66  1  0  0  0  0
M  CHG  2  74   1  75   1
M  ISO  4  36 100  61 101  71 100  82 101
M  END
> <Batch ID>
0151

> <Smiles>
CNC(C)C(=O)NC(C(=O)N1Cc2cc([101O:1][101CH2:1]C3(C)CCN(Cc4sc([100NH:0][100C:0](=O)N5CCCC(n6nc(-c7ccc(Oc8ccc(F)cc8F)cc7)c(C(N)=O)c6N)C5)cc4C)C3)ccc2CC1C(=O)NC1CCCc2ccccc21)C(C)(C)C

> <Shape>
0.236

> <Color>
0.217

> <Negative vol penalty>
0.000

$$$$

  -OEChem-04052303243D

 83 92  0     1  0  0  0  0  0999 V2000
  -29.0359  -28.8751   27.2685 C   0  0  0  0  0  0  0  0  0  0  0  0
  -28.6719  -28.1907   26.1133 C   0  0  0  0  0  0  0  0  0  0  0  0
  -24.6427   -8.7626   21.6820 C   0  0  0  0  0  0  0  0  0  0  0  0
  -22.8423  -10.1257   20.8231 C   0  0  0  0  0  0  0  0  0  0  0  0
  -28.1116  -29.6984   27.9102 C   0  0  0  0  0  0  0  0  0  0  0  0
  -27.3828  -28.3284   25.5996 C   0  0  0  0  0  0  0  0  0  0  0  0
  -27.3526  -28.9931   20.5795 C   0  0  0  0  0  0  0  0  0  0  0  0
  -23.7376   -8.0781   22.4930 C   0  0  0  0  0  0  0  0  0  0  0  0
  -21.9371   -9.4411   21.6340 C   0  0  0  0  0  0  0  0  0  0  0  0
  -27.5401  -27.8620   19.7863 C   0  0  0  0  0  0  0  0  0  0  0  0
  -21.4430   -5.6196   22.1410 C   0  0  0  0  0  0  0  0  0  0  0  0
  -21.5377   -4.2288   22.1875 C   0  0  0  0  0  0  0  0  0  0  0  0
  -24.0936  -19.7191   18.3902 C   0  0  0  0  0  0  0  0  0  0  0  0
  -24.1437  -18.3311   18.6625 C   0  0  0  0  0  0  0  0  0  0  0  0
  -25.1602  -27.7372   19.4124 C   0  0  0  0  0  0  0  0  0  0  0  0
  -21.9389   -4.3358   24.5676 C   0  0  0  0  0  0  0  0  0  0  0  0
  -24.1951   -9.7865   20.8471 C   0  0  0  0  0  0  0  0  0  0  0  0
  -25.5093  -10.1672   18.6940 C   0  0  0  0  0  0  0  0  0  0  0  0
  -26.8136  -29.8538   27.3988 C   0  0  0  0  0  0  0  0  0  0  0  0
  -26.0643  -29.4992   20.8043 C   0  0  0  0  0  0  0  0  0  0  0  0
  -26.4399  -29.1535   26.2358 C   0  0  0  0  0  0  0  0  0  0  0  0
  -24.9593  -28.8764   20.2068 C   0  0  0  0  0  0  0  0  0  0  0  0
  -22.3848   -8.4172   22.4690 C   0  0  0  0  0  0  0  0  0  0  0  0
  -26.4435  -27.2321   19.2050 C   0  0  0  0  0  0  0  0  0  0  0  0
  -21.5963   -6.3686   23.3077 C   0  0  0  0  0  0  0  0  0  0  0  0
  -21.7856   -3.5868   23.4008 C   0  0  0  0  0  0  0  0  0  0  0  0
  -21.8442   -5.7266   24.5210 C   0  0  0  0  0  0  0  0  0  0  0  0
  -25.1297  -10.4944   20.0096 C   0  0  0  0  0  0  0  0  0  0  0  0
  -26.4123  -11.1414   18.3448 C   0  0  0  0  0  0  0  0  0  0  0  0
  -25.3098  -20.2292   18.7809 C   0  0  0  0  0  0  0  0  0  0  0  0
  -25.3871  -18.0919   19.2000 C   0  0  0  0  0  0  0  0  0  0  0  0
  -25.0836   -9.0798   17.8621 C   0  0  0  0  0  0  0  0  0  0  0  0
  -24.2374  -29.9236   23.3707 C   0  0  0  0  0  0  0  0  0  0  0  0
  -22.2718  -31.3906   21.2479 C   0  0  0  0  0  0  0  0  0  0  0  0
  -21.2603  -31.7546   18.0089 C   0  0  0  0  0  0  0  0  0  0  0  0
  -27.2781  -16.7570   20.1942 C   0  0  0  0  0  0  0  0  0  0  0  0
  -25.8345  -30.7177   28.1536 C   0  0  0  0  0  0  0  0  0  0  0  0
  -25.8815  -30.7360   21.6407 C   0  0  0  0  0  0  0  0  0  0  0  0
  -23.5576  -29.3921   20.4006 C   0  0  0  0  0  0  0  0  0  0  0  0
  -24.6048  -31.1025   27.3351 C   0  0  0  0  0  0  0  0  0  0  0  0
  -29.6519  -14.1041   20.2584 C   0  0  0  0  0  0  0  0  0  0  0  0
  -24.0378  -29.8818   26.6173 C   0  0  0  0  0  0  0  0  0  0  0  0
  -28.7968  -12.8480   20.0760 C   0  0  0  0  0  0  0  0  0  0  0  0
  -27.1555  -23.3885   19.2474 C   0  0  0  0  0  0  0  0  0  0  0  0
  -28.9419  -15.1547   21.1103 C   0  0  0  0  0  0  0  0  0  0  0  0
  -27.1601  -21.8605   19.2198 C   0  0  0  0  0  0  0  0  0  0  0  0
  -26.7375  -14.2580   20.4736 C   0  0  0  0  0  0  0  0  0  0  0  0
  -25.0815  -22.6788   18.2790 C   0  0  0  0  0  0  0  0  0  0  0  0
  -25.0587  -29.2965   25.6341 C   0  0  1  0  0  0  0  0  0  0  0  0
  -24.4766  -30.8620   22.2218 C   0  0  1  0  0  0  0  0  0  0  0  0
  -27.3840  -13.1969   19.5683 C   0  0  2  0  0  0  0  0  0  0  0  0
  -26.1517  -23.7826   18.1540 C   0  0  2  0  0  0  0  0  0  0  0  0
  -26.8100  -23.7518   16.7642 C   0  0  0  0  0  0  0  0  0  0  0  0
  -19.6076  -33.0001   16.5894 C   0  0  0  0  0  0  0  0  0  0  0  0
  -20.0467  -29.5445   22.2229 C   0  0  0  0  0  0  0  0  0  0  0  0
  -18.7398  -30.1532   20.1760 C   0  0  0  0  0  0  0  0  0  0  0  0
  -19.3430  -31.9132   21.8377 C   0  0  0  0  0  0  0  0  0  0  0  0
  -23.4093  -33.0641   16.4514 C   0  0  0  0  0  0  0  0  0  0  0  0
  -25.5639  -25.1721   18.4058 C   0  0  0  0  0  0  0  0  0  1  0  0
  -21.1431  -30.9437   20.3505 C   0  0  1  0  0  0  0  0  0  0  0  0
  -21.0161  -32.9911   17.1627 C   0  0  2  0  0  0  0  0  0  0  0  0
  -19.8443  -30.6275   21.1445 C   0  0  0  0  0  0  0  0  0  0  0  0
  -25.7417  -11.5907   20.4652 N   0  0  0  0  0  0  0  0  0  0  0  0
  -26.5150  -11.9608   19.4303 N   0  0  0  0  0  0  0  0  0  0  0  0
  -25.8226  -21.5092   18.7519 N   0  0  3  0  0  0  0  0  0  0  0  0
  -23.4299  -30.6005   21.2318 N   0  0  0  0  0  0  0  0  0  0  0  0
  -27.6117  -15.4377   20.5668 N   0  0  0  0  0  0  0  0  0  0  0  0
  -27.1207  -11.3684   17.2183 N   0  0  0  0  0  0  0  0  0  0  0  0
  -24.1501   -8.1701   18.3772 N   0  0  0  0  0  0  0  0  0  0  0  0
  -25.9979  -16.8989   19.6598 N   0  0  0  0  0  0  0  0  0  0  0  0
  -25.1121  -30.0931   24.4270 N   0  0  0  0  0  0  0  0  0  0  0  0
  -20.9876  -31.9851   19.3407 N   0  0  0  0  0  0  0  0  0  0  0  0
  -21.9845  -33.0439   16.0312 N   0  3  0  0  0  0  0  0  0  0  0  0
  -25.5305   -8.9104   16.7023 O   0  0  0  0  0  0  0  0  0  0  0  0
  -23.3259  -29.1073   23.3043 O   0  0  0  0  0  0  0  0  0  0  0  0
  -22.1337  -32.4075   21.9324 O   0  0  0  0  0  0  0  0  0  0  0  0
  -21.6501  -30.6896   17.5351 O   0  0  0  0  0  0  0  0  0  0  0  0
  -28.0795  -17.6873   20.3133 O   0  0  0  0  0  0  0  0  0  0  0  0
  -26.1041  -19.2438   19.2755 O   0  0  0  0  0  0  0  0  0  0  0  0
  -21.5012   -7.7493   23.2600 O   0  0  0  0  0  0  0  0  0  0  0  0
  -26.6236  -26.1275   18.4309 O   0  0  0  0  0  0  0  0  0  1  0  0
  -21.8750   -2.2511   23.4457 F   0  0  0  0  0  0  0  0  0  0  0  0
  -21.9912   -6.4407   25.6454 F   0  0  0  0  0  0  0  0  0  0  0  0
  1  2  1  0  0  0  0
  1  5  2  0  0  0  0
  2  6  2  0  0  0  0
  3  8  2  0  0  0  0
  3 17  1  0  0  0  0
  4  9  1  0  0  0  0
  4 17  2  0  0  0  0
  5 19  1  0  0  0  0
  6 21  1  0  0  0  0
  7 10  2  0  0  0  0
  7 20  1  0  0  0  0
  8 23  1  0  0  0  0
  9 23  2  0  0  0  0
 10 24  1  0  0  0  0
 11 12  2  0  0  0  0
 11 25  1  0  0  0  0
 12 26  1  0  0  0  0
 13 14  1  0  0  0  0
 13 30  2  0  0  0  0
 14 31  2  0  0  0  0
 15 22  1  0  0  0  0
 15 24  2  0  0  0  0
 16 26  2  0  0  0  0
 16 27  1  0  0  0  0
 17 28  1  0  0  0  0
 18 28  1  0  0  0  0
 18 29  2  0  0  0  0
 18 32  1  0  0  0  0
 19 21  2  0  0  0  0
 19 37  1  0  0  0  0
 20 22  2  0  0  0  0
 20 38  1  0  0  0  0
 21 49  1  0  0  0  0
 22 39  1  0  0  0  0
 23 80  1  0  0  0  0
 24 81  1  0  0  0  0
 25 27  2  0  0  0  0
 25 80  1  0  0  0  0
 26 82  1  0  0  0  0
 27 83  1  0  0  0  0
 28 63  2  0  0  0  0
 29 64  1  0  0  0  0
 29 68  1  0  0  0  0
 30 65  1  0  0  0  0
 30 79  1  0  0  0  0
 31 70  1  0  0  0  0
 31 79  1  0  0  0  0
 32 69  1  0  0  0  0
 32 74  2  0  0  0  0
 33 50  1  0  0  0  0
 33 71  1  0  0  0  0
 33 75  2  0  0  0  0
 34 60  1  0  0  0  0
 34 66  1  0  0  0  0
 34 76  2  0  0  0  0
 35 61  1  0  0  0  0
 35 72  1  0  0  0  0
 35 77  2  0  0  0  0
 36 67  1  0  0  0  0
 36 70  1  0  0  0  0
 36 78  2  0  0  0  0
 37 40  1  0  0  0  0
 38 50  1  0  0  0  0
 39 66  1  0  0  0  0
 40 42  1  0  0  0  0
 41 43  1  0  0  0  0
 41 45  1  0  0  0  0
 42 49  1  0  0  0  0
 43 51  1  0  0  0  0
 44 46  1  0  0  0  0
 44 52  1  0  0  0  0
 45 67  1  0  0  0  0
 46 65  1  0  0  0  0
 47 51  1  0  0  0  0
 47 67  1  0  0  0  0
 48 52  1  0  0  0  0
 48 65  1  0  0  0  0
 49 71  1  0  0  0  0
 50 66  1  0  0  0  0
 51 64  1  0  0  0  0
 52 53  1  0  0  0  0
 52 59  1  0  0  0  0
 54 61  1  0  0  0  0
 55 62  1  0  0  0  0
 56 62  1  0  0  0  0
 57 62  1  0  0  0  0
 58 73  1  0  0  0  0
 59 81  1  0  0  0  0
 60 62  1  0  0  0  0
 60 72  1  0  0  0  0
 61 73  1  0  0  0  0
 63 64  1  0  0  0  0
M  CHG  1  73   1
M  ISO  4  36 100  59 101  70 100  81 101
M  END
> <Batch ID>
0151

> <Smiles>
CNC(C)C(=O)NC(C(=O)N1Cc2cc([101O:1][101CH2:1]C3(C)CCN(c4ccc([100NH:0][100C:0](=O)N5CCCC(n6nc(-c7ccc(Oc8ccc(F)cc8F)cc7)c(C(N)=O)c6N)C5)o4)C3)ccc2CC1C(=O)NC1CCCc2ccccc21)C(C)(C)C

> <Shape>
0.238

> <Color>
0.110

> <Negative vol penalty>
0.000

$$$$

  -OEChem-04052303243D

 85 94  0     1  0  0  0  0  0999 V2000
  -28.0954  -38.3425   22.0578 C   0  0  0  0  0  0  0  0  0  0  0  0
  -28.4426  -37.3014   21.2028 C   0  0  0  0  0  0  0  0  0  0  0  0
  -23.2294   -9.7550   21.5485 C   0  0  0  0  0  0  0  0  0  0  0  0
  -23.8816  -10.8577   23.5969 C   0  0  0  0  0  0  0  0  0  0  0  0
  -27.6744  -38.0647   23.3576 C   0  0  0  0  0  0  0  0  0  0  0  0
  -28.3701  -35.9818   21.6475 C   0  0  0  0  0  0  0  0  0  0  0  0
  -26.9644  -29.3651   19.2898 C   0  0  0  0  0  0  0  0  0  0  0  0
  -22.5566   -8.7815   22.2868 C   0  0  0  0  0  0  0  0  0  0  0  0
  -23.2087   -9.8841   24.3352 C   0  0  0  0  0  0  0  0  0  0  0  0
  -27.5174  -28.0853   19.2793 C   0  0  0  0  0  0  0  0  0  0  0  0
  -23.3434   -6.0103   24.0548 C   0  0  0  0  0  0  0  0  0  0  0  0
  -23.5241   -4.6775   23.6851 C   0  0  0  0  0  0  0  0  0  0  0  0
  -26.7007  -27.7206   21.5196 C   0  0  0  0  0  0  0  0  0  0  0  0
  -31.3076  -18.1007   19.7238 C   0  0  0  0  0  0  0  0  0  0  0  0
  -21.1524   -4.4699   23.2742 C   0  0  0  0  0  0  0  0  0  0  0  0
  -23.8920  -10.7931   22.2036 C   0  0  0  0  0  0  0  0  0  0  0  0
  -24.0633  -13.0115   20.9559 C   0  0  0  0  0  0  0  0  0  0  0  0
  -27.5875  -36.7405   23.8154 C   0  0  0  0  0  0  0  0  0  0  0  0
  -26.2837  -29.8371   20.4212 C   0  0  0  0  0  0  0  0  0  0  0  0
  -27.9489  -35.6861   22.9551 C   0  0  0  0  0  0  0  0  0  0  0  0
  -26.1378  -29.0058   21.5410 C   0  0  0  0  0  0  0  0  0  0  0  0
  -31.2777  -19.5251   19.7432 C   0  0  0  0  0  0  0  0  0  0  0  0
  -22.5462   -8.8460   23.6801 C   0  0  0  0  0  0  0  0  0  0  0  0
  -27.3881  -27.2639   20.3954 C   0  0  0  0  0  0  0  0  0  0  0  0
  -22.0671   -6.5728   24.0343 C   0  0  0  0  0  0  0  0  0  0  0  0
  -22.4286   -3.9073   23.2947 C   0  0  0  0  0  0  0  0  0  0  0  0
  -20.9716   -5.8027   23.6439 C   0  0  0  0  0  0  0  0  0  0  0  0
  -24.5878  -11.7987   21.4415 C   0  0  0  0  0  0  0  0  0  0  0  0
  -30.0815  -20.0110   20.2232 C   0  0  0  0  0  0  0  0  0  0  0  0
  -25.1164  -13.6039   20.3027 C   0  0  0  0  0  0  0  0  0  0  0  0
  -30.1330  -17.5522   20.1899 C   0  0  0  0  0  0  0  0  0  0  0  0
  -29.3671  -23.3453   22.1230 C   0  0  0  0  0  0  0  0  0  0  0  0
  -28.3757  -23.8700   21.3683 C   0  0  0  0  0  0  0  0  0  0  0  0
  -22.7424  -13.5542   21.0838 C   0  0  0  0  0  0  0  0  0  0  0  0
  -26.7137  -32.2393   22.4579 C   0  0  0  0  0  0  0  0  0  0  0  0
  -23.8454  -31.2594   23.6133 C   0  0  0  0  0  0  0  0  0  0  0  0
  -21.5739  -28.7374   23.9694 C   0  0  0  0  0  0  0  0  0  0  0  0
  -30.4835  -15.0622   20.0360 C   0  0  0  0  0  0  0  0  0  0  0  0
  -27.1723  -36.4920   25.2439 C   0  0  0  0  0  0  0  0  0  0  0  0
  -25.6698  -31.2101   20.4067 C   0  0  0  0  0  0  0  0  0  0  0  0
  -25.3988  -29.4576   22.7731 C   0  0  0  0  0  0  0  0  0  0  0  0
  -29.9736  -21.9888   21.8074 C   0  0  0  0  0  0  0  0  0  0  0  0
  -27.7889  -23.1016   20.2108 C   0  0  0  0  0  0  0  0  0  0  0  0
  -26.7648  -35.0465   25.5171 C   0  0  0  0  0  0  0  0  0  0  0  0
  -29.6480  -11.7574   19.0076 C   0  0  0  0  0  0  0  0  0  0  0  0
  -27.7825  -34.0822   24.9162 C   0  0  0  0  0  0  0  0  0  0  0  0
  -28.2139  -11.5733   19.5092 C   0  0  0  0  0  0  0  0  0  0  0  0
  -30.4893  -12.5778   19.9838 C   0  0  0  0  0  0  0  0  0  0  0  0
  -28.4758  -13.6873   20.8692 C   0  0  0  0  0  0  0  0  0  0  0  0
  -27.8596  -34.2402   23.3928 C   0  0  1  0  0  0  0  0  0  0  0  0
  -29.6447  -21.4482   20.4055 C   0  0  2  0  0  0  0  0  0  0  0  0
  -25.4419  -31.7775   21.8044 C   0  0  1  0  0  0  0  0  0  0  0  0
  -27.5720  -12.9223   19.8886 C   0  0  2  0  0  0  0  0  0  0  0  0
  -32.4079  -20.3738   19.2967 C   0  0  0  0  0  0  0  0  0  0  0  0
  -29.9640  -24.0006   23.3397 C   0  0  0  0  0  0  0  0  0  0  0  0
  -19.3414  -28.2275   24.9956 C   0  0  0  0  0  0  0  0  0  0  0  0
  -25.1503  -31.0991   26.3668 C   0  0  0  0  0  0  0  0  0  0  0  0
  -23.2087  -29.7147   27.1295 C   0  0  0  0  0  0  0  0  0  0  0  0
  -22.8411  -32.0593   26.3610 C   0  0  0  0  0  0  0  0  0  0  0  0
  -20.3747  -28.1182   21.3355 C   0  0  0  0  0  0  0  0  0  0  0  0
  -27.7571  -25.2266   21.5656 C   0  0  0  0  0  0  0  0  0  1  0  0
  -23.3966  -30.2710   24.6624 C   0  0  1  0  0  0  0  0  0  0  0  0
  -20.0729  -28.6949   23.7469 C   0  0  2  0  0  0  0  0  0  0  0  0
  -23.6649  -30.7779   26.1076 C   0  0  0  0  0  0  0  0  0  0  0  0
  -25.8740  -11.6292   21.1239 N   0  0  0  0  0  0  0  0  0  0  0  0
  -26.1666  -12.7432   20.4315 N   0  0  0  0  0  0  0  0  0  0  0  0
  -24.8218  -30.8107   22.7127 N   0  0  0  0  0  0  0  0  0  0  0  0
  -29.8209  -13.8435   20.2938 N   0  0  0  0  0  0  0  0  0  0  0  0
  -25.2373  -14.7717   19.6364 N   0  0  0  0  0  0  0  0  0  0  0  0
  -21.7815  -12.8148   21.7869 N   0  0  0  0  0  0  0  0  0  0  0  0
  -29.7370  -16.2000   20.3405 N   0  0  0  0  0  0  0  0  0  0  0  0
  -26.7338  -33.5877   22.7594 N   0  0  0  0  0  0  0  0  0  0  0  0
  -21.9942  -29.9848   24.3802 N   0  0  0  0  0  0  0  0  0  0  0  0
  -28.1757  -21.6562   20.1684 N   0  3  0  0  0  0  0  0  0  0  0  0
  -19.7407  -27.7641   22.6315 N   0  3  0  0  0  0  0  0  0  0  0  0
  -22.4192  -14.6544   20.5752 O   0  0  0  0  0  0  0  0  0  0  0  0
  -27.6097  -31.4318   22.6739 O   0  0  0  0  0  0  0  0  0  0  0  0
  -23.3428  -32.3857   23.5893 O   0  0  0  0  0  0  0  0  0  0  0  0
  -22.3004  -27.7607   23.7996 O   0  0  0  0  0  0  0  0  0  0  0  0
  -31.6183  -15.0944   19.5532 O   0  0  0  0  0  0  0  0  0  0  0  0
  -21.8894   -7.8964   24.4008 O   0  0  0  0  0  0  0  0  0  0  0  0
  -27.9274  -26.0145   20.3880 O   0  0  0  0  0  0  0  0  0  1  0  0
  -22.6025   -2.6279   22.9383 F   0  0  0  0  0  0  0  0  0  0  0  0
  -19.7433   -6.3379   23.6211 F   0  0  0  0  0  0  0  0  0  0  0  0
  -29.0008  -18.7524   20.6480 S   0  0  0  0  0  0  0  0  0  0  0  0
  1  2  1  0  0  0  0
  1  5  2  0  0  0  0
  2  6  2  0  0  0  0
  3  8  2  0  0  0  0
  3 16  1  0  0  0  0
  4  9  1  0  0  0  0
  4 16  2  0  0  0  0
  5 18  1  0  0  0  0
  6 20  1  0  0  0  0
  7 10  2  0  0  0  0
  7 19  1  0  0  0  0
  8 23  1  0  0  0  0
  9 23  2  0  0  0  0
 10 24  1  0  0  0  0
 11 12  2  0  0  0  0
 11 25  1  0  0  0  0
 12 26  1  0  0  0  0
 13 21  1  0  0  0  0
 13 24  2  0  0  0  0
 14 22  1  0  0  0  0
 14 31  2  0  0  0  0
 15 26  2  0  0  0  0
 15 27  1  0  0  0  0
 16 28  1  0  0  0  0
 17 28  1  0  0  0  0
 17 30  2  0  0  0  0
 17 34  1  0  0  0  0
 18 20  2  0  0  0  0
 18 39  1  0  0  0  0
 19 21  2  0  0  0  0
 19 40  1  0  0  0  0
 20 50  1  0  0  0  0
 21 41  1  0  0  0  0
 22 29  2  0  0  0  0
 22 54  1  0  0  0  0
 23 81  1  0  0  0  0
 24 82  1  0  0  0  0
 25 27  2  0  0  0  0
 25 81  1  0  0  0  0
 26 83  1  0  0  0  0
 27 84  1  0  0  0  0
 28 65  2  0  0  0  0
 29 51  1  0  0  0  0
 29 85  1  0  0  0  0
 30 66  1  0  0  0  0
 30 69  1  0  0  0  0
 31 71  1  0  0  0  0
 31 85  1  0  0  0  0
 32 33  2  0  0  0  0
 32 42  1  0  0  0  0
 32 55  1  0  0  0  0
 33 43  1  0  0  0  0
 33 61  1  0  0  0  0
 34 70  1  0  0  0  0
 34 76  2  0  0  0  0
 35 52  1  0  0  0  0
 35 72  1  0  0  0  0
 35 77  2  0  0  0  0
 36 62  1  0  0  0  0
 36 67  1  0  0  0  0
 36 78  2  0  0  0  0
 37 63  1  0  0  0  0
 37 73  1  0  0  0  0
 37 79  2  0  0  0  0
 38 68  1  0  0  0  0
 38 71  1  0  0  0  0
 38 80  2  0  0  0  0
 39 44  1  0  0  0  0
 40 52  1  0  0  0  0
 41 67  1  0  0  0  0
 42 51  1  0  0  0  0
 43 74  1  0  0  0  0
 44 46  1  0  0  0  0
 45 47  1  0  0  0  0
 45 48  1  0  0  0  0
 46 50  1  0  0  0  0
 47 53  1  0  0  0  0
 48 68  1  0  0  0  0
 49 53  1  0  0  0  0
 49 68  1  0  0  0  0
 50 72  1  0  0  0  0
 51 74  1  0  0  0  0
 52 67  1  0  0  0  0
 53 66  1  0  0  0  0
 56 63  1  0  0  0  0
 57 64  1  0  0  0  0
 58 64  1  0  0  0  0
 59 64  1  0  0  0  0
 60 75  1  0  0  0  0
 61 82  1  0  0  0  0
 62 64  1  0  0  0  0
 62 73  1  0  0  0  0
 63 75  1  0  0  0  0
 65 66  1  0  0  0  0
M  CHG  2  74   1  75   1
M  ISO  4  38 100  61 101  71 100  82 101
M  END
> <Batch ID>
0151

> <Smiles>
CNC(C)C(=O)NC(C(=O)N1Cc2cc([101O:1][101CH2:1]C3=C(C)CC(c4sc([100NH:0][100C:0](=O)N5CCCC(n6nc(-c7ccc(Oc8ccc(F)cc8F)cc7)c(C(N)=O)c6N)C5)cc4C)NC3)ccc2CC1C(=O)NC1CCCc2ccccc21)C(C)(C)C

> <Shape>
0.351

> <Color>
0.184

> <Negative vol penalty>
0.000

$$$$

  -OEChem-04052303243D

 84 94  0     1  0  0  0  0  0999 V2000
  -33.9235  -27.4997   32.8258 C   0  0  0  0  0  0  0  0  0  0  0  0
  -33.6062  -26.3233   32.1544 C   0  0  0  0  0  0  0  0  0  0  0  0
  -22.6669  -10.1972   20.1653 C   0  0  0  0  0  0  0  0  0  0  0  0
  -24.3243   -9.4108   21.7375 C   0  0  0  0  0  0  0  0  0  0  0  0
  -34.7261  -28.4584   32.2089 C   0  0  0  0  0  0  0  0  0  0  0  0
  -34.0906  -26.1054   30.8650 C   0  0  0  0  0  0  0  0  0  0  0  0
  -35.7611  -20.7462   28.4167 C   0  0  0  0  0  0  0  0  0  0  0  0
  -21.9330   -9.0260   20.3531 C   0  0  0  0  0  0  0  0  0  0  0  0
  -23.5903   -8.2396   21.9254 C   0  0  0  0  0  0  0  0  0  0  0  0
  -35.0994  -19.8521   27.5763 C   0  0  0  0  0  0  0  0  0  0  0  0
  -20.8482   -7.2694   23.6458 C   0  0  0  0  0  0  0  0  0  0  0  0
  -20.6675   -6.8225   24.9547 C   0  0  0  0  0  0  0  0  0  0  0  0
  -36.1818  -20.8544   25.6676 C   0  0  0  0  0  0  0  0  0  0  0  0
  -21.7893   -4.7549   24.4037 C   0  0  0  0  0  0  0  0  0  0  0  0
  -23.8626  -10.3896   20.8575 C   0  0  0  0  0  0  0  0  0  0  0  0
  -24.1962  -12.9181   20.9098 C   0  0  0  0  0  0  0  0  0  0  0  0
  -35.2285  -28.2479   30.9151 C   0  0  0  0  0  0  0  0  0  0  0  0
  -36.6312  -21.7099   27.8871 C   0  0  0  0  0  0  0  0  0  0  0  0
  -34.8996  -27.0628   30.2297 C   0  0  0  0  0  0  0  0  0  0  0  0
  -36.8553  -21.7580   26.5037 C   0  0  0  0  0  0  0  0  0  0  0  0
  -22.3947   -8.0472   21.2332 C   0  0  0  0  0  0  0  0  0  0  0  0
  -35.3075  -19.9079   26.2012 C   0  0  0  0  0  0  0  0  0  0  0  0
  -21.4993   -6.4590   22.7158 C   0  0  0  0  0  0  0  0  0  0  0  0
  -21.1381   -5.5653   25.3337 C   0  0  0  0  0  0  0  0  0  0  0  0
  -21.9699   -5.2018   23.0947 C   0  0  0  0  0  0  0  0  0  0  0  0
  -24.6215  -11.5989   20.6634 C   0  0  0  0  0  0  0  0  0  0  0  0
  -25.2756  -13.6961   20.5690 C   0  0  0  0  0  0  0  0  0  0  0  0
  -22.9380  -13.3974   21.4026 C   0  0  0  0  0  0  0  0  0  0  0  0
  -36.7041  -24.8875   27.8496 C   0  0  0  0  0  0  0  0  0  0  0  0
  -39.6049  -24.4164   26.4764 C   0  0  0  0  0  0  0  0  0  0  0  0
  -41.6683  -22.3623   24.6960 C   0  0  0  0  0  0  0  0  0  0  0  0
  -30.7608  -14.7204   20.6664 C   0  0  0  0  0  0  0  0  0  0  0  0
  -36.0533  -29.3340   30.2710 C   0  0  0  0  0  0  0  0  0  0  0  0
  -37.3579  -22.6499   28.8095 C   0  0  0  0  0  0  0  0  0  0  0  0
  -37.7950  -22.7605   25.8870 C   0  0  0  0  0  0  0  0  0  0  0  0
  -36.8345  -28.8611   29.0478 C   0  0  0  0  0  0  0  0  0  0  0  0
  -28.6836  -19.5718   20.4349 C   0  0  0  0  0  0  0  0  0  0  0  0
  -29.0343  -20.5874   21.5101 C   0  0  0  0  0  0  0  0  0  0  0  0
  -29.5560  -12.5096   18.1489 C   0  0  0  0  0  0  0  0  0  0  0  0
  -35.9390  -28.0370   28.1282 C   0  0  0  0  0  0  0  0  0  0  0  0
  -29.0656  -18.1709   20.8858 C   0  0  0  0  0  0  0  0  0  0  0  0
  -28.1328  -12.1799   18.6023 C   0  0  0  0  0  0  0  0  0  0  0  0
  -30.5279  -20.5625   21.8056 C   0  0  0  0  0  0  0  0  0  0  0  0
  -31.8922  -19.0637   24.4652 C   0  0  0  0  0  0  0  0  0  0  0  0
  -30.4786  -17.1630   23.4845 C   0  0  0  0  0  0  0  0  0  0  0  0
  -32.6447  -19.2590   22.1911 C   0  0  0  0  0  0  0  0  0  0  0  0
  -30.5085  -12.6470   19.3346 C   0  0  0  0  0  0  0  0  0  0  0  0
  -28.6481  -13.2688   20.8266 C   0  0  0  0  0  0  0  0  0  0  0  0
  -35.4263  -26.7790   28.8397 C   0  0  1  0  0  0  0  0  0  0  0  0
  -37.8268  -23.9249   28.1153 C   0  0  1  0  0  0  0  0  0  0  0  0
  -30.5630  -18.0438   21.2335 C   0  0  2  0  0  0  0  0  0  0  0  0
  -30.7000  -18.6883   23.5884 C   0  0  2  0  0  0  0  0  0  0  0  0
  -33.0985  -18.7879   23.5772 C   0  0  1  0  0  0  0  0  0  0  0  0
  -27.6392  -13.1757   19.6691 C   0  0  2  0  0  0  0  0  0  0  0  0
  -30.8601  -16.7765   22.0527 C   0  0  2  0  0  0  0  0  0  0  0  0
  -31.0843  -19.1701   22.1628 C   0  0  2  0  0  0  0  0  0  0  0  0
  -43.9664  -22.2678   23.6923 C   0  0  0  0  0  0  0  0  0  0  0  0
  -38.6839  -26.2309   24.2028 C   0  0  0  0  0  0  0  0  0  0  0  0
  -40.5802  -25.3507   22.8253 C   0  0  0  0  0  0  0  0  0  0  0  0
  -41.0469  -26.5951   24.9363 C   0  0  0  0  0  0  0  0  0  0  0  0
  -42.4315  -20.0460   26.3726 C   0  0  0  0  0  0  0  0  0  0  0  0
  -34.3621  -19.4818   24.0610 C   0  0  0  0  0  0  0  0  0  1  0  0
  -40.1038  -24.2527   25.0611 C   0  0  1  0  0  0  0  0  0  0  0  0
  -43.1143  -21.9538   24.9122 C   0  0  2  0  0  0  0  0  0  0  0  0
  -40.0845  -25.5896   24.2675 C   0  0  0  0  0  0  0  0  0  0  0  0
  -25.8734  -11.5384   20.2017 N   0  0  0  0  0  0  0  0  0  0  0  0
  -26.2440  -12.8294   20.1551 N   0  0  0  0  0  0  0  0  0  0  0  0
  -38.4772  -23.6621   26.8300 N   0  0  0  0  0  0  0  0  0  0  0  0
  -29.9831  -13.6068   20.3086 N   0  0  0  0  0  0  0  0  0  0  0  0
  -25.4814  -15.0302   20.5860 N   0  0  0  0  0  0  0  0  0  0  0  0
  -22.7737  -13.5412   22.7870 N   0  0  0  0  0  0  0  0  0  0  0  0
  -36.4606  -25.7679   28.8865 N   0  0  0  0  0  0  0  0  0  0  0  0
  -41.4224  -23.6366   25.1617 N   0  0  0  0  0  0  0  0  0  0  0  0
  -30.1856  -15.5838   21.5908 N   0  0  0  0  0  0  0  0  0  0  0  0
  -43.2042  -20.4914   25.1845 N   0  3  0  0  0  0  0  0  0  0  0  0
  -21.9821  -13.6740   20.6389 O   0  0  0  0  0  0  0  0  0  0  0  0
  -36.1042  -24.8364   26.7823 O   0  0  0  0  0  0  0  0  0  0  0  0
  -40.1984  -25.1799   27.2423 O   0  0  0  0  0  0  0  0  0  0  0  0
  -40.8406  -21.6261   24.1635 O   0  0  0  0  0  0  0  0  0  0  0  0
  -31.8823  -14.9326   20.1929 O   0  0  0  0  0  0  0  0  0  0  0  0
  -21.6786   -6.9044   21.4169 O   0  0  0  0  0  0  0  0  0  0  0  0
  -34.6569  -19.0294   25.3716 O   0  0  0  0  0  0  0  0  0  1  0  0
  -20.9659   -5.1369   26.5911 F   0  0  0  0  0  0  0  0  0  0  0  0
  -22.5973   -4.4192   22.2060 F   0  0  0  0  0  0  0  0  0  0  0  0
  1  2  1  0  0  0  0
  1  5  2  0  0  0  0
  2  6  2  0  0  0  0
  3  8  2  0  0  0  0
  3 15  1  0  0  0  0
  4  9  1  0  0  0  0
  4 15  2  0  0  0  0
  5 17  1  0  0  0  0
  6 19  1  0  0  0  0
  7 10  2  0  0  0  0
  7 18  1  0  0  0  0
  8 21  1  0  0  0  0
  9 21  2  0  0  0  0
 10 22  1  0  0  0  0
 11 12  2  0  0  0  0
 11 23  1  0  0  0  0
 12 24  1  0  0  0  0
 13 20  1  0  0  0  0
 13 22  2  0  0  0  0
 14 24  2  0  0  0  0
 14 25  1  0  0  0  0
 15 26  1  0  0  0  0
 16 26  1  0  0  0  0
 16 27  2  0  0  0  0
 16 28  1  0  0  0  0
 17 19  2  0  0  0  0
 17 33  1  0  0  0  0
 18 20  2  0  0  0  0
 18 34  1  0  0  0  0
 19 49  1  0  0  0  0
 20 35  1  0  0  0  0
 21 81  1  0  0  0  0
 22 82  1  0  0  0  0
 23 25  2  0  0  0  0
 23 81  1  0  0  0  0
 24 83  1  0  0  0  0
 25 84  1  0  0  0  0
 26 66  2  0  0  0  0
 27 67  1  0  0  0  0
 27 70  1  0  0  0  0
 28 71  1  0  0  0  0
 28 76  2  0  0  0  0
 29 50  1  0  0  0  0
 29 72  1  0  0  0  0
 29 77  2  0  0  0  0
 30 63  1  0  0  0  0
 30 68  1  0  0  0  0
 30 78  2  0  0  0  0
 31 64  1  0  0  0  0
 31 73  1  0  0  0  0
 31 79  2  0  0  0  0
 32 69  1  0  0  0  0
 32 74  1  0  0  0  0
 32 80  2  0  0  0  0
 33 36  1  0  0  0  0
 34 50  1  0  0  0  0
 35 68  1  0  0  0  0
 36 40  1  0  0  0  0
 37 38  1  0  0  0  0
 37 41  1  0  0  0  0
 38 43  1  0  0  0  0
 39 42  1  0  0  0  0
 39 47  1  0  0  0  0
 40 49  1  0  0  0  0
 41 51  1  0  0  0  0
 42 54  1  0  0  0  0
 43 56  1  0  0  0  0
 44 52  1  0  0  0  0
 44 53  1  0  0  0  0
 45 52  1  0  0  0  0
 45 55  1  0  0  0  0
 46 53  1  0  0  0  0
 46 56  1  0  0  0  0
 47 69  1  0  0  0  0
 48 54  1  0  0  0  0
 48 69  1  0  0  0  0
 49 72  1  0  0  0  0
 50 68  1  0  0  0  0
 51 55  1  0  0  0  0
 51 56  1  0  0  0  0
 52 56  1  0  0  0  0
 53 62  1  0  0  0  0
 54 67  1  0  0  0  0
 55 74  1  0  0  0  0
 57 64  1  0  0  0  0
 58 65  1  0  0  0  0
 59 65  1  0  0  0  0
 60 65  1  0  0  0  0
 61 75  1  0  0  0  0
 62 82  1  0  0  0  0
 63 65  1  0  0  0  0
 63 73  1  0  0  0  0
 64 75  1  0  0  0  0
 66 67  1  0  0  0  0
M  CHG  1  75   1
M  ISO  4  32 100  62 101  74 100  82 101
M  END
> <Batch ID>
0151

> <Smiles>
CNC(C)C(=O)NC(C(=O)N1Cc2cc([101O:1][101CH2:1]C3CC4CC([100NH:0][100C:0](=O)N5CCCC(n6nc(-c7ccc(Oc8ccc(F)cc8F)cc7)c(C(N)=O)c6N)C5)C5CCCCC45C3)ccc2CC1C(=O)NC1CCCc2ccccc21)C(C)(C)C

> <Shape>
0.208

> <Color>
0.179

> <Negative vol penalty>
0.000

$$$$
