
  -OEChem-04052303273D

 86 95  0     1  0  0  0  0  0999 V2000
  -19.6648  -24.4222   20.7545 C   0  0  0  0  0  0  0  0  0  0  0  0
  -20.5054  -25.1999   19.9646 C   0  0  0  0  0  0  0  0  0  0  0  0
  -28.2380  -16.6022   22.0945 C   0  0  0  0  0  0  0  0  0  0  0  0
  -27.5690  -16.5119   19.7747 C   0  0  0  0  0  0  0  0  0  0  0  0
  -18.9791  -25.0018   21.8212 C   0  0  0  0  0  0  0  0  0  0  0  0
  -20.6600  -26.5581   20.2402 C   0  0  0  0  0  0  0  0  0  0  0  0
  -25.5002  -28.0370   20.0672 C   0  0  0  0  0  0  0  0  0  0  0  0
  -26.9472  -16.2414   22.4808 C   0  0  0  0  0  0  0  0  0  0  0  0
  -26.2782  -16.1511   20.1610 C   0  0  0  0  0  0  0  0  0  0  0  0
  -26.0603  -28.2366   18.8061 C   0  0  0  0  0  0  0  0  0  0  0  0
  -24.6780  -13.3600   21.1952 C   0  0  0  0  0  0  0  0  0  0  0  0
  -24.0642  -12.3159   20.5034 C   0  0  0  0  0  0  0  0  0  0  0  0
  -30.3232  -26.4209   16.1399 C   0  0  0  0  0  0  0  0  0  0  0  0
  -25.7277  -30.6142   19.0414 C   0  0  0  0  0  0  0  0  0  0  0  0
  -31.4010  -28.5755   15.6974 C   0  0  0  0  0  0  0  0  0  0  0  0
  -22.2874  -13.8076   19.8289 C   0  0  0  0  0  0  0  0  0  0  0  0
  -28.5489  -16.7375   20.7414 C   0  0  0  0  0  0  0  0  0  0  0  0
  -30.9592  -16.2478   20.0644 C   0  0  0  0  0  0  0  0  0  0  0  0
  -19.1328  -26.3657   22.1160 C   0  0  0  0  0  0  0  0  0  0  0  0
  -25.0389  -29.1254   20.8215 C   0  0  0  0  0  0  0  0  0  0  0  0
  -19.9747  -27.1568   21.3110 C   0  0  0  0  0  0  0  0  0  0  0  0
  -31.5769  -25.8719   16.1010 C   0  0  0  0  0  0  0  0  0  0  0  0
  -25.1645  -30.4260   20.3128 C   0  0  0  0  0  0  0  0  0  0  0  0
  -32.6961  -26.6417   15.8848 C   0  0  0  0  0  0  0  0  0  0  0  0
  -30.2406  -27.8034   15.9395 C   0  0  0  0  0  0  0  0  0  0  0  0
  -32.6667  -27.9831   15.6624 C   0  0  0  0  0  0  0  0  0  0  0  0
  -25.9673  -16.0158   21.5141 C   0  0  0  0  0  0  0  0  0  0  0  0
  -26.1714  -29.5251   18.2918 C   0  0  0  0  0  0  0  0  0  0  0  0
  -24.0966  -14.6279   21.2040 C   0  0  0  0  0  0  0  0  0  0  0  0
  -22.8688  -12.5397   19.8202 C   0  0  0  0  0  0  0  0  0  0  0  0
  -22.9012  -14.8516   20.5208 C   0  0  0  0  0  0  0  0  0  0  0  0
  -29.8820  -17.1106   20.3417 C   0  0  0  0  0  0  0  0  0  0  0  0
  -31.9946  -17.0870   19.7323 C   0  0  0  0  0  0  0  0  0  0  0  0
  -31.0187  -14.8158   20.1035 C   0  0  0  0  0  0  0  0  0  0  0  0
  -22.2150  -30.0190   21.9751 C   0  0  0  0  0  0  0  0  0  0  0  0
  -23.9696  -32.3482   23.3959 C   0  0  0  0  0  0  0  0  0  0  0  0
  -26.8050  -34.2475   23.3954 C   0  0  0  0  0  0  0  0  0  0  0  0
  -31.8751  -22.6218   17.5070 C   0  0  0  0  0  0  0  0  0  0  0  0
  -18.3343  -26.9577   23.2503 C   0  0  0  0  0  0  0  0  0  0  0  0
  -24.4617  -28.8957   22.1913 C   0  0  0  0  0  0  0  0  0  0  0  0
  -24.7030  -31.6300   21.0912 C   0  0  0  0  0  0  0  0  0  0  0  0
  -18.8428  -28.3232   23.7055 C   0  0  0  0  0  0  0  0  0  0  0  0
  -33.6753  -21.4747   20.5272 C   0  0  0  0  0  0  0  0  0  0  0  0
  -19.1052  -29.2234   22.5023 C   0  0  0  0  0  0  0  0  0  0  0  0
  -32.9474  -20.1669   20.8211 C   0  0  0  0  0  0  0  0  0  0  0  0
  -32.7480  -22.5251   19.9170 C   0  0  0  0  0  0  0  0  0  0  0  0
  -31.2979  -20.7344   18.9974 C   0  0  0  0  0  0  0  0  0  0  0  0
  -20.1876  -28.6282   21.5936 C   0  0  1  0  0  0  0  0  0  0  0  0
  -32.4345  -24.6448   16.1268 C   0  0  1  0  0  0  0  0  0  0  0  0
  -23.5546  -30.0311   22.6556 C   0  0  1  0  0  0  0  0  0  0  0  0
  -32.2303  -19.6531   19.5638 C   0  0  2  0  0  0  0  0  0  0  0  0
  -27.9400  -36.0931   24.6616 C   0  0  0  0  0  0  0  0  0  0  0  0
  -22.0553  -34.3740   22.1544 C   0  0  0  0  0  0  0  0  0  0  0  0
  -23.7417  -36.1600   22.6389 C   0  0  0  0  0  0  0  0  0  0  0  0
  -22.7163  -34.8736   24.5141 C   0  0  0  0  0  0  0  0  0  0  0  0
  -26.5253  -29.3409   14.7244 C   0  0  0  0  0  0  0  0  0  0  0  0
  -25.2232  -27.9714   16.3676 C   0  0  0  0  0  0  0  0  0  0  0  0
  -34.7248  -25.4075   15.2309 C   0  0  0  0  0  0  0  0  0  0  0  0
  -29.1329  -32.5351   24.0338 C   0  0  0  0  0  0  0  0  0  0  0  0
  -27.7593  -27.7251   16.1905 C   0  0  0  0  0  0  0  0  0  0  0  0
  -24.4067  -33.7415   23.0130 C   0  0  1  0  0  0  0  0  0  0  0  0
  -27.7893  -34.5885   24.4997 C   0  0  2  0  0  0  0  0  0  0  0  0
  -23.2370  -34.7646   23.0643 C   0  0  0  0  0  0  0  0  0  0  0  0
  -26.5561  -28.6768   16.1036 C   0  0  0  0  0  0  0  0  0  1  0  0
  -30.2033  -18.3992   20.1984 N   0  0  0  0  0  0  0  0  0  0  0  0
  -31.4941  -18.3522   19.8275 N   0  0  0  0  0  0  0  0  0  0  0  0
  -33.5222  -25.5932   15.9931 N   0  0  1  0  0  0  0  0  0  0  0  0
  -24.1398  -31.3531   22.4230 N   0  0  0  0  0  0  0  0  0  0  0  0
  -32.0117  -21.9948   18.7585 N   0  0  0  0  0  0  0  0  0  0  0  0
  -33.8221  -28.7367   15.4322 N   0  0  0  0  0  0  0  0  0  0  0  0
  -33.2752  -16.8587   19.3712 N   0  0  0  0  0  0  0  0  0  0  0  0
  -29.8637  -14.1088   20.4649 N   0  0  0  0  0  0  0  0  0  0  0  0
  -29.0039  -28.4256   15.9650 N   0  0  0  0  0  0  0  0  0  0  0  0
  -21.5009  -28.8505   22.1594 N   0  0  0  0  0  0  0  0  0  0  0  0
  -25.5282  -34.0719   23.8855 N   0  0  0  0  0  0  0  0  0  0  0  0
  -32.4954  -23.8606   17.3772 N   0  0  0  0  0  0  0  0  0  0  0  0
  -29.1294  -34.0119   24.1954 N   0  3  0  0  0  0  0  0  0  0  0  0
  -32.0695  -14.1827   19.8421 O   0  0  0  0  0  0  0  0  0  0  0  0
  -21.8553  -30.9981   21.3319 O   0  0  0  0  0  0  0  0  0  0  0  0
  -23.5013  -32.1488   24.5196 O   0  0  0  0  0  0  0  0  0  0  0  0
  -27.1351  -34.1507   22.2155 O   0  0  0  0  0  0  0  0  0  0  0  0
  -31.2414  -22.1227   16.5708 O   0  0  0  0  0  0  0  0  0  0  0  0
  -24.7077  -15.6636   21.8906 O   0  0  0  0  0  0  0  0  0  0  0  0
  -26.7171  -29.7227   17.0609 O   0  0  0  0  0  0  0  0  0  1  0  0
  -22.2802  -11.5373   19.1546 F   0  0  0  0  0  0  0  0  0  0  0  0
  -22.3385  -16.0678   20.5245 F   0  0  0  0  0  0  0  0  0  0  0  0
  1  2  1  0  0  0  0
  1  5  2  0  0  0  0
  2  6  2  0  0  0  0
  3  8  2  0  0  0  0
  3 17  1  0  0  0  0
  4  9  1  0  0  0  0
  4 17  2  0  0  0  0
  5 19  1  0  0  0  0
  6 21  1  0  0  0  0
  7 10  2  0  0  0  0
  7 20  1  0  0  0  0
  8 27  1  0  0  0  0
  9 27  2  0  0  0  0
 10 28  1  0  0  0  0
 11 12  2  0  0  0  0
 11 29  1  0  0  0  0
 12 30  1  0  0  0  0
 13 22  1  0  0  0  0
 13 25  2  0  0  0  0
 14 23  1  0  0  0  0
 14 28  2  0  0  0  0
 15 25  1  0  0  0  0
 15 26  2  0  0  0  0
 16 30  2  0  0  0  0
 16 31  1  0  0  0  0
 17 32  1  0  0  0  0
 18 32  1  0  0  0  0
 18 33  2  0  0  0  0
 18 34  1  0  0  0  0
 19 21  2  0  0  0  0
 19 39  1  0  0  0  0
 20 23  2  0  0  0  0
 20 40  1  0  0  0  0
 21 48  1  0  0  0  0
 22 24  2  0  0  0  0
 22 49  1  0  0  0  0
 23 41  1  0  0  0  0
 24 26  1  0  0  0  0
 24 67  1  0  0  0  0
 25 73  1  0  0  0  0
 26 70  1  0  0  0  0
 27 83  1  0  0  0  0
 28 84  1  0  0  0  0
 29 31  2  0  0  0  0
 29 83  1  0  0  0  0
 30 85  1  0  0  0  0
 31 86  1  0  0  0  0
 32 65  2  0  0  0  0
 33 66  1  0  0  0  0
 33 71  1  0  0  0  0
 34 72  1  0  0  0  0
 34 78  2  0  0  0  0
 35 50  1  0  0  0  0
 35 74  1  0  0  0  0
 35 79  2  0  0  0  0
 36 61  1  0  0  0  0
 36 68  1  0  0  0  0
 36 80  2  0  0  0  0
 37 62  1  0  0  0  0
 37 75  1  0  0  0  0
 37 81  2  0  0  0  0
 38 69  1  0  0  0  0
 38 76  1  0  0  0  0
 38 82  2  0  0  0  0
 39 42  1  0  0  0  0
 40 50  1  0  0  0  0
 41 68  1  0  0  0  0
 42 44  1  0  0  0  0
 43 45  1  0  0  0  0
 43 46  1  0  0  0  0
 44 48  1  0  0  0  0
 45 51  1  0  0  0  0
 46 69  1  0  0  0  0
 47 51  1  0  0  0  0
 47 69  1  0  0  0  0
 48 74  1  0  0  0  0
 49 67  1  0  0  0  0
 49 76  1  0  0  0  0
 50 68  1  0  0  0  0
 51 66  1  0  0  0  0
 52 62  1  0  0  0  0
 53 63  1  0  0  0  0
 54 63  1  0  0  0  0
 55 63  1  0  0  0  0
 56 64  1  0  0  0  0
 57 64  1  0  0  0  0
 58 67  1  0  0  0  0
 59 77  1  0  0  0  0
 60 64  1  0  0  0  0
 60 73  1  0  0  0  0
 61 63  1  0  0  0  0
 61 75  1  0  0  0  0
 62 77  1  0  0  0  0
 64 84  1  0  0  0  0
 65 66  1  0  0  0  0
M  CHG  1  77   1
M  ISO  4  38 100  64 101  76 100  84 101
M  END
> <Batch ID>
0152

> <Smiles>
CNC(C)C(=O)NC(C(=O)N1Cc2cc([101O:1][101C:1](C)(C)CNc3cc(N)c4c(c3)C([100NH:0][100C:0](=O)N3CCCC(n5nc(-c6ccc(Oc7ccc(F)cc7F)cc6)c(C(N)=O)c5N)C3)N4C)ccc2CC1C(=O)NC1CCCc2ccccc21)C(C)(C)C

> <Shape>
0.224

> <Color>
0.107

> <Negative vol penalty>
0.000

$$$$

  -OEChem-04052303273D

 84 92  0     1  0  0  0  0  0999 V2000
  -27.4294  -34.4939   24.8058 C   0  0  0  0  0  0  0  0  0  0  0  0
  -28.2749  -33.7889   23.9551 C   0  0  0  0  0  0  0  0  0  0  0  0
  -22.9484  -10.0599   19.8971 C   0  0  0  0  0  0  0  0  0  0  0  0
  -23.9606   -9.6111   22.0445 C   0  0  0  0  0  0  0  0  0  0  0  0
  -26.3379  -33.8530   25.3902 C   0  0  0  0  0  0  0  0  0  0  0  0
  -28.0298  -32.4422   23.6892 C   0  0  0  0  0  0  0  0  0  0  0  0
  -28.6784  -27.5730   18.4751 C   0  0  0  0  0  0  0  0  0  0  0  0
  -22.2046   -8.8847   20.0021 C   0  0  0  0  0  0  0  0  0  0  0  0
  -23.2167   -8.4358   22.1495 C   0  0  0  0  0  0  0  0  0  0  0  0
  -29.2033  -26.3015   18.2480 C   0  0  0  0  0  0  0  0  0  0  0  0
  -21.3167   -5.5014   23.1479 C   0  0  0  0  0  0  0  0  0  0  0  0
  -20.6956   -5.2329   24.3676 C   0  0  0  0  0  0  0  0  0  0  0  0
  -27.2419  -25.3191   19.2516 C   0  0  0  0  0  0  0  0  0  0  0  0
  -19.4328   -7.2837   24.1761 C   0  0  0  0  0  0  0  0  0  0  0  0
  -31.3400  -19.3715   20.1958 C   0  0  0  0  0  0  0  0  0  0  0  0
  -23.8265  -10.4231   20.9183 C   0  0  0  0  0  0  0  0  0  0  0  0
  -29.7387  -18.6619   21.5773 C   0  0  0  0  0  0  0  0  0  0  0  0
  -24.2249  -12.9204   21.2535 C   0  0  0  0  0  0  0  0  0  0  0  0
  -26.0738  -32.5002   25.1238 C   0  0  0  0  0  0  0  0  0  0  0  0
  -27.4341  -27.7276   19.1031 C   0  0  0  0  0  0  0  0  0  0  0  0
  -26.9345  -31.7822   24.2717 C   0  0  0  0  0  0  0  0  0  0  0  0
  -26.7023  -26.5936   19.4832 C   0  0  0  0  0  0  0  0  0  0  0  0
  -30.0940  -19.6965   20.6792 C   0  0  0  0  0  0  0  0  0  0  0  0
  -22.3387   -8.0726   21.1282 C   0  0  0  0  0  0  0  0  0  0  0  0
  -28.4864  -25.1744   18.6389 C   0  0  0  0  0  0  0  0  0  0  0  0
  -20.9959   -6.6611   22.4423 C   0  0  0  0  0  0  0  0  0  0  0  0
  -19.7536   -6.1240   24.8817 C   0  0  0  0  0  0  0  0  0  0  0  0
  -20.0540   -7.5522   22.9564 C   0  0  0  0  0  0  0  0  0  0  0  0
  -24.5956  -11.6368   20.8102 C   0  0  0  0  0  0  0  0  0  0  0  0
  -30.7929  -17.7784   21.5785 C   0  0  0  0  0  0  0  0  0  0  0  0
  -25.2904  -13.7201   20.9193 C   0  0  0  0  0  0  0  0  0  0  0  0
  -28.5399  -18.5159   22.3506 C   0  0  0  0  0  0  0  0  0  0  0  0
  -23.0247  -13.3515   21.9088 C   0  0  0  0  0  0  0  0  0  0  0  0
  -26.4353  -29.0814   21.8000 C   0  0  0  0  0  0  0  0  0  0  0  0
  -23.5022  -28.3513   20.6227 C   0  0  0  0  0  0  0  0  0  0  0  0
  -29.7188  -21.8534   19.4379 C   0  0  0  0  0  0  0  0  0  0  0  0
  -21.6113  -26.3901   18.5673 C   0  0  0  0  0  0  0  0  0  0  0  0
  -30.7876  -14.6490   20.6673 C   0  0  0  0  0  0  0  0  0  0  0  0
  -24.9090  -31.8379   25.8161 C   0  0  0  0  0  0  0  0  0  0  0  0
  -26.8696  -29.1053   19.3167 C   0  0  0  0  0  0  0  0  0  0  0  0
  -25.3528  -26.7049   20.1427 C   0  0  0  0  0  0  0  0  0  0  0  0
  -24.5034  -30.5072   25.1877 C   0  0  0  0  0  0  0  0  0  0  0  0
  -29.3217  -12.7874   18.0098 C   0  0  0  0  0  0  0  0  0  0  0  0
  -25.7331  -29.6435   24.9262 C   0  0  0  0  0  0  0  0  0  0  0  0
  -27.9341  -12.4230   18.5405 C   0  0  0  0  0  0  0  0  0  0  0  0
  -30.3737  -12.7622   19.1165 C   0  0  0  0  0  0  0  0  0  0  0  0
  -28.6611  -13.2178   20.8292 C   0  0  0  0  0  0  0  0  0  0  0  0
  -26.6875  -30.3267   23.9393 C   0  0  1  0  0  0  0  0  0  0  0  0
  -25.8263  -29.1578   20.4286 C   0  0  1  0  0  0  0  0  0  0  0  0
  -27.5564  -13.2841   19.7608 C   0  0  2  0  0  0  0  0  0  0  0  0
  -27.8214  -19.7676   22.7966 C   0  0  0  0  0  0  0  0  0  0  0  0
  -19.2386  -26.0053   17.8465 C   0  0  0  0  0  0  0  0  0  0  0  0
  -22.9312  -26.9374   23.2656 C   0  0  0  0  0  0  0  0  0  0  0  0
  -20.9990  -25.7949   22.1568 C   0  0  0  0  0  0  0  0  0  0  0  0
  -21.0224  -28.2804   22.3673 C   0  0  0  0  0  0  0  0  0  0  0  0
  -22.2418  -27.0305   15.7475 C   0  0  0  0  0  0  0  0  0  0  0  0
  -31.0533  -16.5138   22.2832 C   0  0  0  0  0  0  0  0  0  0  0  0
  -28.6311  -22.9071   19.3419 C   0  0  0  0  0  0  0  0  0  1  0  0
  -22.5778  -27.1616   20.7178 C   0  0  1  0  0  0  0  0  0  0  0  0
  -20.5386  -26.7369   17.5507 C   0  0  2  0  0  0  0  0  0  0  0  0
  -21.9089  -27.0412   22.1162 C   0  0  0  0  0  0  0  0  0  0  0  0
  -25.8023  -11.6174   20.2379 N   0  0  0  0  0  0  0  0  0  0  0  0
  -26.1990  -12.8988   20.3193 N   0  0  0  0  0  0  0  0  0  0  0  0
  -24.8462  -28.0738   20.3356 N   0  0  0  0  0  0  0  0  0  0  0  0
  -29.9556  -13.5997   20.2433 N   0  0  0  0  0  0  0  0  0  0  0  0
  -25.5293  -15.0386   21.0831 N   0  0  0  0  0  0  0  0  0  0  0  0
  -22.0314  -12.3999   22.1773 N   0  0  0  0  0  0  0  0  0  0  0  0
  -29.3503  -20.8468   20.3239 N   0  0  0  0  0  0  0  0  0  0  0  0
  -26.1949  -30.1929   22.5851 N   0  0  0  0  0  0  0  0  0  0  0  0
  -21.6338  -27.2887   19.6128 N   0  0  0  0  0  0  0  0  0  0  0  0
  -30.3135  -15.3977   21.7376 N   0  0  0  0  0  0  0  0  0  0  0  0
  -20.9856  -26.3649   16.1786 N   0  3  0  0  0  0  0  0  0  0  0  0
  -28.0275  -17.4370   22.7002 O   0  0  0  0  0  0  0  0  0  0  0  0
  -22.8317  -14.5482   22.2316 O   0  0  0  0  0  0  0  0  0  0  0  0
  -27.0747  -28.0870   22.1226 O   0  0  0  0  0  0  0  0  0  0  0  0
  -23.0471  -29.4856   20.7897 O   0  0  0  0  0  0  0  0  0  0  0  0
  -30.7579  -21.9420   18.7921 O   0  0  0  0  0  0  0  0  0  0  0  0
  -22.3525  -25.4170   18.4478 O   0  0  0  0  0  0  0  0  0  0  0  0
  -31.8701  -14.9034   20.1284 O   0  0  0  0  0  0  0  0  0  0  0  0
  -31.7731  -18.2036   20.7389 O   0  0  0  0  0  0  0  0  0  0  0  0
  -21.6128   -6.9258   21.2311 O   0  0  0  0  0  0  0  0  0  0  0  0
  -28.9968  -23.9322   18.4190 O   0  0  0  0  0  0  0  0  0  1  0  0
  -19.1562   -5.8652   26.0523 F   0  0  0  0  0  0  0  0  0  0  0  0
  -19.7408   -8.6674   22.2824 F   0  0  0  0  0  0  0  0  0  0  0  0
  1  2  1  0  0  0  0
  1  5  2  0  0  0  0
  2  6  2  0  0  0  0
  3  8  2  0  0  0  0
  3 16  1  0  0  0  0
  4  9  1  0  0  0  0
  4 16  2  0  0  0  0
  5 19  1  0  0  0  0
  6 21  1  0  0  0  0
  7 10  2  0  0  0  0
  7 20  1  0  0  0  0
  8 24  1  0  0  0  0
  9 24  2  0  0  0  0
 10 25  1  0  0  0  0
 11 12  2  0  0  0  0
 11 26  1  0  0  0  0
 12 27  1  0  0  0  0
 13 22  1  0  0  0  0
 13 25  2  0  0  0  0
 14 27  2  0  0  0  0
 14 28  1  0  0  0  0
 15 23  2  0  0  0  0
 15 80  1  0  0  0  0
 16 29  1  0  0  0  0
 17 23  1  0  0  0  0
 17 30  2  0  0  0  0
 17 32  1  0  0  0  0
 18 29  1  0  0  0  0
 18 31  2  0  0  0  0
 18 33  1  0  0  0  0
 19 21  2  0  0  0  0
 19 39  1  0  0  0  0
 20 22  2  0  0  0  0
 20 40  1  0  0  0  0
 21 48  1  0  0  0  0
 22 41  1  0  0  0  0
 23 68  1  0  0  0  0
 24 81  1  0  0  0  0
 25 82  1  0  0  0  0
 26 28  2  0  0  0  0
 26 81  1  0  0  0  0
 27 83  1  0  0  0  0
 28 84  1  0  0  0  0
 29 62  2  0  0  0  0
 30 57  1  0  0  0  0
 30 80  1  0  0  0  0
 31 63  1  0  0  0  0
 31 66  1  0  0  0  0
 32 51  1  0  0  0  0
 32 73  2  0  0  0  0
 33 67  1  0  0  0  0
 33 74  2  0  0  0  0
 34 49  1  0  0  0  0
 34 69  1  0  0  0  0
 34 75  2  0  0  0  0
 35 59  1  0  0  0  0
 35 64  1  0  0  0  0
 35 76  2  0  0  0  0
 36 58  1  0  0  0  0
 36 68  1  0  0  0  0
 36 77  2  0  0  0  0
 37 60  1  0  0  0  0
 37 70  1  0  0  0  0
 37 78  2  0  0  0  0
 38 65  1  0  0  0  0
 38 71  1  0  0  0  0
 38 79  2  0  0  0  0
 39 42  1  0  0  0  0
 40 49  1  0  0  0  0
 41 64  1  0  0  0  0
 42 44  1  0  0  0  0
 43 45  1  0  0  0  0
 43 46  1  0  0  0  0
 44 48  1  0  0  0  0
 45 50  1  0  0  0  0
 46 65  1  0  0  0  0
 47 50  1  0  0  0  0
 47 65  1  0  0  0  0
 48 69  1  0  0  0  0
 49 64  1  0  0  0  0
 50 63  1  0  0  0  0
 52 60  1  0  0  0  0
 53 61  1  0  0  0  0
 54 61  1  0  0  0  0
 55 61  1  0  0  0  0
 56 72  1  0  0  0  0
 57 71  1  0  0  0  0
 58 82  1  0  0  0  0
 59 61  1  0  0  0  0
 59 70  1  0  0  0  0
 60 72  1  0  0  0  0
 62 63  1  0  0  0  0
M  CHG  1  72   1
M  ISO  4  38 100  58 101  71 100  82 101
M  END
> <Batch ID>
0152

> <Smiles>
CNC(C)C(=O)NC(C(=O)N1Cc2cc([101O:1][101CH2:1]C(=O)Nc3coc(C[100NH:0][100C:0](=O)N4CCCC(n5nc(-c6ccc(Oc7ccc(F)cc7F)cc6)c(C(N)=O)c5N)C4)c3C(C)=O)ccc2CC1C(=O)NC1CCCc2ccccc21)C(C)(C)C

> <Shape>
0.377

> <Color>
0.184

> <Negative vol penalty>
0.000

$$$$

  -OEChem-04052303273D

 82 91  0     1  0  0  0  0  0999 V2000
  -27.0200  -37.0284   20.3364 C   0  0  0  0  0  0  0  0  0  0  0  0
  -27.4832  -35.7978   19.8820 C   0  0  0  0  0  0  0  0  0  0  0  0
  -23.2117  -10.1401   19.8074 C   0  0  0  0  0  0  0  0  0  0  0  0
  -23.8728   -9.7349   22.0956 C   0  0  0  0  0  0  0  0  0  0  0  0
  -26.4216  -37.1264   21.5919 C   0  0  0  0  0  0  0  0  0  0  0  0
  -27.3492  -34.6646   20.6834 C   0  0  0  0  0  0  0  0  0  0  0  0
  -26.2927  -28.9319   18.8057 C   0  0  0  0  0  0  0  0  0  0  0  0
  -22.5010   -8.9400   19.8002 C   0  0  0  0  0  0  0  0  0  0  0  0
  -23.1620   -8.5347   22.0884 C   0  0  0  0  0  0  0  0  0  0  0  0
  -27.1369  -27.8415   18.6003 C   0  0  0  0  0  0  0  0  0  0  0  0
  -23.5988   -5.3876   20.9327 C   0  0  0  0  0  0  0  0  0  0  0  0
  -24.2207   -4.2629   21.4747 C   0  0  0  0  0  0  0  0  0  0  0  0
  -26.6066  -27.0230   20.8067 C   0  0  0  0  0  0  0  0  0  0  0  0
  -28.7378  -20.4217   18.3192 C   0  0  0  0  0  0  0  0  0  0  0  0
  -22.4432   -4.0626   23.0987 C   0  0  0  0  0  0  0  0  0  0  0  0
  -23.8977  -10.5376   20.9551 C   0  0  0  0  0  0  0  0  0  0  0  0
  -24.1509  -13.0485   21.3276 C   0  0  0  0  0  0  0  0  0  0  0  0
  -26.2714  -35.9919   22.4050 C   0  0  0  0  0  0  0  0  0  0  0  0
  -25.6064  -29.0820   20.0193 C   0  0  0  0  0  0  0  0  0  0  0  0
  -26.7494  -34.7477   21.9515 C   0  0  0  0  0  0  0  0  0  0  0  0
  -25.7523  -28.1148   21.0240 C   0  0  0  0  0  0  0  0  0  0  0  0
  -28.7436  -19.0123   18.3135 C   0  0  0  0  0  0  0  0  0  0  0  0
  -22.4761   -8.1373   20.9406 C   0  0  0  0  0  0  0  0  0  0  0  0
  -27.2962  -26.8884   19.6020 C   0  0  0  0  0  0  0  0  0  0  0  0
  -22.3991   -5.8499   21.4737 C   0  0  0  0  0  0  0  0  0  0  0  0
  -23.6429   -3.6003   22.5576 C   0  0  0  0  0  0  0  0  0  0  0  0
  -21.8213   -5.1874   22.5567 C   0  0  0  0  0  0  0  0  0  0  0  0
  -24.6325  -11.7770   20.9630 C   0  0  0  0  0  0  0  0  0  0  0  0
  -28.1568  -18.4884   19.4283 C   0  0  0  0  0  0  0  0  0  0  0  0
  -25.2290  -13.8837   21.1649 C   0  0  0  0  0  0  0  0  0  0  0  0
  -28.1281  -20.9011   19.4681 C   0  0  0  0  0  0  0  0  0  0  0  0
  -22.8456  -13.4397   21.7735 C   0  0  0  0  0  0  0  0  0  0  0  0
  -25.5956  -31.2585   22.3358 C   0  0  0  0  0  0  0  0  0  0  0  0
  -23.1473  -29.4633   23.4783 C   0  0  0  0  0  0  0  0  0  0  0  0
  -28.2345  -23.4065   19.2550 C   0  0  0  0  0  0  0  0  0  0  0  0
  -21.5889  -26.4295   23.5976 C   0  0  0  0  0  0  0  0  0  0  0  0
  -29.4924  -15.5042   17.8605 C   0  0  0  0  0  0  0  0  0  0  0  0
  -25.6607  -36.1559   23.7742 C   0  0  0  0  0  0  0  0  0  0  0  0
  -24.6787  -30.2497   20.2150 C   0  0  0  0  0  0  0  0  0  0  0  0
  -25.0222  -28.2192   22.3372 C   0  0  0  0  0  0  0  0  0  0  0  0
  -29.2296  -17.9493   17.4157 C   0  0  0  0  0  0  0  0  0  0  0  0
  -28.1339  -17.0154   19.4511 C   0  0  0  0  0  0  0  0  0  0  0  0
  -25.2188  -34.8383   24.4059 C   0  0  0  0  0  0  0  0  0  0  0  0
  -30.1116  -12.8564   20.3286 C   0  0  0  0  0  0  0  0  0  0  0  0
  -26.3105  -33.7831   24.2586 C   0  0  0  0  0  0  0  0  0  0  0  0
  -28.6950  -12.4170   20.7053 C   0  0  0  0  0  0  0  0  0  0  0  0
  -30.1895  -13.3721   18.8931 C   0  0  0  0  0  0  0  0  0  0  0  0
  -27.8010  -13.9733   18.9367 C   0  0  0  0  0  0  0  0  0  0  0  0
  -26.5998  -33.4910   22.7813 C   0  0  1  0  0  0  0  0  0  0  0  0
  -24.4276  -30.5735   21.6845 C   0  0  1  0  0  0  0  0  0  0  0  0
  -27.6670  -13.5227   20.3973 C   0  0  1  0  0  0  0  0  0  0  0  0
  -19.6317  -25.2602   24.6461 C   0  0  0  0  0  0  0  0  0  0  0  0
  -24.6586  -29.3117   26.1246 C   0  0  0  0  0  0  0  0  0  0  0  0
  -23.1746  -27.4058   26.7830 C   0  0  0  0  0  0  0  0  0  0  0  0
  -22.1921  -29.6575   26.3503 C   0  0  0  0  0  0  0  0  0  0  0  0
  -20.3779  -25.8444   20.9613 C   0  0  0  0  0  0  0  0  0  0  0  0
  -27.8010  -24.6117   20.0687 C   0  0  0  0  0  0  0  0  0  1  0  0
  -23.0330  -28.2777   24.4058 C   0  0  1  0  0  0  0  0  0  0  0  0
  -20.1305  -26.0394   23.4391 C   0  0  2  0  0  0  0  0  0  0  0  0
  -23.2800  -28.6619   25.8920 C   0  0  0  0  0  0  0  0  0  0  0  0
  -25.9167  -11.7977   20.5962 N   0  0  0  0  0  0  0  0  0  0  0  0
  -26.2510  -13.0925   20.7294 N   0  0  0  0  0  0  0  0  0  0  0  0
  -24.1316  -29.3824   22.4831 N   0  0  0  0  0  0  0  0  0  0  0  0
  -28.8796  -16.7192   18.1863 N   0  0  0  0  0  0  0  0  0  0  0  0
  -29.1752  -14.3974   18.6540 N   0  0  0  0  0  0  0  0  0  0  0  0
  -25.3930  -15.2104   21.3532 N   0  0  0  0  0  0  0  0  0  0  0  0
  -21.8545  -12.4550   21.8846 N   0  0  0  0  0  0  0  0  0  0  0  0
  -27.9010  -22.1816   19.8914 N   0  0  0  0  0  0  0  0  0  0  0  0
  -25.5734  -32.6357   22.2249 N   0  0  0  0  0  0  0  0  0  0  0  0
  -21.7244  -27.6850   24.1514 N   0  0  0  0  0  0  0  0  0  0  0  0
  -19.9496  -25.1930   22.2259 N   0  3  0  0  0  0  0  0  0  0  0  0
  -22.5618  -14.6301   22.0491 O   0  0  0  0  0  0  0  0  0  0  0  0
  -26.4526  -30.5874   22.8986 O   0  0  0  0  0  0  0  0  0  0  0  0
  -22.3864  -30.4228   23.6268 O   0  0  0  0  0  0  0  0  0  0  0  0
  -28.8051  -23.5311   18.1764 O   0  0  0  0  0  0  0  0  0  0  0  0
  -22.5153  -25.6926   23.2670 O   0  0  0  0  0  0  0  0  0  0  0  0
  -30.3211  -15.4247   16.9450 O   0  0  0  0  0  0  0  0  0  0  0  0
  -21.7825   -6.9662   20.9340 O   0  0  0  0  0  0  0  0  0  0  0  0
  -28.1287  -25.8124   19.4023 O   0  0  0  0  0  0  0  0  0  1  0  0
  -24.2394   -2.5193   23.0770 F   0  0  0  0  0  0  0  0  0  0  0  0
  -20.6682   -5.6261   23.0800 F   0  0  0  0  0  0  0  0  0  0  0  0
  -27.5832  -19.6285   20.5075 S   0  0  0  0  0  0  0  0  0  0  0  0
  1  2  1  0  0  0  0
  1  5  2  0  0  0  0
  2  6  2  0  0  0  0
  3  8  2  0  0  0  0
  3 16  1  0  0  0  0
  4  9  1  0  0  0  0
  4 16  2  0  0  0  0
  5 18  1  0  0  0  0
  6 20  1  0  0  0  0
  7 10  2  0  0  0  0
  7 19  1  0  0  0  0
  8 23  1  0  0  0  0
  9 23  2  0  0  0  0
 10 24  1  0  0  0  0
 11 12  2  0  0  0  0
 11 25  1  0  0  0  0
 12 26  1  0  0  0  0
 13 21  1  0  0  0  0
 13 24  2  0  0  0  0
 14 22  1  0  0  0  0
 14 31  2  0  0  0  0
 15 26  2  0  0  0  0
 15 27  1  0  0  0  0
 16 28  1  0  0  0  0
 17 28  1  0  0  0  0
 17 30  2  0  0  0  0
 17 32  1  0  0  0  0
 18 20  2  0  0  0  0
 18 38  1  0  0  0  0
 19 21  2  0  0  0  0
 19 39  1  0  0  0  0
 20 49  1  0  0  0  0
 21 40  1  0  0  0  0
 22 29  2  0  0  0  0
 22 41  1  0  0  0  0
 23 78  1  0  0  0  0
 24 79  1  0  0  0  0
 25 27  2  0  0  0  0
 25 78  1  0  0  0  0
 26 80  1  0  0  0  0
 27 81  1  0  0  0  0
 28 61  2  0  0  0  0
 29 42  1  0  0  0  0
 29 82  1  0  0  0  0
 30 62  1  0  0  0  0
 30 66  1  0  0  0  0
 31 68  1  0  0  0  0
 31 82  1  0  0  0  0
 32 67  1  0  0  0  0
 32 72  2  0  0  0  0
 33 50  1  0  0  0  0
 33 69  1  0  0  0  0
 33 73  2  0  0  0  0
 34 58  1  0  0  0  0
 34 63  1  0  0  0  0
 34 74  2  0  0  0  0
 35 57  1  0  0  0  0
 35 68  1  0  0  0  0
 35 75  2  0  0  0  0
 36 59  1  0  0  0  0
 36 70  1  0  0  0  0
 36 76  2  0  0  0  0
 37 64  1  0  0  0  0
 37 65  1  0  0  0  0
 37 77  2  0  0  0  0
 38 43  1  0  0  0  0
 39 50  1  0  0  0  0
 40 63  1  0  0  0  0
 41 64  1  0  0  0  0
 42 64  1  0  0  0  0
 43 45  1  0  0  0  0
 44 46  1  0  0  0  0
 44 47  1  0  0  0  0
 45 49  1  0  0  0  0
 46 51  1  0  0  0  0
 47 65  1  0  0  0  0
 48 51  1  0  0  0  0
 48 65  1  0  0  0  0
 49 69  1  0  0  0  0
 50 63  1  0  0  0  0
 51 62  1  0  0  0  0
 52 59  1  0  0  0  0
 53 60  1  0  0  0  0
 54 60  1  0  0  0  0
 55 60  1  0  0  0  0
 56 71  1  0  0  0  0
 57 79  1  0  0  0  0
 58 60  1  0  0  0  0
 58 70  1  0  0  0  0
 59 71  1  0  0  0  0
 61 62  1  0  0  0  0
M  CHG  1  71   1
M  ISO  4  37 100  57 101  64 100  79 101
M  END
> <Batch ID>
0152

> <Smiles>
CNC(C)C(=O)NC(C(=O)N1Cc2cc([101O:1][101CH2:1]C(=O)Nc3cc4c(s3)C[100N:0]([100C:0](=O)N3CCCC(n5nc(-c6ccc(Oc7ccc(F)cc7F)cc6)c(C(N)=O)c5N)C3)C4)ccc2CC1C(=O)NC1CCCc2ccccc21)C(C)(C)C

> <Shape>
0.337

> <Color>
0.166

> <Negative vol penalty>
0.000

$$$$

  -OEChem-04052303273D

 83 91  0     1  0  0  0  0  0999 V2000
  -26.7513  -31.2036   14.3215 C   0  0  0  0  0  0  0  0  0  0  0  0
  -27.2621  -30.1839   15.1182 C   0  0  0  0  0  0  0  0  0  0  0  0
  -23.0776   -9.8296   19.9872 C   0  0  0  0  0  0  0  0  0  0  0  0
  -23.7539   -9.9511   22.3034 C   0  0  0  0  0  0  0  0  0  0  0  0
  -25.5900  -31.8722   14.7066 C   0  0  0  0  0  0  0  0  0  0  0  0
  -26.6125  -29.8329   16.3010 C   0  0  0  0  0  0  0  0  0  0  0  0
  -26.1943  -24.8187   16.8736 C   0  0  0  0  0  0  0  0  0  0  0  0
  -22.3100   -8.7000   20.2705 C   0  0  0  0  0  0  0  0  0  0  0  0
  -22.9863   -8.8214   22.5868 C   0  0  0  0  0  0  0  0  0  0  0  0
  -27.3286  -24.1298   17.3007 C   0  0  0  0  0  0  0  0  0  0  0  0
  -19.7282   -8.0934   23.1114 C   0  0  0  0  0  0  0  0  0  0  0  0
  -18.9288   -8.1249   24.2540 C   0  0  0  0  0  0  0  0  0  0  0  0
  -26.4499  -24.0875   19.5469 C   0  0  0  0  0  0  0  0  0  0  0  0
  -31.5383  -18.5583   19.4393 C   0  0  0  0  0  0  0  0  0  0  0  0
  -20.1170   -6.2159   25.1378 C   0  0  0  0  0  0  0  0  0  0  0  0
  -31.8921  -18.3539   17.1513 C   0  0  0  0  0  0  0  0  0  0  0  0
  -23.7996  -10.4552   21.0036 C   0  0  0  0  0  0  0  0  0  0  0  0
  -24.1789  -12.9662   20.7621 C   0  0  0  0  0  0  0  0  0  0  0  0
  -24.9204  -31.5227   15.8899 C   0  0  0  0  0  0  0  0  0  0  0  0
  -25.1825  -25.1573   17.7836 C   0  0  0  0  0  0  0  0  0  0  0  0
  -25.4418  -30.4983   16.7030 C   0  0  0  0  0  0  0  0  0  0  0  0
  -25.3025  -24.7784   19.1283 C   0  0  0  0  0  0  0  0  0  0  0  0
  -31.2983  -19.1015   18.1442 C   0  0  0  0  0  0  0  0  0  0  0  0
  -22.2643   -8.1959   21.5703 C   0  0  0  0  0  0  0  0  0  0  0  0
  -27.4579  -23.7666   18.6380 C   0  0  0  0  0  0  0  0  0  0  0  0
  -20.7219   -7.1232   22.9818 C   0  0  0  0  0  0  0  0  0  0  0  0
  -19.1232   -7.1861   25.2672 C   0  0  0  0  0  0  0  0  0  0  0  0
  -20.9164   -6.1844   23.9951 C   0  0  0  0  0  0  0  0  0  0  0  0
  -24.5932  -11.6218   20.7114 C   0  0  0  0  0  0  0  0  0  0  0  0
  -25.2933  -13.6828   20.4000 C   0  0  0  0  0  0  0  0  0  0  0  0
  -32.3063  -17.4157   19.3869 C   0  0  0  0  0  0  0  0  0  0  0  0
  -22.9010  -13.5180   21.1059 C   0  0  0  0  0  0  0  0  0  0  0  0
  -23.9254  -27.8835   18.8281 C   0  0  0  0  0  0  0  0  0  0  0  0
  -21.8491  -25.8968   20.3329 C   0  0  0  0  0  0  0  0  0  0  0  0
  -29.9056  -21.0897   18.8088 C   0  0  0  0  0  0  0  0  0  0  0  0
  -21.2185  -22.7990   21.6185 C   0  0  0  0  0  0  0  0  0  0  0  0
  -30.6461  -14.7011   20.8185 C   0  0  0  0  0  0  0  0  0  0  0  0
  -23.6947  -32.3058   16.2888 C   0  0  0  0  0  0  0  0  0  0  0  0
  -23.9528  -25.8771   17.3019 C   0  0  0  0  0  0  0  0  0  0  0  0
  -24.2353  -25.1003   20.1412 C   0  0  0  0  0  0  0  0  0  0  0  0
  -22.8583  -31.6207   17.3665 C   0  0  0  0  0  0  0  0  0  0  0  0
  -29.6981  -12.1612   18.4387 C   0  0  0  0  0  0  0  0  0  0  0  0
  -23.7518  -31.1147   18.4945 C   0  0  0  0  0  0  0  0  0  0  0  0
  -28.2424  -11.9029   18.8304 C   0  0  0  0  0  0  0  0  0  0  0  0
  -30.5687  -12.4171   19.6664 C   0  0  0  0  0  0  0  0  0  0  0  0
  -28.6300  -13.2586   20.9361 C   0  0  0  0  0  0  0  0  0  0  0  0
  -24.7519  -30.0720   17.9806 C   0  0  1  0  0  0  0  0  0  0  0  0
  -23.2219  -26.6218   18.4148 C   0  0  1  0  0  0  0  0  0  0  0  0
  -27.6995  -13.0264   19.7325 C   0  0  2  0  0  0  0  0  0  0  0  0
  -19.4476  -21.4875   22.8191 C   0  0  0  0  0  0  0  0  0  0  0  0
  -22.5414  -27.3431   22.9289 C   0  0  0  0  0  0  0  0  0  0  0  0
  -21.5178  -25.4338   24.1840 C   0  0  0  0  0  0  0  0  0  0  0  0
  -20.1144  -26.8094   22.6474 C   0  0  0  0  0  0  0  0  0  0  0  0
  -21.0027  -20.8444   19.4067 C   0  0  0  0  0  0  0  0  0  0  0  0
  -29.2029  -22.2391   18.1107 C   0  0  0  0  0  0  0  0  0  1  0  0
  -21.8116  -25.2072   21.6753 C   0  0  1  0  0  0  0  0  0  0  0  0
  -20.0289  -21.8683   21.4663 C   0  0  2  0  0  0  0  0  0  0  0  0
  -21.5175  -26.1939   22.8404 C   0  0  0  0  0  0  0  0  0  0  0  0
  -25.8710  -11.4894   20.3458 N   0  0  0  0  0  0  0  0  0  0  0  0
  -26.2692  -12.7600   20.1634 N   0  0  0  0  0  0  0  0  0  0  0  0
  -23.0548  -25.8108   19.6225 N   0  0  0  0  0  0  0  0  0  0  0  0
  -30.0034  -13.4990   20.4808 N   0  0  0  0  0  0  0  0  0  0  0  0
  -25.5237  -15.0060   20.2641 N   0  0  0  0  0  0  0  0  0  0  0  0
  -21.8656  -12.6397   21.4534 N   0  0  0  0  0  0  0  0  0  0  0  0
  -30.5421  -20.2690   17.8839 N   0  0  0  0  0  0  0  0  0  0  0  0
  -24.1005  -28.7921   17.8018 N   0  0  0  0  0  0  0  0  0  0  0  0
  -20.8424  -24.1239   21.5507 N   0  0  0  0  0  0  0  0  0  0  0  0
  -31.9781  -14.9154   20.3214 N   0  0  0  0  0  0  0  0  0  0  0  0
  -20.4348  -20.6199   20.7610 N   0  3  0  0  0  0  0  0  0  0  0  0
  -22.6790  -14.7525   21.0889 O   0  0  0  0  0  0  0  0  0  0  0  0
  -24.2815  -28.0230   19.9923 O   0  0  0  0  0  0  0  0  0  0  0  0
  -20.8433  -26.4840   19.9264 O   0  0  0  0  0  0  0  0  0  0  0  0
  -29.8745  -20.9633   20.0285 O   0  0  0  0  0  0  0  0  0  0  0  0
  -22.3661  -22.3915   21.7848 O   0  0  0  0  0  0  0  0  0  0  0  0
  -30.1020  -15.5634   21.5093 O   0  0  0  0  0  0  0  0  0  0  0  0
  -34.3062  -16.0394   20.2851 O   0  0  0  0  0  0  0  0  0  0  0  0
  -32.5775  -16.8550   21.9251 O   0  0  0  0  0  0  0  0  0  0  0  0
  -21.5152   -7.0938   21.8472 O   0  0  0  0  0  0  0  0  0  0  0  0
  -28.5644  -23.0947   19.0577 O   0  0  0  0  0  0  0  0  0  1  0  0
  -18.3566   -7.2174   26.3651 F   0  0  0  0  0  0  0  0  0  0  0  0
  -21.8703   -5.2507   23.8769 F   0  0  0  0  0  0  0  0  0  0  0  0
  -32.7348  -17.0028   17.7813 S   0  0  0  0  0  0  0  0  0  0  0  0
  -32.9235  -16.3152   20.6244 S   0  0  0  0  0  0  0  0  0  0  0  0
  1  2  1  0  0  0  0
  1  5  2  0  0  0  0
  2  6  2  0  0  0  0
  3  8  2  0  0  0  0
  3 17  1  0  0  0  0
  4  9  1  0  0  0  0
  4 17  2  0  0  0  0
  5 19  1  0  0  0  0
  6 21  1  0  0  0  0
  7 10  2  0  0  0  0
  7 20  1  0  0  0  0
  8 24  1  0  0  0  0
  9 24  2  0  0  0  0
 10 25  1  0  0  0  0
 11 12  2  0  0  0  0
 11 26  1  0  0  0  0
 12 27  1  0  0  0  0
 13 22  1  0  0  0  0
 13 25  2  0  0  0  0
 14 23  1  0  0  0  0
 14 31  2  0  0  0  0
 15 27  2  0  0  0  0
 15 28  1  0  0  0  0
 16 23  2  0  0  0  0
 16 82  1  0  0  0  0
 17 29  1  0  0  0  0
 18 29  1  0  0  0  0
 18 30  2  0  0  0  0
 18 32  1  0  0  0  0
 19 21  2  0  0  0  0
 19 38  1  0  0  0  0
 20 22  2  0  0  0  0
 20 39  1  0  0  0  0
 21 47  1  0  0  0  0
 22 40  1  0  0  0  0
 23 65  1  0  0  0  0
 24 78  1  0  0  0  0
 25 79  1  0  0  0  0
 26 28  2  0  0  0  0
 26 78  1  0  0  0  0
 27 80  1  0  0  0  0
 28 81  1  0  0  0  0
 29 59  2  0  0  0  0
 30 60  1  0  0  0  0
 30 63  1  0  0  0  0
 31 82  1  0  0  0  0
 31 83  1  0  0  0  0
 32 64  1  0  0  0  0
 32 70  2  0  0  0  0
 33 48  1  0  0  0  0
 33 66  1  0  0  0  0
 33 71  2  0  0  0  0
 34 56  1  0  0  0  0
 34 61  1  0  0  0  0
 34 72  2  0  0  0  0
 35 55  1  0  0  0  0
 35 65  1  0  0  0  0
 35 73  2  0  0  0  0
 36 57  1  0  0  0  0
 36 67  1  0  0  0  0
 36 74  2  0  0  0  0
 37 62  1  0  0  0  0
 37 68  1  0  0  0  0
 37 75  2  0  0  0  0
 38 41  1  0  0  0  0
 39 48  1  0  0  0  0
 40 61  1  0  0  0  0
 41 43  1  0  0  0  0
 42 44  1  0  0  0  0
 42 45  1  0  0  0  0
 43 47  1  0  0  0  0
 44 49  1  0  0  0  0
 45 62  1  0  0  0  0
 46 49  1  0  0  0  0
 46 62  1  0  0  0  0
 47 66  1  0  0  0  0
 48 61  1  0  0  0  0
 49 60  1  0  0  0  0
 50 57  1  0  0  0  0
 51 58  1  0  0  0  0
 52 58  1  0  0  0  0
 53 58  1  0  0  0  0
 54 69  1  0  0  0  0
 55 79  1  0  0  0  0
 56 58  1  0  0  0  0
 56 67  1  0  0  0  0
 57 69  1  0  0  0  0
 59 60  1  0  0  0  0
 68 83  1  0  0  0  0
 76 83  2  0  0  0  0
 77 83  2  0  0  0  0
M  CHG  1  69   1
M  ISO  4  37 100  55 101  68 100  79 101
M  END
> <Batch ID>
0152

> <Smiles>
CNC(C)C(=O)NC(C(=O)N1Cc2cc([101O:1][101CH2:1]C(=O)Nc3csc(S(=O)(=O)[100NH:0][100C:0](=O)N4CCCC(n5nc(-c6ccc(Oc7ccc(F)cc7F)cc6)c(C(N)=O)c5N)C4)c3)ccc2CC1C(=O)NC1CCCc2ccccc21)C(C)(C)C

> <Shape>
0.222

> <Color>
0.190

> <Negative vol penalty>
0.000

$$$$

  -OEChem-04052303273D

 86 95  0     1  0  0  0  0  0999 V2000
  -24.9267  -25.7836   15.3548 C   0  0  0  0  0  0  0  0  0  0  0  0
  -25.5646  -25.6631   16.5853 C   0  0  0  0  0  0  0  0  0  0  0  0
  -32.8745  -19.2476   25.1593 C   0  0  0  0  0  0  0  0  0  0  0  0
  -23.0791   -9.9175   19.8693 C   0  0  0  0  0  0  0  0  0  0  0  0
  -23.9069   -9.7794   22.1349 C   0  0  0  0  0  0  0  0  0  0  0  0
  -24.7834  -27.0389   14.7652 C   0  0  0  0  0  0  0  0  0  0  0  0
  -26.0606  -26.7978   17.2263 C   0  0  0  0  0  0  0  0  0  0  0  0
  -32.1522  -18.2680   24.4780 C   0  0  0  0  0  0  0  0  0  0  0  0
  -24.9453  -26.8822   22.1654 C   0  0  0  0  0  0  0  0  0  0  0  0
  -32.3463  -20.5307   25.3022 C   0  0  0  0  0  0  0  0  0  0  0  0
  -22.3576   -8.7393   20.0611 C   0  0  0  0  0  0  0  0  0  0  0  0
  -23.1854   -8.6012   22.3267 C   0  0  0  0  0  0  0  0  0  0  0  0
  -25.7155  -26.0796   23.0058 C   0  0  0  0  0  0  0  0  0  0  0  0
  -19.9870   -7.7170   22.9662 C   0  0  0  0  0  0  0  0  0  0  0  0
  -19.2659   -7.5863   24.1530 C   0  0  0  0  0  0  0  0  0  0  0  0
  -30.3735  -19.8545   24.0824 C   0  0  0  0  0  0  0  0  0  0  0  0
  -27.0170  -28.0077   23.6445 C   0  0  0  0  0  0  0  0  0  0  0  0
  -20.5531   -5.6216   24.7188 C   0  0  0  0  0  0  0  0  0  0  0  0
  -23.8538  -10.4376   20.9062 C   0  0  0  0  0  0  0  0  0  0  0  0
  -24.1599  -12.9698   20.9496 C   0  0  0  0  0  0  0  0  0  0  0  0
  -30.9017  -18.5714   23.9395 C   0  0  0  0  0  0  0  0  0  0  0  0
  -25.2693  -28.1907   15.4039 C   0  0  0  0  0  0  0  0  0  0  0  0
  -25.2126  -28.2539   22.0497 C   0  0  0  0  0  0  0  0  0  0  0  0
  -25.9248  -28.0695   16.6441 C   0  0  0  0  0  0  0  0  0  0  0  0
  -26.2471  -28.8260   22.8038 C   0  0  0  0  0  0  0  0  0  0  0  0
  -31.0958  -20.8341   24.7637 C   0  0  0  0  0  0  0  0  0  0  0  0
  -22.4107   -8.0811   21.2898 C   0  0  0  0  0  0  0  0  0  0  0  0
  -26.7534  -26.6417   23.7434 C   0  0  0  0  0  0  0  0  0  0  0  0
  -20.9911   -6.7999   22.6556 C   0  0  0  0  0  0  0  0  0  0  0  0
  -19.5489   -6.5387   25.0293 C   0  0  0  0  0  0  0  0  0  0  0  0
  -21.2742   -5.7523   23.5319 C   0  0  0  0  0  0  0  0  0  0  0  0
  -24.5997  -11.6544   20.7085 C   0  0  0  0  0  0  0  0  0  0  0  0
  -25.2312  -13.7582   20.6071 C   0  0  0  0  0  0  0  0  0  0  0  0
  -22.8961  -13.4372   21.4394 C   0  0  0  0  0  0  0  0  0  0  0  0
  -26.0944  -30.1750   19.6757 C   0  0  0  0  0  0  0  0  0  0  0  0
  -29.0039  -23.9608   24.7086 C   0  0  0  0  0  0  0  0  0  0  0  0
  -25.6350  -32.4915   21.8995 C   0  0  0  0  0  0  0  0  0  0  0  0
  -25.4864  -33.3519   25.1987 C   0  0  0  0  0  0  0  0  0  0  0  0
  -30.7089  -14.7966   20.7257 C   0  0  0  0  0  0  0  0  0  0  0  0
  -25.1328  -29.5204   14.7054 C   0  0  0  0  0  0  0  0  0  0  0  0
  -24.3555  -29.1110   21.1590 C   0  0  0  0  0  0  0  0  0  0  0  0
  -26.5618  -30.2971   22.7307 C   0  0  0  0  0  0  0  0  0  0  0  0
  -25.3542  -30.7177   15.6261 C   0  0  0  0  0  0  0  0  0  0  0  0
  -29.5109  -12.6542   18.1846 C   0  0  0  0  0  0  0  0  0  0  0  0
  -26.6011  -30.5111   16.4800 C   0  0  0  0  0  0  0  0  0  0  0  0
  -28.1040  -12.2784   18.6415 C   0  0  0  0  0  0  0  0  0  0  0  0
  -29.7892  -16.2239   23.9770 C   0  0  0  0  0  0  0  0  0  0  0  0
  -30.4591  -12.7456   19.3726 C   0  0  0  0  0  0  0  0  0  0  0  0
  -29.3915  -15.2501   22.8759 C   0  0  0  0  0  0  0  0  0  0  0  0
  -30.8294  -16.9370   21.9651 C   0  0  0  0  0  0  0  0  0  0  0  0
  -28.5987  -13.3874   20.8816 C   0  0  0  0  0  0  0  0  0  0  0  0
  -30.1190  -17.5088   23.2001 C   0  0  2  0  0  0  0  0  0  0  0  0
  -26.4542  -29.2798   17.3822 C   0  0  1  0  0  0  0  0  0  0  0  0
  -25.0456  -30.4013   20.7276 C   0  0  1  0  0  0  0  0  0  0  0  0
  -27.6016  -13.2602   19.7113 C   0  0  2  0  0  0  0  0  0  0  0  0
  -25.1313  -35.3271   26.7053 C   0  0  0  0  0  0  0  0  0  0  0  0
  -28.4657  -33.4575   21.2963 C   0  0  0  0  0  0  0  0  0  0  0  0
  -28.3986  -34.7668   23.4292 C   0  0  0  0  0  0  0  0  0  0  0  0
  -26.7831  -35.2826   21.5998 C   0  0  0  0  0  0  0  0  0  0  0  0
  -23.0836  -32.1328   26.4231 C   0  0  0  0  0  0  0  0  0  0  0  0
  -29.2870  -22.5098   24.3819 C   0  0  0  0  0  0  0  0  0  0  0  0
  -27.6806  -24.5002   24.2015 C   0  0  0  0  0  0  0  0  0  1  0  0
  -26.4989  -33.1590   22.9421 C   0  0  1  0  0  0  0  0  0  0  0  0
  -24.4710  -34.1628   25.9835 C   0  0  2  0  0  0  0  0  0  0  0  0
  -27.5321  -34.1384   22.3170 C   0  0  0  0  0  0  0  0  0  0  0  0
  -25.8526  -11.6058   20.2483 N   0  0  0  0  0  0  0  0  0  0  0  0
  -26.2093  -12.9005   20.1973 N   0  0  0  0  0  0  0  0  0  0  0  0
  -25.6995  -31.0921   21.8409 N   0  0  0  0  0  0  0  0  0  0  0  0
  -29.9584  -13.6617   20.3990 N   0  0  0  0  0  0  0  0  0  0  0  0
  -30.2299  -15.6257   21.7393 N   0  0  0  0  0  0  0  0  0  0  0  0
  -25.4225  -15.0945   20.6194 N   0  0  0  0  0  0  0  0  0  0  0  0
  -21.9063  -12.4925   21.7427 N   0  0  0  0  0  0  0  0  0  0  0  0
  -30.5616  -22.1314   24.9086 N   0  0  0  0  0  0  0  0  0  0  0  0
  -25.6155  -29.5852   18.5215 N   0  0  0  0  0  0  0  0  0  0  0  0
  -25.5840  -33.7822   23.8923 N   0  0  0  0  0  0  0  0  0  0  0  0
  -23.7944  -33.3045   26.9967 N   0  3  0  0  0  0  0  0  0  0  0  0
  -22.6462  -14.6575   21.5877 O   0  0  0  0  0  0  0  0  0  0  0  0
  -27.2521  -30.5119   19.8945 O   0  0  0  0  0  0  0  0  0  0  0  0
  -29.7885  -24.6653   25.3426 O   0  0  0  0  0  0  0  0  0  0  0  0
  -24.9235  -33.1856   21.1690 O   0  0  0  0  0  0  0  0  0  0  0  0
  -26.1315  -32.4315   25.6959 O   0  0  0  0  0  0  0  0  0  0  0  0
  -31.7857  -15.0388   20.1639 O   0  0  0  0  0  0  0  0  0  0  0  0
  -21.7067   -6.9315   21.4773 O   0  0  0  0  0  0  0  0  0  0  0  0
  -27.5149  -25.8524   24.5725 O   0  0  0  0  0  0  0  0  0  1  0  0
  -18.8574   -6.4142   26.1697 F   0  0  0  0  0  0  0  0  0  0  0  0
  -22.2385   -4.8688   23.2395 F   0  0  0  0  0  0  0  0  0  0  0  0
  1  2  1  0  0  0  0
  1  6  2  0  0  0  0
  2  7  2  0  0  0  0
  3  8  1  0  0  0  0
  3 10  2  0  0  0  0
  4 11  2  0  0  0  0
  4 19  1  0  0  0  0
  5 12  1  0  0  0  0
  5 19  2  0  0  0  0
  6 22  1  0  0  0  0
  7 24  1  0  0  0  0
  8 21  2  0  0  0  0
  9 13  2  0  0  0  0
  9 23  1  0  0  0  0
 10 26  1  0  0  0  0
 11 27  1  0  0  0  0
 12 27  2  0  0  0  0
 13 28  1  0  0  0  0
 14 15  2  0  0  0  0
 14 29  1  0  0  0  0
 15 30  1  0  0  0  0
 16 21  1  0  0  0  0
 16 26  2  0  0  0  0
 17 25  1  0  0  0  0
 17 28  2  0  0  0  0
 18 30  2  0  0  0  0
 18 31  1  0  0  0  0
 19 32  1  0  0  0  0
 20 32  1  0  0  0  0
 20 33  2  0  0  0  0
 20 34  1  0  0  0  0
 21 52  1  0  0  0  0
 22 24  2  0  0  0  0
 22 40  1  0  0  0  0
 23 25  2  0  0  0  0
 23 41  1  0  0  0  0
 24 53  1  0  0  0  0
 25 42  1  0  0  0  0
 26 73  1  0  0  0  0
 27 83  1  0  0  0  0
 28 84  1  0  0  0  0
 29 31  2  0  0  0  0
 29 83  1  0  0  0  0
 30 85  1  0  0  0  0
 31 86  1  0  0  0  0
 32 66  2  0  0  0  0
 33 67  1  0  0  0  0
 33 71  1  0  0  0  0
 34 72  1  0  0  0  0
 34 77  2  0  0  0  0
 35 54  1  0  0  0  0
 35 74  1  0  0  0  0
 35 78  2  0  0  0  0
 36 61  1  0  0  0  0
 36 62  1  0  0  0  0
 36 79  2  0  0  0  0
 37 63  1  0  0  0  0
 37 68  1  0  0  0  0
 37 80  2  0  0  0  0
 38 64  1  0  0  0  0
 38 75  1  0  0  0  0
 38 81  2  0  0  0  0
 39 69  1  0  0  0  0
 39 70  1  0  0  0  0
 39 82  2  0  0  0  0
 40 43  1  0  0  0  0
 41 54  1  0  0  0  0
 42 68  1  0  0  0  0
 43 45  1  0  0  0  0
 44 46  1  0  0  0  0
 44 48  1  0  0  0  0
 45 53  1  0  0  0  0
 46 55  1  0  0  0  0
 47 49  1  0  0  0  0
 47 52  1  0  0  0  0
 48 69  1  0  0  0  0
 49 70  1  0  0  0  0
 50 52  1  0  0  0  0
 50 70  1  0  0  0  0
 51 55  1  0  0  0  0
 51 69  1  0  0  0  0
 53 74  1  0  0  0  0
 54 68  1  0  0  0  0
 55 67  1  0  0  0  0
 56 64  1  0  0  0  0
 57 65  1  0  0  0  0
 58 65  1  0  0  0  0
 59 65  1  0  0  0  0
 60 76  1  0  0  0  0
 61 73  1  0  0  0  0
 62 84  1  0  0  0  0
 63 65  1  0  0  0  0
 63 75  1  0  0  0  0
 64 76  1  0  0  0  0
 66 67  1  0  0  0  0
M  CHG  1  76   1
M  ISO  4  39 100  62 101  70 100  84 101
M  END
> <Batch ID>
0152

> <Smiles>
CNC(C)C(=O)NC(C(=O)N1Cc2cc([101O:1][101CH2:1]C(=O)CNc3cccc(C4CC[100N:0]([100C:0](=O)N5CCCC(n6nc(-c7ccc(Oc8ccc(F)cc8F)cc7)c(C(N)=O)c6N)C5)C4)c3)ccc2CC1C(=O)NC1CCCc2ccccc21)C(C)(C)C

> <Shape>
0.260

> <Color>
0.214

> <Negative vol penalty>
0.000

$$$$

  -OEChem-04052303273D

 84 92  0     1  0  0  0  0  0999 V2000
  -27.4294  -34.4939   24.8058 C   0  0  0  0  0  0  0  0  0  0  0  0
  -28.2749  -33.7889   23.9551 C   0  0  0  0  0  0  0  0  0  0  0  0
  -22.9484  -10.0599   19.8971 C   0  0  0  0  0  0  0  0  0  0  0  0
  -23.9606   -9.6111   22.0445 C   0  0  0  0  0  0  0  0  0  0  0  0
  -26.3379  -33.8530   25.3902 C   0  0  0  0  0  0  0  0  0  0  0  0
  -28.0298  -32.4422   23.6892 C   0  0  0  0  0  0  0  0  0  0  0  0
  -28.6784  -27.5730   18.4751 C   0  0  0  0  0  0  0  0  0  0  0  0
  -22.2046   -8.8847   20.0021 C   0  0  0  0  0  0  0  0  0  0  0  0
  -23.2167   -8.4358   22.1495 C   0  0  0  0  0  0  0  0  0  0  0  0
  -29.2033  -26.3015   18.2480 C   0  0  0  0  0  0  0  0  0  0  0  0
  -21.3167   -5.5014   23.1479 C   0  0  0  0  0  0  0  0  0  0  0  0
  -20.6956   -5.2329   24.3676 C   0  0  0  0  0  0  0  0  0  0  0  0
  -27.2419  -25.3191   19.2516 C   0  0  0  0  0  0  0  0  0  0  0  0
  -19.4328   -7.2837   24.1761 C   0  0  0  0  0  0  0  0  0  0  0  0
  -31.3400  -19.3715   20.1958 C   0  0  0  0  0  0  0  0  0  0  0  0
  -23.8265  -10.4231   20.9183 C   0  0  0  0  0  0  0  0  0  0  0  0
  -29.7387  -18.6619   21.5773 C   0  0  0  0  0  0  0  0  0  0  0  0
  -24.2249  -12.9204   21.2535 C   0  0  0  0  0  0  0  0  0  0  0  0
  -26.0738  -32.5002   25.1238 C   0  0  0  0  0  0  0  0  0  0  0  0
  -27.4341  -27.7276   19.1031 C   0  0  0  0  0  0  0  0  0  0  0  0
  -26.9345  -31.7822   24.2717 C   0  0  0  0  0  0  0  0  0  0  0  0
  -26.7023  -26.5936   19.4832 C   0  0  0  0  0  0  0  0  0  0  0  0
  -30.0940  -19.6965   20.6792 C   0  0  0  0  0  0  0  0  0  0  0  0
  -22.3387   -8.0726   21.1282 C   0  0  0  0  0  0  0  0  0  0  0  0
  -28.4864  -25.1744   18.6389 C   0  0  0  0  0  0  0  0  0  0  0  0
  -20.9959   -6.6611   22.4423 C   0  0  0  0  0  0  0  0  0  0  0  0
  -19.7536   -6.1240   24.8817 C   0  0  0  0  0  0  0  0  0  0  0  0
  -20.0540   -7.5522   22.9564 C   0  0  0  0  0  0  0  0  0  0  0  0
  -24.5956  -11.6368   20.8102 C   0  0  0  0  0  0  0  0  0  0  0  0
  -30.7929  -17.7784   21.5785 C   0  0  0  0  0  0  0  0  0  0  0  0
  -25.2904  -13.7201   20.9193 C   0  0  0  0  0  0  0  0  0  0  0  0
  -28.5399  -18.5159   22.3506 C   0  0  0  0  0  0  0  0  0  0  0  0
  -23.0247  -13.3515   21.9088 C   0  0  0  0  0  0  0  0  0  0  0  0
  -26.4353  -29.0814   21.8000 C   0  0  0  0  0  0  0  0  0  0  0  0
  -23.5022  -28.3513   20.6227 C   0  0  0  0  0  0  0  0  0  0  0  0
  -29.7188  -21.8534   19.4379 C   0  0  0  0  0  0  0  0  0  0  0  0
  -21.6113  -26.3901   18.5673 C   0  0  0  0  0  0  0  0  0  0  0  0
  -30.7876  -14.6490   20.6673 C   0  0  0  0  0  0  0  0  0  0  0  0
  -24.9090  -31.8379   25.8161 C   0  0  0  0  0  0  0  0  0  0  0  0
  -26.8696  -29.1053   19.3167 C   0  0  0  0  0  0  0  0  0  0  0  0
  -25.3528  -26.7049   20.1427 C   0  0  0  0  0  0  0  0  0  0  0  0
  -24.5034  -30.5072   25.1877 C   0  0  0  0  0  0  0  0  0  0  0  0
  -29.3217  -12.7874   18.0098 C   0  0  0  0  0  0  0  0  0  0  0  0
  -25.7331  -29.6435   24.9262 C   0  0  0  0  0  0  0  0  0  0  0  0
  -27.9341  -12.4230   18.5405 C   0  0  0  0  0  0  0  0  0  0  0  0
  -30.3737  -12.7622   19.1165 C   0  0  0  0  0  0  0  0  0  0  0  0
  -28.6611  -13.2178   20.8292 C   0  0  0  0  0  0  0  0  0  0  0  0
  -26.6875  -30.3267   23.9393 C   0  0  1  0  0  0  0  0  0  0  0  0
  -25.8263  -29.1578   20.4286 C   0  0  1  0  0  0  0  0  0  0  0  0
  -27.5564  -13.2841   19.7608 C   0  0  2  0  0  0  0  0  0  0  0  0
  -27.8214  -19.7676   22.7966 C   0  0  0  0  0  0  0  0  0  0  0  0
  -19.2386  -26.0053   17.8465 C   0  0  0  0  0  0  0  0  0  0  0  0
  -22.9312  -26.9374   23.2656 C   0  0  0  0  0  0  0  0  0  0  0  0
  -20.9990  -25.7949   22.1568 C   0  0  0  0  0  0  0  0  0  0  0  0
  -21.0224  -28.2804   22.3673 C   0  0  0  0  0  0  0  0  0  0  0  0
  -22.2418  -27.0305   15.7475 C   0  0  0  0  0  0  0  0  0  0  0  0
  -31.0533  -16.5138   22.2832 C   0  0  0  0  0  0  0  0  0  0  0  0
  -28.6311  -22.9071   19.3419 C   0  0  0  0  0  0  0  0  0  1  0  0
  -22.5778  -27.1616   20.7178 C   0  0  1  0  0  0  0  0  0  0  0  0
  -20.5386  -26.7369   17.5507 C   0  0  2  0  0  0  0  0  0  0  0  0
  -21.9089  -27.0412   22.1162 C   0  0  0  0  0  0  0  0  0  0  0  0
  -25.8023  -11.6174   20.2379 N   0  0  0  0  0  0  0  0  0  0  0  0
  -26.1990  -12.8988   20.3193 N   0  0  0  0  0  0  0  0  0  0  0  0
  -24.8462  -28.0738   20.3356 N   0  0  0  0  0  0  0  0  0  0  0  0
  -29.9556  -13.5997   20.2433 N   0  0  0  0  0  0  0  0  0  0  0  0
  -25.5293  -15.0386   21.0831 N   0  0  0  0  0  0  0  0  0  0  0  0
  -22.0314  -12.3999   22.1773 N   0  0  0  0  0  0  0  0  0  0  0  0
  -29.3503  -20.8468   20.3239 N   0  0  0  0  0  0  0  0  0  0  0  0
  -26.1949  -30.1929   22.5851 N   0  0  0  0  0  0  0  0  0  0  0  0
  -21.6338  -27.2887   19.6128 N   0  0  0  0  0  0  0  0  0  0  0  0
  -30.3135  -15.3977   21.7376 N   0  0  0  0  0  0  0  0  0  0  0  0
  -20.9856  -26.3649   16.1786 N   0  3  0  0  0  0  0  0  0  0  0  0
  -28.0275  -17.4370   22.7002 O   0  0  0  0  0  0  0  0  0  0  0  0
  -22.8317  -14.5482   22.2316 O   0  0  0  0  0  0  0  0  0  0  0  0
  -27.0747  -28.0870   22.1226 O   0  0  0  0  0  0  0  0  0  0  0  0
  -23.0471  -29.4856   20.7897 O   0  0  0  0  0  0  0  0  0  0  0  0
  -30.7579  -21.9420   18.7921 O   0  0  0  0  0  0  0  0  0  0  0  0
  -22.3525  -25.4170   18.4478 O   0  0  0  0  0  0  0  0  0  0  0  0
  -31.8701  -14.9034   20.1284 O   0  0  0  0  0  0  0  0  0  0  0  0
  -31.7731  -18.2036   20.7389 O   0  0  0  0  0  0  0  0  0  0  0  0
  -21.6128   -6.9258   21.2311 O   0  0  0  0  0  0  0  0  0  0  0  0
  -28.9968  -23.9322   18.4190 O   0  0  0  0  0  0  0  0  0  1  0  0
  -19.1562   -5.8652   26.0523 F   0  0  0  0  0  0  0  0  0  0  0  0
  -19.7408   -8.6674   22.2824 F   0  0  0  0  0  0  0  0  0  0  0  0
  1  2  1  0  0  0  0
  1  5  2  0  0  0  0
  2  6  2  0  0  0  0
  3  8  2  0  0  0  0
  3 16  1  0  0  0  0
  4  9  1  0  0  0  0
  4 16  2  0  0  0  0
  5 19  1  0  0  0  0
  6 21  1  0  0  0  0
  7 10  2  0  0  0  0
  7 20  1  0  0  0  0
  8 24  1  0  0  0  0
  9 24  2  0  0  0  0
 10 25  1  0  0  0  0
 11 12  2  0  0  0  0
 11 26  1  0  0  0  0
 12 27  1  0  0  0  0
 13 22  1  0  0  0  0
 13 25  2  0  0  0  0
 14 27  2  0  0  0  0
 14 28  1  0  0  0  0
 15 23  2  0  0  0  0
 15 80  1  0  0  0  0
 16 29  1  0  0  0  0
 17 23  1  0  0  0  0
 17 30  2  0  0  0  0
 17 32  1  0  0  0  0
 18 29  1  0  0  0  0
 18 31  2  0  0  0  0
 18 33  1  0  0  0  0
 19 21  2  0  0  0  0
 19 39  1  0  0  0  0
 20 22  2  0  0  0  0
 20 40  1  0  0  0  0
 21 48  1  0  0  0  0
 22 41  1  0  0  0  0
 23 68  1  0  0  0  0
 24 81  1  0  0  0  0
 25 82  1  0  0  0  0
 26 28  2  0  0  0  0
 26 81  1  0  0  0  0
 27 83  1  0  0  0  0
 28 84  1  0  0  0  0
 29 62  2  0  0  0  0
 30 57  1  0  0  0  0
 30 80  1  0  0  0  0
 31 63  1  0  0  0  0
 31 66  1  0  0  0  0
 32 51  1  0  0  0  0
 32 73  2  0  0  0  0
 33 67  1  0  0  0  0
 33 74  2  0  0  0  0
 34 49  1  0  0  0  0
 34 69  1  0  0  0  0
 34 75  2  0  0  0  0
 35 59  1  0  0  0  0
 35 64  1  0  0  0  0
 35 76  2  0  0  0  0
 36 58  1  0  0  0  0
 36 68  1  0  0  0  0
 36 77  2  0  0  0  0
 37 60  1  0  0  0  0
 37 70  1  0  0  0  0
 37 78  2  0  0  0  0
 38 65  1  0  0  0  0
 38 71  1  0  0  0  0
 38 79  2  0  0  0  0
 39 42  1  0  0  0  0
 40 49  1  0  0  0  0
 41 64  1  0  0  0  0
 42 44  1  0  0  0  0
 43 45  1  0  0  0  0
 43 46  1  0  0  0  0
 44 48  1  0  0  0  0
 45 50  1  0  0  0  0
 46 65  1  0  0  0  0
 47 50  1  0  0  0  0
 47 65  1  0  0  0  0
 48 69  1  0  0  0  0
 49 64  1  0  0  0  0
 50 63  1  0  0  0  0
 52 60  1  0  0  0  0
 53 61  1  0  0  0  0
 54 61  1  0  0  0  0
 55 61  1  0  0  0  0
 56 72  1  0  0  0  0
 57 71  1  0  0  0  0
 58 82  1  0  0  0  0
 59 61  1  0  0  0  0
 59 70  1  0  0  0  0
 60 72  1  0  0  0  0
 62 63  1  0  0  0  0
M  CHG  1  72   1
M  ISO  4  38 100  58 101  71 100  82 101
M  END
> <Batch ID>
0152

> <Smiles>
CNC(C)C(=O)NC(C(=O)N1Cc2cc([101O:1][101CH2:1]C(=O)Nc3coc(C[100NH:0][100C:0](=O)N4CCCC(n5nc(-c6ccc(Oc7ccc(F)cc7F)cc6)c(C(N)=O)c5N)C4)c3C(C)=O)ccc2CC1C(=O)NC1CCCc2ccccc21)C(C)(C)C

> <Shape>
0.377

> <Color>
0.184

> <Negative vol penalty>
0.000

$$$$

  -OEChem-04052303273D

 84 93  0     1  0  0  0  0  0999 V2000
  -21.8408  -34.2859   15.1834 C   0  0  0  0  0  0  0  0  0  0  0  0
  -22.7866  -33.2738   15.3127 C   0  0  0  0  0  0  0  0  0  0  0  0
  -22.8494   -9.8129   19.9242 C   0  0  0  0  0  0  0  0  0  0  0  0
  -24.5107   -9.2980   21.6011 C   0  0  0  0  0  0  0  0  0  0  0  0
  -21.5866  -35.1418   16.2543 C   0  0  0  0  0  0  0  0  0  0  0  0
  -23.4795  -33.1178   16.5127 C   0  0  0  0  0  0  0  0  0  0  0  0
  -25.3489  -27.8558   19.0271 C   0  0  0  0  0  0  0  0  0  0  0  0
  -21.8512   -9.3106   20.7588 C   0  0  0  0  0  0  0  0  0  0  0  0
  -23.5124   -8.7957   22.4358 C   0  0  0  0  0  0  0  0  0  0  0  0
  -26.5807  -27.2027   19.0292 C   0  0  0  0  0  0  0  0  0  0  0  0
  -21.6964   -5.9580   22.7194 C   0  0  0  0  0  0  0  0  0  0  0  0
  -21.9394   -4.7444   23.3626 C   0  0  0  0  0  0  0  0  0  0  0  0
  -27.9926  -20.8266   19.2552 C   0  0  0  0  0  0  0  0  0  0  0  0
  -27.6488  -19.4456   19.3237 C   0  0  0  0  0  0  0  0  0  0  0  0
  -27.0970  -28.1963   21.1659 C   0  0  0  0  0  0  0  0  0  0  0  0
  -21.6906   -5.8307   25.5062 C   0  0  0  0  0  0  0  0  0  0  0  0
  -24.1792   -9.8066   20.3452 C   0  0  0  0  0  0  0  0  0  0  0  0
  -25.5529   -9.8674   18.1965 C   0  0  0  0  0  0  0  0  0  0  0  0
  -22.2698  -34.9901   17.4712 C   0  0  0  0  0  0  0  0  0  0  0  0
  -24.9859  -28.6940   20.0910 C   0  0  0  0  0  0  0  0  0  0  0  0
  -23.2351  -33.9733   17.6004 C   0  0  0  0  0  0  0  0  0  0  0  0
  -25.8590  -28.8568   21.1761 C   0  0  0  0  0  0  0  0  0  0  0  0
  -22.1826   -8.8020   22.0147 C   0  0  0  0  0  0  0  0  0  0  0  0
  -27.4562  -27.3752   20.0973 C   0  0  0  0  0  0  0  0  0  0  0  0
  -21.4506   -7.1080   23.4696 C   0  0  0  0  0  0  0  0  0  0  0  0
  -21.9365   -4.6807   24.7560 C   0  0  0  0  0  0  0  0  0  0  0  0
  -21.4476   -7.0443   24.8630 C   0  0  0  0  0  0  0  0  0  0  0  0
  -25.2109  -10.3248   19.4832 C   0  0  0  0  0  0  0  0  0  0  0  0
  -29.3495  -21.0288   19.3795 C   0  0  0  0  0  0  0  0  0  0  0  0
  -26.5861  -10.6833   17.8053 C   0  0  0  0  0  0  0  0  0  0  0  0
  -28.7562  -18.6447   19.4975 C   0  0  0  0  0  0  0  0  0  0  0  0
  -24.9870   -8.8003   17.4239 C   0  0  0  0  0  0  0  0  0  0  0  0
  -24.3040  -31.7852   20.3794 C   0  0  0  0  0  0  0  0  0  0  0  0
  -23.5715  -30.9403   23.4243 C   0  0  0  0  0  0  0  0  0  0  0  0
  -24.0053  -28.7537   26.0084 C   0  0  0  0  0  0  0  0  0  0  0  0
  -27.8478  -16.2884   19.5797 C   0  0  0  0  0  0  0  0  0  0  0  0
  -21.9950  -35.9692   18.5849 C   0  0  0  0  0  0  0  0  0  0  0  0
  -23.6423  -29.3702   20.0862 C   0  0  0  0  0  0  0  0  0  0  0  0
  -25.5081  -29.7298   22.3522 C   0  0  0  0  0  0  0  0  0  0  0  0
  -22.5028  -35.5014   19.9463 C   0  0  0  0  0  0  0  0  0  0  0  0
  -29.8792  -13.1305   20.3707 C   0  0  0  0  0  0  0  0  0  0  0  0
  -23.9278  -34.9694   19.8306 C   0  0  0  0  0  0  0  0  0  0  0  0
  -29.9739  -23.0640   18.0109 C   0  0  0  0  0  0  0  0  0  0  0  0
  -29.7150  -23.2504   20.5353 C   0  0  0  0  0  0  0  0  0  0  0  0
  -29.1801  -12.1402   19.4423 C   0  0  0  0  0  0  0  0  0  0  0  0
  -30.7478  -24.3850   17.9988 C   0  0  0  0  0  0  0  0  0  0  0  0
  -30.4904  -24.5704   20.5113 C   0  0  0  0  0  0  0  0  0  0  0  0
  -29.7045  -14.5731   19.9132 C   0  0  0  0  0  0  0  0  0  0  0  0
  -27.3138  -13.8633   19.7222 C   0  0  0  0  0  0  0  0  0  0  0  0
  -23.9895  -33.7566   18.8943 C   0  0  1  0  0  0  0  0  0  0  0  0
  -30.1153  -22.3394   19.3612 C   0  0  0  0  0  0  0  0  0  0  0  0
  -23.5922  -30.6059   20.9795 C   0  0  1  0  0  0  0  0  0  0  0  0
  -27.8246  -12.6562   18.9201 C   0  0  2  0  0  0  0  0  0  0  0  0
  -30.3555  -25.3029   19.1672 C   0  0  0  0  0  0  0  0  0  0  0  0
  -23.3044  -28.3467   28.3833 C   0  0  0  0  0  0  0  0  0  0  0  0
  -25.4661  -33.1422   24.3582 C   0  0  0  0  0  0  0  0  0  0  0  0
  -25.4626  -32.0862   26.6283 C   0  0  0  0  0  0  0  0  0  0  0  0
  -23.3397  -32.9726   25.6637 C   0  0  0  0  0  0  0  0  0  0  0  0
  -22.7588  -26.1597   25.3182 C   0  0  0  0  0  0  0  0  0  0  0  0
  -28.9602  -25.9108   18.9794 C   0  0  0  0  0  0  0  0  0  1  0  0
  -24.3373  -30.8488   24.7221 C   0  0  1  0  0  0  0  0  0  0  0  0
  -23.0084  -28.0604   26.9194 C   0  0  2  0  0  0  0  0  0  0  0  0
  -24.6591  -32.2475   25.3202 C   0  0  0  0  0  0  0  0  0  0  0  0
  -25.9659  -11.3516   19.8829 N   0  0  0  0  0  0  0  0  0  0  0  0
  -26.7925  -11.5461   18.8413 N   0  0  0  0  0  0  0  0  0  0  0  0
  -24.1857  -30.3746   22.2980 N   0  0  0  0  0  0  0  0  0  0  0  0
  -28.2968  -14.9529   19.7256 N   0  0  0  0  0  0  0  0  0  0  0  0
  -27.3293  -10.7398   16.6797 N   0  0  0  0  0  0  0  0  0  0  0  0
  -25.5320   -7.5161   17.5586 N   0  0  0  0  0  0  0  0  0  0  0  0
  -28.8732  -17.2371   19.6145 N   0  0  0  0  0  0  0  0  0  0  0  0
  -23.5064  -32.5714   19.5699 N   0  0  0  0  0  0  0  0  0  0  0  0
  -23.5506  -29.9899   25.6006 N   0  0  0  0  0  0  0  0  0  0  0  0
  -31.3215  -26.4529   19.1814 N   0  3  0  0  0  0  0  0  0  0  0  0
  -23.0543  -26.5855   26.7104 N   0  3  0  0  0  0  0  0  0  0  0  0
  -24.0373   -8.9835   16.6252 O   0  0  0  0  0  0  0  0  0  0  0  0
  -25.4886  -31.9691   20.6331 O   0  0  0  0  0  0  0  0  0  0  0  0
  -22.4658  -31.4870   23.4119 O   0  0  0  0  0  0  0  0  0  0  0  0
  -25.0815  -28.2506   25.6932 O   0  0  0  0  0  0  0  0  0  0  0  0
  -26.6548  -16.5574   19.4245 O   0  0  0  0  0  0  0  0  0  0  0  0
  -21.2088   -8.3120   22.8295 O   0  0  0  0  0  0  0  0  0  0  0  0
  -28.6594  -26.7395   20.1016 O   0  0  0  0  0  0  0  0  0  1  0  0
  -22.1683   -3.5149   25.3735 F   0  0  0  0  0  0  0  0  0  0  0  0
  -21.2109   -8.1455   25.5890 F   0  0  0  0  0  0  0  0  0  0  0  0
  -30.2028  -19.5574   19.5777 S   0  0  0  0  0  0  0  0  0  0  0  0
  1  2  1  0  0  0  0
  1  5  2  0  0  0  0
  2  6  2  0  0  0  0
  3  8  2  0  0  0  0
  3 17  1  0  0  0  0
  4  9  1  0  0  0  0
  4 17  2  0  0  0  0
  5 19  1  0  0  0  0
  6 21  1  0  0  0  0
  7 10  2  0  0  0  0
  7 20  1  0  0  0  0
  8 23  1  0  0  0  0
  9 23  2  0  0  0  0
 10 24  1  0  0  0  0
 11 12  2  0  0  0  0
 11 25  1  0  0  0  0
 12 26  1  0  0  0  0
 13 14  1  0  0  0  0
 13 29  2  0  0  0  0
 14 31  2  0  0  0  0
 15 22  1  0  0  0  0
 15 24  2  0  0  0  0
 16 26  2  0  0  0  0
 16 27  1  0  0  0  0
 17 28  1  0  0  0  0
 18 28  1  0  0  0  0
 18 30  2  0  0  0  0
 18 32  1  0  0  0  0
 19 21  2  0  0  0  0
 19 37  1  0  0  0  0
 20 22  2  0  0  0  0
 20 38  1  0  0  0  0
 21 50  1  0  0  0  0
 22 39  1  0  0  0  0
 23 80  1  0  0  0  0
 24 81  1  0  0  0  0
 25 27  2  0  0  0  0
 25 80  1  0  0  0  0
 26 82  1  0  0  0  0
 27 83  1  0  0  0  0
 28 64  2  0  0  0  0
 29 51  1  0  0  0  0
 29 84  1  0  0  0  0
 30 65  1  0  0  0  0
 30 68  1  0  0  0  0
 31 70  1  0  0  0  0
 31 84  1  0  0  0  0
 32 69  1  0  0  0  0
 32 75  2  0  0  0  0
 33 52  1  0  0  0  0
 33 71  1  0  0  0  0
 33 76  2  0  0  0  0
 34 61  1  0  0  0  0
 34 66  1  0  0  0  0
 34 77  2  0  0  0  0
 35 62  1  0  0  0  0
 35 72  1  0  0  0  0
 35 78  2  0  0  0  0
 36 67  1  0  0  0  0
 36 70  1  0  0  0  0
 36 79  2  0  0  0  0
 37 40  1  0  0  0  0
 38 52  1  0  0  0  0
 39 66  1  0  0  0  0
 40 42  1  0  0  0  0
 41 45  1  0  0  0  0
 41 48  1  0  0  0  0
 42 50  1  0  0  0  0
 43 46  1  0  0  0  0
 43 51  1  0  0  0  0
 44 47  1  0  0  0  0
 44 51  1  0  0  0  0
 45 53  1  0  0  0  0
 46 54  1  0  0  0  0
 47 54  1  0  0  0  0
 48 67  1  0  0  0  0
 49 53  1  0  0  0  0
 49 67  1  0  0  0  0
 50 71  1  0  0  0  0
 52 66  1  0  0  0  0
 53 65  1  0  0  0  0
 54 60  1  0  0  0  0
 54 73  1  0  0  0  0
 55 62  1  0  0  0  0
 56 63  1  0  0  0  0
 57 63  1  0  0  0  0
 58 63  1  0  0  0  0
 59 74  1  0  0  0  0
 60 81  1  0  0  0  0
 61 63  1  0  0  0  0
 61 72  1  0  0  0  0
 62 74  1  0  0  0  0
 64 65  1  0  0  0  0
M  CHG  2  73   1  74   1
M  ISO  4  36 100  60 101  70 100  81 101
M  END
> <Batch ID>
0152

> <Smiles>
CNC(C)C(=O)NC(C(=O)N1Cc2cc([101O:1][101CH2:1]C3(N)CCC(c4ccc([100NH:0][100C:0](=O)N5CCCC(n6nc(-c7ccc(Oc8ccc(F)cc8F)cc7)c(C(N)=O)c6N)C5)s4)CC3)ccc2CC1C(=O)NC1CCCc2ccccc21)C(C)(C)C

> <Shape>
0.307

> <Color>
0.103

> <Negative vol penalty>
0.000

$$$$

  -OEChem-04052303273D

 85 94  0     1  0  0  0  0  0999 V2000
  -28.9145  -21.8948   15.9801 C   0  0  0  0  0  0  0  0  0  0  0  0
  -28.0210  -22.9575   16.0513 C   0  0  0  0  0  0  0  0  0  0  0  0
  -24.7556  -15.1293   19.5413 C   0  0  0  0  0  0  0  0  0  0  0  0
  -26.6964  -15.3532   20.9627 C   0  0  0  0  0  0  0  0  0  0  0  0
  -29.6101  -21.4964   17.1196 C   0  0  0  0  0  0  0  0  0  0  0  0
  -27.8316  -23.6298   17.2592 C   0  0  0  0  0  0  0  0  0  0  0  0
  -23.9846  -28.1194   18.7330 C   0  0  0  0  0  0  0  0  0  0  0  0
  -24.8189  -13.7422   19.6733 C   0  0  0  0  0  0  0  0  0  0  0  0
  -26.7596  -13.9660   21.0949 C   0  0  0  0  0  0  0  0  0  0  0  0
  -22.6993  -28.2420   19.2591 C   0  0  0  0  0  0  0  0  0  0  0  0
  -23.9602  -11.4172   21.9734 C   0  0  0  0  0  0  0  0  0  0  0  0
  -22.7697  -10.7350   22.2244 C   0  0  0  0  0  0  0  0  0  0  0  0
  -23.6367  -28.5676   21.4578 C   0  0  0  0  0  0  0  0  0  0  0  0
  -19.5489  -25.9045   19.6068 C   0  0  0  0  0  0  0  0  0  0  0  0
  -20.9115  -25.0933   21.4295 C   0  0  0  0  0  0  0  0  0  0  0  0
  -21.3258  -24.3250   19.1767 C   0  0  0  0  0  0  0  0  0  0  0  0
  -23.0602   -9.4769   20.1823 C   0  0  0  0  0  0  0  0  0  0  0  0
  -25.6944  -15.9348   20.1859 C   0  0  0  0  0  0  0  0  0  0  0  0
  -25.7186  -18.1131   18.8584 C   0  0  0  0  0  0  0  0  0  0  0  0
  -29.4193  -22.1567   18.3446 C   0  0  0  0  0  0  0  0  0  0  0  0
  -25.1072  -28.2092   19.5686 C   0  0  0  0  0  0  0  0  0  0  0  0
  -28.5422  -23.2581   18.4149 C   0  0  0  0  0  0  0  0  0  0  0  0
  -24.9353  -28.4483   20.9395 C   0  0  0  0  0  0  0  0  0  0  0  0
  -19.8650  -25.8901   20.9653 C   0  0  0  0  0  0  0  0  0  0  0  0
  -20.2793  -25.1219   18.7125 C   0  0  0  0  0  0  0  0  0  0  0  0
  -21.6419  -24.3107   20.5352 C   0  0  0  0  0  0  0  0  0  0  0  0
  -25.8208  -13.1605   20.4502 C   0  0  0  0  0  0  0  0  0  0  0  0
  -22.5251  -28.4632   20.6221 C   0  0  0  0  0  0  0  0  0  0  0  0
  -24.7006  -11.1294   20.8268 C   0  0  0  0  0  0  0  0  0  0  0  0
  -22.3198   -9.7649   21.3289 C   0  0  0  0  0  0  0  0  0  0  0  0
  -24.2507  -10.1592   19.9313 C   0  0  0  0  0  0  0  0  0  0  0  0
  -25.6299  -17.3678   20.0494 C   0  0  0  0  0  0  0  0  0  0  0  0
  -25.6020  -19.4207   19.2622 C   0  0  0  0  0  0  0  0  0  0  0  0
  -18.8964  -28.3453   23.5928 C   0  0  0  0  0  0  0  0  0  0  0  0
  -19.6589  -27.6989   22.6863 C   0  0  0  0  0  0  0  0  0  0  0  0
  -25.8908  -17.6636   17.5078 C   0  0  0  0  0  0  0  0  0  0  0  0
  -27.4708  -26.2405   20.3694 C   0  0  0  0  0  0  0  0  0  0  0  0
  -28.6145  -28.8625   21.8988 C   0  0  0  0  0  0  0  0  0  0  0  0
  -27.2650  -31.5328   23.9152 C   0  0  0  0  0  0  0  0  0  0  0  0
  -23.1496  -23.3733   22.3225 C   0  0  0  0  0  0  0  0  0  0  0  0
  -30.2040  -21.6890   19.5449 C   0  0  0  0  0  0  0  0  0  0  0  0
  -26.4878  -28.1014   18.9814 C   0  0  0  0  0  0  0  0  0  0  0  0
  -26.1083  -28.5730   21.8760 C   0  0  0  0  0  0  0  0  0  0  0  0
  -17.4566  -28.0012   23.8336 C   0  0  0  0  0  0  0  0  0  0  0  0
  -29.6114  -22.1681   20.8661 C   0  0  0  0  0  0  0  0  0  0  0  0
  -17.0700  -26.6528   23.2283 C   0  0  0  0  0  0  0  0  0  0  0  0
  -25.7083  -21.4599   23.8938 C   0  0  0  0  0  0  0  0  0  0  0  0
  -29.3409  -23.6639   20.8024 C   0  0  0  0  0  0  0  0  0  0  0  0
  -25.9233  -20.2860   22.9357 C   0  0  0  0  0  0  0  0  0  0  0  0
  -17.6647  -26.4641   21.8321 C   0  0  0  0  0  0  0  0  0  0  0  0
  -24.2378  -21.8663   23.9717 C   0  0  0  0  0  0  0  0  0  0  0  0
  -23.8139  -20.9628   21.7194 C   0  0  0  0  0  0  0  0  0  0  0  0
  -28.2972  -23.9847   19.7250 C   0  0  1  0  0  0  0  0  0  0  0  0
  -27.5430  -27.6967   20.0062 C   0  0  1  0  0  0  0  0  0  0  0  0
  -25.2887  -20.5595   21.5580 C   0  0  2  0  0  0  0  0  0  0  0  0
  -28.0840  -33.8769   24.2785 C   0  0  0  0  0  0  0  0  0  0  0  0
  -30.0112  -27.6867   24.3436 C   0  0  0  0  0  0  0  0  0  0  0  0
  -29.4533  -29.7875   25.5860 C   0  0  0  0  0  0  0  0  0  0  0  0
  -30.9265  -29.8836   23.5753 C   0  0  0  0  0  0  0  0  0  0  0  0
  -24.6740  -32.6917   23.0771 C   0  0  0  0  0  0  0  0  0  0  0  0
  -21.0817  -28.1587   22.4875 C   0  0  0  0  0  0  0  0  0  1  0  0
  -28.4533  -29.4497   23.2802 C   0  0  1  0  0  0  0  0  0  0  0  0
  -27.1154  -32.9889   23.5129 C   0  0  2  0  0  0  0  0  0  0  0  0
  -29.6905  -29.1863   24.1842 C   0  0  0  0  0  0  0  0  0  0  0  0
  -25.4696  -18.1379   21.1289 N   0  0  0  0  0  0  0  0  0  0  0  0
  -25.4566  -19.3807   20.6177 N   0  0  0  0  0  0  0  0  0  0  0  0
  -19.1227  -26.6852   21.8742 N   0  0  0  0  0  0  0  0  0  0  0  0
  -27.4379  -28.4540   21.2550 N   0  0  0  0  0  0  0  0  0  0  0  0
  -23.7055  -22.1134   22.6299 N   0  0  0  0  0  0  0  0  0  0  0  0
  -19.9595  -25.1362   17.3389 N   0  0  0  0  0  0  0  0  0  0  0  0
  -25.6107  -20.5893   18.5864 N   0  0  0  0  0  0  0  0  0  0  0  0
  -27.1940  -17.5219   17.0119 N   0  0  0  0  0  0  0  0  0  0  0  0
  -22.7056  -23.5021   21.0069 N   0  0  0  0  0  0  0  0  0  0  0  0
  -28.2229  -25.4187   19.5519 N   0  0  0  0  0  0  0  0  0  0  0  0
  -28.1425  -30.8623   23.0895 N   0  0  0  0  0  0  0  0  0  0  0  0
  -25.7287  -33.4617   23.7855 N   0  3  0  0  0  0  0  0  0  0  0  0
  -24.9176  -17.4113   16.7577 O   0  0  0  0  0  0  0  0  0  0  0  0
  -26.7847  -25.8887   21.3219 O   0  0  0  0  0  0  0  0  0  0  0  0
  -29.7421  -28.7763   21.4062 O   0  0  0  0  0  0  0  0  0  0  0  0
  -26.6664  -31.0404   24.8690 O   0  0  0  0  0  0  0  0  0  0  0  0
  -23.0978  -24.2808   23.1567 O   0  0  0  0  0  0  0  0  0  0  0  0
  -25.8827  -11.8070   20.5795 O   0  0  0  0  0  0  0  0  0  0  0  0
  -21.2716  -28.5827   21.1382 O   0  0  0  0  0  0  0  0  0  1  0  0
  -21.1774   -9.1087   21.5708 F   0  0  0  0  0  0  0  0  0  0  0  0
  -24.9583   -9.8775   18.8288 F   0  0  0  0  0  0  0  0  0  0  0  0
  1  2  1  0  0  0  0
  1  5  2  0  0  0  0
  2  6  2  0  0  0  0
  3  8  2  0  0  0  0
  3 18  1  0  0  0  0
  4  9  1  0  0  0  0
  4 18  2  0  0  0  0
  5 20  1  0  0  0  0
  6 22  1  0  0  0  0
  7 10  2  0  0  0  0
  7 21  1  0  0  0  0
  8 27  1  0  0  0  0
  9 27  2  0  0  0  0
 10 28  1  0  0  0  0
 11 12  2  0  0  0  0
 11 29  1  0  0  0  0
 12 30  1  0  0  0  0
 13 23  1  0  0  0  0
 13 28  2  0  0  0  0
 14 24  1  0  0  0  0
 14 25  2  0  0  0  0
 15 24  2  0  0  0  0
 15 26  1  0  0  0  0
 16 25  1  0  0  0  0
 16 26  2  0  0  0  0
 17 30  2  0  0  0  0
 17 31  1  0  0  0  0
 18 32  1  0  0  0  0
 19 32  1  0  0  0  0
 19 33  2  0  0  0  0
 19 36  1  0  0  0  0
 20 22  2  0  0  0  0
 20 41  1  0  0  0  0
 21 23  2  0  0  0  0
 21 42  1  0  0  0  0
 22 53  1  0  0  0  0
 23 43  1  0  0  0  0
 24 67  1  0  0  0  0
 25 70  1  0  0  0  0
 26 73  1  0  0  0  0
 27 82  1  0  0  0  0
 28 83  1  0  0  0  0
 29 31  2  0  0  0  0
 29 82  1  0  0  0  0
 30 84  1  0  0  0  0
 31 85  1  0  0  0  0
 32 65  2  0  0  0  0
 33 66  1  0  0  0  0
 33 71  1  0  0  0  0
 34 35  2  0  0  0  0
 34 44  1  0  0  0  0
 35 61  1  0  0  0  0
 35 67  1  0  0  0  0
 36 72  1  0  0  0  0
 36 77  2  0  0  0  0
 37 54  1  0  0  0  0
 37 74  1  0  0  0  0
 37 78  2  0  0  0  0
 38 62  1  0  0  0  0
 38 68  1  0  0  0  0
 38 79  2  0  0  0  0
 39 63  1  0  0  0  0
 39 75  1  0  0  0  0
 39 80  2  0  0  0  0
 40 69  1  0  0  0  0
 40 73  1  0  0  0  0
 40 81  2  0  0  0  0
 41 45  1  0  0  0  0
 42 54  1  0  0  0  0
 43 68  1  0  0  0  0
 44 46  1  0  0  0  0
 45 48  1  0  0  0  0
 46 50  1  0  0  0  0
 47 49  1  0  0  0  0
 47 51  1  0  0  0  0
 48 53  1  0  0  0  0
 49 55  1  0  0  0  0
 50 67  1  0  0  0  0
 51 69  1  0  0  0  0
 52 55  1  0  0  0  0
 52 69  1  0  0  0  0
 53 74  1  0  0  0  0
 54 68  1  0  0  0  0
 55 66  1  0  0  0  0
 56 63  1  0  0  0  0
 57 64  1  0  0  0  0
 58 64  1  0  0  0  0
 59 64  1  0  0  0  0
 60 76  1  0  0  0  0
 61 83  1  0  0  0  0
 62 64  1  0  0  0  0
 62 75  1  0  0  0  0
 63 76  1  0  0  0  0
 65 66  1  0  0  0  0
M  CHG  1  76   1
M  ISO  4  40 100  61 101  73 100  83 101
M  END
> <Batch ID>
0152

> <Smiles>
CNC(C)C(=O)NC(C(=O)N1Cc2cc([101O:1][101CH2:1]C3=CCCCN3c3cc(N)cc([100NH:0][100C:0](=O)N4CCCC(n5nc(-c6ccc(Oc7ccc(F)cc7F)cc6)c(C(N)=O)c5N)C4)c3)ccc2CC1C(=O)NC1CCCc2ccccc21)C(C)(C)C

> <Shape>
0.243

> <Color>
0.057

> <Negative vol penalty>
0.000

$$$$

  -OEChem-04052303273D

 87 96  0     1  0  0  0  0  0999 V2000
  -29.4767  -31.6772   25.0861 C   0  0  0  0  0  0  0  0  0  0  0  0
  -29.1694  -30.3559   24.7776 C   0  0  0  0  0  0  0  0  0  0  0  0
  -23.2228  -15.3346   23.9025 C   0  0  0  0  0  0  0  0  0  0  0  0
  -23.0694  -16.2628   21.6773 C   0  0  0  0  0  0  0  0  0  0  0  0
  -28.4564  -32.6205   25.2006 C   0  0  0  0  0  0  0  0  0  0  0  0
  -27.8414  -29.9769   24.5846 C   0  0  0  0  0  0  0  0  0  0  0  0
  -27.2378  -27.0121   20.5238 C   0  0  0  0  0  0  0  0  0  0  0  0
  -22.3066  -16.2812   24.3606 C   0  0  0  0  0  0  0  0  0  0  0  0
  -22.1531  -17.2095   22.1353 C   0  0  0  0  0  0  0  0  0  0  0  0
  -27.5939  -25.6706   20.6562 C   0  0  0  0  0  0  0  0  0  0  0  0
  -22.2290  -20.1315   23.8344 C   0  0  0  0  0  0  0  0  0  0  0  0
  -22.4050  -21.4538   23.4270 C   0  0  0  0  0  0  0  0  0  0  0  0
  -32.2304  -18.0597   17.4515 C   0  0  0  0  0  0  0  0  0  0  0  0
  -31.8789  -19.4303   17.4843 C   0  0  0  0  0  0  0  0  0  0  0  0
  -25.2726  -25.0912   20.9648 C   0  0  0  0  0  0  0  0  0  0  0  0
  -20.2249  -21.4234   22.3863 C   0  0  0  0  0  0  0  0  0  0  0  0
  -23.6043  -15.3254   22.5609 C   0  0  0  0  0  0  0  0  0  0  0  0
  -24.2671  -13.0687   21.5729 C   0  0  0  0  0  0  0  0  0  0  0  0
  -27.1160  -32.2549   24.9994 C   0  0  0  0  0  0  0  0  0  0  0  0
  -25.8953  -27.4052   20.6219 C   0  0  0  0  0  0  0  0  0  0  0  0
  -26.8021  -30.9159   24.6979 C   0  0  0  0  0  0  0  0  0  0  0  0
  -24.9019  -26.4380   20.8307 C   0  0  0  0  0  0  0  0  0  0  0  0
  -21.7717  -17.2187   23.4770 C   0  0  0  0  0  0  0  0  0  0  0  0
  -26.6115  -24.7103   20.8797 C   0  0  0  0  0  0  0  0  0  0  0  0
  -21.0509  -19.4550   23.5177 C   0  0  0  0  0  0  0  0  0  0  0  0
  -21.4030  -22.0998   22.7030 C   0  0  0  0  0  0  0  0  0  0  0  0
  -20.0489  -20.1010   22.7937 C   0  0  0  0  0  0  0  0  0  0  0  0
  -24.5512  -14.3480   22.0872 C   0  0  0  0  0  0  0  0  0  0  0  0
  -31.0529  -17.3603   17.5792 C   0  0  0  0  0  0  0  0  0  0  0  0
  -30.5117  -19.4707   17.6294 C   0  0  0  0  0  0  0  0  0  0  0  0
  -25.4975  -12.5407   21.2669 C   0  0  0  0  0  0  0  0  0  0  0  0
  -23.0039  -12.4161   21.3882 C   0  0  0  0  0  0  0  0  0  0  0  0
  -24.2477  -29.2917   22.5789 C   0  0  0  0  0  0  0  0  0  0  0  0
  -21.8386  -28.7023   20.4883 C   0  0  0  0  0  0  0  0  0  0  0  0
  -20.4978  -26.6454   18.1180 C   0  0  0  0  0  0  0  0  0  0  0  0
  -30.7804  -15.0207   19.9285 C   0  0  0  0  0  0  0  0  0  0  0  0
  -26.0436  -33.2998   25.1805 C   0  0  0  0  0  0  0  0  0  0  0  0
  -25.5249  -28.8528   20.4501 C   0  0  0  0  0  0  0  0  0  0  0  0
  -23.4442  -26.8056   20.9237 C   0  0  0  0  0  0  0  0  0  0  0  0
  -24.6942  -32.8959   24.5919 C   0  0  0  0  0  0  0  0  0  0  0  0
  -30.0931  -12.7478   22.5816 C   0  0  0  0  0  0  0  0  0  0  0  0
  -24.3418  -31.4677   24.9952 C   0  0  0  0  0  0  0  0  0  0  0  0
  -28.5692  -12.7848   22.7093 C   0  0  0  0  0  0  0  0  0  0  0  0
  -27.9445  -20.8477   20.9341 C   0  0  0  0  0  0  0  0  0  0  0  0
  -30.6637  -14.1209   22.2336 C   0  0  0  0  0  0  0  0  0  0  0  0
  -28.5441  -14.7925   21.1707 C   0  0  0  0  0  0  0  0  0  0  0  0
  -28.7579  -19.9171   20.0463 C   0  0  0  0  0  0  0  0  0  0  0  0
  -27.3201  -21.3797   18.7027 C   0  0  0  0  0  0  0  0  0  0  0  0
  -25.3758  -30.4713   24.4569 C   0  0  1  0  0  0  0  0  0  0  0  0
  -24.1809  -29.2046   21.0804 C   0  0  1  0  0  0  0  0  0  0  0  0
  -27.9175  -13.4189   21.4658 C   0  0  2  0  0  0  0  0  0  0  0  0
  -26.7258  -21.2012   20.0906 C   0  0  2  0  0  0  0  0  0  0  0  0
  -28.9582  -21.0201   16.3728 C   0  0  0  0  0  0  0  0  0  0  0  0
  -18.5011  -26.4090   16.6164 C   0  0  0  0  0  0  0  0  0  0  0  0
  -20.1521  -27.8210   22.8734 C   0  0  0  0  0  0  0  0  0  0  0  0
  -18.5742  -26.7289   21.2654 C   0  0  0  0  0  0  0  0  0  0  0  0
  -18.9277  -29.1968   21.1817 C   0  0  0  0  0  0  0  0  0  0  0  0
  -22.1749  -26.7329   15.6810 C   0  0  0  0  0  0  0  0  0  0  0  0
  -24.6640  -20.3824   19.3152 C   0  0  0  0  0  0  0  0  0  0  0  0
  -30.7340  -15.9261   17.6183 C   0  0  0  0  0  0  0  0  0  0  0  0
  -25.9975  -22.4313   20.5883 C   0  0  0  0  0  0  0  0  0  1  0  0
  -29.5161  -20.6032   17.7313 C   0  0  1  0  0  0  0  0  0  0  0  0
  -20.7587  -27.6542   20.3694 C   0  0  1  0  0  0  0  0  0  0  0  0
  -19.9229  -26.9336   16.7428 C   0  0  2  0  0  0  0  0  0  0  0  0
  -19.6308  -27.8432   21.4227 C   0  0  0  0  0  0  0  0  0  0  0  0
  -25.8594  -14.6164   22.1084 N   0  0  0  0  0  0  0  0  0  0  0  0
  -26.4083  -13.4983   21.6037 N   0  0  0  0  0  0  0  0  0  0  0  0
  -23.1331  -28.2347   20.7554 N   0  0  0  0  0  0  0  0  0  0  0  0
  -30.0045  -14.6661   21.0444 N   0  0  0  0  0  0  0  0  0  0  0  0
  -25.8783  -11.3552   20.7454 N   0  0  0  0  0  0  0  0  0  0  0  0
  -21.8377  -13.1015   21.7553 N   0  0  0  0  0  0  0  0  0  0  0  0
  -25.1535  -30.2237   23.0485 N   0  0  0  0  0  0  0  0  0  0  0  0
  -20.2977  -27.6980   18.9859 N   0  0  0  0  0  0  0  0  0  0  0  0
  -30.0762  -15.5235   18.8414 N   0  0  0  0  0  0  0  0  0  0  0  0
  -28.3638  -20.2795   18.6271 N   0  3  1  0  0  0  0  0  0  0  0  0
  -20.7566  -26.2908   15.6879 N   0  3  0  0  0  0  0  0  0  0  0  0
  -22.9130  -11.2531   20.9271 O   0  0  0  0  0  0  0  0  0  0  0  0
  -23.5296  -28.5680   23.2588 O   0  0  0  0  0  0  0  0  0  0  0  0
  -21.5456  -29.8917   20.3422 O   0  0  0  0  0  0  0  0  0  0  0  0
  -21.0640  -25.5906   18.3956 O   0  0  0  0  0  0  0  0  0  0  0  0
  -32.0092  -14.8932   19.9010 O   0  0  0  0  0  0  0  0  0  0  0  0
  -30.0005  -18.2130   17.6881 O   0  0  0  0  0  0  0  0  0  0  0  0
  -20.8774  -18.1425   23.9236 O   0  0  0  0  0  0  0  0  0  0  0  0
  -26.9564  -23.4004   21.0100 O   0  0  0  0  0  0  0  0  0  1  0  0
  -25.8190  -20.1003   20.0904 O   0  0  0  0  0  0  0  0  0  0  0  0
  -21.5715  -23.3701   22.3131 F   0  0  0  0  0  0  0  0  0  0  0  0
  -18.9145  -19.4567   22.4875 F   0  0  0  0  0  0  0  0  0  0  0  0
  1  2  1  0  0  0  0
  1  5  2  0  0  0  0
  2  6  2  0  0  0  0
  3  8  2  0  0  0  0
  3 17  1  0  0  0  0
  4  9  1  0  0  0  0
  4 17  2  0  0  0  0
  5 19  1  0  0  0  0
  6 21  1  0  0  0  0
  7 10  2  0  0  0  0
  7 20  1  0  0  0  0
  8 23  1  0  0  0  0
  9 23  2  0  0  0  0
 10 24  1  0  0  0  0
 11 12  2  0  0  0  0
 11 25  1  0  0  0  0
 12 26  1  0  0  0  0
 13 14  1  0  0  0  0
 13 29  2  0  0  0  0
 14 30  2  0  0  0  0
 15 22  1  0  0  0  0
 15 24  2  0  0  0  0
 16 26  2  0  0  0  0
 16 27  1  0  0  0  0
 17 28  1  0  0  0  0
 18 28  1  0  0  0  0
 18 31  2  0  0  0  0
 18 32  1  0  0  0  0
 19 21  2  0  0  0  0
 19 37  1  0  0  0  0
 20 22  2  0  0  0  0
 20 38  1  0  0  0  0
 21 49  1  0  0  0  0
 22 39  1  0  0  0  0
 23 83  1  0  0  0  0
 24 84  1  0  0  0  0
 25 27  2  0  0  0  0
 25 83  1  0  0  0  0
 26 86  1  0  0  0  0
 27 87  1  0  0  0  0
 28 66  2  0  0  0  0
 29 60  1  0  0  0  0
 29 82  1  0  0  0  0
 30 62  1  0  0  0  0
 30 82  1  0  0  0  0
 31 67  1  0  0  0  0
 31 70  1  0  0  0  0
 32 71  1  0  0  0  0
 32 77  2  0  0  0  0
 33 50  1  0  0  0  0
 33 72  1  0  0  0  0
 33 78  2  0  0  0  0
 34 63  1  0  0  0  0
 34 68  1  0  0  0  0
 34 79  2  0  0  0  0
 35 64  1  0  0  0  0
 35 73  1  0  0  0  0
 35 80  2  0  0  0  0
 36 69  1  0  0  0  0
 36 74  1  0  0  0  0
 36 81  2  0  0  0  0
 37 40  1  0  0  0  0
 38 50  1  0  0  0  0
 39 68  1  0  0  0  0
 40 42  1  0  0  0  0
 41 43  1  0  0  0  0
 41 45  1  0  0  0  0
 42 49  1  0  0  0  0
 43 51  1  0  0  0  0
 44 47  1  0  0  0  0
 44 52  1  0  0  0  0
 45 69  1  0  0  0  0
 46 51  1  0  0  0  0
 46 69  1  0  0  0  0
 47 75  1  0  0  0  0
 48 52  1  0  0  0  0
 48 75  1  0  0  0  0
 49 72  1  0  0  0  0
 50 68  1  0  0  0  0
 51 67  1  0  0  0  0
 52 61  1  0  0  0  0
 52 85  1  0  0  0  0
 53 62  1  0  0  0  0
 54 64  1  0  0  0  0
 55 65  1  0  0  0  0
 56 65  1  0  0  0  0
 57 65  1  0  0  0  0
 58 76  1  0  0  0  0
 59 85  1  0  0  0  0
 60 74  1  0  0  0  0
 61 84  1  0  0  0  0
 62 75  1  0  0  0  0
 63 65  1  0  0  0  0
 63 73  1  0  0  0  0
 64 76  1  0  0  0  0
 66 67  1  0  0  0  0
M  CHG  2  75   1  76   1
M  ISO  4  36 100  61 101  74 100  84 101
M  END
> <Batch ID>
0152

> <Smiles>
CNC(C)C(=O)NC(C(=O)N1Cc2cc([101O:1][101CH2:1]C3(OC)CCN(C(C)c4ccc(C[100NH:0][100C:0](=O)N5CCCC(n6nc(-c7ccc(Oc8ccc(F)cc8F)cc7)c(C(N)=O)c6N)C5)o4)C3)ccc2CC1C(=O)NC1CCCc2ccccc21)C(C)(C)C

> <Shape>
0.218

> <Color>
0.068

> <Negative vol penalty>
0.000

$$$$

  -OEChem-04052303273D

 83 92  0     1  0  0  0  0  0999 V2000
  -28.8850  -36.8290   26.7275 C   0  0  0  0  0  0  0  0  0  0  0  0
  -29.6937  -35.7062   26.8709 C   0  0  0  0  0  0  0  0  0  0  0  0
  -23.0047   -9.8856   19.9815 C   0  0  0  0  0  0  0  0  0  0  0  0
  -23.7203   -9.9501   22.2882 C   0  0  0  0  0  0  0  0  0  0  0  0
  -27.5428  -36.6802   26.3806 C   0  0  0  0  0  0  0  0  0  0  0  0
  -29.1605  -34.4338   26.6686 C   0  0  0  0  0  0  0  0  0  0  0  0
  -30.9770  -27.9383   24.2551 C   0  0  0  0  0  0  0  0  0  0  0  0
  -22.2389   -8.7514   20.2507 C   0  0  0  0  0  0  0  0  0  0  0  0
  -22.9544   -8.8158   22.5575 C   0  0  0  0  0  0  0  0  0  0  0  0
  -30.9448  -26.5985   24.6396 C   0  0  0  0  0  0  0  0  0  0  0  0
  -23.2059   -5.4748   22.1044 C   0  0  0  0  0  0  0  0  0  0  0  0
  -23.7919   -4.4625   22.8644 C   0  0  0  0  0  0  0  0  0  0  0  0
  -31.8994  -18.7694   22.3173 C   0  0  0  0  0  0  0  0  0  0  0  0
  -31.8048  -17.4926   21.6920 C   0  0  0  0  0  0  0  0  0  0  0  0
  -28.6322  -26.4671   23.9659 C   0  0  0  0  0  0  0  0  0  0  0  0
  -22.0607   -4.7117   24.5311 C   0  0  0  0  0  0  0  0  0  0  0  0
  -23.7455  -10.4850   21.0002 C   0  0  0  0  0  0  0  0  0  0  0  0
  -24.1276  -13.0002   20.8123 C   0  0  0  0  0  0  0  0  0  0  0  0
  -26.9952  -35.4059   26.1645 C   0  0  0  0  0  0  0  0  0  0  0  0
  -29.8321  -28.5565   23.7323 C   0  0  0  0  0  0  0  0  0  0  0  0
  -27.8094  -34.2677   26.3197 C   0  0  0  0  0  0  0  0  0  0  0  0
  -28.6533  -27.8140   23.5731 C   0  0  0  0  0  0  0  0  0  0  0  0
  -22.2137   -8.2164   21.5387 C   0  0  0  0  0  0  0  0  0  0  0  0
  -29.7715  -25.8635   24.4978 C   0  0  0  0  0  0  0  0  0  0  0  0
  -22.0473   -6.1055   22.5578 C   0  0  0  0  0  0  0  0  0  0  0  0
  -23.2193   -4.0810   24.0777 C   0  0  0  0  0  0  0  0  0  0  0  0
  -21.4747   -5.7240   23.7712 C   0  0  0  0  0  0  0  0  0  0  0  0
  -24.5372  -11.6563   20.7226 C   0  0  0  0  0  0  0  0  0  0  0  0
  -25.2377  -13.7226   20.4487 C   0  0  0  0  0  0  0  0  0  0  0  0
  -30.7433  -19.1043   22.9874 C   0  0  0  0  0  0  0  0  0  0  0  0
  -30.5801  -16.9001   21.9083 C   0  0  0  0  0  0  0  0  0  0  0  0
  -30.6588  -22.3791   24.5414 C   0  0  0  0  0  0  0  0  0  0  0  0
  -31.0134  -21.5767   23.5188 C   0  0  0  0  0  0  0  0  0  0  0  0
  -22.8572  -13.5466   21.1907 C   0  0  0  0  0  0  0  0  0  0  0  0
  -27.9917  -30.9899   24.6239 C   0  0  0  0  0  0  0  0  0  0  0  0
  -26.5702  -30.4581   21.7570 C   0  0  0  0  0  0  0  0  0  0  0  0
  -25.8879  -28.2780   19.2216 C   0  0  0  0  0  0  0  0  0  0  0  0
  -30.7147  -14.6935   20.7003 C   0  0  0  0  0  0  0  0  0  0  0  0
  -25.5273  -35.2925   25.8373 C   0  0  0  0  0  0  0  0  0  0  0  0
  -29.8908  -29.9951   23.2974 C   0  0  0  0  0  0  0  0  0  0  0  0
  -27.4026  -28.4254   22.9983 C   0  0  0  0  0  0  0  0  0  0  0  0
  -29.8452  -21.6165   25.5531 C   0  0  0  0  0  0  0  0  0  0  0  0
  -25.1322  -33.9298   25.2739 C   0  0  0  0  0  0  0  0  0  0  0  0
  -29.6099  -12.2266   18.3828 C   0  0  0  0  0  0  0  0  0  0  0  0
  -25.7418  -32.8093   26.1105 C   0  0  0  0  0  0  0  0  0  0  0  0
  -28.1580  -11.9688   18.7923 C   0  0  0  0  0  0  0  0  0  0  0  0
  -29.6418  -20.2426   24.8935 C   0  0  0  0  0  0  0  0  0  0  0  0
  -30.5050  -12.4778   19.5949 C   0  0  0  0  0  0  0  0  0  0  0  0
  -28.5829  -13.2707   20.9164 C   0  0  0  0  0  0  0  0  0  0  0  0
  -27.2737  -32.8721   26.0843 C   0  0  1  0  0  0  0  0  0  0  0  0
  -28.5199  -30.6632   23.2557 C   0  0  1  0  0  0  0  0  0  0  0  0
  -27.6304  -13.0765   19.7252 C   0  0  2  0  0  0  0  0  0  0  0  0
  -31.7397  -22.0145   22.2898 C   0  0  0  0  0  0  0  0  0  0  0  0
  -24.6716  -28.1212   17.0322 C   0  0  0  0  0  0  0  0  0  0  0  0
  -23.9141  -30.2798   23.2481 C   0  0  0  0  0  0  0  0  0  0  0  0
  -22.9246  -29.2050   21.2149 C   0  0  0  0  0  0  0  0  0  0  0  0
  -23.8144  -31.5318   21.0855 C   0  0  0  0  0  0  0  0  0  0  0  0
  -28.3823  -27.6773   17.7464 C   0  0  0  0  0  0  0  0  0  0  0  0
  -30.9550  -23.8190   24.7723 C   0  0  0  0  0  0  0  0  0  1  0  0
  -25.4296  -29.5958   21.2729 C   0  0  1  0  0  0  0  0  0  0  0  0
  -25.9977  -28.4199   17.7142 C   0  0  2  0  0  0  0  0  0  0  0  0
  -24.0435  -30.1418   21.7180 C   0  0  0  0  0  0  0  0  0  0  0  0
  -25.8083  -11.5297   20.3324 N   0  0  0  0  0  0  0  0  0  0  0  0
  -26.2070  -12.8033   20.1736 N   0  0  0  0  0  0  0  0  0  0  0  0
  -30.5072  -20.2895   23.7064 N   0  0  0  0  0  0  0  0  0  0  0  0
  -27.5084  -29.8370   22.5936 N   0  0  0  0  0  0  0  0  0  0  0  0
  -29.9448  -13.5423   20.4303 N   0  0  0  0  0  0  0  0  0  0  0  0
  -25.4695  -15.0481   20.3405 N   0  0  0  0  0  0  0  0  0  0  0  0
  -21.8253  -12.6627   21.5347 N   0  0  0  0  0  0  0  0  0  0  0  0
  -30.0657  -15.6518   21.4781 N   0  0  0  0  0  0  0  0  0  0  0  0
  -27.7802  -32.3386   24.8380 N   0  0  0  0  0  0  0  0  0  0  0  0
  -25.5902  -29.4803   19.8275 N   0  0  0  0  0  0  0  0  0  0  0  0
  -27.0235  -27.4807   17.1789 N   0  3  0  0  0  0  0  0  0  0  0  0
  -22.6384  -14.7817   21.2069 O   0  0  0  0  0  0  0  0  0  0  0  0
  -27.7895  -30.0853   25.4254 O   0  0  0  0  0  0  0  0  0  0  0  0
  -26.6306  -31.6374   21.4001 O   0  0  0  0  0  0  0  0  0  0  0  0
  -26.0464  -27.2069   19.8032 O   0  0  0  0  0  0  0  0  0  0  0  0
  -31.8550  -14.8318   20.2502 O   0  0  0  0  0  0  0  0  0  0  0  0
  -21.4663   -7.1098   21.8018 O   0  0  0  0  0  0  0  0  0  0  0  0
  -29.7371  -24.5558   24.8729 O   0  0  0  0  0  0  0  0  0  1  0  0
  -23.7812   -3.1078   24.8067 F   0  0  0  0  0  0  0  0  0  0  0  0
  -20.3610   -6.3254   24.2114 F   0  0  0  0  0  0  0  0  0  0  0  0
  -29.5507  -17.8820   22.8614 S   0  0  0  0  0  0  0  0  0  0  0  0
  1  2  1  0  0  0  0
  1  5  2  0  0  0  0
  2  6  2  0  0  0  0
  3  8  2  0  0  0  0
  3 17  1  0  0  0  0
  4  9  1  0  0  0  0
  4 17  2  0  0  0  0
  5 19  1  0  0  0  0
  6 21  1  0  0  0  0
  7 10  2  0  0  0  0
  7 20  1  0  0  0  0
  8 23  1  0  0  0  0
  9 23  2  0  0  0  0
 10 24  1  0  0  0  0
 11 12  2  0  0  0  0
 11 25  1  0  0  0  0
 12 26  1  0  0  0  0
 13 14  1  0  0  0  0
 13 30  2  0  0  0  0
 14 31  2  0  0  0  0
 15 22  1  0  0  0  0
 15 24  2  0  0  0  0
 16 26  2  0  0  0  0
 16 27  1  0  0  0  0
 17 28  1  0  0  0  0
 18 28  1  0  0  0  0
 18 29  2  0  0  0  0
 18 34  1  0  0  0  0
 19 21  2  0  0  0  0
 19 39  1  0  0  0  0
 20 22  2  0  0  0  0
 20 40  1  0  0  0  0
 21 50  1  0  0  0  0
 22 41  1  0  0  0  0
 23 79  1  0  0  0  0
 24 80  1  0  0  0  0
 25 27  2  0  0  0  0
 25 79  1  0  0  0  0
 26 81  1  0  0  0  0
 27 82  1  0  0  0  0
 28 63  2  0  0  0  0
 29 64  1  0  0  0  0
 29 68  1  0  0  0  0
 30 65  1  0  0  0  0
 30 83  1  0  0  0  0
 31 70  1  0  0  0  0
 31 83  1  0  0  0  0
 32 33  2  0  0  0  0
 32 42  1  0  0  0  0
 32 59  1  0  0  0  0
 33 53  1  0  0  0  0
 33 65  1  0  0  0  0
 34 69  1  0  0  0  0
 34 74  2  0  0  0  0
 35 51  1  0  0  0  0
 35 71  1  0  0  0  0
 35 75  2  0  0  0  0
 36 60  1  0  0  0  0
 36 66  1  0  0  0  0
 36 76  2  0  0  0  0
 37 61  1  0  0  0  0
 37 72  1  0  0  0  0
 37 77  2  0  0  0  0
 38 67  1  0  0  0  0
 38 70  1  0  0  0  0
 38 78  2  0  0  0  0
 39 43  1  0  0  0  0
 40 51  1  0  0  0  0
 41 66  1  0  0  0  0
 42 47  1  0  0  0  0
 43 45  1  0  0  0  0
 44 46  1  0  0  0  0
 44 48  1  0  0  0  0
 45 50  1  0  0  0  0
 46 52  1  0  0  0  0
 47 65  1  0  0  0  0
 48 67  1  0  0  0  0
 49 52  1  0  0  0  0
 49 67  1  0  0  0  0
 50 71  1  0  0  0  0
 51 66  1  0  0  0  0
 52 64  1  0  0  0  0
 54 61  1  0  0  0  0
 55 62  1  0  0  0  0
 56 62  1  0  0  0  0
 57 62  1  0  0  0  0
 58 73  1  0  0  0  0
 59 80  1  0  0  0  0
 60 62  1  0  0  0  0
 60 72  1  0  0  0  0
 61 73  1  0  0  0  0
 63 64  1  0  0  0  0
M  CHG  1  73   1
M  ISO  4  38 100  59 101  70 100  80 101
M  END
> <Batch ID>
0152

> <Smiles>
CNC(C)C(=O)NC(C(=O)N1Cc2cc([101O:1][101CH2:1]C3=C(C)N(c4ccc([100NH:0][100C:0](=O)N5CCCC(n6nc(-c7ccc(Oc8ccc(F)cc8F)cc7)c(C(N)=O)c6N)C5)s4)CC3)ccc2CC1C(=O)NC1CCCc2ccccc21)C(C)(C)C

> <Shape>
0.312

> <Color>
0.202

> <Negative vol penalty>
0.000

$$$$

  -OEChem-04052303273D

 82 91  0     1  0  0  0  0  0999 V2000
  -26.2517  -37.5798   20.4941 C   0  0  0  0  0  0  0  0  0  0  0  0
  -26.8808  -36.4965   19.8890 C   0  0  0  0  0  0  0  0  0  0  0  0
  -24.4023   -9.0026   20.5127 C   0  0  0  0  0  0  0  0  0  0  0  0
  -22.8976  -10.8804   20.7288 C   0  0  0  0  0  0  0  0  0  0  0  0
  -25.5965  -37.4120   21.7134 C   0  0  0  0  0  0  0  0  0  0  0  0
  -26.8560  -35.2449   20.5034 C   0  0  0  0  0  0  0  0  0  0  0  0
  -26.6924  -28.2574   18.9338 C   0  0  0  0  0  0  0  0  0  0  0  0
  -23.4036   -8.1485   20.9804 C   0  0  0  0  0  0  0  0  0  0  0  0
  -21.8989  -10.0263   21.1964 C   0  0  0  0  0  0  0  0  0  0  0  0
  -27.3676  -27.0724   19.2231 C   0  0  0  0  0  0  0  0  0  0  0  0
  -22.0492   -7.2952   23.9573 C   0  0  0  0  0  0  0  0  0  0  0  0
  -22.4052   -6.3470   24.9163 C   0  0  0  0  0  0  0  0  0  0  0  0
  -26.1377  -26.8833   21.2897 C   0  0  0  0  0  0  0  0  0  0  0  0
  -28.6455  -19.8233   19.8550 C   0  0  0  0  0  0  0  0  0  0  0  0
  -21.7213   -4.5774   23.4203 C   0  0  0  0  0  0  0  0  0  0  0  0
  -24.1493  -10.3686   20.3869 C   0  0  0  0  0  0  0  0  0  0  0  0
  -25.4358  -11.6099   18.5671 C   0  0  0  0  0  0  0  0  0  0  0  0
  -25.5555  -36.1557   22.3383 C   0  0  0  0  0  0  0  0  0  0  0  0
  -25.7411  -28.7708   19.8269 C   0  0  0  0  0  0  0  0  0  0  0  0
  -26.2008  -35.0605   21.7328 C   0  0  0  0  0  0  0  0  0  0  0  0
  -25.4500  -28.0736   21.0082 C   0  0  0  0  0  0  0  0  0  0  0  0
  -28.9498  -18.5425   19.3524 C   0  0  0  0  0  0  0  0  0  0  0  0
  -22.1519   -8.6603   21.3222 C   0  0  0  0  0  0  0  0  0  0  0  0
  -27.0924  -26.3867   20.4026 C   0  0  0  0  0  0  0  0  0  0  0  0
  -21.5292   -6.8846   22.7298 C   0  0  0  0  0  0  0  0  0  0  0  0
  -22.2413   -4.9881   24.6478 C   0  0  0  0  0  0  0  0  0  0  0  0
  -21.3653   -5.5256   22.4613 C   0  0  0  0  0  0  0  0  0  0  0  0
  -25.1807  -11.2514   19.9044 C   0  0  0  0  0  0  0  0  0  0  0  0
  -29.3654  -18.5751   18.0524 C   0  0  0  0  0  0  0  0  0  0  0  0
  -26.5097  -12.4632   18.6393 C   0  0  0  0  0  0  0  0  0  0  0  0
  -28.8379  -20.7845   18.8740 C   0  0  0  0  0  0  0  0  0  0  0  0
  -24.7622  -11.2077   17.3671 C   0  0  0  0  0  0  0  0  0  0  0  0
  -25.4720  -31.4441   21.5254 C   0  0  0  0  0  0  0  0  0  0  0  0
  -22.5444  -30.2389   22.2319 C   0  0  0  0  0  0  0  0  0  0  0  0
  -28.2297  -22.9607   19.9823 C   0  0  0  0  0  0  0  0  0  0  0  0
  -20.5297  -27.4984   22.5109 C   0  0  0  0  0  0  0  0  0  0  0  0
  -28.8349  -16.9223   21.1732 C   0  0  0  0  0  0  0  0  0  0  0  0
  -24.8755  -36.0336   23.6790 C   0  0  0  0  0  0  0  0  0  0  0  0
  -25.0021  -30.0362   19.4875 C   0  0  0  0  0  0  0  0  0  0  0  0
  -24.4228  -28.5719   21.9905 C   0  0  0  0  0  0  0  0  0  0  0  0
  -29.7440  -17.2557   17.4955 C   0  0  0  0  0  0  0  0  0  0  0  0
  -24.5750  -34.5919   24.0805 C   0  0  0  0  0  0  0  0  0  0  0  0
  -29.5950  -13.5777   22.4921 C   0  0  0  0  0  0  0  0  0  0  0  0
  -25.7935  -33.7060   23.8411 C   0  0  0  0  0  0  0  0  0  0  0  0
  -28.5026  -12.7154   21.8557 C   0  0  0  0  0  0  0  0  0  0  0  0
  -29.3948  -16.3244   18.6963 C   0  0  0  0  0  0  0  0  0  0  0  0
  -29.1313  -15.0151   22.7188 C   0  0  0  0  0  0  0  0  0  0  0  0
  -27.4797  -14.8121   20.9023 C   0  0  0  0  0  0  0  0  0  0  0  0
  -26.1747  -33.6817   22.3560 C   0  0  1  0  0  0  0  0  0  0  0  0
  -24.4241  -30.7375   20.7128 C   0  0  1  0  0  0  0  0  0  0  0  0
  -27.9333  -13.3806   20.5875 C   0  0  2  0  0  0  0  0  0  0  0  0
  -18.1973  -26.8246   23.1459 C   0  0  0  0  0  0  0  0  0  0  0  0
  -23.2451  -30.6002   25.1796 C   0  0  0  0  0  0  0  0  0  0  0  0
  -21.3440  -29.0731   25.7468 C   0  0  0  0  0  0  0  0  0  0  0  0
  -20.9012  -31.2326   24.5794 C   0  0  0  0  0  0  0  0  0  0  0  0
  -19.9891  -26.4000   19.8165 C   0  0  0  0  0  0  0  0  0  0  0  0
  -28.1740  -24.4275   19.5978 C   0  0  0  0  0  0  0  0  0  1  0  0
  -21.9908  -29.3376   23.3091 C   0  0  1  0  0  0  0  0  0  0  0  0
  -19.1232  -27.2269   22.0085 C   0  0  2  0  0  0  0  0  0  0  0  0
  -21.8911  -30.0522   24.6863 C   0  0  0  0  0  0  0  0  0  0  0  0
  -26.0247  -11.8295   20.7632 N   0  0  0  0  0  0  0  0  0  0  0  0
  -26.8206  -12.5599   19.9637 N   0  0  0  0  0  0  0  0  0  0  0  0
  -28.9636  -17.2291   19.8190 N   0  0  0  0  0  0  0  0  0  0  0  0
  -23.7316  -29.8169   21.6168 N   0  0  0  0  0  0  0  0  0  0  0  0
  -28.5797  -15.5818   21.4894 N   0  0  0  0  0  0  0  0  0  0  0  0
  -27.2089  -13.1327   17.6984 N   0  0  0  0  0  0  0  0  0  0  0  0
  -23.6780  -10.3258   17.4729 N   0  0  0  0  0  0  0  0  0  0  0  0
  -28.6647  -22.1408   18.9075 N   0  0  0  0  0  0  0  0  0  0  0  0
  -25.2845  -32.8099   21.6199 N   0  0  0  0  0  0  0  0  0  0  0  0
  -20.7186  -28.8324   22.8046 N   0  0  0  0  0  0  0  0  0  0  0  0
  -19.1359  -26.1281   21.0018 N   0  3  0  0  0  0  0  0  0  0  0  0
  -25.1217  -11.6053   16.2329 O   0  0  0  0  0  0  0  0  0  0  0  0
  -26.3823  -30.7978   22.0306 O   0  0  0  0  0  0  0  0  0  0  0  0
  -21.9418  -31.2754   21.9419 O   0  0  0  0  0  0  0  0  0  0  0  0
  -27.9231  -22.5792   21.1070 O   0  0  0  0  0  0  0  0  0  0  0  0
  -21.3751  -26.6149   22.6343 O   0  0  0  0  0  0  0  0  0  0  0  0
  -29.0062  -17.7629   22.0647 O   0  0  0  0  0  0  0  0  0  0  0  0
  -21.1771   -7.8272   21.7784 O   0  0  0  0  0  0  0  0  0  0  0  0
  -27.7573  -25.2181   20.6907 O   0  0  0  0  0  0  0  0  0  1  0  0
  -22.5846   -4.0775   25.5683 F   0  0  0  0  0  0  0  0  0  0  0  0
  -20.8674   -5.1250   21.2835 F   0  0  0  0  0  0  0  0  0  0  0  0
  -29.3943  -20.1075   17.3814 S   0  0  0  0  0  0  0  0  0  0  0  0
  1  2  1  0  0  0  0
  1  5  2  0  0  0  0
  2  6  2  0  0  0  0
  3  8  2  0  0  0  0
  3 16  1  0  0  0  0
  4  9  1  0  0  0  0
  4 16  2  0  0  0  0
  5 18  1  0  0  0  0
  6 20  1  0  0  0  0
  7 10  2  0  0  0  0
  7 19  1  0  0  0  0
  8 23  1  0  0  0  0
  9 23  2  0  0  0  0
 10 24  1  0  0  0  0
 11 12  2  0  0  0  0
 11 25  1  0  0  0  0
 12 26  1  0  0  0  0
 13 21  1  0  0  0  0
 13 24  2  0  0  0  0
 14 22  1  0  0  0  0
 14 31  2  0  0  0  0
 15 26  2  0  0  0  0
 15 27  1  0  0  0  0
 16 28  1  0  0  0  0
 17 28  1  0  0  0  0
 17 30  2  0  0  0  0
 17 32  1  0  0  0  0
 18 20  2  0  0  0  0
 18 38  1  0  0  0  0
 19 21  2  0  0  0  0
 19 39  1  0  0  0  0
 20 49  1  0  0  0  0
 21 40  1  0  0  0  0
 22 29  2  0  0  0  0
 22 63  1  0  0  0  0
 23 78  1  0  0  0  0
 24 79  1  0  0  0  0
 25 27  2  0  0  0  0
 25 78  1  0  0  0  0
 26 80  1  0  0  0  0
 27 81  1  0  0  0  0
 28 61  2  0  0  0  0
 29 41  1  0  0  0  0
 29 82  1  0  0  0  0
 30 62  1  0  0  0  0
 30 66  1  0  0  0  0
 31 68  1  0  0  0  0
 31 82  1  0  0  0  0
 32 67  1  0  0  0  0
 32 72  2  0  0  0  0
 33 50  1  0  0  0  0
 33 69  1  0  0  0  0
 33 73  2  0  0  0  0
 34 58  1  0  0  0  0
 34 64  1  0  0  0  0
 34 74  2  0  0  0  0
 35 57  1  0  0  0  0
 35 68  1  0  0  0  0
 35 75  2  0  0  0  0
 36 59  1  0  0  0  0
 36 70  1  0  0  0  0
 36 76  2  0  0  0  0
 37 63  1  0  0  0  0
 37 65  1  0  0  0  0
 37 77  2  0  0  0  0
 38 42  1  0  0  0  0
 39 50  1  0  0  0  0
 40 64  1  0  0  0  0
 41 46  1  0  0  0  0
 42 44  1  0  0  0  0
 43 45  1  0  0  0  0
 43 47  1  0  0  0  0
 44 49  1  0  0  0  0
 45 51  1  0  0  0  0
 46 63  1  0  0  0  0
 47 65  1  0  0  0  0
 48 51  1  0  0  0  0
 48 65  1  0  0  0  0
 49 69  1  0  0  0  0
 50 64  1  0  0  0  0
 51 62  1  0  0  0  0
 52 59  1  0  0  0  0
 53 60  1  0  0  0  0
 54 60  1  0  0  0  0
 55 60  1  0  0  0  0
 56 71  1  0  0  0  0
 57 79  1  0  0  0  0
 58 60  1  0  0  0  0
 58 70  1  0  0  0  0
 59 71  1  0  0  0  0
 61 62  1  0  0  0  0
M  CHG  1  71   1
M  ISO  4  37 100  57 101  63 100  79 101
M  END
> <Batch ID>
0152

> <Smiles>
CNC(C)C(=O)NC(C(=O)N1Cc2cc([101O:1][101CH2:1]C(=O)Nc3cc4c(s3)CC[100N:0]4[100C:0](=O)N3CCCC(n4nc(-c5ccc(Oc6ccc(F)cc6F)cc5)c(C(N)=O)c4N)C3)ccc2CC1C(=O)NC1CCCc2ccccc21)C(C)(C)C

> <Shape>
0.353

> <Color>
0.082

> <Negative vol penalty>
0.000

$$$$

  -OEChem-04052303273D

 84 93  0     1  0  0  0  0  0999 V2000
  -17.5872  -29.8197   27.2281 C   0  0  0  0  0  0  0  0  0  0  0  0
  -18.4186  -28.7160   27.0672 C   0  0  0  0  0  0  0  0  0  0  0  0
  -23.0806   -9.8481   19.9499 C   0  0  0  0  0  0  0  0  0  0  0  0
  -23.8284   -9.8781   22.2471 C   0  0  0  0  0  0  0  0  0  0  0  0
  -17.1049  -30.4968   26.1088 C   0  0  0  0  0  0  0  0  0  0  0  0
  -18.7674  -28.2880   25.7867 C   0  0  0  0  0  0  0  0  0  0  0  0
  -24.1062  -25.8416   24.0494 C   0  0  0  0  0  0  0  0  0  0  0  0
  -22.3290   -8.7021   20.2095 C   0  0  0  0  0  0  0  0  0  0  0  0
  -23.0767   -8.7321   22.5067 C   0  0  0  0  0  0  0  0  0  0  0  0
  -24.5140  -24.5229   23.8531 C   0  0  0  0  0  0  0  0  0  0  0  0
  -19.8411   -7.9593   23.1013 C   0  0  0  0  0  0  0  0  0  0  0  0
  -19.0777   -7.9374   24.2685 C   0  0  0  0  0  0  0  0  0  0  0  0
  -24.0529  -24.7378   21.4950 C   0  0  0  0  0  0  0  0  0  0  0  0
  -28.8661  -18.8344   22.0298 C   0  0  0  0  0  0  0  0  0  0  0  0
  -20.3044   -6.0021   25.0345 C   0  0  0  0  0  0  0  0  0  0  0  0
  -23.8303  -10.4361   20.9687 C   0  0  0  0  0  0  0  0  0  0  0  0
  -24.1868  -12.9577   20.8206 C   0  0  0  0  0  0  0  0  0  0  0  0
  -17.4558  -30.0828   24.8142 C   0  0  0  0  0  0  0  0  0  0  0  0
  -23.6576  -26.6161   22.9699 C   0  0  0  0  0  0  0  0  0  0  0  0
  -18.2883  -28.9594   24.6490 C   0  0  0  0  0  0  0  0  0  0  0  0
  -23.6424  -26.0668   21.6799 C   0  0  0  0  0  0  0  0  0  0  0  0
  -29.9118  -17.9721   22.2926 C   0  0  0  0  0  0  0  0  0  0  0  0
  -22.3271   -8.1441   21.4879 C   0  0  0  0  0  0  0  0  0  0  0  0
  -24.4847  -23.9699   22.5762 C   0  0  0  0  0  0  0  0  0  0  0  0
  -20.8361   -7.0025   22.9006 C   0  0  0  0  0  0  0  0  0  0  0  0
  -19.3094   -6.9588   25.2351 C   0  0  0  0  0  0  0  0  0  0  0  0
  -21.0677   -6.0239   23.8672 C   0  0  0  0  0  0  0  0  0  0  0  0
  -24.6074  -11.6196   20.7010 C   0  0  0  0  0  0  0  0  0  0  0  0
  -30.4140  -18.0573   23.5306 C   0  0  0  0  0  0  0  0  0  0  0  0
  -25.2850  -13.6968   20.4543 C   0  0  0  0  0  0  0  0  0  0  0  0
  -28.6179  -19.5767   23.1855 C   0  0  0  0  0  0  0  0  0  0  0  0
  -22.9170  -13.4855   21.2266 C   0  0  0  0  0  0  0  0  0  0  0  0
  -20.9205  -28.0485   22.2212 C   0  0  0  0  0  0  0  0  0  0  0  0
  -22.6600  -29.2161   19.7446 C   0  0  0  0  0  0  0  0  0  0  0  0
  -26.7048  -21.0964   22.5817 C   0  0  0  0  0  0  0  0  0  0  0  0
  -25.3481  -28.8638   17.6718 C   0  0  0  0  0  0  0  0  0  0  0  0
  -30.7662  -14.6980   20.6423 C   0  0  0  0  0  0  0  0  0  0  0  0
  -16.8716  -30.8177   23.6338 C   0  0  0  0  0  0  0  0  0  0  0  0
  -23.2463  -28.0455   23.1941 C   0  0  0  0  0  0  0  0  0  0  0  0
  -23.1886  -26.8627   20.4844 C   0  0  0  0  0  0  0  0  0  0  0  0
  -17.5910  -30.5277   22.3190 C   0  0  0  0  0  0  0  0  0  0  0  0
  -29.6373  -12.2810   18.2982 C   0  0  0  0  0  0  0  0  0  0  0  0
  -17.8193  -29.0284   22.1548 C   0  0  0  0  0  0  0  0  0  0  0  0
  -28.1949  -12.0014   18.7240 C   0  0  0  0  0  0  0  0  0  0  0  0
  -30.5467  -12.5116   19.5032 C   0  0  0  0  0  0  0  0  0  0  0  0
  -28.6411  -13.2694   20.8673 C   0  0  0  0  0  0  0  0  0  0  0  0
  -18.7091  -28.4798   23.2768 C   0  0  1  0  0  0  0  0  0  0  0  0
  -30.8569  -16.9072   21.8338 C   0  0  1  0  0  0  0  0  0  0  0  0
  -22.3214  -28.5790   22.1045 C   0  0  1  0  0  0  0  0  0  0  0  0
  -27.6732  -13.0863   19.6856 C   0  0  2  0  0  0  0  0  0  0  0  0
  -31.4463  -16.9745   23.3100 C   0  0  0  0  0  0  0  0  0  0  0  0
  -32.8869  -17.4832   23.3638 C   0  0  0  0  0  0  0  0  0  0  0  0
  -31.2487  -15.7594   24.2150 C   0  0  0  0  0  0  0  0  0  0  0  0
  -26.4881  -29.9562   15.7213 C   0  0  0  0  0  0  0  0  0  0  0  0
  -20.4950  -28.1431   17.8814 C   0  0  0  0  0  0  0  0  0  0  0  0
  -22.1025  -28.4001   15.9792 C   0  0  0  0  0  0  0  0  0  0  0  0
  -21.3700  -30.4048   17.2705 C   0  0  0  0  0  0  0  0  0  0  0  0
  -27.8383  -29.2852   19.2145 C   0  0  0  0  0  0  0  0  0  0  0  0
  -25.8787  -22.1703   23.2648 C   0  0  0  0  0  0  0  0  0  1  0  0
  -22.9611  -28.7558   18.3388 C   0  0  1  0  0  0  0  0  0  0  0  0
  -26.4201  -29.8466   17.2366 C   0  0  2  0  0  0  0  0  0  0  0  0
  -21.7389  -28.9101   17.3901 C   0  0  0  0  0  0  0  0  0  0  0  0
  -25.8739  -11.5119   20.2907 N   0  0  0  0  0  0  0  0  0  0  0  0
  -26.2586  -12.7917   20.1492 N   0  0  0  0  0  0  0  0  0  0  0  0
  -22.7903  -28.2538   20.7559 N   0  0  0  0  0  0  0  0  0  0  0  0
  -29.9959  -13.5564   20.3701 N   0  0  0  0  0  0  0  0  0  0  0  0
  -25.5032  -15.0262   20.3667 N   0  0  0  0  0  0  0  0  0  0  0  0
  -21.8983  -12.5859   21.5692 N   0  0  0  0  0  0  0  0  0  0  0  0
  -27.6628  -20.5865   23.4514 N   0  0  0  0  0  0  0  0  0  0  0  0
  -20.0963  -28.8090   23.0285 N   0  0  0  0  0  0  0  0  0  0  0  0
  -24.1453  -29.4935   17.9125 N   0  0  0  0  0  0  0  0  0  0  0  0
  -30.1738  -15.6501   21.4654 N   0  0  0  0  0  0  0  0  0  0  0  0
  -27.7550  -29.4120   17.7367 N   0  3  0  0  0  0  0  0  0  0  0  0
  -22.6873  -14.7180   21.2681 O   0  0  0  0  0  0  0  0  0  0  0  0
  -20.6100  -27.0257   21.6219 O   0  0  0  0  0  0  0  0  0  0  0  0
  -22.3285  -30.3882   19.9392 O   0  0  0  0  0  0  0  0  0  0  0  0
  -26.5001  -20.7723   21.4165 O   0  0  0  0  0  0  0  0  0  0  0  0
  -25.5558  -27.6576   17.7832 O   0  0  0  0  0  0  0  0  0  0  0  0
  -31.9002  -14.8676   20.1812 O   0  0  0  0  0  0  0  0  0  0  0  0
  -21.5936   -7.0260   21.7416 O   0  0  0  0  0  0  0  0  0  0  0  0
  -24.8816  -22.6828   22.3819 O   0  0  0  0  0  0  0  0  0  1  0  0
  -18.5773   -6.9389   26.3567 F   0  0  0  0  0  0  0  0  0  0  0  0
  -22.0230   -5.1028   23.6806 F   0  0  0  0  0  0  0  0  0  0  0  0
  -29.6972  -19.1554   24.5076 S   0  0  0  0  0  0  0  0  0  0  0  0
  1  2  1  0  0  0  0
  1  5  2  0  0  0  0
  2  6  2  0  0  0  0
  3  8  2  0  0  0  0
  3 16  1  0  0  0  0
  4  9  1  0  0  0  0
  4 16  2  0  0  0  0
  5 18  1  0  0  0  0
  6 20  1  0  0  0  0
  7 10  2  0  0  0  0
  7 19  1  0  0  0  0
  8 23  1  0  0  0  0
  9 23  2  0  0  0  0
 10 24  1  0  0  0  0
 11 12  2  0  0  0  0
 11 25  1  0  0  0  0
 12 26  1  0  0  0  0
 13 21  1  0  0  0  0
 13 24  2  0  0  0  0
 14 22  1  0  0  0  0
 14 31  2  0  0  0  0
 15 26  2  0  0  0  0
 15 27  1  0  0  0  0
 16 28  1  0  0  0  0
 17 28  1  0  0  0  0
 17 30  2  0  0  0  0
 17 32  1  0  0  0  0
 18 20  2  0  0  0  0
 18 38  1  0  0  0  0
 19 21  2  0  0  0  0
 19 39  1  0  0  0  0
 20 47  1  0  0  0  0
 21 40  1  0  0  0  0
 22 29  2  0  0  0  0
 22 48  1  0  0  0  0
 23 80  1  0  0  0  0
 24 81  1  0  0  0  0
 25 27  2  0  0  0  0
 25 80  1  0  0  0  0
 26 82  1  0  0  0  0
 27 83  1  0  0  0  0
 28 63  2  0  0  0  0
 29 51  1  0  0  0  0
 29 84  1  0  0  0  0
 30 64  1  0  0  0  0
 30 67  1  0  0  0  0
 31 69  1  0  0  0  0
 31 84  1  0  0  0  0
 32 68  1  0  0  0  0
 32 74  2  0  0  0  0
 33 49  1  0  0  0  0
 33 70  1  0  0  0  0
 33 75  2  0  0  0  0
 34 60  1  0  0  0  0
 34 65  1  0  0  0  0
 34 76  2  0  0  0  0
 35 59  1  0  0  0  0
 35 69  1  0  0  0  0
 35 77  2  0  0  0  0
 36 61  1  0  0  0  0
 36 71  1  0  0  0  0
 36 78  2  0  0  0  0
 37 66  1  0  0  0  0
 37 72  1  0  0  0  0
 37 79  2  0  0  0  0
 38 41  1  0  0  0  0
 39 49  1  0  0  0  0
 40 65  1  0  0  0  0
 41 43  1  0  0  0  0
 42 44  1  0  0  0  0
 42 45  1  0  0  0  0
 43 47  1  0  0  0  0
 44 50  1  0  0  0  0
 45 66  1  0  0  0  0
 46 50  1  0  0  0  0
 46 66  1  0  0  0  0
 47 70  1  0  0  0  0
 48 51  1  0  0  0  0
 48 72  1  0  0  0  0
 49 65  1  0  0  0  0
 50 64  1  0  0  0  0
 51 52  1  0  0  0  0
 51 53  1  0  0  0  0
 54 61  1  0  0  0  0
 55 62  1  0  0  0  0
 56 62  1  0  0  0  0
 57 62  1  0  0  0  0
 58 73  1  0  0  0  0
 59 81  1  0  0  0  0
 60 62  1  0  0  0  0
 60 71  1  0  0  0  0
 61 73  1  0  0  0  0
 63 64  1  0  0  0  0
M  CHG  1  73   1
M  ISO  4  37 100  59 101  72 100  81 101
M  END
> <Batch ID>
0152

> <Smiles>
CNC(C)C(=O)NC(C(=O)N1Cc2cc([101O:1][101CH2:1]C(=O)Nc3cc4c(s3)C(C)(C)C4[100NH:0][100C:0](=O)N3CCCC(n4nc(-c5ccc(Oc6ccc(F)cc6F)cc5)c(C(N)=O)c4N)C3)ccc2CC1C(=O)NC1CCCc2ccccc21)C(C)(C)C

> <Shape>
0.267

> <Color>
0.196

> <Negative vol penalty>
0.000

$$$$

  -OEChem-04052303273D

 86 95  0     1  0  0  0  0  0999 V2000
  -28.3196  -11.1600   19.8403 C   0  0  0  0  0  0  0  0  0  0  0  0
  -28.5734  -12.4716   19.4522 C   0  0  0  0  0  0  0  0  0  0  0  0
  -19.8158  -28.7938   23.1464 C   0  0  0  0  0  0  0  0  0  0  0  0
  -20.1369  -26.4520   22.6466 C   0  0  0  0  0  0  0  0  0  0  0  0
  -27.0554  -10.8052   20.3093 C   0  0  0  0  0  0  0  0  0  0  0  0
  -27.5628  -13.4291   19.5320 C   0  0  0  0  0  0  0  0  0  0  0  0
  -29.1743  -17.7926   21.5339 C   0  0  0  0  0  0  0  0  0  0  0  0
  -18.5244  -28.7284   22.6235 C   0  0  0  0  0  0  0  0  0  0  0  0
  -18.8454  -26.3866   22.1237 C   0  0  0  0  0  0  0  0  0  0  0  0
  -29.9043  -18.6426   20.7042 C   0  0  0  0  0  0  0  0  0  0  0  0
  -15.7628  -25.6892   20.3288 C   0  0  0  0  0  0  0  0  0  0  0  0
  -15.5871  -25.0215   19.1169 C   0  0  0  0  0  0  0  0  0  0  0  0
  -27.9250  -19.9710   20.3339 C   0  0  0  0  0  0  0  0  0  0  0  0
  -28.0685  -23.9153   16.6710 C   0  0  0  0  0  0  0  0  0  0  0  0
  -17.0957  -26.5734   18.0431 C   0  0  0  0  0  0  0  0  0  0  0  0
  -20.6221  -27.6556   23.1579 C   0  0  0  0  0  0  0  0  0  0  0  0
  -22.3472  -27.4916   25.0300 C   0  0  0  0  0  0  0  0  0  0  0  0
  -26.0316  -11.7610   20.4040 C   0  0  0  0  0  0  0  0  0  0  0  0
  -27.8094  -18.0195   21.7616 C   0  0  0  0  0  0  0  0  0  0  0  0
  -26.2834  -13.0865   20.0015 C   0  0  0  0  0  0  0  0  0  0  0  0
  -27.1806  -19.1239   21.1690 C   0  0  0  0  0  0  0  0  0  0  0  0
  -28.8148  -23.8466   17.8716 C   0  0  0  0  0  0  0  0  0  0  0  0
  -18.0391  -27.5248   22.1121 C   0  0  0  0  0  0  0  0  0  0  0  0
  -29.2790  -19.7303   20.1017 C   0  0  0  0  0  0  0  0  0  0  0  0
  -16.6049  -26.7991   20.3979 C   0  0  0  0  0  0  0  0  0  0  0  0
  -16.2536  -25.4635   17.9740 C   0  0  0  0  0  0  0  0  0  0  0  0
  -17.2713  -27.2412   19.2550 C   0  0  0  0  0  0  0  0  0  0  0  0
  -21.9565  -27.7227   23.6974 C   0  0  0  0  0  0  0  0  0  0  0  0
  -28.1001  -24.5584   18.8068 C   0  0  0  0  0  0  0  0  0  0  0  0
  -23.7080  -27.6781   25.0260 C   0  0  0  0  0  0  0  0  0  0  0  0
  -26.9509  -24.6639   16.9581 C   0  0  0  0  0  0  0  0  0  0  0  0
  -21.5514  -27.1397   26.1695 C   0  0  0  0  0  0  0  0  0  0  0  0
  -25.1391  -16.3926   21.1903 C   0  0  0  0  0  0  0  0  0  0  0  0
  -23.7714  -18.8050   22.8731 C   0  0  0  0  0  0  0  0  0  0  0  0
  -23.9334  -22.0375   23.9555 C   0  0  0  0  0  0  0  0  0  0  0  0
  -27.8692  -27.2544   20.7416 C   0  0  0  0  0  0  0  0  0  0  0  0
  -24.6676  -11.3197   20.8725 C   0  0  0  0  0  0  0  0  0  0  0  0
  -27.0423  -17.1087   22.6805 C   0  0  0  0  0  0  0  0  0  0  0  0
  -25.7222  -19.4230   21.3974 C   0  0  0  0  0  0  0  0  0  0  0  0
  -23.7594  -12.4772   21.2794 C   0  0  0  0  0  0  0  0  0  0  0  0
  -27.1484  -30.1034   22.7517 C   0  0  0  0  0  0  0  0  0  0  0  0
  -23.8046  -13.5850   20.2318 C   0  0  0  0  0  0  0  0  0  0  0  0
  -25.7713  -29.7955   23.3422 C   0  0  0  0  0  0  0  0  0  0  0  0
  -32.0921  -22.1789   17.6288 C   0  0  0  0  0  0  0  0  0  0  0  0
  -27.2761  -29.5891   21.3195 C   0  0  0  0  0  0  0  0  0  0  0  0
  -30.7200  -22.4575   17.0215 C   0  0  0  0  0  0  0  0  0  0  0  0
  -25.5770  -27.8526   21.7340 C   0  0  0  0  0  0  0  0  0  0  0  0
  -30.7345  -23.1677   19.3378 C   0  0  0  0  0  0  0  0  0  0  0  0
  -25.2201  -14.1591   20.0967 C   0  0  1  0  0  0  0  0  0  0  0  0
  -25.5374  -17.1388   22.4321 C   0  0  1  0  0  0  0  0  0  0  0  0
  -25.4197  -28.3027   23.1965 C   0  0  2  0  0  0  0  0  0  0  0  0
  -31.8265  -22.1074   19.1324 C   0  0  1  0  0  0  0  0  0  0  0  0
  -22.6495  -23.7374   25.2819 C   0  0  0  0  0  0  0  0  0  0  0  0
  -21.8684  -19.1994   20.5209 C   0  0  0  0  0  0  0  0  0  0  0  0
  -21.2768  -21.4412   21.4655 C   0  0  0  0  0  0  0  0  0  0  0  0
  -20.7938  -19.3722   22.7725 C   0  0  0  0  0  0  0  0  0  0  0  0
  -26.1081  -22.2976   25.9460 C   0  0  0  0  0  0  0  0  0  0  0  0
  -34.0766  -21.5814   19.5251 C   0  0  0  0  0  0  0  0  0  0  0  0
  -28.3208  -24.8688   20.2277 C   0  0  0  0  0  0  0  0  0  0  0  0
  -31.3788  -20.7151   19.5755 C   0  0  0  0  0  0  0  0  0  1  0  0
  -23.1859  -20.1525   22.5263 C   0  0  1  0  0  0  0  0  0  0  0  0
  -23.7148  -22.6530   25.3259 C   0  0  2  0  0  0  0  0  0  0  0  0
  -21.8083  -20.0348   21.8152 C   0  0  0  0  0  0  0  0  0  0  0  0
  -22.9858  -28.0325   22.9046 N   0  0  0  0  0  0  0  0  0  0  0  0
  -24.0367  -27.9975   23.7415 N   0  0  0  0  0  0  0  0  0  0  0  0
  -30.0158  -23.1970   18.0651 N   0  0  3  0  0  0  0  0  0  0  0  0
  -25.0136  -18.4997   22.2990 N   0  0  0  0  0  0  0  0  0  0  0  0
  -26.9306  -28.1672   21.2504 N   0  0  0  0  0  0  0  0  0  0  0  0
  -24.6434  -27.5986   25.9961 N   0  0  0  0  0  0  0  0  0  0  0  0
  -25.9038  -25.0468   16.1991 N   0  0  0  0  0  0  0  0  0  0  0  0
  -20.1687  -26.9877   25.9975 N   0  0  0  0  0  0  0  0  0  0  0  0
  -25.5066  -15.0605   21.1921 N   0  0  0  0  0  0  0  0  0  0  0  0
  -23.1536  -20.9157   23.7693 N   0  0  0  0  0  0  0  0  0  0  0  0
  -27.4638  -25.9256   20.7171 N   0  0  0  0  0  0  0  0  0  0  0  0
  -24.9803  -23.2575   25.8300 N   0  3  0  0  0  0  0  0  0  0  0  0
  -22.0492  -26.9814   27.3099 O   0  0  0  0  0  0  0  0  0  0  0  0
  -24.5413  -16.9814   20.2972 O   0  0  0  0  0  0  0  0  0  0  0  0
  -23.1529  -18.0539   23.6314 O   0  0  0  0  0  0  0  0  0  0  0  0
  -24.7148  -22.5071   23.1313 O   0  0  0  0  0  0  0  0  0  0  0  0
  -28.9877  -27.5974   20.3441 O   0  0  0  0  0  0  0  0  0  0  0  0
  -26.9625  -25.0597   18.2580 O   0  0  0  0  0  0  0  0  0  0  0  0
  -16.7789  -27.4606   21.6020 O   0  0  0  0  0  0  0  0  0  0  0  0
  -29.9890  -20.5612   19.2909 O   0  0  0  0  0  0  0  0  0  1  0  0
  -33.0079  -22.4605   19.8378 O   0  0  0  0  0  0  0  0  0  0  0  0
  -16.0860  -24.8212   16.8106 F   0  0  0  0  0  0  0  0  0  0  0  0
  -18.0825  -28.3061   19.3155 F   0  0  0  0  0  0  0  0  0  0  0  0
  1  2  1  0  0  0  0
  1  5  2  0  0  0  0
  2  6  2  0  0  0  0
  3  8  2  0  0  0  0
  3 16  1  0  0  0  0
  4  9  1  0  0  0  0
  4 16  2  0  0  0  0
  5 18  1  0  0  0  0
  6 20  1  0  0  0  0
  7 10  2  0  0  0  0
  7 19  1  0  0  0  0
  8 23  1  0  0  0  0
  9 23  2  0  0  0  0
 10 24  1  0  0  0  0
 11 12  2  0  0  0  0
 11 25  1  0  0  0  0
 12 26  1  0  0  0  0
 13 21  1  0  0  0  0
 13 24  2  0  0  0  0
 14 22  1  0  0  0  0
 14 31  2  0  0  0  0
 15 26  2  0  0  0  0
 15 27  1  0  0  0  0
 16 28  1  0  0  0  0
 17 28  1  0  0  0  0
 17 30  2  0  0  0  0
 17 32  1  0  0  0  0
 18 20  2  0  0  0  0
 18 37  1  0  0  0  0
 19 21  2  0  0  0  0
 19 38  1  0  0  0  0
 20 49  1  0  0  0  0
 21 39  1  0  0  0  0
 22 29  2  0  0  0  0
 22 66  1  0  0  0  0
 23 82  1  0  0  0  0
 24 83  1  0  0  0  0
 25 27  2  0  0  0  0
 25 82  1  0  0  0  0
 26 85  1  0  0  0  0
 27 86  1  0  0  0  0
 28 64  2  0  0  0  0
 29 59  1  0  0  0  0
 29 81  1  0  0  0  0
 30 65  1  0  0  0  0
 30 69  1  0  0  0  0
 31 70  1  0  0  0  0
 31 81  1  0  0  0  0
 32 71  1  0  0  0  0
 32 76  2  0  0  0  0
 33 50  1  0  0  0  0
 33 72  1  0  0  0  0
 33 77  2  0  0  0  0
 34 61  1  0  0  0  0
 34 67  1  0  0  0  0
 34 78  2  0  0  0  0
 35 62  1  0  0  0  0
 35 73  1  0  0  0  0
 35 79  2  0  0  0  0
 36 68  1  0  0  0  0
 36 74  1  0  0  0  0
 36 80  2  0  0  0  0
 37 40  1  0  0  0  0
 38 50  1  0  0  0  0
 39 67  1  0  0  0  0
 40 42  1  0  0  0  0
 41 43  1  0  0  0  0
 41 45  1  0  0  0  0
 42 49  1  0  0  0  0
 43 51  1  0  0  0  0
 44 46  1  0  0  0  0
 44 52  1  0  0  0  0
 45 68  1  0  0  0  0
 46 66  1  0  0  0  0
 47 51  1  0  0  0  0
 47 68  1  0  0  0  0
 48 52  1  0  0  0  0
 48 66  1  0  0  0  0
 49 72  1  0  0  0  0
 50 67  1  0  0  0  0
 51 65  1  0  0  0  0
 52 60  1  0  0  0  0
 52 84  1  0  0  0  0
 53 62  1  0  0  0  0
 54 63  1  0  0  0  0
 55 63  1  0  0  0  0
 56 63  1  0  0  0  0
 57 75  1  0  0  0  0
 58 84  1  0  0  0  0
 59 74  1  0  0  0  0
 60 83  1  0  0  0  0
 61 63  1  0  0  0  0
 61 73  1  0  0  0  0
 62 75  1  0  0  0  0
 64 65  1  0  0  0  0
M  CHG  1  75   1
M  ISO  4  36 100  60 101  74 100  83 101
M  END
> <Batch ID>
0152

> <Smiles>
CNC(C)C(=O)NC(C(=O)N1Cc2cc([101O:1][101CH2:1]C3(OC)CCN(c4cc(N)oc4C[100NH:0][100C:0](=O)N4CCCC(n5nc(-c6ccc(Oc7ccc(F)cc7F)cc6)c(C(N)=O)c5N)C4)C3)ccc2CC1C(=O)NC1CCCc2ccccc21)C(C)(C)C

> <Shape>
0.208

> <Color>
0.065

> <Negative vol penalty>
0.000

$$$$

  -OEChem-04052303273D

 84 93  0     1  0  0  0  0  0999 V2000
  -17.8531  -32.3748   23.9284 C   0  0  0  0  0  0  0  0  0  0  0  0
  -19.1059  -32.6646   23.3974 C   0  0  0  0  0  0  0  0  0  0  0  0
  -24.8553  -13.9017   21.0800 C   0  0  0  0  0  0  0  0  0  0  0  0
  -26.7390  -13.1530   19.7654 C   0  0  0  0  0  0  0  0  0  0  0  0
  -17.6037  -31.1176   24.4772 C   0  0  0  0  0  0  0  0  0  0  0  0
  -20.1104  -31.6976   23.4158 C   0  0  0  0  0  0  0  0  0  0  0  0
  -25.7442  -29.4270   19.6183 C   0  0  0  0  0  0  0  0  0  0  0  0
  -24.1648  -12.7339   20.7558 C   0  0  0  0  0  0  0  0  0  0  0  0
  -26.0485  -11.9851   19.4412 C   0  0  0  0  0  0  0  0  0  0  0  0
  -27.0995  -29.1376   19.7703 C   0  0  0  0  0  0  0  0  0  0  0  0
  -24.1410   -9.4993   21.7406 C   0  0  0  0  0  0  0  0  0  0  0  0
  -23.4760   -8.8326   22.7695 C   0  0  0  0  0  0  0  0  0  0  0  0
  -32.2514  -22.3662   16.3485 C   0  0  0  0  0  0  0  0  0  0  0  0
  -32.8881  -23.3300   17.1665 C   0  0  0  0  0  0  0  0  0  0  0  0
  -26.5302  -26.9740   20.6725 C   0  0  0  0  0  0  0  0  0  0  0  0
  -21.3813   -9.1167   21.5997 C   0  0  0  0  0  0  0  0  0  0  0  0
  -26.1423  -14.1113   20.5848 C   0  0  0  0  0  0  0  0  0  0  0  0
  -27.7073  -15.5243   22.0208 C   0  0  0  0  0  0  0  0  0  0  0  0
  -18.6027  -30.1315   24.4936 C   0  0  0  0  0  0  0  0  0  0  0  0
  -24.7698  -28.4948   20.0031 C   0  0  0  0  0  0  0  0  0  0  0  0
  -19.8745  -30.4265   23.9665 C   0  0  0  0  0  0  0  0  0  0  0  0
  -25.1632  -27.2530   20.5220 C   0  0  0  0  0  0  0  0  0  0  0  0
  -24.7614  -11.7756   19.9364 C   0  0  0  0  0  0  0  0  0  0  0  0
  -27.4927  -27.9122   20.3002 C   0  0  0  0  0  0  0  0  0  0  0  0
  -23.4262   -9.9748   20.6412 C   0  0  0  0  0  0  0  0  0  0  0  0
  -22.0961   -8.6413   22.6991 C   0  0  0  0  0  0  0  0  0  0  0  0
  -22.0464   -9.7835   20.5707 C   0  0  0  0  0  0  0  0  0  0  0  0
  -26.8559  -15.3177   20.9188 C   0  0  0  0  0  0  0  0  0  0  0  0
  -30.9105  -22.6718   16.3711 C   0  0  0  0  0  0  0  0  0  0  0  0
  -28.1319  -16.8237   21.8877 C   0  0  0  0  0  0  0  0  0  0  0  0
  -31.8908  -24.1559   17.6304 C   0  0  0  0  0  0  0  0  0  0  0  0
  -32.1616  -27.7959   19.6536 C   0  0  0  0  0  0  0  0  0  0  0  0
  -30.9282  -27.3582   19.3502 C   0  0  0  0  0  0  0  0  0  0  0  0
  -28.0809  -14.6222   23.0707 C   0  0  0  0  0  0  0  0  0  0  0  0
  -22.4149  -28.4631   22.1378 C   0  0  0  0  0  0  0  0  0  0  0  0
  -21.7110  -25.6214   20.7408 C   0  0  0  0  0  0  0  0  0  0  0  0
  -22.7913  -22.9335   18.9367 C   0  0  0  0  0  0  0  0  0  0  0  0
  -28.7044  -20.3097   17.1574 C   0  0  0  0  0  0  0  0  0  0  0  0
  -18.3007  -28.8029   25.1403 C   0  0  0  0  0  0  0  0  0  0  0  0
  -23.3125  -28.8116   19.8078 C   0  0  0  0  0  0  0  0  0  0  0  0
  -24.1569  -26.2099   20.9315 C   0  0  0  0  0  0  0  0  0  0  0  0
  -33.3800  -26.9377   19.5179 C   0  0  0  0  0  0  0  0  0  0  0  0
  -30.6715  -25.9734   18.8009 C   0  0  0  0  0  0  0  0  0  0  0  0
  -19.3038  -27.7093   24.7826 C   0  0  0  0  0  0  0  0  0  0  0  0
  -26.7544  -21.0506   20.1148 C   0  0  0  0  0  0  0  0  0  0  0  0
  -20.7313  -28.2314   24.9116 C   0  0  0  0  0  0  0  0  0  0  0  0
  -26.6441  -19.6682   20.7606 C   0  0  0  0  0  0  0  0  0  0  0  0
  -33.0417  -25.4530   19.3949 C   0  0  0  0  0  0  0  0  0  0  0  0
  -26.6772  -20.9579   18.5937 C   0  0  0  0  0  0  0  0  0  0  0  0
  -27.5739  -18.6626   18.6242 C   0  0  0  0  0  0  0  0  0  0  0  0
  -20.9823  -29.3957   23.9457 C   0  0  1  0  0  0  0  0  0  0  0  0
  -22.3965  -27.9917   20.7112 C   0  0  1  0  0  0  0  0  0  0  0  0
  -27.6678  -18.6862   20.1607 C   0  0  2  0  0  0  0  0  0  0  0  0
  -21.9956  -20.7534   17.9820 C   0  0  0  0  0  0  0  0  0  0  0  0
  -21.7950  -24.3745   23.5244 C   0  0  0  0  0  0  0  0  0  0  0  0
  -21.9459  -22.1248   22.4360 C   0  0  0  0  0  0  0  0  0  0  0  0
  -19.9341  -23.5534   22.0693 C   0  0  0  0  0  0  0  0  0  0  0  0
  -23.4002  -23.7898   16.1700 C   0  0  0  0  0  0  0  0  0  0  0  0
  -29.7311  -22.0663   15.7371 C   0  0  0  0  0  0  0  0  0  0  0  0
  -29.7181  -28.2290   19.5235 C   0  0  0  0  0  0  0  0  0  1  0  0
  -22.1211  -24.1867   20.9701 C   0  0  1  0  0  0  0  0  0  0  0  0
  -22.2082  -22.2364   17.7207 C   0  0  2  0  0  0  0  0  0  0  0  0
  -21.4682  -23.5801   22.2441 C   0  0  0  0  0  0  0  0  0  0  0  0
  -26.7450  -16.3992   20.1430 N   0  0  0  0  0  0  0  0  0  0  0  0
  -27.5322  -17.2980   20.7583 N   0  0  0  0  0  0  0  0  0  0  0  0
  -31.9199  -25.2726   18.4690 N   0  0  1  0  0  0  0  0  0  0  0  0
  -22.7439  -26.5693   20.7270 N   0  0  0  0  0  0  0  0  0  0  0  0
  -27.6896  -20.0217   18.0851 N   0  0  0  0  0  0  0  0  0  0  0  0
  -28.9560  -17.5954   22.6278 N   0  0  0  0  0  0  0  0  0  0  0  0
  -27.5533  -13.3239   23.0555 N   0  0  0  0  0  0  0  0  0  0  0  0
  -21.1892  -28.9015   22.6013 N   0  0  0  0  0  0  0  0  0  0  0  0
  -21.8065  -23.4705   19.7386 N   0  0  0  0  0  0  0  0  0  0  0  0
  -28.7407  -21.6179   16.6905 N   0  0  0  0  0  0  0  0  0  0  0  0
  -23.1223  -22.3815   16.5526 N   0  3  0  0  0  0  0  0  0  0  0  0
  -28.8467  -14.9628   24.0041 O   0  0  0  0  0  0  0  0  0  0  0  0
  -23.4632  -28.4300   22.7716 O   0  0  0  0  0  0  0  0  0  0  0  0
  -20.5188  -25.8901   20.5729 O   0  0  0  0  0  0  0  0  0  0  0  0
  -23.9993  -22.9922   19.1554 O   0  0  0  0  0  0  0  0  0  0  0  0
  -29.5218  -19.4645   16.7771 O   0  0  0  0  0  0  0  0  0  0  0  0
  -30.6823  -23.7615   17.1501 O   0  0  0  0  0  0  0  0  0  0  0  0
  -24.0881  -10.6358   19.6201 O   0  0  0  0  0  0  0  0  0  0  0  0
  -28.8149  -27.6274   20.4502 O   0  0  0  0  0  0  0  0  0  1  0  0
  -21.4578   -7.9997   23.6865 F   0  0  0  0  0  0  0  0  0  0  0  0
  -21.3544  -10.2370   19.5165 F   0  0  0  0  0  0  0  0  0  0  0  0
  1  2  1  0  0  0  0
  1  5  2  0  0  0  0
  2  6  2  0  0  0  0
  3  8  2  0  0  0  0
  3 17  1  0  0  0  0
  4  9  1  0  0  0  0
  4 17  2  0  0  0  0
  5 19  1  0  0  0  0
  6 21  1  0  0  0  0
  7 10  2  0  0  0  0
  7 20  1  0  0  0  0
  8 23  1  0  0  0  0
  9 23  2  0  0  0  0
 10 24  1  0  0  0  0
 11 12  2  0  0  0  0
 11 25  1  0  0  0  0
 12 26  1  0  0  0  0
 13 14  1  0  0  0  0
 13 29  2  0  0  0  0
 14 31  2  0  0  0  0
 15 22  1  0  0  0  0
 15 24  2  0  0  0  0
 16 26  2  0  0  0  0
 16 27  1  0  0  0  0
 17 28  1  0  0  0  0
 18 28  1  0  0  0  0
 18 30  2  0  0  0  0
 18 34  1  0  0  0  0
 19 21  2  0  0  0  0
 19 39  1  0  0  0  0
 20 22  2  0  0  0  0
 20 40  1  0  0  0  0
 21 51  1  0  0  0  0
 22 41  1  0  0  0  0
 23 81  1  0  0  0  0
 24 82  1  0  0  0  0
 25 27  2  0  0  0  0
 25 81  1  0  0  0  0
 26 83  1  0  0  0  0
 27 84  1  0  0  0  0
 28 64  2  0  0  0  0
 29 59  1  0  0  0  0
 29 80  1  0  0  0  0
 30 65  1  0  0  0  0
 30 69  1  0  0  0  0
 31 66  1  0  0  0  0
 31 80  1  0  0  0  0
 32 33  2  0  0  0  0
 32 42  1  0  0  0  0
 33 43  1  0  0  0  0
 33 60  1  0  0  0  0
 34 70  1  0  0  0  0
 34 75  2  0  0  0  0
 35 52  1  0  0  0  0
 35 71  1  0  0  0  0
 35 76  2  0  0  0  0
 36 61  1  0  0  0  0
 36 67  1  0  0  0  0
 36 77  2  0  0  0  0
 37 62  1  0  0  0  0
 37 72  1  0  0  0  0
 37 78  2  0  0  0  0
 38 68  1  0  0  0  0
 38 73  1  0  0  0  0
 38 79  2  0  0  0  0
 39 44  1  0  0  0  0
 40 52  1  0  0  0  0
 41 67  1  0  0  0  0
 42 48  1  0  0  0  0
 43 66  1  0  0  0  0
 44 46  1  0  0  0  0
 45 47  1  0  0  0  0
 45 49  1  0  0  0  0
 46 51  1  0  0  0  0
 47 53  1  0  0  0  0
 48 66  1  0  0  0  0
 49 68  1  0  0  0  0
 50 53  1  0  0  0  0
 50 68  1  0  0  0  0
 51 71  1  0  0  0  0
 52 67  1  0  0  0  0
 53 65  1  0  0  0  0
 54 62  1  0  0  0  0
 55 63  1  0  0  0  0
 56 63  1  0  0  0  0
 57 63  1  0  0  0  0
 58 74  1  0  0  0  0
 59 73  1  0  0  0  0
 60 82  1  0  0  0  0
 61 63  1  0  0  0  0
 61 72  1  0  0  0  0
 62 74  1  0  0  0  0
 64 65  1  0  0  0  0
M  CHG  1  74   1
M  ISO  4  38 100  60 101  73 100  82 101
M  END
> <Batch ID>
0152

> <Smiles>
CNC(C)C(=O)NC(C(=O)N1Cc2cc([101O:1][101CH2:1]C3=CCCN(c4ccc(C[100NH:0][100C:0](=O)N5CCCC(n6nc(-c7ccc(Oc8ccc(F)cc8F)cc7)c(C(N)=O)c6N)C5)o4)C3)ccc2CC1C(=O)NC1CCCc2ccccc21)C(C)(C)C

> <Shape>
0.232

> <Color>
0.081

> <Negative vol penalty>
0.000

$$$$

  -OEChem-04052303273D

 84 92  0     1  0  0  0  0  0999 V2000
  -20.6658  -22.8889   22.1960 C   0  0  0  0  0  0  0  0  0  0  0  0
  -22.0083  -22.6720   21.9027 C   0  0  0  0  0  0  0  0  0  0  0  0
  -30.7138  -22.7202   23.8195 C   0  0  0  0  0  0  0  0  0  0  0  0
  -21.9178  -28.2994   21.0557 C   0  0  0  0  0  0  0  0  0  0  0  0
  -23.2594  -27.9750   23.0386 C   0  0  0  0  0  0  0  0  0  0  0  0
  -19.9276  -21.9019   22.8478 C   0  0  0  0  0  0  0  0  0  0  0  0
  -22.6137  -21.4683   22.2619 C   0  0  0  0  0  0  0  0  0  0  0  0
  -26.9841  -18.4823   19.1816 C   0  0  0  0  0  0  0  0  0  0  0  0
  -31.0957  -21.4294   23.4540 C   0  0  0  0  0  0  0  0  0  0  0  0
  -30.0819  -23.5493   22.8927 C   0  0  0  0  0  0  0  0  0  0  0  0
  -20.7588  -28.2312   21.8287 C   0  0  0  0  0  0  0  0  0  0  0  0
  -22.1004  -27.9069   23.8117 C   0  0  0  0  0  0  0  0  0  0  0  0
  -28.3689  -18.4283   19.3338 C   0  0  0  0  0  0  0  0  0  0  0  0
  -19.0146  -30.2684   23.8879 C   0  0  0  0  0  0  0  0  0  0  0  0
  -18.0218  -31.2196   23.6530 C   0  0  0  0  0  0  0  0  0  0  0  0
  -28.1426  -16.3996   20.6193 C   0  0  0  0  0  0  0  0  0  0  0  0
  -30.2137  -21.7968   21.2349 C   0  0  0  0  0  0  0  0  0  0  0  0
  -16.4654  -29.4576   23.0962 C   0  0  0  0  0  0  0  0  0  0  0  0
  -23.1682  -28.1713   21.6607 C   0  0  0  0  0  0  0  0  0  0  0  0
  -25.1111  -29.3929   20.5470 C   0  0  0  0  0  0  0  0  0  0  0  0
  -20.5217  -20.6817   23.2066 C   0  0  0  0  0  0  0  0  0  0  0  0
  -26.1660  -17.4995   19.7573 C   0  0  0  0  0  0  0  0  0  0  0  0
  -21.8831  -20.4646   22.9203 C   0  0  0  0  0  0  0  0  0  0  0  0
  -26.7479  -16.4419   20.4707 C   0  0  0  0  0  0  0  0  0  0  0  0
  -30.8456  -20.9677   22.1617 C   0  0  0  0  0  0  0  0  0  0  0  0
  -29.8318  -23.0876   21.6004 C   0  0  0  0  0  0  0  0  0  0  0  0
  -20.8500  -28.0350   23.2067 C   0  0  0  0  0  0  0  0  0  0  0  0
  -28.9482  -17.3885   20.0552 C   0  0  0  0  0  0  0  0  0  0  0  0
  -18.7328  -28.9118   23.7269 C   0  0  0  0  0  0  0  0  0  0  0  0
  -16.7472  -30.8142   23.2572 C   0  0  0  0  0  0  0  0  0  0  0  0
  -17.4582  -28.5064   23.3311 C   0  0  0  0  0  0  0  0  0  0  0  0
  -24.3658  -28.2411   20.8626 C   0  0  0  0  0  0  0  0  0  0  0  0
  -26.1464  -28.9303   19.7719 C   0  0  0  0  0  0  0  0  0  0  0  0
  -24.8877  -30.7588   20.9211 C   0  0  0  0  0  0  0  0  0  0  0  0
  -23.8615  -17.4997   21.9466 C   0  0  0  0  0  0  0  0  0  0  0  0
  -23.5856  -14.3825   21.0926 C   0  0  0  0  0  0  0  0  0  0  0  0
  -25.0463  -11.6066   19.7482 C   0  0  0  0  0  0  0  0  0  0  0  0
  -31.8678  -18.7011   22.5801 C   0  0  0  0  0  0  0  0  0  0  0  0
  -28.8673  -23.6282   19.3369 C   0  0  0  0  0  0  0  0  0  0  0  0
  -19.6957  -19.6635   23.9520 C   0  0  0  0  0  0  0  0  0  0  0  0
  -24.6758  -17.5574   19.5613 C   0  0  0  0  0  0  0  0  0  0  0  0
  -25.9152  -15.3510   21.0912 C   0  0  0  0  0  0  0  0  0  0  0  0
  -20.3145  -18.2680   23.9640 C   0  0  0  0  0  0  0  0  0  0  0  0
  -27.2544  -25.4155   16.7137 C   0  0  0  0  0  0  0  0  0  0  0  0
  -21.7971  -18.3445   24.3144 C   0  0  0  0  0  0  0  0  0  0  0  0
  -26.4031  -26.4517   17.4510 C   0  0  0  0  0  0  0  0  0  0  0  0
  -27.3017  -24.0844   17.4618 C   0  0  0  0  0  0  0  0  0  0  0  0
  -26.8599  -25.2136   19.6063 C   0  0  0  0  0  0  0  0  0  0  0  0
  -22.5689  -19.1622   23.2718 C   0  0  1  0  0  0  0  0  0  0  0  0
  -23.9028  -16.7848   20.6257 C   0  0  1  0  0  0  0  0  0  0  0  0
  -26.8353  -26.5910   18.9239 C   0  0  2  0  0  0  0  0  0  0  0  0
  -24.5829   -9.1982   19.2172 C   0  0  0  0  0  0  0  0  0  0  0  0
  -32.8484  -16.3864   22.7749 C   0  0  0  0  0  0  0  0  0  0  0  0
  -33.0061  -17.6264   20.5853 C   0  0  0  0  0  0  0  0  0  0  0  0
  -23.8818  -13.6768   24.0463 C   0  0  0  0  0  0  0  0  0  0  0  0
  -24.3634  -11.3170   23.3625 C   0  0  0  0  0  0  0  0  0  0  0  0
  -22.1549  -12.3439   22.8234 C   0  0  0  0  0  0  0  0  0  0  0  0
  -25.4945  -12.0379   16.8547 C   0  0  0  0  0  0  0  0  0  0  0  0
  -30.7961  -16.7275   21.3984 C   0  0  0  0  0  0  0  0  0  1  0  0
  -24.2108  -13.0882   21.5541 C   0  0  1  0  0  0  0  0  0  0  0  0
  -24.5656  -10.6259   18.6938 C   0  0  2  0  0  0  0  0  0  0  0  0
  -32.1366  -17.3695   21.8288 C   0  0  0  0  0  0  0  0  0  0  0  0
  -23.6685  -12.6280   22.9367 C   0  0  0  0  0  0  0  0  0  0  0  0
  -24.8835  -27.1303   20.3313 N   0  0  0  0  0  0  0  0  0  0  0  0
  -25.9651  -27.5821   19.6739 N   0  0  0  0  0  0  0  0  0  0  0  0
  -24.4624  -15.4552   20.8771 N   0  0  0  0  0  0  0  0  0  0  0  0
  -27.7231  -24.2939   18.8487 N   0  0  0  0  0  0  0  0  0  0  0  0
  -27.1849  -29.5493   19.1714 N   0  0  0  0  0  0  0  0  0  0  0  0
  -23.7767  -31.0594   21.7210 N   0  0  0  0  0  0  0  0  0  0  0  0
  -31.2332  -19.6566   21.7915 N   0  0  0  0  0  0  0  0  0  0  0  0
  -29.1897  -23.9303   20.6595 N   0  0  0  0  0  0  0  0  0  0  0  0
  -22.7994  -18.3735   22.0805 N   0  0  0  0  0  0  0  0  0  0  0  0
  -23.9982  -12.1259   20.4784 N   0  0  0  0  0  0  0  0  0  0  0  0
  -25.4370  -10.6947   17.4868 N   0  3  0  0  0  0  0  0  0  0  0  0
  -25.6413  -31.6877   20.5432 O   0  0  0  0  0  0  0  0  0  0  0  0
  -24.7283  -17.2742   22.7830 O   0  0  0  0  0  0  0  0  0  0  0  0
  -22.3650  -14.4376   20.9226 O   0  0  0  0  0  0  0  0  0  0  0  0
  -26.2331  -11.8815   19.9105 O   0  0  0  0  0  0  0  0  0  0  0  0
  -32.2104  -18.8484   23.7518 O   0  0  0  0  0  0  0  0  0  0  0  0
  -29.5293  -22.8686   18.6250 O   0  0  0  0  0  0  0  0  0  0  0  0
  -19.7193  -27.9686   23.9613 O   0  0  0  0  0  0  0  0  0  0  0  0
  -30.2996  -17.3339   20.2058 O   0  0  0  0  0  0  0  0  0  1  0  0
  -15.7935  -31.7277   23.0331 F   0  0  0  0  0  0  0  0  0  0  0  0
  -17.1812  -27.2045   23.1760 F   0  0  0  0  0  0  0  0  0  0  0  0
  1  2  1  0  0  0  0
  1  6  2  0  0  0  0
  2  7  2  0  0  0  0
  3  9  2  0  0  0  0
  3 10  1  0  0  0  0
  4 11  2  0  0  0  0
  4 19  1  0  0  0  0
  5 12  1  0  0  0  0
  5 19  2  0  0  0  0
  6 21  1  0  0  0  0
  7 23  1  0  0  0  0
  8 13  2  0  0  0  0
  8 22  1  0  0  0  0
  9 25  1  0  0  0  0
 10 26  2  0  0  0  0
 11 27  1  0  0  0  0
 12 27  2  0  0  0  0
 13 28  1  0  0  0  0
 14 15  2  0  0  0  0
 14 29  1  0  0  0  0
 15 30  1  0  0  0  0
 16 24  1  0  0  0  0
 16 28  2  0  0  0  0
 17 25  2  0  0  0  0
 17 26  1  0  0  0  0
 18 30  2  0  0  0  0
 18 31  1  0  0  0  0
 19 32  1  0  0  0  0
 20 32  1  0  0  0  0
 20 33  2  0  0  0  0
 20 34  1  0  0  0  0
 21 23  2  0  0  0  0
 21 40  1  0  0  0  0
 22 24  2  0  0  0  0
 22 41  1  0  0  0  0
 23 49  1  0  0  0  0
 24 42  1  0  0  0  0
 25 70  1  0  0  0  0
 26 71  1  0  0  0  0
 27 81  1  0  0  0  0
 28 82  1  0  0  0  0
 29 31  2  0  0  0  0
 29 81  1  0  0  0  0
 30 83  1  0  0  0  0
 31 84  1  0  0  0  0
 32 64  2  0  0  0  0
 33 65  1  0  0  0  0
 33 68  1  0  0  0  0
 34 69  1  0  0  0  0
 34 75  2  0  0  0  0
 35 50  1  0  0  0  0
 35 72  1  0  0  0  0
 35 76  2  0  0  0  0
 36 60  1  0  0  0  0
 36 66  1  0  0  0  0
 36 77  2  0  0  0  0
 37 61  1  0  0  0  0
 37 73  1  0  0  0  0
 37 78  2  0  0  0  0
 38 62  1  0  0  0  0
 38 70  1  0  0  0  0
 38 79  2  0  0  0  0
 39 67  1  0  0  0  0
 39 71  1  0  0  0  0
 39 80  2  0  0  0  0
 40 43  1  0  0  0  0
 41 50  1  0  0  0  0
 42 66  1  0  0  0  0
 43 45  1  0  0  0  0
 44 46  1  0  0  0  0
 44 47  1  0  0  0  0
 45 49  1  0  0  0  0
 46 51  1  0  0  0  0
 47 67  1  0  0  0  0
 48 51  1  0  0  0  0
 48 67  1  0  0  0  0
 49 72  1  0  0  0  0
 50 66  1  0  0  0  0
 51 65  1  0  0  0  0
 52 61  1  0  0  0  0
 53 62  1  0  0  0  0
 54 62  1  0  0  0  0
 55 63  1  0  0  0  0
 56 63  1  0  0  0  0
 57 63  1  0  0  0  0
 58 74  1  0  0  0  0
 59 62  1  0  0  0  0
 59 82  1  0  0  0  0
 60 63  1  0  0  0  0
 60 73  1  0  0  0  0
 61 74  1  0  0  0  0
 64 65  1  0  0  0  0
M  CHG  1  74   1
M  ISO  4  39 100  59 101  71 100  82 101
M  END
> <Batch ID>
0152

> <Smiles>
CNC(C)C(=O)NC(C(=O)N1Cc2cc([101O:1][101CH2:1]C(C)(C)C(=O)Nc3cccc([100NH:0][100C:0](=O)N4CCCC(n5nc(-c6ccc(Oc7ccc(F)cc7F)cc6)c(C(N)=O)c5N)C4)c3)ccc2CC1C(=O)NC1CCCc2ccccc21)C(C)(C)C

> <Shape>
0.233

> <Color>
0.083

> <Negative vol penalty>
0.000

$$$$

  -OEChem-04052303273D

 84 93  0     1  0  0  0  0  0999 V2000
  -34.0458  -29.8515   17.0060 C   0  0  0  0  0  0  0  0  0  0  0  0
  -33.0090  -29.1242   16.4302 C   0  0  0  0  0  0  0  0  0  0  0  0
  -27.8714  -15.7216   21.5809 C   0  0  0  0  0  0  0  0  0  0  0  0
  -25.5563  -16.2061   21.0885 C   0  0  0  0  0  0  0  0  0  0  0  0
  -34.2030  -29.8619   18.3914 C   0  0  0  0  0  0  0  0  0  0  0  0
  -32.1295  -28.4058   17.2395 C   0  0  0  0  0  0  0  0  0  0  0  0
  -24.3421  -28.7838   17.7294 C   0  0  0  0  0  0  0  0  0  0  0  0
  -27.6209  -14.3592   21.4183 C   0  0  0  0  0  0  0  0  0  0  0  0
  -25.3057  -14.8436   20.9258 C   0  0  0  0  0  0  0  0  0  0  0  0
  -22.9802  -28.8711   18.0191 C   0  0  0  0  0  0  0  0  0  0  0  0
  -24.7881  -12.1521   22.9053 C   0  0  0  0  0  0  0  0  0  0  0  0
  -23.6414  -11.6282   23.5022 C   0  0  0  0  0  0  0  0  0  0  0  0
  -23.3968  -28.0812   20.2665 C   0  0  0  0  0  0  0  0  0  0  0  0
  -22.8263  -10.9418   21.3338 C   0  0  0  0  0  0  0  0  0  0  0  0
  -20.9771  -24.4635   22.9911 C   0  0  0  0  0  0  0  0  0  0  0  0
  -26.8391  -16.6452   21.4161 C   0  0  0  0  0  0  0  0  0  0  0  0
  -28.0034  -18.8442   20.8538 C   0  0  0  0  0  0  0  0  0  0  0  0
  -33.3191  -29.1512   19.2186 C   0  0  0  0  0  0  0  0  0  0  0  0
  -25.2395  -28.3590   18.7131 C   0  0  0  0  0  0  0  0  0  0  0  0
  -32.2758  -28.4056   18.6371 C   0  0  0  0  0  0  0  0  0  0  0  0
  -24.7636  -28.0037   19.9860 C   0  0  0  0  0  0  0  0  0  0  0  0
  -26.3381  -13.9201   21.0907 C   0  0  0  0  0  0  0  0  0  0  0  0
  -22.5088  -28.5204   19.2845 C   0  0  0  0  0  0  0  0  0  0  0  0
  -24.9539  -12.0709   21.5227 C   0  0  0  0  0  0  0  0  0  0  0  0
  -22.6605  -11.0231   22.7165 C   0  0  0  0  0  0  0  0  0  0  0  0
  -23.9731  -11.4657   20.7370 C   0  0  0  0  0  0  0  0  0  0  0  0
  -27.0971  -18.0527   21.5845 C   0  0  0  0  0  0  0  0  0  0  0  0
  -19.9763  -24.8271   22.0452 C   0  0  0  0  0  0  0  0  0  0  0  0
  -27.8746  -20.1006   21.3934 C   0  0  0  0  0  0  0  0  0  0  0  0
  -21.7152  -23.4018   22.5148 C   0  0  0  0  0  0  0  0  0  0  0  0
  -28.8831  -18.4766   19.7829 C   0  0  0  0  0  0  0  0  0  0  0  0
  -28.8031  -27.6357   19.6370 C   0  0  0  0  0  0  0  0  0  0  0  0
  -19.2098  -27.4423   20.1565 C   0  0  0  0  0  0  0  0  0  0  0  0
  -27.5200  -29.0229   22.0536 C   0  0  0  0  0  0  0  0  0  0  0  0
  -25.8578  -30.9464   24.3283 C   0  0  0  0  0  0  0  0  0  0  0  0
  -23.4335  -22.8685   24.2781 C   0  0  0  0  0  0  0  0  0  0  0  0
  -33.5576  -29.1541   20.7078 C   0  0  0  0  0  0  0  0  0  0  0  0
  -26.7070  -28.1910   18.4268 C   0  0  0  0  0  0  0  0  0  0  0  0
  -25.7612  -27.5190   21.0023 C   0  0  0  0  0  0  0  0  0  0  0  0
  -32.3576  -28.6700   21.5177 C   0  0  0  0  0  0  0  0  0  0  0  0
  -16.7465  -25.1787   21.7267 C   0  0  0  0  0  0  0  0  0  0  0  0
  -26.7397  -22.3221   25.4813 C   0  0  0  0  0  0  0  0  0  0  0  0
  -31.7856  -27.3920   20.9126 C   0  0  0  0  0  0  0  0  0  0  0  0
  -17.6832  -25.4623   22.8972 C   0  0  0  0  0  0  0  0  0  0  0  0
  -27.2911  -21.2417   24.5483 C   0  0  0  0  0  0  0  0  0  0  0  0
  -17.1169  -26.2460   20.7114 C   0  0  0  0  0  0  0  0  0  0  0  0
  -25.2578  -22.1076   25.7841 C   0  0  0  0  0  0  0  0  0  0  0  0
  -24.9490  -20.8813   23.6699 C   0  0  0  0  0  0  0  0  0  0  0  0
  -31.2864  -27.6339   19.4830 C   0  0  1  0  0  0  0  0  0  0  0  0
  -18.9760  -25.9538   22.2310 C   0  0  2  0  0  0  0  0  0  0  0  0
  -27.6002  -28.5326   19.6329 C   0  0  1  0  0  0  0  0  0  0  0  0
  -26.4223  -21.0917   23.2841 C   0  0  2  0  0  0  0  0  0  0  0  0
  -26.1443  -32.0350   26.5711 C   0  0  0  0  0  0  0  0  0  0  0  0
  -27.1896  -26.3101   23.4083 C   0  0  0  0  0  0  0  0  0  0  0  0
  -26.5363  -27.5153   25.5033 C   0  0  0  0  0  0  0  0  0  0  0  0
  -28.8101  -27.8476   24.5328 C   0  0  0  0  0  0  0  0  0  0  0  0
  -25.4272  -33.6488   23.2010 C   0  0  0  0  0  0  0  0  0  0  0  0
  -20.6512  -27.6956   20.5200 C   0  0  0  0  0  0  0  0  0  1  0  0
  -26.8066  -28.8631   23.3722 C   0  0  1  0  0  0  0  0  0  0  0  0
  -26.2615  -32.2108   25.0651 C   0  0  2  0  0  0  0  0  0  0  0  0
  -27.3214  -27.6383   24.1799 C   0  0  0  0  0  0  0  0  0  0  0  0
  -26.4411  -18.7480   22.5173 N   0  0  0  0  0  0  0  0  0  0  0  0
  -19.9194  -24.1227   20.9174 N   0  0  0  0  0  0  0  0  0  0  0  0
  -26.9357  -19.9896   22.3765 N   0  0  0  0  0  0  0  0  0  0  0  0
  -26.9732  -28.3517   20.9532 N   0  0  0  0  0  0  0  0  0  0  0  0
  -18.5143  -26.5651   20.9745 N   0  0  0  0  0  0  0  0  0  0  0  0
  -24.4967  -21.9786   24.5395 N   0  0  0  0  0  0  0  0  0  0  0  0
  -28.4739  -21.2785   21.1182 N   0  0  0  0  0  0  0  0  0  0  0  0
  -28.4077  -18.5652   18.4674 N   0  0  0  0  0  0  0  0  0  0  0  0
  -22.8045  -22.6701   23.0494 N   0  0  0  0  0  0  0  0  0  0  0  0
  -30.0044  -28.3050   19.5020 N   0  0  0  0  0  0  0  0  0  0  0  0
  -26.9441  -30.1381   24.0679 N   0  0  0  0  0  0  0  0  0  0  0  0
  -25.3913  -33.3492   24.6557 N   0  3  0  0  0  0  0  0  0  0  0  0
  -30.0505  -18.0655   19.9874 O   0  0  0  0  0  0  0  0  0  0  0  0
  -28.6537  -26.4252   19.7554 O   0  0  0  0  0  0  0  0  0  0  0  0
  -18.7143  -28.0012   19.1755 O   0  0  0  0  0  0  0  0  0  0  0  0
  -28.5380  -29.7187   21.9989 O   0  0  0  0  0  0  0  0  0  0  0  0
  -24.6946  -30.6987   24.0183 O   0  0  0  0  0  0  0  0  0  0  0  0
  -23.1228  -23.7596   25.0727 O   0  0  0  0  0  0  0  0  0  0  0  0
  -26.0933  -12.5907   20.9317 O   0  0  0  0  0  0  0  0  0  0  0  0
  -21.1786  -28.6123   19.5619 O   0  0  0  0  0  0  0  0  0  1  0  0
  -21.5601  -10.5187   23.2899 F   0  0  0  0  0  0  0  0  0  0  0  0
  -24.1273  -11.3837   19.4083 F   0  0  0  0  0  0  0  0  0  0  0  0
  -21.1111  -22.9656   20.9726 S   0  0  0  0  0  0  0  0  0  0  0  0
  1  2  1  0  0  0  0
  1  5  2  0  0  0  0
  2  6  2  0  0  0  0
  3  8  2  0  0  0  0
  3 16  1  0  0  0  0
  4  9  1  0  0  0  0
  4 16  2  0  0  0  0
  5 18  1  0  0  0  0
  6 20  1  0  0  0  0
  7 10  2  0  0  0  0
  7 19  1  0  0  0  0
  8 22  1  0  0  0  0
  9 22  2  0  0  0  0
 10 23  1  0  0  0  0
 11 12  2  0  0  0  0
 11 24  1  0  0  0  0
 12 25  1  0  0  0  0
 13 21  1  0  0  0  0
 13 23  2  0  0  0  0
 14 25  2  0  0  0  0
 14 26  1  0  0  0  0
 15 28  1  0  0  0  0
 15 30  2  0  0  0  0
 16 27  1  0  0  0  0
 17 27  1  0  0  0  0
 17 29  2  0  0  0  0
 17 31  1  0  0  0  0
 18 20  2  0  0  0  0
 18 37  1  0  0  0  0
 19 21  2  0  0  0  0
 19 38  1  0  0  0  0
 20 49  1  0  0  0  0
 21 39  1  0  0  0  0
 22 80  1  0  0  0  0
 23 81  1  0  0  0  0
 24 26  2  0  0  0  0
 24 80  1  0  0  0  0
 25 82  1  0  0  0  0
 26 83  1  0  0  0  0
 27 62  2  0  0  0  0
 28 50  1  0  0  0  0
 28 63  2  0  0  0  0
 29 64  1  0  0  0  0
 29 68  1  0  0  0  0
 30 70  1  0  0  0  0
 30 84  1  0  0  0  0
 31 69  1  0  0  0  0
 31 74  2  0  0  0  0
 32 51  1  0  0  0  0
 32 71  1  0  0  0  0
 32 75  2  0  0  0  0
 33 58  1  0  0  0  0
 33 66  1  0  0  0  0
 33 76  2  0  0  0  0
 34 59  1  0  0  0  0
 34 65  1  0  0  0  0
 34 77  2  0  0  0  0
 35 60  1  0  0  0  0
 35 72  1  0  0  0  0
 35 78  2  0  0  0  0
 36 67  1  0  0  0  0
 36 70  1  0  0  0  0
 36 79  2  0  0  0  0
 37 40  1  0  0  0  0
 38 51  1  0  0  0  0
 39 65  1  0  0  0  0
 40 43  1  0  0  0  0
 41 44  1  0  0  0  0
 41 46  1  0  0  0  0
 42 45  1  0  0  0  0
 42 47  1  0  0  0  0
 43 49  1  0  0  0  0
 44 50  1  0  0  0  0
 45 52  1  0  0  0  0
 46 66  1  0  0  0  0
 47 67  1  0  0  0  0
 48 52  1  0  0  0  0
 48 67  1  0  0  0  0
 49 71  1  0  0  0  0
 50 66  1  0  0  0  0
 51 65  1  0  0  0  0
 52 64  1  0  0  0  0
 53 60  1  0  0  0  0
 54 61  1  0  0  0  0
 55 61  1  0  0  0  0
 56 61  1  0  0  0  0
 57 73  1  0  0  0  0
 58 81  1  0  0  0  0
 59 61  1  0  0  0  0
 59 72  1  0  0  0  0
 60 73  1  0  0  0  0
 62 64  1  0  0  0  0
 63 84  1  0  0  0  0
M  CHG  1  73   1
M  ISO  4  36 100  58 101  70 100  81 101
M  END
> <Batch ID>
0152

> <Smiles>
CNC(C)C(=O)NC(C(=O)N1Cc2cc([101O:1][101CH2:1]C(=O)N3CCCC3c3cc([100NH:0][100C:0](=O)N4CCCC(n5nc(-c6ccc(Oc7ccc(F)cc7F)cc6)c(C(N)=O)c5N)C4)sn3)ccc2CC1C(=O)NC1CCCc2ccccc21)C(C)(C)C

> <Shape>
0.221

> <Color>
0.066

> <Negative vol penalty>
0.000

$$$$

  -OEChem-04052303273D

 85 94  0     1  0  0  0  0  0999 V2000
  -30.2656  -37.5679   22.1451 C   0  0  0  0  0  0  0  0  0  0  0  0
  -30.4393  -36.2972   21.6063 C   0  0  0  0  0  0  0  0  0  0  0  0
  -24.5072   -8.9920   21.4760 C   0  0  0  0  0  0  0  0  0  0  0  0
  -22.7178   -9.9513   20.1665 C   0  0  0  0  0  0  0  0  0  0  0  0
  -29.5029  -37.7358   23.3001 C   0  0  0  0  0  0  0  0  0  0  0  0
  -29.8512  -35.1933   22.2227 C   0  0  0  0  0  0  0  0  0  0  0  0
  -27.5865  -30.2127   19.4712 C   0  0  0  0  0  0  0  0  0  0  0  0
  -23.7252   -7.8626   21.7174 C   0  0  0  0  0  0  0  0  0  0  0  0
  -21.9357   -8.8218   20.4078 C   0  0  0  0  0  0  0  0  0  0  0  0
  -28.1140  -28.9410   19.2512 C   0  0  0  0  0  0  0  0  0  0  0  0
  -21.1683   -6.9916   23.7492 C   0  0  0  0  0  0  0  0  0  0  0  0
  -21.1282   -6.4986   25.0534 C   0  0  0  0  0  0  0  0  0  0  0  0
  -26.7370  -20.3170   16.9903 C   0  0  0  0  0  0  0  0  0  0  0  0
  -26.3532  -18.9943   17.3163 C   0  0  0  0  0  0  0  0  0  0  0  0
  -26.9876  -28.1386   21.2277 C   0  0  0  0  0  0  0  0  0  0  0  0
  -22.0240   -4.3907   24.2842 C   0  0  0  0  0  0  0  0  0  0  0  0
  -24.0035  -10.0365   20.7006 C   0  0  0  0  0  0  0  0  0  0  0  0
  -25.7027  -11.4079   19.3817 C   0  0  0  0  0  0  0  0  0  0  0  0
  -28.8971  -36.6346   23.9256 C   0  0  0  0  0  0  0  0  0  0  0  0
  -26.7631  -30.4599   20.5790 C   0  0  0  0  0  0  0  0  0  0  0  0
  -29.0807  -35.3464   23.3879 C   0  0  0  0  0  0  0  0  0  0  0  0
  -26.4489  -29.4136   21.4581 C   0  0  0  0  0  0  0  0  0  0  0  0
  -22.4394   -7.7774   21.1832 C   0  0  0  0  0  0  0  0  0  0  0  0
  -27.8169  -27.9044   20.1311 C   0  0  0  0  0  0  0  0  0  0  0  0
  -21.6362   -6.1841   22.7125 C   0  0  0  0  0  0  0  0  0  0  0  0
  -21.5561   -5.1982   25.3209 C   0  0  0  0  0  0  0  0  0  0  0  0
  -22.0640   -4.8837   22.9800 C   0  0  0  0  0  0  0  0  0  0  0  0
  -24.8106  -11.2037   20.4514 C   0  0  0  0  0  0  0  0  0  0  0  0
  -26.2164  -12.6632   19.5977 C   0  0  0  0  0  0  0  0  0  0  0  0
  -26.7361  -21.0177   18.1740 C   0  0  0  0  0  0  0  0  0  0  0  0
  -26.1454  -18.9809   18.6760 C   0  0  0  0  0  0  0  0  0  0  0  0
  -26.0370  -10.5403   18.2902 C   0  0  0  0  0  0  0  0  0  0  0  0
  -26.9460  -32.3412   23.1346 C   0  0  0  0  0  0  0  0  0  0  0  0
  -23.9288  -31.2701   23.6560 C   0  0  0  0  0  0  0  0  0  0  0  0
  -21.5878  -28.8404   23.1430 C   0  0  0  0  0  0  0  0  0  0  0  0
  -25.5647  -18.0289   20.9349 C   0  0  0  0  0  0  0  0  0  0  0  0
  -28.1208  -36.8595   25.1989 C   0  0  0  0  0  0  0  0  0  0  0  0
  -26.1804  -31.8308   20.7874 C   0  0  0  0  0  0  0  0  0  0  0  0
  -25.5534  -29.6221   22.6510 C   0  0  0  0  0  0  0  0  0  0  0  0
  -27.2213  -35.6862   25.5792 C   0  0  0  0  0  0  0  0  0  0  0  0
  -25.8752  -15.7141   23.6224 C   0  0  0  0  0  0  0  0  0  0  0  0
  -27.9816  -34.3694   25.4575 C   0  0  0  0  0  0  0  0  0  0  0  0
  -25.6993  -14.3511   22.9490 C   0  0  0  0  0  0  0  0  0  0  0  0
  -27.4318  -24.6458   18.0104 C   0  0  0  0  0  0  0  0  0  0  0  0
  -24.9722  -16.7761   22.9975 C   0  0  0  0  0  0  0  0  0  0  0  0
  -27.4222  -23.2569   17.3820 C   0  0  0  0  0  0  0  0  0  0  0  0
  -24.9080  -15.5430   20.8657 C   0  0  0  0  0  0  0  0  0  0  0  0
  -28.4382  -34.1275   24.0137 C   0  0  1  0  0  0  0  0  0  0  0  0
  -25.7698  -32.0921   22.2332 C   0  0  1  0  0  0  0  0  0  0  0  0
  -25.8443  -14.4559   21.4181 C   0  0  2  0  0  0  0  0  0  0  0  0
  -27.8187  -24.3578   19.4585 C   0  0  2  0  0  0  0  0  0  0  0  0
  -27.0211  -23.0393   19.7847 C   0  0  0  0  0  0  0  0  0  0  0  0
  -25.5703  -23.3473   20.2028 C   0  0  0  0  0  0  0  0  0  0  0  0
  -27.7510  -22.2479   20.8830 C   0  0  0  0  0  0  0  0  0  0  0  0
  -19.2260  -28.2257   23.7273 C   0  0  0  0  0  0  0  0  0  0  0  0
  -24.8352  -30.4562   26.4535 C   0  0  0  0  0  0  0  0  0  0  0  0
  -22.7834  -29.0322   26.6284 C   0  0  0  0  0  0  0  0  0  0  0  0
  -22.5657  -31.5022   26.3554 C   0  0  0  0  0  0  0  0  0  0  0  0
  -20.7564  -28.8633   20.3028 C   0  0  0  0  0  0  0  0  0  0  0  0
  -27.5559  -25.5528   20.3713 C   0  0  0  0  0  0  0  0  0  1  0  0
  -23.3220  -30.1001   24.3922 C   0  0  1  0  0  0  0  0  0  0  0  0
  -20.1318  -28.9176   22.7206 C   0  0  2  0  0  0  0  0  0  0  0  0
  -23.3951  -30.2689   25.9360 C   0  0  0  0  0  0  0  0  0  0  0  0
  -24.7584  -12.2458   21.2853 N   0  0  0  0  0  0  0  0  0  0  0  0
  -25.6241  -13.1169   20.7395 N   0  0  0  0  0  0  0  0  0  0  0  0
  -27.0274  -22.3414   18.4651 N   0  0  3  0  0  0  0  0  0  0  0  0
  -25.0133  -30.9818   22.8155 N   0  0  0  0  0  0  0  0  0  0  0  0
  -25.1669  -16.8213   21.5467 N   0  0  0  0  0  0  0  0  0  0  0  0
  -27.1124  -13.4122   18.9206 N   0  0  0  0  0  0  0  0  0  0  0  0
  -25.4168   -9.2855   18.2199 N   0  0  0  0  0  0  0  0  0  0  0  0
  -25.7502  -17.9426   19.5555 N   0  0  0  0  0  0  0  0  0  0  0  0
  -27.3310  -33.6665   23.2039 N   0  0  0  0  0  0  0  0  0  0  0  0
  -21.9678  -29.9480   23.8711 N   0  0  0  0  0  0  0  0  0  0  0  0
  -19.9424  -28.2671   21.3932 N   0  3  0  0  0  0  0  0  0  0  0  0
  -26.8736  -10.8616   17.4125 O   0  0  0  0  0  0  0  0  0  0  0  0
  -27.4648  -31.4008   23.7247 O   0  0  0  0  0  0  0  0  0  0  0  0
  -23.4534  -32.3971   23.8153 O   0  0  0  0  0  0  0  0  0  0  0  0
  -22.3143  -27.8906   22.8590 O   0  0  0  0  0  0  0  0  0  0  0  0
  -25.7550  -19.0565   21.5905 O   0  0  0  0  0  0  0  0  0  0  0  0
  -26.3767  -20.2104   19.2063 O   0  0  0  0  0  0  0  0  0  0  0  0
  -29.2279  -24.0897   19.4937 O   0  0  0  0  0  0  0  0  0  0  0  0
  -21.6761   -6.6753   21.4183 O   0  0  0  0  0  0  0  0  0  0  0  0
  -28.3310  -26.6624   19.9191 O   0  0  0  0  0  0  0  0  0  1  0  0
  -21.5189   -4.7255   26.5737 F   0  0  0  0  0  0  0  0  0  0  0  0
  -22.5156   -4.1037   21.9883 F   0  0  0  0  0  0  0  0  0  0  0  0
  1  2  1  0  0  0  0
  1  5  2  0  0  0  0
  2  6  2  0  0  0  0
  3  8  2  0  0  0  0
  3 17  1  0  0  0  0
  4  9  1  0  0  0  0
  4 17  2  0  0  0  0
  5 19  1  0  0  0  0
  6 21  1  0  0  0  0
  7 10  2  0  0  0  0
  7 20  1  0  0  0  0
  8 23  1  0  0  0  0
  9 23  2  0  0  0  0
 10 24  1  0  0  0  0
 11 12  2  0  0  0  0
 11 25  1  0  0  0  0
 12 26  1  0  0  0  0
 13 14  1  0  0  0  0
 13 30  2  0  0  0  0
 14 31  2  0  0  0  0
 15 22  1  0  0  0  0
 15 24  2  0  0  0  0
 16 26  2  0  0  0  0
 16 27  1  0  0  0  0
 17 28  1  0  0  0  0
 18 28  1  0  0  0  0
 18 29  2  0  0  0  0
 18 32  1  0  0  0  0
 19 21  2  0  0  0  0
 19 37  1  0  0  0  0
 20 22  2  0  0  0  0
 20 38  1  0  0  0  0
 21 48  1  0  0  0  0
 22 39  1  0  0  0  0
 23 82  1  0  0  0  0
 24 83  1  0  0  0  0
 25 27  2  0  0  0  0
 25 82  1  0  0  0  0
 26 84  1  0  0  0  0
 27 85  1  0  0  0  0
 28 64  2  0  0  0  0
 29 65  1  0  0  0  0
 29 69  1  0  0  0  0
 30 66  1  0  0  0  0
 30 80  1  0  0  0  0
 31 71  1  0  0  0  0
 31 80  1  0  0  0  0
 32 70  1  0  0  0  0
 32 75  2  0  0  0  0
 33 49  1  0  0  0  0
 33 72  1  0  0  0  0
 33 76  2  0  0  0  0
 34 61  1  0  0  0  0
 34 67  1  0  0  0  0
 34 77  2  0  0  0  0
 35 62  1  0  0  0  0
 35 73  1  0  0  0  0
 35 78  2  0  0  0  0
 36 68  1  0  0  0  0
 36 71  1  0  0  0  0
 36 79  2  0  0  0  0
 37 40  1  0  0  0  0
 38 49  1  0  0  0  0
 39 67  1  0  0  0  0
 40 42  1  0  0  0  0
 41 43  1  0  0  0  0
 41 45  1  0  0  0  0
 42 48  1  0  0  0  0
 43 50  1  0  0  0  0
 44 46  1  0  0  0  0
 44 51  1  0  0  0  0
 45 68  1  0  0  0  0
 46 66  1  0  0  0  0
 47 50  1  0  0  0  0
 47 68  1  0  0  0  0
 48 72  1  0  0  0  0
 49 67  1  0  0  0  0
 50 65  1  0  0  0  0
 51 52  1  0  0  0  0
 51 60  1  0  0  0  0
 51 81  1  0  0  0  0
 52 53  1  0  0  0  0
 52 54  1  0  0  0  0
 52 66  1  0  0  0  0
 55 62  1  0  0  0  0
 56 63  1  0  0  0  0
 57 63  1  0  0  0  0
 58 63  1  0  0  0  0
 59 74  1  0  0  0  0
 60 83  1  0  0  0  0
 61 63  1  0  0  0  0
 61 73  1  0  0  0  0
 62 74  1  0  0  0  0
 64 65  1  0  0  0  0
M  CHG  1  74   1
M  ISO  4  36 100  60 101  71 100  83 101
M  END
> <Batch ID>
0152

> <Smiles>
CNC(C)C(=O)NC(C(=O)N1Cc2cc([101O:1][101CH2:1]C3(O)CCN(c4ccc([100NH:0][100C:0](=O)N5CCCC(n6nc(-c7ccc(Oc8ccc(F)cc8F)cc7)c(C(N)=O)c6N)C5)o4)C3(C)C)ccc2CC1C(=O)NC1CCCc2ccccc21)C(C)(C)C

> <Shape>
0.277

> <Color>
0.107

> <Negative vol penalty>
0.000

$$$$

  -OEChem-04052303273D

 87 96  0     1  0  0  0  0  0999 V2000
  -24.7922  -38.3557   19.4632 C   0  0  0  0  0  0  0  0  0  0  0  0
  -25.1022  -37.2369   18.6966 C   0  0  0  0  0  0  0  0  0  0  0  0
  -29.7364  -18.1815   20.8434 C   0  0  0  0  0  0  0  0  0  0  0  0
  -21.1611  -11.3808   20.9885 C   0  0  0  0  0  0  0  0  0  0  0  0
  -23.5340  -11.7300   20.6980 C   0  0  0  0  0  0  0  0  0  0  0  0
  -30.2346  -19.0519   19.8740 C   0  0  0  0  0  0  0  0  0  0  0  0
  -25.0259  -38.3441   20.8376 C   0  0  0  0  0  0  0  0  0  0  0  0
  -25.6471  -36.1061   19.3040 C   0  0  0  0  0  0  0  0  0  0  0  0
  -25.7019  -28.9625   18.7727 C   0  0  0  0  0  0  0  0  0  0  0  0
  -28.3592  -18.0166   20.9911 C   0  0  0  0  0  0  0  0  0  0  0  0
  -21.2991  -10.0681   20.5376 C   0  0  0  0  0  0  0  0  0  0  0  0
  -23.6720  -10.4172   20.2471 C   0  0  0  0  0  0  0  0  0  0  0  0
  -26.5954  -27.8954   18.6912 C   0  0  0  0  0  0  0  0  0  0  0  0
  -22.3440   -7.1033   21.7832 C   0  0  0  0  0  0  0  0  0  0  0  0
  -21.6917   -6.1000   22.4996 C   0  0  0  0  0  0  0  0  0  0  0  0
  -27.9784  -19.5928   19.2001 C   0  0  0  0  0  0  0  0  0  0  0  0
  -26.8821  -27.9604   21.0855 C   0  0  0  0  0  0  0  0  0  0  0  0
  -20.4325   -5.5081   20.5244 C   0  0  0  0  0  0  0  0  0  0  0  0
  -22.2786  -12.2118   21.0686 C   0  0  0  0  0  0  0  0  0  0  0  0
  -29.3556  -19.7575   19.0524 C   0  0  0  0  0  0  0  0  0  0  0  0
  -21.6570  -13.9909   22.7880 C   0  0  0  0  0  0  0  0  0  0  0  0
  -25.5650  -37.2091   21.4636 C   0  0  0  0  0  0  0  0  0  0  0  0
  -25.3996  -29.5447   20.0121 C   0  0  0  0  0  0  0  0  0  0  0  0
  -25.8895  -36.0798   20.6879 C   0  0  0  0  0  0  0  0  0  0  0  0
  -25.9825  -29.0332   21.1804 C   0  0  0  0  0  0  0  0  0  0  0  0
  -27.4802  -18.7223   20.1695 C   0  0  0  0  0  0  0  0  0  0  0  0
  -22.5545   -9.5863   20.1670 C   0  0  0  0  0  0  0  0  0  0  0  0
  -27.1878  -27.3960   19.8474 C   0  0  0  0  0  0  0  0  0  0  0  0
  -22.0405   -7.3092   20.4373 C   0  0  0  0  0  0  0  0  0  0  0  0
  -20.7360   -5.3023   21.8703 C   0  0  0  0  0  0  0  0  0  0  0  0
  -21.0848   -6.5116   19.8080 C   0  0  0  0  0  0  0  0  0  0  0  0
  -22.1367  -13.5681   21.5338 C   0  0  0  0  0  0  0  0  0  0  0  0
  -21.7191  -15.3620   22.7349 C   0  0  0  0  0  0  0  0  0  0  0  0
  -29.8811  -20.6771   18.0274 C   0  0  0  0  0  0  0  0  0  0  0  0
  -21.1966  -13.2138   23.9014 C   0  0  0  0  0  0  0  0  0  0  0  0
  -25.7688  -32.4350   21.2824 C   0  0  0  0  0  0  0  0  0  0  0  0
  -24.0714  -31.1493   23.7295 C   0  0  0  0  0  0  0  0  0  0  0  0
  -23.0853  -28.3509   25.4158 C   0  0  0  0  0  0  0  0  0  0  0  0
  -25.0718  -19.1778   19.5878 C   0  0  0  0  0  0  0  0  0  0  0  0
  -25.8440  -37.2608   22.9449 C   0  0  0  0  0  0  0  0  0  0  0  0
  -24.4133  -30.6779   20.0861 C   0  0  0  0  0  0  0  0  0  0  0  0
  -25.6758  -29.6097   22.5376 C   0  0  0  0  0  0  0  0  0  0  0  0
  -26.0754  -35.8872   23.5694 C   0  0  0  0  0  0  0  0  0  0  0  0
  -21.5159  -19.0024   19.6301 C   0  0  0  0  0  0  0  0  0  0  0  0
  -27.0359  -35.0669   22.7141 C   0  0  0  0  0  0  0  0  0  0  0  0
  -21.2278  -17.6300   20.2428 C   0  0  0  0  0  0  0  0  0  0  0  0
  -29.6396  -24.0679   17.2287 C   0  0  0  0  0  0  0  0  0  0  0  0
  -28.8401  -23.6216   19.5901 C   0  0  0  0  0  0  0  0  0  0  0  0
  -22.7490  -18.9737   18.7288 C   0  0  0  0  0  0  0  0  0  0  0  0
  -30.6169  -22.9037   17.3467 C   0  0  0  0  0  0  0  0  0  0  0  0
  -29.8210  -22.4592   19.6956 C   0  0  0  0  0  0  0  0  0  0  0  0
  -23.6725  -17.0528   19.9643 C   0  0  0  0  0  0  0  0  0  0  0  0
  -26.4589  -34.8253   21.3140 C   0  0  1  0  0  0  0  0  0  0  0  0
  -24.5727  -31.5276   21.3431 C   0  0  1  0  0  0  0  0  0  0  0  0
  -22.4773  -17.0468   20.9314 C   0  0  2  0  0  0  0  0  0  0  0  0
  -29.3297  -24.6841   18.5984 C   0  0  0  0  0  0  0  0  0  0  0  0
  -21.7300  -27.6202   27.3973 C   0  0  0  0  0  0  0  0  0  0  0  0
  -26.3160  -32.0451   25.5920 C   0  0  0  0  0  0  0  0  0  0  0  0
  -25.3969  -30.4961   27.3310 C   0  0  0  0  0  0  0  0  0  0  0  0
  -24.0099  -32.3934   26.4948 C   0  0  0  0  0  0  0  0  0  0  0  0
  -21.2348  -26.7841   23.7188 C   0  0  0  0  0  0  0  0  0  0  0  0
  -28.3240  -25.8224   18.4731 C   0  0  0  0  0  0  0  0  0  1  0  0
  -24.4179  -30.4004   24.9936 C   0  0  1  0  0  0  0  0  0  0  0  0
  -21.7210  -27.8962   25.9018 C   0  0  2  0  0  0  0  0  0  0  0  0
  -25.0427  -31.3239   26.0772 C   0  0  0  0  0  0  0  0  0  0  0  0
  -22.4781  -14.5880   20.7418 N   0  0  0  0  0  0  0  0  0  0  0  0
  -22.2126  -15.6653   21.5002 N   0  0  0  0  0  0  0  0  0  0  0  0
  -30.0924  -21.9480   18.3395 N   0  0  0  0  0  0  0  0  0  0  0  0
  -24.7100  -30.7207   22.5572 N   0  0  0  0  0  0  0  0  0  0  0  0
  -23.8941  -18.4132   19.4495 N   0  0  0  0  0  0  0  0  0  0  0  0
  -21.3991  -16.3257   23.6245 N   0  0  0  0  0  0  0  0  0  0  0  0
  -21.1993  -11.8168   23.7878 N   0  0  0  0  0  0  0  0  0  0  0  0
  -26.0814  -18.5543   20.3203 N   0  0  0  0  0  0  0  0  0  0  0  0
  -25.4590  -33.7798   21.3529 N   0  0  0  0  0  0  0  0  0  0  0  0
  -23.1956  -29.7254   25.4163 N   0  0  0  0  0  0  0  0  0  0  0  0
  -30.1367  -20.2170   16.8062 N   0  3  0  0  0  0  0  0  0  0  0  0
  -21.3088  -26.6498   25.1964 N   0  3  0  0  0  0  0  0  0  0  0  0
  -20.7793  -13.7429   24.9594 O   0  0  0  0  0  0  0  0  0  0  0  0
  -26.8899  -31.9508   21.1808 O   0  0  0  0  0  0  0  0  0  0  0  0
  -23.2584  -32.0757   23.7790 O   0  0  0  0  0  0  0  0  0  0  0  0
  -23.9664  -27.5654   25.0736 O   0  0  0  0  0  0  0  0  0  0  0  0
  -25.1671  -20.3138   19.1162 O   0  0  0  0  0  0  0  0  0  0  0  0
  -22.6895   -8.3053   19.7272 O   0  0  0  0  0  0  0  0  0  0  0  0
  -28.0608  -26.3549   19.7706 O   0  0  0  0  0  0  0  0  0  1  0  0
  -20.1108   -4.3378   22.5580 F   0  0  0  0  0  0  0  0  0  0  0  0
  -20.7899   -6.7038   18.5150 F   0  0  0  0  0  0  0  0  0  0  0  0
  -30.4869  -25.2186   19.0911 F   0  0  0  0  0  0  0  0  0  0  0  0
  1  2  1  0  0  0  0
  1  7  2  0  0  0  0
  2  8  2  0  0  0  0
  3  6  2  0  0  0  0
  3 10  1  0  0  0  0
  4 11  2  0  0  0  0
  4 19  1  0  0  0  0
  5 12  1  0  0  0  0
  5 19  2  0  0  0  0
  6 20  1  0  0  0  0
  7 22  1  0  0  0  0
  8 24  1  0  0  0  0
  9 13  2  0  0  0  0
  9 23  1  0  0  0  0
 10 26  2  0  0  0  0
 11 27  1  0  0  0  0
 12 27  2  0  0  0  0
 13 28  1  0  0  0  0
 14 15  2  0  0  0  0
 14 29  1  0  0  0  0
 15 30  1  0  0  0  0
 16 20  2  0  0  0  0
 16 26  1  0  0  0  0
 17 25  1  0  0  0  0
 17 28  2  0  0  0  0
 18 30  2  0  0  0  0
 18 31  1  0  0  0  0
 19 32  1  0  0  0  0
 20 34  1  0  0  0  0
 21 32  1  0  0  0  0
 21 33  2  0  0  0  0
 21 35  1  0  0  0  0
 22 24  2  0  0  0  0
 22 40  1  0  0  0  0
 23 25  2  0  0  0  0
 23 41  1  0  0  0  0
 24 53  1  0  0  0  0
 25 42  1  0  0  0  0
 26 73  1  0  0  0  0
 27 83  1  0  0  0  0
 28 84  1  0  0  0  0
 29 31  2  0  0  0  0
 29 83  1  0  0  0  0
 30 85  1  0  0  0  0
 31 86  1  0  0  0  0
 32 66  2  0  0  0  0
 33 67  1  0  0  0  0
 33 71  1  0  0  0  0
 34 68  1  0  0  0  0
 34 76  2  0  0  0  0
 35 72  1  0  0  0  0
 35 78  2  0  0  0  0
 36 54  1  0  0  0  0
 36 74  1  0  0  0  0
 36 79  2  0  0  0  0
 37 63  1  0  0  0  0
 37 69  1  0  0  0  0
 37 80  2  0  0  0  0
 38 64  1  0  0  0  0
 38 75  1  0  0  0  0
 38 81  2  0  0  0  0
 39 70  1  0  0  0  0
 39 73  1  0  0  0  0
 39 82  2  0  0  0  0
 40 43  1  0  0  0  0
 41 54  1  0  0  0  0
 42 69  1  0  0  0  0
 43 45  1  0  0  0  0
 44 46  1  0  0  0  0
 44 49  1  0  0  0  0
 45 53  1  0  0  0  0
 46 55  1  0  0  0  0
 47 50  1  0  0  0  0
 47 56  1  0  0  0  0
 48 51  1  0  0  0  0
 48 56  1  0  0  0  0
 49 70  1  0  0  0  0
 50 68  1  0  0  0  0
 51 68  1  0  0  0  0
 52 55  1  0  0  0  0
 52 70  1  0  0  0  0
 53 74  1  0  0  0  0
 54 69  1  0  0  0  0
 55 67  1  0  0  0  0
 56 62  1  0  0  0  0
 56 87  1  0  0  0  0
 57 64  1  0  0  0  0
 58 65  1  0  0  0  0
 59 65  1  0  0  0  0
 60 65  1  0  0  0  0
 61 77  1  0  0  0  0
 62 84  1  0  0  0  0
 63 65  1  0  0  0  0
 63 75  1  0  0  0  0
 64 77  1  0  0  0  0
 66 67  1  0  0  0  0
M  CHG  2  76   1  77   1
M  ISO  4  39 100  62 101  73 100  84 101
M  END
> <Batch ID>
0152

> <Smiles>
CNC(C)C(=O)NC(C(=O)N1Cc2cc([101O:1][101CH2:1]C3(F)CCN(C(=N)c4cccc([100NH:0][100C:0](=O)N5CCCC(n6nc(-c7ccc(Oc8ccc(F)cc8F)cc7)c(C(N)=O)c6N)C5)c4)CC3)ccc2CC1C(=O)NC1CCCc2ccccc21)C(C)(C)C

> <Shape>
0.264

> <Color>
0.083

> <Negative vol penalty>
0.000

$$$$

  -OEChem-04052303273D

 88 98  0     1  0  0  0  0  0999 V2000
  -25.7223  -38.4973   22.0790 C   0  0  0  0  0  0  0  0  0  0  0  0
  -26.5224  -37.4310   21.6813 C   0  0  0  0  0  0  0  0  0  0  0  0
  -28.1551  -20.9814   18.9367 C   0  0  0  0  0  0  0  0  0  0  0  0
  -23.7359   -9.8929   22.4552 C   0  0  0  0  0  0  0  0  0  0  0  0
  -24.4776  -11.5637   24.0349 C   0  0  0  0  0  0  0  0  0  0  0  0
  -24.7032  -38.2939   23.0085 C   0  0  0  0  0  0  0  0  0  0  0  0
  -26.3046  -36.1608   22.2139 C   0  0  0  0  0  0  0  0  0  0  0  0
  -27.0001  -30.7962   19.3426 C   0  0  0  0  0  0  0  0  0  0  0  0
  -28.5402  -22.3224   18.9381 C   0  0  0  0  0  0  0  0  0  0  0  0
  -23.2581   -9.1109   23.5068 C   0  0  0  0  0  0  0  0  0  0  0  0
  -23.9998  -10.7817   25.0864 C   0  0  0  0  0  0  0  0  0  0  0  0
  -28.0353  -29.8624   19.3375 C   0  0  0  0  0  0  0  0  0  0  0  0
  -20.5515   -9.0452   25.5324 C   0  0  0  0  0  0  0  0  0  0  0  0
  -19.2850   -8.4773   25.3944 C   0  0  0  0  0  0  0  0  0  0  0  0
  -30.8533  -21.6594   18.7433 C   0  0  0  0  0  0  0  0  0  0  0  0
  -28.7447  -18.6056   18.8356 C   0  0  0  0  0  0  0  0  0  0  0  0
  -26.8923  -28.5950   21.0423 C   0  0  0  0  0  0  0  0  0  0  0  0
  -31.0578  -17.9426   18.6407 C   0  0  0  0  0  0  0  0  0  0  0  0
  -20.2496   -6.2731   25.6139 C   0  0  0  0  0  0  0  0  0  0  0  0
  -29.1144  -19.9604   18.8385 C   0  0  0  0  0  0  0  0  0  0  0  0
  -30.4837  -20.3045   18.7403 C   0  0  0  0  0  0  0  0  0  0  0  0
  -24.3457  -11.1193   22.7193 C   0  0  0  0  0  0  0  0  0  0  0  0
  -24.1353  -12.9152   20.9198 C   0  0  0  0  0  0  0  0  0  0  0  0
  -24.4665  -37.0187   23.5454 C   0  0  0  0  0  0  0  0  0  0  0  0
  -25.9066  -30.6420   20.2069 C   0  0  0  0  0  0  0  0  0  0  0  0
  -25.2822  -35.9404   23.1524 C   0  0  0  0  0  0  0  0  0  0  0  0
  -25.8432  -29.5269   21.0547 C   0  0  0  0  0  0  0  0  0  0  0  0
  -29.8867  -22.6607   18.8416 C   0  0  0  0  0  0  0  0  0  0  0  0
  -29.7112  -17.6043   18.7373 C   0  0  0  0  0  0  0  0  0  0  0  0
  -31.4430  -19.2835   18.6421 C   0  0  0  0  0  0  0  0  0  0  0  0
  -23.3900   -9.5552   24.8223 C   0  0  0  0  0  0  0  0  0  0  0  0
  -27.9829  -28.7631   20.1895 C   0  0  0  0  0  0  0  0  0  0  0  0
  -21.6671   -8.2271   25.7110 C   0  0  0  0  0  0  0  0  0  0  0  0
  -19.1340   -7.0912   25.4352 C   0  0  0  0  0  0  0  0  0  0  0  0
  -21.5161   -6.8410   25.7519 C   0  0  0  0  0  0  0  0  0  0  0  0
  -24.8400  -11.9274   21.6335 C   0  0  0  0  0  0  0  0  0  0  0  0
  -25.0402  -13.3850   19.9994 C   0  0  0  0  0  0  0  0  0  0  0  0
  -31.5078  -25.9053   18.7861 C   0  0  0  0  0  0  0  0  0  0  0  0
  -30.2263  -26.2748   18.8903 C   0  0  0  0  0  0  0  0  0  0  0  0
  -22.7838  -13.3679   21.0750 C   0  0  0  0  0  0  0  0  0  0  0  0
  -24.6854  -32.3355   22.6036 C   0  0  0  0  0  0  0  0  0  0  0  0
  -22.3371  -30.1016   22.4706 C   0  0  0  0  0  0  0  0  0  0  0  0
  -21.3870  -26.9461   21.5834 C   0  0  0  0  0  0  0  0  0  0  0  0
  -30.1527  -15.1258   18.6451 C   0  0  0  0  0  0  0  0  0  0  0  0
  -23.3837  -36.8573   24.5828 C   0  0  0  0  0  0  0  0  0  0  0  0
  -24.7851  -31.6440   20.1812 C   0  0  0  0  0  0  0  0  0  0  0  0
  -24.6815  -29.3046   21.9871 C   0  0  0  0  0  0  0  0  0  0  0  0
  -31.6464  -24.4187   18.7468 C   0  0  0  0  0  0  0  0  0  0  0  0
  -29.3196  -25.0836   18.9355 C   0  0  0  0  0  0  0  0  0  0  0  0
  -22.9768  -35.4048   24.8176 C   0  0  0  0  0  0  0  0  0  0  0  0
  -29.5834  -11.6111   18.6450 C   0  0  0  0  0  0  0  0  0  0  0  0
  -24.2118  -34.5217   24.9655 C   0  0  0  0  0  0  0  0  0  0  0  0
  -28.2406  -11.4613   19.3637 C   0  0  0  0  0  0  0  0  0  0  0  0
  -30.4283  -12.7312   19.2493 C   0  0  0  0  0  0  0  0  0  0  0  0
  -28.4108  -13.8816   20.0710 C   0  0  0  0  0  0  0  0  0  0  0  0
  -25.0611  -34.5428   23.6888 C   0  0  1  0  0  0  0  0  0  0  0  0
  -23.9681  -31.6595   21.4695 C   0  0  1  0  0  0  0  0  0  0  0  0
  -27.4975  -12.8085   19.4562 C   0  0  2  0  0  0  0  0  0  0  0  0
  -19.4153  -25.3947   21.6353 C   0  0  0  0  0  0  0  0  0  0  0  0
  -22.7915  -29.6276   25.4504 C   0  0  0  0  0  0  0  0  0  0  0  0
  -21.5210  -27.4814   25.2316 C   0  0  0  0  0  0  0  0  0  0  0  0
  -20.3901  -29.6526   24.7523 C   0  0  0  0  0  0  0  0  0  0  0  0
  -21.3308  -26.7319   18.6322 C   0  0  0  0  0  0  0  0  0  0  0  0
  -29.6916  -27.6588   18.9579 C   0  0  0  0  0  0  0  0  0  1  0  0
  -22.1008  -28.7590   23.1192 C   0  0  1  0  0  0  0  0  0  0  0  0
  -20.1748  -26.4346   20.8263 C   0  0  2  0  0  0  0  0  0  0  0  0
  -21.7238  -28.8851   24.6223 C   0  0  0  0  0  0  0  0  0  0  0  0
  -26.0956  -11.7774   21.2034 N   0  0  0  0  0  0  0  0  0  0  0  0
  -26.1870  -12.6772   20.2094 N   0  0  0  0  0  0  0  0  0  0  0  0
  -30.2590  -23.9640   18.8437 N   0  0  3  0  0  0  0  0  0  0  0  0
  -23.6128  -30.3155   21.9296 N   0  0  0  0  0  0  0  0  0  0  0  0
  -29.6608  -13.9774   19.3010 N   0  0  0  0  0  0  0  0  0  0  0  0
  -32.8262  -19.5723   18.5414 N   0  0  0  0  0  0  0  0  0  0  0  0
  -24.9587  -14.3301   19.0390 N   0  0  0  0  0  0  0  0  0  0  0  0
  -21.9917  -12.7782   22.0696 N   0  0  0  0  0  0  0  0  0  0  0  0
  -29.3217  -16.2419   18.7357 N   0  0  0  0  0  0  0  0  0  0  0  0
  -24.4686  -33.6984   22.6737 N   0  0  0  0  0  0  0  0  0  0  0  0
  -21.0954  -28.0840   22.3055 N   0  0  0  0  0  0  0  0  0  0  0  0
  -20.5931  -25.8138   19.5376 N   0  3  0  0  0  0  0  0  0  0  0  0
  -22.2880  -14.2572   20.3423 O   0  0  0  0  0  0  0  0  0  0  0  0
  -25.3826  -31.6696   23.3600 O   0  0  0  0  0  0  0  0  0  0  0  0
  -21.4213  -30.9274   22.4387 O   0  0  0  0  0  0  0  0  0  0  0  0
  -22.4821  -26.3897   21.5417 O   0  0  0  0  0  0  0  0  0  0  0  0
  -31.2187  -15.1119   18.0242 O   0  0  0  0  0  0  0  0  0  0  0  0
  -22.9237   -8.7925   25.8486 O   0  0  0  0  0  0  0  0  0  0  0  0
  -28.9923  -27.8504   20.1870 O   0  0  0  0  0  0  0  0  0  1  0  0
  -17.9176   -6.5461   25.3042 F   0  0  0  0  0  0  0  0  0  0  0  0
  -22.5839   -6.0500   25.9244 F   0  0  0  0  0  0  0  0  0  0  0  0
  1  2  1  0  0  0  0
  1  6  2  0  0  0  0
  2  7  2  0  0  0  0
  3  9  2  0  0  0  0
  3 20  1  0  0  0  0
  4 10  2  0  0  0  0
  4 22  1  0  0  0  0
  5 11  1  0  0  0  0
  5 22  2  0  0  0  0
  6 24  1  0  0  0  0
  7 26  1  0  0  0  0
  8 12  2  0  0  0  0
  8 25  1  0  0  0  0
  9 28  1  0  0  0  0
 10 31  1  0  0  0  0
 11 31  2  0  0  0  0
 12 32  1  0  0  0  0
 13 14  2  0  0  0  0
 13 33  1  0  0  0  0
 14 34  1  0  0  0  0
 15 21  1  0  0  0  0
 15 28  2  0  0  0  0
 16 20  1  0  0  0  0
 16 29  2  0  0  0  0
 17 27  1  0  0  0  0
 17 32  2  0  0  0  0
 18 29  1  0  0  0  0
 18 30  2  0  0  0  0
 19 34  2  0  0  0  0
 19 35  1  0  0  0  0
 20 21  2  0  0  0  0
 21 30  1  0  0  0  0
 22 36  1  0  0  0  0
 23 36  1  0  0  0  0
 23 37  2  0  0  0  0
 23 40  1  0  0  0  0
 24 26  2  0  0  0  0
 24 45  1  0  0  0  0
 25 27  2  0  0  0  0
 25 46  1  0  0  0  0
 26 56  1  0  0  0  0
 27 47  1  0  0  0  0
 28 70  1  0  0  0  0
 29 76  1  0  0  0  0
 30 73  1  0  0  0  0
 31 85  1  0  0  0  0
 32 86  1  0  0  0  0
 33 35  2  0  0  0  0
 33 85  1  0  0  0  0
 34 87  1  0  0  0  0
 35 88  1  0  0  0  0
 36 68  2  0  0  0  0
 37 69  1  0  0  0  0
 37 74  1  0  0  0  0
 38 39  2  0  0  0  0
 38 48  1  0  0  0  0
 39 49  1  0  0  0  0
 39 64  1  0  0  0  0
 40 75  1  0  0  0  0
 40 80  2  0  0  0  0
 41 57  1  0  0  0  0
 41 77  1  0  0  0  0
 41 81  2  0  0  0  0
 42 65  1  0  0  0  0
 42 71  1  0  0  0  0
 42 82  2  0  0  0  0
 43 66  1  0  0  0  0
 43 78  1  0  0  0  0
 43 83  2  0  0  0  0
 44 72  1  0  0  0  0
 44 76  1  0  0  0  0
 44 84  2  0  0  0  0
 45 50  1  0  0  0  0
 46 57  1  0  0  0  0
 47 71  1  0  0  0  0
 48 70  1  0  0  0  0
 49 70  1  0  0  0  0
 50 52  1  0  0  0  0
 51 53  1  0  0  0  0
 51 54  1  0  0  0  0
 52 56  1  0  0  0  0
 53 58  1  0  0  0  0
 54 72  1  0  0  0  0
 55 58  1  0  0  0  0
 55 72  1  0  0  0  0
 56 77  1  0  0  0  0
 57 71  1  0  0  0  0
 58 69  1  0  0  0  0
 59 66  1  0  0  0  0
 60 67  1  0  0  0  0
 61 67  1  0  0  0  0
 62 67  1  0  0  0  0
 63 79  1  0  0  0  0
 64 86  1  0  0  0  0
 65 67  1  0  0  0  0
 65 78  1  0  0  0  0
 66 79  1  0  0  0  0
 68 69  1  0  0  0  0
M  CHG  1  79   1
M  ISO  4  44 100  64 101  76 100  86 101
M  END
> <Batch ID>
0152

> <Smiles>
CNC(C)C(=O)NC(C(=O)N1Cc2cc([101O:1][101CH2:1]C3=CCN(c4ccc5cc([100NH:0][100C:0](=O)N6CCCC(n7nc(-c8ccc(Oc9ccc(F)cc9F)cc8)c(C(N)=O)c7N)C6)cc(N)c5c4)C3)ccc2CC1C(=O)NC1CCCc2ccccc21)C(C)(C)C

> <Shape>
0.334

> <Color>
0.112

> <Negative vol penalty>
0.000

$$$$

  -OEChem-04052303273D

 83 92  0     1  0  0  0  0  0999 V2000
  -26.8267  -32.9314   23.6506 C   0  0  0  0  0  0  0  0  0  0  0  0
  -27.1807  -31.6135   23.9215 C   0  0  0  0  0  0  0  0  0  0  0  0
  -23.8796   -9.0192   21.0452 C   0  0  0  0  0  0  0  0  0  0  0  0
  -25.4474   -9.4304   22.8368 C   0  0  0  0  0  0  0  0  0  0  0  0
  -25.9973  -33.2207   22.5679 C   0  0  0  0  0  0  0  0  0  0  0  0
  -26.7045  -30.5840   23.1104 C   0  0  0  0  0  0  0  0  0  0  0  0
  -33.1258  -16.4407   24.0393 C   0  0  0  0  0  0  0  0  0  0  0  0
  -29.6480  -25.4330   21.5909 C   0  0  0  0  0  0  0  0  0  0  0  0
  -32.6877  -17.7623   23.9325 C   0  0  0  0  0  0  0  0  0  0  0  0
  -23.5983   -7.7621   21.5799 C   0  0  0  0  0  0  0  0  0  0  0  0
  -25.1660   -8.1732   23.3716 C   0  0  0  0  0  0  0  0  0  0  0  0
  -29.5866  -24.1343   22.0943 C   0  0  0  0  0  0  0  0  0  0  0  0
  -21.7416   -6.4864   24.1014 C   0  0  0  0  0  0  0  0  0  0  0  0
  -20.4033   -6.1023   24.1851 C   0  0  0  0  0  0  0  0  0  0  0  0
  -30.7590  -17.0642   22.6241 C   0  0  0  0  0  0  0  0  0  0  0  0
  -28.0252  -23.5400   20.3541 C   0  0  0  0  0  0  0  0  0  0  0  0
  -20.8586   -4.2057   22.7592 C   0  0  0  0  0  0  0  0  0  0  0  0
  -24.8043   -9.8534   21.6736 C   0  0  0  0  0  0  0  0  0  0  0  0
  -24.1909  -12.2102   20.9142 C   0  0  0  0  0  0  0  0  0  0  0  0
  -25.5185  -32.1951   21.7374 C   0  0  0  0  0  0  0  0  0  0  0  0
  -32.3666  -15.4466   23.4447 C   0  0  0  0  0  0  0  0  0  0  0  0
  -28.8887  -25.7985   20.4700 C   0  0  0  0  0  0  0  0  0  0  0  0
  -25.8668  -30.8598   22.0164 C   0  0  0  0  0  0  0  0  0  0  0  0
  -31.1968  -15.7544   22.7400 C   0  0  0  0  0  0  0  0  0  0  0  0
  -28.0807  -24.8433   19.8370 C   0  0  0  0  0  0  0  0  0  0  0  0
  -31.5123  -18.0718   23.2303 C   0  0  0  0  0  0  0  0  0  0  0  0
  -24.2414   -7.3390   22.7431 C   0  0  0  0  0  0  0  0  0  0  0  0
  -28.7730  -23.1884   21.4776 C   0  0  0  0  0  0  0  0  0  0  0  0
  -22.6384   -5.7302   23.3466 C   0  0  0  0  0  0  0  0  0  0  0  0
  -19.9618   -4.9619   23.5140 C   0  0  0  0  0  0  0  0  0  0  0  0
  -22.1969   -4.5899   22.6756 C   0  0  0  0  0  0  0  0  0  0  0  0
  -25.0958  -11.1519   21.1214 C   0  0  0  0  0  0  0  0  0  0  0  0
  -24.9554  -13.2146   20.3727 C   0  0  0  0  0  0  0  0  0  0  0  0
  -22.7849  -12.2792   21.1868 C   0  0  0  0  0  0  0  0  0  0  0  0
  -30.8399  -14.3917   20.6863 C   0  0  0  0  0  0  0  0  0  0  0  0
  -26.5646  -27.8966   19.9222 C   0  0  0  0  0  0  0  0  0  0  0  0
  -26.9664  -26.9502   16.8457 C   0  0  0  0  0  0  0  0  0  0  0  0
  -29.9617  -19.9074   22.4819 C   0  0  0  0  0  0  0  0  0  0  0  0
  -28.0202  -24.5418   14.6695 C   0  0  0  0  0  0  0  0  0  0  0  0
  -24.5861  -32.5522   20.6070 C   0  0  0  0  0  0  0  0  0  0  0  0
  -32.6536  -13.9798   23.3934 C   0  0  0  0  0  0  0  0  0  0  0  0
  -28.9865  -27.1964   19.9233 C   0  0  0  0  0  0  0  0  0  0  0  0
  -27.2614  -25.1797   18.6187 C   0  0  0  0  0  0  0  0  0  0  0  0
  -24.4280  -31.4399   19.5734 C   0  0  0  0  0  0  0  0  0  0  0  0
  -31.2882  -13.4146   22.9648 C   0  0  0  0  0  0  0  0  0  0  0  0
  -28.8666  -13.9435   17.7290 C   0  0  0  0  0  0  0  0  0  0  0  0
  -24.1953  -30.0994   20.2632 C   0  0  0  0  0  0  0  0  0  0  0  0
  -27.6061  -13.2474   18.2407 C   0  0  0  0  0  0  0  0  0  0  0  0
  -30.1038  -13.4970   18.5018 C   0  0  0  0  0  0  0  0  0  0  0  0
  -28.7329  -12.9791   20.4953 C   0  0  0  0  0  0  0  0  0  0  0  0
  -30.5733  -14.5193   22.1650 C   0  0  1  0  0  0  0  0  0  0  0  0
  -25.3904  -29.7179   21.1450 C   0  0  1  0  0  0  0  0  0  0  0  0
  -27.7759  -27.5963   19.0855 C   0  0  1  0  0  0  0  0  0  0  0  0
  -27.4555  -13.4248   19.7619 C   0  0  2  0  0  0  0  0  0  0  0  0
  -28.1859  -24.0395   12.2164 C   0  0  0  0  0  0  0  0  0  0  0  0
  -23.9721  -26.3689   16.7648 C   0  0  0  0  0  0  0  0  0  0  0  0
  -24.3613  -25.0166   14.6941 C   0  0  0  0  0  0  0  0  0  0  0  0
  -24.8796  -27.4567   14.7039 C   0  0  0  0  0  0  0  0  0  0  0  0
  -30.9695  -24.3299   14.7939 C   0  0  0  0  0  0  0  0  0  0  0  0
  -29.8777  -21.4165   22.6161 C   0  0  0  0  0  0  0  0  0  1  0  0
  -26.3783  -25.8661   15.9752 C   0  0  1  0  0  0  0  0  0  0  0  0
  -28.8957  -24.6161   13.4315 C   0  0  2  0  0  0  0  0  0  0  0  0
  -24.9117  -26.1709   15.5586 C   0  0  0  0  0  0  0  0  0  0  0  0
  -26.3400  -11.4557   20.7424 N   0  0  0  0  0  0  0  0  0  0  0  0
  -26.2223  -12.7162   20.2914 N   0  0  0  0  0  0  0  0  0  0  0  0
  -29.9125  -13.6603   19.9440 N   0  0  0  0  0  0  0  0  0  0  0  0
  -27.3860  -26.5613   18.1257 N   0  0  0  0  0  0  0  0  0  0  0  0
  -24.6607  -14.4667   19.9629 N   0  0  0  0  0  0  0  0  0  0  0  0
  -22.3699  -12.7381   22.4443 N   0  0  0  0  0  0  0  0  0  0  0  0
  -31.0901  -19.4188   23.1316 N   0  0  0  0  0  0  0  0  0  0  0  0
  -26.4768  -29.2130   20.3330 N   0  0  0  0  0  0  0  0  0  0  0  0
  -27.2960  -25.7007   14.8532 N   0  0  0  0  0  0  0  0  0  0  0  0
  -30.1586  -23.8539   13.6437 N   0  3  0  0  0  0  0  0  0  0  0  0
  -21.9226  -11.9283   20.3461 O   0  0  0  0  0  0  0  0  0  0  0  0
  -31.8416  -14.9290   20.2066 O   0  0  0  0  0  0  0  0  0  0  0  0
  -25.7677  -27.0007   20.1751 O   0  0  0  0  0  0  0  0  0  0  0  0
  -27.0569  -28.0982   16.4035 O   0  0  0  0  0  0  0  0  0  0  0  0
  -29.1131  -19.2687   21.8683 O   0  0  0  0  0  0  0  0  0  0  0  0
  -27.9797  -23.5530   15.3983 O   0  0  0  0  0  0  0  0  0  0  0  0
  -23.9669   -6.1124   23.2653 O   0  0  0  0  0  0  0  0  0  0  0  0
  -28.7108  -21.9202   21.9673 O   0  0  0  0  0  0  0  0  0  1  0  0
  -18.6769   -4.5923   23.5956 F   0  0  0  0  0  0  0  0  0  0  0  0
  -23.0540   -3.8588   21.9499 F   0  0  0  0  0  0  0  0  0  0  0  0
  1  2  1  0  0  0  0
  1  5  2  0  0  0  0
  2  6  2  0  0  0  0
  3 10  2  0  0  0  0
  3 18  1  0  0  0  0
  4 11  1  0  0  0  0
  4 18  2  0  0  0  0
  5 20  1  0  0  0  0
  6 23  1  0  0  0  0
  7  9  2  0  0  0  0
  7 21  1  0  0  0  0
  8 12  2  0  0  0  0
  8 22  1  0  0  0  0
  9 26  1  0  0  0  0
 10 27  1  0  0  0  0
 11 27  2  0  0  0  0
 12 28  1  0  0  0  0
 13 14  2  0  0  0  0
 13 29  1  0  0  0  0
 14 30  1  0  0  0  0
 15 24  1  0  0  0  0
 15 26  2  0  0  0  0
 16 25  1  0  0  0  0
 16 28  2  0  0  0  0
 17 30  2  0  0  0  0
 17 31  1  0  0  0  0
 18 32  1  0  0  0  0
 19 32  1  0  0  0  0
 19 33  2  0  0  0  0
 19 34  1  0  0  0  0
 20 23  2  0  0  0  0
 20 40  1  0  0  0  0
 21 24  2  0  0  0  0
 21 41  1  0  0  0  0
 22 25  2  0  0  0  0
 22 42  1  0  0  0  0
 23 52  1  0  0  0  0
 24 51  1  0  0  0  0
 25 43  1  0  0  0  0
 26 70  1  0  0  0  0
 27 80  1  0  0  0  0
 28 81  1  0  0  0  0
 29 31  2  0  0  0  0
 29 80  1  0  0  0  0
 30 82  1  0  0  0  0
 31 83  1  0  0  0  0
 32 64  2  0  0  0  0
 33 65  1  0  0  0  0
 33 68  1  0  0  0  0
 34 69  1  0  0  0  0
 34 74  2  0  0  0  0
 35 51  1  0  0  0  0
 35 66  1  0  0  0  0
 35 75  2  0  0  0  0
 36 53  1  0  0  0  0
 36 71  1  0  0  0  0
 36 76  2  0  0  0  0
 37 61  1  0  0  0  0
 37 67  1  0  0  0  0
 37 77  2  0  0  0  0
 38 60  1  0  0  0  0
 38 70  1  0  0  0  0
 38 78  2  0  0  0  0
 39 62  1  0  0  0  0
 39 72  1  0  0  0  0
 39 79  2  0  0  0  0
 40 44  1  0  0  0  0
 41 45  1  0  0  0  0
 42 53  1  0  0  0  0
 43 67  1  0  0  0  0
 44 47  1  0  0  0  0
 45 51  1  0  0  0  0
 46 48  1  0  0  0  0
 46 49  1  0  0  0  0
 47 52  1  0  0  0  0
 48 54  1  0  0  0  0
 49 66  1  0  0  0  0
 50 54  1  0  0  0  0
 50 66  1  0  0  0  0
 52 71  1  0  0  0  0
 53 67  1  0  0  0  0
 54 65  1  0  0  0  0
 55 62  1  0  0  0  0
 56 63  1  0  0  0  0
 57 63  1  0  0  0  0
 58 63  1  0  0  0  0
 59 73  1  0  0  0  0
 60 81  1  0  0  0  0
 61 63  1  0  0  0  0
 61 72  1  0  0  0  0
 62 73  1  0  0  0  0
 64 65  1  0  0  0  0
M  CHG  1  73   1
M  ISO  4  35 100  51 100  60 101  81 101
M  END
> <Batch ID>
0152

> <Smiles>
CNC(C)C(=O)NC(C(=O)N1Cc2cc([101O:1][101CH2:1]C(=O)Nc3ccc4c(c3)[100CH:0]([100C:0](=O)N3CCCC(n5nc(-c6ccc(Oc7ccc(F)cc7F)cc6)c(C(N)=O)c5N)C3)CC4)ccc2CC1C(=O)NC1CCCc2ccccc21)C(C)(C)C

> <Shape>
0.277

> <Color>
0.108

> <Negative vol penalty>
0.000

$$$$

  -OEChem-04052303273D

 79 87  0     1  0  0  0  0  0999 V2000
  -29.3560  -34.0187   24.3674 C   0  0  0  0  0  0  0  0  0  0  0  0
  -29.2649  -32.6989   23.9371 C   0  0  0  0  0  0  0  0  0  0  0  0
  -26.3163  -13.5252   19.3123 C   0  0  0  0  0  0  0  0  0  0  0  0
  -26.4069  -12.8499   21.6302 C   0  0  0  0  0  0  0  0  0  0  0  0
  -28.2343  -34.6581   24.8937 C   0  0  0  0  0  0  0  0  0  0  0  0
  -28.0522  -32.0173   24.0338 C   0  0  0  0  0  0  0  0  0  0  0  0
  -26.9528  -29.4035   19.8381 C   0  0  0  0  0  0  0  0  0  0  0  0
  -25.0640  -12.9242   19.1861 C   0  0  0  0  0  0  0  0  0  0  0  0
  -25.1544  -12.2489   21.5040 C   0  0  0  0  0  0  0  0  0  0  0  0
  -27.6123  -28.1891   19.6533 C   0  0  0  0  0  0  0  0  0  0  0  0
  -23.8841   -9.3772   20.2510 C   0  0  0  0  0  0  0  0  0  0  0  0
  -23.7186   -8.1037   20.7955 C   0  0  0  0  0  0  0  0  0  0  0  0
  -25.6617  -27.0152   20.4510 C   0  0  0  0  0  0  0  0  0  0  0  0
  -21.9764   -8.9482   22.2407 C   0  0  0  0  0  0  0  0  0  0  0  0
  -26.9878  -13.4880   20.5343 C   0  0  0  0  0  0  0  0  0  0  0  0
  -29.4504  -13.7969   19.9447 C   0  0  0  0  0  0  0  0  0  0  0  0
  -27.0049  -33.9871   24.9880 C   0  0  0  0  0  0  0  0  0  0  0  0
  -25.6445  -29.4334   20.3419 C   0  0  0  0  0  0  0  0  0  0  0  0
  -26.9134  -32.6479   24.5631 C   0  0  0  0  0  0  0  0  0  0  0  0
  -24.9869  -28.2311   20.6389 C   0  0  0  0  0  0  0  0  0  0  0  0
  -24.4830  -12.2861   20.2819 C   0  0  0  0  0  0  0  0  0  0  0  0
  -26.9678  -26.9949   19.9625 C   0  0  0  0  0  0  0  0  0  0  0  0
  -23.0958  -10.4362   20.7014 C   0  0  0  0  0  0  0  0  0  0  0  0
  -22.7647   -7.8892   21.7903 C   0  0  0  0  0  0  0  0  0  0  0  0
  -22.1419  -10.2217   21.6962 C   0  0  0  0  0  0  0  0  0  0  0  0
  -28.2818  -14.1082   20.6652 C   0  0  0  0  0  0  0  0  0  0  0  0
  -30.3974  -14.6620   20.4360 C   0  0  0  0  0  0  0  0  0  0  0  0
  -29.6612  -12.8137   18.9226 C   0  0  0  0  0  0  0  0  0  0  0  0
  -24.2679  -30.6442   22.9386 C   0  0  0  0  0  0  0  0  0  0  0  0
  -21.5429  -29.6707   21.4726 C   0  0  0  0  0  0  0  0  0  0  0  0
  -20.0496  -27.5812   19.2251 C   0  0  0  0  0  0  0  0  0  0  0  0
  -30.0429  -20.0248   23.0751 C   0  0  0  0  0  0  0  0  0  0  0  0
  -25.8319  -34.7046   25.6076 C   0  0  0  0  0  0  0  0  0  0  0  0
  -24.9373  -30.7502   20.5103 C   0  0  0  0  0  0  0  0  0  0  0  0
  -23.5752  -28.2079   21.1633 C   0  0  0  0  0  0  0  0  0  0  0  0
  -24.4902  -34.0320   25.3291 C   0  0  0  0  0  0  0  0  0  0  0  0
  -31.5606  -17.0862   24.3934 C   0  0  0  0  0  0  0  0  0  0  0  0
  -24.5861  -32.5290   25.5707 C   0  0  0  0  0  0  0  0  0  0  0  0
  -28.9267  -23.2086   19.5097 C   0  0  0  0  0  0  0  0  0  0  0  0
  -30.9978  -15.9616   23.5224 C   0  0  0  0  0  0  0  0  0  0  0  0
  -29.5859  -21.8734   19.8671 C   0  0  0  0  0  0  0  0  0  0  0  0
  -30.5208  -18.1745   24.6513 C   0  0  0  0  0  0  0  0  0  0  0  0
  -29.3331  -17.6094   22.5671 C   0  0  0  0  0  0  0  0  0  0  0  0
  -25.6093  -31.8830   24.6287 C   0  0  1  0  0  0  0  0  0  0  0  0
  -23.7905  -30.6884   21.5145 C   0  0  1  0  0  0  0  0  0  0  0  0
  -28.4548  -23.8213   20.8372 C   0  0  2  0  0  0  0  0  0  0  0  0
  -30.3620  -16.5157   22.2332 C   0  0  2  0  0  0  0  0  0  0  0  0
  -29.5058  -21.7673   21.3916 C   0  0  1  0  0  0  0  0  0  0  0  0
  -28.2646  -22.6052   21.7818 C   0  0  0  0  0  0  0  0  0  0  0  0
  -28.3199  -23.0246   23.2572 C   0  0  0  0  0  0  0  0  0  0  0  0
  -26.9419  -21.8540   21.5305 C   0  0  0  0  0  0  0  0  0  0  0  0
  -17.8038  -26.9946   18.2714 C   0  0  0  0  0  0  0  0  0  0  0  0
  -20.8506  -28.1654   24.0348 C   0  0  0  0  0  0  0  0  0  0  0  0
  -19.1488  -26.8712   22.7320 C   0  0  0  0  0  0  0  0  0  0  0  0
  -18.9224  -29.3445   22.9642 C   0  0  0  0  0  0  0  0  0  0  0  0
  -20.8893  -28.3247   16.4864 C   0  0  0  0  0  0  0  0  0  0  0  0
  -27.2519  -24.7384   20.6577 C   0  0  0  0  0  0  0  0  0  1  0  0
  -20.7273  -28.4003   21.4666 C   0  0  1  0  0  0  0  0  0  0  0  0
  -19.0533  -27.8465   18.1109 C   0  0  2  0  0  0  0  0  0  0  0  0
  -19.9396  -28.1956   22.7914 C   0  0  0  0  0  0  0  0  0  0  0  0
  -28.4671  -15.0939   21.5472 N   0  0  0  0  0  0  0  0  0  0  0  0
  -29.7632  -15.4095   21.3842 N   0  0  0  0  0  0  0  0  0  0  0  0
  -22.9283  -29.5215   21.3168 N   0  0  0  0  0  0  0  0  0  0  0  0
  -29.9578  -18.6582   23.3884 N   0  0  0  0  0  0  0  0  0  0  0  0
  -31.7024  -14.8485   20.1451 N   0  0  0  0  0  0  0  0  0  0  0  0
  -30.0688  -11.5286   19.3055 N   0  0  0  0  0  0  0  0  0  0  0  0
  -25.0476  -31.7247   23.3044 N   0  0  0  0  0  0  0  0  0  0  0  0
  -19.8874  -28.4600   20.2752 N   0  0  0  0  0  0  0  0  0  0  0  0
  -29.4901  -20.3982   21.8562 N   0  0  0  0  0  0  0  0  0  0  0  0
  -19.6639  -27.5403   16.7864 N   0  3  0  0  0  0  0  0  0  0  0  0
  -29.5088  -13.0720   17.7045 O   0  0  0  0  0  0  0  0  0  0  0  0
  -23.9509  -29.7003   23.6530 O   0  0  0  0  0  0  0  0  0  0  0  0
  -20.9711  -30.7558   21.6033 O   0  0  0  0  0  0  0  0  0  0  0  0
  -20.8854  -26.6817   19.1712 O   0  0  0  0  0  0  0  0  0  0  0  0
  -30.5772  -20.8502   23.8237 O   0  0  0  0  0  0  0  0  0  0  0  0
  -23.2608  -11.6997   20.1592 O   0  0  0  0  0  0  0  0  0  0  0  0
  -27.6095  -25.8082   19.7837 O   0  0  0  0  0  0  0  0  0  1  0  0
  -22.6048   -6.6659   22.3121 F   0  0  0  0  0  0  0  0  0  0  0  0
  -21.3809  -11.2349   22.1321 F   0  0  0  0  0  0  0  0  0  0  0  0
  1  2  1  0  0  0  0
  1  5  2  0  0  0  0
  2  6  2  0  0  0  0
  3  8  2  0  0  0  0
  3 15  1  0  0  0  0
  4  9  1  0  0  0  0
  4 15  2  0  0  0  0
  5 17  1  0  0  0  0
  6 19  1  0  0  0  0
  7 10  2  0  0  0  0
  7 18  1  0  0  0  0
  8 21  1  0  0  0  0
  9 21  2  0  0  0  0
 10 22  1  0  0  0  0
 11 12  2  0  0  0  0
 11 23  1  0  0  0  0
 12 24  1  0  0  0  0
 13 20  1  0  0  0  0
 13 22  2  0  0  0  0
 14 24  2  0  0  0  0
 14 25  1  0  0  0  0
 15 26  1  0  0  0  0
 16 26  1  0  0  0  0
 16 27  2  0  0  0  0
 16 28  1  0  0  0  0
 17 19  2  0  0  0  0
 17 33  1  0  0  0  0
 18 20  2  0  0  0  0
 18 34  1  0  0  0  0
 19 44  1  0  0  0  0
 20 35  1  0  0  0  0
 21 76  1  0  0  0  0
 22 77  1  0  0  0  0
 23 25  2  0  0  0  0
 23 76  1  0  0  0  0
 24 78  1  0  0  0  0
 25 79  1  0  0  0  0
 26 61  2  0  0  0  0
 27 62  1  0  0  0  0
 27 65  1  0  0  0  0
 28 66  1  0  0  0  0
 28 71  2  0  0  0  0
 29 45  1  0  0  0  0
 29 67  1  0  0  0  0
 29 72  2  0  0  0  0
 30 58  1  0  0  0  0
 30 63  1  0  0  0  0
 30 73  2  0  0  0  0
 31 59  1  0  0  0  0
 31 68  1  0  0  0  0
 31 74  2  0  0  0  0
 32 64  1  0  0  0  0
 32 69  1  0  0  0  0
 32 75  2  0  0  0  0
 33 36  1  0  0  0  0
 34 45  1  0  0  0  0
 35 63  1  0  0  0  0
 36 38  1  0  0  0  0
 37 40  1  0  0  0  0
 37 42  1  0  0  0  0
 38 44  1  0  0  0  0
 39 41  1  0  0  0  0
 39 46  1  0  0  0  0
 40 47  1  0  0  0  0
 41 48  1  0  0  0  0
 42 64  1  0  0  0  0
 43 47  1  0  0  0  0
 43 64  1  0  0  0  0
 44 67  1  0  0  0  0
 45 63  1  0  0  0  0
 46 49  1  0  0  0  0
 46 57  1  0  0  0  0
 47 62  1  0  0  0  0
 48 49  1  0  0  0  0
 48 69  1  0  0  0  0
 49 50  1  0  0  0  0
 49 51  1  0  0  0  0
 52 59  1  0  0  0  0
 53 60  1  0  0  0  0
 54 60  1  0  0  0  0
 55 60  1  0  0  0  0
 56 70  1  0  0  0  0
 57 77  1  0  0  0  0
 58 60  1  0  0  0  0
 58 68  1  0  0  0  0
 59 70  1  0  0  0  0
 61 62  1  0  0  0  0
M  CHG  1  70   1
M  ISO  4  32 100  57 101  69 100  77 101
M  END
> <Batch ID>
0152

> <Smiles>
CNC(C)C(=O)NC(C(=O)N1Cc2cc([101O:1][101CH2:1]C3CCC([100NH:0][100C:0](=O)N4CCCC(n5nc(-c6ccc(Oc7ccc(F)cc7F)cc6)c(C(N)=O)c5N)C4)C3(C)C)ccc2CC1C(=O)NC1CCCc2ccccc21)C(C)(C)C

> <Shape>
0.336

> <Color>
0.092

> <Negative vol penalty>
0.000

$$$$

  -OEChem-04052303273D

 83 91  0     1  0  0  0  0  0999 V2000
  -18.2555  -25.6683   19.7623 C   0  0  0  0  0  0  0  0  0  0  0  0
  -19.1885  -24.7843   20.2948 C   0  0  0  0  0  0  0  0  0  0  0  0
  -23.1375   -9.8025   19.8850 C   0  0  0  0  0  0  0  0  0  0  0  0
  -23.9657   -9.7105   22.1528 C   0  0  0  0  0  0  0  0  0  0  0  0
  -18.1669  -26.9685   20.2578 C   0  0  0  0  0  0  0  0  0  0  0  0
  -20.0342  -25.2004   21.3224 C   0  0  0  0  0  0  0  0  0  0  0  0
  -22.1157  -21.8095   25.9781 C   0  0  0  0  0  0  0  0  0  0  0  0
  -22.4544   -8.6030   20.0858 C   0  0  0  0  0  0  0  0  0  0  0  0
  -23.2826   -8.5111   22.3536 C   0  0  0  0  0  0  0  0  0  0  0  0
  -23.3224  -21.1432   26.1871 C   0  0  0  0  0  0  0  0  0  0  0  0
  -20.1136   -7.5287   22.9962 C   0  0  0  0  0  0  0  0  0  0  0  0
  -19.3952   -7.3847   24.1831 C   0  0  0  0  0  0  0  0  0  0  0  0
  -24.1443  -23.0359   27.4365 C   0  0  0  0  0  0  0  0  0  0  0  0
  -31.8860  -16.7938   22.6441 C   0  0  0  0  0  0  0  0  0  0  0  0
  -31.6460  -18.4351   24.4005 C   0  0  0  0  0  0  0  0  0  0  0  0
  -29.6844  -17.5036   23.3415 C   0  0  0  0  0  0  0  0  0  0  0  0
  -20.7447   -5.4678   24.7673 C   0  0  0  0  0  0  0  0  0  0  0  0
  -23.8932  -10.3562   20.9185 C   0  0  0  0  0  0  0  0  0  0  0  0
  -24.1168  -12.8973   20.9408 C   0  0  0  0  0  0  0  0  0  0  0  0
  -19.0053  -27.3978   21.2986 C   0  0  0  0  0  0  0  0  0  0  0  0
  -21.9180  -23.1007   26.4883 C   0  0  0  0  0  0  0  0  0  0  0  0
  -19.9576  -26.5080   21.8314 C   0  0  0  0  0  0  0  0  0  0  0  0
  -22.9332  -23.7155   27.2348 C   0  0  0  0  0  0  0  0  0  0  0  0
  -32.4598  -17.6514   23.5825 C   0  0  0  0  0  0  0  0  0  0  0  0
  -30.4983  -16.7199   22.5235 C   0  0  0  0  0  0  0  0  0  0  0  0
  -30.2583  -18.3612   24.2800 C   0  0  0  0  0  0  0  0  0  0  0  0
  -22.5269   -7.9573   21.3201 C   0  0  0  0  0  0  0  0  0  0  0  0
  -24.3379  -21.7575   26.9139 C   0  0  0  0  0  0  0  0  0  0  0  0
  -21.1475   -6.6422   22.6948 C   0  0  0  0  0  0  0  0  0  0  0  0
  -19.7107   -6.3542   25.0687 C   0  0  0  0  0  0  0  0  0  0  0  0
  -21.4631   -5.6118   23.5804 C   0  0  0  0  0  0  0  0  0  0  0  0
  -24.5995  -11.5949   20.7115 C   0  0  0  0  0  0  0  0  0  0  0  0
  -25.1624  -13.7172   20.5931 C   0  0  0  0  0  0  0  0  0  0  0  0
  -22.8376  -13.3275   21.4249 C   0  0  0  0  0  0  0  0  0  0  0  0
  -21.3468  -25.9544   25.2103 C   0  0  0  0  0  0  0  0  0  0  0  0
  -27.4473  -20.0923   26.0644 C   0  0  0  0  0  0  0  0  0  0  0  0
  -21.0160  -26.8448   28.3119 C   0  0  0  0  0  0  0  0  0  0  0  0
  -21.7498  -26.2491   31.5912 C   0  0  0  0  0  0  0  0  0  0  0  0
  -30.5785  -15.0060   20.6789 C   0  0  0  0  0  0  0  0  0  0  0  0
  -18.9047  -28.8272   21.7691 C   0  0  0  0  0  0  0  0  0  0  0  0
  -20.6007  -23.7953   26.2768 C   0  0  0  0  0  0  0  0  0  0  0  0
  -22.7635  -25.0924   27.8210 C   0  0  0  0  0  0  0  0  0  0  0  0
  -19.5824  -29.0747   23.1144 C   0  0  0  0  0  0  0  0  0  0  0  0
  -29.5028  -12.6857   18.2018 C   0  0  0  0  0  0  0  0  0  0  0  0
  -20.9669  -28.4351   23.1404 C   0  0  0  0  0  0  0  0  0  0  0  0
  -28.0916  -12.3022   18.6527 C   0  0  0  0  0  0  0  0  0  0  0  0
  -30.4428  -12.8863   19.3892 C   0  0  0  0  0  0  0  0  0  0  0  0
  -28.5479  -13.4382   20.8637 C   0  0  0  0  0  0  0  0  0  0  0  0
  -20.8756  -26.9146   22.9637 C   0  0  1  0  0  0  0  0  0  0  0  0
  -20.6981  -25.3125   26.4039 C   0  0  1  0  0  0  0  0  0  0  0  0
  -27.5486  -13.2889   19.7050 C   0  0  2  0  0  0  0  0  0  0  0  0
  -21.3687  -27.1707   33.8939 C   0  0  0  0  0  0  0  0  0  0  0  0
  -23.0657  -29.0392   27.7702 C   0  0  0  0  0  0  0  0  0  0  0  0
  -23.3476  -29.2903   30.2452 C   0  0  0  0  0  0  0  0  0  0  0  0
  -21.1328  -29.7450   29.1914 C   0  0  0  0  0  0  0  0  0  0  0  0
  -20.3668  -23.7861   32.4741 C   0  0  0  0  0  0  0  0  0  0  0  0
  -28.0094  -19.1297   25.0399 C   0  0  0  0  0  0  0  0  0  0  0  0
  -25.9348  -20.1876   26.1130 C   0  0  0  0  0  0  0  0  0  1  0  0
  -21.9486  -27.3596   29.3817 C   0  0  1  0  0  0  0  0  0  0  0  0
  -20.8712  -26.2066   32.8283 C   0  0  2  0  0  0  0  0  0  0  0  0
  -22.3779  -28.8333   29.1346 C   0  0  0  0  0  0  0  0  0  0  0  0
  -25.8541  -11.5832   20.2534 N   0  0  0  0  0  0  0  0  0  0  0  0
  -26.1685  -12.8884   20.1919 N   0  0  0  0  0  0  0  0  0  0  0  0
  -21.4598  -25.7333   27.5816 N   0  0  0  0  0  0  0  0  0  0  0  0
  -29.8647  -13.8365   20.3420 N   0  0  0  0  0  0  0  0  0  0  0  0
  -33.8632  -17.7267   23.7038 N   0  0  0  0  0  0  0  0  0  0  0  0
  -25.3101  -15.0591   20.5943 N   0  0  0  0  0  0  0  0  0  0  0  0
  -21.8785  -12.3536   21.7349 N   0  0  0  0  0  0  0  0  0  0  0  0
  -29.9152  -15.8501   21.5689 N   0  0  0  0  0  0  0  0  0  0  0  0
  -29.4488  -19.1405   25.0941 N   0  0  0  0  0  0  0  0  0  0  0  0
  -20.4637  -26.2859   24.2004 N   0  0  0  0  0  0  0  0  0  0  0  0
  -21.2703  -27.1402   30.6545 N   0  0  0  0  0  0  0  0  0  0  0  0
  -20.8572  -24.8332   33.4068 N   0  3  0  0  0  0  0  0  0  0  0  0
  -22.5478  -14.5402   21.5625 O   0  0  0  0  0  0  0  0  0  0  0  0
  -22.5585  -26.1370   25.2064 O   0  0  0  0  0  0  0  0  0  0  0  0
  -28.1610  -20.7586   26.8131 O   0  0  0  0  0  0  0  0  0  0  0  0
  -19.9306  -27.4038   28.1357 O   0  0  0  0  0  0  0  0  0  0  0  0
  -22.7625  -25.5634   31.4695 O   0  0  0  0  0  0  0  0  0  0  0  0
  -31.6841  -15.2547   20.1912 O   0  0  0  0  0  0  0  0  0  0  0  0
  -21.8603   -6.7870   21.5164 O   0  0  0  0  0  0  0  0  0  0  0  0
  -25.5169  -21.1096   27.1189 O   0  0  0  0  0  0  0  0  0  1  0  0
  -19.0217   -6.2170   26.2091 F   0  0  0  0  0  0  0  0  0  0  0  0
  -22.4561   -4.7577   23.2968 F   0  0  0  0  0  0  0  0  0  0  0  0
  1  2  1  0  0  0  0
  1  5  2  0  0  0  0
  2  6  2  0  0  0  0
  3  8  2  0  0  0  0
  3 18  1  0  0  0  0
  4  9  1  0  0  0  0
  4 18  2  0  0  0  0
  5 20  1  0  0  0  0
  6 22  1  0  0  0  0
  7 10  2  0  0  0  0
  7 21  1  0  0  0  0
  8 27  1  0  0  0  0
  9 27  2  0  0  0  0
 10 28  1  0  0  0  0
 11 12  2  0  0  0  0
 11 29  1  0  0  0  0
 12 30  1  0  0  0  0
 13 23  1  0  0  0  0
 13 28  2  0  0  0  0
 14 24  1  0  0  0  0
 14 25  2  0  0  0  0
 15 24  2  0  0  0  0
 15 26  1  0  0  0  0
 16 25  1  0  0  0  0
 16 26  2  0  0  0  0
 17 30  2  0  0  0  0
 17 31  1  0  0  0  0
 18 32  1  0  0  0  0
 19 32  1  0  0  0  0
 19 33  2  0  0  0  0
 19 34  1  0  0  0  0
 20 22  2  0  0  0  0
 20 40  1  0  0  0  0
 21 23  2  0  0  0  0
 21 41  1  0  0  0  0
 22 49  1  0  0  0  0
 23 42  1  0  0  0  0
 24 66  1  0  0  0  0
 25 69  1  0  0  0  0
 26 70  1  0  0  0  0
 27 80  1  0  0  0  0
 28 81  1  0  0  0  0
 29 31  2  0  0  0  0
 29 80  1  0  0  0  0
 30 82  1  0  0  0  0
 31 83  1  0  0  0  0
 32 62  2  0  0  0  0
 33 63  1  0  0  0  0
 33 67  1  0  0  0  0
 34 68  1  0  0  0  0
 34 74  2  0  0  0  0
 35 50  1  0  0  0  0
 35 71  1  0  0  0  0
 35 75  2  0  0  0  0
 36 57  1  0  0  0  0
 36 58  1  0  0  0  0
 36 76  2  0  0  0  0
 37 59  1  0  0  0  0
 37 64  1  0  0  0  0
 37 77  2  0  0  0  0
 38 60  1  0  0  0  0
 38 72  1  0  0  0  0
 38 78  2  0  0  0  0
 39 65  1  0  0  0  0
 39 69  1  0  0  0  0
 39 79  2  0  0  0  0
 40 43  1  0  0  0  0
 41 50  1  0  0  0  0
 42 64  1  0  0  0  0
 43 45  1  0  0  0  0
 44 46  1  0  0  0  0
 44 47  1  0  0  0  0
 45 49  1  0  0  0  0
 46 51  1  0  0  0  0
 47 65  1  0  0  0  0
 48 51  1  0  0  0  0
 48 65  1  0  0  0  0
 49 71  1  0  0  0  0
 50 64  1  0  0  0  0
 51 63  1  0  0  0  0
 52 60  1  0  0  0  0
 53 61  1  0  0  0  0
 54 61  1  0  0  0  0
 55 61  1  0  0  0  0
 56 73  1  0  0  0  0
 57 70  1  0  0  0  0
 58 81  1  0  0  0  0
 59 61  1  0  0  0  0
 59 72  1  0  0  0  0
 60 73  1  0  0  0  0
 62 63  1  0  0  0  0
M  CHG  1  73   1
M  ISO  4  39 100  58 101  69 100  81 101
M  END
> <Batch ID>
0152

> <Smiles>
CNC(C)C(=O)NC(C(=O)N1Cc2cc([101O:1][101CH2:1]C(=O)CNc3cc(N)cc([100NH:0][100C:0](=O)N4CCCC(n5nc(-c6ccc(Oc7ccc(F)cc7F)cc6)c(C(N)=O)c5N)C4)c3)ccc2CC1C(=O)NC1CCCc2ccccc21)C(C)(C)C

> <Shape>
0.225

> <Color>
0.188

> <Negative vol penalty>
0.000

$$$$

  -OEChem-04052303273D

 92101  0     1  0  0  0  0  0999 V2000
  -27.1909  -37.8802   23.1458 C   0  0  0  0  0  0  0  0  0  0  0  0
  -27.7337  -36.9527   22.2623 C   0  0  0  0  0  0  0  0  0  0  0  0
  -23.9763   -9.0101   21.1376 C   0  0  0  0  0  0  0  0  0  0  0  0
  -23.0215  -11.1929   20.7366 C   0  0  0  0  0  0  0  0  0  0  0  0
  -26.4894  -37.4439   24.2689 C   0  0  0  0  0  0  0  0  0  0  0  0
  -27.5761  -35.5881   22.5022 C   0  0  0  0  0  0  0  0  0  0  0  0
  -26.8104  -29.3632   19.0407 C   0  0  0  0  0  0  0  0  0  0  0  0
  -22.9315   -8.7139   22.0130 C   0  0  0  0  0  0  0  0  0  0  0  0
  -21.9766  -10.8967   21.6120 C   0  0  0  0  0  0  0  0  0  0  0  0
  -27.3648  -28.0851   18.9876 C   0  0  0  0  0  0  0  0  0  0  0  0
  -19.6964   -7.7548   21.7962 C   0  0  0  0  0  0  0  0  0  0  0  0
  -19.0902   -6.5038   21.6823 C   0  0  0  0  0  0  0  0  0  0  0  0
  -26.0657  -27.4480   20.9178 C   0  0  0  0  0  0  0  0  0  0  0  0
  -27.9281  -17.9567   19.2431 C   0  0  0  0  0  0  0  0  0  0  0  0
  -19.7134   -5.9943   23.9602 C   0  0  0  0  0  0  0  0  0  0  0  0
  -30.1535  -17.9082   19.5823 C   0  0  0  0  0  0  0  0  0  0  0  0
  -24.0213  -10.2497   20.4995 C   0  0  0  0  0  0  0  0  0  0  0  0
  -25.1412  -10.3196   18.2085 C   0  0  0  0  0  0  0  0  0  0  0  0
  -26.3149  -36.0734   24.5175 C   0  0  0  0  0  0  0  0  0  0  0  0
  -25.8862  -29.6972   20.0410 C   0  0  0  0  0  0  0  0  0  0  0  0
  -26.8728  -35.1330   23.6304 C   0  0  0  0  0  0  0  0  0  0  0  0
  -25.4991  -28.7303   20.9799 C   0  0  0  0  0  0  0  0  0  0  0  0
  -29.0277  -17.1156   19.5439 C   0  0  0  0  0  0  0  0  0  0  0  0
  -21.9317   -9.6571   22.2501 C   0  0  0  0  0  0  0  0  0  0  0  0
  -26.9946  -27.1281   19.9280 C   0  0  0  0  0  0  0  0  0  0  0  0
  -20.3112   -8.1256   22.9922 C   0  0  0  0  0  0  0  0  0  0  0  0
  -19.0987   -5.6235   22.7642 C   0  0  0  0  0  0  0  0  0  0  0  0
  -20.3196   -7.2453   24.0742 C   0  0  0  0  0  0  0  0  0  0  0  0
  -25.1007  -10.5565   19.5956 C   0  0  0  0  0  0  0  0  0  0  0  0
  -28.4155  -19.2378   19.1066 C   0  0  0  0  0  0  0  0  0  0  0  0
  -26.3718  -10.7868   17.8162 C   0  0  0  0  0  0  0  0  0  0  0  0
  -24.1547   -9.7301   17.3512 C   0  0  0  0  0  0  0  0  0  0  0  0
  -27.6256  -20.4416   18.7918 C   0  0  0  0  0  0  0  0  0  0  0  0
  -25.8185  -31.8052   22.4192 C   0  0  0  0  0  0  0  0  0  0  0  0
  -22.7735  -30.7396   22.7580 C   0  0  0  0  0  0  0  0  0  0  0  0
  -20.5069  -28.2378   22.2577 C   0  0  0  0  0  0  0  0  0  0  0  0
  -30.0873  -14.8904   20.0658 C   0  0  0  0  0  0  0  0  0  0  0  0
  -25.5896  -35.6493   25.7700 C   0  0  0  0  0  0  0  0  0  0  0  0
  -25.2772  -31.0723   20.0685 C   0  0  0  0  0  0  0  0  0  0  0  0
  -24.4955  -29.0324   22.0616 C   0  0  0  0  0  0  0  0  0  0  0  0
  -25.1459  -34.1888   25.7520 C   0  0  0  0  0  0  0  0  0  0  0  0
  -30.8197  -11.4593   19.4590 C   0  0  0  0  0  0  0  0  0  0  0  0
  -26.2834  -33.2911   25.2754 C   0  0  0  0  0  0  0  0  0  0  0  0
  -29.4401  -10.8180   19.2929 C   0  0  0  0  0  0  0  0  0  0  0  0
  -27.3913  -22.5749   21.7026 C   0  0  0  0  0  0  0  0  0  0  0  0
  -30.8106  -12.5571   20.5213 C   0  0  0  0  0  0  0  0  0  0  0  0
  -27.7671  -21.2286   21.0973 C   0  0  0  0  0  0  0  0  0  0  0  0
  -28.4036  -12.9489   20.1716 C   0  0  0  0  0  0  0  0  0  0  0  0
  -26.7019  -33.6445   23.8431 C   0  0  1  0  0  0  0  0  0  0  0  0
  -24.7327  -31.4574   21.4405 C   0  0  1  0  0  0  0  0  0  0  0  0
  -28.3478  -11.8816   19.0664 C   0  0  2  0  0  0  0  0  0  0  0  0
  -27.8171  -23.6075   20.6368 C   0  0  2  0  0  0  0  0  0  0  0  0
  -27.4076  -22.8915   19.2944 C   0  0  0  0  0  0  0  0  0  0  0  0
  -29.3393  -23.8490   20.7532 C   0  0  0  0  0  0  0  0  0  0  0  0
  -28.2776  -23.2837   18.0960 C   0  0  0  0  0  0  0  0  0  0  0  0
  -25.9235  -23.0580   18.9255 C   0  0  0  0  0  0  0  0  0  0  0  0
  -18.1054  -27.6425   22.6770 C   0  0  0  0  0  0  0  0  0  0  0  0
  -32.4056  -19.2461   17.8313 C   0  0  0  0  0  0  0  0  0  0  0  0
  -30.6086  -20.5724   16.7164 C   0  0  0  0  0  0  0  0  0  0  0  0
  -32.4045  -21.7351   18.0206 C   0  0  0  0  0  0  0  0  0  0  0  0
  -23.4224  -30.1969   25.6896 C   0  0  0  0  0  0  0  0  0  0  0  0
  -21.3730  -28.7633   25.8056 C   0  0  0  0  0  0  0  0  0  0  0  0
  -21.1646  -31.1947   25.2884 C   0  0  0  0  0  0  0  0  0  0  0  0
  -19.9421  -27.9902   19.3631 C   0  0  0  0  0  0  0  0  0  0  0  0
  -27.1103  -24.9491   20.8737 C   0  0  0  0  0  0  0  0  0  1  0  0
  -30.6652  -20.3299   19.2615 C   0  0  0  0  0  0  0  0  0  0  0  0
  -22.1091  -29.6321   23.5396 C   0  0  1  0  0  0  0  0  0  0  0  0
  -19.0958  -28.2540   21.6983 C   0  0  2  0  0  0  0  0  0  0  0  0
  -31.5040  -20.4899   17.9640 C   0  0  0  0  0  0  0  0  0  0  0  0
  -22.0377  -29.9413   25.0617 C   0  0  0  0  0  0  0  0  0  0  0  0
  -26.2169  -11.1295   20.0537 N   0  0  0  0  0  0  0  0  0  0  0  0
  -29.7694  -19.1963   19.3147 N   0  0  0  0  0  0  0  0  0  0  0  0
  -26.9704  -11.2565   18.9482 N   0  0  0  0  0  0  0  0  0  0  0  0
  -27.6106  -21.4521   19.6475 N   0  0  0  0  0  0  0  0  0  0  0  0
  -23.9331  -30.3929   22.0504 N   0  0  0  0  0  0  0  0  0  0  0  0
  -29.7534  -13.5306   20.2392 N   0  0  0  0  0  0  0  0  0  0  0  0
  -26.9895  -10.8375   16.6170 N   0  0  0  0  0  0  0  0  0  0  0  0
  -22.9456   -9.3045   17.9180 N   0  0  0  0  0  0  0  0  0  0  0  0
  -29.0038  -15.7169   19.7697 N   0  0  0  0  0  0  0  0  0  0  0  0
  -25.7557  -33.1022   22.8917 N   0  0  0  0  0  0  0  0  0  0  0  0
  -20.8101  -29.4126   22.9129 N   0  0  0  0  0  0  0  0  0  0  0  0
  -26.9417  -20.4948   17.6525 N   0  3  0  0  0  0  0  0  0  0  0  0
  -19.0347  -27.4830   20.4244 N   0  3  0  0  0  0  0  0  0  0  0  0
  -24.3465   -9.5701   16.1220 O   0  0  0  0  0  0  0  0  0  0  0  0
  -26.6507  -30.9590   22.7242 O   0  0  0  0  0  0  0  0  0  0  0  0
  -22.2776  -31.8691   22.7690 O   0  0  0  0  0  0  0  0  0  0  0  0
  -21.2632  -27.2775   22.1298 O   0  0  0  0  0  0  0  0  0  0  0  0
  -31.2525  -15.2878   20.1451 O   0  0  0  0  0  0  0  0  0  0  0  0
  -20.9119   -9.3683   23.1040 O   0  0  0  0  0  0  0  0  0  0  0  0
  -27.5346  -25.8800   19.8788 O   0  0  0  0  0  0  0  0  0  1  0  0
  -18.5152   -4.4228   22.6551 F   0  0  0  0  0  0  0  0  0  0  0  0
  -20.9076   -7.5964   25.2261 F   0  0  0  0  0  0  0  0  0  0  0  0
  1  2  1  0  0  0  0
  1  5  2  0  0  0  0
  2  6  2  0  0  0  0
  3  8  2  0  0  0  0
  3 17  1  0  0  0  0
  4  9  1  0  0  0  0
  4 17  2  0  0  0  0
  5 19  1  0  0  0  0
  6 21  1  0  0  0  0
  7 10  2  0  0  0  0
  7 20  1  0  0  0  0
  8 24  1  0  0  0  0
  9 24  2  0  0  0  0
 10 25  1  0  0  0  0
 11 12  2  0  0  0  0
 11 26  1  0  0  0  0
 12 27  1  0  0  0  0
 13 22  1  0  0  0  0
 13 25  2  0  0  0  0
 14 23  1  0  0  0  0
 14 30  2  0  0  0  0
 15 27  2  0  0  0  0
 15 28  1  0  0  0  0
 16 23  2  0  0  0  0
 16 72  1  0  0  0  0
 17 29  1  0  0  0  0
 18 29  1  0  0  0  0
 18 31  2  0  0  0  0
 18 32  1  0  0  0  0
 19 21  2  0  0  0  0
 19 38  1  0  0  0  0
 20 22  2  0  0  0  0
 20 39  1  0  0  0  0
 21 49  1  0  0  0  0
 22 40  1  0  0  0  0
 23 79  1  0  0  0  0
 24 89  1  0  0  0  0
 25 90  1  0  0  0  0
 26 28  2  0  0  0  0
 26 89  1  0  0  0  0
 27 91  1  0  0  0  0
 28 92  1  0  0  0  0
 29 71  2  0  0  0  0
 30 33  1  0  0  0  0
 30 72  1  0  0  0  0
 31 73  1  0  0  0  0
 31 77  1  0  0  0  0
 32 78  1  0  0  0  0
 32 84  2  0  0  0  0
 33 74  1  0  0  0  0
 33 82  2  0  0  0  0
 34 50  1  0  0  0  0
 34 80  1  0  0  0  0
 34 85  2  0  0  0  0
 35 67  1  0  0  0  0
 35 75  1  0  0  0  0
 35 86  2  0  0  0  0
 36 68  1  0  0  0  0
 36 81  1  0  0  0  0
 36 87  2  0  0  0  0
 37 76  1  0  0  0  0
 37 79  1  0  0  0  0
 37 88  2  0  0  0  0
 38 41  1  0  0  0  0
 39 50  1  0  0  0  0
 40 75  1  0  0  0  0
 41 43  1  0  0  0  0
 42 44  1  0  0  0  0
 42 46  1  0  0  0  0
 43 49  1  0  0  0  0
 44 51  1  0  0  0  0
 45 47  1  0  0  0  0
 45 52  1  0  0  0  0
 46 76  1  0  0  0  0
 47 74  1  0  0  0  0
 48 51  1  0  0  0  0
 48 76  1  0  0  0  0
 49 80  1  0  0  0  0
 50 75  1  0  0  0  0
 51 73  1  0  0  0  0
 52 53  1  0  0  0  0
 52 54  1  0  0  0  0
 52 65  1  0  0  0  0
 53 55  1  0  0  0  0
 53 56  1  0  0  0  0
 53 74  1  0  0  0  0
 57 68  1  0  0  0  0
 58 69  1  0  0  0  0
 59 69  1  0  0  0  0
 60 69  1  0  0  0  0
 61 70  1  0  0  0  0
 62 70  1  0  0  0  0
 63 70  1  0  0  0  0
 64 83  1  0  0  0  0
 65 90  1  0  0  0  0
 66 69  1  0  0  0  0
 66 72  1  0  0  0  0
 67 70  1  0  0  0  0
 67 81  1  0  0  0  0
 68 83  1  0  0  0  0
 71 73  1  0  0  0  0
M  CHG  2  82   1  83   1
M  ISO  4  37 100  65 101  79 100  90 101
M  END
> <Batch ID>
0152

> <Smiles>
CNC(C)C(=O)NC(C(=O)N1Cc2cc([101O:1][101CH2:1]C3(C)CCN(C(=N)c4cc([100NH:0][100C:0](=O)N5CCCC(n6nc(-c7ccc(Oc8ccc(F)cc8F)cc7)c(C(N)=O)c6N)C5)cn4CC(C)(C)C)C3(C)C)ccc2CC1C(=O)NC1CCCc2ccccc21)C(C)(C)C

> <Shape>
0.322

> <Color>
0.087

> <Negative vol penalty>
0.000

$$$$

  -OEChem-04052303273D

 83 92  0     1  0  0  0  0  0999 V2000
  -29.3025  -34.7670   26.6489 C   0  0  0  0  0  0  0  0  0  0  0  0
  -29.6967  -34.1542   25.4638 C   0  0  0  0  0  0  0  0  0  0  0  0
  -29.2633  -19.9606   22.6339 C   0  0  0  0  0  0  0  0  0  0  0  0
  -26.6448   -9.9756   19.5390 C   0  0  0  0  0  0  0  0  0  0  0  0
  -27.9105  -11.0029   21.3222 C   0  0  0  0  0  0  0  0  0  0  0  0
  -28.3339  -34.1682   27.4534 C   0  0  0  0  0  0  0  0  0  0  0  0
  -29.1232  -32.9415   25.0830 C   0  0  0  0  0  0  0  0  0  0  0  0
  -29.6238  -21.0625   21.8584 C   0  0  0  0  0  0  0  0  0  0  0  0
  -27.2012  -29.2648   19.2432 C   0  0  0  0  0  0  0  0  0  0  0  0
  -28.2778  -19.0826   22.1827 C   0  0  0  0  0  0  0  0  0  0  0  0
  -27.6230   -8.9893   19.4129 C   0  0  0  0  0  0  0  0  0  0  0  0
  -28.8887  -10.0165   21.1961 C   0  0  0  0  0  0  0  0  0  0  0  0
  -27.3726  -28.0130   18.6536 C   0  0  0  0  0  0  0  0  0  0  0  0
  -30.6870   -8.6844   18.0188 C   0  0  0  0  0  0  0  0  0  0  0  0
  -31.1064   -8.3495   16.7314 C   0  0  0  0  0  0  0  0  0  0  0  0
  -28.0133  -20.4085   20.1804 C   0  0  0  0  0  0  0  0  0  0  0  0
  -25.6515  -27.1108   20.0829 C   0  0  0  0  0  0  0  0  0  0  0  0
  -30.3838   -6.0718   17.0885 C   0  0  0  0  0  0  0  0  0  0  0  0
  -26.7886  -10.9824   20.4936 C   0  0  0  0  0  0  0  0  0  0  0  0
  -24.6401  -11.9697   21.4511 C   0  0  0  0  0  0  0  0  0  0  0  0
  -28.9988  -21.2865   20.6317 C   0  0  0  0  0  0  0  0  0  0  0  0
  -27.7413  -32.9524   27.0774 C   0  0  0  0  0  0  0  0  0  0  0  0
  -26.2596  -29.4467   20.2663 C   0  0  0  0  0  0  0  0  0  0  0  0
  -28.1467  -32.3252   25.8838 C   0  0  0  0  0  0  0  0  0  0  0  0
  -25.4682  -28.3664   20.6820 C   0  0  0  0  0  0  0  0  0  0  0  0
  -27.6528  -19.3065   20.9560 C   0  0  0  0  0  0  0  0  0  0  0  0
  -28.7449   -9.0097   20.2415 C   0  0  0  0  0  0  0  0  0  0  0  0
  -26.5998  -26.9351   19.0754 C   0  0  0  0  0  0  0  0  0  0  0  0
  -30.1161   -7.7130   18.8412 C   0  0  0  0  0  0  0  0  0  0  0  0
  -30.9548   -7.0432   16.2662 C   0  0  0  0  0  0  0  0  0  0  0  0
  -29.9645   -6.4068   18.3760 C   0  0  0  0  0  0  0  0  0  0  0  0
  -25.7788  -12.0019   20.6240 C   0  0  0  0  0  0  0  0  0  0  0  0
  -24.0080  -13.1654   21.2120 C   0  0  0  0  0  0  0  0  0  0  0  0
  -24.1936  -10.9500   22.3548 C   0  0  0  0  0  0  0  0  0  0  0  0
  -26.4058  -30.3109   23.3217 C   0  0  0  0  0  0  0  0  0  0  0  0
  -23.1709  -30.2521   23.0892 C   0  0  0  0  0  0  0  0  0  0  0  0
  -20.4020  -29.0509   21.4963 C   0  0  0  0  0  0  0  0  0  0  0  0
  -25.9338  -18.4908   19.3050 C   0  0  0  0  0  0  0  0  0  0  0  0
  -26.7327  -32.3196   28.0031 C   0  0  0  0  0  0  0  0  0  0  0  0
  -26.0680  -30.8094   20.8735 C   0  0  0  0  0  0  0  0  0  0  0  0
  -24.4294  -28.5139   21.7626 C   0  0  0  0  0  0  0  0  0  0  0  0
  -25.9033  -31.2220   27.3415 C   0  0  0  0  0  0  0  0  0  0  0  0
  -23.4174  -16.4720   17.7985 C   0  0  0  0  0  0  0  0  0  0  0  0
  -26.8023  -30.2772   26.5502 C   0  0  0  0  0  0  0  0  0  0  0  0
  -29.8578  -22.1333   18.3804 C   0  0  0  0  0  0  0  0  0  0  0  0
  -23.6299  -15.0951   18.4319 C   0  0  0  0  0  0  0  0  0  0  0  0
  -29.6441  -23.4313   17.6204 C   0  0  0  0  0  0  0  0  0  0  0  0
  -24.7413  -17.1936   17.5528 C   0  0  0  0  0  0  0  0  0  0  0  0
  -25.8309  -15.9214   19.3593 C   0  0  0  0  0  0  0  0  0  0  0  0
  -27.5300  -31.0219   25.4244 C   0  0  1  0  0  0  0  0  0  0  0  0
  -29.3884  -22.4761   19.7948 C   0  0  1  0  0  0  0  0  0  0  0  0
  -25.4396  -30.7615   22.2628 C   0  0  1  0  0  0  0  0  0  0  0  0
  -24.5223  -15.1831   19.6854 C   0  0  2  0  0  0  0  0  0  0  0  0
  -28.2888  -23.9020   18.1243 C   0  0  2  0  0  0  0  0  0  0  0  0
  -17.8953  -29.1527   21.5563 C   0  0  0  0  0  0  0  0  0  0  0  0
  -23.1558  -28.3932   25.5087 C   0  0  0  0  0  0  0  0  0  0  0  0
  -20.7943  -27.7862   24.9401 C   0  0  0  0  0  0  0  0  0  0  0  0
  -21.3682  -30.1421   25.5257 C   0  0  0  0  0  0  0  0  0  0  0  0
  -20.2672  -30.1917   18.7687 C   0  0  0  0  0  0  0  0  0  0  0  0
  -28.0675  -25.3964   18.0106 C   0  0  0  0  0  0  0  0  0  1  0  0
  -22.1031  -29.2051   23.2955 C   0  0  1  0  0  0  0  0  0  0  0  0
  -19.1632  -29.7492   20.9651 C   0  0  2  0  0  0  0  0  0  0  0  0
  -21.8762  -28.8781   24.7985 C   0  0  0  0  0  0  0  0  0  0  0  0
  -25.8675  -13.1288   19.9125 N   0  0  0  0  0  0  0  0  0  0  0  0
  -24.7765  -13.8157   20.2918 N   0  0  0  0  0  0  0  0  0  0  0  0
  -24.2840  -29.8646   22.3298 N   0  0  0  0  0  0  0  0  0  0  0  0
  -25.5315  -17.2425   18.7848 N   0  0  0  0  0  0  0  0  0  0  0  0
  -22.8754  -13.7135   21.7011 N   0  0  0  0  0  0  0  0  0  0  0  0
  -24.9621   -9.7847   22.4797 N   0  0  0  0  0  0  0  0  0  0  0  0
  -26.6522  -18.4141   20.4977 N   0  0  0  0  0  0  0  0  0  0  0  0
  -26.6364  -31.2497   24.3091 N   0  0  0  0  0  0  0  0  0  0  0  0
  -20.9145  -29.6925   22.6040 N   0  0  0  0  0  0  0  0  0  0  0  0
  -28.2753  -23.4839   19.5720 N   0  3  0  0  0  0  0  0  0  0  0  0
  -19.0940  -29.6241   19.4817 N   0  3  0  0  0  0  0  0  0  0  0  0
  -23.1355  -11.0618   23.0193 O   0  0  0  0  0  0  0  0  0  0  0  0
  -26.9041  -29.1937   23.2490 O   0  0  0  0  0  0  0  0  0  0  0  0
  -23.0195  -31.3747   23.5776 O   0  0  0  0  0  0  0  0  0  0  0  0
  -20.8663  -28.0357   20.9824 O   0  0  0  0  0  0  0  0  0  0  0  0
  -25.6376  -19.5515   18.7488 O   0  0  0  0  0  0  0  0  0  0  0  0
  -29.6995   -8.0473   20.1188 O   0  0  0  0  0  0  0  0  0  0  0  0
  -26.7656  -25.7122   18.5021 O   0  0  0  0  0  0  0  0  0  1  0  0
  -31.3561   -6.7221   15.0293 F   0  0  0  0  0  0  0  0  0  0  0  0
  -29.4157   -5.4695   19.1610 F   0  0  0  0  0  0  0  0  0  0  0  0
  1  2  1  0  0  0  0
  1  6  2  0  0  0  0
  2  7  2  0  0  0  0
  3  8  2  0  0  0  0
  3 10  1  0  0  0  0
  4 11  2  0  0  0  0
  4 19  1  0  0  0  0
  5 12  1  0  0  0  0
  5 19  2  0  0  0  0
  6 22  1  0  0  0  0
  7 24  1  0  0  0  0
  8 21  1  0  0  0  0
  9 13  2  0  0  0  0
  9 23  1  0  0  0  0
 10 26  2  0  0  0  0
 11 27  1  0  0  0  0
 12 27  2  0  0  0  0
 13 28  1  0  0  0  0
 14 15  2  0  0  0  0
 14 29  1  0  0  0  0
 15 30  1  0  0  0  0
 16 21  2  0  0  0  0
 16 26  1  0  0  0  0
 17 25  1  0  0  0  0
 17 28  2  0  0  0  0
 18 30  2  0  0  0  0
 18 31  1  0  0  0  0
 19 32  1  0  0  0  0
 20 32  1  0  0  0  0
 20 33  2  0  0  0  0
 20 34  1  0  0  0  0
 21 51  1  0  0  0  0
 22 24  2  0  0  0  0
 22 39  1  0  0  0  0
 23 25  2  0  0  0  0
 23 40  1  0  0  0  0
 24 50  1  0  0  0  0
 25 41  1  0  0  0  0
 26 70  1  0  0  0  0
 27 80  1  0  0  0  0
 28 81  1  0  0  0  0
 29 31  2  0  0  0  0
 29 80  1  0  0  0  0
 30 82  1  0  0  0  0
 31 83  1  0  0  0  0
 32 64  2  0  0  0  0
 33 65  1  0  0  0  0
 33 68  1  0  0  0  0
 34 69  1  0  0  0  0
 34 75  2  0  0  0  0
 35 52  1  0  0  0  0
 35 71  1  0  0  0  0
 35 76  2  0  0  0  0
 36 61  1  0  0  0  0
 36 66  1  0  0  0  0
 36 77  2  0  0  0  0
 37 62  1  0  0  0  0
 37 72  1  0  0  0  0
 37 78  2  0  0  0  0
 38 67  1  0  0  0  0
 38 70  1  0  0  0  0
 38 79  2  0  0  0  0
 39 42  1  0  0  0  0
 40 52  1  0  0  0  0
 41 66  1  0  0  0  0
 42 44  1  0  0  0  0
 43 46  1  0  0  0  0
 43 48  1  0  0  0  0
 44 50  1  0  0  0  0
 45 47  1  0  0  0  0
 45 51  1  0  0  0  0
 46 53  1  0  0  0  0
 47 54  1  0  0  0  0
 48 67  1  0  0  0  0
 49 53  1  0  0  0  0
 49 67  1  0  0  0  0
 50 71  1  0  0  0  0
 51 73  1  0  0  0  0
 52 66  1  0  0  0  0
 53 65  1  0  0  0  0
 54 60  1  0  0  0  0
 54 73  1  0  0  0  0
 55 62  1  0  0  0  0
 56 63  1  0  0  0  0
 57 63  1  0  0  0  0
 58 63  1  0  0  0  0
 59 74  1  0  0  0  0
 60 81  1  0  0  0  0
 61 63  1  0  0  0  0
 61 72  1  0  0  0  0
 62 74  1  0  0  0  0
 64 65  1  0  0  0  0
M  CHG  2  73   1  74   1
M  ISO  4  38 100  60 101  70 100  81 101
M  END
> <Batch ID>
0152

> <Smiles>
CNC(C)C(=O)NC(C(=O)N1Cc2cc([101O:1][101CH2:1]C3CCC(c4cccc([100NH:0][100C:0](=O)N5CCCC(n6nc(-c7ccc(Oc8ccc(F)cc8F)cc7)c(C(N)=O)c6N)C5)c4)N3)ccc2CC1C(=O)NC1CCCc2ccccc21)C(C)(C)C

> <Shape>
0.242

> <Color>
0.068

> <Negative vol penalty>
0.000

$$$$

  -OEChem-04052303273D

 86 95  0     1  0  0  0  0  0999 V2000
  -18.5899  -30.9422   24.1980 C   0  0  0  0  0  0  0  0  0  0  0  0
  -19.9745  -30.8577   24.0915 C   0  0  0  0  0  0  0  0  0  0  0  0
  -27.3775  -13.3594   22.4362 C   0  0  0  0  0  0  0  0  0  0  0  0
  -27.2974  -12.2997   20.2665 C   0  0  0  0  0  0  0  0  0  0  0  0
  -17.7926  -29.8845   23.7628 C   0  0  0  0  0  0  0  0  0  0  0  0
  -20.5625  -29.7149   23.5507 C   0  0  0  0  0  0  0  0  0  0  0  0
  -25.6422  -29.4508   20.1400 C   0  0  0  0  0  0  0  0  0  0  0  0
  -30.0910  -24.6601   21.2054 C   0  0  0  0  0  0  0  0  0  0  0  0
  -29.7130  -23.4914   20.5446 C   0  0  0  0  0  0  0  0  0  0  0  0
  -26.9125  -12.1846   23.0272 C   0  0  0  0  0  0  0  0  0  0  0  0
  -26.8324  -11.1249   20.8574 C   0  0  0  0  0  0  0  0  0  0  0  0
  -26.9666  -29.1466   20.4517 C   0  0  0  0  0  0  0  0  0  0  0  0
  -28.1799   -9.1873   23.9453 C   0  0  0  0  0  0  0  0  0  0  0  0
  -28.8171   -8.7496   25.1063 C   0  0  0  0  0  0  0  0  0  0  0  0
  -26.5999  -26.8658   19.7569 C   0  0  0  0  0  0  0  0  0  0  0  0
  -28.2941  -24.3457   22.7895 C   0  0  0  0  0  0  0  0  0  0  0  0
  -26.7299   -8.9109   26.3125 C   0  0  0  0  0  0  0  0  0  0  0  0
  -27.5699  -13.4170   21.0558 C   0  0  0  0  0  0  0  0  0  0  0  0
  -29.3901  -14.9951   20.2169 C   0  0  0  0  0  0  0  0  0  0  0  0
  -18.3708  -28.7321   23.2075 C   0  0  0  0  0  0  0  0  0  0  0  0
  -24.7823  -28.4605   19.6438 C   0  0  0  0  0  0  0  0  0  0  0  0
  -19.7723  -28.6401   23.1089 C   0  0  0  0  0  0  0  0  0  0  0  0
  -25.2657  -27.1606   19.4372 C   0  0  0  0  0  0  0  0  0  0  0  0
  -29.3816  -25.0873   22.3280 C   0  0  0  0  0  0  0  0  0  0  0  0
  -28.6255  -22.7498   21.0061 C   0  0  0  0  0  0  0  0  0  0  0  0
  -27.9160  -23.1770   22.1286 C   0  0  0  0  0  0  0  0  0  0  0  0
  -26.6400  -11.0673   22.2378 C   0  0  0  0  0  0  0  0  0  0  0  0
  -27.4448  -27.8532   20.2630 C   0  0  0  0  0  0  0  0  0  0  0  0
  -26.8178   -9.4870   23.9679 C   0  0  0  0  0  0  0  0  0  0  0  0
  -28.0921   -8.6113   26.2899 C   0  0  0  0  0  0  0  0  0  0  0  0
  -26.0928   -9.3487   25.1514 C   0  0  0  0  0  0  0  0  0  0  0  0
  -28.0496  -14.6304   20.4447 C   0  0  0  0  0  0  0  0  0  0  0  0
  -29.3132  -16.2281   19.6166 C   0  0  0  0  0  0  0  0  0  0  0  0
  -29.6108  -26.5554   24.3825 C   0  0  0  0  0  0  0  0  0  0  0  0
  -30.5969  -14.2830   20.5206 C   0  0  0  0  0  0  0  0  0  0  0  0
  -22.0799  -27.1252   20.6528 C   0  0  0  0  0  0  0  0  0  0  0  0
  -22.1699  -25.6755   17.7523 C   0  0  0  0  0  0  0  0  0  0  0  0
  -24.0372  -24.6172   15.0991 C   0  0  0  0  0  0  0  0  0  0  0  0
  -26.9751  -21.3969   19.7252 C   0  0  0  0  0  0  0  0  0  0  0  0
  -17.4702  -27.5950   22.7945 C   0  0  0  0  0  0  0  0  0  0  0  0
  -23.3637  -28.8112   19.2871 C   0  0  0  0  0  0  0  0  0  0  0  0
  -24.3887  -26.0663   18.8880 C   0  0  0  0  0  0  0  0  0  0  0  0
  -30.1808  -27.9287   24.6479 C   0  0  0  0  0  0  0  0  0  0  0  0
  -18.1542  -26.5744   21.8885 C   0  0  0  0  0  0  0  0  0  0  0  0
  -31.0740  -28.1784   23.4476 C   0  0  0  0  0  0  0  0  0  0  0  0
  -25.3681  -18.7472   17.7234 C   0  0  0  0  0  0  0  0  0  0  0  0
  -19.5256  -26.2025   22.4434 C   0  0  0  0  0  0  0  0  0  0  0  0
  -25.9899  -17.4705   18.2868 C   0  0  0  0  0  0  0  0  0  0  0  0
  -25.2893  -19.8507   18.7742 C   0  0  0  0  0  0  0  0  0  0  0  0
  -27.2198  -18.8815   19.9843 C   0  0  0  0  0  0  0  0  0  0  0  0
  -20.4463  -27.4272   22.5051 C   0  0  1  0  0  0  0  0  0  0  0  0
  -22.4347  -27.6013   19.2725 C   0  0  1  0  0  0  0  0  0  0  0  0
  -27.3524  -17.7648   18.9378 C   0  0  1  0  0  0  0  0  0  0  0  0
  -30.3842  -27.4199   22.3191 C   0  0  2  0  0  0  0  0  0  0  0  0
  -23.8359  -23.4315   12.8966 C   0  0  0  0  0  0  0  0  0  0  0  0
  -21.8918  -23.0119   19.2144 C   0  0  0  0  0  0  0  0  0  0  0  0
  -22.6420  -21.8635   17.1200 C   0  0  0  0  0  0  0  0  0  0  0  0
  -20.5356  -23.1998   17.1216 C   0  0  0  0  0  0  0  0  0  0  0  0
  -29.3009  -20.5661   19.9903 C   0  0  0  0  0  0  0  0  0  0  0  0
  -25.0462  -26.9674   13.6100 C   0  0  0  0  0  0  0  0  0  0  0  0
  -29.3468  -28.3005   21.6189 C   0  0  0  0  0  0  0  0  0  1  0  0
  -22.7616  -24.3948   17.2152 C   0  0  1  0  0  0  0  0  0  0  0  0
  -23.8428  -24.7786   13.6022 C   0  0  2  0  0  0  0  0  0  0  0  0
  -21.9740  -23.1374   17.6800 C   0  0  0  0  0  0  0  0  0  0  0  0
  -27.1845  -15.5569   20.0237 N   0  0  0  0  0  0  0  0  0  0  0  0
  -27.9832  -16.5159   19.5253 N   0  0  0  0  0  0  0  0  0  0  0  0
  -29.7702  -26.2871   23.0063 N   0  0  0  0  0  0  0  0  0  0  0  0
  -23.0077  -26.4573   18.5604 N   0  0  0  0  0  0  0  0  0  0  0  0
  -26.5877  -20.0791   19.4096 N   0  0  0  0  0  0  0  0  0  0  0  0
  -26.8115  -22.4409   22.6133 N   0  0  0  0  0  0  0  0  0  0  0  0
  -30.2542  -17.0834   19.1633 N   0  0  0  0  0  0  0  0  0  0  0  0
  -30.4952  -13.0288   21.1377 N   0  0  0  0  0  0  0  0  0  0  0  0
  -20.9635  -27.7376   21.1895 N   0  0  0  0  0  0  0  0  0  0  0  0
  -22.8324  -24.5539   15.7667 N   0  0  0  0  0  0  0  0  0  0  0  0
  -28.2537  -21.5434   20.3053 N   0  0  0  0  0  0  0  0  0  0  0  0
  -24.9388  -25.6065   13.0239 N   0  3  0  0  0  0  0  0  0  0  0  0
  -29.0950  -25.8836   25.2642 O   0  0  0  0  0  0  0  0  0  0  0  0
  -31.7323  -14.7525   20.2675 O   0  0  0  0  0  0  0  0  0  0  0  0
  -22.7673  -26.2649   21.1904 O   0  0  0  0  0  0  0  0  0  0  0  0
  -21.0096  -25.9750   17.4597 O   0  0  0  0  0  0  0  0  0  0  0  0
  -25.1469  -24.5499   15.6232 O   0  0  0  0  0  0  0  0  0  0  0  0
  -26.2481  -22.3670   19.4802 O   0  0  0  0  0  0  0  0  0  0  0  0
  -26.1865   -9.9207   22.8142 O   0  0  0  0  0  0  0  0  0  0  0  0
  -28.7369  -27.5534   20.5671 O   0  0  0  0  0  0  0  0  0  1  0  0
  -28.7037   -8.1894   27.4044 F   0  0  0  0  0  0  0  0  0  0  0  0
  -24.7837   -9.6339   25.1790 F   0  0  0  0  0  0  0  0  0  0  0  0
  1  2  1  0  0  0  0
  1  5  2  0  0  0  0
  2  6  2  0  0  0  0
  3 10  2  0  0  0  0
  3 18  1  0  0  0  0
  4 11  1  0  0  0  0
  4 18  2  0  0  0  0
  5 20  1  0  0  0  0
  6 22  1  0  0  0  0
  7 12  2  0  0  0  0
  7 21  1  0  0  0  0
  8  9  2  0  0  0  0
  8 24  1  0  0  0  0
  9 25  1  0  0  0  0
 10 27  1  0  0  0  0
 11 27  2  0  0  0  0
 12 28  1  0  0  0  0
 13 14  2  0  0  0  0
 13 29  1  0  0  0  0
 14 30  1  0  0  0  0
 15 23  1  0  0  0  0
 15 28  2  0  0  0  0
 16 24  2  0  0  0  0
 16 26  1  0  0  0  0
 17 30  2  0  0  0  0
 17 31  1  0  0  0  0
 18 32  1  0  0  0  0
 19 32  1  0  0  0  0
 19 33  2  0  0  0  0
 19 35  1  0  0  0  0
 20 22  2  0  0  0  0
 20 40  1  0  0  0  0
 21 23  2  0  0  0  0
 21 41  1  0  0  0  0
 22 51  1  0  0  0  0
 23 42  1  0  0  0  0
 24 67  1  0  0  0  0
 25 26  2  0  0  0  0
 25 75  1  0  0  0  0
 26 70  1  0  0  0  0
 27 83  1  0  0  0  0
 28 84  1  0  0  0  0
 29 31  2  0  0  0  0
 29 83  1  0  0  0  0
 30 85  1  0  0  0  0
 31 86  1  0  0  0  0
 32 65  2  0  0  0  0
 33 66  1  0  0  0  0
 33 71  1  0  0  0  0
 34 43  1  0  0  0  0
 34 67  1  0  0  0  0
 34 77  2  0  0  0  0
 35 72  1  0  0  0  0
 35 78  2  0  0  0  0
 36 52  1  0  0  0  0
 36 73  1  0  0  0  0
 36 79  2  0  0  0  0
 37 62  1  0  0  0  0
 37 68  1  0  0  0  0
 37 80  2  0  0  0  0
 38 63  1  0  0  0  0
 38 74  1  0  0  0  0
 38 81  2  0  0  0  0
 39 69  1  0  0  0  0
 39 75  1  0  0  0  0
 39 82  2  0  0  0  0
 40 44  1  0  0  0  0
 41 52  1  0  0  0  0
 42 68  1  0  0  0  0
 43 45  1  0  0  0  0
 44 47  1  0  0  0  0
 45 54  1  0  0  0  0
 46 48  1  0  0  0  0
 46 49  1  0  0  0  0
 47 51  1  0  0  0  0
 48 53  1  0  0  0  0
 49 69  1  0  0  0  0
 50 53  1  0  0  0  0
 50 69  1  0  0  0  0
 51 73  1  0  0  0  0
 52 68  1  0  0  0  0
 53 66  1  0  0  0  0
 54 61  1  0  0  0  0
 54 67  1  0  0  0  0
 55 63  1  0  0  0  0
 56 64  1  0  0  0  0
 57 64  1  0  0  0  0
 58 64  1  0  0  0  0
 59 75  1  0  0  0  0
 60 76  1  0  0  0  0
 61 84  1  0  0  0  0
 62 64  1  0  0  0  0
 62 74  1  0  0  0  0
 63 76  1  0  0  0  0
 65 66  1  0  0  0  0
M  CHG  1  76   1
M  ISO  4  39 100  61 101  75 100  84 101
M  END
> <Batch ID>
0152

> <Smiles>
CNC(C)C(=O)NC(C(=O)N1Cc2cc([101O:1][101CH2:1]C3CCC(=O)N3c3ccc([100N:0](C)[100C:0](=O)N4CCCC(n5nc(-c6ccc(Oc7ccc(F)cc7F)cc6)c(C(N)=O)c5N)C4)c(N)c3)ccc2CC1C(=O)NC1CCCc2ccccc21)C(C)(C)C

> <Shape>
0.212

> <Color>
0.068

> <Negative vol penalty>
0.000

$$$$

  -OEChem-04052303273D

 82 90  0     1  0  0  0  0  0999 V2000
  -23.7382  -18.6432   23.8764 C   0  0  0  0  0  0  0  0  0  0  0  0
  -25.0929  -18.6552   24.1926 C   0  0  0  0  0  0  0  0  0  0  0  0
  -23.7633   -9.7170   21.6796 C   0  0  0  0  0  0  0  0  0  0  0  0
  -24.3695  -10.8853   23.7056 C   0  0  0  0  0  0  0  0  0  0  0  0
  -23.3255  -18.9154   22.5727 C   0  0  0  0  0  0  0  0  0  0  0  0
  -26.0358  -18.9382   23.2051 C   0  0  0  0  0  0  0  0  0  0  0  0
  -29.5915  -22.1791   24.7858 C   0  0  0  0  0  0  0  0  0  0  0  0
  -23.2471   -8.6673   22.4393 C   0  0  0  0  0  0  0  0  0  0  0  0
  -23.8532   -9.8356   24.4653 C   0  0  0  0  0  0  0  0  0  0  0  0
  -30.6043  -21.6677   25.5960 C   0  0  0  0  0  0  0  0  0  0  0  0
  -20.8148   -8.7490   25.4694 C   0  0  0  0  0  0  0  0  0  0  0  0
  -20.0123   -9.0757   26.5625 C   0  0  0  0  0  0  0  0  0  0  0  0
  -32.0727  -21.5645   23.6849 C   0  0  0  0  0  0  0  0  0  0  0  0
  -21.5643   -7.9553   28.0367 C   0  0  0  0  0  0  0  0  0  0  0  0
  -32.8509  -15.8418   22.6057 C   0  0  0  0  0  0  0  0  0  0  0  0
  -24.3246  -10.8260   22.3127 C   0  0  0  0  0  0  0  0  0  0  0  0
  -24.1700  -13.0521   21.0765 C   0  0  0  0  0  0  0  0  0  0  0  0
  -24.2631  -19.2114   21.5709 C   0  0  0  0  0  0  0  0  0  0  0  0
  -29.8086  -22.3772   23.4146 C   0  0  0  0  0  0  0  0  0  0  0  0
  -25.6353  -19.2133   21.8865 C   0  0  0  0  0  0  0  0  0  0  0  0
  -31.0619  -22.0809   22.8600 C   0  0  0  0  0  0  0  0  0  0  0  0
  -23.2920   -8.7266   23.8321 C   0  0  0  0  0  0  0  0  0  0  0  0
  -31.8442  -21.3576   25.0451 C   0  0  0  0  0  0  0  0  0  0  0  0
  -21.9920   -8.0254   25.6599 C   0  0  0  0  0  0  0  0  0  0  0  0
  -20.3870   -8.6789   27.8461 C   0  0  0  0  0  0  0  0  0  0  0  0
  -22.3668   -7.6286   26.9436 C   0  0  0  0  0  0  0  0  0  0  0  0
  -24.8585  -11.9104   21.5285 C   0  0  0  0  0  0  0  0  0  0  0  0
  -25.1132  -13.7692   20.3818 C   0  0  0  0  0  0  0  0  0  0  0  0
  -31.5915  -15.3077   22.7811 C   0  0  0  0  0  0  0  0  0  0  0  0
  -32.4378  -16.6237   24.6126 C   0  0  0  0  0  0  0  0  0  0  0  0
  -22.8003  -13.4305   21.2675 C   0  0  0  0  0  0  0  0  0  0  0  0
  -28.5292  -21.2096   20.7494 C   0  0  0  0  0  0  0  0  0  0  0  0
  -30.4385  -23.4146   19.3299 C   0  0  0  0  0  0  0  0  0  0  0  0
  -33.2313  -25.3685   19.5009 C   0  0  0  0  0  0  0  0  0  0  0  0
  -31.0758  -14.0279   20.6734 C   0  0  0  0  0  0  0  0  0  0  0  0
  -23.7721  -19.4527   20.1654 C   0  0  0  0  0  0  0  0  0  0  0  0
  -28.7144  -22.9547   22.5594 C   0  0  0  0  0  0  0  0  0  0  0  0
  -31.3523  -22.2942   21.3976 C   0  0  0  0  0  0  0  0  0  0  0  0
  -24.8112  -20.1116   19.2619 C   0  0  0  0  0  0  0  0  0  0  0  0
  -29.1177  -13.1926   17.8194 C   0  0  0  0  0  0  0  0  0  0  0  0
  -26.1634  -19.4218   19.4119 C   0  0  0  0  0  0  0  0  0  0  0  0
  -27.7390  -12.8788   18.4050 C   0  0  0  0  0  0  0  0  0  0  0  0
  -30.2443  -12.7153   18.7341 C   0  0  0  0  0  0  0  0  0  0  0  0
  -28.7789  -12.8711   20.7083 C   0  0  0  0  0  0  0  0  0  0  0  0
  -26.6868  -19.5403   20.8484 C   0  0  1  0  0  0  0  0  0  0  0  0
  -28.8814  -22.6329   21.0775 C   0  0  1  0  0  0  0  0  0  0  0  0
  -27.6119  -13.3910   19.8531 C   0  0  2  0  0  0  0  0  0  0  0  0
  -34.5524  -27.0372   18.1714 C   0  0  0  0  0  0  0  0  0  0  0  0
  -31.5585  -21.1555   17.6119 C   0  0  0  0  0  0  0  0  0  0  0  0
  -33.4739  -22.6531   17.0146 C   0  0  0  0  0  0  0  0  0  0  0  0
  -31.1474  -23.2948   16.3835 C   0  0  0  0  0  0  0  0  0  0  0  0
  -33.0471  -18.2155   28.5416 C   0  0  0  0  0  0  0  0  0  0  0  0
  -34.8128  -19.7761   27.7076 C   0  0  0  0  0  0  0  0  0  0  0  0
  -32.8274  -27.4814   21.5334 C   0  0  0  0  0  0  0  0  0  0  0  0
  -33.7796  -18.0487   26.1602 C   0  0  0  0  0  0  0  0  0  0  0  0
  -32.4359  -20.0782   26.9606 C   0  0  0  0  0  0  0  0  0  1  0  0
  -31.8547  -23.4247   18.8074 C   0  0  1  0  0  0  0  0  0  0  0  0
  -33.4508  -26.8403   19.2012 C   0  0  2  0  0  0  0  0  0  0  0  0
  -32.0029  -22.6260   17.4816 C   0  0  0  0  0  0  0  0  0  0  0  0
  -33.5179  -19.0365   27.3231 C   0  0  0  0  0  0  0  0  0  0  0  0
  -33.3377  -16.5971   23.6547 N   0  0  0  0  0  0  0  0  0  0  0  0
  -26.1401  -11.8987   21.1525 N   0  0  0  0  0  0  0  0  0  0  0  0
  -26.2644  -13.0417   20.4567 N   0  0  0  0  0  0  0  0  0  0  0  0
  -30.2482  -22.8552   20.6014 N   0  0  0  0  0  0  0  0  0  0  0  0
  -30.0600  -13.2431   20.0878 N   0  0  0  0  0  0  0  0  0  0  0  0
  -25.0618  -14.9448   19.7201 N   0  0  0  0  0  0  0  0  0  0  0  0
  -21.9686  -12.5784   22.0068 N   0  0  0  0  0  0  0  0  0  0  0  0
  -30.7749  -14.5014   21.9500 N   0  0  0  0  0  0  0  0  0  0  0  0
  -32.5969  -17.2937   25.8143 N   0  0  0  0  0  0  0  0  0  0  0  0
  -27.2338  -20.8601   21.0797 N   0  0  0  0  0  0  0  0  0  0  0  0
  -32.2427  -24.8274   18.7065 N   0  0  0  0  0  0  0  0  0  0  0  0
  -33.8325  -27.5705   20.4431 N   0  3  0  0  0  0  0  0  0  0  0  0
  -22.3239  -14.4848   20.7827 O   0  0  0  0  0  0  0  0  0  0  0  0
  -29.3700  -20.4827   20.2332 O   0  0  0  0  0  0  0  0  0  0  0  0
  -29.5354  -23.8922   18.6386 O   0  0  0  0  0  0  0  0  0  0  0  0
  -33.8753  -24.7587   20.3518 O   0  0  0  0  0  0  0  0  0  0  0  0
  -32.1234  -14.2852   20.0748 O   0  0  0  0  0  0  0  0  0  0  0  0
  -22.7881   -7.7025   24.5738 O   0  0  0  0  0  0  0  0  0  0  0  0
  -32.8343  -20.8576   25.8335 O   0  0  0  0  0  0  0  0  0  1  0  0
  -19.6171   -8.9940   28.8959 F   0  0  0  0  0  0  0  0  0  0  0  0
  -23.4972   -6.9343   27.1330 F   0  0  0  0  0  0  0  0  0  0  0  0
  -30.9834  -15.7615   24.3191 S   0  0  0  0  0  0  0  0  0  0  0  0
  1  2  1  0  0  0  0
  1  5  2  0  0  0  0
  2  6  2  0  0  0  0
  3  8  2  0  0  0  0
  3 16  1  0  0  0  0
  4  9  1  0  0  0  0
  4 16  2  0  0  0  0
  5 18  1  0  0  0  0
  6 20  1  0  0  0  0
  7 10  2  0  0  0  0
  7 19  1  0  0  0  0
  8 22  1  0  0  0  0
  9 22  2  0  0  0  0
 10 23  1  0  0  0  0
 11 12  2  0  0  0  0
 11 24  1  0  0  0  0
 12 25  1  0  0  0  0
 13 21  1  0  0  0  0
 13 23  2  0  0  0  0
 14 25  2  0  0  0  0
 14 26  1  0  0  0  0
 15 29  2  0  0  0  0
 15 61  1  0  0  0  0
 16 27  1  0  0  0  0
 17 27  1  0  0  0  0
 17 28  2  0  0  0  0
 17 31  1  0  0  0  0
 18 20  2  0  0  0  0
 18 36  1  0  0  0  0
 19 21  2  0  0  0  0
 19 37  1  0  0  0  0
 20 45  1  0  0  0  0
 21 38  1  0  0  0  0
 22 78  1  0  0  0  0
 23 79  1  0  0  0  0
 24 26  2  0  0  0  0
 24 78  1  0  0  0  0
 25 80  1  0  0  0  0
 26 81  1  0  0  0  0
 27 62  2  0  0  0  0
 28 63  1  0  0  0  0
 28 66  1  0  0  0  0
 29 68  1  0  0  0  0
 29 82  1  0  0  0  0
 30 61  2  0  0  0  0
 30 69  1  0  0  0  0
 30 82  1  0  0  0  0
 31 67  1  0  0  0  0
 31 73  2  0  0  0  0
 32 46  1  0  0  0  0
 32 70  1  0  0  0  0
 32 74  2  0  0  0  0
 33 57  1  0  0  0  0
 33 64  1  0  0  0  0
 33 75  2  0  0  0  0
 34 58  1  0  0  0  0
 34 71  1  0  0  0  0
 34 76  2  0  0  0  0
 35 65  1  0  0  0  0
 35 68  1  0  0  0  0
 35 77  2  0  0  0  0
 36 39  1  0  0  0  0
 37 46  1  0  0  0  0
 38 64  1  0  0  0  0
 39 41  1  0  0  0  0
 40 42  1  0  0  0  0
 40 43  1  0  0  0  0
 41 45  1  0  0  0  0
 42 47  1  0  0  0  0
 43 65  1  0  0  0  0
 44 47  1  0  0  0  0
 44 65  1  0  0  0  0
 45 70  1  0  0  0  0
 46 64  1  0  0  0  0
 47 63  1  0  0  0  0
 48 58  1  0  0  0  0
 49 59  1  0  0  0  0
 50 59  1  0  0  0  0
 51 59  1  0  0  0  0
 52 60  1  0  0  0  0
 53 60  1  0  0  0  0
 54 72  1  0  0  0  0
 55 60  1  0  0  0  0
 55 69  1  0  0  0  0
 56 60  1  0  0  0  0
 56 79  1  0  0  0  0
 57 59  1  0  0  0  0
 57 71  1  0  0  0  0
 58 72  1  0  0  0  0
 62 63  1  0  0  0  0
M  CHG  1  72   1
M  ISO  4  35 100  56 101  68 100  79 101
M  END
> <Batch ID>
0152

> <Smiles>
CNC(C)C(=O)NC(C(=O)N1Cc2cc([101O:1][101CH2:1]C(C)(C)CNc3ncc([100NH:0][100C:0](=O)N4CCCC(n5nc(-c6ccc(Oc7ccc(F)cc7F)cc6)c(C(N)=O)c5N)C4)s3)ccc2CC1C(=O)NC1CCCc2ccccc21)C(C)(C)C

> <Shape>
0.174

> <Color>
0.149

> <Negative vol penalty>
0.000

$$$$

  -OEChem-04052303273D

 84 93  0     1  0  0  0  0  0999 V2000
  -17.3718  -32.3709   23.7712 C   0  0  0  0  0  0  0  0  0  0  0  0
  -18.7093  -32.7535   23.7874 C   0  0  0  0  0  0  0  0  0  0  0  0
  -24.4661  -14.0572   20.3939 C   0  0  0  0  0  0  0  0  0  0  0  0
  -26.7327  -13.7932   21.1874 C   0  0  0  0  0  0  0  0  0  0  0  0
  -17.0351  -31.0182   23.7467 C   0  0  0  0  0  0  0  0  0  0  0  0
  -19.7109  -31.7833   23.7802 C   0  0  0  0  0  0  0  0  0  0  0  0
  -26.3596  -30.6413   21.3706 C   0  0  0  0  0  0  0  0  0  0  0  0
  -24.3691  -12.6777   20.2119 C   0  0  0  0  0  0  0  0  0  0  0  0
  -26.6357  -12.4136   21.0055 C   0  0  0  0  0  0  0  0  0  0  0  0
  -27.6154  -30.2398   21.8240 C   0  0  0  0  0  0  0  0  0  0  0  0
  -23.8559   -9.9419   22.1315 C   0  0  0  0  0  0  0  0  0  0  0  0
  -22.6963   -9.3089   22.5789 C   0  0  0  0  0  0  0  0  0  0  0  0
  -26.9160  -27.9343   21.7011 C   0  0  0  0  0  0  0  0  0  0  0  0
  -22.2398   -8.5550   20.3294 C   0  0  0  0  0  0  0  0  0  0  0  0
  -30.0806  -24.3481   21.3447 C   0  0  0  0  0  0  0  0  0  0  0  0
  -25.6479  -14.6149   20.8816 C   0  0  0  0  0  0  0  0  0  0  0  0
  -25.4278  -16.7694   22.2297 C   0  0  0  0  0  0  0  0  0  0  0  0
  -18.0332  -30.0311   23.7294 C   0  0  0  0  0  0  0  0  0  0  0  0
  -25.3673  -29.6912   21.0890 C   0  0  0  0  0  0  0  0  0  0  0  0
  -19.3872  -30.4161   23.7568 C   0  0  0  0  0  0  0  0  0  0  0  0
  -25.6493  -28.3262   21.2418 C   0  0  0  0  0  0  0  0  0  0  0  0
  -25.4539  -11.8559   20.5177 C   0  0  0  0  0  0  0  0  0  0  0  0
  -27.8928  -28.8863   21.9921 C   0  0  0  0  0  0  0  0  0  0  0  0
  -24.2075   -9.8814   20.7830 C   0  0  0  0  0  0  0  0  0  0  0  0
  -21.8883   -8.6155   21.6779 C   0  0  0  0  0  0  0  0  0  0  0  0
  -23.3995   -9.1880   19.8820 C   0  0  0  0  0  0  0  0  0  0  0  0
  -25.7489  -16.0400   21.0693 C   0  0  0  0  0  0  0  0  0  0  0  0
  -30.4212  -24.9603   22.5633 C   0  0  0  0  0  0  0  0  0  0  0  0
  -25.6964  -18.0754   21.8996 C   0  0  0  0  0  0  0  0  0  0  0  0
  -29.6091  -23.1177   21.7190 C   0  0  0  0  0  0  0  0  0  0  0  0
  -24.9313  -16.3079   23.4930 C   0  0  0  0  0  0  0  0  0  0  0  0
  -22.4734  -29.0609   22.2429 C   0  0  0  0  0  0  0  0  0  0  0  0
  -22.3946  -26.9207   19.8066 C   0  0  0  0  0  0  0  0  0  0  0  0
  -24.1272  -24.9622   17.6135 C   0  0  0  0  0  0  0  0  0  0  0  0
  -28.9693  -21.9403   19.5858 C   0  0  0  0  0  0  0  0  0  0  0  0
  -17.6202  -28.5807   23.7507 C   0  0  0  0  0  0  0  0  0  0  0  0
  -24.0265  -30.1392   20.5753 C   0  0  0  0  0  0  0  0  0  0  0  0
  -24.6252  -27.2656   20.9340 C   0  0  0  0  0  0  0  0  0  0  0  0
  -18.7439  -27.6218   23.3660 C   0  0  0  0  0  0  0  0  0  0  0  0
  -26.7455  -20.1926   17.4231 C   0  0  0  0  0  0  0  0  0  0  0  0
  -20.0302  -27.9843   24.1014 C   0  0  0  0  0  0  0  0  0  0  0  0
  -26.2615  -19.0164   18.2744 C   0  0  0  0  0  0  0  0  0  0  0  0
  -32.0864  -28.1479   23.3682 C   0  0  0  0  0  0  0  0  0  0  0  0
  -28.2131  -20.5209   17.6915 C   0  0  0  0  0  0  0  0  0  0  0  0
  -31.3143  -26.9207   23.8446 C   0  0  0  0  0  0  0  0  0  0  0  0
  -28.0691  -19.5594   19.9551 C   0  0  0  0  0  0  0  0  0  0  0  0
  -31.1903  -27.0622   21.4291 C   0  0  0  0  0  0  0  0  0  0  0  0
  -20.5025  -29.3937   23.7247 C   0  0  1  0  0  0  0  0  0  0  0  0
  -22.9231  -29.1123   20.8101 C   0  0  1  0  0  0  0  0  0  0  0  0
  -26.5786  -19.2330   19.7671 C   0  0  2  0  0  0  0  0  0  0  0  0
  -31.4840  -28.4582   21.9980 C   0  0  1  0  0  0  0  0  0  0  0  0
  -23.7880  -23.2946   15.7692 C   0  0  0  0  0  0  0  0  0  0  0  0
  -21.6830  -24.7878   21.8692 C   0  0  0  0  0  0  0  0  0  0  0  0
  -22.2876  -23.0467   20.1748 C   0  0  0  0  0  0  0  0  0  0  0  0
  -20.4118  -24.6273   19.7216 C   0  0  0  0  0  0  0  0  0  0  0  0
  -25.5132  -26.6835   15.6450 C   0  0  0  0  0  0  0  0  0  0  0  0
  -32.8520  -30.3516   21.8033 C   0  0  0  0  0  0  0  0  0  0  0  0
  -30.2281  -29.3229   22.1003 C   0  0  0  0  0  0  0  0  0  1  0  0
  -22.7927  -25.4739   19.6413 C   0  0  1  0  0  0  0  0  0  0  0  0
  -23.9884  -24.7619   16.1152 C   0  0  2  0  0  0  0  0  0  0  0  0
  -21.8127  -24.5038   20.3595 C   0  0  0  0  0  0  0  0  0  0  0  0
  -26.1878  -16.8179   20.0761 N   0  0  0  0  0  0  0  0  0  0  0  0
  -30.1795  -24.1701   23.6130 N   0  0  0  0  0  0  0  0  0  0  0  0
  -26.1443  -18.0497   20.6116 N   0  0  0  0  0  0  0  0  0  0  0  0
  -30.9430  -26.2361   22.6095 N   0  0  3  0  0  0  0  0  0  0  0  0
  -23.3270  -27.7542   20.4404 N   0  0  0  0  0  0  0  0  0  0  0  0
  -28.4375  -20.7172   19.1253 N   0  0  0  0  0  0  0  0  0  0  0  0
  -25.5907  -19.2316   22.5883 N   0  0  0  0  0  0  0  0  0  0  0  0
  -24.7110  -14.9342   23.6629 N   0  0  0  0  0  0  0  0  0  0  0  0
  -29.1080  -22.0237   20.9709 N   0  0  0  0  0  0  0  0  0  0  0  0
  -21.1421  -29.3824   22.4265 N   0  0  0  0  0  0  0  0  0  0  0  0
  -22.9146  -25.2455   18.2055 N   0  0  0  0  0  0  0  0  0  0  0  0
  -25.2092  -25.2481   15.4122 N   0  3  0  0  0  0  0  0  0  0  0  0
  -24.6745  -17.0922   24.4377 O   0  0  0  0  0  0  0  0  0  0  0  0
  -23.2745  -28.7511   23.1169 O   0  0  0  0  0  0  0  0  0  0  0  0
  -21.2998  -27.2989   19.3824 O   0  0  0  0  0  0  0  0  0  0  0  0
  -25.2032  -24.8724   18.2007 O   0  0  0  0  0  0  0  0  0  0  0  0
  -29.2533  -22.8572   18.8108 O   0  0  0  0  0  0  0  0  0  0  0  0
  -29.6631  -22.9995   23.0704 O   0  0  0  0  0  0  0  0  0  0  0  0
  -25.3595  -10.5097   20.3405 O   0  0  0  0  0  0  0  0  0  0  0  0
  -29.1176  -28.4917   22.4351 O   0  0  0  0  0  0  0  0  0  1  0  0
  -32.4471  -29.1327   21.2007 O   0  0  0  0  0  0  0  0  0  0  0  0
  -20.7755   -8.0064   22.1080 F   0  0  0  0  0  0  0  0  0  0  0  0
  -23.7327   -9.1254   18.5855 F   0  0  0  0  0  0  0  0  0  0  0  0
  1  2  1  0  0  0  0
  1  5  2  0  0  0  0
  2  6  2  0  0  0  0
  3  8  2  0  0  0  0
  3 16  1  0  0  0  0
  4  9  1  0  0  0  0
  4 16  2  0  0  0  0
  5 18  1  0  0  0  0
  6 20  1  0  0  0  0
  7 10  2  0  0  0  0
  7 19  1  0  0  0  0
  8 22  1  0  0  0  0
  9 22  2  0  0  0  0
 10 23  1  0  0  0  0
 11 12  2  0  0  0  0
 11 24  1  0  0  0  0
 12 25  1  0  0  0  0
 13 21  1  0  0  0  0
 13 23  2  0  0  0  0
 14 25  2  0  0  0  0
 14 26  1  0  0  0  0
 15 28  1  0  0  0  0
 15 30  2  0  0  0  0
 16 27  1  0  0  0  0
 17 27  1  0  0  0  0
 17 29  2  0  0  0  0
 17 31  1  0  0  0  0
 18 20  2  0  0  0  0
 18 36  1  0  0  0  0
 19 21  2  0  0  0  0
 19 37  1  0  0  0  0
 20 48  1  0  0  0  0
 21 38  1  0  0  0  0
 22 80  1  0  0  0  0
 23 81  1  0  0  0  0
 24 26  2  0  0  0  0
 24 80  1  0  0  0  0
 25 83  1  0  0  0  0
 26 84  1  0  0  0  0
 27 62  2  0  0  0  0
 28 63  2  0  0  0  0
 28 65  1  0  0  0  0
 29 64  1  0  0  0  0
 29 68  1  0  0  0  0
 30 70  1  0  0  0  0
 30 79  1  0  0  0  0
 31 69  1  0  0  0  0
 31 74  2  0  0  0  0
 32 49  1  0  0  0  0
 32 71  1  0  0  0  0
 32 75  2  0  0  0  0
 33 59  1  0  0  0  0
 33 66  1  0  0  0  0
 33 76  2  0  0  0  0
 34 60  1  0  0  0  0
 34 72  1  0  0  0  0
 34 77  2  0  0  0  0
 35 67  1  0  0  0  0
 35 70  1  0  0  0  0
 35 78  2  0  0  0  0
 36 39  1  0  0  0  0
 37 49  1  0  0  0  0
 38 66  1  0  0  0  0
 39 41  1  0  0  0  0
 40 42  1  0  0  0  0
 40 44  1  0  0  0  0
 41 48  1  0  0  0  0
 42 50  1  0  0  0  0
 43 45  1  0  0  0  0
 43 51  1  0  0  0  0
 44 67  1  0  0  0  0
 45 65  1  0  0  0  0
 46 50  1  0  0  0  0
 46 67  1  0  0  0  0
 47 51  1  0  0  0  0
 47 65  1  0  0  0  0
 48 71  1  0  0  0  0
 49 66  1  0  0  0  0
 50 64  1  0  0  0  0
 51 58  1  0  0  0  0
 51 82  1  0  0  0  0
 52 60  1  0  0  0  0
 53 61  1  0  0  0  0
 54 61  1  0  0  0  0
 55 61  1  0  0  0  0
 56 73  1  0  0  0  0
 57 82  1  0  0  0  0
 58 81  1  0  0  0  0
 59 61  1  0  0  0  0
 59 72  1  0  0  0  0
 60 73  1  0  0  0  0
 62 64  1  0  0  0  0
 63 79  1  0  0  0  0
M  CHG  1  73   1
M  ISO  4  35 100  58 101  70 100  81 101
M  END
> <Batch ID>
0152

> <Smiles>
CNC(C)C(=O)NC(C(=O)N1Cc2cc([101O:1][101CH2:1]C3(OC)CCN(c4cc([100NH:0][100C:0](=O)N5CCCC(n6nc(-c7ccc(Oc8ccc(F)cc8F)cc7)c(C(N)=O)c6N)C5)on4)C3)ccc2CC1C(=O)NC1CCCc2ccccc21)C(C)(C)C

> <Shape>
0.228

> <Color>
0.097

> <Negative vol penalty>
0.000

$$$$

  -OEChem-04052303273D

 82 90  0     1  0  0  0  0  0999 V2000
  -29.7930  -38.5507   23.6195 C   0  0  0  0  0  0  0  0  0  0  0  0
  -30.2385  -37.3470   23.0828 C   0  0  0  0  0  0  0  0  0  0  0  0
  -24.5825   -9.6090   21.6504 C   0  0  0  0  0  0  0  0  0  0  0  0
  -24.7244  -10.8248   23.7334 C   0  0  0  0  0  0  0  0  0  0  0  0
  -28.8336  -38.5488   24.6312 C   0  0  0  0  0  0  0  0  0  0  0  0
  -29.7256  -36.1407   23.5581 C   0  0  0  0  0  0  0  0  0  0  0  0
  -28.7048  -31.0435   20.3205 C   0  0  0  0  0  0  0  0  0  0  0  0
  -24.2708   -8.4442   22.3515 C   0  0  0  0  0  0  0  0  0  0  0  0
  -24.4127   -9.6599   24.4345 C   0  0  0  0  0  0  0  0  0  0  0  0
  -29.4427  -29.8717   20.1583 C   0  0  0  0  0  0  0  0  0  0  0  0
  -21.5591   -7.0874   23.8477 C   0  0  0  0  0  0  0  0  0  0  0  0
  -20.5119   -6.3017   23.3664 C   0  0  0  0  0  0  0  0  0  0  0  0
  -29.2430  -20.3108   20.2397 C   0  0  0  0  0  0  0  0  0  0  0  0
  -28.1357  -28.8162   21.8895 C   0  0  0  0  0  0  0  0  0  0  0  0
  -22.0327   -4.4451   23.0882 C   0  0  0  0  0  0  0  0  0  0  0  0
  -27.4019  -21.6523   20.7013 C   0  0  0  0  0  0  0  0  0  0  0  0
  -24.8093  -10.7994   22.3414 C   0  0  0  0  0  0  0  0  0  0  0  0
  -28.7098  -21.6318   20.2693 C   0  0  0  0  0  0  0  0  0  0  0  0
  -24.2304  -12.9625   21.1194 C   0  0  0  0  0  0  0  0  0  0  0  0
  -28.3016  -37.3422   25.1125 C   0  0  0  0  0  0  0  0  0  0  0  0
  -27.6823  -31.1140   21.2776 C   0  0  0  0  0  0  0  0  0  0  0  0
  -28.7591  -36.1226   24.5781 C   0  0  0  0  0  0  0  0  0  0  0  0
  -27.3846  -29.9892   22.0601 C   0  0  0  0  0  0  0  0  0  0  0  0
  -24.1859   -8.4695   23.7435 C   0  0  0  0  0  0  0  0  0  0  0  0
  -29.1602  -28.7588   20.9449 C   0  0  0  0  0  0  0  0  0  0  0  0
  -22.8431   -6.5520   23.9492 C   0  0  0  0  0  0  0  0  0  0  0  0
  -20.7487   -4.9806   22.9867 C   0  0  0  0  0  0  0  0  0  0  0  0
  -23.0799   -5.2309   23.5695 C   0  0  0  0  0  0  0  0  0  0  0  0
  -25.1318  -12.0029   21.6178 C   0  0  0  0  0  0  0  0  0  0  0  0
  -25.0291  -13.9035   20.5168 C   0  0  0  0  0  0  0  0  0  0  0  0
  -28.3224  -19.3719   20.6506 C   0  0  0  0  0  0  0  0  0  0  0  0
  -29.4714  -22.8368   19.8817 C   0  0  0  0  0  0  0  0  0  0  0  0
  -22.7991  -13.0000   21.1944 C   0  0  0  0  0  0  0  0  0  0  0  0
  -27.1615  -32.8651   23.8787 C   0  0  0  0  0  0  0  0  0  0  0  0
  -24.2906  -31.3554   23.8458 C   0  0  0  0  0  0  0  0  0  0  0  0
  -29.7863  -25.2763   20.2286 C   0  0  0  0  0  0  0  0  0  0  0  0
  -22.4500  -28.6517   22.8715 C   0  0  0  0  0  0  0  0  0  0  0  0
  -29.5376  -17.1709   20.4927 C   0  0  0  0  0  0  0  0  0  0  0  0
  -27.3010  -37.3886   26.2401 C   0  0  0  0  0  0  0  0  0  0  0  0
  -26.8778  -32.3767   21.4217 C   0  0  0  0  0  0  0  0  0  0  0  0
  -26.2836  -30.0068   23.0876 C   0  0  0  0  0  0  0  0  0  0  0  0
  -26.5337  -36.0824   26.4276 C   0  0  0  0  0  0  0  0  0  0  0  0
  -29.9661  -13.8082   19.4038 C   0  0  0  0  0  0  0  0  0  0  0  0
  -27.4890  -34.8935   26.4007 C   0  0  0  0  0  0  0  0  0  0  0  0
  -28.6725  -13.1177   19.8417 C   0  0  0  0  0  0  0  0  0  0  0  0
  -30.4250  -14.8509   20.4216 C   0  0  0  0  0  0  0  0  0  0  0  0
  -28.1173  -15.1565   21.2280 C   0  0  0  0  0  0  0  0  0  0  0  0
  -28.2085  -34.7944   25.0502 C   0  0  1  0  0  0  0  0  0  0  0  0
  -26.2001  -32.5013   22.7827 C   0  0  1  0  0  0  0  0  0  0  0  0
  -27.5806  -14.1436   20.2035 C   0  0  2  0  0  0  0  0  0  0  0  0
  -20.1407  -27.6818   23.0254 C   0  0  0  0  0  0  0  0  0  0  0  0
  -24.8321  -30.5305   26.7330 C   0  0  0  0  0  0  0  0  0  0  0  0
  -23.0118  -28.8256   26.5140 C   0  0  0  0  0  0  0  0  0  0  0  0
  -22.4811  -31.2515   26.2775 C   0  0  0  0  0  0  0  0  0  0  0  0
  -22.1051  -28.7073   19.9326 C   0  0  0  0  0  0  0  0  0  0  0  0
  -29.2120  -26.3845   21.0705 C   0  0  0  0  0  0  0  0  0  1  0  0
  -23.7493  -30.0747   24.4339 C   0  0  1  0  0  0  0  0  0  0  0  0
  -21.0885  -28.5460   22.2084 C   0  0  2  0  0  0  0  0  0  0  0  0
  -23.5407  -30.1705   25.9717 C   0  0  0  0  0  0  0  0  0  0  0  0
  -26.4056  -12.3063   21.3545 N   0  0  0  0  0  0  0  0  0  0  0  0
  -26.3104  -13.4671   20.6840 N   0  0  0  0  0  0  0  0  0  0  0  0
  -25.5295  -31.2667   23.1954 N   0  0  0  0  0  0  0  0  0  0  0  0
  -29.3405  -15.7912   20.7123 N   0  0  0  0  0  0  0  0  0  0  0  0
  -24.7534  -15.0533   19.8653 N   0  0  0  0  0  0  0  0  0  0  0  0
  -22.1368  -11.9530   21.8497 N   0  0  0  0  0  0  0  0  0  0  0  0
  -28.4256  -17.9641   20.7736 N   0  0  0  0  0  0  0  0  0  0  0  0
  -29.1662  -23.9967   20.4797 N   0  0  0  0  0  0  0  0  0  0  0  0
  -27.3304  -34.2258   24.0502 N   0  0  0  0  0  0  0  0  0  0  0  0
  -22.5372  -29.7617   23.6848 N   0  0  0  0  0  0  0  0  0  0  0  0
  -30.4227  -22.6989   18.9585 N   0  3  0  0  0  0  0  0  0  0  0  0
  -21.2189  -27.9462   20.8504 N   0  3  0  0  0  0  0  0  0  0  0  0
  -22.1265  -13.9260   20.6809 O   0  0  0  0  0  0  0  0  0  0  0  0
  -27.7083  -31.9771   24.5221 O   0  0  0  0  0  0  0  0  0  0  0  0
  -23.6348  -32.3946   23.9530 O   0  0  0  0  0  0  0  0  0  0  0  0
  -30.6839  -25.4083   19.4091 O   0  0  0  0  0  0  0  0  0  0  0  0
  -23.3452  -27.8296   22.6893 O   0  0  0  0  0  0  0  0  0  0  0  0
  -30.6048  -17.6131   20.0595 O   0  0  0  0  0  0  0  0  0  0  0  0
  -23.8816   -7.3331   24.4279 O   0  0  0  0  0  0  0  0  0  0  0  0
  -29.8793  -27.6141   20.7891 O   0  0  0  0  0  0  0  0  0  1  0  0
  -19.7426   -4.2257   22.5260 F   0  0  0  0  0  0  0  0  0  0  0  0
  -24.3111   -4.7106   23.6659 F   0  0  0  0  0  0  0  0  0  0  0  0
  -26.8221  -20.0835   21.0692 S   0  0  0  0  0  0  0  0  0  0  0  0
  1  2  1  0  0  0  0
  1  5  2  0  0  0  0
  2  6  2  0  0  0  0
  3  8  2  0  0  0  0
  3 17  1  0  0  0  0
  4  9  1  0  0  0  0
  4 17  2  0  0  0  0
  5 20  1  0  0  0  0
  6 22  1  0  0  0  0
  7 10  2  0  0  0  0
  7 21  1  0  0  0  0
  8 24  1  0  0  0  0
  9 24  2  0  0  0  0
 10 25  1  0  0  0  0
 11 12  2  0  0  0  0
 11 26  1  0  0  0  0
 12 27  1  0  0  0  0
 13 18  1  0  0  0  0
 13 31  2  0  0  0  0
 14 23  1  0  0  0  0
 14 25  2  0  0  0  0
 15 27  2  0  0  0  0
 15 28  1  0  0  0  0
 16 18  2  0  0  0  0
 16 82  1  0  0  0  0
 17 29  1  0  0  0  0
 18 32  1  0  0  0  0
 19 29  1  0  0  0  0
 19 30  2  0  0  0  0
 19 33  1  0  0  0  0
 20 22  2  0  0  0  0
 20 39  1  0  0  0  0
 21 23  2  0  0  0  0
 21 40  1  0  0  0  0
 22 48  1  0  0  0  0
 23 41  1  0  0  0  0
 24 78  1  0  0  0  0
 25 79  1  0  0  0  0
 26 28  2  0  0  0  0
 26 78  1  0  0  0  0
 27 80  1  0  0  0  0
 28 81  1  0  0  0  0
 29 60  2  0  0  0  0
 30 61  1  0  0  0  0
 30 64  1  0  0  0  0
 31 66  1  0  0  0  0
 31 82  1  0  0  0  0
 32 67  1  0  0  0  0
 32 70  2  0  0  0  0
 33 65  1  0  0  0  0
 33 72  2  0  0  0  0
 34 49  1  0  0  0  0
 34 68  1  0  0  0  0
 34 73  2  0  0  0  0
 35 57  1  0  0  0  0
 35 62  1  0  0  0  0
 35 74  2  0  0  0  0
 36 56  1  0  0  0  0
 36 67  1  0  0  0  0
 36 75  2  0  0  0  0
 37 58  1  0  0  0  0
 37 69  1  0  0  0  0
 37 76  2  0  0  0  0
 38 63  1  0  0  0  0
 38 66  1  0  0  0  0
 38 77  2  0  0  0  0
 39 42  1  0  0  0  0
 40 49  1  0  0  0  0
 41 62  1  0  0  0  0
 42 44  1  0  0  0  0
 43 45  1  0  0  0  0
 43 46  1  0  0  0  0
 44 48  1  0  0  0  0
 45 50  1  0  0  0  0
 46 63  1  0  0  0  0
 47 50  1  0  0  0  0
 47 63  1  0  0  0  0
 48 68  1  0  0  0  0
 49 62  1  0  0  0  0
 50 61  1  0  0  0  0
 51 58  1  0  0  0  0
 52 59  1  0  0  0  0
 53 59  1  0  0  0  0
 54 59  1  0  0  0  0
 55 71  1  0  0  0  0
 56 79  1  0  0  0  0
 57 59  1  0  0  0  0
 57 69  1  0  0  0  0
 58 71  1  0  0  0  0
 60 61  1  0  0  0  0
M  CHG  2  70   1  71   1
M  ISO  4  38 100  56 101  66 100  79 101
M  END
> <Batch ID>
0152

> <Smiles>
CNC(C)C(=O)NC(C(=O)N1Cc2cc([101O:1][101CH2:1]C(=O)NC(=N)c3csc([100NH:0][100C:0](=O)N4CCCC(n5nc(-c6ccc(Oc7ccc(F)cc7F)cc6)c(C(N)=O)c5N)C4)c3)ccc2CC1C(=O)NC1CCCc2ccccc21)C(C)(C)C

> <Shape>
0.350

> <Color>
0.140

> <Negative vol penalty>
0.000

$$$$

  -OEChem-04052303273D

 78 86  0     1  0  0  0  0  0999 V2000
  -30.0856  -24.8585   17.7455 C   0  0  0  0  0  0  0  0  0  0  0  0
  -28.6985  -24.9463   17.8058 C   0  0  0  0  0  0  0  0  0  0  0  0
  -27.0561  -16.2403   20.6223 C   0  0  0  0  0  0  0  0  0  0  0  0
  -24.7376  -16.1397   19.9502 C   0  0  0  0  0  0  0  0  0  0  0  0
  -30.8598  -25.3353   18.8025 C   0  0  0  0  0  0  0  0  0  0  0  0
  -28.0847  -25.5101   18.9238 C   0  0  0  0  0  0  0  0  0  0  0  0
  -22.9519  -28.8495   19.0136 C   0  0  0  0  0  0  0  0  0  0  0  0
  -27.0850  -14.8500   20.7310 C   0  0  0  0  0  0  0  0  0  0  0  0
  -24.7665  -14.7493   20.0588 C   0  0  0  0  0  0  0  0  0  0  0  0
  -21.6276  -28.5264   19.3064 C   0  0  0  0  0  0  0  0  0  0  0  0
  -26.0792  -12.5039   22.9465 C   0  0  0  0  0  0  0  0  0  0  0  0
  -26.6850  -11.9554   24.0769 C   0  0  0  0  0  0  0  0  0  0  0  0
  -21.9483  -29.2905   21.5718 C   0  0  0  0  0  0  0  0  0  0  0  0
  -28.2727  -10.8030   22.6668 C   0  0  0  0  0  0  0  0  0  0  0  0
  -19.7278  -25.3318   20.5250 C   0  0  0  0  0  0  0  0  0  0  0  0
  -25.8824  -16.8852   20.2319 C   0  0  0  0  0  0  0  0  0  0  0  0
  -26.1487  -19.0917   18.9797 C   0  0  0  0  0  0  0  0  0  0  0  0
  -30.2556  -25.9139   19.9298 C   0  0  0  0  0  0  0  0  0  0  0  0
  -23.7888  -29.3863   20.0024 C   0  0  0  0  0  0  0  0  0  0  0  0
  -28.8515  -25.9938   19.9975 C   0  0  0  0  0  0  0  0  0  0  0  0
  -23.2821  -29.6220   21.2884 C   0  0  0  0  0  0  0  0  0  0  0  0
  -25.9402  -14.1045   20.4493 C   0  0  0  0  0  0  0  0  0  0  0  0
  -21.1265  -28.7442   20.5864 C   0  0  0  0  0  0  0  0  0  0  0  0
  -26.5701  -12.2019   21.6762 C   0  0  0  0  0  0  0  0  0  0  0  0
  -27.7818  -11.1050   23.9371 C   0  0  0  0  0  0  0  0  0  0  0  0
  -27.6669  -11.3515   21.5364 C   0  0  0  0  0  0  0  0  0  0  0  0
  -25.8518  -18.3214   20.1200 C   0  0  0  0  0  0  0  0  0  0  0  0
  -25.9730  -20.3913   19.3880 C   0  0  0  0  0  0  0  0  0  0  0  0
  -19.8261  -26.1036   21.6561 C   0  0  0  0  0  0  0  0  0  0  0  0
  -20.0629  -24.0349   22.1464 C   0  0  0  0  0  0  0  0  0  0  0  0
  -26.5475  -18.6702   17.6686 C   0  0  0  0  0  0  0  0  0  0  0  0
  -26.4845  -28.4563   21.4068 C   0  0  0  0  0  0  0  0  0  0  0  0
  -26.3291  -31.3947   22.7721 C   0  0  0  0  0  0  0  0  0  0  0  0
  -24.4066  -34.0481   23.7263 C   0  0  0  0  0  0  0  0  0  0  0  0
  -22.6812  -22.8954   23.7175 C   0  0  0  0  0  0  0  0  0  0  0  0
  -31.1321  -26.3724   21.0683 C   0  0  0  0  0  0  0  0  0  0  0  0
  -25.2073  -29.7544   19.6634 C   0  0  0  0  0  0  0  0  0  0  0  0
  -24.1337  -30.2150   22.3800 C   0  0  0  0  0  0  0  0  0  0  0  0
  -30.4189  -27.2962   22.0522 C   0  0  0  0  0  0  0  0  0  0  0  0
  -26.2059  -23.1554   23.2862 C   0  0  0  0  0  0  0  0  0  0  0  0
  -29.0501  -26.7314   22.4187 C   0  0  0  0  0  0  0  0  0  0  0  0
  -26.5416  -22.0155   22.3230 C   0  0  0  0  0  0  0  0  0  0  0  0
  -25.0951  -22.7641   24.2584 C   0  0  0  0  0  0  0  0  0  0  0  0
  -24.2011  -21.1164   22.6585 C   0  0  0  0  0  0  0  0  0  0  0  0
  -28.1497  -26.6212   21.1824 C   0  0  1  0  0  0  0  0  0  0  0  0
  -26.1170  -29.8171   20.8864 C   0  0  1  0  0  0  0  0  0  0  0  0
  -25.2773  -21.4828   21.6222 C   0  0  2  0  0  0  0  0  0  0  0  0
  -24.5569  -36.2859   24.8519 C   0  0  0  0  0  0  0  0  0  0  0  0
  -26.5870  -30.0125   25.4801 C   0  0  0  0  0  0  0  0  0  0  0  0
  -25.7881  -32.1268   26.5571 C   0  0  0  0  0  0  0  0  0  0  0  0
  -27.9150  -32.1196   25.2536 C   0  0  0  0  0  0  0  0  0  0  0  0
  -23.4127  -35.4550   21.3197 C   0  0  0  0  0  0  0  0  0  0  0  0
  -20.2867  -22.9087   23.0653 C   0  0  0  0  0  0  0  0  0  0  0  0
  -25.7096  -31.9587   24.0279 C   0  0  1  0  0  0  0  0  0  0  0  0
  -24.5815  -35.5426   23.5254 C   0  0  2  0  0  0  0  0  0  0  0  0
  -26.4842  -31.5414   25.3099 C   0  0  0  0  0  0  0  0  0  0  0  0
  -19.8806  -24.0071   20.8455 N   0  0  0  0  0  0  0  0  0  0  0  0
  -25.5133  -19.0692   21.1736 N   0  0  0  0  0  0  0  0  0  0  0  0
  -25.5966  -20.3230   20.6971 N   0  0  0  0  0  0  0  0  0  0  0  0
  -25.5157  -30.5524   22.0009 N   0  0  0  0  0  0  0  0  0  0  0  0
  -23.9244  -22.2690   23.5301 N   0  0  0  0  0  0  0  0  0  0  0  0
  -26.1055  -21.5743   18.7513 N   0  0  0  0  0  0  0  0  0  0  0  0
  -26.6801  -17.2973   17.4196 N   0  0  0  0  0  0  0  0  0  0  0  0
  -19.7491  -27.4825   21.8918 N   0  0  0  0  0  0  0  0  0  1  0  0
  -27.6181  -27.9196   20.8270 N   0  0  0  0  0  0  0  0  0  0  0  0
  -25.6200  -33.4008   23.8268 N   0  0  0  0  0  0  0  0  0  0  0  0
  -21.6253  -22.3678   22.9844 N   0  0  0  0  0  0  0  0  0  0  0  0
  -23.4902  -36.0807   22.6649 N   0  3  0  0  0  0  0  0  0  0  0  0
  -26.7954  -19.4875   16.7498 O   0  0  0  0  0  0  0  0  0  0  0  0
  -25.7917  -27.9327   22.2715 O   0  0  0  0  0  0  0  0  0  0  0  0
  -27.4896  -31.6963   22.4822 O   0  0  0  0  0  0  0  0  0  0  0  0
  -23.3039  -33.5093   23.7915 O   0  0  0  0  0  0  0  0  0  0  0  0
  -22.5251  -23.8572   24.4774 O   0  0  0  0  0  0  0  0  0  0  0  0
  -20.0433  -25.2724   22.7131 O   0  0  0  0  0  0  0  0  0  0  0  0
  -25.9681  -12.7478   20.5550 O   0  0  0  0  0  0  0  0  0  0  0  0
  -19.8345  -28.4291   20.8750 O   0  0  0  0  0  0  0  0  0  1  0  0
  -28.3644  -10.5796   25.0227 F   0  0  0  0  0  0  0  0  0  0  0  0
  -28.1437  -11.0587   20.3188 F   0  0  0  0  0  0  0  0  0  0  0  0
  1  2  1  0  0  0  0
  1  5  2  0  0  0  0
  2  6  2  0  0  0  0
  3  8  2  0  0  0  0
  3 16  1  0  0  0  0
  4  9  1  0  0  0  0
  4 16  2  0  0  0  0
  5 18  1  0  0  0  0
  6 20  1  0  0  0  0
  7 10  2  0  0  0  0
  7 19  1  0  0  0  0
  8 22  1  0  0  0  0
  9 22  2  0  0  0  0
 10 23  1  0  0  0  0
 11 12  2  0  0  0  0
 11 24  1  0  0  0  0
 12 25  1  0  0  0  0
 13 21  1  0  0  0  0
 13 23  2  0  0  0  0
 14 25  2  0  0  0  0
 14 26  1  0  0  0  0
 15 29  2  0  0  0  0
 15 57  1  0  0  0  0
 16 27  1  0  0  0  0
 17 27  1  0  0  0  0
 17 28  2  0  0  0  0
 17 31  1  0  0  0  0
 18 20  2  0  0  0  0
 18 36  1  0  0  0  0
 19 21  2  0  0  0  0
 19 37  1  0  0  0  0
 20 45  1  0  0  0  0
 21 38  1  0  0  0  0
 22 75  1  0  0  0  0
 23 76  1  0  0  0  0
 24 26  2  0  0  0  0
 24 75  1  0  0  0  0
 25 77  1  0  0  0  0
 26 78  1  0  0  0  0
 27 58  2  0  0  0  0
 28 59  1  0  0  0  0
 28 62  1  0  0  0  0
 29 64  1  0  0  0  0
 29 74  1  0  0  0  0
 30 53  1  0  0  0  0
 30 57  2  0  0  0  0
 30 74  1  0  0  0  0
 31 63  1  0  0  0  0
 31 69  2  0  0  0  0
 32 46  1  0  0  0  0
 32 65  1  0  0  0  0
 32 70  2  0  0  0  0
 33 54  1  0  0  0  0
 33 60  1  0  0  0  0
 33 71  2  0  0  0  0
 34 55  1  0  0  0  0
 34 66  1  0  0  0  0
 34 72  2  0  0  0  0
 35 61  1  0  0  0  0
 35 67  1  0  0  0  0
 35 73  2  0  0  0  0
 36 39  1  0  0  0  0
 37 46  1  0  0  0  0
 38 60  1  0  0  0  0
 39 41  1  0  0  0  0
 40 42  1  0  0  0  0
 40 43  1  0  0  0  0
 41 45  1  0  0  0  0
 42 47  1  0  0  0  0
 43 61  1  0  0  0  0
 44 47  1  0  0  0  0
 44 61  1  0  0  0  0
 45 65  1  0  0  0  0
 46 60  1  0  0  0  0
 47 59  1  0  0  0  0
 48 55  1  0  0  0  0
 49 56  1  0  0  0  0
 50 56  1  0  0  0  0
 51 56  1  0  0  0  0
 52 68  1  0  0  0  0
 53 67  1  0  0  0  0
 54 56  1  0  0  0  0
 54 66  1  0  0  0  0
 55 68  1  0  0  0  0
 58 59  1  0  0  0  0
 64 76  1  0  0  0  0
M  CHG  1  68   1
M  ISO  4  35 100  64 101  67 100  76 101
M  END
> <Batch ID>
0152

> <Smiles>
CNC(C)C(=O)NC(C(=O)N1Cc2cc([101O:1][101NH:1]c3cnc(C[100NH:0][100C:0](=O)N4CCCC(n5nc(-c6ccc(Oc7ccc(F)cc7F)cc6)c(C(N)=O)c5N)C4)o3)ccc2CC1C(=O)NC1CCCc2ccccc21)C(C)(C)C

> <Shape>
0.250

> <Color>
0.058

> <Negative vol penalty>
0.000

$$$$

  -OEChem-04052303273D

 83 92  0     1  0  0  0  0  0999 V2000
  -29.6824   -5.8221   38.1389 C   0  0  0  0  0  0  0  0  0  0  0  0
  -30.2907   -7.0357   37.8345 C   0  0  0  0  0  0  0  0  0  0  0  0
  -23.2286   -9.8293   19.9113 C   0  0  0  0  0  0  0  0  0  0  0  0
  -23.7920   -9.9245   22.2588 C   0  0  0  0  0  0  0  0  0  0  0  0
  -29.6689   -4.7948   37.1964 C   0  0  0  0  0  0  0  0  0  0  0  0
  -30.8868   -7.2223   36.5878 C   0  0  0  0  0  0  0  0  0  0  0  0
  -32.1296  -12.3087   31.6990 C   0  0  0  0  0  0  0  0  0  0  0  0
  -22.5039   -8.6583   20.1327 C   0  0  0  0  0  0  0  0  0  0  0  0
  -23.0672   -8.7535   22.4802 C   0  0  0  0  0  0  0  0  0  0  0  0
  -33.1764  -12.8631   30.9637 C   0  0  0  0  0  0  0  0  0  0  0  0
  -19.8271   -7.8611   22.8352 C   0  0  0  0  0  0  0  0  0  0  0  0
  -18.9759   -7.8266   23.9397 C   0  0  0  0  0  0  0  0  0  0  0  0
  -33.0226  -11.0453   29.3854 C   0  0  0  0  0  0  0  0  0  0  0  0
  -32.3832  -14.5759   24.2856 C   0  0  0  0  0  0  0  0  0  0  0  0
  -20.2126   -5.9538   24.8344 C   0  0  0  0  0  0  0  0  0  0  0  0
  -23.8728  -10.4624   20.9744 C   0  0  0  0  0  0  0  0  0  0  0  0
  -24.1420  -12.9937   20.8081 C   0  0  0  0  0  0  0  0  0  0  0  0
  -30.2567   -4.9722   35.9339 C   0  0  0  0  0  0  0  0  0  0  0  0
  -31.5277  -11.1106   31.2882 C   0  0  0  0  0  0  0  0  0  0  0  0
  -30.8823   -6.1959   35.6280 C   0  0  0  0  0  0  0  0  0  0  0  0
  -31.9666  -10.4791   30.1158 C   0  0  0  0  0  0  0  0  0  0  0  0
  -31.3445  -15.0882   23.4828 C   0  0  0  0  0  0  0  0  0  0  0  0
  -22.4231   -8.1204   21.4171 C   0  0  0  0  0  0  0  0  0  0  0  0
  -33.6250  -12.2299   29.8083 C   0  0  0  0  0  0  0  0  0  0  0  0
  -20.8710   -6.9419   22.7303 C   0  0  0  0  0  0  0  0  0  0  0  0
  -19.1686   -6.8730   24.9393 C   0  0  0  0  0  0  0  0  0  0  0  0
  -21.0638   -5.9883   23.7299 C   0  0  0  0  0  0  0  0  0  0  0  0
  -24.6221  -11.6718   20.7462 C   0  0  0  0  0  0  0  0  0  0  0  0
  -30.9263  -16.3218   23.8916 C   0  0  0  0  0  0  0  0  0  0  0  0
  -25.2362  -13.7704   20.5149 C   0  0  0  0  0  0  0  0  0  0  0  0
  -32.6944  -15.4694   25.2994 C   0  0  0  0  0  0  0  0  0  0  0  0
  -22.8248  -13.4764   21.1042 C   0  0  0  0  0  0  0  0  0  0  0  0
  -31.2191   -8.2084   32.5476 C   0  0  0  0  0  0  0  0  0  0  0  0
  -29.3340   -7.7093   29.9553 C   0  0  0  0  0  0  0  0  0  0  0  0
  -34.5419  -14.3503   26.5949 C   0  0  0  0  0  0  0  0  0  0  0  0
  -28.5069   -8.5860   26.7625 C   0  0  0  0  0  0  0  0  0  0  0  0
  -31.0013  -13.6029   21.5776 C   0  0  0  0  0  0  0  0  0  0  0  0
  -30.2585   -3.8163   34.9651 C   0  0  0  0  0  0  0  0  0  0  0  0
  -30.3818  -10.5396   32.0778 C   0  0  0  0  0  0  0  0  0  0  0  0
  -31.3405   -9.2017   29.6210 C   0  0  0  0  0  0  0  0  0  0  0  0
  -29.8681  -16.9225   23.0470 C   0  0  0  0  0  0  0  0  0  0  0  0
  -30.5840   -4.2244   33.5306 C   0  0  0  0  0  0  0  0  0  0  0  0
  -29.5662  -12.9974   18.2493 C   0  0  0  0  0  0  0  0  0  0  0  0
  -31.7946   -5.1520   33.5011 C   0  0  0  0  0  0  0  0  0  0  0  0
  -28.1056  -12.6749   18.5729 C   0  0  0  0  0  0  0  0  0  0  0  0
  -29.6124  -15.7631   22.0363 C   0  0  0  0  0  0  0  0  0  0  0  0
  -30.5081  -12.5852   19.3787 C   0  0  0  0  0  0  0  0  0  0  0  0
  -28.6842  -12.7741   21.0238 C   0  0  0  0  0  0  0  0  0  0  0  0
  -31.5178   -6.4452   34.2775 C   0  0  1  0  0  0  0  0  0  0  0  0
  -30.1846   -9.0443   31.8484 C   0  0  1  0  0  0  0  0  0  0  0  0
  -27.6985  -13.2439   19.9459 C   0  0  2  0  0  0  0  0  0  0  0  0
  -26.9516   -7.9722   24.8913 C   0  0  0  0  0  0  0  0  0  0  0  0
  -31.0503   -5.2642   29.3340 C   0  0  0  0  0  0  0  0  0  0  0  0
  -30.0874   -5.2622   27.0230 C   0  0  0  0  0  0  0  0  0  0  0  0
  -28.5954   -4.9292   28.9942 C   0  0  0  0  0  0  0  0  0  0  0  0
  -27.2476  -11.2642   26.7757 C   0  0  0  0  0  0  0  0  0  0  0  0
  -35.3995  -14.6707   27.8139 C   0  0  0  0  0  0  0  0  0  0  0  0
  -34.7865  -14.1875   29.1195 C   0  0  0  0  0  0  0  0  0  1  0  0
  -29.5627   -7.2214   28.5451 C   0  0  1  0  0  0  0  0  0  0  0  0
  -27.1644   -8.8587   26.1085 C   0  0  2  0  0  0  0  0  0  0  0  0
  -29.8373   -5.6923   28.4842 C   0  0  0  0  0  0  0  0  0  0  0  0
  -25.9201  -11.6085   20.4378 N   0  0  0  0  0  0  0  0  0  0  0  0
  -26.2650  -12.9004   20.3031 N   0  0  0  0  0  0  0  0  0  0  0  0
  -30.6209  -14.6936   22.3587 N   0  0  0  0  0  0  0  0  0  0  0  0
  -30.2276   -8.6794   30.4309 N   0  0  0  0  0  0  0  0  0  0  0  0
  -30.0564  -13.1333   20.6563 N   0  0  0  0  0  0  0  0  0  0  0  0
  -25.4090  -15.1059   20.4200 N   0  0  0  0  0  0  0  0  0  0  0  0
  -21.8179  -12.5422   21.3829 N   0  0  0  0  0  0  0  0  0  0  0  0
  -33.6197  -15.3924   26.3038 N   0  0  0  0  0  0  0  0  0  0  0  0
  -30.6991   -7.3419   33.4901 N   0  0  0  0  0  0  0  0  0  0  0  0
  -28.4032   -7.6517   27.7713 N   0  0  0  0  0  0  0  0  0  0  0  0
  -27.0793  -10.2817   25.6742 N   0  3  0  0  0  0  0  0  0  0  0  0
  -22.5451  -14.6992   21.1049 O   0  0  0  0  0  0  0  0  0  0  0  0
  -32.4013   -8.3388   32.2527 O   0  0  0  0  0  0  0  0  0  0  0  0
  -28.3927   -7.2518   30.6083 O   0  0  0  0  0  0  0  0  0  0  0  0
  -34.6647  -13.3038   25.9672 O   0  0  0  0  0  0  0  0  0  0  0  0
  -29.5445   -9.1432   26.4110 O   0  0  0  0  0  0  0  0  0  0  0  0
  -32.1348  -13.1101   21.6308 O   0  0  0  0  0  0  0  0  0  0  0  0
  -21.7157   -6.9779   21.6336 O   0  0  0  0  0  0  0  0  0  0  0  0
  -34.6542  -12.7724   29.0841 O   0  0  0  0  0  0  0  0  0  1  0  0
  -18.3520   -6.8410   26.0006 F   0  0  0  0  0  0  0  0  0  0  0  0
  -22.0657   -5.1034   23.6352 F   0  0  0  0  0  0  0  0  0  0  0  0
  -31.7298  -16.9052   25.2382 S   0  0  0  0  0  0  0  0  0  0  0  0
  1  2  1  0  0  0  0
  1  5  2  0  0  0  0
  2  6  2  0  0  0  0
  3  8  2  0  0  0  0
  3 16  1  0  0  0  0
  4  9  1  0  0  0  0
  4 16  2  0  0  0  0
  5 18  1  0  0  0  0
  6 20  1  0  0  0  0
  7 10  2  0  0  0  0
  7 19  1  0  0  0  0
  8 23  1  0  0  0  0
  9 23  2  0  0  0  0
 10 24  1  0  0  0  0
 11 12  2  0  0  0  0
 11 25  1  0  0  0  0
 12 26  1  0  0  0  0
 13 21  1  0  0  0  0
 13 24  2  0  0  0  0
 14 22  1  0  0  0  0
 14 31  2  0  0  0  0
 15 26  2  0  0  0  0
 15 27  1  0  0  0  0
 16 28  1  0  0  0  0
 17 28  1  0  0  0  0
 17 30  2  0  0  0  0
 17 32  1  0  0  0  0
 18 20  2  0  0  0  0
 18 38  1  0  0  0  0
 19 21  2  0  0  0  0
 19 39  1  0  0  0  0
 20 49  1  0  0  0  0
 21 40  1  0  0  0  0
 22 29  2  0  0  0  0
 22 64  1  0  0  0  0
 23 79  1  0  0  0  0
 24 80  1  0  0  0  0
 25 27  2  0  0  0  0
 25 79  1  0  0  0  0
 26 81  1  0  0  0  0
 27 82  1  0  0  0  0
 28 62  2  0  0  0  0
 29 41  1  0  0  0  0
 29 83  1  0  0  0  0
 30 63  1  0  0  0  0
 30 67  1  0  0  0  0
 31 69  1  0  0  0  0
 31 83  1  0  0  0  0
 32 68  1  0  0  0  0
 32 73  2  0  0  0  0
 33 50  1  0  0  0  0
 33 70  1  0  0  0  0
 33 74  2  0  0  0  0
 34 59  1  0  0  0  0
 34 65  1  0  0  0  0
 34 75  2  0  0  0  0
 35 57  1  0  0  0  0
 35 69  1  0  0  0  0
 35 76  2  0  0  0  0
 36 60  1  0  0  0  0
 36 71  1  0  0  0  0
 36 77  2  0  0  0  0
 37 64  1  0  0  0  0
 37 66  1  0  0  0  0
 37 78  2  0  0  0  0
 38 42  1  0  0  0  0
 39 50  1  0  0  0  0
 40 65  1  0  0  0  0
 41 46  1  0  0  0  0
 42 44  1  0  0  0  0
 43 45  1  0  0  0  0
 43 47  1  0  0  0  0
 44 49  1  0  0  0  0
 45 51  1  0  0  0  0
 46 64  1  0  0  0  0
 47 66  1  0  0  0  0
 48 51  1  0  0  0  0
 48 66  1  0  0  0  0
 49 70  1  0  0  0  0
 50 65  1  0  0  0  0
 51 63  1  0  0  0  0
 52 60  1  0  0  0  0
 53 61  1  0  0  0  0
 54 61  1  0  0  0  0
 55 61  1  0  0  0  0
 56 72  1  0  0  0  0
 57 58  1  0  0  0  0
 58 80  1  0  0  0  0
 59 61  1  0  0  0  0
 59 71  1  0  0  0  0
 60 72  1  0  0  0  0
 62 63  1  0  0  0  0
M  CHG  1  72   1
M  ISO  4  37 100  58 101  64 100  80 101
M  END
> <Batch ID>
0152

> <Smiles>
CNC(C)C(=O)NC(C(=O)N1Cc2cc([101O:1][101CH2:1]CC(=O)Nc3cc4c(s3)CC[100N:0]4[100C:0](=O)N3CCCC(n4nc(-c5ccc(Oc6ccc(F)cc6F)cc5)c(C(N)=O)c4N)C3)ccc2CC1C(=O)NC1CCCc2ccccc21)C(C)(C)C

> <Shape>
0.154

> <Color>
0.173

> <Negative vol penalty>
0.000

$$$$

  -OEChem-04052303273D

 83 91  0     1  0  0  0  0  0999 V2000
  -28.7061  -31.8118   27.8139 C   0  0  0  0  0  0  0  0  0  0  0  0
  -28.7830  -30.8754   26.7880 C   0  0  0  0  0  0  0  0  0  0  0  0
  -24.4309   -8.5260   21.3558 C   0  0  0  0  0  0  0  0  0  0  0  0
  -24.2051  -10.2872   22.9941 C   0  0  0  0  0  0  0  0  0  0  0  0
  -27.4654  -32.3081   28.2117 C   0  0  0  0  0  0  0  0  0  0  0  0
  -27.6189  -30.4338   26.1599 C   0  0  0  0  0  0  0  0  0  0  0  0
  -26.9654  -28.9199   20.2619 C   0  0  0  0  0  0  0  0  0  0  0  0
  -23.9320   -7.6051   22.2770 C   0  0  0  0  0  0  0  0  0  0  0  0
  -23.7062   -9.3663   23.9153 C   0  0  0  0  0  0  0  0  0  0  0  0
  -26.9638  -27.6910   19.6036 C   0  0  0  0  0  0  0  0  0  0  0  0
  -20.9159   -6.6925   23.5031 C   0  0  0  0  0  0  0  0  0  0  0  0
  -19.9527   -5.7872   23.0580 C   0  0  0  0  0  0  0  0  0  0  0  0
  -24.5534  -27.6534   19.6922 C   0  0  0  0  0  0  0  0  0  0  0  0
  -29.2170  -20.0164   19.1836 C   0  0  0  0  0  0  0  0  0  0  0  0
  -21.4127   -3.9505   23.6341 C   0  0  0  0  0  0  0  0  0  0  0  0
  -24.5675   -9.8671   21.7143 C   0  0  0  0  0  0  0  0  0  0  0  0
  -24.3451  -11.5832   19.8400 C   0  0  0  0  0  0  0  0  0  0  0  0
  -26.2864  -31.8796   27.5817 C   0  0  0  0  0  0  0  0  0  0  0  0
  -25.7594  -29.5207   20.6507 C   0  0  0  0  0  0  0  0  0  0  0  0
  -26.3612  -30.9238   26.5506 C   0  0  0  0  0  0  0  0  0  0  0  0
  -24.5423  -28.8912   20.3531 C   0  0  0  0  0  0  0  0  0  0  0  0
  -29.7074  -18.6797   19.2356 C   0  0  0  0  0  0  0  0  0  0  0  0
  -23.5696   -8.0252   23.5568 C   0  0  0  0  0  0  0  0  0  0  0  0
  -25.7579  -27.0561   19.3212 C   0  0  0  0  0  0  0  0  0  0  0  0
  -22.1276   -6.2269   24.0137 C   0  0  0  0  0  0  0  0  0  0  0  0
  -20.2011   -4.4162   23.1235 C   0  0  0  0  0  0  0  0  0  0  0  0
  -22.3760   -4.8559   24.0792 C   0  0  0  0  0  0  0  0  0  0  0  0
  -25.0833  -10.8187   20.7633 C   0  0  0  0  0  0  0  0  0  0  0  0
  -25.2906  -12.3246   19.1745 C   0  0  0  0  0  0  0  0  0  0  0  0
  -27.8656  -20.0619   18.9201 C   0  0  0  0  0  0  0  0  0  0  0  0
  -28.7121  -17.7543   19.0101 C   0  0  0  0  0  0  0  0  0  0  0  0
  -22.9312  -11.6200   19.6050 C   0  0  0  0  0  0  0  0  0  0  0  0
  -24.4648  -30.3591   23.4300 C   0  0  0  0  0  0  0  0  0  0  0  0
  -26.4796  -23.5454   18.7582 C   0  0  0  0  0  0  0  0  0  0  0  0
  -22.1805  -31.6600   21.5295 C   0  0  0  0  0  0  0  0  0  0  0  0
  -20.5870  -31.6774   18.5117 C   0  0  0  0  0  0  0  0  0  0  0  0
  -29.8546  -15.5140   19.1592 C   0  0  0  0  0  0  0  0  0  0  0  0
  -24.9643  -32.4092   28.0781 C   0  0  0  0  0  0  0  0  0  0  0  0
  -25.7770  -30.8594   21.3363 C   0  0  0  0  0  0  0  0  0  0  0  0
  -23.2194  -29.5040   20.7311 C   0  0  0  0  0  0  0  0  0  0  0  0
  -23.8096  -32.1700   27.1087 C   0  0  0  0  0  0  0  0  0  0  0  0
  -30.3411  -11.9870   19.1754 C   0  0  0  0  0  0  0  0  0  0  0  0
  -23.8300  -30.7326   26.5985 C   0  0  0  0  0  0  0  0  0  0  0  0
  -28.9558  -11.4315   19.5140 C   0  0  0  0  0  0  0  0  0  0  0  0
  -30.6323  -13.2832   19.9296 C   0  0  0  0  0  0  0  0  0  0  0  0
  -28.2257  -13.7729   20.1237 C   0  0  0  0  0  0  0  0  0  0  0  0
  -25.1229  -30.4389   25.8282 C   0  0  1  0  0  0  0  0  0  0  0  0
  -24.5120  -31.1339   22.1435 C   0  0  1  0  0  0  0  0  0  0  0  0
  -27.8611  -12.5022   19.3388 C   0  0  2  0  0  0  0  0  0  0  0  0
  -31.3539  -17.8471   20.9334 C   0  0  0  0  0  0  0  0  0  0  0  0
  -18.7359  -32.8282   17.2681 C   0  0  0  0  0  0  0  0  0  0  0  0
  -20.1228  -30.0746   23.1303 C   0  0  0  0  0  0  0  0  0  0  0  0
  -18.4725  -30.4979   21.2958 C   0  0  0  0  0  0  0  0  0  0  0  0
  -19.4340  -32.4132   22.5725 C   0  0  0  0  0  0  0  0  0  0  0  0
  -22.4431  -32.6635   16.4280 C   0  0  0  0  0  0  0  0  0  0  0  0
  -31.1252  -18.3370   19.5023 C   0  0  0  0  0  0  0  0  0  0  0  0
  -27.5975  -22.5424   18.9487 C   0  0  0  0  0  0  0  0  0  0  0  0
  -26.8775  -25.0026   18.8903 C   0  0  0  0  0  0  0  0  0  1  0  0
  -20.8891  -31.1692   20.9210 C   0  0  1  0  0  0  0  0  0  0  0  0
  -20.2264  -32.8118   17.5695 C   0  0  2  0  0  0  0  0  0  0  0  0
  -19.7544  -31.0260   21.9743 C   0  0  0  0  0  0  0  0  0  0  0  0
  -26.3964  -11.0527   20.6935 N   0  0  0  0  0  0  0  0  0  0  0  0
  -26.4908  -11.9726   19.7182 N   0  0  0  0  0  0  0  0  0  0  0  0
  -23.2892  -30.8108   21.4054 N   0  0  0  0  0  0  0  0  0  0  0  0
  -29.5551  -14.2516   19.7135 N   0  0  0  0  0  0  0  0  0  0  0  0
  -25.2040  -13.2367   18.1831 N   0  0  0  0  0  0  0  0  0  0  0  0
  -22.1038  -10.7939   20.3779 N   0  0  0  0  0  0  0  0  0  0  0  0
  -28.7459  -16.3383   18.9697 N   0  0  0  0  0  0  0  0  0  0  0  0
  -27.0857  -21.2036   18.8045 N   0  0  0  0  0  0  0  0  0  0  0  0
  -25.0583  -31.0049   24.4978 N   0  0  0  0  0  0  0  0  0  0  0  0
  -20.5784  -32.0852   19.8288 N   0  0  0  0  0  0  0  0  0  0  0  0
  -20.9647  -32.6708   16.2826 N   0  3  0  0  0  0  0  0  0  0  0  0
  -22.4184  -12.3512   18.7242 O   0  0  0  0  0  0  0  0  0  0  0  0
  -23.9283  -29.2576   23.4526 O   0  0  0  0  0  0  0  0  0  0  0  0
  -25.3211  -23.2117   18.5125 O   0  0  0  0  0  0  0  0  0  0  0  0
  -22.2064  -32.7596   22.0879 O   0  0  0  0  0  0  0  0  0  0  0  0
  -20.8465  -30.5422   18.1188 O   0  0  0  0  0  0  0  0  0  0  0  0
  -31.0061  -15.8296   18.8484 O   0  0  0  0  0  0  0  0  0  0  0  0
  -23.0826   -7.1269   24.4559 O   0  0  0  0  0  0  0  0  0  0  0  0
  -25.7535  -25.8562   18.6793 O   0  0  0  0  0  0  0  0  0  1  0  0
  -19.2753   -3.5469   22.6975 F   0  0  0  0  0  0  0  0  0  0  0  0
  -23.5377   -4.4025   24.5698 F   0  0  0  0  0  0  0  0  0  0  0  0
  -27.1938  -18.4975   18.7368 S   0  0  0  0  0  0  0  0  0  0  0  0
  1  2  1  0  0  0  0
  1  5  2  0  0  0  0
  2  6  2  0  0  0  0
  3  8  2  0  0  0  0
  3 16  1  0  0  0  0
  4  9  1  0  0  0  0
  4 16  2  0  0  0  0
  5 18  1  0  0  0  0
  6 20  1  0  0  0  0
  7 10  2  0  0  0  0
  7 19  1  0  0  0  0
  8 23  1  0  0  0  0
  9 23  2  0  0  0  0
 10 24  1  0  0  0  0
 11 12  2  0  0  0  0
 11 25  1  0  0  0  0
 12 26  1  0  0  0  0
 13 21  1  0  0  0  0
 13 24  2  0  0  0  0
 14 22  1  0  0  0  0
 14 30  2  0  0  0  0
 15 26  2  0  0  0  0
 15 27  1  0  0  0  0
 16 28  1  0  0  0  0
 17 28  1  0  0  0  0
 17 29  2  0  0  0  0
 17 32  1  0  0  0  0
 18 20  2  0  0  0  0
 18 38  1  0  0  0  0
 19 21  2  0  0  0  0
 19 39  1  0  0  0  0
 20 47  1  0  0  0  0
 21 40  1  0  0  0  0
 22 31  2  0  0  0  0
 22 56  1  0  0  0  0
 23 79  1  0  0  0  0
 24 80  1  0  0  0  0
 25 27  2  0  0  0  0
 25 79  1  0  0  0  0
 26 81  1  0  0  0  0
 27 82  1  0  0  0  0
 28 62  2  0  0  0  0
 29 63  1  0  0  0  0
 29 66  1  0  0  0  0
 30 69  1  0  0  0  0
 30 83  1  0  0  0  0
 31 68  1  0  0  0  0
 31 83  1  0  0  0  0
 32 67  1  0  0  0  0
 32 73  2  0  0  0  0
 33 48  1  0  0  0  0
 33 70  1  0  0  0  0
 33 74  2  0  0  0  0
 34 57  1  0  0  0  0
 34 58  1  0  0  0  0
 34 75  2  0  0  0  0
 35 59  1  0  0  0  0
 35 64  1  0  0  0  0
 35 76  2  0  0  0  0
 36 60  1  0  0  0  0
 36 71  1  0  0  0  0
 36 77  2  0  0  0  0
 37 65  1  0  0  0  0
 37 68  1  0  0  0  0
 37 78  2  0  0  0  0
 38 41  1  0  0  0  0
 39 48  1  0  0  0  0
 40 64  1  0  0  0  0
 41 43  1  0  0  0  0
 42 44  1  0  0  0  0
 42 45  1  0  0  0  0
 43 47  1  0  0  0  0
 44 49  1  0  0  0  0
 45 65  1  0  0  0  0
 46 49  1  0  0  0  0
 46 65  1  0  0  0  0
 47 70  1  0  0  0  0
 48 64  1  0  0  0  0
 49 63  1  0  0  0  0
 50 56  1  0  0  0  0
 51 60  1  0  0  0  0
 52 61  1  0  0  0  0
 53 61  1  0  0  0  0
 54 61  1  0  0  0  0
 55 72  1  0  0  0  0
 57 69  1  0  0  0  0
 58 80  1  0  0  0  0
 59 61  1  0  0  0  0
 59 71  1  0  0  0  0
 60 72  1  0  0  0  0
 62 63  1  0  0  0  0
M  CHG  1  72   1
M  ISO  4  37 100  58 101  68 100  80 101
M  END
> <Batch ID>
0152

> <Smiles>
CCc1cc(NCC(=O)[101CH2:1][101O:1]c2ccc3c(c2)CN(C(=O)C(NC(=O)C(C)NC)C(C)(C)C)C(C(=O)NC2CCCc4ccccc42)C3)sc1[100NH:0][100C:0](=O)N1CCCC(n2nc(-c3ccc(Oc4ccc(F)cc4F)cc3)c(C(N)=O)c2N)C1

> <Shape>
0.287

> <Color>
0.097

> <Negative vol penalty>
0.000

$$$$

  -OEChem-04052303273D

 82 91  0     1  0  0  0  0  0999 V2000
  -29.8161  -32.6857   17.7010 C   0  0  0  0  0  0  0  0  0  0  0  0
  -29.7018  -31.6222   18.5906 C   0  0  0  0  0  0  0  0  0  0  0  0
  -22.9990   -9.8966   19.9805 C   0  0  0  0  0  0  0  0  0  0  0  0
  -23.7258   -9.9441   22.2841 C   0  0  0  0  0  0  0  0  0  0  0  0
  -28.7976  -32.9374   16.7827 C   0  0  0  0  0  0  0  0  0  0  0  0
  -28.5684  -30.8104   18.5631 C   0  0  0  0  0  0  0  0  0  0  0  0
  -29.7015  -25.8824   18.8376 C   0  0  0  0  0  0  0  0  0  0  0  0
  -22.2318   -8.7623   20.2460 C   0  0  0  0  0  0  0  0  0  0  0  0
  -22.9586   -8.8099   22.5496 C   0  0  0  0  0  0  0  0  0  0  0  0
  -30.0271  -25.3729   20.0939 C   0  0  0  0  0  0  0  0  0  0  0  0
  -23.2002   -5.4713   22.0734 C   0  0  0  0  0  0  0  0  0  0  0  0
  -23.7875   -4.4528   22.8238 C   0  0  0  0  0  0  0  0  0  0  0  0
  -27.7916  -24.4923   20.3095 C   0  0  0  0  0  0  0  0  0  0  0  0
  -22.0649   -4.6949   24.5005 C   0  0  0  0  0  0  0  0  0  0  0  0
  -31.8164  -17.4985   21.7163 C   0  0  0  0  0  0  0  0  0  0  0  0
  -23.7460  -10.4875   20.9996 C   0  0  0  0  0  0  0  0  0  0  0  0
  -24.1330  -13.0030   20.8265 C   0  0  0  0  0  0  0  0  0  0  0  0
  -27.6555  -32.1223   16.7375 C   0  0  0  0  0  0  0  0  0  0  0  0
  -28.4131  -25.7098   18.3116 C   0  0  0  0  0  0  0  0  0  0  0  0
  -27.5331  -31.0522   17.6442 C   0  0  0  0  0  0  0  0  0  0  0  0
  -27.4530  -24.9983   19.0452 C   0  0  0  0  0  0  0  0  0  0  0  0
  -22.2116   -8.2190   21.5305 C   0  0  0  0  0  0  0  0  0  0  0  0
  -29.0712  -24.6803   20.8313 C   0  0  0  0  0  0  0  0  0  0  0  0
  -22.0452   -6.1017   22.5365 C   0  0  0  0  0  0  0  0  0  0  0  0
  -23.2198   -4.0645   24.0373 C   0  0  0  0  0  0  0  0  0  0  0  0
  -21.4776   -5.7135   23.7500 C   0  0  0  0  0  0  0  0  0  0  0  0
  -24.5392  -11.6589   20.7259 C   0  0  0  0  0  0  0  0  0  0  0  0
  -25.2430  -13.7253   20.4622 C   0  0  0  0  0  0  0  0  0  0  0  0
  -30.5997  -16.8809   21.9169 C   0  0  0  0  0  0  0  0  0  0  0  0
  -30.8637  -19.0400   22.9517 C   0  0  0  0  0  0  0  0  0  0  0  0
  -22.8657  -13.5498   21.2145 C   0  0  0  0  0  0  0  0  0  0  0  0
  -26.0658  -27.6673   17.4388 C   0  0  0  0  0  0  0  0  0  0  0  0
  -24.6830  -24.9196   16.4090 C   0  0  0  0  0  0  0  0  0  0  0  0
  -24.4465  -21.5243   16.6598 C   0  0  0  0  0  0  0  0  0  0  0  0
  -30.7234  -14.6820   20.6938 C   0  0  0  0  0  0  0  0  0  0  0  0
  -26.5594  -32.4623   15.7589 C   0  0  0  0  0  0  0  0  0  0  0  0
  -28.0857  -26.2423   16.9436 C   0  0  0  0  0  0  0  0  0  0  0  0
  -26.0615  -24.7682   18.5167 C   0  0  0  0  0  0  0  0  0  0  0  0
  -25.5611  -31.3275   15.5442 C   0  0  0  0  0  0  0  0  0  0  0  0
  -29.6017  -12.2330   18.3654 C   0  0  0  0  0  0  0  0  0  0  0  0
  -25.1324  -30.7334   16.8821 C   0  0  0  0  0  0  0  0  0  0  0  0
  -31.9727  -20.8498   24.2833 C   0  0  0  0  0  0  0  0  0  0  0  0
  -32.1972  -22.1876   23.5855 C   0  0  0  0  0  0  0  0  0  0  0  0
  -28.1512  -11.9759   18.7802 C   0  0  0  0  0  0  0  0  0  0  0  0
  -30.0858  -21.4075   22.8103 C   0  0  0  0  0  0  0  0  0  0  0  0
  -30.5033  -12.4742   19.5749 C   0  0  0  0  0  0  0  0  0  0  0  0
  -28.5894  -13.2627   20.9108 C   0  0  0  0  0  0  0  0  0  0  0  0
  -26.3302  -30.1340   17.6287 C   0  0  1  0  0  0  0  0  0  0  0  0
  -30.6523  -20.2934   23.7103 C   0  0  1  0  0  0  0  0  0  0  0  0
  -26.5904  -26.4528   16.7264 C   0  0  1  0  0  0  0  0  0  0  0  0
  -30.7841  -22.6783   23.2901 C   0  0  2  0  0  0  0  0  0  0  0  0
  -27.6308  -13.0786   19.7230 C   0  0  2  0  0  0  0  0  0  0  0  0
  -23.2013  -19.5612   15.7147 C   0  0  0  0  0  0  0  0  0  0  0  0
  -22.2353  -25.6777   18.0655 C   0  0  0  0  0  0  0  0  0  0  0  0
  -21.4484  -23.3099   17.8585 C   0  0  0  0  0  0  0  0  0  0  0  0
  -21.7156  -24.7167   15.8158 C   0  0  0  0  0  0  0  0  0  0  0  0
  -26.9350  -20.2896   15.6391 C   0  0  0  0  0  0  0  0  0  0  0  0
  -30.7439  -23.8004   22.2749 C   0  0  0  0  0  0  0  0  0  1  0  0
  -23.7738  -23.8840   17.0253 C   0  0  1  0  0  0  0  0  0  0  0  0
  -24.4417  -20.4341   15.6034 C   0  0  2  0  0  0  0  0  0  0  0  0
  -22.3188  -24.4029   17.2024 C   0  0  0  0  0  0  0  0  0  0  0  0
  -31.9695  -18.7369   22.3086 N   0  0  0  0  0  0  0  0  0  0  0  0
  -25.8081  -11.5319   20.3287 N   0  0  0  0  0  0  0  0  0  0  0  0
  -26.2089  -12.8056   20.1764 N   0  0  0  0  0  0  0  0  0  0  0  0
  -25.7879  -25.3137   17.1768 N   0  0  0  0  0  0  0  0  0  0  0  0
  -29.9496  -13.5344   20.4200 N   0  0  0  0  0  0  0  0  0  0  0  0
  -25.4774  -15.0509   20.3617 N   0  0  0  0  0  0  0  0  0  0  0  0
  -21.8335  -12.6660   21.5576 N   0  0  0  0  0  0  0  0  0  0  0  0
  -30.0804  -15.6366   21.4810 N   0  0  0  0  0  0  0  0  0  0  0  0
  -26.6826  -28.8470   17.0684 N   0  0  0  0  0  0  0  0  0  0  0  0
  -23.8860  -22.6932   16.1900 N   0  0  0  0  0  0  0  0  0  0  0  0
  -25.6430  -19.5647   15.7508 N   0  3  0  0  0  0  0  0  0  0  0  0
  -22.6499  -14.7853   21.2400 O   0  0  0  0  0  0  0  0  0  0  0  0
  -25.1669  -27.5434   18.2624 O   0  0  0  0  0  0  0  0  0  0  0  0
  -24.4264  -25.3572   15.2846 O   0  0  0  0  0  0  0  0  0  0  0  0
  -24.8986  -21.3547   17.7900 O   0  0  0  0  0  0  0  0  0  0  0  0
  -31.8619  -14.8207   20.2392 O   0  0  0  0  0  0  0  0  0  0  0  0
  -21.4629   -7.1123   21.7899 O   0  0  0  0  0  0  0  0  0  0  0  0
  -29.3862  -24.1825   22.0580 O   0  0  0  0  0  0  0  0  0  1  0  0
  -23.7831   -3.0853   24.7571 F   0  0  0  0  0  0  0  0  0  0  0  0
  -20.3674   -6.3146   24.1995 F   0  0  0  0  0  0  0  0  0  0  0  0
  -29.5996  -17.8813   22.8866 S   0  0  0  0  0  0  0  0  0  0  0  0
  1  2  1  0  0  0  0
  1  5  2  0  0  0  0
  2  6  2  0  0  0  0
  3  8  2  0  0  0  0
  3 16  1  0  0  0  0
  4  9  1  0  0  0  0
  4 16  2  0  0  0  0
  5 18  1  0  0  0  0
  6 20  1  0  0  0  0
  7 10  2  0  0  0  0
  7 19  1  0  0  0  0
  8 22  1  0  0  0  0
  9 22  2  0  0  0  0
 10 23  1  0  0  0  0
 11 12  2  0  0  0  0
 11 24  1  0  0  0  0
 12 25  1  0  0  0  0
 13 21  1  0  0  0  0
 13 23  2  0  0  0  0
 14 25  2  0  0  0  0
 14 26  1  0  0  0  0
 15 29  2  0  0  0  0
 15 62  1  0  0  0  0
 16 27  1  0  0  0  0
 17 27  1  0  0  0  0
 17 28  2  0  0  0  0
 17 31  1  0  0  0  0
 18 20  2  0  0  0  0
 18 36  1  0  0  0  0
 19 21  2  0  0  0  0
 19 37  1  0  0  0  0
 20 48  1  0  0  0  0
 21 38  1  0  0  0  0
 22 78  1  0  0  0  0
 23 79  1  0  0  0  0
 24 26  2  0  0  0  0
 24 78  1  0  0  0  0
 25 80  1  0  0  0  0
 26 81  1  0  0  0  0
 27 63  2  0  0  0  0
 28 64  1  0  0  0  0
 28 67  1  0  0  0  0
 29 69  1  0  0  0  0
 29 82  1  0  0  0  0
 30 49  1  0  0  0  0
 30 62  2  0  0  0  0
 30 82  1  0  0  0  0
 31 68  1  0  0  0  0
 31 73  2  0  0  0  0
 32 50  1  0  0  0  0
 32 70  1  0  0  0  0
 32 74  2  0  0  0  0
 33 59  1  0  0  0  0
 33 65  1  0  0  0  0
 33 75  2  0  0  0  0
 34 60  1  0  0  0  0
 34 71  1  0  0  0  0
 34 76  2  0  0  0  0
 35 66  1  0  0  0  0
 35 69  1  0  0  0  0
 35 77  2  0  0  0  0
 36 39  1  0  0  0  0
 37 50  1  0  0  0  0
 38 65  1  0  0  0  0
 39 41  1  0  0  0  0
 40 44  1  0  0  0  0
 40 46  1  0  0  0  0
 41 48  1  0  0  0  0
 42 43  1  0  0  0  0
 42 49  1  0  0  0  0
 43 51  1  0  0  0  0
 44 52  1  0  0  0  0
 45 49  1  0  0  0  0
 45 51  1  0  0  0  0
 46 66  1  0  0  0  0
 47 52  1  0  0  0  0
 47 66  1  0  0  0  0
 48 70  1  0  0  0  0
 50 65  1  0  0  0  0
 51 58  1  0  0  0  0
 52 64  1  0  0  0  0
 53 60  1  0  0  0  0
 54 61  1  0  0  0  0
 55 61  1  0  0  0  0
 56 61  1  0  0  0  0
 57 72  1  0  0  0  0
 58 79  1  0  0  0  0
 59 61  1  0  0  0  0
 59 71  1  0  0  0  0
 60 72  1  0  0  0  0
 63 64  1  0  0  0  0
M  CHG  1  72   1
M  ISO  4  35 100  58 101  69 100  79 101
M  END
> <Batch ID>
0152

> <Smiles>
CNC(C)C(=O)NC(C(=O)N1Cc2cc([101O:1][101CH2:1]C3CCC(c4ncc([100NH:0][100C:0](=O)N5CCCC(n6nc(-c7ccc(Oc8ccc(F)cc8F)cc7)c(C(N)=O)c6N)C5)s4)C3)ccc2CC1C(=O)NC1CCCc2ccccc21)C(C)(C)C

> <Shape>
0.211

> <Color>
0.198

> <Negative vol penalty>
0.000

$$$$

  -OEChem-04052303273D

 86 95  0     1  0  0  0  0  0999 V2000
  -21.3894  -24.1897   34.0848 C   0  0  0  0  0  0  0  0  0  0  0  0
  -22.3940  -23.4442   33.4763 C   0  0  0  0  0  0  0  0  0  0  0  0
  -23.0765   -9.8675   19.9443 C   0  0  0  0  0  0  0  0  0  0  0  0
  -23.8295   -9.8839   22.2399 C   0  0  0  0  0  0  0  0  0  0  0  0
  -20.3217  -24.6685   33.3267 C   0  0  0  0  0  0  0  0  0  0  0  0
  -22.3310  -23.1761   32.1093 C   0  0  0  0  0  0  0  0  0  0  0  0
  -26.5590  -22.2425   26.4024 C   0  0  0  0  0  0  0  0  0  0  0  0
  -22.3317   -8.7155   20.1968 C   0  0  0  0  0  0  0  0  0  0  0  0
  -23.0847   -8.7318   22.4924 C   0  0  0  0  0  0  0  0  0  0  0  0
  -26.7861  -21.3371   25.3668 C   0  0  0  0  0  0  0  0  0  0  0  0
  -19.3790   -7.9252   21.6426 C   0  0  0  0  0  0  0  0  0  0  0  0
  -18.0736   -7.8772   21.1536 C   0  0  0  0  0  0  0  0  0  0  0  0
  -31.8739  -17.4483   21.6064 C   0  0  0  0  0  0  0  0  0  0  0  0
  -24.9351  -22.2826   24.1424 C   0  0  0  0  0  0  0  0  0  0  0  0
  -18.6370   -5.9286   19.8410 C   0  0  0  0  0  0  0  0  0  0  0  0
  -32.1042  -18.6799   22.1789 C   0  0  0  0  0  0  0  0  0  0  0  0
  -23.8254  -10.4517   20.9659 C   0  0  0  0  0  0  0  0  0  0  0  0
  -24.1679  -12.9763   20.8365 C   0  0  0  0  0  0  0  0  0  0  0  0
  -20.2505  -24.4143   31.9479 C   0  0  0  0  0  0  0  0  0  0  0  0
  -25.5097  -23.1691   26.3205 C   0  0  0  0  0  0  0  0  0  0  0  0
  -21.2606  -23.6508   31.3323 C   0  0  0  0  0  0  0  0  0  0  0  0
  -24.6984  -23.2004   25.1772 C   0  0  0  0  0  0  0  0  0  0  0  0
  -30.5805  -16.9430   21.9261 C   0  0  0  0  0  0  0  0  0  0  0  0
  -22.3358   -8.1477   21.4709 C   0  0  0  0  0  0  0  0  0  0  0  0
  -25.9723  -21.3552   24.2379 C   0  0  0  0  0  0  0  0  0  0  0  0
  -20.3135   -6.9750   21.2307 C   0  0  0  0  0  0  0  0  0  0  0  0
  -17.7026   -6.8788   20.2529 C   0  0  0  0  0  0  0  0  0  0  0  0
  -19.9425   -5.9767   20.3300 C   0  0  0  0  0  0  0  0  0  0  0  0
  -24.5954  -11.6414   20.7055 C   0  0  0  0  0  0  0  0  0  0  0  0
  -29.8717  -17.8077   22.7309 C   0  0  0  0  0  0  0  0  0  0  0  0
  -25.2612  -13.7241   20.4734 C   0  0  0  0  0  0  0  0  0  0  0  0
  -22.8963  -13.4940   21.2495 C   0  0  0  0  0  0  0  0  0  0  0  0
  -28.5060  -17.5692   23.2312 C   0  0  0  0  0  0  0  0  0  0  0  0
  -22.8772  -23.7322   28.0107 C   0  0  0  0  0  0  0  0  0  0  0  0
  -22.6327  -26.3003   26.0442 C   0  0  0  0  0  0  0  0  0  0  0  0
  -23.4186  -27.7447   23.0537 C   0  0  0  0  0  0  0  0  0  0  0  0
  -30.7270  -14.7700   20.6600 C   0  0  0  0  0  0  0  0  0  0  0  0
  -19.0527  -24.9126   31.1788 C   0  0  0  0  0  0  0  0  0  0  0  0
  -25.2946  -24.1567   27.4344 C   0  0  0  0  0  0  0  0  0  0  0  0
  -23.5714  -24.1888   25.0314 C   0  0  0  0  0  0  0  0  0  0  0  0
  -19.2532  -24.9026   29.6655 C   0  0  0  0  0  0  0  0  0  0  0  0
  -29.6194  -12.3463   18.2986 C   0  0  0  0  0  0  0  0  0  0  0  0
  -19.8598  -23.5771   29.2162 C   0  0  0  0  0  0  0  0  0  0  0  0
  -28.1785  -12.0567   18.7250 C   0  0  0  0  0  0  0  0  0  0  0  0
  -26.1811  -18.6298   20.6856 C   0  0  0  0  0  0  0  0  0  0  0  0
  -30.5310  -12.5801   19.5020 C   0  0  0  0  0  0  0  0  0  0  0  0
  -27.6031  -18.6735   21.2281 C   0  0  0  0  0  0  0  0  0  0  0  0
  -28.6199  -13.3105   20.8745 C   0  0  0  0  0  0  0  0  0  0  0  0
  -26.0728  -17.7890   22.9349 C   0  0  0  0  0  0  0  0  0  0  0  0
  -21.2404  -23.3600   29.8473 C   0  0  1  0  0  0  0  0  0  0  0  0
  -23.8759  -24.7165   27.4709 C   0  0  1  0  0  0  0  0  0  0  0  0
  -27.6506  -13.1324   19.6945 C   0  0  2  0  0  0  0  0  0  0  0  0
  -25.2926  -18.6507   21.9358 C   0  0  1  0  0  0  0  0  0  0  0  0
  -23.0432  -29.8347   21.7164 C   0  0  0  0  0  0  0  0  0  0  0  0
  -19.8067  -25.3630   25.3770 C   0  0  0  0  0  0  0  0  0  0  0  0
  -19.8463  -26.8845   23.3891 C   0  0  0  0  0  0  0  0  0  0  0  0
  -20.0403  -27.8335   25.6880 C   0  0  0  0  0  0  0  0  0  0  0  0
  -26.3118  -28.3650   22.9941 C   0  0  0  0  0  0  0  0  0  0  0  0
  -23.3580  -18.7293   20.6137 C   0  0  0  0  0  0  0  0  0  0  0  0
  -25.0568  -20.0652   22.4619 C   0  0  0  0  0  0  0  0  0  1  0  0
  -21.9914  -26.5626   24.7030 C   0  0  1  0  0  0  0  0  0  0  0  0
  -23.9494  -29.1248   22.7102 C   0  0  2  0  0  0  0  0  0  0  0  0
  -20.4411  -26.6409   24.7925 C   0  0  0  0  0  0  0  0  0  0  0  0
  -25.8615  -11.5437   20.2914 N   0  0  0  0  0  0  0  0  0  0  0  0
  -26.2390  -12.8267   20.1590 N   0  0  0  0  0  0  0  0  0  0  0  0
  -27.4729  -17.9792   22.5178 N   0  0  0  0  0  0  0  0  0  0  0  0
  -23.3972  -25.1298   26.1502 N   0  0  0  0  0  0  0  0  0  0  0  0
  -29.9694  -13.6147   20.3734 N   0  0  0  0  0  0  0  0  0  0  0  0
  -25.4720  -15.0553   20.3955 N   0  0  0  0  0  0  0  0  0  0  0  0
  -21.8832  -12.5863   21.5875 N   0  0  0  0  0  0  0  0  0  0  0  0
  -30.0772  -15.6985   21.4726 N   0  0  0  0  0  0  0  0  0  0  0  0
  -22.2394  -24.1521   29.1624 N   0  0  0  0  0  0  0  0  0  0  0  0
  -22.6212  -27.7694   24.1783 N   0  0  0  0  0  0  0  0  0  0  0  0
  -28.3354  -16.9435   24.3920 N   0  3  0  0  0  0  0  0  0  0  0  0
  -25.3115  -29.0223   22.1142 N   0  3  0  0  0  0  0  0  0  0  0  0
  -22.6600  -14.7248   21.3010 O   0  0  0  0  0  0  0  0  0  0  0  0
  -22.6975  -22.6710   27.4248 O   0  0  0  0  0  0  0  0  0  0  0  0
  -22.4676  -27.1080   26.9618 O   0  0  0  0  0  0  0  0  0  0  0  0
  -23.6818  -26.7452   22.3885 O   0  0  0  0  0  0  0  0  0  0  0  0
  -31.8575  -14.9366   20.1951 O   0  0  0  0  0  0  0  0  0  0  0  0
  -21.6090   -7.0237   21.7177 O   0  0  0  0  0  0  0  0  0  0  0  0
  -26.1914  -20.4721   23.2259 O   0  0  0  0  0  0  0  0  0  1  0  0
  -24.0391  -18.0449   21.6536 O   0  0  0  0  0  0  0  0  0  0  0  0
  -16.4485   -6.8319   19.7846 F   0  0  0  0  0  0  0  0  0  0  0  0
  -20.8355   -5.0604   19.9316 F   0  0  0  0  0  0  0  0  0  0  0  0
  -30.7646  -19.2221   23.0975 S   0  0  0  0  0  0  0  0  0  0  0  0
  1  2  1  0  0  0  0
  1  5  2  0  0  0  0
  2  6  2  0  0  0  0
  3  8  2  0  0  0  0
  3 17  1  0  0  0  0
  4  9  1  0  0  0  0
  4 17  2  0  0  0  0
  5 19  1  0  0  0  0
  6 21  1  0  0  0  0
  7 10  2  0  0  0  0
  7 20  1  0  0  0  0
  8 24  1  0  0  0  0
  9 24  2  0  0  0  0
 10 25  1  0  0  0  0
 11 12  2  0  0  0  0
 11 26  1  0  0  0  0
 12 27  1  0  0  0  0
 13 16  2  0  0  0  0
 13 23  1  0  0  0  0
 14 22  1  0  0  0  0
 14 25  2  0  0  0  0
 15 27  2  0  0  0  0
 15 28  1  0  0  0  0
 16 86  1  0  0  0  0
 17 29  1  0  0  0  0
 18 29  1  0  0  0  0
 18 31  2  0  0  0  0
 18 32  1  0  0  0  0
 19 21  2  0  0  0  0
 19 38  1  0  0  0  0
 20 22  2  0  0  0  0
 20 39  1  0  0  0  0
 21 50  1  0  0  0  0
 22 40  1  0  0  0  0
 23 30  2  0  0  0  0
 23 71  1  0  0  0  0
 24 81  1  0  0  0  0
 25 82  1  0  0  0  0
 26 28  2  0  0  0  0
 26 81  1  0  0  0  0
 27 84  1  0  0  0  0
 28 85  1  0  0  0  0
 29 64  2  0  0  0  0
 30 33  1  0  0  0  0
 30 86  1  0  0  0  0
 31 65  1  0  0  0  0
 31 69  1  0  0  0  0
 32 70  1  0  0  0  0
 32 76  2  0  0  0  0
 33 66  1  0  0  0  0
 33 74  2  0  0  0  0
 34 51  1  0  0  0  0
 34 72  1  0  0  0  0
 34 77  2  0  0  0  0
 35 61  1  0  0  0  0
 35 67  1  0  0  0  0
 35 78  2  0  0  0  0
 36 62  1  0  0  0  0
 36 73  1  0  0  0  0
 36 79  2  0  0  0  0
 37 68  1  0  0  0  0
 37 71  1  0  0  0  0
 37 80  2  0  0  0  0
 38 41  1  0  0  0  0
 39 51  1  0  0  0  0
 40 67  1  0  0  0  0
 41 43  1  0  0  0  0
 42 44  1  0  0  0  0
 42 46  1  0  0  0  0
 43 50  1  0  0  0  0
 44 52  1  0  0  0  0
 45 47  1  0  0  0  0
 45 53  1  0  0  0  0
 46 68  1  0  0  0  0
 47 66  1  0  0  0  0
 48 52  1  0  0  0  0
 48 68  1  0  0  0  0
 49 53  1  0  0  0  0
 49 66  1  0  0  0  0
 50 72  1  0  0  0  0
 51 67  1  0  0  0  0
 52 65  1  0  0  0  0
 53 60  1  0  0  0  0
 53 83  1  0  0  0  0
 54 62  1  0  0  0  0
 55 63  1  0  0  0  0
 56 63  1  0  0  0  0
 57 63  1  0  0  0  0
 58 75  1  0  0  0  0
 59 83  1  0  0  0  0
 60 82  1  0  0  0  0
 61 63  1  0  0  0  0
 61 73  1  0  0  0  0
 62 75  1  0  0  0  0
 64 65  1  0  0  0  0
M  CHG  2  74   1  75   1
M  ISO  4  37 100  60 101  71 100  82 101
M  END
> <Batch ID>
0152

> <Smiles>
CNC(C)C(=O)NC(C(=O)N1Cc2cc([101O:1][101CH2:1]C3(OC)CCN(C(=N)c4sccc4[100NH:0][100C:0](=O)N4CCCC(n5nc(-c6ccc(Oc7ccc(F)cc7F)cc6)c(C(N)=O)c5N)C4)C3)ccc2CC1C(=O)NC1CCCc2ccccc21)C(C)(C)C

> <Shape>
0.186

> <Color>
0.184

> <Negative vol penalty>
0.000

$$$$

  -OEChem-04052303273D

 79 87  0     1  0  0  0  0  0999 V2000
  -25.5937   -7.9357   36.1901 C   0  0  0  0  0  0  0  0  0  0  0  0
  -26.3543   -8.4083   35.1255 C   0  0  0  0  0  0  0  0  0  0  0  0
  -23.2864   -9.7966   19.9099 C   0  0  0  0  0  0  0  0  0  0  0  0
  -23.7370   -9.9344   22.2795 C   0  0  0  0  0  0  0  0  0  0  0  0
  -24.2217   -7.7428   36.0338 C   0  0  0  0  0  0  0  0  0  0  0  0
  -25.7435   -8.6873   33.9034 C   0  0  0  0  0  0  0  0  0  0  0  0
  -27.2793  -13.0882   31.9239 C   0  0  0  0  0  0  0  0  0  0  0  0
  -22.5601   -8.6238   20.1162 C   0  0  0  0  0  0  0  0  0  0  0  0
  -23.0107   -8.7616   22.4858 C   0  0  0  0  0  0  0  0  0  0  0  0
  -28.5245  -13.1043   31.2970 C   0  0  0  0  0  0  0  0  0  0  0  0
  -20.9718   -5.9998   23.6832 C   0  0  0  0  0  0  0  0  0  0  0  0
  -20.0702   -5.9731   24.7471 C   0  0  0  0  0  0  0  0  0  0  0  0
  -27.4385  -12.9412   29.1491 C   0  0  0  0  0  0  0  0  0  0  0  0
  -18.8605   -7.8213   23.7682 C   0  0  0  0  0  0  0  0  0  0  0  0
  -23.8749  -10.4519   20.9916 C   0  0  0  0  0  0  0  0  0  0  0  0
  -24.1340  -12.9822   20.7961 C   0  0  0  0  0  0  0  0  0  0  0  0
  -23.5921   -8.0288   34.8121 C   0  0  0  0  0  0  0  0  0  0  0  0
  -26.1028  -12.9873   31.1674 C   0  0  0  0  0  0  0  0  0  0  0  0
  -24.3620   -8.4968   33.7301 C   0  0  0  0  0  0  0  0  0  0  0  0
  -26.1796  -12.9265   29.7687 C   0  0  0  0  0  0  0  0  0  0  0  0
  -22.4223   -8.1063   21.4041 C   0  0  0  0  0  0  0  0  0  0  0  0
  -28.6044  -13.0279   29.9096 C   0  0  0  0  0  0  0  0  0  0  0  0
  -20.8179   -6.9373   22.6618 C   0  0  0  0  0  0  0  0  0  0  0  0
  -19.0145   -6.8838   24.7896 C   0  0  0  0  0  0  0  0  0  0  0  0
  -19.7622   -7.8480   22.7043 C   0  0  0  0  0  0  0  0  0  0  0  0
  -24.6257  -11.6632   20.7790 C   0  0  0  0  0  0  0  0  0  0  0  0
  -31.0658  -10.8524   26.5227 C   0  0  0  0  0  0  0  0  0  0  0  0
  -25.2354  -13.7625   20.5421 C   0  0  0  0  0  0  0  0  0  0  0  0
  -30.5493  -11.9055   27.2482 C   0  0  0  0  0  0  0  0  0  0  0  0
  -31.3179  -12.4375   25.0281 C   0  0  0  0  0  0  0  0  0  0  0  0
  -22.8009  -13.4594   21.0214 C   0  0  0  0  0  0  0  0  0  0  0  0
  -23.7364  -10.8742   30.9716 C   0  0  0  0  0  0  0  0  0  0  0  0
  -22.4373  -13.0961   28.9973 C   0  0  0  0  0  0  0  0  0  0  0  0
  -22.9217  -15.7353   26.8885 C   0  0  0  0  0  0  0  0  0  0  0  0
  -31.1065  -12.9191   21.3610 C   0  0  0  0  0  0  0  0  0  0  0  0
  -22.1144   -7.7597   34.6765 C   0  0  0  0  0  0  0  0  0  0  0  0
  -24.7663  -12.9980   31.8573 C   0  0  0  0  0  0  0  0  0  0  0  0
  -24.9454  -12.8374   28.9099 C   0  0  0  0  0  0  0  0  0  0  0  0
  -21.4811   -8.4349   33.4627 C   0  0  0  0  0  0  0  0  0  0  0  0
  -29.4577  -13.6621   18.2941 C   0  0  0  0  0  0  0  0  0  0  0  0
  -22.3398   -8.2152   32.2212 C   0  0  0  0  0  0  0  0  0  0  0  0
  -27.9880  -13.3531   18.5847 C   0  0  0  0  0  0  0  0  0  0  0  0
  -30.3910  -12.6819   19.0013 C   0  0  0  0  0  0  0  0  0  0  0  0
  -28.7043  -12.2502   20.7456 C   0  0  0  0  0  0  0  0  0  0  0  0
  -23.7316   -8.8344   32.3964 C   0  0  1  0  0  0  0  0  0  0  0  0
  -23.6557  -12.3739   31.0180 C   0  0  1  0  0  0  0  0  0  0  0  0
  -27.7263  -13.2461   20.0991 C   0  0  2  0  0  0  0  0  0  0  0  0
  -31.1855   -9.4515   26.9800 C   0  0  0  0  0  0  0  0  0  0  0  0
  -21.6728  -17.3175   25.3938 C   0  0  0  0  0  0  0  0  0  0  0  0
  -22.1379  -10.8875   26.9135 C   0  0  0  0  0  0  0  0  0  0  0  0
  -21.7972  -12.6634   25.1818 C   0  0  0  0  0  0  0  0  0  0  0  0
  -20.1858  -12.4427   27.0732 C   0  0  0  0  0  0  0  0  0  0  0  0
  -23.8035  -18.0896   28.4500 C   0  0  0  0  0  0  0  0  0  0  0  0
  -31.6682  -13.1300   23.7692 C   0  0  0  0  0  0  0  0  0  0  0  0
  -22.4949  -13.3730   27.5144 C   0  0  1  0  0  0  0  0  0  0  0  0
  -22.2328  -17.0843   26.7884 C   0  0  2  0  0  0  0  0  0  0  0  0
  -21.6775  -12.3413   26.6867 C   0  0  0  0  0  0  0  0  0  0  0  0
  -25.9373  -11.6050   20.5335 N   0  0  0  0  0  0  0  0  0  0  0  0
  -31.5067  -11.1555   25.2493 N   0  0  0  0  0  0  0  0  0  0  0  0
  -26.2792  -12.8972   20.3938 N   0  0  0  0  0  0  0  0  0  0  0  0
  -23.6622  -12.8450   29.6316 N   0  0  0  0  0  0  0  0  0  0  0  0
  -30.0917  -12.6287   20.4343 N   0  0  0  0  0  0  0  0  0  0  0  0
  -25.4032  -15.0976   20.4333 N   0  0  0  0  0  0  0  0  0  0  0  0
  -21.7884  -12.5221   21.2677 N   0  0  0  0  0  0  0  0  0  0  0  0
  -30.0343  -11.8866   28.5509 N   0  0  0  0  0  0  0  0  0  1  0  0
  -23.6736  -10.2687   32.2121 N   0  0  0  0  0  0  0  0  0  0  0  0
  -22.0630  -14.7555   27.3401 N   0  0  0  0  0  0  0  0  0  0  0  0
  -30.7367  -12.8519   22.6987 N   0  0  0  0  0  0  0  0  0  0  0  0
  -23.1934  -18.1807   27.0986 N   0  3  0  0  0  0  0  0  0  0  0  0
  -22.5129  -14.6799   20.9885 O   0  0  0  0  0  0  0  0  0  0  0  0
  -23.8459  -10.3082   29.8902 O   0  0  0  0  0  0  0  0  0  0  0  0
  -21.3464  -13.1095   29.5730 O   0  0  0  0  0  0  0  0  0  0  0  0
  -24.1025  -15.5666   26.5919 O   0  0  0  0  0  0  0  0  0  0  0  0
  -32.2555  -13.2214   21.0213 O   0  0  0  0  0  0  0  0  0  0  0  0
  -21.7134   -6.9619   21.6058 O   0  0  0  0  0  0  0  0  0  0  0  0
  -29.8186  -13.0428   29.2952 O   0  0  0  0  0  0  0  0  0  1  0  0
  -18.1478   -6.8571   25.8105 F   0  0  0  0  0  0  0  0  0  0  0  0
  -19.6085   -8.7501   21.7254 F   0  0  0  0  0  0  0  0  0  0  0  0
  -30.6151  -13.3386   26.3084 S   0  0  0  0  0  0  0  0  0  0  0  0
  1  2  1  0  0  0  0
  1  5  2  0  0  0  0
  2  6  2  0  0  0  0
  3  8  2  0  0  0  0
  3 15  1  0  0  0  0
  4  9  1  0  0  0  0
  4 15  2  0  0  0  0
  5 17  1  0  0  0  0
  6 19  1  0  0  0  0
  7 10  2  0  0  0  0
  7 18  1  0  0  0  0
  8 21  1  0  0  0  0
  9 21  2  0  0  0  0
 10 22  1  0  0  0  0
 11 12  2  0  0  0  0
 11 23  1  0  0  0  0
 12 24  1  0  0  0  0
 13 20  1  0  0  0  0
 13 22  2  0  0  0  0
 14 24  2  0  0  0  0
 14 25  1  0  0  0  0
 15 26  1  0  0  0  0
 16 26  1  0  0  0  0
 16 28  2  0  0  0  0
 16 31  1  0  0  0  0
 17 19  2  0  0  0  0
 17 36  1  0  0  0  0
 18 20  2  0  0  0  0
 18 37  1  0  0  0  0
 19 45  1  0  0  0  0
 20 38  1  0  0  0  0
 21 75  1  0  0  0  0
 22 76  1  0  0  0  0
 23 25  2  0  0  0  0
 23 75  1  0  0  0  0
 24 77  1  0  0  0  0
 25 78  1  0  0  0  0
 26 58  2  0  0  0  0
 27 29  2  0  0  0  0
 27 48  1  0  0  0  0
 27 59  1  0  0  0  0
 28 60  1  0  0  0  0
 28 63  1  0  0  0  0
 29 65  1  0  0  0  0
 29 79  1  0  0  0  0
 30 54  1  0  0  0  0
 30 59  2  0  0  0  0
 30 79  1  0  0  0  0
 31 64  1  0  0  0  0
 31 70  2  0  0  0  0
 32 46  1  0  0  0  0
 32 66  1  0  0  0  0
 32 71  2  0  0  0  0
 33 55  1  0  0  0  0
 33 61  1  0  0  0  0
 33 72  2  0  0  0  0
 34 56  1  0  0  0  0
 34 67  1  0  0  0  0
 34 73  2  0  0  0  0
 35 62  1  0  0  0  0
 35 68  1  0  0  0  0
 35 74  2  0  0  0  0
 36 39  1  0  0  0  0
 37 46  1  0  0  0  0
 38 61  1  0  0  0  0
 39 41  1  0  0  0  0
 40 42  1  0  0  0  0
 40 43  1  0  0  0  0
 41 45  1  0  0  0  0
 42 47  1  0  0  0  0
 43 62  1  0  0  0  0
 44 47  1  0  0  0  0
 44 62  1  0  0  0  0
 45 66  1  0  0  0  0
 46 61  1  0  0  0  0
 47 60  1  0  0  0  0
 49 56  1  0  0  0  0
 50 57  1  0  0  0  0
 51 57  1  0  0  0  0
 52 57  1  0  0  0  0
 53 69  1  0  0  0  0
 54 68  1  0  0  0  0
 55 57  1  0  0  0  0
 55 67  1  0  0  0  0
 56 69  1  0  0  0  0
 58 60  1  0  0  0  0
 65 76  1  0  0  0  0
M  CHG  1  69   1
M  ISO  4  35 100  65 101  68 100  76 101
M  END
> <Batch ID>
0152

> <Smiles>
CNC(C)C(=O)NC(C(=O)N1Cc2cc([101O:1][101NH:1]c3sc(C[100NH:0][100C:0](=O)N4CCCC(n5nc(-c6ccc(Oc7ccc(F)cc7F)cc6)c(C(N)=O)c5N)C4)nc3C)ccc2CC1C(=O)NC1CCCc2ccccc21)C(C)(C)C

> <Shape>
0.130

> <Color>
0.178

> <Negative vol penalty>
0.000

$$$$

  -OEChem-04052303273D

 83 91  0     1  0  0  0  0  0999 V2000
  -28.2862  -33.5560   25.8947 C   0  0  0  0  0  0  0  0  0  0  0  0
  -28.3802  -32.3160   25.2710 C   0  0  0  0  0  0  0  0  0  0  0  0
  -33.1461  -23.4010   15.3252 C   0  0  0  0  0  0  0  0  0  0  0  0
  -26.0255  -12.6558   21.5407 C   0  0  0  0  0  0  0  0  0  0  0  0
  -25.8545  -12.2815   19.1600 C   0  0  0  0  0  0  0  0  0  0  0  0
  -32.5964  -22.1215   15.2465 C   0  0  0  0  0  0  0  0  0  0  0  0
  -27.0372  -34.0631   26.2508 C   0  0  0  0  0  0  0  0  0  0  0  0
  -27.2252  -31.5818   25.0041 C   0  0  0  0  0  0  0  0  0  0  0  0
  -27.2127  -29.6072   20.3409 C   0  0  0  0  0  0  0  0  0  0  0  0
  -32.5366  -24.3746   16.1166 C   0  0  0  0  0  0  0  0  0  0  0  0
  -24.6994  -12.2536   21.6993 C   0  0  0  0  0  0  0  0  0  0  0  0
  -24.5283  -11.8792   19.3186 C   0  0  0  0  0  0  0  0  0  0  0  0
  -27.9801  -28.4621   20.1322 C   0  0  0  0  0  0  0  0  0  0  0  0
  -22.9759   -9.3473   21.8254 C   0  0  0  0  0  0  0  0  0  0  0  0
  -22.6854   -8.4689   22.8692 C   0  0  0  0  0  0  0  0  0  0  0  0
  -30.8274  -22.7891   16.7506 C   0  0  0  0  0  0  0  0  0  0  0  0
  -25.9936  -27.1053   20.3119 C   0  0  0  0  0  0  0  0  0  0  0  0
  -21.1783  -10.0993   23.8219 C   0  0  0  0  0  0  0  0  0  0  0  0
  -26.6031  -12.6698   20.2711 C   0  0  0  0  0  0  0  0  0  0  0  0
  -31.4370  -21.8155   15.9592 C   0  0  0  0  0  0  0  0  0  0  0  0
  -29.1199  -12.2710   20.1521 C   0  0  0  0  0  0  0  0  0  0  0  0
  -25.8656  -33.3391   25.9794 C   0  0  0  0  0  0  0  0  0  0  0  0
  -25.8292  -29.5089   20.5478 C   0  0  0  0  0  0  0  0  0  0  0  0
  -25.9594  -32.0790   25.3581 C   0  0  0  0  0  0  0  0  0  0  0  0
  -25.2105  -28.2509   20.5204 C   0  0  0  0  0  0  0  0  0  0  0  0
  -31.3772  -24.0686   16.8293 C   0  0  0  0  0  0  0  0  0  0  0  0
  -23.9508  -11.8653   20.5882 C   0  0  0  0  0  0  0  0  0  0  0  0
  -27.3711  -27.2107   20.1206 C   0  0  0  0  0  0  0  0  0  0  0  0
  -22.3678  -10.6018   21.7799 C   0  0  0  0  0  0  0  0  0  0  0  0
  -21.7865   -8.8448   23.8674 C   0  0  0  0  0  0  0  0  0  0  0  0
  -21.4690  -10.9778   22.7781 C   0  0  0  0  0  0  0  0  0  0  0  0
  -27.9728  -13.0857   20.1066 C   0  0  0  0  0  0  0  0  0  0  0  0
  -30.1647  -13.1369   19.9400 C   0  0  0  0  0  0  0  0  0  0  0  0
  -30.8541  -20.4599   15.8769 C   0  0  0  0  0  0  0  0  0  0  0  0
  -29.2311  -10.8577   20.3668 C   0  0  0  0  0  0  0  0  0  0  0  0
  -23.8591  -30.2505   22.9295 C   0  0  0  0  0  0  0  0  0  0  0  0
  -21.5757  -29.4116   20.7837 C   0  0  0  0  0  0  0  0  0  0  0  0
  -29.6094  -24.9249   18.4026 C   0  0  0  0  0  0  0  0  0  0  0  0
  -20.7354  -27.6387   17.9913 C   0  0  0  0  0  0  0  0  0  0  0  0
  -30.1999  -18.4162   17.1306 C   0  0  0  0  0  0  0  0  0  0  0  0
  -24.5416  -33.9069   26.4256 C   0  0  0  0  0  0  0  0  0  0  0  0
  -25.0115  -30.7558   20.7448 C   0  0  0  0  0  0  0  0  0  0  0  0
  -23.7257  -28.0930   20.7173 C   0  0  0  0  0  0  0  0  0  0  0  0
  -23.3383  -33.2345   25.7696 C   0  0  0  0  0  0  0  0  0  0  0  0
  -31.4661  -17.6773   20.5377 C   0  0  0  0  0  0  0  0  0  0  0  0
  -23.4874  -31.7169   25.8093 C   0  0  0  0  0  0  0  0  0  0  0  0
  -30.7400  -16.3699   20.8346 C   0  0  0  0  0  0  0  0  0  0  0  0
  -30.6476  -18.6011   19.6367 C   0  0  0  0  0  0  0  0  0  0  0  0
  -29.4789  -16.6342   18.6666 C   0  0  0  0  0  0  0  0  0  0  0  0
  -24.7275  -31.2638   25.0295 C   0  0  1  0  0  0  0  0  0  0  0  0
  -23.6876  -30.4959   21.4571 C   0  0  1  0  0  0  0  0  0  0  0  0
  -30.3203  -15.6815   19.5280 C   0  0  2  0  0  0  0  0  0  0  0  0
  -18.7852  -27.1210   16.4993 C   0  0  0  0  0  0  0  0  0  0  0  0
  -20.4716  -27.5033   22.8931 C   0  0  0  0  0  0  0  0  0  0  0  0
  -19.1748  -26.3616   21.0812 C   0  0  0  0  0  0  0  0  0  0  0  0
  -18.7312  -28.7590   21.6091 C   0  0  0  0  0  0  0  0  0  0  0  0
  -22.0738  -28.8279   15.6347 C   0  0  0  0  0  0  0  0  0  0  0  0
  -29.2867  -26.2277   19.1105 C   0  0  0  0  0  0  0  0  0  1  0  0
  -20.8709  -28.1271   20.4198 C   0  0  1  0  0  0  0  0  0  0  0  0
  -19.9775  -28.0346   16.7370 C   0  0  2  0  0  0  0  0  0  0  0  0
  -19.8404  -27.6902   21.4990 C   0  0  0  0  0  0  0  0  0  0  0  0
  -28.2614  -14.3706   19.8833 N   0  0  0  0  0  0  0  0  0  0  0  0
  -29.6018  -14.3697   19.7867 N   0  0  0  0  0  0  0  0  0  0  0  0
  -22.9701  -29.3414   20.9125 N   0  0  0  0  0  0  0  0  0  0  0  0
  -30.1618  -17.9113   18.4337 N   0  0  0  0  0  0  0  0  0  0  0  0
  -31.5008  -12.9565   19.8716 N   0  0  0  0  0  0  0  0  0  0  0  0
  -28.0577  -10.1182   20.5681 N   0  0  0  0  0  0  0  0  0  0  0  0
  -30.7594  -25.0569   17.6319 N   0  0  0  0  0  0  0  0  0  0  0  0
  -30.7420  -19.7527   17.0119 N   0  0  0  0  0  0  0  0  0  0  0  0
  -24.4672  -31.2907   23.6061 N   0  0  0  0  0  0  0  0  0  0  0  0
  -20.2962  -28.3380   19.0955 N   0  0  0  0  0  0  0  0  0  0  0  0
  -30.4801  -20.0214   14.6751 N   0  3  0  0  0  0  0  0  0  0  0  0
  -20.8711  -27.9602   15.5466 N   0  3  0  0  0  0  0  0  0  0  0  0
  -30.3394  -10.2708   20.3960 O   0  0  0  0  0  0  0  0  0  0  0  0
  -23.4674  -29.1962   23.4160 O   0  0  0  0  0  0  0  0  0  0  0  0
  -20.9142  -30.4408   20.9407 O   0  0  0  0  0  0  0  0  0  0  0  0
  -28.9063  -23.9290   18.5378 O   0  0  0  0  0  0  0  0  0  0  0  0
  -21.6254  -26.7910   17.9922 O   0  0  0  0  0  0  0  0  0  0  0  0
  -29.7933  -17.8371   16.1290 O   0  0  0  0  0  0  0  0  0  0  0  0
  -22.6568  -11.4725   20.7426 O   0  0  0  0  0  0  0  0  0  0  0  0
  -28.1179  -26.0913   19.9179 O   0  0  0  0  0  0  0  0  0  1  0  0
  -21.5064   -8.0005   24.8688 F   0  0  0  0  0  0  0  0  0  0  0  0
  -20.8807  -12.1812   22.7391 F   0  0  0  0  0  0  0  0  0  0  0  0
  1  2  1  0  0  0  0
  1  7  2  0  0  0  0
  2  8  2  0  0  0  0
  3  6  1  0  0  0  0
  3 10  2  0  0  0  0
  4 11  2  0  0  0  0
  4 19  1  0  0  0  0
  5 12  1  0  0  0  0
  5 19  2  0  0  0  0
  6 20  2  0  0  0  0
  7 22  1  0  0  0  0
  8 24  1  0  0  0  0
  9 13  2  0  0  0  0
  9 23  1  0  0  0  0
 10 26  1  0  0  0  0
 11 27  1  0  0  0  0
 12 27  2  0  0  0  0
 13 28  1  0  0  0  0
 14 15  2  0  0  0  0
 14 29  1  0  0  0  0
 15 30  1  0  0  0  0
 16 20  1  0  0  0  0
 16 26  2  0  0  0  0
 17 25  1  0  0  0  0
 17 28  2  0  0  0  0
 18 30  2  0  0  0  0
 18 31  1  0  0  0  0
 19 32  1  0  0  0  0
 20 34  1  0  0  0  0
 21 32  1  0  0  0  0
 21 33  2  0  0  0  0
 21 35  1  0  0  0  0
 22 24  2  0  0  0  0
 22 41  1  0  0  0  0
 23 25  2  0  0  0  0
 23 42  1  0  0  0  0
 24 50  1  0  0  0  0
 25 43  1  0  0  0  0
 26 68  1  0  0  0  0
 27 80  1  0  0  0  0
 28 81  1  0  0  0  0
 29 31  2  0  0  0  0
 29 80  1  0  0  0  0
 30 82  1  0  0  0  0
 31 83  1  0  0  0  0
 32 62  2  0  0  0  0
 33 63  1  0  0  0  0
 33 66  1  0  0  0  0
 34 69  1  0  0  0  0
 34 72  2  0  0  0  0
 35 67  1  0  0  0  0
 35 74  2  0  0  0  0
 36 51  1  0  0  0  0
 36 70  1  0  0  0  0
 36 75  2  0  0  0  0
 37 59  1  0  0  0  0
 37 64  1  0  0  0  0
 37 76  2  0  0  0  0
 38 58  1  0  0  0  0
 38 68  1  0  0  0  0
 38 77  2  0  0  0  0
 39 60  1  0  0  0  0
 39 71  1  0  0  0  0
 39 78  2  0  0  0  0
 40 65  1  0  0  0  0
 40 69  1  0  0  0  0
 40 79  2  0  0  0  0
 41 44  1  0  0  0  0
 42 51  1  0  0  0  0
 43 64  1  0  0  0  0
 44 46  1  0  0  0  0
 45 47  1  0  0  0  0
 45 48  1  0  0  0  0
 46 50  1  0  0  0  0
 47 52  1  0  0  0  0
 48 65  1  0  0  0  0
 49 52  1  0  0  0  0
 49 65  1  0  0  0  0
 50 70  1  0  0  0  0
 51 64  1  0  0  0  0
 52 63  1  0  0  0  0
 53 60  1  0  0  0  0
 54 61  1  0  0  0  0
 55 61  1  0  0  0  0
 56 61  1  0  0  0  0
 57 73  1  0  0  0  0
 58 81  1  0  0  0  0
 59 61  1  0  0  0  0
 59 71  1  0  0  0  0
 60 73  1  0  0  0  0
 62 63  1  0  0  0  0
M  CHG  2  72   1  73   1
M  ISO  4  40 100  58 101  69 100  81 101
M  END
> <Batch ID>
0152

> <Smiles>
CNC(C)C(=O)NC(C(=O)N1Cc2cc([101O:1][101CH2:1]C(=O)Nc3cccc(C(=N)[100NH:0][100C:0](=O)N4CCCC(n5nc(-c6ccc(Oc7ccc(F)cc7F)cc6)c(C(N)=O)c5N)C4)c3)ccc2CC1C(=O)NC1CCCc2ccccc21)C(C)(C)C

> <Shape>
0.308

> <Color>
0.086

> <Negative vol penalty>
0.000

$$$$

  -OEChem-04052303273D

 85 94  0     1  0  0  0  0  0999 V2000
  -20.5429  -20.8226   20.7281 C   0  0  0  0  0  0  0  0  0  0  0  0
  -21.9079  -20.9581   20.4958 C   0  0  0  0  0  0  0  0  0  0  0  0
  -24.3755  -11.9048   24.8601 C   0  0  0  0  0  0  0  0  0  0  0  0
  -24.2247  -14.1539   25.7297 C   0  0  0  0  0  0  0  0  0  0  0  0
  -19.7128  -21.9413   20.6710 C   0  0  0  0  0  0  0  0  0  0  0  0
  -22.4434  -22.2124   20.2053 C   0  0  0  0  0  0  0  0  0  0  0  0
  -27.9472  -24.3362   21.8494 C   0  0  0  0  0  0  0  0  0  0  0  0
  -23.8755  -11.4062   26.0630 C   0  0  0  0  0  0  0  0  0  0  0  0
  -23.7246  -13.6552   26.9327 C   0  0  0  0  0  0  0  0  0  0  0  0
  -29.1604  -24.4242   21.1681 C   0  0  0  0  0  0  0  0  0  0  0  0
  -25.0425  -10.7631   29.1693 C   0  0  0  0  0  0  0  0  0  0  0  0
  -25.6794   -9.6533   29.7246 C   0  0  0  0  0  0  0  0  0  0  0  0
  -30.0107  -20.1977   19.1647 C   0  0  0  0  0  0  0  0  0  0  0  0
  -28.6567  -26.7084   20.5783 C   0  0  0  0  0  0  0  0  0  0  0  0
  -27.6095  -20.0539   18.7703 C   0  0  0  0  0  0  0  0  0  0  0  0
  -23.6166   -8.4027   29.5913 C   0  0  0  0  0  0  0  0  0  0  0  0
  -24.5501  -13.2787   24.6935 C   0  0  0  0  0  0  0  0  0  0  0  0
  -29.9706  -21.4927   18.6814 C   0  0  0  0  0  0  0  0  0  0  0  0
  -24.3270  -14.1830   22.3186 C   0  0  0  0  0  0  0  0  0  0  0  0
  -20.2398  -23.2115   20.3891 C   0  0  0  0  0  0  0  0  0  0  0  0
  -27.0732  -25.4321   21.8910 C   0  0  0  0  0  0  0  0  0  0  0  0
  -21.6193  -23.3490   20.1431 C   0  0  0  0  0  0  0  0  0  0  0  0
  -27.4342  -26.6326   21.2629 C   0  0  0  0  0  0  0  0  0  0  0  0
  -28.7686  -22.0669   18.2466 C   0  0  0  0  0  0  0  0  0  0  0  0
  -28.8144  -19.4766   19.2070 C   0  0  0  0  0  0  0  0  0  0  0  0
  -27.5798  -21.3627   18.2838 C   0  0  0  0  0  0  0  0  0  0  0  0
  -23.5501  -12.2813   27.0993 C   0  0  0  0  0  0  0  0  0  0  0  0
  -29.5141  -25.6095   20.5301 C   0  0  0  0  0  0  0  0  0  0  0  0
  -23.6926  -10.6927   28.8250 C   0  0  0  0  0  0  0  0  0  0  0  0
  -24.9665   -8.4732   29.9356 C   0  0  0  0  0  0  0  0  0  0  0  0
  -22.9797   -9.5126   29.0360 C   0  0  0  0  0  0  0  0  0  0  0  0
  -25.0671  -13.7944   23.4514 C   0  0  0  0  0  0  0  0  0  0  0  0
  -25.2748  -14.5969   21.4147 C   0  0  0  0  0  0  0  0  0  0  0  0
  -31.0261  -22.4779   18.5161 C   0  0  0  0  0  0  0  0  0  0  0  0
  -22.9097  -14.1709   22.1027 C   0  0  0  0  0  0  0  0  0  0  0  0
  -24.1098  -25.9775   20.8790 C   0  0  0  0  0  0  0  0  0  0  0  0
  -24.5059  -28.7864   22.4523 C   0  0  0  0  0  0  0  0  0  0  0  0
  -26.6482  -31.1407   23.6831 C   0  0  0  0  0  0  0  0  0  0  0  0
  -29.9087  -17.4194   20.1645 C   0  0  0  0  0  0  0  0  0  0  0  0
  -19.2960  -24.3838   20.2915 C   0  0  0  0  0  0  0  0  0  0  0  0
  -25.7802  -25.3296   22.6527 C   0  0  0  0  0  0  0  0  0  0  0  0
  -26.5403  -27.8444   21.2952 C   0  0  0  0  0  0  0  0  0  0  0  0
  -29.0222  -23.4684   17.7794 C   0  0  0  0  0  0  0  0  0  0  0  0
  -19.9987  -25.7378   20.3468 C   0  0  0  0  0  0  0  0  0  0  0  0
  -30.3152  -14.1374   21.4839 C   0  0  0  0  0  0  0  0  0  0  0  0
  -21.2108  -25.7484   19.4209 C   0  0  0  0  0  0  0  0  0  0  0  0
  -28.9252  -13.7876   22.0202 C   0  0  0  0  0  0  0  0  0  0  0  0
  -30.6517  -15.6119   21.6995 C   0  0  0  0  0  0  0  0  0  0  0  0
  -28.2615  -16.2082   21.7250 C   0  0  0  0  0  0  0  0  0  0  0  0
  -22.2415  -24.6968   19.8493 C   0  0  1  0  0  0  0  0  0  0  0  0
  -24.7355  -26.3429   22.1953 C   0  0  1  0  0  0  0  0  0  0  0  0
  -27.8515  -14.7481   21.4723 C   0  0  2  0  0  0  0  0  0  0  0  0
  -26.6750  -33.3432   24.8854 C   0  0  0  0  0  0  0  0  0  0  0  0
  -31.3525  -27.3078   18.1930 C   0  0  0  0  0  0  0  0  0  0  0  0
  -23.6953  -30.2013   19.8734 C   0  0  0  0  0  0  0  0  0  0  0  0
  -24.6416  -32.3175   20.8191 C   0  0  0  0  0  0  0  0  0  0  0  0
  -22.7272  -31.1922   21.9556 C   0  0  0  0  0  0  0  0  0  0  0  0
  -28.1442  -30.0055   25.9705 C   0  0  0  0  0  0  0  0  0  0  0  0
  -31.2218  -24.8190   17.6929 C   0  0  0  0  0  0  0  0  0  0  0  0
  -25.0288  -30.1537   22.0837 C   0  0  1  0  0  0  0  0  0  0  0  0
  -26.7191  -31.8303   25.0336 C   0  0  2  0  0  0  0  0  0  0  0  0
  -30.6370  -25.9925   18.4689 C   0  0  1  0  0  0  0  0  0  1  0  0
  -24.0394  -30.9429   21.1805 C   0  0  0  0  0  0  0  0  0  0  0  0
  -26.3834  -13.9476   23.2848 N   0  0  0  0  0  0  0  0  0  0  0  0
  -26.4780  -14.4370   22.0367 N   0  0  0  0  0  0  0  0  0  0  0  0
  -30.4864  -23.5950   18.0054 N   0  0  0  0  0  0  0  0  0  0  0  0
  -25.2839  -27.6925   22.0473 N   0  0  0  0  0  0  0  0  0  0  0  0
  -29.5924  -16.4618   21.1514 N   0  0  0  0  0  0  0  0  0  0  0  0
  -26.3737  -21.9363   17.8475 N   0  0  0  0  0  0  0  0  0  0  0  0
  -25.1879  -15.0784   20.1565 N   0  0  0  0  0  0  0  0  0  0  0  0
  -22.0803  -13.7148   23.1363 N   0  0  0  0  0  0  0  0  0  0  0  0
  -28.8153  -18.1463   19.6950 N   0  0  0  0  0  0  0  0  0  0  0  0
  -22.9972  -25.1656   20.9910 N   0  0  0  0  0  0  0  0  0  0  0  0
  -25.3515  -30.8199   23.3409 N   0  0  0  0  0  0  0  0  0  0  0  0
  -32.2911  -22.2531   18.8342 N   0  3  0  0  0  0  0  0  0  0  0  0
  -27.9807  -31.4635   25.7369 N   0  3  0  0  0  0  0  0  0  0  0  0
  -22.3950  -14.5378   21.0192 O   0  0  0  0  0  0  0  0  0  0  0  0
  -24.5992  -26.4019   19.8388 O   0  0  0  0  0  0  0  0  0  0  0  0
  -23.4498  -28.6926   23.0828 O   0  0  0  0  0  0  0  0  0  0  0  0
  -27.6431  -30.9129   22.9984 O   0  0  0  0  0  0  0  0  0  0  0  0
  -31.0602  -17.5637   19.7458 O   0  0  0  0  0  0  0  0  0  0  0  0
  -23.0619  -11.7951   28.2731 O   0  0  0  0  0  0  0  0  0  0  0  0
  -30.6974  -25.6978   19.8639 O   0  0  0  0  0  0  0  0  0  1  0  0
  -25.5786   -7.4070   30.4674 F   0  0  0  0  0  0  0  0  0  0  0  0
  -21.6829   -9.4386   28.7062 F   0  0  0  0  0  0  0  0  0  0  0  0
  1  2  1  0  0  0  0
  1  5  2  0  0  0  0
  2  6  2  0  0  0  0
  3  8  2  0  0  0  0
  3 17  1  0  0  0  0
  4  9  1  0  0  0  0
  4 17  2  0  0  0  0
  5 20  1  0  0  0  0
  6 22  1  0  0  0  0
  7 10  2  0  0  0  0
  7 21  1  0  0  0  0
  8 27  1  0  0  0  0
  9 27  2  0  0  0  0
 10 28  1  0  0  0  0
 11 12  2  0  0  0  0
 11 29  1  0  0  0  0
 12 30  1  0  0  0  0
 13 18  1  0  0  0  0
 13 25  2  0  0  0  0
 14 23  1  0  0  0  0
 14 28  2  0  0  0  0
 15 25  1  0  0  0  0
 15 26  2  0  0  0  0
 16 30  2  0  0  0  0
 16 31  1  0  0  0  0
 17 32  1  0  0  0  0
 18 24  2  0  0  0  0
 18 34  1  0  0  0  0
 19 32  1  0  0  0  0
 19 33  2  0  0  0  0
 19 35  1  0  0  0  0
 20 22  2  0  0  0  0
 20 40  1  0  0  0  0
 21 23  2  0  0  0  0
 21 41  1  0  0  0  0
 22 50  1  0  0  0  0
 23 42  1  0  0  0  0
 24 26  1  0  0  0  0
 24 43  1  0  0  0  0
 25 72  1  0  0  0  0
 26 69  1  0  0  0  0
 27 82  1  0  0  0  0
 28 83  1  0  0  0  0
 29 31  2  0  0  0  0
 29 82  1  0  0  0  0
 30 84  1  0  0  0  0
 31 85  1  0  0  0  0
 32 64  2  0  0  0  0
 33 65  1  0  0  0  0
 33 70  1  0  0  0  0
 34 66  1  0  0  0  0
 34 75  2  0  0  0  0
 35 71  1  0  0  0  0
 35 77  2  0  0  0  0
 36 51  1  0  0  0  0
 36 73  1  0  0  0  0
 36 78  2  0  0  0  0
 37 60  1  0  0  0  0
 37 67  1  0  0  0  0
 37 79  2  0  0  0  0
 38 61  1  0  0  0  0
 38 74  1  0  0  0  0
 38 80  2  0  0  0  0
 39 68  1  0  0  0  0
 39 72  1  0  0  0  0
 39 81  2  0  0  0  0
 40 44  1  0  0  0  0
 41 51  1  0  0  0  0
 42 67  1  0  0  0  0
 43 66  1  0  0  0  0
 44 46  1  0  0  0  0
 45 47  1  0  0  0  0
 45 48  1  0  0  0  0
 46 50  1  0  0  0  0
 47 52  1  0  0  0  0
 48 68  1  0  0  0  0
 49 52  1  0  0  0  0
 49 68  1  0  0  0  0
 50 73  1  0  0  0  0
 51 67  1  0  0  0  0
 52 65  1  0  0  0  0
 53 61  1  0  0  0  0
 54 62  1  0  0  0  0
 55 63  1  0  0  0  0
 56 63  1  0  0  0  0
 57 63  1  0  0  0  0
 58 76  1  0  0  0  0
 59 62  1  0  0  0  0
 59 66  1  0  0  0  0
 60 63  1  0  0  0  0
 60 74  1  0  0  0  0
 61 76  1  0  0  0  0
 62 83  1  0  0  0  0
 64 65  1  0  0  0  0
M  CHG  2  75   1  76   1
M  ISO  4  39 100  62 101  72 100  83 101
M  END
> <Batch ID>
0152

> <Smiles>
CNC(C)C(=O)NC(C(=O)N1Cc2cc([101O:1][101CH:1](C)CN3Cc4c(N)cc([100NH:0][100C:0](=O)N5CCCC(n6nc(-c7ccc(Oc8ccc(F)cc8F)cc7)c(C(N)=O)c6N)C5)cc4C3=N)ccc2CC1C(=O)NC1CCCc2ccccc21)C(C)(C)C

> <Shape>
0.222

> <Color>
0.092

> <Negative vol penalty>
0.000

$$$$

  -OEChem-04052303273D

 84 93  0     1  0  0  0  0  0999 V2000
  -31.6297  -12.5245   18.6700 C   0  0  0  0  0  0  0  0  0  0  0  0
  -31.2028  -13.4061   19.6578 C   0  0  0  0  0  0  0  0  0  0  0  0
  -26.4161  -31.5974   21.9563 C   0  0  0  0  0  0  0  0  0  0  0  0
  -26.1158  -30.0414   23.7799 C   0  0  0  0  0  0  0  0  0  0  0  0
  -30.7288  -12.0660   17.7098 C   0  0  0  0  0  0  0  0  0  0  0  0
  -29.8749  -13.8307   19.6854 C   0  0  0  0  0  0  0  0  0  0  0  0
  -27.8979  -13.7255   24.3464 C   0  0  0  0  0  0  0  0  0  0  0  0
  -25.2701  -32.2856   22.3547 C   0  0  0  0  0  0  0  0  0  0  0  0
  -24.9698  -30.7296   24.1784 C   0  0  0  0  0  0  0  0  0  0  0  0
  -28.2412  -14.7670   25.2073 C   0  0  0  0  0  0  0  0  0  0  0  0
  -24.4153  -34.5368   24.7284 C   0  0  0  0  0  0  0  0  0  0  0  0
  -24.4779  -35.9295   24.7720 C   0  0  0  0  0  0  0  0  0  0  0  0
  -28.7217  -19.8949   22.1581 C   0  0  0  0  0  0  0  0  0  0  0  0
  -28.8146  -20.9050   21.1576 C   0  0  0  0  0  0  0  0  0  0  0  0
  -26.1333  -15.8419   24.7378 C   0  0  0  0  0  0  0  0  0  0  0  0
  -22.6899  -36.0606   23.1524 C   0  0  0  0  0  0  0  0  0  0  0  0
  -26.8390  -30.4753   22.6689 C   0  0  0  0  0  0  0  0  0  0  0  0
  -29.3452  -29.9998   22.6770 C   0  0  0  0  0  0  0  0  0  0  0  0
  -29.3869  -12.4776   17.7313 C   0  0  0  0  0  0  0  0  0  0  0  0
  -26.6723  -13.7398   23.6652 C   0  0  0  0  0  0  0  0  0  0  0  0
  -28.9555  -13.3784   18.7237 C   0  0  0  0  0  0  0  0  0  0  0  0
  -25.7757  -14.7981   23.8707 C   0  0  0  0  0  0  0  0  0  0  0  0
  -24.5470  -31.8517   23.4657 C   0  0  0  0  0  0  0  0  0  0  0  0
  -27.3601  -15.8269   25.4009 C   0  0  0  0  0  0  0  0  0  0  0  0
  -23.4902  -33.9059   23.8966 C   0  0  0  0  0  0  0  0  0  0  0  0
  -23.6152  -36.6914   23.9841 C   0  0  0  0  0  0  0  0  0  0  0  0
  -22.6275  -34.6678   23.1086 C   0  0  0  0  0  0  0  0  0  0  0  0
  -28.0224  -29.7637   22.2574 C   0  0  0  0  0  0  0  0  0  0  0  0
  -28.4060  -20.4172   23.3931 C   0  0  0  0  0  0  0  0  0  0  0  0
  -30.0914  -29.0643   22.0028 C   0  0  0  0  0  0  0  0  0  0  0  0
  -28.5662  -22.1611   21.6659 C   0  0  0  0  0  0  0  0  0  0  0  0
  -29.8541  -30.9772   23.5943 C   0  0  0  0  0  0  0  0  0  0  0  0
  -28.2435  -19.6130   24.6174 C   0  0  0  0  0  0  0  0  0  0  0  0
  -25.8061  -13.8086   20.6076 C   0  0  0  0  0  0  0  0  0  0  0  0
  -22.8311  -13.4355   21.8456 C   0  0  0  0  0  0  0  0  0  0  0  0
  -20.7344  -13.8122   24.5118 C   0  0  0  0  0  0  0  0  0  0  0  0
  -28.8007  -23.7075   19.6911 C   0  0  0  0  0  0  0  0  0  0  0  0
  -28.4611  -11.9921   16.6441 C   0  0  0  0  0  0  0  0  0  0  0  0
  -26.3054  -12.5955   22.7605 C   0  0  0  0  0  0  0  0  0  0  0  0
  -24.4389  -14.8507   23.1788 C   0  0  0  0  0  0  0  0  0  0  0  0
  -26.9831  -12.1971   16.9662 C   0  0  0  0  0  0  0  0  0  0  0  0
  -30.1258  -26.5155   17.9486 C   0  0  0  0  0  0  0  0  0  0  0  0
  -31.5151  -19.1994   26.1131 C   0  0  0  0  0  0  0  0  0  0  0  0
  -26.7432  -13.6061   17.4991 C   0  0  0  0  0  0  0  0  0  0  0  0
  -29.8626  -27.6877   18.8966 C   0  0  0  0  0  0  0  0  0  0  0  0
  -30.5824  -18.9863   27.3008 C   0  0  0  0  0  0  0  0  0  0  0  0
  -30.6378  -19.9031   25.0856 C   0  0  0  0  0  0  0  0  0  0  0  0
  -28.9878  -25.4967   17.9768 C   0  0  0  0  0  0  0  0  0  0  0  0
  -28.3644  -26.1774   20.2609 C   0  0  0  0  0  0  0  0  0  0  0  0
  -27.5172  -13.8425   18.8016 C   0  0  1  0  0  0  0  0  0  0  0  0
  -25.2511  -12.9685   21.7229 C   0  0  1  0  0  0  0  0  0  0  0  0
  -29.5134  -27.1974   20.3155 C   0  0  2  0  0  0  0  0  0  0  0  0
  -29.2355  -18.6363   26.6610 C   0  0  2  0  0  0  0  0  0  0  0  0
  -18.3511  -13.4517   25.2100 C   0  0  0  0  0  0  0  0  0  0  0  0
  -21.9931  -15.8954   20.2467 C   0  0  0  0  0  0  0  0  0  0  0  0
  -19.9475  -16.0456   21.6823 C   0  0  0  0  0  0  0  0  0  0  0  0
  -20.3210  -14.0358   20.2528 C   0  0  0  0  0  0  0  0  0  0  0  0
  -21.5251  -11.9306   26.6551 C   0  0  0  0  0  0  0  0  0  0  0  0
  -29.0806  -17.1507   26.3721 C   0  0  0  0  0  0  0  0  0  1  0  0
  -21.7437  -14.3712   22.3156 C   0  0  1  0  0  0  0  0  0  0  0  0
  -19.7499  -12.8568   25.1619 C   0  0  2  0  0  0  0  0  0  0  0  0
  -21.0273  -15.0873   21.1361 C   0  0  0  0  0  0  0  0  0  0  0  0
  -27.9302  -28.7572   21.3842 N   0  0  0  0  0  0  0  0  0  0  0  0
  -29.2047  -28.3527   21.2494 N   0  0  0  0  0  0  0  0  0  0  0  0
  -29.2922  -19.3861   25.3892 N   0  0  0  0  0  0  0  0  0  0  0  0
  -24.1287  -13.7115   22.2993 N   0  0  0  0  0  0  0  0  0  0  0  0
  -28.7157  -25.0746   19.3525 N   0  0  0  0  0  0  0  0  0  0  0  0
  -31.4130  -28.7893   21.9867 N   0  0  0  0  0  0  0  0  0  0  0  0
  -28.9496  -31.8611   24.1985 N   0  0  0  0  0  0  0  0  0  0  0  0
  -28.5531  -23.4298   21.0350 N   0  0  0  0  0  0  0  0  0  0  0  0
  -26.8404  -13.2102   19.9136 N   0  0  0  0  0  0  0  0  0  0  0  0
  -20.8574  -13.5763   23.1589 N   0  0  0  0  0  0  0  0  0  0  0  0
  -27.0440  -19.1298   24.9272 N   0  3  0  0  0  0  0  0  0  0  0  0
  -20.1755  -12.5434   26.5553 N   0  3  0  0  0  0  0  0  0  0  0  0
  -31.0767  -31.0749   23.8574 O   0  0  0  0  0  0  0  0  0  0  0  0
  -25.3301  -14.9170   20.3917 O   0  0  0  0  0  0  0  0  0  0  0  0
  -22.5388  -12.4902   21.1090 O   0  0  0  0  0  0  0  0  0  0  0  0
  -21.3315  -14.6832   25.1406 O   0  0  0  0  0  0  0  0  0  0  0  0
  -29.0999  -22.8496   18.8564 O   0  0  0  0  0  0  0  0  0  0  0  0
  -23.4288  -32.5231   23.8549 O   0  0  0  0  0  0  0  0  0  0  0  0
  -27.6930  -16.8450   26.2401 O   0  0  0  0  0  0  0  0  0  1  0  0
  -23.6743  -38.0289   24.0273 F   0  0  0  0  0  0  0  0  0  0  0  0
  -21.7358  -34.0674   22.3085 F   0  0  0  0  0  0  0  0  0  0  0  0
  -28.2230  -22.1191   23.3431 S   0  0  0  0  0  0  0  0  0  0  0  0
  1  2  1  0  0  0  0
  1  5  2  0  0  0  0
  2  6  2  0  0  0  0
  3  8  2  0  0  0  0
  3 17  1  0  0  0  0
  4  9  1  0  0  0  0
  4 17  2  0  0  0  0
  5 19  1  0  0  0  0
  6 21  1  0  0  0  0
  7 10  2  0  0  0  0
  7 20  1  0  0  0  0
  8 23  1  0  0  0  0
  9 23  2  0  0  0  0
 10 24  1  0  0  0  0
 11 12  2  0  0  0  0
 11 25  1  0  0  0  0
 12 26  1  0  0  0  0
 13 14  1  0  0  0  0
 13 29  2  0  0  0  0
 14 31  2  0  0  0  0
 15 22  1  0  0  0  0
 15 24  2  0  0  0  0
 16 26  2  0  0  0  0
 16 27  1  0  0  0  0
 17 28  1  0  0  0  0
 18 28  1  0  0  0  0
 18 30  2  0  0  0  0
 18 32  1  0  0  0  0
 19 21  2  0  0  0  0
 19 38  1  0  0  0  0
 20 22  2  0  0  0  0
 20 39  1  0  0  0  0
 21 50  1  0  0  0  0
 22 40  1  0  0  0  0
 23 80  1  0  0  0  0
 24 81  1  0  0  0  0
 25 27  2  0  0  0  0
 25 80  1  0  0  0  0
 26 82  1  0  0  0  0
 27 83  1  0  0  0  0
 28 63  2  0  0  0  0
 29 33  1  0  0  0  0
 29 84  1  0  0  0  0
 30 64  1  0  0  0  0
 30 68  1  0  0  0  0
 31 70  1  0  0  0  0
 31 84  1  0  0  0  0
 32 69  1  0  0  0  0
 32 75  2  0  0  0  0
 33 65  1  0  0  0  0
 33 73  2  0  0  0  0
 34 51  1  0  0  0  0
 34 71  1  0  0  0  0
 34 76  2  0  0  0  0
 35 60  1  0  0  0  0
 35 66  1  0  0  0  0
 35 77  2  0  0  0  0
 36 61  1  0  0  0  0
 36 72  1  0  0  0  0
 36 78  2  0  0  0  0
 37 67  1  0  0  0  0
 37 70  1  0  0  0  0
 37 79  2  0  0  0  0
 38 41  1  0  0  0  0
 39 51  1  0  0  0  0
 40 66  1  0  0  0  0
 41 44  1  0  0  0  0
 42 45  1  0  0  0  0
 42 48  1  0  0  0  0
 43 46  1  0  0  0  0
 43 47  1  0  0  0  0
 44 50  1  0  0  0  0
 45 52  1  0  0  0  0
 46 53  1  0  0  0  0
 47 65  1  0  0  0  0
 48 67  1  0  0  0  0
 49 52  1  0  0  0  0
 49 67  1  0  0  0  0
 50 71  1  0  0  0  0
 51 66  1  0  0  0  0
 52 64  1  0  0  0  0
 53 59  1  0  0  0  0
 53 65  1  0  0  0  0
 54 61  1  0  0  0  0
 55 62  1  0  0  0  0
 56 62  1  0  0  0  0
 57 62  1  0  0  0  0
 58 74  1  0  0  0  0
 59 81  1  0  0  0  0
 60 62  1  0  0  0  0
 60 72  1  0  0  0  0
 61 74  1  0  0  0  0
 63 64  1  0  0  0  0
M  CHG  2  73   1  74   1
M  ISO  4  37 100  59 101  70 100  81 101
M  END
> <Batch ID>
0152

> <Smiles>
CNC(C)C(=O)NC(C(=O)N1Cc2cc([101O:1][101CH2:1]C3CCCN3C(=N)c3ccc([100NH:0][100C:0](=O)N4CCCC(n5nc(-c6ccc(Oc7ccc(F)cc7F)cc6)c(C(N)=O)c5N)C4)s3)ccc2CC1C(=O)NC1CCCc2ccccc21)C(C)(C)C

> <Shape>
0.217

> <Color>
0.053

> <Negative vol penalty>
0.000

$$$$

  -OEChem-04052303273D

 84 93  0     1  0  0  0  0  0999 V2000
  -25.9594  -38.4418   22.8847 C   0  0  0  0  0  0  0  0  0  0  0  0
  -26.4112  -37.2909   23.5225 C   0  0  0  0  0  0  0  0  0  0  0  0
  -23.0591  -12.6667   23.1540 C   0  0  0  0  0  0  0  0  0  0  0  0
  -24.4605  -10.7194   23.4388 C   0  0  0  0  0  0  0  0  0  0  0  0
  -24.7058  -38.4528   22.2745 C   0  0  0  0  0  0  0  0  0  0  0  0
  -25.6092  -36.1506   23.5514 C   0  0  0  0  0  0  0  0  0  0  0  0
  -27.9237  -29.9178   20.7790 C   0  0  0  0  0  0  0  0  0  0  0  0
  -22.4468  -12.4054   24.3797 C   0  0  0  0  0  0  0  0  0  0  0  0
  -23.8482  -10.4581   24.6646 C   0  0  0  0  0  0  0  0  0  0  0  0
  -28.3762  -28.6375   20.4594 C   0  0  0  0  0  0  0  0  0  0  0  0
  -20.9572   -9.0932   25.7645 C   0  0  0  0  0  0  0  0  0  0  0  0
  -20.5785   -7.7777   26.0323 C   0  0  0  0  0  0  0  0  0  0  0  0
  -30.9256  -19.6296   19.8983 C   0  0  0  0  0  0  0  0  0  0  0  0
  -31.0458  -18.2124   19.8122 C   0  0  0  0  0  0  0  0  0  0  0  0
  -26.2053  -27.7224   21.0053 C   0  0  0  0  0  0  0  0  0  0  0  0
  -22.0250   -7.7553   27.9673 C   0  0  0  0  0  0  0  0  0  0  0  0
  -24.0659  -11.8237   22.6835 C   0  0  0  0  0  0  0  0  0  0  0  0
  -24.0793  -12.1579   20.1545 C   0  0  0  0  0  0  0  0  0  0  0  0
  -23.8920  -37.3090   22.2876 C   0  0  0  0  0  0  0  0  0  0  0  0
  -26.6042  -30.1076   21.1987 C   0  0  0  0  0  0  0  0  0  0  0  0
  -24.3430  -36.1467   22.9420 C   0  0  0  0  0  0  0  0  0  0  0  0
  -25.7428  -29.0043   21.3148 C   0  0  0  0  0  0  0  0  0  0  0  0
  -22.8414  -11.3011   25.1350 C   0  0  0  0  0  0  0  0  0  0  0  0
  -27.5192  -27.5425   20.5725 C   0  0  0  0  0  0  0  0  0  0  0  0
  -21.8699   -9.7397   26.5980 C   0  0  0  0  0  0  0  0  0  0  0  0
  -21.1123   -7.1088   27.1337 C   0  0  0  0  0  0  0  0  0  0  0  0
  -22.4037   -9.0707   27.6995 C   0  0  0  0  0  0  0  0  0  0  0  0
  -24.6984  -12.0928   21.4171 C   0  0  0  0  0  0  0  0  0  0  0  0
  -25.1037  -12.4390   19.2839 C   0  0  0  0  0  0  0  0  0  0  0  0
  -29.6834  -20.0171   20.3503 C   0  0  0  0  0  0  0  0  0  0  0  0
  -29.8907  -17.5707   20.2020 C   0  0  0  0  0  0  0  0  0  0  0  0
  -22.7013  -11.9804   19.8004 C   0  0  0  0  0  0  0  0  0  0  0  0
  -23.9588  -32.5275   22.3040 C   0  0  0  0  0  0  0  0  0  0  0  0
  -22.5944  -30.5029   20.4467 C   0  0  0  0  0  0  0  0  0  0  0  0
  -20.5756  -28.9057   18.2082 C   0  0  0  0  0  0  0  0  0  0  0  0
  -30.4039  -15.1177   19.9452 C   0  0  0  0  0  0  0  0  0  0  0  0
  -22.5248  -37.3835   21.6554 C   0  0  0  0  0  0  0  0  0  0  0  0
  -26.0917  -31.4605   21.6122 C   0  0  0  0  0  0  0  0  0  0  0  0
  -24.3417  -29.2513   21.8035 C   0  0  0  0  0  0  0  0  0  0  0  0
  -21.8932  -36.0162   21.4069 C   0  0  0  0  0  0  0  0  0  0  0  0
  -29.8202  -11.8234   18.7271 C   0  0  0  0  0  0  0  0  0  0  0  0
  -22.0362  -35.1300   22.6402 C   0  0  0  0  0  0  0  0  0  0  0  0
  -28.3821  -11.5269   19.1585 C   0  0  0  0  0  0  0  0  0  0  0  0
  -28.8230  -23.5938   19.6577 C   0  0  0  0  0  0  0  0  0  0  0  0
  -27.8405  -22.8867   21.8528 C   0  0  0  0  0  0  0  0  0  0  0  0
  -30.5691  -12.6441   19.7757 C   0  0  0  0  0  0  0  0  0  0  0  0
  -29.7852  -22.4043   19.7087 C   0  0  0  0  0  0  0  0  0  0  0  0
  -28.8088  -21.7033   21.9000 C   0  0  0  0  0  0  0  0  0  0  0  0
  -28.4562  -13.5824   20.6270 C   0  0  0  0  0  0  0  0  0  0  0  0
  -23.5124  -34.8820   22.9732 C   0  0  1  0  0  0  0  0  0  0  0  0
  -24.6120  -31.6816   21.2509 C   0  0  1  0  0  0  0  0  0  0  0  0
  -27.6418  -12.8133   19.5740 C   0  0  2  0  0  0  0  0  0  0  0  0
  -28.4039  -24.0676   21.0532 C   0  0  0  0  0  0  0  0  0  0  0  0
  -18.1627  -28.3911   17.7496 C   0  0  0  0  0  0  0  0  0  0  0  0
  -22.6356  -28.3781   22.6347 C   0  0  0  0  0  0  0  0  0  0  0  0
  -20.6606  -27.3053   21.5316 C   0  0  0  0  0  0  0  0  0  0  0  0
  -20.4772  -29.6248   22.4312 C   0  0  0  0  0  0  0  0  0  0  0  0
  -20.6384  -30.3492   15.6253 C   0  0  0  0  0  0  0  0  0  0  0  0
  -27.3803  -25.1989   20.9545 C   0  0  0  0  0  0  0  0  0  1  0  0
  -21.8226  -29.2128   20.3307 C   0  0  1  0  0  0  0  0  0  0  0  0
  -19.3132  -29.3519   17.4929 C   0  0  2  0  0  0  0  0  0  0  0  0
  -21.4231  -28.6345   21.7176 C   0  0  0  0  0  0  0  0  0  0  0  0
  -26.0142  -12.3145   21.3583 N   0  0  0  0  0  0  0  0  0  0  0  0
  -26.2303  -12.5215   20.0481 N   0  0  0  0  0  0  0  0  0  0  0  0
  -29.2416  -21.3316   20.5469 N   0  0  0  0  0  0  0  0  0  0  0  0
  -23.7938  -30.4598   21.1679 N   0  0  0  0  0  0  0  0  0  0  0  0
  -29.8102  -13.8493   20.1168 N   0  0  0  0  0  0  0  0  0  0  0  0
  -25.1417  -12.6210   17.9468 N   0  0  0  0  0  0  0  0  0  0  0  0
  -22.2553  -10.6916   19.4769 N   0  0  0  0  0  0  0  0  0  0  0  0
  -29.5756  -16.1910   20.2715 N   0  0  0  0  0  0  0  0  0  0  0  0
  -24.0711  -33.8870   22.0832 N   0  0  0  0  0  0  0  0  0  0  0  0
  -20.6924  -29.4910   19.4512 N   0  0  0  0  0  0  0  0  0  0  0  0
  -19.5479  -29.4219   16.0229 N   0  3  0  0  0  0  0  0  0  0  0  0
  -21.8934  -12.9389   19.7556 O   0  0  0  0  0  0  0  0  0  0  0  0
  -23.3928  -31.9878   23.2474 O   0  0  0  0  0  0  0  0  0  0  0  0
  -22.1455  -31.5238   19.9180 O   0  0  0  0  0  0  0  0  0  0  0  0
  -21.3761  -28.1141   17.7152 O   0  0  0  0  0  0  0  0  0  0  0  0
  -31.5525  -15.2435   19.5128 O   0  0  0  0  0  0  0  0  0  0  0  0
  -29.5617  -24.5788   21.7179 O   0  0  0  0  0  0  0  0  0  0  0  0
  -22.2443  -11.0459   26.3312 O   0  0  0  0  0  0  0  0  0  0  0  0
  -27.9660  -26.2959   20.2546 O   0  0  0  0  0  0  0  0  0  1  0  0
  -20.7474   -5.8461   27.3917 F   0  0  0  0  0  0  0  0  0  0  0  0
  -23.2800   -9.6870   28.5045 F   0  0  0  0  0  0  0  0  0  0  0  0
  -28.6683  -18.6752   20.6688 S   0  0  0  0  0  0  0  0  0  0  0  0
  1  2  1  0  0  0  0
  1  5  2  0  0  0  0
  2  6  2  0  0  0  0
  3  8  2  0  0  0  0
  3 17  1  0  0  0  0
  4  9  1  0  0  0  0
  4 17  2  0  0  0  0
  5 19  1  0  0  0  0
  6 21  1  0  0  0  0
  7 10  2  0  0  0  0
  7 20  1  0  0  0  0
  8 23  1  0  0  0  0
  9 23  2  0  0  0  0
 10 24  1  0  0  0  0
 11 12  2  0  0  0  0
 11 25  1  0  0  0  0
 12 26  1  0  0  0  0
 13 14  1  0  0  0  0
 13 30  2  0  0  0  0
 14 31  2  0  0  0  0
 15 22  1  0  0  0  0
 15 24  2  0  0  0  0
 16 26  2  0  0  0  0
 16 27  1  0  0  0  0
 17 28  1  0  0  0  0
 18 28  1  0  0  0  0
 18 29  2  0  0  0  0
 18 32  1  0  0  0  0
 19 21  2  0  0  0  0
 19 37  1  0  0  0  0
 20 22  2  0  0  0  0
 20 38  1  0  0  0  0
 21 50  1  0  0  0  0
 22 39  1  0  0  0  0
 23 80  1  0  0  0  0
 24 81  1  0  0  0  0
 25 27  2  0  0  0  0
 25 80  1  0  0  0  0
 26 82  1  0  0  0  0
 27 83  1  0  0  0  0
 28 63  2  0  0  0  0
 29 64  1  0  0  0  0
 29 68  1  0  0  0  0
 30 65  1  0  0  0  0
 30 84  1  0  0  0  0
 31 70  1  0  0  0  0
 31 84  1  0  0  0  0
 32 69  1  0  0  0  0
 32 74  2  0  0  0  0
 33 51  1  0  0  0  0
 33 71  1  0  0  0  0
 33 75  2  0  0  0  0
 34 60  1  0  0  0  0
 34 66  1  0  0  0  0
 34 76  2  0  0  0  0
 35 61  1  0  0  0  0
 35 72  1  0  0  0  0
 35 77  2  0  0  0  0
 36 67  1  0  0  0  0
 36 70  1  0  0  0  0
 36 78  2  0  0  0  0
 37 40  1  0  0  0  0
 38 51  1  0  0  0  0
 39 66  1  0  0  0  0
 40 42  1  0  0  0  0
 41 43  1  0  0  0  0
 41 46  1  0  0  0  0
 42 50  1  0  0  0  0
 43 52  1  0  0  0  0
 44 47  1  0  0  0  0
 44 53  1  0  0  0  0
 45 48  1  0  0  0  0
 45 53  1  0  0  0  0
 46 67  1  0  0  0  0
 47 65  1  0  0  0  0
 48 65  1  0  0  0  0
 49 52  1  0  0  0  0
 49 67  1  0  0  0  0
 50 71  1  0  0  0  0
 51 66  1  0  0  0  0
 52 64  1  0  0  0  0
 53 59  1  0  0  0  0
 53 79  1  0  0  0  0
 54 61  1  0  0  0  0
 55 62  1  0  0  0  0
 56 62  1  0  0  0  0
 57 62  1  0  0  0  0
 58 73  1  0  0  0  0
 59 81  1  0  0  0  0
 60 62  1  0  0  0  0
 60 72  1  0  0  0  0
 61 73  1  0  0  0  0
 63 64  1  0  0  0  0
M  CHG  1  73   1
M  ISO  4  36 100  59 101  70 100  81 101
M  END
> <Batch ID>
0152

> <Smiles>
CNC(C)C(=O)NC(C(=O)N1Cc2cc([101O:1][101CH2:1]C3(O)CCN(c4ccc([100NH:0][100C:0](=O)N5CCCC(n6nc(-c7ccc(Oc8ccc(F)cc8F)cc7)c(C(N)=O)c6N)C5)s4)CC3)ccc2CC1C(=O)NC1CCCc2ccccc21)C(C)(C)C

> <Shape>
0.283

> <Color>
0.094

> <Negative vol penalty>
0.000

$$$$

  -OEChem-04052303273D

 86 94  0     1  0  0  0  0  0999 V2000
  -26.5804  -34.9664   23.1641 C   0  0  0  0  0  0  0  0  0  0  0  0
  -27.0336  -33.6906   22.8442 C   0  0  0  0  0  0  0  0  0  0  0  0
  -24.5832   -9.4618   22.0012 C   0  0  0  0  0  0  0  0  0  0  0  0
  -23.2552  -11.1098   23.1663 C   0  0  0  0  0  0  0  0  0  0  0  0
  -25.3453  -35.1296   23.7901 C   0  0  0  0  0  0  0  0  0  0  0  0
  -26.2524  -32.5771   23.1511 C   0  0  0  0  0  0  0  0  0  0  0  0
  -26.0226  -29.2542   19.3365 C   0  0  0  0  0  0  0  0  0  0  0  0
  -24.0497   -8.4593   22.8111 C   0  0  0  0  0  0  0  0  0  0  0  0
  -22.7217  -10.1073   23.9762 C   0  0  0  0  0  0  0  0  0  0  0  0
  -27.1247  -28.4208   19.1508 C   0  0  0  0  0  0  0  0  0  0  0  0
  -21.1855   -6.6725   23.0027 C   0  0  0  0  0  0  0  0  0  0  0  0
  -20.7671   -5.4941   22.3848 C   0  0  0  0  0  0  0  0  0  0  0  0
  -25.7620  -22.1169   19.6114 C   0  0  0  0  0  0  0  0  0  0  0  0
  -25.4773  -19.7449   19.2514 C   0  0  0  0  0  0  0  0  0  0  0  0
  -25.9602  -26.6383   20.2847 C   0  0  0  0  0  0  0  0  0  0  0  0
  -27.3659  -20.5559   20.5212 C   0  0  0  0  0  0  0  0  0  0  0  0
  -22.3459   -4.2370   23.7131 C   0  0  0  0  0  0  0  0  0  0  0  0
  -24.1860  -10.7871   22.1788 C   0  0  0  0  0  0  0  0  0  0  0  0
  -25.0376  -21.0559   19.0681 C   0  0  0  0  0  0  0  0  0  0  0  0
  -24.2292  -12.2836   20.1133 C   0  0  0  0  0  0  0  0  0  0  0  0
  -24.5443  -34.0182   24.0961 C   0  0  0  0  0  0  0  0  0  0  0  0
  -24.8833  -28.7885   20.0084 C   0  0  0  0  0  0  0  0  0  0  0  0
  -25.0060  -32.7255   23.7830 C   0  0  0  0  0  0  0  0  0  0  0  0
  -24.8440  -27.4669   20.4753 C   0  0  0  0  0  0  0  0  0  0  0  0
  -26.9262  -21.8669   20.3379 C   0  0  0  0  0  0  0  0  0  0  0  0
  -26.6415  -19.4949   19.9779 C   0  0  0  0  0  0  0  0  0  0  0  0
  -23.1189   -8.7820   23.7985 C   0  0  0  0  0  0  0  0  0  0  0  0
  -27.0948  -27.1135   19.6275 C   0  0  0  0  0  0  0  0  0  0  0  0
  -22.1842   -6.6332   23.9758 C   0  0  0  0  0  0  0  0  0  0  0  0
  -21.3472   -4.2764   22.7400 C   0  0  0  0  0  0  0  0  0  0  0  0
  -22.7643   -5.4155   24.3310 C   0  0  0  0  0  0  0  0  0  0  0  0
  -24.7371  -11.8232   21.3429 C   0  0  0  0  0  0  0  0  0  0  0  0
  -25.1069  -13.2663   19.7255 C   0  0  0  0  0  0  0  0  0  0  0  0
  -23.8304  -21.3156   18.3154 C   0  0  0  0  0  0  0  0  0  0  0  0
  -23.0678  -11.8608   19.3867 C   0  0  0  0  0  0  0  0  0  0  0  0
  -23.3596  -29.6088   22.6748 C   0  0  0  0  0  0  0  0  0  0  0  0
  -21.2083  -27.4026   21.6612 C   0  0  0  0  0  0  0  0  0  0  0  0
  -20.5748  -24.6209   19.7883 C   0  0  0  0  0  0  0  0  0  0  0  0
  -28.2202  -17.7411   20.8600 C   0  0  0  0  0  0  0  0  0  0  0  0
  -23.2377  -34.2411   24.8158 C   0  0  0  0  0  0  0  0  0  0  0  0
  -23.6924  -29.6917   20.1771 C   0  0  0  0  0  0  0  0  0  0  0  0
  -23.6370  -26.9123   21.1853 C   0  0  0  0  0  0  0  0  0  0  0  0
  -22.3028  -33.0353   24.7685 C   0  0  0  0  0  0  0  0  0  0  0  0
  -29.6375  -14.5549   21.5790 C   0  0  0  0  0  0  0  0  0  0  0  0
  -23.0644  -31.7560   25.1005 C   0  0  0  0  0  0  0  0  0  0  0  0
  -28.4471  -13.5981   21.4806 C   0  0  0  0  0  0  0  0  0  0  0  0
  -29.2360  -15.8993   22.1833 C   0  0  0  0  0  0  0  0  0  0  0  0
  -26.9092  -15.6029   21.4300 C   0  0  0  0  0  0  0  0  0  0  0  0
  -24.1763  -31.4946   24.0774 C   0  0  1  0  0  0  0  0  0  0  0  0
  -22.7832  -29.2730   21.3284 C   0  0  1  0  0  0  0  0  0  0  0  0
  -27.2509  -14.2583   20.7674 C   0  0  2  0  0  0  0  0  0  0  0  0
  -19.2299  -22.8026   18.7010 C   0  0  0  0  0  0  0  0  0  0  0  0
  -21.4757  -26.0701   24.3931 C   0  0  0  0  0  0  0  0  0  0  0  0
  -20.3955  -24.0291   23.4258 C   0  0  0  0  0  0  0  0  0  0  0  0
  -19.1381  -26.1819   23.5112 C   0  0  0  0  0  0  0  0  0  0  0  0
  -30.4018  -24.4266   21.6924 C   0  0  0  0  0  0  0  0  0  0  0  0
  -30.5421  -25.2000   19.3152 C   0  0  0  0  0  0  0  0  0  0  0  0
  -20.0490  -26.2812   17.3954 C   0  0  0  0  0  0  0  0  0  0  0  0
  -27.7095  -23.0149   20.9265 C   0  0  0  0  0  0  0  0  0  0  0  0
  -28.7707  -23.5316   19.9437 C   0  0  0  0  0  0  0  0  0  0  0  0
  -21.0295  -25.9161   21.8547 C   0  0  1  0  0  0  0  0  0  0  0  0
  -19.4656  -24.3016   18.8024 C   0  0  2  0  0  0  0  0  0  0  0  0
  -20.5333  -25.5601   23.2846 C   0  0  0  0  0  0  0  0  0  0  0  0
  -29.5862  -24.7532   20.4342 C   0  0  0  0  0  0  0  0  0  0  0  0
  -25.8512  -12.4610   21.7118 N   0  0  0  0  0  0  0  0  0  0  0  0
  -26.0507  -13.3320   20.7080 N   0  0  0  0  0  0  0  0  0  0  0  0
  -22.5002  -27.8363   21.3313 N   0  0  0  0  0  0  0  0  0  0  0  0
  -28.0998  -16.4670   21.4541 N   0  0  0  0  0  0  0  0  0  0  0  0
  -25.1559  -14.0719   18.6434 N   0  0  0  0  0  0  0  0  0  0  0  0
  -23.3986  -22.5749   18.1340 N   0  0  0  0  0  0  0  0  0  0  0  0
  -22.2762  -10.8388   19.9283 N   0  0  0  0  0  0  0  0  0  0  0  0
  -27.0868  -18.1629   20.1657 N   0  0  0  0  0  0  0  0  0  0  0  0
  -23.6215  -30.9535   22.8552 N   0  0  0  0  0  0  0  0  0  0  0  0
  -20.1428  -25.4691   20.7860 N   0  0  0  0  0  0  0  0  0  0  0  0
  -28.6883  -25.8571   20.7425 N   0  0  0  0  0  0  0  0  0  1  0  0
  -23.1262  -20.3009   17.7863 N   0  3  0  0  0  0  0  0  0  0  0  0
  -19.8132  -24.8153   17.4473 N   0  3  0  0  0  0  0  0  0  0  0  0
  -22.7508  -12.3626   18.2816 O   0  0  0  0  0  0  0  0  0  0  0  0
  -23.5510  -28.7142   23.4901 O   0  0  0  0  0  0  0  0  0  0  0  0
  -20.2360  -28.1505   21.7908 O   0  0  0  0  0  0  0  0  0  0  0  0
  -21.7098  -24.1608   19.6860 O   0  0  0  0  0  0  0  0  0  0  0  0
  -29.2622  -18.3970   20.9367 O   0  0  0  0  0  0  0  0  0  0  0  0
  -22.5980   -7.8039   24.5889 O   0  0  0  0  0  0  0  0  0  0  0  0
  -28.1694  -26.2982   19.4481 O   0  0  0  0  0  0  0  0  0  1  0  0
  -20.9442   -3.1446   22.1476 F   0  0  0  0  0  0  0  0  0  0  0  0
  -23.7233   -5.3713   25.2659 F   0  0  0  0  0  0  0  0  0  0  0  0
  1  2  1  0  0  0  0
  1  5  2  0  0  0  0
  2  6  2  0  0  0  0
  3  8  2  0  0  0  0
  3 18  1  0  0  0  0
  4  9  1  0  0  0  0
  4 18  2  0  0  0  0
  5 21  1  0  0  0  0
  6 23  1  0  0  0  0
  7 10  2  0  0  0  0
  7 22  1  0  0  0  0
  8 27  1  0  0  0  0
  9 27  2  0  0  0  0
 10 28  1  0  0  0  0
 11 12  2  0  0  0  0
 11 29  1  0  0  0  0
 12 30  1  0  0  0  0
 13 19  1  0  0  0  0
 13 25  2  0  0  0  0
 14 19  2  0  0  0  0
 14 26  1  0  0  0  0
 15 24  1  0  0  0  0
 15 28  2  0  0  0  0
 16 25  1  0  0  0  0
 16 26  2  0  0  0  0
 17 30  2  0  0  0  0
 17 31  1  0  0  0  0
 18 32  1  0  0  0  0
 19 34  1  0  0  0  0
 20 32  1  0  0  0  0
 20 33  2  0  0  0  0
 20 35  1  0  0  0  0
 21 23  2  0  0  0  0
 21 40  1  0  0  0  0
 22 24  2  0  0  0  0
 22 41  1  0  0  0  0
 23 49  1  0  0  0  0
 24 42  1  0  0  0  0
 25 59  1  0  0  0  0
 26 72  1  0  0  0  0
 27 83  1  0  0  0  0
 28 84  1  0  0  0  0
 29 31  2  0  0  0  0
 29 83  1  0  0  0  0
 30 85  1  0  0  0  0
 31 86  1  0  0  0  0
 32 65  2  0  0  0  0
 33 66  1  0  0  0  0
 33 69  1  0  0  0  0
 34 70  1  0  0  0  0
 34 76  2  0  0  0  0
 35 71  1  0  0  0  0
 35 78  2  0  0  0  0
 36 50  1  0  0  0  0
 36 73  1  0  0  0  0
 36 79  2  0  0  0  0
 37 61  1  0  0  0  0
 37 67  1  0  0  0  0
 37 80  2  0  0  0  0
 38 62  1  0  0  0  0
 38 74  1  0  0  0  0
 38 81  2  0  0  0  0
 39 68  1  0  0  0  0
 39 72  1  0  0  0  0
 39 82  2  0  0  0  0
 40 43  1  0  0  0  0
 41 50  1  0  0  0  0
 42 67  1  0  0  0  0
 43 45  1  0  0  0  0
 44 46  1  0  0  0  0
 44 47  1  0  0  0  0
 45 49  1  0  0  0  0
 46 51  1  0  0  0  0
 47 68  1  0  0  0  0
 48 51  1  0  0  0  0
 48 68  1  0  0  0  0
 49 73  1  0  0  0  0
 50 67  1  0  0  0  0
 51 66  1  0  0  0  0
 52 62  1  0  0  0  0
 53 63  1  0  0  0  0
 54 63  1  0  0  0  0
 55 63  1  0  0  0  0
 56 64  1  0  0  0  0
 57 64  1  0  0  0  0
 58 77  1  0  0  0  0
 59 60  1  0  0  0  0
 60 64  1  0  0  0  0
 61 63  1  0  0  0  0
 61 74  1  0  0  0  0
 62 77  1  0  0  0  0
 64 75  1  0  0  0  0
 65 66  1  0  0  0  0
 75 84  1  0  0  0  0
M  CHG  2  76   1  77   1
M  ISO  4  39 100  72 100  75 101  84 101
M  END
> <Batch ID>
0152

> <Smiles>
CNC(C)C(=O)NC(C(=O)N1Cc2cc([101O:1][101NH:1]C(C)(C)CCc3cc([100NH:0][100C:0](=O)N4CCCC(n5nc(-c6ccc(Oc7ccc(F)cc7F)cc6)c(C(N)=O)c5N)C4)cc(C(=N)N)c3)ccc2CC1C(=O)NC1CCCc2ccccc21)C(C)(C)C

> <Shape>
0.293

> <Color>
0.074

> <Negative vol penalty>
0.000

$$$$

  -OEChem-04052303273D

 78 86  0     1  0  0  0  0  0999 V2000
  -25.8668  -37.6695   20.6778 C   0  0  0  0  0  0  0  0  0  0  0  0
  -26.6175  -36.5210   20.4484 C   0  0  0  0  0  0  0  0  0  0  0  0
  -27.0147  -12.3793   21.8070 C   0  0  0  0  0  0  0  0  0  0  0  0
  -25.8587  -14.3607   21.0486 C   0  0  0  0  0  0  0  0  0  0  0  0
  -24.8194  -37.6442   21.5978 C   0  0  0  0  0  0  0  0  0  0  0  0
  -26.3220  -35.3466   21.1397 C   0  0  0  0  0  0  0  0  0  0  0  0
  -26.7920  -29.6160   19.0313 C   0  0  0  0  0  0  0  0  0  0  0  0
  -25.7901  -11.7475   22.0230 C   0  0  0  0  0  0  0  0  0  0  0  0
  -24.6341  -13.7288   21.2646 C   0  0  0  0  0  0  0  0  0  0  0  0
  -27.7763  -28.6398   19.1795 C   0  0  0  0  0  0  0  0  0  0  0  0
  -23.4229  -10.2025   20.1676 C   0  0  0  0  0  0  0  0  0  0  0  0
  -23.2842   -8.8880   19.7221 C   0  0  0  0  0  0  0  0  0  0  0  0
  -26.5331  -27.6721   21.0063 C   0  0  0  0  0  0  0  0  0  0  0  0
  -22.8344   -8.1688   21.9843 C   0  0  0  0  0  0  0  0  0  0  0  0
  -27.0490  -13.6860   21.3199 C   0  0  0  0  0  0  0  0  0  0  0  0
  -29.3438  -13.9252   20.2316 C   0  0  0  0  0  0  0  0  0  0  0  0
  -24.5047  -36.4663   22.2936 C   0  0  0  0  0  0  0  0  0  0  0  0
  -25.6744  -29.6341   19.8780 C   0  0  0  0  0  0  0  0  0  0  0  0
  -25.2703  -35.3058   22.0708 C   0  0  0  0  0  0  0  0  0  0  0  0
  -25.5347  -28.6481   20.8651 C   0  0  0  0  0  0  0  0  0  0  0  0
  -24.5998  -12.4222   21.7517 C   0  0  0  0  0  0  0  0  0  0  0  0
  -27.6484  -27.6694   20.1689 C   0  0  0  0  0  0  0  0  0  0  0  0
  -23.2674  -10.5002   21.5215 C   0  0  0  0  0  0  0  0  0  0  0  0
  -22.9900   -7.8712   20.6304 C   0  0  0  0  0  0  0  0  0  0  0  0
  -22.9732   -9.4833   22.4298 C   0  0  0  0  0  0  0  0  0  0  0  0
  -28.3137  -14.3394   21.0972 C   0  0  0  0  0  0  0  0  0  0  0  0
  -30.3222  -14.8774   20.3819 C   0  0  0  0  0  0  0  0  0  0  0  0
  -29.4102  -12.7821   19.3688 C   0  0  0  0  0  0  0  0  0  0  0  0
  -30.1001  -20.6130   22.1611 C   0  0  0  0  0  0  0  0  0  0  0  0
  -24.4952  -31.6939   21.9924 C   0  0  0  0  0  0  0  0  0  0  0  0
  -29.1095  -24.4054   20.2242 C   0  0  0  0  0  0  0  0  0  0  0  0
  -22.0354  -29.5816   22.0945 C   0  0  0  0  0  0  0  0  0  0  0  0
  -20.9385  -26.3864   21.6111 C   0  0  0  0  0  0  0  0  0  0  0  0
  -23.3937  -36.5001   23.3130 C   0  0  0  0  0  0  0  0  0  0  0  0
  -24.6082  -30.6779   19.6878 C   0  0  0  0  0  0  0  0  0  0  0  0
  -24.3439  -28.6115   21.7866 C   0  0  0  0  0  0  0  0  0  0  0  0
  -22.9059  -35.1146   23.7286 C   0  0  0  0  0  0  0  0  0  0  0  0
  -32.0843  -17.9776   23.5603 C   0  0  0  0  0  0  0  0  0  0  0  0
  -24.0892  -34.1994   24.0270 C   0  0  0  0  0  0  0  0  0  0  0  0
  -31.4187  -16.7077   23.0316 C   0  0  0  0  0  0  0  0  0  0  0  0
  -27.7971  -21.1304   21.3751 C   0  0  0  0  0  0  0  0  0  0  0  0
  -31.0580  -19.0709   23.8401 C   0  0  0  0  0  0  0  0  0  0  0  0
  -27.8028  -22.6478   21.5049 C   0  0  0  0  0  0  0  0  0  0  0  0
  -29.6606  -21.9847   20.1228 C   0  0  0  0  0  0  0  0  0  0  0  0
  -29.5238  -18.1353   22.1394 C   0  0  0  0  0  0  0  0  0  0  0  0
  -24.9645  -34.0059   22.7829 C   0  0  1  0  0  0  0  0  0  0  0  0
  -29.2252  -20.7873   20.9562 C   0  0  1  0  0  0  0  0  0  0  0  0
  -23.7667  -30.9075   20.9395 C   0  0  1  0  0  0  0  0  0  0  0  0
  -30.5285  -17.0157   21.8147 C   0  0  2  0  0  0  0  0  0  0  0  0
  -18.8869  -24.9558   21.8156 C   0  0  0  0  0  0  0  0  0  0  0  0
  -22.4027  -29.4918   25.1223 C   0  0  0  0  0  0  0  0  0  0  0  0
  -21.0253  -27.4014   25.1574 C   0  0  0  0  0  0  0  0  0  0  0  0
  -20.0209  -29.5415   24.3613 C   0  0  0  0  0  0  0  0  0  0  0  0
  -20.9319  -25.7791   18.7146 C   0  0  0  0  0  0  0  0  0  0  0  0
  -28.1901  -25.4451   20.8132 C   0  0  0  0  0  0  0  0  0  1  0  0
  -21.7152  -28.3521   22.9099 C   0  0  1  0  0  0  0  0  0  0  0  0
  -19.7168  -25.8381   20.8960 C   0  0  2  0  0  0  0  0  0  0  0  0
  -21.3145  -28.6983   24.3718 C   0  0  0  0  0  0  0  0  0  0  0  0
  -28.6102  -15.4668   21.7492 N   0  0  0  0  0  0  0  0  0  0  0  0
  -29.8377  -15.7691   21.2932 N   0  0  0  0  0  0  0  0  0  0  0  0
  -30.2176  -19.3183   22.6672 N   0  0  0  0  0  0  0  0  0  0  0  0
  -23.3315  -29.6571   21.5651 N   0  0  0  0  0  0  0  0  0  0  0  0
  -28.8542  -23.0989   20.6022 N   0  0  0  0  0  0  0  0  0  0  0  0
  -31.5411  -15.0304   19.8223 N   0  0  0  0  0  0  0  0  0  0  0  0
  -28.3172  -11.9054   19.3358 N   0  0  0  0  0  0  0  0  0  0  0  0
  -24.3493  -33.0628   21.8737 N   0  0  0  0  0  0  0  0  0  0  0  0
  -20.6925  -27.6243   22.1664 N   0  0  0  0  0  0  0  0  0  0  0  0
  -20.1281  -25.0293   19.7139 N   0  3  0  0  0  0  0  0  0  0  0  0
  -30.4160  -12.5362   18.6606 O   0  0  0  0  0  0  0  0  0  0  0  0
  -30.6677  -21.5980   22.6405 O   0  0  0  0  0  0  0  0  0  0  0  0
  -25.1405  -31.1023   22.8499 O   0  0  0  0  0  0  0  0  0  0  0  0
  -30.0138  -24.7363   19.4554 O   0  0  0  0  0  0  0  0  0  0  0  0
  -21.1653  -30.4399   21.9274 O   0  0  0  0  0  0  0  0  0  0  0  0
  -22.0032  -25.7758   21.6743 O   0  0  0  0  0  0  0  0  0  0  0  0
  -23.4046  -11.8058   21.9621 O   0  0  0  0  0  0  0  0  0  0  0  0
  -28.6080  -26.7158   20.3162 O   0  0  0  0  0  0  0  0  0  1  0  0
  -22.8553   -6.6092   20.2023 F   0  0  0  0  0  0  0  0  0  0  0  0
  -22.8215   -9.7633   23.7315 F   0  0  0  0  0  0  0  0  0  0  0  0
  1  2  1  0  0  0  0
  1  5  2  0  0  0  0
  2  6  2  0  0  0  0
  3  8  2  0  0  0  0
  3 15  1  0  0  0  0
  4  9  1  0  0  0  0
  4 15  2  0  0  0  0
  5 17  1  0  0  0  0
  6 19  1  0  0  0  0
  7 10  2  0  0  0  0
  7 18  1  0  0  0  0
  8 21  1  0  0  0  0
  9 21  2  0  0  0  0
 10 22  1  0  0  0  0
 11 12  2  0  0  0  0
 11 23  1  0  0  0  0
 12 24  1  0  0  0  0
 13 20  1  0  0  0  0
 13 22  2  0  0  0  0
 14 24  2  0  0  0  0
 14 25  1  0  0  0  0
 15 26  1  0  0  0  0
 16 26  1  0  0  0  0
 16 27  2  0  0  0  0
 16 28  1  0  0  0  0
 17 19  2  0  0  0  0
 17 34  1  0  0  0  0
 18 20  2  0  0  0  0
 18 35  1  0  0  0  0
 19 46  1  0  0  0  0
 20 36  1  0  0  0  0
 21 75  1  0  0  0  0
 22 76  1  0  0  0  0
 23 25  2  0  0  0  0
 23 75  1  0  0  0  0
 24 77  1  0  0  0  0
 25 78  1  0  0  0  0
 26 59  2  0  0  0  0
 27 60  1  0  0  0  0
 27 64  1  0  0  0  0
 28 65  1  0  0  0  0
 28 69  2  0  0  0  0
 29 47  1  0  0  0  0
 29 61  1  0  0  0  0
 29 70  2  0  0  0  0
 30 48  1  0  0  0  0
 30 66  1  0  0  0  0
 30 71  2  0  0  0  0
 31 55  1  0  0  0  0
 31 63  1  0  0  0  0
 31 72  2  0  0  0  0
 32 56  1  0  0  0  0
 32 62  1  0  0  0  0
 32 73  2  0  0  0  0
 33 57  1  0  0  0  0
 33 67  1  0  0  0  0
 33 74  2  0  0  0  0
 34 37  1  0  0  0  0
 35 48  1  0  0  0  0
 36 62  1  0  0  0  0
 37 39  1  0  0  0  0
 38 40  1  0  0  0  0
 38 42  1  0  0  0  0
 39 46  1  0  0  0  0
 40 49  1  0  0  0  0
 41 43  1  0  0  0  0
 41 47  1  0  0  0  0
 42 61  1  0  0  0  0
 43 63  1  0  0  0  0
 44 47  1  0  0  0  0
 44 63  1  0  0  0  0
 45 49  1  0  0  0  0
 45 61  1  0  0  0  0
 46 66  1  0  0  0  0
 48 62  1  0  0  0  0
 49 60  1  0  0  0  0
 50 57  1  0  0  0  0
 51 58  1  0  0  0  0
 52 58  1  0  0  0  0
 53 58  1  0  0  0  0
 54 68  1  0  0  0  0
 55 76  1  0  0  0  0
 56 58  1  0  0  0  0
 56 67  1  0  0  0  0
 57 68  1  0  0  0  0
 59 60  1  0  0  0  0
M  CHG  1  68   1
M  ISO  4  29 100  47 100  55 101  76 101
M  END
> <Batch ID>
0152

> <Smiles>
CNC(C)C(=O)NC(C(=O)N1Cc2cc([101O:1][101CH2:1]C(=O)N3CC[100CH:0]([100C:0](=O)N4CCCC(n5nc(-c6ccc(Oc7ccc(F)cc7F)cc6)c(C(N)=O)c5N)C4)C3)ccc2CC1C(=O)NC1CCCc2ccccc21)C(C)(C)C

> <Shape>
0.333

> <Color>
0.096

> <Negative vol penalty>
0.000

$$$$

  -OEChem-04052303273D

 83 91  0     1  0  0  0  0  0999 V2000
  -23.8703   -8.1887   21.8868 C   0  0  0  0  0  0  0  0  0  0  0  0
  -24.5371   -9.4085   21.8983 C   0  0  0  0  0  0  0  0  0  0  0  0
  -22.3190  -26.8579   22.5810 C   0  0  0  0  0  0  0  0  0  0  0  0
  -23.0595  -28.6696   21.1645 C   0  0  0  0  0  0  0  0  0  0  0  0
  -22.5124   -8.1438   21.5780 C   0  0  0  0  0  0  0  0  0  0  0  0
  -23.8437  -10.5852   21.6128 C   0  0  0  0  0  0  0  0  0  0  0  0
  -26.2761  -14.8174   22.2255 C   0  0  0  0  0  0  0  0  0  0  0  0
  -21.3435  -27.6882   23.1330 C   0  0  0  0  0  0  0  0  0  0  0  0
  -22.0839  -29.4998   21.7164 C   0  0  0  0  0  0  0  0  0  0  0  0
  -27.2936  -15.2330   21.3677 C   0  0  0  0  0  0  0  0  0  0  0  0
  -18.4230  -29.2251   24.6572 C   0  0  0  0  0  0  0  0  0  0  0  0
  -17.1384  -28.7036   24.8100 C   0  0  0  0  0  0  0  0  0  0  0  0
  -25.7753  -16.7968   20.3341 C   0  0  0  0  0  0  0  0  0  0  0  0
  -29.8411  -23.0264   18.2207 C   0  0  0  0  0  0  0  0  0  0  0  0
  -17.0040  -28.3360   22.4259 C   0  0  0  0  0  0  0  0  0  0  0  0
  -29.1443  -22.6992   16.0276 C   0  0  0  0  0  0  0  0  0  0  0  0
  -23.1771  -27.3487   21.5968 C   0  0  0  0  0  0  0  0  0  0  0  0
  -24.0559  -25.6616   19.8971 C   0  0  0  0  0  0  0  0  0  0  0  0
  -21.8056   -9.3196   21.2765 C   0  0  0  0  0  0  0  0  0  0  0  0
  -24.9955  -15.3817   22.1366 C   0  0  0  0  0  0  0  0  0  0  0  0
  -22.4676  -10.5634   21.3222 C   0  0  0  0  0  0  0  0  0  0  0  0
  -24.7440  -16.3885   21.1936 C   0  0  0  0  0  0  0  0  0  0  0  0
  -29.3490  -22.1038   17.2528 C   0  0  0  0  0  0  0  0  0  0  0  0
  -21.2259  -29.0091   22.7006 C   0  0  0  0  0  0  0  0  0  0  0  0
  -27.0425  -16.2207   20.4198 C   0  0  0  0  0  0  0  0  0  0  0  0
  -18.9982  -29.3022   23.3888 C   0  0  0  0  0  0  0  0  0  0  0  0
  -16.4289  -28.2591   23.6944 C   0  0  0  0  0  0  0  0  0  0  0  0
  -18.2887  -28.8576   22.2731 C   0  0  0  0  0  0  0  0  0  0  0  0
  -24.1854  -26.4917   21.0267 C   0  0  0  0  0  0  0  0  0  0  0  0
  -29.9940  -24.2919   17.6982 C   0  0  0  0  0  0  0  0  0  0  0  0
  -25.2846  -25.0610   19.7698 C   0  0  0  0  0  0  0  0  0  0  0  0
  -28.4048  -17.9426   19.6136 C   0  0  0  0  0  0  0  0  0  1  0  0
  -22.9261  -25.4522   19.0395 C   0  0  0  0  0  0  0  0  0  0  0  0
  -30.4568  -25.4768   18.3447 C   0  0  0  0  0  0  0  0  0  0  0  0
  -28.8828  -18.5945   18.5467 C   0  0  0  0  0  0  0  0  0  0  0  0
  -30.8617  -25.4935   19.7691 C   0  0  0  0  0  0  0  0  0  0  0  0
  -29.2632  -20.0381   18.6866 C   0  0  0  0  0  0  0  0  0  0  0  0
  -22.0923  -14.2642   21.4835 C   0  0  0  0  0  0  0  0  0  0  0  0
  -21.1816  -17.2780   22.2645 C   0  0  0  0  0  0  0  0  0  0  0  0
  -22.0202  -20.5728   22.5612 C   0  0  0  0  0  0  0  0  0  0  0  0
  -20.3352   -9.2143   20.9569 C   0  0  0  0  0  0  0  0  0  0  0  0
  -23.9160  -14.9414   23.0871 C   0  0  0  0  0  0  0  0  0  0  0  0
  -23.3918  -17.0405   21.0711 C   0  0  0  0  0  0  0  0  0  0  0  0
  -19.7931  -10.4460   20.2392 C   0  0  0  0  0  0  0  0  0  0  0  0
  -29.2348  -24.9202   22.9125 C   0  0  0  0  0  0  0  0  0  0  0  0
  -20.2140  -11.7065   20.9799 C   0  0  0  0  0  0  0  0  0  0  0  0
  -27.7714  -25.2480   22.6177 C   0  0  0  0  0  0  0  0  0  0  0  0
  -30.1788  -25.8135   22.1143 C   0  0  0  0  0  0  0  0  0  0  0  0
  -28.4735  -26.1055   20.3379 C   0  0  0  0  0  0  0  0  0  0  0  0
  -21.7409  -11.8528   20.9850 C   0  0  1  0  0  0  0  0  0  0  0  0
  -22.5099  -15.2202   22.5649 C   0  0  1  0  0  0  0  0  0  0  0  0
  -27.4899  -25.2048   21.1052 C   0  0  2  0  0  0  0  0  0  0  0  0
  -21.7601  -22.9975   23.1533 C   0  0  0  0  0  0  0  0  0  0  0  0
  -19.7448  -17.4064   19.5758 C   0  0  0  0  0  0  0  0  0  0  0  0
  -19.6269  -19.8937   19.8363 C   0  0  0  0  0  0  0  0  0  0  0  0
  -18.4797  -18.4130   21.4838 C   0  0  0  0  0  0  0  0  0  0  0  0
  -23.0254  -20.1291   25.3092 C   0  0  0  0  0  0  0  0  0  0  0  0
  -21.0029  -18.5712   21.5063 C   0  0  1  0  0  0  0  0  0  0  0  0
  -21.7970  -21.5720   23.6820 C   0  0  2  0  0  0  0  0  0  0  0  0
  -19.7386  -18.5576   20.6013 C   0  0  0  0  0  0  0  0  0  0  0  0
  -25.4003  -26.4268   21.5778 N   0  0  0  0  0  0  0  0  0  0  0  0
  -30.5706  -26.6518   17.7519 N   0  0  0  0  0  0  0  0  0  0  0  0
  -26.0455  -25.5486   20.7912 N   0  0  0  0  0  0  0  0  0  0  0  0
  -29.8612  -25.7772   20.6881 N   0  0  0  0  0  0  0  0  0  0  0  0
  -22.3674  -16.5713   22.0188 N   0  0  0  0  0  0  0  0  0  0  0  0
  -25.7775  -24.1686   18.8848 N   0  0  0  0  0  0  0  0  0  0  0  0
  -21.7414  -26.1493   19.3131 N   0  0  0  0  0  0  0  0  0  0  0  0
  -29.0935  -20.7328   17.4969 N   0  0  0  0  0  0  0  0  0  0  0  0
  -22.1083  -12.9372   21.8687 N   0  0  0  0  0  0  0  0  0  0  0  0
  -21.0114  -19.6345   22.5051 N   0  0  0  0  0  0  0  0  0  0  0  0
  -22.8903  -21.4727   24.6898 N   0  3  0  0  0  0  0  0  0  0  0  0
  -22.9609  -24.6577   18.0695 O   0  0  0  0  0  0  0  0  0  0  0  0
  -32.0427  -25.2542   19.9845 O   0  0  0  0  0  0  0  0  0  0  0  0
  -29.6680  -20.4822   19.7555 O   0  0  0  0  0  0  0  0  0  0  0  0
  -21.7773  -14.6985   20.3817 O   0  0  0  0  0  0  0  0  0  0  0  0
  -20.3049  -16.9122   23.0513 O   0  0  0  0  0  0  0  0  0  0  0  0
  -22.9903  -20.6221   21.8082 O   0  0  0  0  0  0  0  0  0  0  0  0
  -29.0421  -17.9889   17.3169 O   0  0  0  0  0  0  0  0  0  0  0  0
  -20.2739  -29.8195   23.2388 O   0  0  0  0  0  0  0  0  0  0  0  0
  -28.0337  -16.6277   19.5809 O   0  0  0  0  0  0  0  0  0  1  0  0
  -15.1959  -27.7569   23.8415 F   0  0  0  0  0  0  0  0  0  0  0  0
  -18.8364  -28.9280   21.0521 F   0  0  0  0  0  0  0  0  0  0  0  0
  -29.5448  -24.3640   16.0473 S   0  0  0  0  0  0  0  0  0  0  0  0
  1  2  1  0  0  0  0
  1  5  2  0  0  0  0
  2  6  2  0  0  0  0
  3  8  2  0  0  0  0
  3 17  1  0  0  0  0
  4  9  1  0  0  0  0
  4 17  2  0  0  0  0
  5 19  1  0  0  0  0
  6 21  1  0  0  0  0
  7 10  2  0  0  0  0
  7 20  1  0  0  0  0
  8 24  1  0  0  0  0
  9 24  2  0  0  0  0
 10 25  1  0  0  0  0
 11 12  2  0  0  0  0
 11 26  1  0  0  0  0
 12 27  1  0  0  0  0
 13 22  1  0  0  0  0
 13 25  2  0  0  0  0
 14 23  1  0  0  0  0
 14 30  2  0  0  0  0
 15 27  2  0  0  0  0
 15 28  1  0  0  0  0
 16 23  2  0  0  0  0
 16 83  1  0  0  0  0
 17 29  1  0  0  0  0
 18 29  1  0  0  0  0
 18 31  2  0  0  0  0
 18 33  1  0  0  0  0
 19 21  2  0  0  0  0
 19 41  1  0  0  0  0
 20 22  2  0  0  0  0
 20 42  1  0  0  0  0
 21 50  1  0  0  0  0
 22 43  1  0  0  0  0
 23 68  1  0  0  0  0
 24 79  1  0  0  0  0
 25 80  1  0  0  0  0
 26 28  2  0  0  0  0
 26 79  1  0  0  0  0
 27 81  1  0  0  0  0
 28 82  1  0  0  0  0
 29 61  2  0  0  0  0
 30 34  1  0  0  0  0
 30 83  1  0  0  0  0
 31 63  1  0  0  0  0
 31 66  1  0  0  0  0
 32 35  2  0  0  0  0
 32 80  1  0  0  0  0
 33 67  1  0  0  0  0
 33 72  2  0  0  0  0
 34 36  1  0  0  0  0
 34 62  2  0  0  0  0
 35 37  1  0  0  0  0
 35 78  1  0  0  0  0
 36 64  1  0  0  0  0
 36 73  2  0  0  0  0
 37 68  1  0  0  0  0
 37 74  2  0  0  0  0
 38 51  1  0  0  0  0
 38 69  1  0  0  0  0
 38 75  2  0  0  0  0
 39 58  1  0  0  0  0
 39 65  1  0  0  0  0
 39 76  2  0  0  0  0
 40 59  1  0  0  0  0
 40 70  1  0  0  0  0
 40 77  2  0  0  0  0
 41 44  1  0  0  0  0
 42 51  1  0  0  0  0
 43 65  1  0  0  0  0
 44 46  1  0  0  0  0
 45 47  1  0  0  0  0
 45 48  1  0  0  0  0
 46 50  1  0  0  0  0
 47 52  1  0  0  0  0
 48 64  1  0  0  0  0
 49 52  1  0  0  0  0
 49 64  1  0  0  0  0
 50 69  1  0  0  0  0
 51 65  1  0  0  0  0
 52 63  1  0  0  0  0
 53 59  1  0  0  0  0
 54 60  1  0  0  0  0
 55 60  1  0  0  0  0
 56 60  1  0  0  0  0
 57 71  1  0  0  0  0
 58 60  1  0  0  0  0
 58 70  1  0  0  0  0
 59 71  1  0  0  0  0
 61 63  1  0  0  0  0
M  CHG  1  71   1
M  ISO  4  32 101  34 100  36 100  80 101
M  END
> <Batch ID>
0152

> <Smiles>
CNC(C)C(=O)NC(C(=O)N1Cc2cc([101O:1][101CH2:1]C(=O)C(=O)Nc3csc([100C:0](=N)[100C:0](=O)N4CCCC(n5nc(-c6ccc(Oc7ccc(F)cc7F)cc6)c(C(N)=O)c5N)C4)c3)ccc2CC1C(=O)NC1CCCc2ccccc21)C(C)(C)C

> <Shape>
0.208

> <Color>
0.077

> <Negative vol penalty>
0.000

$$$$

  -OEChem-04052303273D

 82 90  0     1  0  0  0  0  0999 V2000
  -25.6262  -38.1353   26.7726 C   0  0  0  0  0  0  0  0  0  0  0  0
  -25.0199  -36.9849   27.2669 C   0  0  0  0  0  0  0  0  0  0  0  0
  -24.4914   -9.0891   21.4682 C   0  0  0  0  0  0  0  0  0  0  0  0
  -22.6361  -10.2287   20.4212 C   0  0  0  0  0  0  0  0  0  0  0  0
  -25.8522  -38.2694   25.4033 C   0  0  0  0  0  0  0  0  0  0  0  0
  -24.6382  -35.9683   26.3921 C   0  0  0  0  0  0  0  0  0  0  0  0
  -24.0030  -28.8411   26.0524 C   0  0  0  0  0  0  0  0  0  0  0  0
  -23.6976   -7.9553   21.6410 C   0  0  0  0  0  0  0  0  0  0  0  0
  -21.8422   -9.0948   20.5940 C   0  0  0  0  0  0  0  0  0  0  0  0
  -23.0718  -27.8572   25.7226 C   0  0  0  0  0  0  0  0  0  0  0  0
  -21.2787   -6.9076   23.7566 C   0  0  0  0  0  0  0  0  0  0  0  0
  -21.3238   -6.2685   24.9956 C   0  0  0  0  0  0  0  0  0  0  0  0
  -23.5841  -28.1644   23.3854 C   0  0  0  0  0  0  0  0  0  0  0  0
  -22.6790  -19.8325   22.8601 C   0  0  0  0  0  0  0  0  0  0  0  0
  -22.0967   -4.2457   23.9241 C   0  0  0  0  0  0  0  0  0  0  0  0
  -21.5620  -18.4938   21.3230 C   0  0  0  0  0  0  0  0  0  0  0  0
  -23.9607  -10.2258   20.8583 C   0  0  0  0  0  0  0  0  0  0  0  0
  -25.5936  -11.7056   19.5733 C   0  0  0  0  0  0  0  0  0  0  0  0
  -25.4818  -37.2498   24.5123 C   0  0  0  0  0  0  0  0  0  0  0  0
  -24.7250  -29.5028   25.0488 C   0  0  0  0  0  0  0  0  0  0  0  0
  -24.8582  -36.0895   25.0095 C   0  0  0  0  0  0  0  0  0  0  0  0
  -24.5257  -29.1545   23.7053 C   0  0  0  0  0  0  0  0  0  0  0  0
  -22.5804  -18.5491   22.2490 C   0  0  0  0  0  0  0  0  0  0  0  0
  -22.3730   -7.9581   21.2038 C   0  0  0  0  0  0  0  0  0  0  0  0
  -22.8601  -27.5208   24.3888 C   0  0  0  0  0  0  0  0  0  0  0  0
  -21.6426   -6.2157   22.6013 C   0  0  0  0  0  0  0  0  0  0  0  0
  -21.7328   -4.9376   25.0793 C   0  0  0  0  0  0  0  0  0  0  0  0
  -22.0516   -4.8848   22.6851 C   0  0  0  0  0  0  0  0  0  0  0  0
  -24.7800  -11.3975   20.6801 C   0  0  0  0  0  0  0  0  0  0  0  0
  -26.1584  -12.9171   19.8890 C   0  0  0  0  0  0  0  0  0  0  0  0
  -21.7323  -20.7093   22.3776 C   0  0  0  0  0  0  0  0  0  0  0  0
  -22.3826  -25.2668   23.9860 C   0  0  0  0  0  0  0  0  0  1  0  0
  -25.8185  -10.9631   18.3675 C   0  0  0  0  0  0  0  0  0  0  0  0
  -21.5762  -24.2447   23.6752 C   0  0  0  0  0  0  0  0  0  0  0  0
  -22.1471  -22.8595   23.6167 C   0  0  0  0  0  0  0  0  0  0  0  0
  -24.9561  -32.5177   24.0686 C   0  0  0  0  0  0  0  0  0  0  0  0
  -27.2806  -31.3084   22.1563 C   0  0  0  0  0  0  0  0  0  0  0  0
  -28.5991  -28.5954   20.5601 C   0  0  0  0  0  0  0  0  0  0  0  0
  -24.4700  -17.4025   23.4577 C   0  0  0  0  0  0  0  0  0  0  0  0
  -25.7036  -37.4605   23.0354 C   0  0  0  0  0  0  0  0  0  0  0  0
  -25.7451  -30.5429   25.4228 C   0  0  0  0  0  0  0  0  0  0  0  0
  -25.2899  -29.8208   22.5915 C   0  0  0  0  0  0  0  0  0  0  0  0
  -25.6094  -36.1759   22.2161 C   0  0  0  0  0  0  0  0  0  0  0  0
  -27.5063  -15.5532   23.6531 C   0  0  0  0  0  0  0  0  0  0  0  0
  -24.3774  -35.3731   22.6217 C   0  0  0  0  0  0  0  0  0  0  0  0
  -27.2279  -14.3086   22.8072 C   0  0  0  0  0  0  0  0  0  0  0  0
  -26.2706  -15.9958   24.4346 C   0  0  0  0  0  0  0  0  0  0  0  0
  -24.7812  -14.9408   22.7800 C   0  0  0  0  0  0  0  0  0  0  0  0
  -24.4524  -34.9541   24.0949 C   0  0  1  0  0  0  0  0  0  0  0  0
  -26.0526  -31.5138   24.2869 C   0  0  1  0  0  0  0  0  0  0  0  0
  -25.9783  -14.4952   21.9244 C   0  0  2  0  0  0  0  0  0  0  0  0
  -30.4811  -27.9258   19.0412 C   0  0  0  0  0  0  0  0  0  0  0  0
  -25.8196  -32.5707   19.7937 C   0  0  0  0  0  0  0  0  0  0  0  0
  -27.1639  -31.1076   18.2704 C   0  0  0  0  0  0  0  0  0  0  0  0
  -28.3099  -32.7865   19.7162 C   0  0  0  0  0  0  0  0  0  0  0  0
  -29.7033  -26.7188   22.5646 C   0  0  0  0  0  0  0  0  0  0  0  0
  -27.3218  -30.7117   20.7702 C   0  0  1  0  0  0  0  0  0  0  0  0
  -30.0188  -28.0634   20.4834 C   0  0  2  0  0  0  0  0  0  0  0  0
  -27.1378  -31.7827   19.6583 C   0  0  0  0  0  0  0  0  0  0  0  0
  -24.8217  -12.3374   21.6282 N   0  0  0  0  0  0  0  0  0  0  0  0
  -25.6683  -13.2480   21.1180 N   0  0  0  0  0  0  0  0  0  0  0  0
  -26.2717  -30.8359   23.0076 N   0  0  0  0  0  0  0  0  0  0  0  0
  -25.1278  -16.1565   23.5329 N   0  0  0  0  0  0  0  0  0  0  0  0
  -27.0217  -13.7210   19.2324 N   0  0  0  0  0  0  0  0  0  0  0  0
  -25.1585   -9.7374   18.2047 N   0  0  0  0  0  0  0  0  0  0  0  0
  -23.4188  -17.4451   22.5424 N   0  0  0  0  0  0  0  0  0  0  0  0
  -21.4742  -22.0636   22.6997 N   0  0  0  0  0  0  0  0  0  0  0  0
  -25.3487  -33.8293   24.2554 N   0  0  0  0  0  0  0  0  0  0  0  0
  -28.5742  -29.9686   20.6828 N   0  0  0  0  0  0  0  0  0  0  0  0
  -30.1067  -26.7259   21.1348 N   0  3  0  0  0  0  0  0  0  0  0  0
  -26.5948  -11.3665   17.4686 O   0  0  0  0  0  0  0  0  0  0  0  0
  -23.0961  -22.5387   24.3239 O   0  0  0  0  0  0  0  0  0  0  0  0
  -23.8370  -32.1309   23.7526 O   0  0  0  0  0  0  0  0  0  0  0  0
  -28.1173  -32.1572   22.4744 O   0  0  0  0  0  0  0  0  0  0  0  0
  -27.6110  -27.8662   20.5119 O   0  0  0  0  0  0  0  0  0  0  0  0
  -24.8313  -18.3689   24.1340 O   0  0  0  0  0  0  0  0  0  0  0  0
  -20.2332  -24.4141   23.4063 O   0  0  0  0  0  0  0  0  0  0  0  0
  -21.5981   -6.8518   21.3721 O   0  0  0  0  0  0  0  0  0  0  0  0
  -21.9514  -26.5613   24.0641 O   0  0  0  0  0  0  0  0  0  1  0  0
  -21.7775   -4.3244   26.2694 F   0  0  0  0  0  0  0  0  0  0  0  0
  -22.4035   -4.2153   21.5788 F   0  0  0  0  0  0  0  0  0  0  0  0
  -20.7300  -19.9848   21.1932 S   0  0  0  0  0  0  0  0  0  0  0  0
  1  2  1  0  0  0  0
  1  5  2  0  0  0  0
  2  6  2  0  0  0  0
  3  8  2  0  0  0  0
  3 17  1  0  0  0  0
  4  9  1  0  0  0  0
  4 17  2  0  0  0  0
  5 19  1  0  0  0  0
  6 21  1  0  0  0  0
  7 10  2  0  0  0  0
  7 20  1  0  0  0  0
  8 24  1  0  0  0  0
  9 24  2  0  0  0  0
 10 25  1  0  0  0  0
 11 12  2  0  0  0  0
 11 26  1  0  0  0  0
 12 27  1  0  0  0  0
 13 22  1  0  0  0  0
 13 25  2  0  0  0  0
 14 23  1  0  0  0  0
 14 31  2  0  0  0  0
 15 27  2  0  0  0  0
 15 28  1  0  0  0  0
 16 23  2  0  0  0  0
 16 82  1  0  0  0  0
 17 29  1  0  0  0  0
 18 29  1  0  0  0  0
 18 30  2  0  0  0  0
 18 33  1  0  0  0  0
 19 21  2  0  0  0  0
 19 40  1  0  0  0  0
 20 22  2  0  0  0  0
 20 41  1  0  0  0  0
 21 49  1  0  0  0  0
 22 42  1  0  0  0  0
 23 66  1  0  0  0  0
 24 78  1  0  0  0  0
 25 79  1  0  0  0  0
 26 28  2  0  0  0  0
 26 78  1  0  0  0  0
 27 80  1  0  0  0  0
 28 81  1  0  0  0  0
 29 60  2  0  0  0  0
 30 61  1  0  0  0  0
 30 64  1  0  0  0  0
 31 67  1  0  0  0  0
 31 82  1  0  0  0  0
 32 34  2  0  0  0  0
 32 79  1  0  0  0  0
 33 65  1  0  0  0  0
 33 71  2  0  0  0  0
 34 35  1  0  0  0  0
 34 77  1  0  0  0  0
 35 67  1  0  0  0  0
 35 72  2  0  0  0  0
 36 50  1  0  0  0  0
 36 68  1  0  0  0  0
 36 73  2  0  0  0  0
 37 57  1  0  0  0  0
 37 62  1  0  0  0  0
 37 74  2  0  0  0  0
 38 58  1  0  0  0  0
 38 69  1  0  0  0  0
 38 75  2  0  0  0  0
 39 63  1  0  0  0  0
 39 66  1  0  0  0  0
 39 76  2  0  0  0  0
 40 43  1  0  0  0  0
 41 50  1  0  0  0  0
 42 62  1  0  0  0  0
 43 45  1  0  0  0  0
 44 46  1  0  0  0  0
 44 47  1  0  0  0  0
 45 49  1  0  0  0  0
 46 51  1  0  0  0  0
 47 63  1  0  0  0  0
 48 51  1  0  0  0  0
 48 63  1  0  0  0  0
 49 68  1  0  0  0  0
 50 62  1  0  0  0  0
 51 61  1  0  0  0  0
 52 58  1  0  0  0  0
 53 59  1  0  0  0  0
 54 59  1  0  0  0  0
 55 59  1  0  0  0  0
 56 70  1  0  0  0  0
 57 59  1  0  0  0  0
 57 69  1  0  0  0  0
 58 70  1  0  0  0  0
 60 61  1  0  0  0  0
M  CHG  1  70   1
M  ISO  4  32 101  39 100  66 100  79 101
M  END
> <Batch ID>
0152

> <Smiles>
CNC(C)C(=O)NC(C(=O)N1Cc2cc([101O:1][101CH2:1]C(=O)C(=O)Nc3cc([100NH:0][100C:0](=O)N4CCCC(n5nc(-c6ccc(Oc7ccc(F)cc7F)cc6)c(C(N)=O)c5N)C4)cs3)ccc2CC1C(=O)NC1CCCc2ccccc21)C(C)(C)C

> <Shape>
0.247

> <Color>
0.111

> <Negative vol penalty>
0.000

$$$$

  -OEChem-04052303273D

 81 90  0     1  0  0  0  0  0999 V2000
  -19.3769  -24.0997   23.1504 C   0  0  0  0  0  0  0  0  0  0  0  0
  -20.5405  -24.2975   22.4140 C   0  0  0  0  0  0  0  0  0  0  0  0
  -28.0374  -21.6322   15.2418 C   0  0  0  0  0  0  0  0  0  0  0  0
  -26.1955  -13.0146   21.4467 C   0  0  0  0  0  0  0  0  0  0  0  0
  -26.1240  -13.5497   19.0918 C   0  0  0  0  0  0  0  0  0  0  0  0
  -18.5753  -25.1885   23.4909 C   0  0  0  0  0  0  0  0  0  0  0  0
  -20.9025  -25.5842   22.0166 C   0  0  0  0  0  0  0  0  0  0  0  0
  -27.7204  -22.9714   15.4688 C   0  0  0  0  0  0  0  0  0  0  0  0
  -25.8188  -26.5385   22.7682 C   0  0  0  0  0  0  0  0  0  0  0  0
  -28.4554  -20.8253   16.3000 C   0  0  0  0  0  0  0  0  0  0  0  0
  -25.0161  -12.2816   21.3160 C   0  0  0  0  0  0  0  0  0  0  0  0
  -24.9445  -12.8165   18.9611 C   0  0  0  0  0  0  0  0  0  0  0  0
  -26.7188  -26.0079   21.8451 C   0  0  0  0  0  0  0  0  0  0  0  0
  -24.0917   -9.2298   20.1911 C   0  0  0  0  0  0  0  0  0  0  0  0
  -24.0357   -7.9775   20.8027 C   0  0  0  0  0  0  0  0  0  0  0  0
  -28.2395  -22.6970   17.8124 C   0  0  0  0  0  0  0  0  0  0  0  0
  -26.8495  -28.1528   20.7489 C   0  0  0  0  0  0  0  0  0  0  0  0
  -22.1631   -8.7142   22.1398 C   0  0  0  0  0  0  0  0  0  0  0  0
  -26.7495  -13.6488   20.3346 C   0  0  0  0  0  0  0  0  0  0  0  0
  -29.2846  -13.9323   20.3211 C   0  0  0  0  0  0  0  0  0  0  0  0
  -27.8215  -23.5038   16.7541 C   0  0  0  0  0  0  0  0  0  0  0  0
  -18.9327  -26.4902   23.1057 C   0  0  0  0  0  0  0  0  0  0  0  0
  -25.4183  -27.8796   22.6819 C   0  0  0  0  0  0  0  0  0  0  0  0
  -20.1042  -26.6912   22.3510 C   0  0  0  0  0  0  0  0  0  0  0  0
  -25.9463  -28.6986   21.6737 C   0  0  0  0  0  0  0  0  0  0  0  0
  -28.5564  -21.3577   17.5853 C   0  0  0  0  0  0  0  0  0  0  0  0
  -24.3906  -12.1825   20.0732 C   0  0  0  0  0  0  0  0  0  0  0  0
  -27.2321  -26.8143   20.8335 C   0  0  0  0  0  0  0  0  0  0  0  0
  -23.1834  -10.2244   20.5539 C   0  0  0  0  0  0  0  0  0  0  0  0
  -23.0714   -7.7196   21.7771 C   0  0  0  0  0  0  0  0  0  0  0  0
  -22.2191   -9.9666   21.5283 C   0  0  0  0  0  0  0  0  0  0  0  0
  -27.9675  -14.4067   20.4691 C   0  0  0  0  0  0  0  0  0  0  0  0
  -30.0736  -15.0337   20.5465 C   0  0  0  0  0  0  0  0  0  0  0  0
  -29.7530  -12.6139   20.0078 C   0  0  0  0  0  0  0  0  0  0  0  0
  -22.6478  -29.3682   22.2213 C   0  0  0  0  0  0  0  0  0  0  0  0
  -24.4226  -32.0211   22.7995 C   0  0  0  0  0  0  0  0  0  0  0  0
  -27.4957  -33.5053   22.8108 C   0  0  0  0  0  0  0  0  0  0  0  0
  -29.1351  -20.9092   19.9958 C   0  0  0  0  0  0  0  0  0  0  0  0
  -18.0098  -27.6303   23.4566 C   0  0  0  0  0  0  0  0  0  0  0  0
  -24.4673  -28.4438   23.7016 C   0  0  0  0  0  0  0  0  0  0  0  0
  -25.5639  -30.1501   21.5497 C   0  0  0  0  0  0  0  0  0  0  0  0
  -18.6595  -29.0047   23.3182 C   0  0  0  0  0  0  0  0  0  0  0  0
  -30.1220  -19.1777   22.9463 C   0  0  0  0  0  0  0  0  0  0  0  0
  -19.4130  -29.1082   21.9959 C   0  0  0  0  0  0  0  0  0  0  0  0
  -29.8070  -17.7138   22.6301 C   0  0  0  0  0  0  0  0  0  0  0  0
  -28.1724  -26.0002   16.1799 C   0  0  0  0  0  0  0  0  0  0  0  0
  -29.0793  -20.1232   22.3525 C   0  0  0  0  0  0  0  0  0  0  0  0
  -28.5164  -18.4866   20.5993 C   0  0  0  0  0  0  0  0  0  0  0  0
  -27.4845  -24.9274   16.9961 C   0  0  2  0  0  0  0  0  0  0  0  0
  -20.5434  -28.0746   21.9228 C   0  0  1  0  0  0  0  0  0  0  0  0
  -23.7332  -29.6875   23.2101 C   0  0  1  0  0  0  0  0  0  0  0  0
  -28.5190  -25.8342   17.6295 C   0  0  2  0  0  0  0  0  0  0  0  0
  -29.5741  -17.5007   21.1215 C   0  0  2  0  0  0  0  0  0  0  0  0
  -28.6248  -35.6932   23.2962 C   0  0  0  0  0  0  0  0  0  0  0  0
  -23.3764  -33.1433   20.1620 C   0  0  0  0  0  0  0  0  0  0  0  0
  -25.2167  -34.8393   20.2339 C   0  0  0  0  0  0  0  0  0  0  0  0
  -23.4867  -34.8017   22.0307 C   0  0  0  0  0  0  0  0  0  0  0  0
  -29.1558  -32.3071   24.9479 C   0  0  0  0  0  0  0  0  0  0  0  0
  -28.1033  -26.8657   18.6211 C   0  0  0  0  0  0  0  0  0  1  0  0
  -25.2305  -32.9728   21.9506 C   0  0  1  0  0  0  0  0  0  0  0  0
  -28.2054  -34.3439   23.8585 C   0  0  2  0  0  0  0  0  0  0  0  0
  -24.3335  -33.9115   21.0952 C   0  0  0  0  0  0  0  0  0  0  0  0
  -27.9184  -15.7080   20.7657 N   0  0  0  0  0  0  0  0  0  0  0  0
  -29.2146  -16.0608   20.8060 N   0  0  0  0  0  0  0  0  0  0  0  0
  -24.6260  -30.6536   22.5668 N   0  0  0  0  0  0  0  0  0  0  0  0
  -28.9150  -19.8661   20.9201 N   0  0  0  0  0  0  0  0  0  0  0  0
  -31.4115  -15.2141   20.5461 N   0  0  0  0  0  0  0  0  0  0  0  0
  -28.8074  -11.5991   19.8067 N   0  0  0  0  0  0  0  0  0  0  0  0
  -28.9811  -20.5382   18.6604 N   0  0  0  0  0  0  0  0  0  0  0  0
  -21.6788  -28.5110   22.7069 N   0  0  0  0  0  0  0  0  0  0  0  0
  -26.1280  -33.6726   22.8635 N   0  0  0  0  0  0  0  0  0  0  0  0
  -29.4241  -33.6392   24.3475 N   0  3  0  0  0  0  0  0  0  0  0  0
  -30.9744  -12.3401   19.9252 O   0  0  0  0  0  0  0  0  0  0  0  0
  -22.6858  -29.8639   21.1013 O   0  0  0  0  0  0  0  0  0  0  0  0
  -23.6450  -32.4744   23.6430 O   0  0  0  0  0  0  0  0  0  0  0  0
  -28.0948  -32.7777   22.0221 O   0  0  0  0  0  0  0  0  0  0  0  0
  -29.4645  -22.0407   20.3605 O   0  0  0  0  0  0  0  0  0  0  0  0
  -23.2398  -11.4670   19.9453 O   0  0  0  0  0  0  0  0  0  0  0  0
  -28.1102  -26.2987   19.9307 O   0  0  0  0  0  0  0  0  0  1  0  0
  -23.0168   -6.5165   22.3632 F   0  0  0  0  0  0  0  0  0  0  0  0
  -21.3432  -10.9177   21.8801 F   0  0  0  0  0  0  0  0  0  0  0  0
  1  2  1  0  0  0  0
  1  6  2  0  0  0  0
  2  7  2  0  0  0  0
  3  8  2  0  0  0  0
  3 10  1  0  0  0  0
  4 11  2  0  0  0  0
  4 19  1  0  0  0  0
  5 12  1  0  0  0  0
  5 19  2  0  0  0  0
  6 22  1  0  0  0  0
  7 24  1  0  0  0  0
  8 21  1  0  0  0  0
  9 13  2  0  0  0  0
  9 23  1  0  0  0  0
 10 26  2  0  0  0  0
 11 27  1  0  0  0  0
 12 27  2  0  0  0  0
 13 28  1  0  0  0  0
 14 15  2  0  0  0  0
 14 29  1  0  0  0  0
 15 30  1  0  0  0  0
 16 21  2  0  0  0  0
 16 26  1  0  0  0  0
 17 25  1  0  0  0  0
 17 28  2  0  0  0  0
 18 30  2  0  0  0  0
 18 31  1  0  0  0  0
 19 32  1  0  0  0  0
 20 32  1  0  0  0  0
 20 33  2  0  0  0  0
 20 34  1  0  0  0  0
 21 49  1  0  0  0  0
 22 24  2  0  0  0  0
 22 39  1  0  0  0  0
 23 25  2  0  0  0  0
 23 40  1  0  0  0  0
 24 50  1  0  0  0  0
 25 41  1  0  0  0  0
 26 69  1  0  0  0  0
 27 78  1  0  0  0  0
 28 79  1  0  0  0  0
 29 31  2  0  0  0  0
 29 78  1  0  0  0  0
 30 80  1  0  0  0  0
 31 81  1  0  0  0  0
 32 63  2  0  0  0  0
 33 64  1  0  0  0  0
 33 67  1  0  0  0  0
 34 68  1  0  0  0  0
 34 73  2  0  0  0  0
 35 51  1  0  0  0  0
 35 70  1  0  0  0  0
 35 74  2  0  0  0  0
 36 60  1  0  0  0  0
 36 65  1  0  0  0  0
 36 75  2  0  0  0  0
 37 61  1  0  0  0  0
 37 71  1  0  0  0  0
 37 76  2  0  0  0  0
 38 66  1  0  0  0  0
 38 69  1  0  0  0  0
 38 77  2  0  0  0  0
 39 42  1  0  0  0  0
 40 51  1  0  0  0  0
 41 65  1  0  0  0  0
 42 44  1  0  0  0  0
 43 45  1  0  0  0  0
 43 47  1  0  0  0  0
 44 50  1  0  0  0  0
 45 53  1  0  0  0  0
 46 49  1  0  0  0  0
 46 52  1  0  0  0  0
 47 66  1  0  0  0  0
 48 53  1  0  0  0  0
 48 66  1  0  0  0  0
 49 52  1  0  0  0  0
 50 70  1  0  0  0  0
 51 65  1  0  0  0  0
 52 59  1  0  0  0  0
 53 64  1  0  0  0  0
 54 61  1  0  0  0  0
 55 62  1  0  0  0  0
 56 62  1  0  0  0  0
 57 62  1  0  0  0  0
 58 72  1  0  0  0  0
 59 79  1  0  0  0  0
 60 62  1  0  0  0  0
 60 71  1  0  0  0  0
 61 72  1  0  0  0  0
 63 64  1  0  0  0  0
M  CHG  1  72   1
M  ISO  4  38 100  59 101  69 100  79 101
M  END
> <Batch ID>
0152

> <Smiles>
CNC(C)C(=O)NC(C(=O)N1Cc2cc([101O:1][101CH2:1]C3CC3c3cccc([100NH:0][100C:0](=O)N4CCCC(n5nc(-c6ccc(Oc7ccc(F)cc7F)cc6)c(C(N)=O)c5N)C4)c3)ccc2CC1C(=O)NC1CCCc2ccccc21)C(C)(C)C

> <Shape>
0.304

> <Color>
0.111

> <Negative vol penalty>
0.000

$$$$

  -OEChem-04052303273D

 85 95  0     1  0  0  0  0  0999 V2000
  -24.7183  -30.1212   22.6078 C   0  0  0  0  0  0  0  0  0  0  0  0
  -24.5216  -28.8322   23.0928 C   0  0  0  0  0  0  0  0  0  0  0  0
  -20.2777  -22.6464   21.1044 C   0  0  0  0  0  0  0  0  0  0  0  0
  -22.6728  -22.4298   20.8731 C   0  0  0  0  0  0  0  0  0  0  0  0
  -25.2232  -30.3116   21.3222 C   0  0  0  0  0  0  0  0  0  0  0  0
  -24.8286  -27.7327   22.2919 C   0  0  0  0  0  0  0  0  0  0  0  0
  -27.2409  -21.0022   22.7360 C   0  0  0  0  0  0  0  0  0  0  0  0
  -20.3940  -24.0332   21.0104 C   0  0  0  0  0  0  0  0  0  0  0  0
  -22.7891  -23.8166   20.7789 C   0  0  0  0  0  0  0  0  0  0  0  0
  -26.9097  -19.7104   22.3297 C   0  0  0  0  0  0  0  0  0  0  0  0
  -21.2713  -26.6011   23.0254 C   0  0  0  0  0  0  0  0  0  0  0  0
  -20.5485  -27.3744   23.9337 C   0  0  0  0  0  0  0  0  0  0  0  0
  -27.8507  -20.1598   20.1544 C   0  0  0  0  0  0  0  0  0  0  0  0
  -19.3740  -28.4266   22.1032 C   0  0  0  0  0  0  0  0  0  0  0  0
  -21.4171  -21.8447   21.0358 C   0  0  0  0  0  0  0  0  0  0  0  0
  -21.1133  -19.5004   20.0768 C   0  0  0  0  0  0  0  0  0  0  0  0
  -25.5456  -29.2139   20.5087 C   0  0  0  0  0  0  0  0  0  0  0  0
  -27.8708  -21.8877   21.8496 C   0  0  0  0  0  0  0  0  0  0  0  0
  -25.3370  -27.9086   20.9937 C   0  0  0  0  0  0  0  0  0  0  0  0
  -28.1912  -21.4615   20.5527 C   0  0  0  0  0  0  0  0  0  0  0  0
  -24.6056  -12.5499   21.9083 C   0  0  0  0  0  0  0  0  0  0  0  0
  -21.6497  -24.6183   20.8476 C   0  0  0  0  0  0  0  0  0  0  0  0
  -27.2120  -19.2899   21.0378 C   0  0  0  0  0  0  0  0  0  0  0  0
  -21.0456  -26.7406   21.6560 C   0  0  0  0  0  0  0  0  0  0  0  0
  -19.5998  -28.2871   23.4726 C   0  0  0  0  0  0  0  0  0  0  0  0
  -20.0969  -27.6533   21.1949 C   0  0  0  0  0  0  0  0  0  0  0  0
  -21.2977  -20.4121   21.1335 C   0  0  0  0  0  0  0  0  0  0  0  0
  -24.6054  -11.4379   21.1033 C   0  0  0  0  0  0  0  0  0  0  0  0
  -25.2298  -13.5691   21.1335 C   0  0  0  0  0  0  0  0  0  0  0  0
  -21.0622  -18.2717   20.6885 C   0  0  0  0  0  0  0  0  0  0  0  0
  -20.9987  -19.7425   18.6683 C   0  0  0  0  0  0  0  0  0  0  0  0
  -27.1138  -24.6968   20.5692 C   0  0  0  0  0  0  0  0  0  0  0  0
  -26.0322  -15.8518   20.8893 C   0  0  0  0  0  0  0  0  0  0  0  0
  -30.1427  -24.5488   19.4176 C   0  0  0  0  0  0  0  0  0  0  0  0
  -32.8145  -22.6190   18.5322 C   0  0  0  0  0  0  0  0  0  0  0  0
  -22.8298  -14.5885   24.3397 C   0  0  0  0  0  0  0  0  0  0  0  0
  -26.0442  -29.4697   19.1085 C   0  0  0  0  0  0  0  0  0  0  0  0
  -28.2455  -23.2691   22.3118 C   0  0  0  0  0  0  0  0  0  0  0  0
  -28.8851  -22.3668   19.5693 C   0  0  0  0  0  0  0  0  0  0  0  0
  -24.0900  -12.7423   23.2832 C   0  0  0  0  0  0  0  0  0  0  0  0
  -26.6967  -28.2504   18.4621 C   0  0  0  0  0  0  0  0  0  0  0  0
  -20.6878  -17.0186   25.5675 C   0  0  0  0  0  0  0  0  0  0  0  0
  -25.8349  -27.0094   18.6722 C   0  0  0  0  0  0  0  0  0  0  0  0
  -24.5671   -9.3275   22.6578 C   0  0  0  0  0  0  0  0  0  0  0  0
  -24.9833   -8.8510   21.3013 C   0  0  0  0  0  0  0  0  0  0  0  0
  -20.6310  -18.0543   24.4447 C   0  0  0  0  0  0  0  0  0  0  0  0
  -22.1058  -16.4900   25.7521 C   0  0  0  0  0  0  0  0  0  0  0  0
  -22.6452  -16.9276   23.3778 C   0  0  0  0  0  0  0  0  0  0  0  0
  -24.9710  -15.0699   23.0633 C   0  0  0  0  0  0  0  0  0  0  0  0
  -25.6814  -26.6906   20.1643 C   0  0  1  0  0  0  0  0  0  0  0  0
  -24.0617  -10.0509   21.4229 C   0  0  0  0  0  0  0  0  0  0  0  0
  -28.4222  -24.2564   21.1623 C   0  0  1  0  0  0  0  0  0  0  0  0
  -21.2294  -17.4905   23.1439 C   0  0  2  0  0  0  0  0  0  0  0  0
  -35.1341  -22.7800   17.5883 C   0  0  0  0  0  0  0  0  0  0  0  0
  -28.9761  -25.0269   16.6390 C   0  0  0  0  0  0  0  0  0  0  0  0
  -31.1464  -24.2414   15.6689 C   0  0  0  0  0  0  0  0  0  0  0  0
  -31.0907  -26.2756   17.1116 C   0  0  0  0  0  0  0  0  0  0  0  0
  -34.0112  -21.4264   20.9622 C   0  0  0  0  0  0  0  0  0  0  0  0
  -26.2473  -17.1825   21.5709 C   0  0  0  0  0  0  0  0  0  1  0  0
  -30.7853  -23.9987   18.1672 C   0  0  1  0  0  0  0  0  0  0  0  0
  -34.2932  -22.7371   18.8547 C   0  0  2  0  0  0  0  0  0  0  0  0
  -30.4848  -24.8690   16.9144 C   0  0  0  0  0  0  0  0  0  0  0  0
  -21.3593  -19.8137   22.3260 N   0  0  0  0  0  0  0  0  0  0  0  0
  -25.5845  -13.1154   19.9247 N   0  0  0  0  0  0  0  0  0  0  0  0
  -25.1967  -11.8291   19.9395 N   0  0  0  0  0  0  0  0  0  0  0  0
  -21.2127  -18.5127   22.0224 N   0  0  0  0  0  0  0  0  0  0  0  0
  -25.4056  -14.8660   21.6611 N   0  0  0  0  0  0  0  0  0  0  0  0
  -29.2254  -23.7102   20.0665 N   0  0  0  0  0  0  0  0  0  0  0  0
  -23.8649  -14.1801   23.4846 N   0  0  0  0  0  0  0  0  0  0  0  0
  -22.6436  -15.9704   24.4949 N   0  0  0  0  0  0  0  0  0  0  0  0
  -20.9034  -17.0194   20.2100 N   0  0  0  0  0  0  0  0  0  0  0  0
  -21.0732  -21.0648   18.2094 N   0  0  0  0  0  0  0  0  0  0  0  0
  -26.8786  -26.0547   20.6710 N   0  0  0  0  0  0  0  0  0  0  0  0
  -32.2056  -23.8545   18.4679 N   0  0  0  0  0  0  0  0  0  0  0  0
  -34.7387  -21.5757   19.6755 N   0  3  0  0  0  0  0  0  0  0  0  0
  -20.8186  -18.8154   17.8428 O   0  0  0  0  0  0  0  0  0  0  0  0
  -26.3731  -23.8664   20.0558 O   0  0  0  0  0  0  0  0  0  0  0  0
  -26.4059  -15.7154   19.7218 O   0  0  0  0  0  0  0  0  0  0  0  0
  -30.4488  -25.6781   19.8082 O   0  0  0  0  0  0  0  0  0  0  0  0
  -32.2563  -21.5391   18.3516 O   0  0  0  0  0  0  0  0  0  0  0  0
  -22.1110  -13.7661   24.9209 O   0  0  0  0  0  0  0  0  0  0  0  0
  -21.7635  -25.9715   20.7555 O   0  0  0  0  0  0  0  0  0  0  0  0
  -26.8852  -18.0142   20.6335 O   0  0  0  0  0  0  0  0  0  1  0  0
  -18.9046  -29.0286   24.3451 F   0  0  0  0  0  0  0  0  0  0  0  0
  -19.8748  -27.7908   19.8805 F   0  0  0  0  0  0  0  0  0  0  0  0
  1  2  1  0  0  0  0
  1  5  2  0  0  0  0
  2  6  2  0  0  0  0
  3  8  2  0  0  0  0
  3 15  1  0  0  0  0
  4  9  1  0  0  0  0
  4 15  2  0  0  0  0
  5 17  1  0  0  0  0
  6 19  1  0  0  0  0
  7 10  2  0  0  0  0
  7 18  1  0  0  0  0
  8 22  1  0  0  0  0
  9 22  2  0  0  0  0
 10 23  1  0  0  0  0
 11 12  2  0  0  0  0
 11 24  1  0  0  0  0
 12 25  1  0  0  0  0
 13 20  1  0  0  0  0
 13 23  2  0  0  0  0
 14 25  2  0  0  0  0
 14 26  1  0  0  0  0
 15 27  1  0  0  0  0
 16 27  1  0  0  0  0
 16 30  2  0  0  0  0
 16 31  1  0  0  0  0
 17 19  2  0  0  0  0
 17 37  1  0  0  0  0
 18 20  2  0  0  0  0
 18 38  1  0  0  0  0
 19 50  1  0  0  0  0
 20 39  1  0  0  0  0
 21 28  2  0  0  0  0
 21 29  1  0  0  0  0
 21 40  1  0  0  0  0
 22 82  1  0  0  0  0
 23 83  1  0  0  0  0
 24 26  2  0  0  0  0
 24 82  1  0  0  0  0
 25 84  1  0  0  0  0
 26 85  1  0  0  0  0
 27 63  2  0  0  0  0
 28 51  1  0  0  0  0
 28 65  1  0  0  0  0
 29 64  2  0  0  0  0
 29 67  1  0  0  0  0
 30 66  1  0  0  0  0
 30 71  1  0  0  0  0
 31 72  1  0  0  0  0
 31 76  2  0  0  0  0
 32 52  1  0  0  0  0
 32 73  1  0  0  0  0
 32 77  2  0  0  0  0
 33 59  1  0  0  0  0
 33 67  1  0  0  0  0
 33 78  2  0  0  0  0
 34 60  1  0  0  0  0
 34 68  1  0  0  0  0
 34 79  2  0  0  0  0
 35 61  1  0  0  0  0
 35 74  1  0  0  0  0
 35 80  2  0  0  0  0
 36 69  1  0  0  0  0
 36 70  1  0  0  0  0
 36 81  2  0  0  0  0
 37 41  1  0  0  0  0
 38 52  1  0  0  0  0
 39 68  1  0  0  0  0
 40 69  1  0  0  0  0
 41 43  1  0  0  0  0
 42 46  1  0  0  0  0
 42 47  1  0  0  0  0
 43 50  1  0  0  0  0
 44 45  1  0  0  0  0
 44 51  1  0  0  0  0
 45 51  1  0  0  0  0
 46 53  1  0  0  0  0
 47 70  1  0  0  0  0
 48 53  1  0  0  0  0
 48 70  1  0  0  0  0
 49 67  1  0  0  0  0
 49 69  1  0  0  0  0
 50 73  1  0  0  0  0
 52 68  1  0  0  0  0
 53 66  1  0  0  0  0
 54 61  1  0  0  0  0
 55 62  1  0  0  0  0
 56 62  1  0  0  0  0
 57 62  1  0  0  0  0
 58 75  1  0  0  0  0
 59 83  1  0  0  0  0
 60 62  1  0  0  0  0
 60 74  1  0  0  0  0
 61 75  1  0  0  0  0
 63 66  1  0  0  0  0
 64 65  1  0  0  0  0
M  CHG  1  75   1
M  ISO  4  36 100  59 101  69 100  83 101
M  END
> <Batch ID>
0152

> <Smiles>
CNC(C)C(=O)NC(C(=O)N1Cc2cc([101O:1][101CH2:1]C(=O)N3C[100N:0]([100C:0](=O)N4CCCC(n5nc(-c6ccc(Oc7ccc(F)cc7F)cc6)c(C(N)=O)c5N)C4)Cc4c3n[nH]c4C3CC3)ccc2CC1C(=O)NC1CCCc2ccccc21)C(C)(C)C

> <Shape>
0.195

> <Color>
0.059

> <Negative vol penalty>
0.000

$$$$

  -OEChem-04052303273D

 81 90  0     1  0  0  0  0  0999 V2000
  -25.0352  -35.1853   15.1955 C   0  0  0  0  0  0  0  0  0  0  0  0
  -25.5103  -33.9092   15.4805 C   0  0  0  0  0  0  0  0  0  0  0  0
  -24.2572   -9.7330   21.9770 C   0  0  0  0  0  0  0  0  0  0  0  0
  -22.6976  -10.3835   20.2502 C   0  0  0  0  0  0  0  0  0  0  0  0
  -24.8977  -36.1214   16.2196 C   0  0  0  0  0  0  0  0  0  0  0  0
  -25.8492  -33.5688   16.7896 C   0  0  0  0  0  0  0  0  0  0  0  0
  -24.0859  -29.0152   18.1315 C   0  0  0  0  0  0  0  0  0  0  0  0
  -23.6344   -8.4884   22.0706 C   0  0  0  0  0  0  0  0  0  0  0  0
  -22.0749   -9.1389   20.3438 C   0  0  0  0  0  0  0  0  0  0  0  0
  -24.7838  -27.9005   17.6686 C   0  0  0  0  0  0  0  0  0  0  0  0
  -20.8455   -7.1988   23.4788 C   0  0  0  0  0  0  0  0  0  0  0  0
  -20.5781   -6.7031   24.7549 C   0  0  0  0  0  0  0  0  0  0  0  0
  -25.8733  -27.7003   19.8116 C   0  0  0  0  0  0  0  0  0  0  0  0
  -24.8790  -21.2170   19.5272 C   0  0  0  0  0  0  0  0  0  0  0  0
  -21.9608   -4.7758   24.2958 C   0  0  0  0  0  0  0  0  0  0  0  0
  -23.7887  -10.6806   21.0668 C   0  0  0  0  0  0  0  0  0  0  0  0
  -25.5060  -12.3191   20.1319 C   0  0  0  0  0  0  0  0  0  0  0  0
  -25.2259  -35.7893   17.5434 C   0  0  0  0  0  0  0  0  0  0  0  0
  -24.2850  -29.4882   19.4365 C   0  0  0  0  0  0  0  0  0  0  0  0
  -25.7172  -34.5018   17.8321 C   0  0  0  0  0  0  0  0  0  0  0  0
  -25.1749  -28.8197   20.2894 C   0  0  0  0  0  0  0  0  0  0  0  0
  -25.3914  -21.9489   18.4258 C   0  0  0  0  0  0  0  0  0  0  0  0
  -22.5433   -8.1914   21.2540 C   0  0  0  0  0  0  0  0  0  0  0  0
  -25.6798  -27.2446   18.5078 C   0  0  0  0  0  0  0  0  0  0  0  0
  -21.6704   -6.4830   22.6111 C   0  0  0  0  0  0  0  0  0  0  0  0
  -21.1358   -5.4916   25.1634 C   0  0  0  0  0  0  0  0  0  0  0  0
  -22.2281   -5.2715   23.0197 C   0  0  0  0  0  0  0  0  0  0  0  0
  -24.4313  -11.9667   20.9701 C   0  0  0  0  0  0  0  0  0  0  0  0
  -25.7395  -21.1399   17.3685 C   0  0  0  0  0  0  0  0  0  0  0  0
  -25.7429  -13.6420   20.4152 C   0  0  0  0  0  0  0  0  0  0  0  0
  -24.8668  -19.8615   19.2674 C   0  0  0  0  0  0  0  0  0  0  0  0
  -26.2258  -11.5219   19.1821 C   0  0  0  0  0  0  0  0  0  0  0  0
  -25.3591  -32.1999   20.7001 C   0  0  0  0  0  0  0  0  0  0  0  0
  -24.4733  -30.7968   23.4874 C   0  0  0  0  0  0  0  0  0  0  0  0
  -23.8383  -27.9192   25.2088 C   0  0  0  0  0  0  0  0  0  0  0  0
  -23.9301  -18.8209   21.3617 C   0  0  0  0  0  0  0  0  0  0  0  0
  -25.1053  -36.8497   18.6091 C   0  0  0  0  0  0  0  0  0  0  0  0
  -23.5046  -30.6759   19.9293 C   0  0  0  0  0  0  0  0  0  0  0  0
  -25.4093  -29.2754   21.7057 C   0  0  0  0  0  0  0  0  0  0  0  0
  -26.3016  -21.6358   16.0776 C   0  0  0  0  0  0  0  0  0  0  0  0
  -25.1317  -36.2914   20.0296 C   0  0  0  0  0  0  0  0  0  0  0  0
  -25.9402  -23.1220   15.9179 C   0  0  0  0  0  0  0  0  0  0  0  0
  -23.9668  -16.5841   24.1316 C   0  0  0  0  0  0  0  0  0  0  0  0
  -26.2644  -35.2817   20.1854 C   0  0  0  0  0  0  0  0  0  0  0  0
  -24.1794  -15.2124   23.4870 C   0  0  0  0  0  0  0  0  0  0  0  0
  -23.0774  -17.4821   23.2736 C   0  0  0  0  0  0  0  0  0  0  0  0
  -23.7213  -16.2605   21.2335 C   0  0  0  0  0  0  0  0  0  0  0  0
  -26.0719  -34.0870   19.2435 C   0  0  1  0  0  0  0  0  0  0  0  0
  -24.1686  -31.3794   21.1089 C   0  0  1  0  0  0  0  0  0  0  0  0
  -24.6639  -15.3434   22.0298 C   0  0  2  0  0  0  0  0  0  0  0  0
  -26.2009  -23.9210   17.2155 C   0  0  1  0  0  0  0  0  0  0  0  0
  -23.1709  -27.0895   27.4811 C   0  0  0  0  0  0  0  0  0  0  0  0
  -27.2972  -31.3344   24.5104 C   0  0  0  0  0  0  0  0  0  0  0  0
  -26.8710  -29.6863   26.3462 C   0  0  0  0  0  0  0  0  0  0  0  0
  -25.4847  -31.7536   26.1818 C   0  0  0  0  0  0  0  0  0  0  0  0
  -21.3703  -26.6705   24.1557 C   0  0  0  0  0  0  0  0  0  0  0  0
  -25.7217  -25.3496   17.0713 C   0  0  0  0  0  0  0  0  0  1  0  0
  -25.1506  -29.8999   24.4954 C   0  0  1  0  0  0  0  0  0  0  0  0
  -22.6818  -27.5164   26.1059 C   0  0  2  0  0  0  0  0  0  0  0  0
  -26.1981  -30.6609   25.3562 C   0  0  0  0  0  0  0  0  0  0  0  0
  -24.0143  -12.9836   21.7290 N   0  0  0  0  0  0  0  0  0  0  0  0
  -24.8314  -13.9880   21.3689 N   0  0  0  0  0  0  0  0  0  0  0  0
  -25.5320  -23.2955   18.3615 N   0  0  0  0  0  0  0  0  0  0  0  0
  -24.6273  -30.4451   22.1389 N   0  0  0  0  0  0  0  0  0  0  0  0
  -23.6003  -17.5625   21.9080 N   0  0  0  0  0  0  0  0  0  0  0  0
  -26.6399  -14.5314   19.9391 N   0  0  0  0  0  0  0  0  0  0  0  0
  -25.8522  -10.1814   19.0155 N   0  0  0  0  0  0  0  0  0  0  0  0
  -24.4486  -18.7699   20.0682 N   0  0  0  0  0  0  0  0  0  0  0  0
  -25.0731  -33.1827   19.7719 N   0  0  0  0  0  0  0  0  0  0  0  0
  -24.0826  -29.2749   25.2682 N   0  0  0  0  0  0  0  0  0  0  0  0
  -21.9285  -26.3813   25.5017 N   0  3  0  0  0  0  0  0  0  0  0  0
  -27.1829  -11.9802   18.5132 O   0  0  0  0  0  0  0  0  0  0  0  0
  -26.4557  -31.9600   21.1917 O   0  0  0  0  0  0  0  0  0  0  0  0
  -23.8254  -31.7693   23.8824 O   0  0  0  0  0  0  0  0  0  0  0  0
  -24.4648  -27.1113   24.5266 O   0  0  0  0  0  0  0  0  0  0  0  0
  -23.7901  -19.8644   22.0047 O   0  0  0  0  0  0  0  0  0  0  0  0
  -21.9355   -6.9769   21.3449 O   0  0  0  0  0  0  0  0  0  0  0  0
  -26.3627  -26.1567   18.0583 O   0  0  0  0  0  0  0  0  0  1  0  0
  -20.8802   -5.0164   26.3894 F   0  0  0  0  0  0  0  0  0  0  0  0
  -23.0224   -4.5799   22.1910 F   0  0  0  0  0  0  0  0  0  0  0  0
  -25.4688  -19.4945   17.7015 S   0  0  0  0  0  0  0  0  0  0  0  0
  1  2  1  0  0  0  0
  1  5  2  0  0  0  0
  2  6  2  0  0  0  0
  3  8  2  0  0  0  0
  3 16  1  0  0  0  0
  4  9  1  0  0  0  0
  4 16  2  0  0  0  0
  5 18  1  0  0  0  0
  6 20  1  0  0  0  0
  7 10  2  0  0  0  0
  7 19  1  0  0  0  0
  8 23  1  0  0  0  0
  9 23  2  0  0  0  0
 10 24  1  0  0  0  0
 11 12  2  0  0  0  0
 11 25  1  0  0  0  0
 12 26  1  0  0  0  0
 13 21  1  0  0  0  0
 13 24  2  0  0  0  0
 14 22  1  0  0  0  0
 14 31  2  0  0  0  0
 15 26  2  0  0  0  0
 15 27  1  0  0  0  0
 16 28  1  0  0  0  0
 17 28  1  0  0  0  0
 17 30  2  0  0  0  0
 17 32  1  0  0  0  0
 18 20  2  0  0  0  0
 18 37  1  0  0  0  0
 19 21  2  0  0  0  0
 19 38  1  0  0  0  0
 20 48  1  0  0  0  0
 21 39  1  0  0  0  0
 22 29  2  0  0  0  0
 22 63  1  0  0  0  0
 23 77  1  0  0  0  0
 24 78  1  0  0  0  0
 25 27  2  0  0  0  0
 25 77  1  0  0  0  0
 26 79  1  0  0  0  0
 27 80  1  0  0  0  0
 28 61  2  0  0  0  0
 29 40  1  0  0  0  0
 29 81  1  0  0  0  0
 30 62  1  0  0  0  0
 30 66  1  0  0  0  0
 31 68  1  0  0  0  0
 31 81  1  0  0  0  0
 32 67  1  0  0  0  0
 32 72  2  0  0  0  0
 33 49  1  0  0  0  0
 33 69  1  0  0  0  0
 33 73  2  0  0  0  0
 34 58  1  0  0  0  0
 34 64  1  0  0  0  0
 34 74  2  0  0  0  0
 35 59  1  0  0  0  0
 35 70  1  0  0  0  0
 35 75  2  0  0  0  0
 36 65  1  0  0  0  0
 36 68  1  0  0  0  0
 36 76  2  0  0  0  0
 37 41  1  0  0  0  0
 38 49  1  0  0  0  0
 39 64  1  0  0  0  0
 40 42  1  0  0  0  0
 41 44  1  0  0  0  0
 42 51  1  0  0  0  0
 43 45  1  0  0  0  0
 43 46  1  0  0  0  0
 44 48  1  0  0  0  0
 45 50  1  0  0  0  0
 46 65  1  0  0  0  0
 47 50  1  0  0  0  0
 47 65  1  0  0  0  0
 48 69  1  0  0  0  0
 49 64  1  0  0  0  0
 50 62  1  0  0  0  0
 51 57  1  0  0  0  0
 51 63  1  0  0  0  0
 52 59  1  0  0  0  0
 53 60  1  0  0  0  0
 54 60  1  0  0  0  0
 55 60  1  0  0  0  0
 56 71  1  0  0  0  0
 57 78  1  0  0  0  0
 58 60  1  0  0  0  0
 58 70  1  0  0  0  0
 59 71  1  0  0  0  0
 61 62  1  0  0  0  0
M  CHG  1  71   1
M  ISO  4  36 100  57 101  68 100  78 101
M  END
> <Batch ID>
0152

> <Smiles>
CNC(C)C(=O)NC(C(=O)N1Cc2cc([101O:1][101CH2:1]C3CCc4sc([100NH:0][100C:0](=O)N5CCCC(n6nc(-c7ccc(Oc8ccc(F)cc8F)cc7)c(C(N)=O)c6N)C5)cc4N3)ccc2CC1C(=O)NC1CCCc2ccccc21)C(C)(C)C

> <Shape>
0.217

> <Color>
0.115

> <Negative vol penalty>
0.000

$$$$

  -OEChem-04052303273D

 87 96  0     1  0  0  0  0  0999 V2000
  -19.0147  -26.5101   25.8561 C   0  0  0  0  0  0  0  0  0  0  0  0
  -20.3383  -26.1030   25.7227 C   0  0  0  0  0  0  0  0  0  0  0  0
  -24.2502   -9.7287   21.6769 C   0  0  0  0  0  0  0  0  0  0  0  0
  -22.8553  -10.0039   19.7236 C   0  0  0  0  0  0  0  0  0  0  0  0
  -18.3345  -27.0365   24.7588 C   0  0  0  0  0  0  0  0  0  0  0  0
  -20.9821  -26.2210   24.4915 C   0  0  0  0  0  0  0  0  0  0  0  0
  -26.8903  -27.5200   23.5363 C   0  0  0  0  0  0  0  0  0  0  0  0
  -29.8878  -17.7996   20.6974 C   0  0  0  0  0  0  0  0  0  0  0  0
  -23.7209   -8.4535   21.8753 C   0  0  0  0  0  0  0  0  0  0  0  0
  -22.3260   -8.7287   19.9219 C   0  0  0  0  0  0  0  0  0  0  0  0
  -27.9945  -26.7155   23.2586 C   0  0  0  0  0  0  0  0  0  0  0  0
  -20.8977   -7.0993   23.1481 C   0  0  0  0  0  0  0  0  0  0  0  0
  -20.5238   -6.7481   24.4452 C   0  0  0  0  0  0  0  0  0  0  0  0
  -30.1881  -19.0957   21.1013 C   0  0  0  0  0  0  0  0  0  0  0  0
  -27.7070  -27.1447   20.9023 C   0  0  0  0  0  0  0  0  0  0  0  0
  -22.0981   -4.9159   24.4028 C   0  0  0  0  0  0  0  0  0  0  0  0
  -29.8913  -18.5569   18.4428 C   0  0  0  0  0  0  0  0  0  0  0  0
  -23.8174  -10.5039   20.6011 C   0  0  0  0  0  0  0  0  0  0  0  0
  -24.3067  -12.9128   21.2835 C   0  0  0  0  0  0  0  0  0  0  0  0
  -18.9734  -27.1700   23.5159 C   0  0  0  0  0  0  0  0  0  0  0  0
  -26.1783  -28.1352   22.4966 C   0  0  0  0  0  0  0  0  0  0  0  0
  -20.3095  -26.7485   23.3762 C   0  0  0  0  0  0  0  0  0  0  0  0
  -26.5956  -27.9586   21.1696 C   0  0  0  0  0  0  0  0  0  0  0  0
  -29.7350  -17.5167   19.3447 C   0  0  0  0  0  0  0  0  0  0  0  0
  -22.7588   -7.9535   20.9977 C   0  0  0  0  0  0  0  0  0  0  0  0
  -28.4013  -26.5254   21.9412 C   0  0  0  0  0  0  0  0  0  0  0  0
  -21.8717   -6.3587   22.4783 C   0  0  0  0  0  0  0  0  0  0  0  0
  -21.1241   -5.6564   25.0726 C   0  0  0  0  0  0  0  0  0  0  0  0
  -22.4719   -5.2671   23.1056 C   0  0  0  0  0  0  0  0  0  0  0  0
  -24.3634  -11.8215   20.3960 C   0  0  0  0  0  0  0  0  0  0  0  0
  -30.3244  -20.0652   20.1208 C   0  0  0  0  0  0  0  0  0  0  0  0
  -24.9658  -13.9235   20.6275 C   0  0  0  0  0  0  0  0  0  0  0  0
  -29.8400  -22.5183   20.3182 C   0  0  0  0  0  0  0  0  0  0  0  0
  -30.2798  -23.7808   20.5314 C   0  0  0  0  0  0  0  0  0  0  0  0
  -23.7115  -13.0046   22.5847 C   0  0  0  0  0  0  0  0  0  0  0  0
  -28.4358  -22.3348   19.9037 C   0  0  0  0  0  0  0  0  0  0  0  0
  -23.1944  -27.9656   21.4143 C   0  0  0  0  0  0  0  0  0  0  0  0
  -24.1670  -30.3915   19.4931 C   0  0  0  0  0  0  0  0  0  0  0  0
  -26.7461  -32.0157   17.9579 C   0  0  0  0  0  0  0  0  0  0  0  0
  -29.2468  -15.7780   17.5882 C   0  0  0  0  0  0  0  0  0  0  0  0
  -18.1825  -27.7008   22.3465 C   0  0  0  0  0  0  0  0  0  0  0  0
  -25.0054  -29.0215   22.8147 C   0  0  0  0  0  0  0  0  0  0  0  0
  -25.8776  -28.6131   20.0188 C   0  0  0  0  0  0  0  0  0  0  0  0
  -31.7107  -24.0144   20.9777 C   0  0  0  0  0  0  0  0  0  0  0  0
  -19.0528  -28.1400   21.1718 C   0  0  0  0  0  0  0  0  0  0  0  0
  -32.6111  -22.7900   20.8240 C   0  0  0  0  0  0  0  0  0  0  0  0
  -26.5515  -14.2526   15.8317 C   0  0  0  0  0  0  0  0  0  0  0  0
  -20.1111  -27.0844   20.8675 C   0  0  0  0  0  0  0  0  0  0  0  0
  -25.7373  -13.5739   16.9356 C   0  0  0  0  0  0  0  0  0  0  0  0
  -31.9063  -21.5125   21.2722 C   0  0  0  0  0  0  0  0  0  0  0  0
  -28.0522  -14.1795   16.1074 C   0  0  0  0  0  0  0  0  0  0  0  0
  -27.6516  -13.9942   18.5311 C   0  0  0  0  0  0  0  0  0  0  0  0
  -21.0498  -26.8836   22.0633 C   0  0  1  0  0  0  0  0  0  0  0  0
  -24.0438  -29.1840   21.6416 C   0  0  1  0  0  0  0  0  0  0  0  0
  -26.1310  -14.0991   18.3302 C   0  0  2  0  0  0  0  0  0  0  0  0
  -27.4072  -22.1598   20.9844 C   0  0  0  0  0  0  0  0  0  0  0  0
  -27.2258  -33.9411   16.4216 C   0  0  0  0  0  0  0  0  0  0  0  0
  -23.1822  -28.7422   17.1224 C   0  0  0  0  0  0  0  0  0  0  0  0
  -24.5164  -30.2348   15.6190 C   0  0  0  0  0  0  0  0  0  0  0  0
  -22.6570  -31.1835   16.9848 C   0  0  0  0  0  0  0  0  0  0  0  0
  -28.3975  -33.3829   19.9982 C   0  0  0  0  0  0  0  0  0  0  0  0
  -29.4796  -25.0523   20.4170 C   0  0  0  0  0  0  0  0  0  1  0  0
  -24.8017  -30.4843   18.1265 C   0  0  1  0  0  0  0  0  0  0  0  0
  -27.0973  -33.4898   17.8682 C   0  0  2  0  0  0  0  0  0  0  0  0
  -23.8019  -30.1472   16.9845 C   0  0  0  0  0  0  0  0  0  0  0  0
  -30.1831  -19.8284   18.7973 N   0  0  0  0  0  0  0  0  0  0  0  0
  -25.0075  -12.1116   19.2625 N   0  0  0  0  0  0  0  0  0  0  0  0
  -25.3615  -13.3968   19.4332 N   0  0  0  0  0  0  0  0  0  0  0  0
  -30.6295  -21.3834   20.5491 N   0  0  0  0  0  0  0  0  0  0  0  0
  -24.7329  -29.4654   20.3806 N   0  0  0  0  0  0  0  0  0  0  0  0
  -28.3507  -14.6977   17.4443 N   0  0  0  0  0  0  0  0  0  0  0  0
  -25.2396  -15.2025   20.9613 N   0  0  0  0  0  0  0  0  0  0  0  0
  -22.3726  -13.4078   22.6800 N   0  0  0  0  0  0  0  0  0  0  0  0
  -29.4277  -16.2058   18.9031 N   0  0  0  0  0  0  0  0  0  0  0  0
  -22.0150  -27.9597   22.1344 N   0  0  0  0  0  0  0  0  0  0  0  0
  -25.3836  -31.8191   18.0365 N   0  0  0  0  0  0  0  0  0  0  0  0
  -28.3895  -33.7576   18.5606 N   0  3  0  0  0  0  0  0  0  0  0  0
  -24.3529  -12.7528   23.6329 O   0  0  0  0  0  0  0  0  0  0  0  0
  -28.1419  -22.3214   18.7126 O   0  0  0  0  0  0  0  0  0  0  0  0
  -23.5797  -27.0960   20.6417 O   0  0  0  0  0  0  0  0  0  0  0  0
  -23.2089  -31.1193   19.7655 O   0  0  0  0  0  0  0  0  0  0  0  0
  -27.5954  -31.1273   17.9546 O   0  0  0  0  0  0  0  0  0  0  0  0
  -29.7912  -16.3038   16.6140 O   0  0  0  0  0  0  0  0  0  0  0  0
  -22.2422   -6.7091   21.1908 O   0  0  0  0  0  0  0  0  0  0  0  0
  -29.4784  -25.7402   21.6673 O   0  0  0  0  0  0  0  0  0  1  0  0
  -20.7661   -5.3203   26.3188 F   0  0  0  0  0  0  0  0  0  0  0  0
  -23.4090   -4.5525   22.4677 F   0  0  0  0  0  0  0  0  0  0  0  0
  1  2  1  0  0  0  0
  1  5  2  0  0  0  0
  2  6  2  0  0  0  0
  3  9  2  0  0  0  0
  3 18  1  0  0  0  0
  4 10  1  0  0  0  0
  4 18  2  0  0  0  0
  5 20  1  0  0  0  0
  6 22  1  0  0  0  0
  7 11  2  0  0  0  0
  7 21  1  0  0  0  0
  8 14  2  0  0  0  0
  8 24  1  0  0  0  0
  9 25  1  0  0  0  0
 10 25  2  0  0  0  0
 11 26  1  0  0  0  0
 12 13  2  0  0  0  0
 12 27  1  0  0  0  0
 13 28  1  0  0  0  0
 14 31  1  0  0  0  0
 15 23  1  0  0  0  0
 15 26  2  0  0  0  0
 16 28  2  0  0  0  0
 16 29  1  0  0  0  0
 17 24  2  0  0  0  0
 17 66  1  0  0  0  0
 18 30  1  0  0  0  0
 19 30  1  0  0  0  0
 19 32  2  0  0  0  0
 19 35  1  0  0  0  0
 20 22  2  0  0  0  0
 20 41  1  0  0  0  0
 21 23  2  0  0  0  0
 21 42  1  0  0  0  0
 22 53  1  0  0  0  0
 23 43  1  0  0  0  0
 24 74  1  0  0  0  0
 25 84  1  0  0  0  0
 26 85  1  0  0  0  0
 27 29  2  0  0  0  0
 27 84  1  0  0  0  0
 28 86  1  0  0  0  0
 29 87  1  0  0  0  0
 30 67  2  0  0  0  0
 31 66  2  0  0  0  0
 31 69  1  0  0  0  0
 32 68  1  0  0  0  0
 32 72  1  0  0  0  0
 33 34  2  0  0  0  0
 33 36  1  0  0  0  0
 33 69  1  0  0  0  0
 34 44  1  0  0  0  0
 34 62  1  0  0  0  0
 35 73  1  0  0  0  0
 35 78  2  0  0  0  0
 36 56  1  0  0  0  0
 36 79  2  0  0  0  0
 37 54  1  0  0  0  0
 37 75  1  0  0  0  0
 37 80  2  0  0  0  0
 38 63  1  0  0  0  0
 38 70  1  0  0  0  0
 38 81  2  0  0  0  0
 39 64  1  0  0  0  0
 39 76  1  0  0  0  0
 39 82  2  0  0  0  0
 40 71  1  0  0  0  0
 40 74  1  0  0  0  0
 40 83  2  0  0  0  0
 41 45  1  0  0  0  0
 42 54  1  0  0  0  0
 43 70  1  0  0  0  0
 44 46  1  0  0  0  0
 45 48  1  0  0  0  0
 46 50  1  0  0  0  0
 47 49  1  0  0  0  0
 47 51  1  0  0  0  0
 48 53  1  0  0  0  0
 49 55  1  0  0  0  0
 50 69  1  0  0  0  0
 51 71  1  0  0  0  0
 52 55  1  0  0  0  0
 52 71  1  0  0  0  0
 53 75  1  0  0  0  0
 54 70  1  0  0  0  0
 55 68  1  0  0  0  0
 57 64  1  0  0  0  0
 58 65  1  0  0  0  0
 59 65  1  0  0  0  0
 60 65  1  0  0  0  0
 61 77  1  0  0  0  0
 62 85  1  0  0  0  0
 63 65  1  0  0  0  0
 63 76  1  0  0  0  0
 64 77  1  0  0  0  0
 67 68  1  0  0  0  0
M  CHG  1  77   1
M  ISO  4  40 100  62 101  74 100  85 101
M  END
> <Batch ID>
0152

> <Smiles>
CNC(C)C(=O)NC(C(=O)N1Cc2cc([101O:1][101CH2:1]C3=C(C(C)=O)N(c4ccc([100NH:0][100C:0](=O)N5CCCC(n6nc(-c7ccc(Oc8ccc(F)cc8F)cc7)c(C(N)=O)c6N)C5)cn4)CCC3)ccc2CC1C(=O)NC1CCCc2ccccc21)C(C)(C)C

> <Shape>
0.272

> <Color>
0.116

> <Negative vol penalty>
0.000

$$$$

  -OEChem-04052303273D

 82 91  0     1  0  0  0  0  0999 V2000
  -29.5647  -36.1827   18.7172 C   0  0  0  0  0  0  0  0  0  0  0  0
  -29.3709  -34.8578   18.3400 C   0  0  0  0  0  0  0  0  0  0  0  0
  -24.7773   -8.6765   21.4780 C   0  0  0  0  0  0  0  0  0  0  0  0
  -23.1426  -10.3850   20.9821 C   0  0  0  0  0  0  0  0  0  0  0  0
  -29.3981  -36.5586   20.0495 C   0  0  0  0  0  0  0  0  0  0  0  0
  -29.0114  -33.9075   19.2952 C   0  0  0  0  0  0  0  0  0  0  0  0
  -25.3344  -29.0781   18.4814 C   0  0  0  0  0  0  0  0  0  0  0  0
  -23.8868   -8.0844   22.3735 C   0  0  0  0  0  0  0  0  0  0  0  0
  -22.2520   -9.7928   21.8776 C   0  0  0  0  0  0  0  0  0  0  0  0
  -25.5961  -27.7298   18.2415 C   0  0  0  0  0  0  0  0  0  0  0  0
  -21.9105   -5.9169   24.5209 C   0  0  0  0  0  0  0  0  0  0  0  0
  -21.7681   -4.5302   24.4726 C   0  0  0  0  0  0  0  0  0  0  0  0
  -25.3724  -27.2731   20.5996 C   0  0  0  0  0  0  0  0  0  0  0  0
  -27.6198  -19.0935   19.4653 C   0  0  0  0  0  0  0  0  0  0  0  0
  -21.0295   -4.6861   22.1775 C   0  0  0  0  0  0  0  0  0  0  0  0
  -25.4863  -18.2243   19.1570 C   0  0  0  0  0  0  0  0  0  0  0  0
  -24.4052   -9.8268   20.7823 C   0  0  0  0  0  0  0  0  0  0  0  0
  -25.4561  -10.1661   18.4827 C   0  0  0  0  0  0  0  0  0  0  0  0
  -29.0269  -35.6143   21.0197 C   0  0  0  0  0  0  0  0  0  0  0  0
  -25.1002  -29.5366   19.7857 C   0  0  0  0  0  0  0  0  0  0  0  0
  -28.8410  -34.2708   20.6419 C   0  0  0  0  0  0  0  0  0  0  0  0
  -25.1054  -28.6272   20.8530 C   0  0  0  0  0  0  0  0  0  0  0  0
  -26.7951  -17.9316   19.4714 C   0  0  0  0  0  0  0  0  0  0  0  0
  -22.6242   -8.6425   22.5734 C   0  0  0  0  0  0  0  0  0  0  0  0
  -25.6180  -26.8276   19.3011 C   0  0  0  0  0  0  0  0  0  0  0  0
  -21.6123   -6.6883   23.3976 C   0  0  0  0  0  0  0  0  0  0  0  0
  -21.3276   -3.9148   23.3009 C   0  0  0  0  0  0  0  0  0  0  0  0
  -21.1719   -6.0729   22.2259 C   0  0  0  0  0  0  0  0  0  0  0  0
  -25.3248  -10.4393   19.8574 C   0  0  0  0  0  0  0  0  0  0  0  0
  -26.4589  -11.0043   18.0603 C   0  0  0  0  0  0  0  0  0  0  0  0
  -26.9098  -20.2301   19.1462 C   0  0  0  0  0  0  0  0  0  0  0  0
  -27.5407  -23.8234   18.8974 C   0  0  0  0  0  0  0  0  0  0  0  0
  -27.1739  -25.0918   19.1091 C   0  0  0  0  0  0  0  0  0  1  0  0
  -24.7359   -9.2379   17.6609 C   0  0  0  0  0  0  0  0  0  0  0  0
  -26.5450  -31.5901   21.7350 C   0  0  0  0  0  0  0  0  0  0  0  0
  -23.9704  -31.0101   23.6211 C   0  0  0  0  0  0  0  0  0  0  0  0
  -21.4291  -28.9032   24.4870 C   0  0  0  0  0  0  0  0  0  0  0  0
  -28.5416  -16.2245   20.0892 C   0  0  0  0  0  0  0  0  0  0  0  0
  -28.9048  -36.0587   22.4558 C   0  0  0  0  0  0  0  0  0  0  0  0
  -24.7930  -30.9895   20.0244 C   0  0  0  0  0  0  0  0  0  0  0  0
  -24.8401  -29.0653   22.2694 C   0  0  0  0  0  0  0  0  0  0  0  0
  -28.9483  -23.3180   18.9299 C   0  0  0  0  0  0  0  0  0  0  0  0
  -26.5957  -22.6748   18.7098 C   0  0  0  0  0  0  0  0  0  0  0  0
  -28.1574  -35.0637   23.3398 C   0  0  0  0  0  0  0  0  0  0  0  0
  -30.3998  -13.2209   19.6384 C   0  0  0  0  0  0  0  0  0  0  0  0
  -28.6662  -33.6464   23.0966 C   0  0  0  0  0  0  0  0  0  0  0  0
  -29.3210  -12.1427   19.5122 C   0  0  0  0  0  0  0  0  0  0  0  0
  -28.7814  -21.8787   19.4091 C   0  0  0  0  0  0  0  0  0  0  0  0
  -30.0091  -14.2986   20.6483 C   0  0  0  0  0  0  0  0  0  0  0  0
  -27.6153  -13.8341   20.2976 C   0  0  0  0  0  0  0  0  0  0  0  0
  -28.4263  -33.2158   21.6445 C   0  0  1  0  0  0  0  0  0  0  0  0
  -25.0769  -31.4329   21.4563 C   0  0  1  0  0  0  0  0  0  0  0  0
  -27.9349  -12.7611   19.2440 C   0  0  2  0  0  0  0  0  0  0  0  0
  -19.5105  -28.6853   26.0899 C   0  0  0  0  0  0  0  0  0  0  0  0
  -25.9239  -30.3246   25.8625 C   0  0  0  0  0  0  0  0  0  0  0  0
  -24.0319  -29.2286   27.0819 C   0  0  0  0  0  0  0  0  0  0  0  0
  -23.9425  -31.6707   26.5810 C   0  0  0  0  0  0  0  0  0  0  0  0
  -19.4523  -28.7945   22.2871 C   0  0  0  0  0  0  0  0  0  0  0  0
  -23.6401  -30.0079   24.7007 C   0  0  1  0  0  0  0  0  0  0  0  0
  -19.9478  -29.1498   24.7093 C   0  0  2  0  0  0  0  0  0  0  0  0
  -24.3916  -30.2997   26.0302 C   0  0  0  0  0  0  0  0  0  0  0  0
  -26.1762  -11.3774   20.2803 N   0  0  0  0  0  0  0  0  0  0  0  0
  -26.8522  -11.7011   19.1648 N   0  0  0  0  0  0  0  0  0  0  0  0
  -27.4119  -21.5134   19.0545 N   0  0  3  0  0  0  0  0  0  0  0  0
  -24.5509  -30.4973   22.4524 N   0  0  0  0  0  0  0  0  0  0  0  0
  -28.6871  -14.8416   20.3284 N   0  0  0  0  0  0  0  0  0  0  0  0
  -27.0338  -11.2057   16.8556 N   0  0  0  0  0  0  0  0  0  0  0  0
  -23.7375   -8.4541   18.2554 N   0  0  0  0  0  0  0  0  0  0  0  0
  -27.2449  -16.6198   19.7625 N   0  0  0  0  0  0  0  0  0  0  0  0
  -27.0404  -32.8479   21.4488 N   0  0  0  0  0  0  0  0  0  0  0  0
  -22.1864  -30.0051   24.8242 N   0  0  0  0  0  0  0  0  0  0  0  0
  -19.1424  -28.4187   23.6906 N   0  3  0  0  0  0  0  0  0  0  0  0
  -24.9819   -9.0956   16.4391 O   0  0  0  0  0  0  0  0  0  0  0  0
  -27.1808  -30.6409   22.1783 O   0  0  0  0  0  0  0  0  0  0  0  0
  -23.7159  -32.2030   23.8050 O   0  0  0  0  0  0  0  0  0  0  0  0
  -21.8705  -27.8384   24.0608 O   0  0  0  0  0  0  0  0  0  0  0  0
  -29.5023  -16.9967   20.1417 O   0  0  0  0  0  0  0  0  0  0  0  0
  -21.7549   -8.0648   23.4470 O   0  0  0  0  0  0  0  0  0  0  0  0
  -25.8738  -25.5112   19.0698 O   0  0  0  0  0  0  0  0  0  1  0  0
  -21.1924   -2.5830   23.2541 F   0  0  0  0  0  0  0  0  0  0  0  0
  -20.8850   -6.8085   21.1432 F   0  0  0  0  0  0  0  0  0  0  0  0
  -25.2559  -19.8943   18.8560 S   0  0  0  0  0  0  0  0  0  0  0  0
  1  2  1  0  0  0  0
  1  5  2  0  0  0  0
  2  6  2  0  0  0  0
  3  8  2  0  0  0  0
  3 17  1  0  0  0  0
  4  9  1  0  0  0  0
  4 17  2  0  0  0  0
  5 19  1  0  0  0  0
  6 21  1  0  0  0  0
  7 10  2  0  0  0  0
  7 20  1  0  0  0  0
  8 24  1  0  0  0  0
  9 24  2  0  0  0  0
 10 25  1  0  0  0  0
 11 12  2  0  0  0  0
 11 26  1  0  0  0  0
 12 27  1  0  0  0  0
 13 22  1  0  0  0  0
 13 25  2  0  0  0  0
 14 23  1  0  0  0  0
 14 31  2  0  0  0  0
 15 27  2  0  0  0  0
 15 28  1  0  0  0  0
 16 23  2  0  0  0  0
 16 82  1  0  0  0  0
 17 29  1  0  0  0  0
 18 29  1  0  0  0  0
 18 30  2  0  0  0  0
 18 34  1  0  0  0  0
 19 21  2  0  0  0  0
 19 39  1  0  0  0  0
 20 22  2  0  0  0  0
 20 40  1  0  0  0  0
 21 51  1  0  0  0  0
 22 41  1  0  0  0  0
 23 69  1  0  0  0  0
 24 78  1  0  0  0  0
 25 79  1  0  0  0  0
 26 28  2  0  0  0  0
 26 78  1  0  0  0  0
 27 80  1  0  0  0  0
 28 81  1  0  0  0  0
 29 62  2  0  0  0  0
 30 63  1  0  0  0  0
 30 67  1  0  0  0  0
 31 64  1  0  0  0  0
 31 82  1  0  0  0  0
 32 33  2  0  0  0  0
 32 42  1  0  0  0  0
 32 43  1  0  0  0  0
 33 79  1  0  0  0  0
 34 68  1  0  0  0  0
 34 73  2  0  0  0  0
 35 52  1  0  0  0  0
 35 70  1  0  0  0  0
 35 74  2  0  0  0  0
 36 59  1  0  0  0  0
 36 65  1  0  0  0  0
 36 75  2  0  0  0  0
 37 60  1  0  0  0  0
 37 71  1  0  0  0  0
 37 76  2  0  0  0  0
 38 66  1  0  0  0  0
 38 69  1  0  0  0  0
 38 77  2  0  0  0  0
 39 44  1  0  0  0  0
 40 52  1  0  0  0  0
 41 65  1  0  0  0  0
 42 48  1  0  0  0  0
 43 64  1  0  0  0  0
 44 46  1  0  0  0  0
 45 47  1  0  0  0  0
 45 49  1  0  0  0  0
 46 51  1  0  0  0  0
 47 53  1  0  0  0  0
 48 64  1  0  0  0  0
 49 66  1  0  0  0  0
 50 53  1  0  0  0  0
 50 66  1  0  0  0  0
 51 70  1  0  0  0  0
 52 65  1  0  0  0  0
 53 63  1  0  0  0  0
 54 60  1  0  0  0  0
 55 61  1  0  0  0  0
 56 61  1  0  0  0  0
 57 61  1  0  0  0  0
 58 72  1  0  0  0  0
 59 61  1  0  0  0  0
 59 71  1  0  0  0  0
 60 72  1  0  0  0  0
 62 63  1  0  0  0  0
M  CHG  1  72   1
M  ISO  4  33 101  38 100  69 100  79 101
M  END
> <Batch ID>
0152

> <Smiles>
CNC(C)C(=O)NC(C(=O)N1Cc2cc([101O:1][101CH:1]=C3CCN(c4cc([100NH:0][100C:0](=O)N5CCCC(n6nc(-c7ccc(Oc8ccc(F)cc8F)cc7)c(C(N)=O)c6N)C5)cs4)C3)ccc2CC1C(=O)NC1CCCc2ccccc21)C(C)(C)C

> <Shape>
0.272

> <Color>
0.112

> <Negative vol penalty>
0.000

$$$$

  -OEChem-04052303273D

 83 92  0     1  0  0  0  0  0999 V2000
  -26.4679  -34.7608   19.4026 C   0  0  0  0  0  0  0  0  0  0  0  0
  -26.6640  -33.5850   18.6854 C   0  0  0  0  0  0  0  0  0  0  0  0
  -22.9931   -9.9039   19.9841 C   0  0  0  0  0  0  0  0  0  0  0  0
  -23.7234   -9.9526   22.2866 C   0  0  0  0  0  0  0  0  0  0  0  0
  -26.1397  -34.7036   20.7565 C   0  0  0  0  0  0  0  0  0  0  0  0
  -26.5332  -32.3512   19.3219 C   0  0  0  0  0  0  0  0  0  0  0  0
  -24.4516  -25.6131   18.0643 C   0  0  0  0  0  0  0  0  0  0  0  0
  -22.2243   -8.7713   20.2519 C   0  0  0  0  0  0  0  0  0  0  0  0
  -22.9545   -8.8200   22.5544 C   0  0  0  0  0  0  0  0  0  0  0  0
  -24.9065  -24.3022   18.1999 C   0  0  0  0  0  0  0  0  0  0  0  0
  -23.1893   -5.4805   22.0814 C   0  0  0  0  0  0  0  0  0  0  0  0
  -23.7759   -4.4617   22.8320 C   0  0  0  0  0  0  0  0  0  0  0  0
  -24.2587  -24.3241   20.5234 C   0  0  0  0  0  0  0  0  0  0  0  0
  -28.9727  -18.7141   21.4248 C   0  0  0  0  0  0  0  0  0  0  0  0
  -22.0562   -4.7087   24.5110 C   0  0  0  0  0  0  0  0  0  0  0  0
  -23.7427  -10.4945   21.0015 C   0  0  0  0  0  0  0  0  0  0  0  0
  -24.1341  -13.0091   20.8251 C   0  0  0  0  0  0  0  0  0  0  0  0
  -25.9953  -33.4684   21.4077 C   0  0  0  0  0  0  0  0  0  0  0  0
  -23.9059  -26.2942   19.1619 C   0  0  0  0  0  0  0  0  0  0  0  0
  -26.2041  -32.2775   20.6861 C   0  0  0  0  0  0  0  0  0  0  0  0
  -23.7952  -25.6427   20.3986 C   0  0  0  0  0  0  0  0  0  0  0  0
  -29.8311  -17.8818   22.1730 C   0  0  0  0  0  0  0  0  0  0  0  0
  -22.2049   -8.2293   21.5371 C   0  0  0  0  0  0  0  0  0  0  0  0
  -24.8128  -23.6585   19.4303 C   0  0  0  0  0  0  0  0  0  0  0  0
  -22.0362   -6.1135   22.5456 C   0  0  0  0  0  0  0  0  0  0  0  0
  -23.2093   -4.0757   24.0468 C   0  0  0  0  0  0  0  0  0  0  0  0
  -21.4697   -5.7276   23.7604 C   0  0  0  0  0  0  0  0  0  0  0  0
  -24.5376  -11.6641   20.7254 C   0  0  0  0  0  0  0  0  0  0  0  0
  -29.7242  -18.1052   23.5192 C   0  0  0  0  0  0  0  0  0  0  0  0
  -25.2449  -13.7289   20.4584 C   0  0  0  0  0  0  0  0  0  0  0  0
  -28.2383  -19.5368   22.2645 C   0  0  0  0  0  0  0  0  0  0  0  0
  -22.8683  -13.5587   21.2145 C   0  0  0  0  0  0  0  0  0  0  0  0
  -24.6821  -28.9121   20.7892 C   0  0  0  0  0  0  0  0  0  0  0  0
  -21.8585  -28.3492   22.2832 C   0  0  0  0  0  0  0  0  0  0  0  0
  -26.7981  -20.9045   20.7187 C   0  0  0  0  0  0  0  0  0  0  0  0
  -19.4470  -26.1029   23.1696 C   0  0  0  0  0  0  0  0  0  0  0  0
  -30.7441  -14.6495   20.6953 C   0  0  0  0  0  0  0  0  0  0  0  0
  -25.6860  -33.4577   22.8838 C   0  0  0  0  0  0  0  0  0  0  0  0
  -23.3952  -27.6988   18.9925 C   0  0  0  0  0  0  0  0  0  0  0  0
  -23.1987  -26.3229   21.6027 C   0  0  0  0  0  0  0  0  0  0  0  0
  -30.6135  -17.2551   24.3451 C   0  0  0  0  0  0  0  0  0  0  0  0
  -25.1984  -32.1041   23.3942 C   0  0  0  0  0  0  0  0  0  0  0  0
  -31.5746  -16.6876   23.2522 C   0  0  0  0  0  0  0  0  0  0  0  0
  -29.5922  -12.2292   18.3518 C   0  0  0  0  0  0  0  0  0  0  0  0
  -26.0881  -30.9828   22.8670 C   0  0  0  0  0  0  0  0  0  0  0  0
  -28.1440  -11.9731   18.7725 C   0  0  0  0  0  0  0  0  0  0  0  0
  -30.4978  -12.4620   19.5591 C   0  0  0  0  0  0  0  0  0  0  0  0
  -28.5926  -13.2622   20.9022 C   0  0  0  0  0  0  0  0  0  0  0  0
  -26.0468  -30.9196   21.3354 C   0  0  1  0  0  0  0  0  0  0  0  0
  -30.8349  -16.8280   21.8807 C   0  0  1  0  0  0  0  0  0  0  0  0
  -23.3291  -28.4729   20.3055 C   0  0  1  0  0  0  0  0  0  0  0  0
  -27.6306  -13.0772   19.7162 C   0  0  2  0  0  0  0  0  0  0  0  0
  -17.2784  -25.9318   24.4208 C   0  0  0  0  0  0  0  0  0  0  0  0
  -23.3775  -28.4648   24.9270 C   0  0  0  0  0  0  0  0  0  0  0  0
  -21.4116  -27.3697   26.0243 C   0  0  0  0  0  0  0  0  0  0  0  0
  -21.1527  -29.6067   24.9513 C   0  0  0  0  0  0  0  0  0  0  0  0
  -17.9862  -25.2260   20.7497 C   0  0  0  0  0  0  0  0  0  0  0  0
  -25.7515  -21.9955   20.8478 C   0  0  0  0  0  0  0  0  0  1  0  0
  -21.4294  -27.5583   23.4954 C   0  0  1  0  0  0  0  0  0  0  0  0
  -17.9334  -26.1569   23.0669 C   0  0  2  0  0  0  0  0  0  0  0  0
  -21.8558  -28.2375   24.8275 C   0  0  0  0  0  0  0  0  0  0  0  0
  -25.8057  -11.5345   20.3264 N   0  0  0  0  0  0  0  0  0  0  0  0
  -26.2086  -12.8073   20.1722 N   0  0  0  0  0  0  0  0  0  0  0  0
  -22.7193  -27.6983   21.3882 N   0  0  0  0  0  0  0  0  0  0  0  0
  -29.9556  -13.5220   20.4126 N   0  0  0  0  0  0  0  0  0  0  0  0
  -25.4815  -15.0541   20.3561 N   0  0  0  0  0  0  0  0  0  0  0  0
  -21.8350  -12.6771   21.5601 N   0  0  0  0  0  0  0  0  0  0  0  0
  -27.2640  -20.5204   21.9715 N   0  0  0  0  0  0  0  0  0  0  0  0
  -24.8265  -30.2828   20.8886 N   0  0  0  0  0  0  0  0  0  0  0  0
  -19.9908  -27.3553   23.3621 N   0  0  0  0  0  0  0  0  0  0  0  0
  -30.1520  -15.6096   21.5066 N   0  0  0  0  0  0  0  0  0  0  0  0
  -17.4404  -25.1110   22.1266 N   0  3  0  0  0  0  0  0  0  0  0  0
  -22.6548  -14.7945   21.2389 O   0  0  0  0  0  0  0  0  0  0  0  0
  -25.5318  -28.0697   21.0540 O   0  0  0  0  0  0  0  0  0  0  0  0
  -21.4394  -29.4995   22.1323 O   0  0  0  0  0  0  0  0  0  0  0  0
  -27.1393  -20.4676   19.6244 O   0  0  0  0  0  0  0  0  0  0  0  0
  -20.0830  -25.0541   23.0910 O   0  0  0  0  0  0  0  0  0  0  0  0
  -31.8890  -14.7926   20.2528 O   0  0  0  0  0  0  0  0  0  0  0  0
  -21.4546   -7.1243   21.7988 O   0  0  0  0  0  0  0  0  0  0  0  0
  -25.2566  -22.3792   19.5655 O   0  0  0  0  0  0  0  0  0  1  0  0
  -23.7719   -3.0963   24.7668 F   0  0  0  0  0  0  0  0  0  0  0  0
  -20.3613   -6.3312   24.2109 F   0  0  0  0  0  0  0  0  0  0  0  0
  -28.6125  -19.2828   23.9350 S   0  0  0  0  0  0  0  0  0  0  0  0
  1  2  1  0  0  0  0
  1  5  2  0  0  0  0
  2  6  2  0  0  0  0
  3  8  2  0  0  0  0
  3 16  1  0  0  0  0
  4  9  1  0  0  0  0
  4 16  2  0  0  0  0
  5 18  1  0  0  0  0
  6 20  1  0  0  0  0
  7 10  2  0  0  0  0
  7 19  1  0  0  0  0
  8 23  1  0  0  0  0
  9 23  2  0  0  0  0
 10 24  1  0  0  0  0
 11 12  2  0  0  0  0
 11 25  1  0  0  0  0
 12 26  1  0  0  0  0
 13 21  1  0  0  0  0
 13 24  2  0  0  0  0
 14 22  1  0  0  0  0
 14 31  2  0  0  0  0
 15 26  2  0  0  0  0
 15 27  1  0  0  0  0
 16 28  1  0  0  0  0
 17 28  1  0  0  0  0
 17 30  2  0  0  0  0
 17 32  1  0  0  0  0
 18 20  2  0  0  0  0
 18 38  1  0  0  0  0
 19 21  2  0  0  0  0
 19 39  1  0  0  0  0
 20 49  1  0  0  0  0
 21 40  1  0  0  0  0
 22 29  2  0  0  0  0
 22 50  1  0  0  0  0
 23 79  1  0  0  0  0
 24 80  1  0  0  0  0
 25 27  2  0  0  0  0
 25 79  1  0  0  0  0
 26 81  1  0  0  0  0
 27 82  1  0  0  0  0
 28 62  2  0  0  0  0
 29 41  1  0  0  0  0
 29 83  1  0  0  0  0
 30 63  1  0  0  0  0
 30 66  1  0  0  0  0
 31 68  1  0  0  0  0
 31 83  1  0  0  0  0
 32 67  1  0  0  0  0
 32 73  2  0  0  0  0
 33 51  1  0  0  0  0
 33 69  1  0  0  0  0
 33 74  2  0  0  0  0
 34 59  1  0  0  0  0
 34 64  1  0  0  0  0
 34 75  2  0  0  0  0
 35 58  1  0  0  0  0
 35 68  1  0  0  0  0
 35 76  2  0  0  0  0
 36 60  1  0  0  0  0
 36 70  1  0  0  0  0
 36 77  2  0  0  0  0
 37 65  1  0  0  0  0
 37 71  1  0  0  0  0
 37 78  2  0  0  0  0
 38 42  1  0  0  0  0
 39 51  1  0  0  0  0
 40 64  1  0  0  0  0
 41 43  1  0  0  0  0
 42 45  1  0  0  0  0
 43 50  1  0  0  0  0
 44 46  1  0  0  0  0
 44 47  1  0  0  0  0
 45 49  1  0  0  0  0
 46 52  1  0  0  0  0
 47 65  1  0  0  0  0
 48 52  1  0  0  0  0
 48 65  1  0  0  0  0
 49 69  1  0  0  0  0
 50 71  1  0  0  0  0
 51 64  1  0  0  0  0
 52 63  1  0  0  0  0
 53 60  1  0  0  0  0
 54 61  1  0  0  0  0
 55 61  1  0  0  0  0
 56 61  1  0  0  0  0
 57 72  1  0  0  0  0
 58 80  1  0  0  0  0
 59 61  1  0  0  0  0
 59 70  1  0  0  0  0
 60 72  1  0  0  0  0
 62 63  1  0  0  0  0
M  CHG  1  72   1
M  ISO  4  37 100  58 101  71 100  80 101
M  END
> <Batch ID>
0152

> <Smiles>
CNC(C)C(=O)NC(C(=O)N1Cc2cc([101O:1][101CH2:1]C(=O)Nc3cc4c(s3)CCC4[100NH:0][100C:0](=O)N3CCCC(n4nc(-c5ccc(Oc6ccc(F)cc6F)cc5)c(C(N)=O)c4N)C3)ccc2CC1C(=O)NC1CCCc2ccccc21)C(C)(C)C

> <Shape>
0.330

> <Color>
0.193

> <Negative vol penalty>
0.000

$$$$

  -OEChem-04052303273D

 84 93  0     1  0  0  0  0  0999 V2000
  -30.0109  -23.3951   33.7086 C   0  0  0  0  0  0  0  0  0  0  0  0
  -30.2320  -22.1102   33.2232 C   0  0  0  0  0  0  0  0  0  0  0  0
  -23.1898   -9.8196   19.9322 C   0  0  0  0  0  0  0  0  0  0  0  0
  -23.5705   -9.9995   22.3113 C   0  0  0  0  0  0  0  0  0  0  0  0
  -28.9965  -24.1804   33.1625 C   0  0  0  0  0  0  0  0  0  0  0  0
  -29.4381  -21.6096   32.1919 C   0  0  0  0  0  0  0  0  0  0  0  0
  -32.1496  -19.2578   28.6195 C   0  0  0  0  0  0  0  0  0  0  0  0
  -22.4238   -8.6728   20.1415 C   0  0  0  0  0  0  0  0  0  0  0  0
  -22.8045   -8.8528   22.5206 C   0  0  0  0  0  0  0  0  0  0  0  0
  -32.5874  -17.9643   28.9007 C   0  0  0  0  0  0  0  0  0  0  0  0
  -23.2055   -5.5062   22.2554 C   0  0  0  0  0  0  0  0  0  0  0  0
  -23.7048   -4.5447   23.1340 C   0  0  0  0  0  0  0  0  0  0  0  0
  -32.6931  -13.3544   23.9493 C   0  0  0  0  0  0  0  0  0  0  0  0
  -30.7713  -17.0708   27.5882 C   0  0  0  0  0  0  0  0  0  0  0  0
  -30.6774  -13.0000   25.3306 C   0  0  0  0  0  0  0  0  0  0  0  0
  -21.7497   -4.8043   24.5293 C   0  0  0  0  0  0  0  0  0  0  0  0
  -23.7632  -10.4829   21.0171 C   0  0  0  0  0  0  0  0  0  0  0  0
  -33.3210  -13.5942   25.1318 C   0  0  0  0  0  0  0  0  0  0  0  0
  -24.1015  -12.9996   20.7735 C   0  0  0  0  0  0  0  0  0  0  0  0
  -28.1961  -23.6927   32.1174 C   0  0  0  0  0  0  0  0  0  0  0  0
  -31.0111  -19.4676   27.8282 C   0  0  0  0  0  0  0  0  0  0  0  0
  -28.4113  -22.3886   31.6321 C   0  0  0  0  0  0  0  0  0  0  0  0
  -30.3226  -18.3679   27.2963 C   0  0  0  0  0  0  0  0  0  0  0  0
  -32.6846  -13.5450   26.3464 C   0  0  0  0  0  0  0  0  0  0  0  0
  -31.3297  -13.0487   24.0634 C   0  0  0  0  0  0  0  0  0  0  0  0
  -31.3686  -13.2552   26.5210 C   0  0  0  0  0  0  0  0  0  0  0  0
  -22.2311   -8.1894   21.4357 C   0  0  0  0  0  0  0  0  0  0  0  0
  -31.8965  -16.8705   28.3875 C   0  0  0  0  0  0  0  0  0  0  0  0
  -21.9783   -6.1168   22.5139 C   0  0  0  0  0  0  0  0  0  0  0  0
  -22.9769   -4.1937   24.2709 C   0  0  0  0  0  0  0  0  0  0  0  0
  -21.2504   -5.7658   23.6508 C   0  0  0  0  0  0  0  0  0  0  0  0
  -24.5551  -11.6672   20.8015 C   0  0  0  0  0  0  0  0  0  0  0  0
  -25.2324  -13.7424   20.5372 C   0  0  0  0  0  0  0  0  0  0  0  0
  -34.5427  -13.9322   25.8242 C   0  0  0  0  0  0  0  0  0  0  0  0
  -22.7764  -13.5194   20.9458 C   0  0  0  0  0  0  0  0  0  0  0  0
  -28.1719  -20.8180   28.2962 C   0  0  0  0  0  0  0  0  0  0  0  0
  -27.8244  -20.2752   25.1170 C   0  0  0  0  0  0  0  0  0  0  0  0
  -28.7329  -18.4643   22.3708 C   0  0  0  0  0  0  0  0  0  0  0  0
  -31.0380  -12.7820   21.5754 C   0  0  0  0  0  0  0  0  0  0  0  0
  -27.0810  -24.5611   31.5911 C   0  0  0  0  0  0  0  0  0  0  0  0
  -30.5674  -20.8696   27.5120 C   0  0  0  0  0  0  0  0  0  0  0  0
  -29.1065  -18.5397   26.4247 C   0  0  0  0  0  0  0  0  0  0  0  0
  -26.5286  -24.0947   30.2466 C   0  0  0  0  0  0  0  0  0  0  0  0
  -29.5223  -13.4641   18.4267 C   0  0  0  0  0  0  0  0  0  0  0  0
  -26.2820  -22.5895   30.2640 C   0  0  0  0  0  0  0  0  0  0  0  0
  -28.0344  -13.2078   18.6775 C   0  0  0  0  0  0  0  0  0  0  0  0
  -30.4042  -12.4789   19.1918 C   0  0  0  0  0  0  0  0  0  0  0  0
  -28.6462  -12.1371   20.8834 C   0  0  0  0  0  0  0  0  0  0  0  0
  -27.5873  -21.8193   30.4976 C   0  0  1  0  0  0  0  0  0  0  0  0
  -29.0958  -20.9563   27.1193 C   0  0  1  0  0  0  0  0  0  0  0  0
  -27.7195  -13.1456   20.1850 C   0  0  2  0  0  0  0  0  0  0  0  0
  -28.2491  -18.2258   19.9200 C   0  0  0  0  0  0  0  0  0  0  0  0
  -25.2132  -18.8403   25.7746 C   0  0  0  0  0  0  0  0  0  0  0  0
  -25.2733  -17.8293   23.4849 C   0  0  0  0  0  0  0  0  0  0  0  0
  -25.1174  -20.3048   23.7497 C   0  0  0  0  0  0  0  0  0  0  0  0
  -29.3628  -13.5291   27.9795 C   0  0  0  0  0  0  0  0  0  0  0  0
  -31.5223  -19.1275   21.6372 C   0  0  0  0  0  0  0  0  0  0  0  0
  -34.1265  -14.0432   28.3837 C   0  0  0  0  0  0  0  0  0  0  0  0
  -33.7209  -15.4232   28.8699 C   0  0  0  0  0  0  0  0  0  1  0  0
  -27.2963  -19.1365   24.2783 C   0  0  1  0  0  0  0  0  0  0  0  0
  -29.1275  -18.8907   20.9683 C   0  0  2  0  0  0  0  0  0  0  0  0
  -25.7468  -19.0241   24.3399 C   0  0  0  0  0  0  0  0  0  0  0  0
  -25.8714  -11.5662   20.5990 N   0  0  0  0  0  0  0  0  0  0  0  0
  -26.2547  -12.8447   20.4414 N   0  0  0  0  0  0  0  0  0  0  0  0
  -33.8436  -13.8647   26.9843 N   0  0  0  0  0  0  0  0  0  0  0  0
  -28.7082  -19.9301   26.1493 N   0  0  0  0  0  0  0  0  0  0  0  0
  -30.0519  -12.4772   20.6134 N   0  0  0  0  0  0  0  0  0  0  0  0
  -25.4421  -15.0693   20.4040 N   0  0  0  0  0  0  0  0  0  0  0  0
  -21.7301  -12.6170   21.1807 N   0  0  0  0  0  0  0  0  0  0  0  0
  -30.5785  -12.7814   22.8921 N   0  0  0  0  0  0  0  0  0  0  0  0
  -30.7510  -13.2131   27.7701 N   0  0  0  0  0  0  0  0  0  0  0  0
  -28.3685  -21.7677   29.2805 N   0  0  0  0  0  0  0  0  0  0  0  0
  -27.8279  -19.3384   22.9348 N   0  0  0  0  0  0  0  0  0  0  0  0
  -30.5456  -18.5232   20.6949 N   0  3  0  0  0  0  0  0  0  0  0  0
  -35.6640  -14.1614   25.4628 O   0  0  0  0  0  0  0  0  0  0  0  0
  -22.5251  -14.7464   20.8766 O   0  0  0  0  0  0  0  0  0  0  0  0
  -27.3411  -19.9173   28.3095 O   0  0  0  0  0  0  0  0  0  0  0  0
  -27.4715  -21.4291   24.8610 O   0  0  0  0  0  0  0  0  0  0  0  0
  -29.1798  -17.4545   22.9104 O   0  0  0  0  0  0  0  0  0  0  0  0
  -32.1977  -13.0522   21.2530 O   0  0  0  0  0  0  0  0  0  0  0  0
  -21.4835   -7.0706   21.6403 O   0  0  0  0  0  0  0  0  0  0  0  0
  -32.3213  -15.6069   28.6610 O   0  0  0  0  0  0  0  0  0  1  0  0
  -23.4559   -3.2693   25.1136 F   0  0  0  0  0  0  0  0  0  0  0  0
  -20.0702   -6.3481   23.9038 F   0  0  0  0  0  0  0  0  0  0  0  0
  1  2  1  0  0  0  0
  1  5  2  0  0  0  0
  2  6  2  0  0  0  0
  3  8  2  0  0  0  0
  3 17  1  0  0  0  0
  4  9  1  0  0  0  0
  4 17  2  0  0  0  0
  5 20  1  0  0  0  0
  6 22  1  0  0  0  0
  7 10  2  0  0  0  0
  7 21  1  0  0  0  0
  8 27  1  0  0  0  0
  9 27  2  0  0  0  0
 10 28  1  0  0  0  0
 11 12  2  0  0  0  0
 11 29  1  0  0  0  0
 12 30  1  0  0  0  0
 13 18  2  0  0  0  0
 13 25  1  0  0  0  0
 14 23  1  0  0  0  0
 14 28  2  0  0  0  0
 15 25  2  0  0  0  0
 15 26  1  0  0  0  0
 16 30  2  0  0  0  0
 16 31  1  0  0  0  0
 17 32  1  0  0  0  0
 18 24  1  0  0  0  0
 18 34  1  0  0  0  0
 19 32  1  0  0  0  0
 19 33  2  0  0  0  0
 19 35  1  0  0  0  0
 20 22  2  0  0  0  0
 20 40  1  0  0  0  0
 21 23  2  0  0  0  0
 21 41  1  0  0  0  0
 22 49  1  0  0  0  0
 23 42  1  0  0  0  0
 24 26  2  0  0  0  0
 24 65  1  0  0  0  0
 25 70  1  0  0  0  0
 26 71  1  0  0  0  0
 27 81  1  0  0  0  0
 28 82  1  0  0  0  0
 29 31  2  0  0  0  0
 29 81  1  0  0  0  0
 30 83  1  0  0  0  0
 31 84  1  0  0  0  0
 32 63  2  0  0  0  0
 33 64  1  0  0  0  0
 33 68  1  0  0  0  0
 34 65  1  0  0  0  0
 34 75  2  0  0  0  0
 35 69  1  0  0  0  0
 35 76  2  0  0  0  0
 36 50  1  0  0  0  0
 36 72  1  0  0  0  0
 36 77  2  0  0  0  0
 37 60  1  0  0  0  0
 37 66  1  0  0  0  0
 37 78  2  0  0  0  0
 38 61  1  0  0  0  0
 38 73  1  0  0  0  0
 38 79  2  0  0  0  0
 39 67  1  0  0  0  0
 39 70  1  0  0  0  0
 39 80  2  0  0  0  0
 40 43  1  0  0  0  0
 41 50  1  0  0  0  0
 42 66  1  0  0  0  0
 43 45  1  0  0  0  0
 44 46  1  0  0  0  0
 44 47  1  0  0  0  0
 45 49  1  0  0  0  0
 46 51  1  0  0  0  0
 47 67  1  0  0  0  0
 48 51  1  0  0  0  0
 48 67  1  0  0  0  0
 49 72  1  0  0  0  0
 50 66  1  0  0  0  0
 51 64  1  0  0  0  0
 52 61  1  0  0  0  0
 53 62  1  0  0  0  0
 54 62  1  0  0  0  0
 55 62  1  0  0  0  0
 56 71  1  0  0  0  0
 57 74  1  0  0  0  0
 58 59  1  0  0  0  0
 58 65  1  0  0  0  0
 59 82  1  0  0  0  0
 60 62  1  0  0  0  0
 60 73  1  0  0  0  0
 61 74  1  0  0  0  0
 63 64  1  0  0  0  0
M  CHG  1  74   1
M  ISO  4  39 100  59 101  70 100  82 101
M  END
> <Batch ID>
0152

> <Smiles>
CNc1cc([100NH:0][100C:0](=O)N2CCCC(n3nc(-c4ccc(Oc5ccc(F)cc5F)cc4)c(C(N)=O)c3N)C2)cc2c1N(C[101CH2:1][101O:1]c1ccc3c(c1)CN(C(=O)C(NC(=O)C(C)NC)C(C)(C)C)C(C(=O)NC1CCCc4ccccc41)C3)C2=O

> <Shape>
0.164

> <Color>
0.178

> <Negative vol penalty>
0.000

$$$$

  -OEChem-04052303273D

 88 97  0     1  0  0  0  0  0999 V2000
  -18.1488  -26.1229   23.8496 C   0  0  0  0  0  0  0  0  0  0  0  0
  -18.7768  -26.0919   22.6087 C   0  0  0  0  0  0  0  0  0  0  0  0
  -25.1195  -12.4174   19.1513 C   0  0  0  0  0  0  0  0  0  0  0  0
  -26.3079  -12.2297   21.2465 C   0  0  0  0  0  0  0  0  0  0  0  0
  -18.0292  -27.3288   24.5392 C   0  0  0  0  0  0  0  0  0  0  0  0
  -19.2846  -27.2671   22.0559 C   0  0  0  0  0  0  0  0  0  0  0  0
  -25.9902  -27.3280   21.5672 C   0  0  0  0  0  0  0  0  0  0  0  0
  -24.0818  -11.6433   19.6705 C   0  0  0  0  0  0  0  0  0  0  0  0
  -25.2701  -11.4557   21.7657 C   0  0  0  0  0  0  0  0  0  0  0  0
  -27.2296  -27.0342   20.9982 C   0  0  0  0  0  0  0  0  0  0  0  0
  -21.4348  -12.0834   21.7279 C   0  0  0  0  0  0  0  0  0  0  0  0
  -20.1281  -12.5159   21.5025 C   0  0  0  0  0  0  0  0  0  0  0  0
  -26.8881  -28.7588   19.3378 C   0  0  0  0  0  0  0  0  0  0  0  0
  -25.9618  -23.2970   17.1292 C   0  0  0  0  0  0  0  0  0  0  0  0
  -27.5728  -22.3630   18.6684 C   0  0  0  0  0  0  0  0  0  0  0  0
  -25.9826  -20.9200   17.5611 C   0  0  0  0  0  0  0  0  0  0  0  0
  -19.6457  -10.4533   20.3406 C   0  0  0  0  0  0  0  0  0  0  0  0
  -26.2326  -12.7105   19.9392 C   0  0  0  0  0  0  0  0  0  0  0  0
  -28.1015  -13.2195   18.2793 C   0  0  0  0  0  0  0  0  0  0  0  0
  -18.5444  -28.5177   23.9990 C   0  0  0  0  0  0  0  0  0  0  0  0
  -25.2009  -28.3500   21.0324 C   0  0  0  0  0  0  0  0  0  0  0  0
  -19.1706  -28.4903   22.7383 C   0  0  0  0  0  0  0  0  0  0  0  0
  -25.6513  -29.0660   19.9111 C   0  0  0  0  0  0  0  0  0  0  0  0
  -27.0288  -23.4667   18.0114 C   0  0  0  0  0  0  0  0  0  0  0  0
  -25.4386  -22.0237   16.9041 C   0  0  0  0  0  0  0  0  0  0  0  0
  -27.0497  -21.0897   18.4433 C   0  0  0  0  0  0  0  0  0  0  0  0
  -24.1571  -11.1625   20.9777 C   0  0  0  0  0  0  0  0  0  0  0  0
  -27.6773  -27.7476   19.8861 C   0  0  0  0  0  0  0  0  0  0  0  0
  -21.8471  -10.8358   21.2596 C   0  0  0  0  0  0  0  0  0  0  0  0
  -19.2335  -11.7009   20.8089 C   0  0  0  0  0  0  0  0  0  0  0  0
  -20.9525  -10.0208   20.5660 C   0  0  0  0  0  0  0  0  0  0  0  0
  -27.3051  -13.5096   19.4033 C   0  0  0  0  0  0  0  0  0  0  0  0
  -28.9677  -14.2816   18.1888 C   0  0  0  0  0  0  0  0  0  0  0  0
  -29.9475  -26.3518   16.9712 C   0  0  0  0  0  0  0  0  0  0  0  0
  -28.1555  -25.1285   19.4841 C   0  0  0  0  0  0  0  0  0  0  0  0
  -28.0619  -12.0909   17.3959 C   0  0  0  0  0  0  0  0  0  0  0  0
  -22.0130  -30.3169   21.2425 C   0  0  0  0  0  0  0  0  0  0  0  0
  -24.2453  -32.3080   20.5626 C   0  0  0  0  0  0  0  0  0  0  0  0
  -27.0449  -34.2299   20.2363 C   0  0  0  0  0  0  0  0  0  0  0  0
  -28.6645  -19.9631   20.0148 C   0  0  0  0  0  0  0  0  0  0  0  0
  -18.3493  -29.8051   24.7600 C   0  0  0  0  0  0  0  0  0  0  0  0
  -23.8322  -28.6596   21.5751 C   0  0  0  0  0  0  0  0  0  0  0  0
  -24.7533  -30.1336   19.3484 C   0  0  0  0  0  0  0  0  0  0  0  0
  -28.7402  -25.7608   16.2823 C   0  0  0  0  0  0  0  0  0  0  0  0
  -30.3395  -25.7913   18.3240 C   0  0  0  0  0  0  0  0  0  0  0  0
  -19.2462  -30.9412   24.2751 C   0  0  0  0  0  0  0  0  0  0  0  0
  -31.1523  -17.5732   20.8957 C   0  0  0  0  0  0  0  0  0  0  0  0
  -19.2209  -31.0286   22.7525 C   0  0  0  0  0  0  0  0  0  0  0  0
  -30.5230  -16.2340   20.5050 C   0  0  0  0  0  0  0  0  0  0  0  0
  -27.5137  -25.8003   17.1768 C   0  0  0  0  0  0  0  0  0  0  0  0
  -30.1147  -18.5466   21.4520 C   0  0  0  0  0  0  0  0  0  0  0  0
  -28.3130  -17.4222   20.2035 C   0  0  0  0  0  0  0  0  0  0  0  0
  -19.7562  -29.7397   22.1170 C   0  0  1  0  0  0  0  0  0  0  0  0
  -23.4810  -30.1567   21.5083 C   0  0  1  0  0  0  0  0  0  0  0  0
  -29.3081  -16.4315   19.5774 C   0  0  2  0  0  0  0  0  0  0  0  0
  -29.3456  -26.1208   19.4507 C   0  0  2  0  0  0  0  0  0  1  0  0
  -30.1036  -26.0297   20.7898 C   0  0  0  0  0  0  0  0  0  0  0  0
  -27.7766  -36.6159   19.9745 C   0  0  0  0  0  0  0  0  0  0  0  0
  -23.3778  -32.2495   17.6389 C   0  0  0  0  0  0  0  0  0  0  0  0
  -24.9298  -34.1675   17.2137 C   0  0  0  0  0  0  0  0  0  0  0  0
  -23.0165  -34.4396   18.7910 C   0  0  0  0  0  0  0  0  0  0  0  0
  -28.5866  -34.1557   22.7614 C   0  0  0  0  0  0  0  0  0  0  0  0
  -25.0036  -33.0380   19.4830 C   0  0  1  0  0  0  0  0  0  0  0  0
  -27.4916  -35.4897   20.9558 C   0  0  2  0  0  0  0  0  0  0  0  0
  -24.0916  -33.4494   18.2929 C   0  0  0  0  0  0  0  0  0  0  0  0
  -27.6360  -14.6654   19.9852 N   0  0  0  0  0  0  0  0  0  0  0  0
  -28.6500  -15.1109   19.2240 N   0  0  0  0  0  0  0  0  0  0  0  0
  -27.5753  -24.7928   18.2455 N   0  0  0  0  0  0  0  0  0  0  0  0
  -24.1564  -30.9159   20.4422 N   0  0  0  0  0  0  0  0  0  0  0  0
  -28.9954  -18.6871   20.5180 N   0  0  0  0  0  0  0  0  0  0  0  0
  -24.3597  -21.8515   16.0122 N   0  0  0  0  0  0  0  0  0  0  0  0
  -29.9624  -14.5778   17.3256 N   0  0  0  0  0  0  0  0  0  0  0  0
  -27.1096  -11.0902   17.6326 N   0  0  0  0  0  0  0  0  0  0  0  0
  -27.6036  -19.9686   19.1097 N   0  0  0  0  0  0  0  0  0  0  0  0
  -21.2017  -29.7074   22.1805 N   0  0  0  0  0  0  0  0  0  0  0  0
  -25.6714  -34.1572   20.1388 N   0  0  0  0  0  0  0  0  0  0  0  0
  -28.7304  -35.2259   21.7412 N   0  3  0  0  0  0  0  0  0  0  0  0
  -30.6253  -27.2230   16.4239 O   0  0  0  0  0  0  0  0  0  0  0  0
  -27.7657  -24.6739   20.5643 O   0  0  0  0  0  0  0  0  0  0  0  0
  -28.8586  -11.9653   16.4351 O   0  0  0  0  0  0  0  0  0  0  0  0
  -21.6422  -30.9481   20.2598 O   0  0  0  0  0  0  0  0  0  0  0  0
  -23.7397  -32.9526   21.4857 O   0  0  0  0  0  0  0  0  0  0  0  0
  -27.8354  -33.3956   19.8008 O   0  0  0  0  0  0  0  0  0  0  0  0
  -29.2946  -20.9725   20.3404 O   0  0  0  0  0  0  0  0  0  0  0  0
  -23.1445  -10.4074   21.4848 O   0  0  0  0  0  0  0  0  0  0  0  0
  -28.8902  -27.4586   19.3383 O   0  0  0  0  0  0  0  0  0  1  0  0
  -17.9782  -12.1158   20.5939 F   0  0  0  0  0  0  0  0  0  0  0  0
  -21.3424   -8.8207   20.1147 F   0  0  0  0  0  0  0  0  0  0  0  0
  1  2  1  0  0  0  0
  1  5  2  0  0  0  0
  2  6  2  0  0  0  0
  3  8  2  0  0  0  0
  3 18  1  0  0  0  0
  4  9  1  0  0  0  0
  4 18  2  0  0  0  0
  5 20  1  0  0  0  0
  6 22  1  0  0  0  0
  7 10  2  0  0  0  0
  7 21  1  0  0  0  0
  8 27  1  0  0  0  0
  9 27  2  0  0  0  0
 10 28  1  0  0  0  0
 11 12  2  0  0  0  0
 11 29  1  0  0  0  0
 12 30  1  0  0  0  0
 13 23  1  0  0  0  0
 13 28  2  0  0  0  0
 14 24  1  0  0  0  0
 14 25  2  0  0  0  0
 15 24  2  0  0  0  0
 15 26  1  0  0  0  0
 16 25  1  0  0  0  0
 16 26  2  0  0  0  0
 17 30  2  0  0  0  0
 17 31  1  0  0  0  0
 18 32  1  0  0  0  0
 19 32  1  0  0  0  0
 19 33  2  0  0  0  0
 19 36  1  0  0  0  0
 20 22  2  0  0  0  0
 20 41  1  0  0  0  0
 21 23  2  0  0  0  0
 21 42  1  0  0  0  0
 22 53  1  0  0  0  0
 23 43  1  0  0  0  0
 24 68  1  0  0  0  0
 25 71  1  0  0  0  0
 26 74  1  0  0  0  0
 27 85  1  0  0  0  0
 28 86  1  0  0  0  0
 29 31  2  0  0  0  0
 29 85  1  0  0  0  0
 30 87  1  0  0  0  0
 31 88  1  0  0  0  0
 32 66  2  0  0  0  0
 33 67  1  0  0  0  0
 33 72  1  0  0  0  0
 34 44  1  0  0  0  0
 34 45  1  0  0  0  0
 34 78  2  0  0  0  0
 35 56  1  0  0  0  0
 35 68  1  0  0  0  0
 35 79  2  0  0  0  0
 36 73  1  0  0  0  0
 36 80  2  0  0  0  0
 37 54  1  0  0  0  0
 37 75  1  0  0  0  0
 37 81  2  0  0  0  0
 38 63  1  0  0  0  0
 38 69  1  0  0  0  0
 38 82  2  0  0  0  0
 39 64  1  0  0  0  0
 39 76  1  0  0  0  0
 39 83  2  0  0  0  0
 40 70  1  0  0  0  0
 40 74  1  0  0  0  0
 40 84  2  0  0  0  0
 41 46  1  0  0  0  0
 42 54  1  0  0  0  0
 43 69  1  0  0  0  0
 44 50  1  0  0  0  0
 45 56  1  0  0  0  0
 46 48  1  0  0  0  0
 47 49  1  0  0  0  0
 47 51  1  0  0  0  0
 48 53  1  0  0  0  0
 49 55  1  0  0  0  0
 50 68  1  0  0  0  0
 51 70  1  0  0  0  0
 52 55  1  0  0  0  0
 52 70  1  0  0  0  0
 53 75  1  0  0  0  0
 54 69  1  0  0  0  0
 55 67  1  0  0  0  0
 56 57  1  0  0  0  0
 56 86  1  0  0  0  0
 58 64  1  0  0  0  0
 59 65  1  0  0  0  0
 60 65  1  0  0  0  0
 61 65  1  0  0  0  0
 62 77  1  0  0  0  0
 63 65  1  0  0  0  0
 63 76  1  0  0  0  0
 64 77  1  0  0  0  0
 66 67  1  0  0  0  0
M  CHG  1  77   1
M  ISO  4  40 100  56 101  74 100  86 101
M  END
> <Batch ID>
0152

> <Smiles>
CNC(C)C(=O)NC(C(=O)N1Cc2cc([101O:1][101C:1]3(C)CC(=O)CCN(c4cc(N)cc([100NH:0][100C:0](=O)N5CCCC(n6nc(-c7ccc(Oc8ccc(F)cc8F)cc7)c(C(N)=O)c6N)C5)c4)C3=O)ccc2CC1C(=O)NC1CCCc2ccccc21)C(C)(C)C

> <Shape>
0.273

> <Color>
0.078

> <Negative vol penalty>
0.000

$$$$

  -OEChem-04052303273D

 85 94  0     1  0  0  0  0  0999 V2000
  -28.2604  -27.8898   19.2816 C   0  0  0  0  0  0  0  0  0  0  0  0
  -27.0788  -27.1724   19.4301 C   0  0  0  0  0  0  0  0  0  0  0  0
  -33.0286  -12.3975   26.0948 C   0  0  0  0  0  0  0  0  0  0  0  0
  -33.5895  -12.3140   24.8205 C   0  0  0  0  0  0  0  0  0  0  0  0
  -22.8358  -10.0825   20.2964 C   0  0  0  0  0  0  0  0  0  0  0  0
  -24.2286   -9.6984   22.2329 C   0  0  0  0  0  0  0  0  0  0  0  0
  -29.4552  -27.3666   19.7714 C   0  0  0  0  0  0  0  0  0  0  0  0
  -27.0895  -25.9372   20.0789 C   0  0  0  0  0  0  0  0  0  0  0  0
  -24.1778  -19.1490   23.0227 C   0  0  0  0  0  0  0  0  0  0  0  0
  -31.6780  -12.7134   26.2430 C   0  0  0  0  0  0  0  0  0  0  0  0
  -32.8000  -12.5465   23.6943 C   0  0  0  0  0  0  0  0  0  0  0  0
  -22.1183   -8.9210   20.5821 C   0  0  0  0  0  0  0  0  0  0  0  0
  -23.5110   -8.5369   22.5186 C   0  0  0  0  0  0  0  0  0  0  0  0
  -24.5438  -17.8712   23.4433 C   0  0  0  0  0  0  0  0  0  0  0  0
  -20.5504   -7.7241   23.9308 C   0  0  0  0  0  0  0  0  0  0  0  0
  -20.1659   -7.5107   25.2545 C   0  0  0  0  0  0  0  0  0  0  0  0
  -26.1156  -18.8392   24.9962 C   0  0  0  0  0  0  0  0  0  0  0  0
  -21.4296   -5.4518   25.2896 C   0  0  0  0  0  0  0  0  0  0  0  0
  -23.8910  -10.4712   21.1218 C   0  0  0  0  0  0  0  0  0  0  0  0
  -24.1306  -12.9834   20.7488 C   0  0  0  0  0  0  0  0  0  0  0  0
  -29.4818  -26.1186   20.4154 C   0  0  0  0  0  0  0  0  0  0  0  0
  -24.7868  -20.2832   23.5789 C   0  0  0  0  0  0  0  0  0  0  0  0
  -28.2814  -25.4032   20.6014 C   0  0  0  0  0  0  0  0  0  0  0  0
  -25.7537  -20.1304   24.5827 C   0  0  0  0  0  0  0  0  0  0  0  0
  -30.8885  -12.9460   25.1169 C   0  0  0  0  0  0  0  0  0  0  0  0
  -31.4495  -12.8625   23.8425 C   0  0  0  0  0  0  0  0  0  0  0  0
  -22.4558   -8.1482   21.6932 C   0  0  0  0  0  0  0  0  0  0  0  0
  -25.5149  -17.7160   24.4282 C   0  0  0  0  0  0  0  0  0  0  0  0
  -21.3743   -6.8012   23.2864 C   0  0  0  0  0  0  0  0  0  0  0  0
  -20.6056   -6.3746   25.9339 C   0  0  0  0  0  0  0  0  0  0  0  0
  -21.8140   -5.6651   23.9658 C   0  0  0  0  0  0  0  0  0  0  0  0
  -24.6329  -11.6706   20.8269 C   0  0  0  0  0  0  0  0  0  0  0  0
  -25.2267  -13.7530   20.4443 C   0  0  0  0  0  0  0  0  0  0  0  0
  -22.7928  -13.4642   20.9350 C   0  0  0  0  0  0  0  0  0  0  0  0
  -26.5699  -22.6565   22.4424 C   0  0  0  0  0  0  0  0  0  0  0  0
  -26.2433  -23.8228   25.4517 C   0  0  0  0  0  0  0  0  0  0  0  0
  -26.3083  -22.5028   28.8089 C   0  0  0  0  0  0  0  0  0  0  0  0
  -31.0899  -13.0481   21.3560 C   0  0  0  0  0  0  0  0  0  0  0  0
  -30.8014  -25.6033   20.9333 C   0  0  0  0  0  0  0  0  0  0  0  0
  -24.3616  -21.6554   23.1332 C   0  0  0  0  0  0  0  0  0  0  0  0
  -26.4231  -21.3163   25.2261 C   0  0  0  0  0  0  0  0  0  0  0  0
  -30.7880  -24.1026   21.2057 C   0  0  0  0  0  0  0  0  0  0  0  0
  -29.4638  -13.5228   18.2243 C   0  0  0  0  0  0  0  0  0  0  0  0
  -27.2344  -12.4320   25.5658 C   0  0  0  0  0  0  0  0  0  0  0  0
  -29.5690  -23.7365   22.0391 C   0  0  0  0  0  0  0  0  0  0  0  0
  -27.9938  -13.2271   18.5306 C   0  0  0  0  0  0  0  0  0  0  0  0
  -26.7525  -13.8666   25.7572 C   0  0  0  0  0  0  0  0  0  0  0  0
  -28.6947  -12.2726   25.9757 C   0  0  0  0  0  0  0  0  0  0  0  0
  -30.4019  -12.6075   19.0092 C   0  0  0  0  0  0  0  0  0  0  0  0
  -28.7049  -12.2869   20.7661 C   0  0  0  0  0  0  0  0  0  0  0  0
  -29.1328  -14.6709   25.4071 C   0  0  0  0  0  0  0  0  0  0  0  0
  -28.2739  -24.0436   21.2766 C   0  0  1  0  0  0  0  0  0  0  0  0
  -25.4161  -22.7245   23.4025 C   0  0  1  0  0  0  0  0  0  0  0  0
  -27.7232  -13.2272   20.0479 C   0  0  2  0  0  0  0  0  0  0  0  0
  -27.6571  -14.8596   25.0175 C   0  0  2  0  0  0  0  0  0  0  0  0
  -25.2084  -23.3281   30.9080 C   0  0  0  0  0  0  0  0  0  0  0  0
  -28.8953  -25.2525   25.9341 C   0  0  0  0  0  0  0  0  0  0  0  0
  -28.6634  -24.7131   28.3680 C   0  0  0  0  0  0  0  0  0  0  0  0
  -26.9681  -26.1584   27.2456 C   0  0  0  0  0  0  0  0  0  0  0  0
  -24.9758  -19.9011   29.2717 C   0  0  0  0  0  0  0  0  0  0  0  0
  -27.2158  -16.2985   25.2962 C   0  0  0  0  0  0  0  0  0  1  0  0
  -27.0130  -23.6811   26.7426 C   0  0  1  0  0  0  0  0  0  0  0  0
  -25.1255  -22.3485   29.7478 C   0  0  2  0  0  0  0  0  0  0  0  0
  -27.8847  -24.9306   27.0531 C   0  0  0  0  0  0  0  0  0  0  0  0
  -25.9460  -11.6061   20.5908 N   0  0  0  0  0  0  0  0  0  0  0  0
  -26.2780  -12.8880   20.3613 N   0  0  0  0  0  0  0  0  0  0  0  0
  -29.5349  -13.2616   25.2894 N   0  0  1  0  0  0  0  0  0  0  0  0
  -25.9778  -22.6371   24.7520 N   0  0  0  0  0  0  0  0  0  0  0  0
  -30.0894  -12.6625   20.4389 N   0  0  0  0  0  0  0  0  0  0  0  0
  -25.3843  -15.0784   20.2420 N   0  0  0  0  0  0  0  0  0  0  0  0
  -21.7868  -12.5383   21.2433 N   0  0  0  0  0  0  0  0  0  0  0  0
  -30.6674  -13.0955   22.6841 N   0  0  0  0  0  0  0  0  0  0  0  0
  -27.1494  -23.8814   22.1716 N   0  0  0  0  0  0  0  0  0  0  0  0
  -26.0284  -23.3684   27.7727 N   0  0  0  0  0  0  0  0  0  0  0  0
  -25.0812  -20.9659   30.3023 N   0  3  0  0  0  0  0  0  0  0  0  0
  -22.4951  -14.6769   20.8150 O   0  0  0  0  0  0  0  0  0  0  0  0
  -26.9102  -21.5728   21.9826 O   0  0  0  0  0  0  0  0  0  0  0  0
  -25.8844  -24.9434   25.0815 O   0  0  0  0  0  0  0  0  0  0  0  0
  -27.3753  -21.9172   28.9798 O   0  0  0  0  0  0  0  0  0  0  0  0
  -32.2297  -13.3427   20.9871 O   0  0  0  0  0  0  0  0  0  0  0  0
  -27.5466  -14.6400   23.6071 O   0  0  0  0  0  0  0  0  0  0  0  0
  -21.7557   -7.0149   21.9724 O   0  0  0  0  0  0  0  0  0  0  0  0
  -25.8745  -16.4699   24.8401 O   0  0  0  0  0  0  0  0  0  1  0  0
  -20.2376   -6.1707   27.2056 F   0  0  0  0  0  0  0  0  0  0  0  0
  -22.6067   -4.7757   23.3525 F   0  0  0  0  0  0  0  0  0  0  0  0
  1  2  1  0  0  0  0
  1  7  2  0  0  0  0
  2  8  2  0  0  0  0
  3  4  1  0  0  0  0
  3 10  2  0  0  0  0
  4 11  2  0  0  0  0
  5 12  2  0  0  0  0
  5 19  1  0  0  0  0
  6 13  1  0  0  0  0
  6 19  2  0  0  0  0
  7 21  1  0  0  0  0
  8 23  1  0  0  0  0
  9 14  2  0  0  0  0
  9 22  1  0  0  0  0
 10 25  1  0  0  0  0
 11 26  1  0  0  0  0
 12 27  1  0  0  0  0
 13 27  2  0  0  0  0
 14 28  1  0  0  0  0
 15 16  2  0  0  0  0
 15 29  1  0  0  0  0
 16 30  1  0  0  0  0
 17 24  1  0  0  0  0
 17 28  2  0  0  0  0
 18 30  2  0  0  0  0
 18 31  1  0  0  0  0
 19 32  1  0  0  0  0
 20 32  1  0  0  0  0
 20 33  2  0  0  0  0
 20 34  1  0  0  0  0
 21 23  2  0  0  0  0
 21 39  1  0  0  0  0
 22 24  2  0  0  0  0
 22 40  1  0  0  0  0
 23 52  1  0  0  0  0
 24 41  1  0  0  0  0
 25 26  2  0  0  0  0
 25 67  1  0  0  0  0
 26 72  1  0  0  0  0
 27 82  1  0  0  0  0
 28 83  1  0  0  0  0
 29 31  2  0  0  0  0
 29 82  1  0  0  0  0
 30 84  1  0  0  0  0
 31 85  1  0  0  0  0
 32 65  2  0  0  0  0
 33 66  1  0  0  0  0
 33 70  1  0  0  0  0
 34 71  1  0  0  0  0
 34 76  2  0  0  0  0
 35 53  1  0  0  0  0
 35 73  1  0  0  0  0
 35 77  2  0  0  0  0
 36 62  1  0  0  0  0
 36 68  1  0  0  0  0
 36 78  2  0  0  0  0
 37 63  1  0  0  0  0
 37 74  1  0  0  0  0
 37 79  2  0  0  0  0
 38 69  1  0  0  0  0
 38 72  1  0  0  0  0
 38 80  2  0  0  0  0
 39 42  1  0  0  0  0
 40 53  1  0  0  0  0
 41 68  1  0  0  0  0
 42 45  1  0  0  0  0
 43 46  1  0  0  0  0
 43 49  1  0  0  0  0
 44 47  1  0  0  0  0
 44 48  1  0  0  0  0
 45 52  1  0  0  0  0
 46 54  1  0  0  0  0
 47 55  1  0  0  0  0
 48 67  1  0  0  0  0
 49 69  1  0  0  0  0
 50 54  1  0  0  0  0
 50 69  1  0  0  0  0
 51 55  1  0  0  0  0
 51 67  1  0  0  0  0
 52 73  1  0  0  0  0
 53 68  1  0  0  0  0
 54 66  1  0  0  0  0
 55 61  1  0  0  0  0
 55 81  1  0  0  0  0
 56 63  1  0  0  0  0
 57 64  1  0  0  0  0
 58 64  1  0  0  0  0
 59 64  1  0  0  0  0
 60 75  1  0  0  0  0
 61 83  1  0  0  0  0
 62 64  1  0  0  0  0
 62 74  1  0  0  0  0
 63 75  1  0  0  0  0
 65 66  1  0  0  0  0
M  CHG  1  75   1
M  ISO  4  38 100  61 101  72 100  83 101
M  END
> <Batch ID>
0152

> <Smiles>
CNC(C)C(=O)NC(C(=O)N1Cc2cc([101O:1][101CH2:1]C3(O)CCCN(c4ccccc4[100NH:0][100C:0](=O)N4CCCC(n5nc(-c6ccc(Oc7ccc(F)cc7F)cc6)c(C(N)=O)c5N)C4)C3)ccc2CC1C(=O)NC1CCCc2ccccc21)C(C)(C)C

> <Shape>
0.189

> <Color>
0.166

> <Negative vol penalty>
0.000

$$$$

  -OEChem-04052303273D

 83 92  0     1  0  0  0  0  0999 V2000
  -32.0456  -31.6144   21.4443 C   0  0  0  0  0  0  0  0  0  0  0  0
  -31.7872  -30.2492   21.3752 C   0  0  0  0  0  0  0  0  0  0  0  0
  -32.3919  -17.7591   23.4791 C   0  0  0  0  0  0  0  0  0  0  0  0
  -23.1525   -9.7430   19.9368 C   0  0  0  0  0  0  0  0  0  0  0  0
  -23.8319   -9.8559   22.2525 C   0  0  0  0  0  0  0  0  0  0  0  0
  -31.3305  -32.4138   22.3351 C   0  0  0  0  0  0  0  0  0  0  0  0
  -30.8142  -29.6823   22.1976 C   0  0  0  0  0  0  0  0  0  0  0  0
  -31.5455  -18.6302   24.1649 C   0  0  0  0  0  0  0  0  0  0  0  0
  -27.0856  -25.0240   20.8179 C   0  0  0  0  0  0  0  0  0  0  0  0
  -31.8599  -16.8256   22.5896 C   0  0  0  0  0  0  0  0  0  0  0  0
  -22.4315   -8.5795   20.2049 C   0  0  0  0  0  0  0  0  0  0  0  0
  -23.1109   -8.6923   22.5207 C   0  0  0  0  0  0  0  0  0  0  0  0
  -27.1400  -23.6614   21.1079 C   0  0  0  0  0  0  0  0  0  0  0  0
  -19.8863   -7.8270   23.0440 C   0  0  0  0  0  0  0  0  0  0  0  0
  -19.0905   -7.8090   24.1894 C   0  0  0  0  0  0  0  0  0  0  0  0
  -29.6349  -17.6342   23.0719 C   0  0  0  0  0  0  0  0  0  0  0  0
  -25.6978  -24.0146   23.0091 C   0  0  0  0  0  0  0  0  0  0  0  0
  -20.3571   -5.9357   25.0399 C   0  0  0  0  0  0  0  0  0  0  0  0
  -23.8527  -10.3812   20.9605 C   0  0  0  0  0  0  0  0  0  0  0  0
  -24.1307  -12.9089   20.7567 C   0  0  0  0  0  0  0  0  0  0  0  0
  -30.1670  -18.5677   23.9613 C   0  0  0  0  0  0  0  0  0  0  0  0
  -30.3415  -31.8581   23.1621 C   0  0  0  0  0  0  0  0  0  0  0  0
  -26.3444  -25.8953   21.6290 C   0  0  0  0  0  0  0  0  0  0  0  0
  -30.0862  -30.4748   23.1013 C   0  0  0  0  0  0  0  0  0  0  0  0
  -25.6335  -25.3874   22.7257 C   0  0  0  0  0  0  0  0  0  0  0  0
  -30.4814  -16.7631   22.3860 C   0  0  0  0  0  0  0  0  0  0  0  0
  -22.4107   -8.0541   21.4969 C   0  0  0  0  0  0  0  0  0  0  0  0
  -26.4484  -23.1570   22.2053 C   0  0  0  0  0  0  0  0  0  0  0  0
  -20.9175   -6.8992   22.8965 C   0  0  0  0  0  0  0  0  0  0  0  0
  -19.3259   -6.8634   25.1874 C   0  0  0  0  0  0  0  0  0  0  0  0
  -21.1529   -5.9536   23.8945 C   0  0  0  0  0  0  0  0  0  0  0  0
  -24.5981  -11.5829   20.6840 C   0  0  0  0  0  0  0  0  0  0  0  0
  -25.2143  -13.6748   20.4023 C   0  0  0  0  0  0  0  0  0  0  0  0
  -22.8331  -13.4039   21.1128 C   0  0  0  0  0  0  0  0  0  0  0  0
  -27.0431  -28.4076   23.4467 C   0  0  0  0  0  0  0  0  0  0  0  0
  -23.8187  -28.5954   23.7476 C   0  0  0  0  0  0  0  0  0  0  0  0
  -20.8008  -27.0062   23.6325 C   0  0  0  0  0  0  0  0  0  0  0  0
  -30.6412  -14.8791   20.7213 C   0  0  0  0  0  0  0  0  0  0  0  0
  -29.6276  -32.7543   24.1428 C   0  0  0  0  0  0  0  0  0  0  0  0
  -26.2742  -27.3584   21.2871 C   0  0  0  0  0  0  0  0  0  0  0  0
  -24.8068  -26.2777   23.6160 C   0  0  0  0  0  0  0  0  0  0  0  0
  -28.3521  -32.1393   24.7129 C   0  0  0  0  0  0  0  0  0  0  0  0
  -29.6747  -12.3493   18.4098 C   0  0  0  0  0  0  0  0  0  0  0  0
  -28.6025  -30.6992   25.1493 C   0  0  0  0  0  0  0  0  0  0  0  0
  -28.2293  -12.0334   18.8014 C   0  0  0  0  0  0  0  0  0  0  0  0
  -30.5411  -12.6478   19.6321 C   0  0  0  0  0  0  0  0  0  0  0  0
  -28.5687  -13.3689   20.9200 C   0  0  0  0  0  0  0  0  0  0  0  0
  -27.0843  -19.6811   25.5324 C   0  0  0  0  0  0  0  0  0  0  0  0
  -29.0212  -29.8271   23.9595 C   0  0  1  0  0  0  0  0  0  0  0  0
  -29.2527  -19.5093   24.7027 C   0  0  2  0  0  0  0  0  0  0  0  0
  -25.9054  -28.2339   22.4808 C   0  0  1  0  0  0  0  0  0  0  0  0
  -27.6423  -13.1251   19.7175 C   0  0  2  0  0  0  0  0  0  0  0  0
  -27.1423  -20.1634   24.0917 C   0  0  1  0  0  0  0  0  0  0  0  0
  -18.3464  -27.4131   23.9612 C   0  0  0  0  0  0  0  0  0  0  0  0
  -24.2263  -28.5964   26.7715 C   0  0  0  0  0  0  0  0  0  0  0  0
  -21.7971  -28.0477   27.0290 C   0  0  0  0  0  0  0  0  0  0  0  0
  -22.4826  -30.1915   25.9533 C   0  0  0  0  0  0  0  0  0  0  0  0
  -20.1856  -26.2705   20.8327 C   0  0  0  0  0  0  0  0  0  0  0  0
  -26.3786  -21.4526   23.8625 C   0  0  0  0  0  0  0  0  0  1  0  0
  -22.7984  -28.0190   24.6993 C   0  0  1  0  0  0  0  0  0  0  0  0
  -19.4913  -27.3785   22.9608 C   0  0  2  0  0  0  0  0  0  0  0  0
  -22.8432  -28.6969   26.0978 C   0  0  0  0  0  0  0  0  0  0  0  0
  -25.8788  -11.5073   20.3125 N   0  0  0  0  0  0  0  0  0  0  0  0
  -26.2254  -12.7953   20.1484 N   0  0  0  0  0  0  0  0  0  0  0  0
  -24.7747  -27.7018   23.2441 N   0  0  0  0  0  0  0  0  0  0  0  0
  -29.9246  -13.6942   20.4505 N   0  0  0  0  0  0  0  0  0  0  0  0
  -25.3914  -15.0080   20.2861 N   0  0  0  0  0  0  0  0  0  0  0  0
  -21.8348  -12.4797   21.4499 N   0  0  0  0  0  0  0  0  0  0  0  0
  -29.9413  -15.8152   21.4819 N   0  0  0  0  0  0  0  0  0  0  0  0
  -27.8678  -29.4781   23.1581 N   0  0  0  0  0  0  0  0  0  0  0  0
  -21.5082  -28.1224   24.0262 N   0  0  0  0  0  0  0  0  0  0  0  0
  -28.2919  -18.8152   25.6192 N   0  3  0  0  0  0  0  0  0  0  0  0
  -19.1559  -26.3905   21.8967 N   0  3  0  0  0  0  0  0  0  0  0  0
  -22.5621  -14.6287   21.1155 O   0  0  0  0  0  0  0  0  0  0  0  0
  -27.1630  -27.6290   24.3854 O   0  0  0  0  0  0  0  0  0  0  0  0
  -23.7651  -29.7927   23.4559 O   0  0  0  0  0  0  0  0  0  0  0  0
  -21.1584  -25.8417   23.7954 O   0  0  0  0  0  0  0  0  0  0  0  0
  -31.7809  -15.0621   20.2859 O   0  0  0  0  0  0  0  0  0  0  0  0
  -28.5375  -20.3648   23.7926 O   0  0  0  0  0  0  0  0  0  0  0  0
  -21.7071   -6.9189   21.7591 O   0  0  0  0  0  0  0  0  0  0  0  0
  -26.5003  -21.8275   22.4910 O   0  0  0  0  0  0  0  0  0  1  0  0
  -18.5626   -6.8473   26.2880 F   0  0  0  0  0  0  0  0  0  0  0  0
  -22.1428   -5.0606   23.7590 F   0  0  0  0  0  0  0  0  0  0  0  0
  1  2  1  0  0  0  0
  1  6  2  0  0  0  0
  2  7  2  0  0  0  0
  3  8  2  0  0  0  0
  3 10  1  0  0  0  0
  4 11  2  0  0  0  0
  4 19  1  0  0  0  0
  5 12  1  0  0  0  0
  5 19  2  0  0  0  0
  6 22  1  0  0  0  0
  7 24  1  0  0  0  0
  8 21  1  0  0  0  0
  9 13  2  0  0  0  0
  9 23  1  0  0  0  0
 10 26  2  0  0  0  0
 11 27  1  0  0  0  0
 12 27  2  0  0  0  0
 13 28  1  0  0  0  0
 14 15  2  0  0  0  0
 14 29  1  0  0  0  0
 15 30  1  0  0  0  0
 16 21  2  0  0  0  0
 16 26  1  0  0  0  0
 17 25  1  0  0  0  0
 17 28  2  0  0  0  0
 18 30  2  0  0  0  0
 18 31  1  0  0  0  0
 19 32  1  0  0  0  0
 20 32  1  0  0  0  0
 20 33  2  0  0  0  0
 20 34  1  0  0  0  0
 21 50  1  0  0  0  0
 22 24  2  0  0  0  0
 22 39  1  0  0  0  0
 23 25  2  0  0  0  0
 23 40  1  0  0  0  0
 24 49  1  0  0  0  0
 25 41  1  0  0  0  0
 26 69  1  0  0  0  0
 27 80  1  0  0  0  0
 28 81  1  0  0  0  0
 29 31  2  0  0  0  0
 29 80  1  0  0  0  0
 30 82  1  0  0  0  0
 31 83  1  0  0  0  0
 32 63  2  0  0  0  0
 33 64  1  0  0  0  0
 33 67  1  0  0  0  0
 34 68  1  0  0  0  0
 34 74  2  0  0  0  0
 35 51  1  0  0  0  0
 35 70  1  0  0  0  0
 35 75  2  0  0  0  0
 36 60  1  0  0  0  0
 36 65  1  0  0  0  0
 36 76  2  0  0  0  0
 37 61  1  0  0  0  0
 37 71  1  0  0  0  0
 37 77  2  0  0  0  0
 38 66  1  0  0  0  0
 38 69  1  0  0  0  0
 38 78  2  0  0  0  0
 39 42  1  0  0  0  0
 40 51  1  0  0  0  0
 41 65  1  0  0  0  0
 42 44  1  0  0  0  0
 43 45  1  0  0  0  0
 43 46  1  0  0  0  0
 44 49  1  0  0  0  0
 45 52  1  0  0  0  0
 46 66  1  0  0  0  0
 47 52  1  0  0  0  0
 47 66  1  0  0  0  0
 48 53  1  0  0  0  0
 48 72  1  0  0  0  0
 49 70  1  0  0  0  0
 50 72  1  0  0  0  0
 50 79  1  0  0  0  0
 51 65  1  0  0  0  0
 52 64  1  0  0  0  0
 53 59  1  0  0  0  0
 53 79  1  0  0  0  0
 54 61  1  0  0  0  0
 55 62  1  0  0  0  0
 56 62  1  0  0  0  0
 57 62  1  0  0  0  0
 58 73  1  0  0  0  0
 59 81  1  0  0  0  0
 60 62  1  0  0  0  0
 60 71  1  0  0  0  0
 61 73  1  0  0  0  0
 63 64  1  0  0  0  0
M  CHG  2  72   1  73   1
M  ISO  4  38 100  59 101  69 100  81 101
M  END
> <Batch ID>
0152

> <Smiles>
CNC(C)C(=O)NC(C(=O)N1Cc2cc([101O:1][101CH2:1]C3CNC(c4cccc([100NH:0][100C:0](=O)N5CCCC(n6nc(-c7ccc(Oc8ccc(F)cc8F)cc7)c(C(N)=O)c6N)C5)c4)O3)ccc2CC1C(=O)NC1CCCc2ccccc21)C(C)(C)C

> <Shape>
0.247

> <Color>
0.189

> <Negative vol penalty>
0.000

$$$$

  -OEChem-04052303273D

 86 95  0     1  0  0  0  0  0999 V2000
  -30.0129  -23.6535   15.6530 C   0  0  0  0  0  0  0  0  0  0  0  0
  -28.6672  -23.9102   15.8950 C   0  0  0  0  0  0  0  0  0  0  0  0
  -26.1580  -13.6273   19.7898 C   0  0  0  0  0  0  0  0  0  0  0  0
  -24.5575  -13.6185   21.5995 C   0  0  0  0  0  0  0  0  0  0  0  0
  -30.9354  -23.7351   16.6952 C   0  0  0  0  0  0  0  0  0  0  0  0
  -28.2430  -24.2477   17.1798 C   0  0  0  0  0  0  0  0  0  0  0  0
  -23.7368  -28.1174   18.6714 C   0  0  0  0  0  0  0  0  0  0  0  0
  -26.2093  -12.2340   19.8283 C   0  0  0  0  0  0  0  0  0  0  0  0
  -24.6087  -12.2251   21.6381 C   0  0  0  0  0  0  0  0  0  0  0  0
  -22.4055  -27.9129   19.0312 C   0  0  0  0  0  0  0  0  0  0  0  0
  -23.3181   -9.6374   19.8892 C   0  0  0  0  0  0  0  0  0  0  0  0
  -22.1090   -8.9483   19.9823 C   0  0  0  0  0  0  0  0  0  0  0  0
  -22.5559  -22.9396   23.5873 C   0  0  0  0  0  0  0  0  0  0  0  0
  -21.9907  -24.5769   25.2715 C   0  0  0  0  0  0  0  0  0  0  0  0
  -23.0244  -28.0226   21.3602 C   0  0  0  0  0  0  0  0  0  0  0  0
  -24.2067  -23.6160   25.2164 C   0  0  0  0  0  0  0  0  0  0  0  0
  -22.8329   -7.9598   22.0647 C   0  0  0  0  0  0  0  0  0  0  0  0
  -25.3321  -14.3196   20.6754 C   0  0  0  0  0  0  0  0  0  0  0  0
  -21.6288  -23.8056   24.1671 C   0  0  0  0  0  0  0  0  0  0  0  0
  -24.4084  -16.5572   19.8705 C   0  0  0  0  0  0  0  0  0  0  0  0
  -30.5238  -24.0832   17.9914 C   0  0  0  0  0  0  0  0  0  0  0  0
  -24.7253  -28.2655   19.6550 C   0  0  0  0  0  0  0  0  0  0  0  0
  -29.1607  -24.3327   18.2407 C   0  0  0  0  0  0  0  0  0  0  0  0
  -24.3671  -28.2315   21.0102 C   0  0  0  0  0  0  0  0  0  0  0  0
  -23.8448  -22.8448   24.1120 C   0  0  0  0  0  0  0  0  0  0  0  0
  -25.4347  -11.5329   20.7525 C   0  0  0  0  0  0  0  0  0  0  0  0
  -22.0495  -27.8625   20.3758 C   0  0  0  0  0  0  0  0  0  0  0  0
  -24.2847   -9.4877   20.8838 C   0  0  0  0  0  0  0  0  0  0  0  0
  -21.8664   -8.1095   21.0701 C   0  0  0  0  0  0  0  0  0  0  0  0
  -23.2797  -24.4821   25.7962 C   0  0  0  0  0  0  0  0  0  0  0  0
  -24.0420   -8.6489   21.9715 C   0  0  0  0  0  0  0  0  0  0  0  0
  -25.2791  -15.7590   20.6364 C   0  0  0  0  0  0  0  0  0  0  0  0
  -24.7577  -17.8473   20.1869 C   0  0  0  0  0  0  0  0  0  0  0  0
  -20.2664  -23.9053   23.6139 C   0  0  0  0  0  0  0  0  0  0  0  0
  -23.3761  -16.1673   18.9551 C   0  0  0  0  0  0  0  0  0  0  0  0
  -27.3399  -26.6512   20.4683 C   0  0  0  0  0  0  0  0  0  0  0  0
  -27.7678  -29.1367   22.5083 C   0  0  0  0  0  0  0  0  0  0  0  0
  -26.3787  -31.6938   24.2911 C   0  0  0  0  0  0  0  0  0  0  0  0
  -26.1068  -21.7525   23.9194 C   0  0  0  0  0  0  0  0  0  0  0  0
  -31.5505  -24.1126   19.0958 C   0  0  0  0  0  0  0  0  0  0  0  0
  -26.1528  -28.5121   19.2503 C   0  0  0  0  0  0  0  0  0  0  0  0
  -25.3872  -28.4051   22.1046 C   0  0  0  0  0  0  0  0  0  0  0  0
  -31.0757  -24.8425   20.3496 C   0  0  0  0  0  0  0  0  0  0  0  0
  -28.7318  -19.6491   22.7524 C   0  0  0  0  0  0  0  0  0  0  0  0
  -29.6677  -24.3937   20.7276 C   0  0  0  0  0  0  0  0  0  0  0  0
  -27.9959  -18.5152   22.0348 C   0  0  0  0  0  0  0  0  0  0  0  0
  -18.8462  -26.2779   21.2978 C   0  0  0  0  0  0  0  0  0  0  0  0
  -27.9770  -20.1181   23.9950 C   0  0  0  0  0  0  0  0  0  0  0  0
  -18.6886  -24.9658   22.0541 C   0  0  0  0  0  0  0  0  0  0  0  0
  -25.8363  -19.3468   23.0506 C   0  0  0  0  0  0  0  0  0  0  0  0
  -21.0315  -25.7034   22.1178 C   0  0  0  0  0  0  0  0  0  0  0  0
  -28.6656  -24.7260   19.6155 C   0  0  1  0  0  0  0  0  0  0  0  0
  -27.1554  -28.1366   20.3371 C   0  0  1  0  0  0  0  0  0  0  0  0
  -26.5258  -18.8849   21.7564 C   0  0  2  0  0  0  0  0  0  0  0  0
  -20.3278  -26.3173   20.9025 C   0  0  1  0  0  0  0  0  0  1  0  0
  -20.6120  -25.5356   19.6213 C   0  0  0  0  0  0  0  0  0  0  0  0
  -26.9757  -33.5283   25.8959 C   0  0  0  0  0  0  0  0  0  0  0  0
  -28.0156  -27.0872   24.7551 C   0  0  0  0  0  0  0  0  0  0  0  0
  -27.6551  -28.9445   26.3948 C   0  0  0  0  0  0  0  0  0  0  0  0
  -29.6424  -28.9821   24.8875 C   0  0  0  0  0  0  0  0  0  0  0  0
  -25.4348  -33.7898   22.4270 C   0  0  0  0  0  0  0  0  0  0  0  0
  -27.3491  -29.4399   23.9266 C   0  0  1  0  0  0  0  0  0  0  0  0
  -26.7747  -33.1521   24.4362 C   0  0  2  0  0  0  0  0  0  0  0  0
  -28.1464  -28.6082   24.9706 C   0  0  0  0  0  0  0  0  0  0  0  0
  -26.1185  -16.4816   21.3830 N   0  0  0  0  0  0  0  0  0  0  0  0
  -25.7769  -17.7473   21.0876 N   0  0  0  0  0  0  0  0  0  0  0  0
  -20.0135  -24.7912   22.6676 N   0  0  0  0  0  0  0  0  0  0  0  0
  -26.7708  -28.6374   21.6583 N   0  0  0  0  0  0  0  0  0  0  0  0
  -26.5932  -20.4550   23.6539 N   0  0  0  0  0  0  0  0  0  0  0  0
  -24.2894  -19.0461   19.7795 N   0  0  0  0  0  0  0  0  0  0  0  0
  -23.1492  -14.8000   18.7469 N   0  0  0  0  0  0  0  0  0  0  0  0
  -24.7872  -21.9661   23.5223 N   0  0  0  0  0  0  0  0  0  0  0  0
  -28.3227  -26.1317   19.6476 N   0  0  0  0  0  0  0  0  0  0  0  0
  -27.4765  -30.8840   24.0900 N   0  0  0  0  0  0  0  0  0  0  0  0
  -19.3135  -23.1005   24.0751 N   0  3  0  0  0  0  0  0  0  0  0  0
  -25.7189  -34.0349   23.8644 N   0  3  0  0  0  0  0  0  0  0  0  0
  -22.6866  -17.0066   18.3276 O   0  0  0  0  0  0  0  0  0  0  0  0
  -26.6432  -26.0231   21.2569 O   0  0  0  0  0  0  0  0  0  0  0  0
  -28.9348  -29.3421   22.1653 O   0  0  0  0  0  0  0  0  0  0  0  0
  -25.2125  -31.3108   24.3538 O   0  0  0  0  0  0  0  0  0  0  0  0
  -26.8177  -22.6193   24.4345 O   0  0  0  0  0  0  0  0  0  0  0  0
  -25.4843  -10.1732   20.7902 O   0  0  0  0  0  0  0  0  0  0  0  0
  -20.7509  -27.6623   20.7297 O   0  0  0  0  0  0  0  0  0  1  0  0
  -20.7046   -7.4489   21.1602 F   0  0  0  0  0  0  0  0  0  0  0  0
  -23.6271  -25.2227   26.8568 F   0  0  0  0  0  0  0  0  0  0  0  0
  -24.9663   -8.5020   22.9307 F   0  0  0  0  0  0  0  0  0  0  0  0
  1  2  1  0  0  0  0
  1  5  2  0  0  0  0
  2  6  2  0  0  0  0
  3  8  2  0  0  0  0
  3 18  1  0  0  0  0
  4  9  1  0  0  0  0
  4 18  2  0  0  0  0
  5 21  1  0  0  0  0
  6 23  1  0  0  0  0
  7 10  2  0  0  0  0
  7 22  1  0  0  0  0
  8 26  1  0  0  0  0
  9 26  2  0  0  0  0
 10 27  1  0  0  0  0
 11 12  2  0  0  0  0
 11 28  1  0  0  0  0
 12 29  1  0  0  0  0
 13 19  2  0  0  0  0
 13 25  1  0  0  0  0
 14 19  1  0  0  0  0
 14 30  2  0  0  0  0
 15 24  1  0  0  0  0
 15 27  2  0  0  0  0
 16 25  2  0  0  0  0
 16 30  1  0  0  0  0
 17 29  2  0  0  0  0
 17 31  1  0  0  0  0
 18 32  1  0  0  0  0
 19 34  1  0  0  0  0
 20 32  1  0  0  0  0
 20 33  2  0  0  0  0
 20 35  1  0  0  0  0
 21 23  2  0  0  0  0
 21 40  1  0  0  0  0
 22 24  2  0  0  0  0
 22 41  1  0  0  0  0
 23 52  1  0  0  0  0
 24 42  1  0  0  0  0
 25 72  1  0  0  0  0
 26 82  1  0  0  0  0
 27 83  1  0  0  0  0
 28 31  2  0  0  0  0
 28 82  1  0  0  0  0
 29 84  1  0  0  0  0
 30 85  1  0  0  0  0
 31 86  1  0  0  0  0
 32 65  2  0  0  0  0
 33 66  1  0  0  0  0
 33 70  1  0  0  0  0
 34 67  1  0  0  0  0
 34 75  2  0  0  0  0
 35 71  1  0  0  0  0
 35 77  2  0  0  0  0
 36 53  1  0  0  0  0
 36 73  1  0  0  0  0
 36 78  2  0  0  0  0
 37 62  1  0  0  0  0
 37 68  1  0  0  0  0
 37 79  2  0  0  0  0
 38 63  1  0  0  0  0
 38 74  1  0  0  0  0
 38 80  2  0  0  0  0
 39 69  1  0  0  0  0
 39 72  1  0  0  0  0
 39 81  2  0  0  0  0
 40 43  1  0  0  0  0
 41 53  1  0  0  0  0
 42 68  1  0  0  0  0
 43 45  1  0  0  0  0
 44 46  1  0  0  0  0
 44 48  1  0  0  0  0
 45 52  1  0  0  0  0
 46 54  1  0  0  0  0
 47 49  1  0  0  0  0
 47 55  1  0  0  0  0
 48 69  1  0  0  0  0
 49 67  1  0  0  0  0
 50 54  1  0  0  0  0
 50 69  1  0  0  0  0
 51 55  1  0  0  0  0
 51 67  1  0  0  0  0
 52 73  1  0  0  0  0
 53 68  1  0  0  0  0
 54 66  1  0  0  0  0
 55 56  1  0  0  0  0
 55 83  1  0  0  0  0
 57 63  1  0  0  0  0
 58 64  1  0  0  0  0
 59 64  1  0  0  0  0
 60 64  1  0  0  0  0
 61 76  1  0  0  0  0
 62 64  1  0  0  0  0
 62 74  1  0  0  0  0
 63 76  1  0  0  0  0
 65 66  1  0  0  0  0
M  CHG  2  75   1  76   1
M  ISO  4  39 100  55 101  72 100  83 101
M  END
> <Batch ID>
0152

> <Smiles>
CNC(C)C(=O)NC(C(=O)N1Cc2cc([101O:1][101C:1]3(C)CCN(C(=N)c4cc(F)cc([100NH:0][100C:0](=O)N5CCCC(n6nc(-c7ccc(Oc8ccc(F)cc8F)cc7)c(C(N)=O)c6N)C5)c4)C3)ccc2CC1C(=O)NC1CCCc2ccccc21)C(C)(C)C

> <Shape>
0.243

> <Color>
0.063

> <Negative vol penalty>
0.000

$$$$

  -OEChem-04052303273D

 85 93  0     1  0  0  0  0  0999 V2000
  -22.7842  -31.3359   24.5980 C   0  0  0  0  0  0  0  0  0  0  0  0
  -22.4699  -30.5095   23.5239 C   0  0  0  0  0  0  0  0  0  0  0  0
  -27.5308  -13.1241   22.6054 C   0  0  0  0  0  0  0  0  0  0  0  0
  -26.8307  -12.9111   20.3029 C   0  0  0  0  0  0  0  0  0  0  0  0
  -24.0014  -32.0155   24.6204 C   0  0  0  0  0  0  0  0  0  0  0  0
  -23.3723  -30.3630   22.4710 C   0  0  0  0  0  0  0  0  0  0  0  0
  -23.9191  -25.5366   21.0384 C   0  0  0  0  0  0  0  0  0  0  0  0
  -27.0062  -11.8616   22.8818 C   0  0  0  0  0  0  0  0  0  0  0  0
  -26.3061  -11.6485   20.5792 C   0  0  0  0  0  0  0  0  0  0  0  0
  -22.9129  -24.9908   20.2425 C   0  0  0  0  0  0  0  0  0  0  0  0
  -24.4627   -8.5214   20.7600 C   0  0  0  0  0  0  0  0  0  0  0  0
  -23.1981   -8.2200   20.2546 C   0  0  0  0  0  0  0  0  0  0  0  0
  -22.0410  -20.3719   15.2245 C   0  0  0  0  0  0  0  0  0  0  0  0
  -24.0090  -19.2768   16.0987 C   0  0  0  0  0  0  0  0  0  0  0  0
  -24.2798  -25.3399   18.2857 C   0  0  0  0  0  0  0  0  0  0  0  0
  -22.9427  -21.0364   17.3651 C   0  0  0  0  0  0  0  0  0  0  0  0
  -22.2595  -10.0623   21.5045 C   0  0  0  0  0  0  0  0  0  0  0  0
  -27.4430  -13.6489   21.3160 C   0  0  0  0  0  0  0  0  0  0  0  0
  -23.0524  -19.4203   15.0938 C   0  0  0  0  0  0  0  0  0  0  0  0
  -29.2913  -15.2567   20.6043 C   0  0  0  0  0  0  0  0  0  0  0  0
  -24.9233  -31.8696   23.5718 C   0  0  0  0  0  0  0  0  0  0  0  0
  -25.1108  -25.9990   20.4617 C   0  0  0  0  0  0  0  0  0  0  0  0
  -24.6025  -31.0422   22.4788 C   0  0  0  0  0  0  0  0  0  0  0  0
  -25.3006  -25.8888   19.0768 C   0  0  0  0  0  0  0  0  0  0  0  0
  -21.9861  -21.1799   16.3602 C   0  0  0  0  0  0  0  0  0  0  0  0
  -23.9542  -20.0848   17.2344 C   0  0  0  0  0  0  0  0  0  0  0  0
  -26.3939  -11.1238   21.8687 C   0  0  0  0  0  0  0  0  0  0  0  0
  -23.0920  -24.8950   18.8656 C   0  0  0  0  0  0  0  0  0  0  0  0
  -24.6258   -9.5932   21.6377 C   0  0  0  0  0  0  0  0  0  0  0  0
  -22.0965   -8.9904   20.6268 C   0  0  0  0  0  0  0  0  0  0  0  0
  -23.5242  -10.3636   22.0099 C   0  0  0  0  0  0  0  0  0  0  0  0
  -27.9842  -14.9533   21.0300 C   0  0  0  0  0  0  0  0  0  0  0  0
  -29.3013  -16.6240   20.4739 C   0  0  0  0  0  0  0  0  0  0  0  0
  -23.1086  -18.5825   13.9164 C   0  0  0  0  0  0  0  0  0  0  0  0
  -30.3975  -14.3809   20.3494 C   0  0  0  0  0  0  0  0  0  0  0  0
  -26.5676  -28.8181   20.2777 C   0  0  0  0  0  0  0  0  0  0  0  0
  -28.9355  -27.0679   18.9168 C   0  0  0  0  0  0  0  0  0  0  0  0
  -29.8477  -24.2478   17.2252 C   0  0  0  0  0  0  0  0  0  0  0  0
  -25.0146  -20.6581   19.4465 C   0  0  0  0  0  0  0  0  0  0  0  0
  -26.2062  -32.6614   23.6178 C   0  0  0  0  0  0  0  0  0  0  0  0
  -26.1973  -26.5606   21.3372 C   0  0  0  0  0  0  0  0  0  0  0  0
  -26.5697  -26.3520   18.4110 C   0  0  0  0  0  0  0  0  0  0  0  0
  -27.2672  -32.1592   22.6419 C   0  0  0  0  0  0  0  0  0  0  0  0
  -27.2312  -20.5686   22.2315 C   0  0  0  0  0  0  0  0  0  0  0  0
  -26.6547  -31.9161   21.2661 C   0  0  0  0  0  0  0  0  0  0  0  0
  -27.7994  -19.1480   22.1971 C   0  0  0  0  0  0  0  0  0  0  0  0
  -25.7615  -20.6018   21.8159 C   0  0  0  0  0  0  0  0  0  0  0  0
  -26.0342  -18.5413   20.4932 C   0  0  0  0  0  0  0  0  0  0  0  0
  -25.5659  -30.8382   21.3297 C   0  0  1  0  0  0  0  0  0  0  0  0
  -27.1609  -27.4719   20.5833 C   0  0  1  0  0  0  0  0  0  0  0  0
  -27.5298  -18.4658   20.8415 C   0  0  2  0  0  0  0  0  0  0  0  0
  -31.8478  -23.1148   16.2184 C   0  0  0  0  0  0  0  0  0  0  0  0
  -28.8493  -29.0106   16.5656 C   0  0  0  0  0  0  0  0  0  0  0  0
  -30.1352  -27.3336   15.2230 C   0  0  0  0  0  0  0  0  0  0  0  0
  -31.1496  -28.3299   17.2727 C   0  0  0  0  0  0  0  0  0  0  0  0
  -21.4742  -23.5871   14.4266 C   0  0  0  0  0  0  0  0  0  0  0  0
  -19.9073  -24.4835   16.1439 C   0  0  0  0  0  0  0  0  0  0  0  0
  -29.5582  -21.9001   19.0038 C   0  0  0  0  0  0  0  0  0  0  0  0
  -20.8900  -22.2100   16.5022 C   0  0  0  0  0  0  0  0  0  0  0  0
  -22.3617  -24.2957   16.6830 C   0  0  0  0  0  0  0  0  0  1  0  0
  -29.2787  -26.6458   17.5087 C   0  0  1  0  0  0  0  0  0  0  0  0
  -30.9732  -23.2553   17.4546 C   0  0  2  0  0  0  0  0  0  0  0  0
  -29.8284  -27.8229   16.6545 C   0  0  0  0  0  0  0  0  0  0  0  0
  -21.1809  -23.6322   15.9387 C   0  0  0  0  0  0  0  0  0  0  0  0
  -27.2194  -16.0404   21.1615 N   0  0  0  0  0  0  0  0  0  0  0  0
  -28.0485  -17.0402   20.8164 N   0  0  0  0  0  0  0  0  0  0  0  0
  -27.5999  -26.8996   19.3089 N   0  0  0  0  0  0  0  0  0  0  0  0
  -25.5830  -19.9415   20.5209 N   0  0  0  0  0  0  0  0  0  0  0  0
  -30.2595  -17.4987   20.1009 N   0  0  0  0  0  0  0  0  0  0  0  0
  -22.1913  -18.7130   12.9433 N   0  0  0  0  0  0  0  0  0  0  0  0
  -30.2153  -13.0034   20.5331 N   0  0  0  0  0  0  0  0  0  0  0  0
  -24.9249  -19.9373   18.2561 N   0  0  0  0  0  0  0  0  0  0  0  0
  -26.1618  -29.5211   21.3961 N   0  0  0  0  0  0  0  0  0  0  0  0
  -30.1961  -25.5182   17.6327 N   0  0  0  0  0  0  0  0  0  0  0  0
  -24.0798  -17.6641   13.7797 N   0  3  0  0  0  0  0  0  0  0  0  0
  -30.4197  -21.9138   17.7936 N   0  3  0  0  0  0  0  0  0  0  0  0
  -31.5193  -14.8087   19.9859 O   0  0  0  0  0  0  0  0  0  0  0  0
  -26.4854  -29.1920   19.1136 O   0  0  0  0  0  0  0  0  0  0  0  0
  -29.8213  -27.5233   19.6446 O   0  0  0  0  0  0  0  0  0  0  0  0
  -28.7689  -23.9289   16.7303 O   0  0  0  0  0  0  0  0  0  0  0  0
  -24.6605  -21.8338   19.5657 O   0  0  0  0  0  0  0  0  0  0  0  0
  -25.8821   -9.8917   22.1379 O   0  0  0  0  0  0  0  0  0  0  0  0
  -22.1113  -24.3633   18.0863 O   0  0  0  0  0  0  0  0  0  1  0  0
  -20.8824   -8.7018   20.1402 F   0  0  0  0  0  0  0  0  0  0  0  0
  -23.6748  -11.3953   22.8518 F   0  0  0  0  0  0  0  0  0  0  0  0
  1  2  1  0  0  0  0
  1  5  2  0  0  0  0
  2  6  2  0  0  0  0
  3  8  2  0  0  0  0
  3 18  1  0  0  0  0
  4  9  1  0  0  0  0
  4 18  2  0  0  0  0
  5 21  1  0  0  0  0
  6 23  1  0  0  0  0
  7 10  2  0  0  0  0
  7 22  1  0  0  0  0
  8 27  1  0  0  0  0
  9 27  2  0  0  0  0
 10 28  1  0  0  0  0
 11 12  2  0  0  0  0
 11 29  1  0  0  0  0
 12 30  1  0  0  0  0
 13 19  1  0  0  0  0
 13 25  2  0  0  0  0
 14 19  2  0  0  0  0
 14 26  1  0  0  0  0
 15 24  1  0  0  0  0
 15 28  2  0  0  0  0
 16 25  1  0  0  0  0
 16 26  2  0  0  0  0
 17 30  2  0  0  0  0
 17 31  1  0  0  0  0
 18 32  1  0  0  0  0
 19 34  1  0  0  0  0
 20 32  1  0  0  0  0
 20 33  2  0  0  0  0
 20 35  1  0  0  0  0
 21 23  2  0  0  0  0
 21 40  1  0  0  0  0
 22 24  2  0  0  0  0
 22 41  1  0  0  0  0
 23 49  1  0  0  0  0
 24 42  1  0  0  0  0
 25 59  1  0  0  0  0
 26 72  1  0  0  0  0
 27 82  1  0  0  0  0
 28 83  1  0  0  0  0
 29 31  2  0  0  0  0
 29 82  1  0  0  0  0
 30 84  1  0  0  0  0
 31 85  1  0  0  0  0
 32 65  2  0  0  0  0
 33 66  1  0  0  0  0
 33 69  1  0  0  0  0
 34 70  1  0  0  0  0
 34 75  2  0  0  0  0
 35 71  1  0  0  0  0
 35 77  2  0  0  0  0
 36 50  1  0  0  0  0
 36 73  1  0  0  0  0
 36 78  2  0  0  0  0
 37 61  1  0  0  0  0
 37 67  1  0  0  0  0
 37 79  2  0  0  0  0
 38 62  1  0  0  0  0
 38 74  1  0  0  0  0
 38 80  2  0  0  0  0
 39 68  1  0  0  0  0
 39 72  1  0  0  0  0
 39 81  2  0  0  0  0
 40 43  1  0  0  0  0
 41 50  1  0  0  0  0
 42 67  1  0  0  0  0
 43 45  1  0  0  0  0
 44 46  1  0  0  0  0
 44 47  1  0  0  0  0
 45 49  1  0  0  0  0
 46 51  1  0  0  0  0
 47 68  1  0  0  0  0
 48 51  1  0  0  0  0
 48 68  1  0  0  0  0
 49 73  1  0  0  0  0
 50 67  1  0  0  0  0
 51 66  1  0  0  0  0
 52 62  1  0  0  0  0
 53 63  1  0  0  0  0
 54 63  1  0  0  0  0
 55 63  1  0  0  0  0
 56 64  1  0  0  0  0
 57 64  1  0  0  0  0
 58 76  1  0  0  0  0
 59 64  1  0  0  0  0
 60 64  1  0  0  0  0
 60 83  1  0  0  0  0
 61 63  1  0  0  0  0
 61 74  1  0  0  0  0
 62 76  1  0  0  0  0
 65 66  1  0  0  0  0
M  CHG  2  75   1  76   1
M  ISO  4  39 100  60 101  72 100  83 101
M  END
> <Batch ID>
0152

> <Smiles>
CNC(C)C(=O)NC(C(=O)N1Cc2cc([101O:1][101CH2:1]C(C)(C)Cc3cc([100NH:0][100C:0](=O)N4CCCC(n5nc(-c6ccc(Oc7ccc(F)cc7F)cc6)c(C(N)=O)c5N)C4)cc(C(=N)N)c3)ccc2CC1C(=O)NC1CCCc2ccccc21)C(C)(C)C

> <Shape>
0.221

> <Color>
0.054

> <Negative vol penalty>
0.000

$$$$

  -OEChem-04052303273D

 80 89  0     1  0  0  0  0  0999 V2000
  -28.6572  -11.6626   21.9148 C   0  0  0  0  0  0  0  0  0  0  0  0
  -28.9696  -12.9061   21.3750 C   0  0  0  0  0  0  0  0  0  0  0  0
  -19.4793  -28.4715   21.4408 C   0  0  0  0  0  0  0  0  0  0  0  0
  -20.4689  -27.2456   23.2724 C   0  0  0  0  0  0  0  0  0  0  0  0
  -27.3654  -11.1536   21.7882 C   0  0  0  0  0  0  0  0  0  0  0  0
  -27.9905  -13.6410   20.7074 C   0  0  0  0  0  0  0  0  0  0  0  0
  -27.9835  -18.5271   22.0383 C   0  0  0  0  0  0  0  0  0  0  0  0
  -18.2109  -28.2478   21.9763 C   0  0  0  0  0  0  0  0  0  0  0  0
  -19.2005  -27.0219   23.8080 C   0  0  0  0  0  0  0  0  0  0  0  0
  -28.9666  -19.3412   21.4775 C   0  0  0  0  0  0  0  0  0  0  0  0
  -14.6851  -27.6912   22.6709 C   0  0  0  0  0  0  0  0  0  0  0  0
  -13.6724  -27.2920   21.7988 C   0  0  0  0  0  0  0  0  0  0  0  0
  -27.3645  -20.1586   19.8700 C   0  0  0  0  0  0  0  0  0  0  0  0
  -14.9491  -25.3251   21.2168 C   0  0  0  0  0  0  0  0  0  0  0  0
  -20.6083  -27.9704   22.0888 C   0  0  0  0  0  0  0  0  0  0  0  0
  -22.7743  -29.2867   21.8007 C   0  0  0  0  0  0  0  0  0  0  0  0
  -26.3675  -11.8869   21.1271 C   0  0  0  0  0  0  0  0  0  0  0  0
  -26.6840  -18.5145   21.5113 C   0  0  0  0  0  0  0  0  0  0  0  0
  -26.6845  -13.1408   20.5706 C   0  0  0  0  0  0  0  0  0  0  0  0
  -26.3660  -19.3453   20.4275 C   0  0  0  0  0  0  0  0  0  0  0  0
  -18.0715  -27.5230   23.1599 C   0  0  0  0  0  0  0  0  0  0  0  0
  -28.6580  -20.1549   20.3914 C   0  0  0  0  0  0  0  0  0  0  0  0
  -15.8298  -26.9074   22.8160 C   0  0  0  0  0  0  0  0  0  0  0  0
  -13.8044  -26.1089   21.0717 C   0  0  0  0  0  0  0  0  0  0  0  0
  -15.9618  -25.7244   22.0889 C   0  0  0  0  0  0  0  0  0  0  0  0
  -21.9187  -28.2006   21.5359 C   0  0  0  0  0  0  0  0  0  0  0  0
  -23.8882  -29.0409   21.0356 C   0  0  0  0  0  0  0  0  0  0  0  0
  -22.5798  -30.4167   22.6616 C   0  0  0  0  0  0  0  0  0  0  0  0
  -24.8318  -16.3115   20.1623 C   0  0  0  0  0  0  0  0  0  0  0  0
  -22.6045  -18.6664   20.2896 C   0  0  0  0  0  0  0  0  0  0  0  0
  -21.9264  -22.0076   20.4420 C   0  0  0  0  0  0  0  0  0  0  0  0
  -27.7801  -25.6289   19.2587 C   0  0  0  0  0  0  0  0  0  0  0  0
  -24.9977  -11.2745   20.9741 C   0  0  0  0  0  0  0  0  0  0  0  0
  -25.6279  -17.6506   22.1444 C   0  0  0  0  0  0  0  0  0  0  0  0
  -24.9807  -19.3837   19.8375 C   0  0  0  0  0  0  0  0  0  0  0  0
  -23.9210  -12.2817   20.5783 C   0  0  0  0  0  0  0  0  0  0  0  0
  -24.6877  -25.6381   17.3787 C   0  0  0  0  0  0  0  0  0  0  0  0
  -32.8098  -24.2969   18.1485 C   0  0  0  0  0  0  0  0  0  0  0  0
  -24.4124  -13.1680   19.4381 C   0  0  0  0  0  0  0  0  0  0  0  0
  -32.0638  -24.9631   16.9822 C   0  0  0  0  0  0  0  0  0  0  0  0
  -23.7590  -26.4015   18.3246 C   0  0  0  0  0  0  0  0  0  0  0  0
  -30.3189  -23.0996   16.8333 C   0  0  0  0  0  0  0  0  0  0  0  0
  -25.6429  -24.7340   18.1523 C   0  0  0  0  0  0  0  0  0  0  0  0
  -25.5314  -26.2006   20.1297 C   0  0  0  0  0  0  0  0  0  0  0  0
  -31.9882  -24.1880   19.4376 C   0  0  0  0  0  0  0  0  0  0  0  0
  -25.6434  -13.9789   19.8609 C   0  0  1  0  0  0  0  0  0  0  0  0
  -24.4707  -17.3343   21.2021 C   0  0  1  0  0  0  0  0  0  0  0  0
  -30.5618  -24.6158   16.9283 C   0  0  1  0  0  0  0  0  0  0  0  0
  -24.5561  -27.1495   19.4097 C   0  0  2  0  0  0  0  0  0  0  0  0
  -30.4282  -22.5780   18.2748 C   0  0  2  0  0  0  0  0  0  0  0  0
  -29.9504  -24.9694   18.2755 C   0  0  1  0  0  0  0  0  0  0  0  0
  -20.0114  -23.6286   20.4947 C   0  0  0  0  0  0  0  0  0  0  0  0
  -22.1652  -18.2408   17.3003 C   0  0  0  0  0  0  0  0  0  0  0  0
  -20.9945  -20.4527   17.2283 C   0  0  0  0  0  0  0  0  0  0  0  0
  -20.0724  -18.6003   18.6215 C   0  0  0  0  0  0  0  0  0  0  0  0
  -22.7320  -23.0522   23.0912 C   0  0  0  0  0  0  0  0  0  0  0  0
  -29.2302  -21.7583   18.7308 C   0  0  0  0  0  0  0  0  0  1  0  0
  -22.1771  -19.7846   19.3698 C   0  0  1  0  0  0  0  0  0  0  0  0
  -20.9834  -22.8048   21.3250 C   0  0  2  0  0  0  0  0  0  0  0  0
  -21.3790  -19.2677   18.1397 C   0  0  0  0  0  0  0  0  0  0  0  0
  -22.4439  -27.3298   20.6699 N   0  0  0  0  0  0  0  0  0  0  0  0
  -23.6414  -27.8684   20.3840 N   0  0  0  0  0  0  0  0  0  0  0  0
  -23.9844  -18.5163   20.4875 N   0  0  0  0  0  0  0  0  0  0  0  0
  -26.3841  -25.5106   19.1560 N   0  0  0  0  0  0  0  0  0  0  0  0
  -25.0447  -29.7155   20.8632 N   0  0  0  0  0  0  0  0  0  0  0  0
  -21.3774  -30.5138   23.3752 N   0  0  0  0  0  0  0  0  0  0  0  0
  -25.2502  -15.1023   20.6841 N   0  0  0  0  0  0  0  0  0  0  0  0
  -21.4469  -20.7380   20.1982 N   0  0  0  0  0  0  0  0  0  0  0  0
  -28.5154  -24.9391   18.3024 N   0  0  0  0  0  0  0  0  0  0  0  0
  -30.5428  -23.8544   19.1174 N   0  3  2  0  0  0  0  0  0  0  0  0
  -21.7539  -23.7307   22.2025 N   0  3  0  0  0  0  0  0  0  0  0  0
  -23.4397  -31.3221   22.7815 O   0  0  0  0  0  0  0  0  0  0  0  0
  -24.7363  -16.5977   18.9746 O   0  0  0  0  0  0  0  0  0  0  0  0
  -21.7454  -17.9569   20.8189 O   0  0  0  0  0  0  0  0  0  0  0  0
  -22.9809  -22.4666   20.0086 O   0  0  0  0  0  0  0  0  0  0  0  0
  -28.3310  -26.3040   20.1349 O   0  0  0  0  0  0  0  0  0  0  0  0
  -16.8340  -27.3047   23.6829 O   0  0  0  0  0  0  0  0  0  0  0  0
  -29.6159  -20.9500   19.8418 O   0  0  0  0  0  0  0  0  0  1  0  0
  -12.8311  -25.7249   20.2353 F   0  0  0  0  0  0  0  0  0  0  0  0
  -17.0587  -24.9666   22.2250 F   0  0  0  0  0  0  0  0  0  0  0  0
  1  2  1  0  0  0  0
  1  5  2  0  0  0  0
  2  6  2  0  0  0  0
  3  8  2  0  0  0  0
  3 15  1  0  0  0  0
  4  9  1  0  0  0  0
  4 15  2  0  0  0  0
  5 17  1  0  0  0  0
  6 19  1  0  0  0  0
  7 10  2  0  0  0  0
  7 18  1  0  0  0  0
  8 21  1  0  0  0  0
  9 21  2  0  0  0  0
 10 22  1  0  0  0  0
 11 12  2  0  0  0  0
 11 23  1  0  0  0  0
 12 24  1  0  0  0  0
 13 20  1  0  0  0  0
 13 22  2  0  0  0  0
 14 24  2  0  0  0  0
 14 25  1  0  0  0  0
 15 26  1  0  0  0  0
 16 26  1  0  0  0  0
 16 27  2  0  0  0  0
 16 28  1  0  0  0  0
 17 19  2  0  0  0  0
 17 33  1  0  0  0  0
 18 20  2  0  0  0  0
 18 34  1  0  0  0  0
 19 46  1  0  0  0  0
 20 35  1  0  0  0  0
 21 77  1  0  0  0  0
 22 78  1  0  0  0  0
 23 25  2  0  0  0  0
 23 77  1  0  0  0  0
 24 79  1  0  0  0  0
 25 80  1  0  0  0  0
 26 61  2  0  0  0  0
 27 62  1  0  0  0  0
 27 65  1  0  0  0  0
 28 66  1  0  0  0  0
 28 72  2  0  0  0  0
 29 47  1  0  0  0  0
 29 67  1  0  0  0  0
 29 73  2  0  0  0  0
 30 58  1  0  0  0  0
 30 63  1  0  0  0  0
 30 74  2  0  0  0  0
 31 59  1  0  0  0  0
 31 68  1  0  0  0  0
 31 75  2  0  0  0  0
 32 64  1  0  0  0  0
 32 69  1  0  0  0  0
 32 76  2  0  0  0  0
 33 36  1  0  0  0  0
 34 47  1  0  0  0  0
 35 63  1  0  0  0  0
 36 39  1  0  0  0  0
 37 41  1  0  0  0  0
 37 43  1  0  0  0  0
 38 40  1  0  0  0  0
 38 45  1  0  0  0  0
 39 46  1  0  0  0  0
 40 48  1  0  0  0  0
 41 49  1  0  0  0  0
 42 48  1  0  0  0  0
 42 50  1  0  0  0  0
 43 64  1  0  0  0  0
 44 49  1  0  0  0  0
 44 64  1  0  0  0  0
 45 70  1  0  0  0  0
 46 67  1  0  0  0  0
 47 63  1  0  0  0  0
 48 51  1  0  0  0  0
 49 62  1  0  0  0  0
 50 57  1  0  0  0  0
 50 70  1  0  0  0  0
 51 69  1  0  0  0  0
 51 70  1  0  0  0  0
 52 59  1  0  0  0  0
 53 60  1  0  0  0  0
 54 60  1  0  0  0  0
 55 60  1  0  0  0  0
 56 71  1  0  0  0  0
 57 78  1  0  0  0  0
 58 60  1  0  0  0  0
 58 68  1  0  0  0  0
 59 71  1  0  0  0  0
 61 62  1  0  0  0  0
M  CHG  2  70   1  71   1
M  ISO  4  32 100  57 101  69 100  78 101
M  END
> <Batch ID>
0152

> <Smiles>
CNC(C)C(=O)NC(C(=O)N1Cc2cc([101O:1][101CH2:1]C3CC4CCCN3C4[100NH:0][100C:0](=O)N3CCCC(n4nc(-c5ccc(Oc6ccc(F)cc6F)cc5)c(C(N)=O)c4N)C3)ccc2CC1C(=O)NC1CCCc2ccccc21)C(C)(C)C

> <Shape>
0.223

> <Color>
0.083

> <Negative vol penalty>
0.000

$$$$

  -OEChem-04052303273D

 81 89  0     1  0  0  0  0  0999 V2000
  -29.7207  -32.5394   25.1379 C   0  0  0  0  0  0  0  0  0  0  0  0
  -29.4349  -31.3186   24.5351 C   0  0  0  0  0  0  0  0  0  0  0  0
  -24.2923   -9.4664   22.2646 C   0  0  0  0  0  0  0  0  0  0  0  0
  -24.4555   -8.8908   19.9239 C   0  0  0  0  0  0  0  0  0  0  0  0
  -28.6911  -33.3021   25.6876 C   0  0  0  0  0  0  0  0  0  0  0  0
  -28.1193  -30.8592   24.4827 C   0  0  0  0  0  0  0  0  0  0  0  0
  -26.8883  -29.0068   19.9332 C   0  0  0  0  0  0  0  0  0  0  0  0
  -23.1669   -8.6515   22.3866 C   0  0  0  0  0  0  0  0  0  0  0  0
  -23.3301   -8.0758   20.0458 C   0  0  0  0  0  0  0  0  0  0  0  0
  -27.3406  -27.7248   19.6241 C   0  0  0  0  0  0  0  0  0  0  0  0
  -20.4650   -6.4401   23.3987 C   0  0  0  0  0  0  0  0  0  0  0  0
  -20.3945   -5.5929   24.5045 C   0  0  0  0  0  0  0  0  0  0  0  0
  -25.1655  -26.8333   20.1655 C   0  0  0  0  0  0  0  0  0  0  0  0
  -29.7560  -20.9589   20.8333 C   0  0  0  0  0  0  0  0  0  0  0  0
  -22.4316   -4.5024   23.7989 C   0  0  0  0  0  0  0  0  0  0  0  0
  -31.8196  -22.0282   20.8211 C   0  0  0  0  0  0  0  0  0  0  0  0
  -24.9366   -9.5861   21.0332 C   0  0  0  0  0  0  0  0  0  0  0  0
  -27.4435  -10.0548   21.0919 C   0  0  0  0  0  0  0  0  0  0  0  0
  -27.3611  -32.8564   25.6333 C   0  0  0  0  0  0  0  0  0  0  0  0
  -25.5721  -29.2107   20.3720 C   0  0  0  0  0  0  0  0  0  0  0  0
  -27.0712  -31.6161   25.0334 C   0  0  0  0  0  0  0  0  0  0  0  0
  -24.6981  -28.1192   20.4771 C   0  0  0  0  0  0  0  0  0  0  0  0
  -30.4646  -22.1769   20.6226 C   0  0  0  0  0  0  0  0  0  0  0  0
  -22.6858   -7.9562   21.2772 C   0  0  0  0  0  0  0  0  0  0  0  0
  -26.4801  -26.6374   19.7430 C   0  0  0  0  0  0  0  0  0  0  0  0
  -21.5187   -6.3184   22.4929 C   0  0  0  0  0  0  0  0  0  0  0  0
  -21.3778   -4.6241   24.7047 C   0  0  0  0  0  0  0  0  0  0  0  0
  -22.5020   -5.3495   22.6930 C   0  0  0  0  0  0  0  0  0  0  0  0
  -26.0989  -10.4282   20.9065 C   0  0  0  0  0  0  0  0  0  0  0  0
  -30.5965  -19.9255   21.1847 C   0  0  0  0  0  0  0  0  0  0  0  0
  -28.1550  -11.2060   20.8575 C   0  0  0  0  0  0  0  0  0  0  0  0
  -30.2687  -18.5828   21.4707 C   0  0  0  0  0  0  0  0  0  0  0  0
  -29.0175  -18.0124   21.4364 C   0  0  0  0  0  0  0  0  0  0  0  0
  -27.9997   -8.7811   21.4443 C   0  0  0  0  0  0  0  0  0  0  0  0
  -28.8371  -16.5815   21.7541 C   0  0  0  0  0  0  0  0  0  0  0  0
  -24.2429  -30.3291   23.0339 C   0  0  0  0  0  0  0  0  0  0  0  0
  -21.5025  -30.0434   21.3220 C   0  0  0  0  0  0  0  0  0  0  0  0
  -28.5200  -23.6610   20.0311 C   0  0  0  0  0  0  0  0  0  0  0  0
  -19.8360  -28.5404   18.7509 C   0  0  0  0  0  0  0  0  0  0  0  0
  -26.2879  -33.6935   26.2831 C   0  0  0  0  0  0  0  0  0  0  0  0
  -25.0917  -30.6032   20.6759 C   0  0  0  0  0  0  0  0  0  0  0  0
  -23.2698  -28.2873   20.9244 C   0  0  0  0  0  0  0  0  0  0  0  0
  -24.8737  -33.3110   25.8539 C   0  0  0  0  0  0  0  0  0  0  0  0
  -26.7305  -15.6337   18.9088 C   0  0  0  0  0  0  0  0  0  0  0  0
  -24.6924  -31.7972   25.9019 C   0  0  0  0  0  0  0  0  0  0  0  0
  -26.4527  -14.1665   19.2251 C   0  0  0  0  0  0  0  0  0  0  0  0
  -26.8336  -16.4820   20.1754 C   0  0  0  0  0  0  0  0  0  0  0  0
  -27.5509  -14.4981   21.4754 C   0  0  0  0  0  0  0  0  0  0  0  0
  -25.6536  -31.0955   24.9348 C   0  0  1  0  0  0  0  0  0  0  0  0
  -23.8829  -30.6286   21.6062 C   0  0  1  0  0  0  0  0  0  0  0  0
  -27.4900  -13.6177   20.2174 C   0  0  1  0  0  0  0  0  0  0  0  0
  -17.5964  -28.4851   17.6201 C   0  0  0  0  0  0  0  0  0  0  0  0
  -20.3811  -28.3911   23.6291 C   0  0  0  0  0  0  0  0  0  0  0  0
  -18.5793  -27.5889   22.0869 C   0  0  0  0  0  0  0  0  0  0  0  0
  -18.7655  -30.0169   22.6284 C   0  0  0  0  0  0  0  0  0  0  0  0
  -20.9838  -29.4436   16.1769 C   0  0  0  0  0  0  0  0  0  0  0  0
  -28.3045  -25.1146   19.6527 C   0  0  0  0  0  0  0  0  0  1  0  0
  -20.4831  -28.9501   21.1105 C   0  0  1  0  0  0  0  0  0  0  0  0
  -18.9820  -29.1117   17.6334 C   0  0  2  0  0  0  0  0  0  0  0  0
  -19.5797  -28.7330   22.3571 C   0  0  0  0  0  0  0  0  0  0  0  0
  -25.9618  -11.7160   20.5797 N   0  0  0  0  0  0  0  0  0  0  0  0
  -27.2294  -12.1619   20.5580 N   0  0  0  0  0  0  0  0  0  0  0  0
  -27.7885  -15.9049   21.1335 N   0  0  0  0  0  0  0  0  0  0  0  0
  -22.8491  -29.6677   21.2160 N   0  0  0  0  0  0  0  0  0  0  0  0
  -29.4759  -11.4838   20.8805 N   0  0  0  0  0  0  0  0  0  0  0  0
  -27.1263   -7.7043   21.6490 N   0  0  0  0  0  0  0  0  0  0  0  0
  -29.8690  -23.4063   20.2534 N   0  0  0  0  0  0  0  0  0  0  0  0
  -25.1688  -31.2004   23.5753 N   0  0  0  0  0  0  0  0  0  0  0  0
  -19.7530  -29.3019   19.8974 N   0  0  0  0  0  0  0  0  0  0  0  0
  -19.6236  -28.8617   16.3117 N   0  3  0  0  0  0  0  0  0  0  0  0
  -29.2334   -8.6072   21.5899 O   0  0  0  0  0  0  0  0  0  0  0  0
  -29.6242  -16.0732   22.5546 O   0  0  0  0  0  0  0  0  0  0  0  0
  -23.7184  -29.3789   23.6028 O   0  0  0  0  0  0  0  0  0  0  0  0
  -21.1180  -31.1900   21.5650 O   0  0  0  0  0  0  0  0  0  0  0  0
  -27.5839  -22.8723   20.1111 O   0  0  0  0  0  0  0  0  0  0  0  0
  -20.5064  -27.5185   18.6210 O   0  0  0  0  0  0  0  0  0  0  0  0
  -21.5877   -7.1607   21.3959 O   0  0  0  0  0  0  0  0  0  0  0  0
  -26.9192  -25.3849   19.4425 O   0  0  0  0  0  0  0  0  0  1  0  0
  -21.3108   -3.8116   25.7675 F   0  0  0  0  0  0  0  0  0  0  0  0
  -23.5175   -5.2286   21.8269 F   0  0  0  0  0  0  0  0  0  0  0  0
  -32.2326  -20.4253   21.2596 S   0  0  0  0  0  0  0  0  0  0  0  0
  1  2  1  0  0  0  0
  1  5  2  0  0  0  0
  2  6  2  0  0  0  0
  3  8  2  0  0  0  0
  3 17  1  0  0  0  0
  4  9  1  0  0  0  0
  4 17  2  0  0  0  0
  5 19  1  0  0  0  0
  6 21  1  0  0  0  0
  7 10  2  0  0  0  0
  7 20  1  0  0  0  0
  8 24  1  0  0  0  0
  9 24  2  0  0  0  0
 10 25  1  0  0  0  0
 11 12  2  0  0  0  0
 11 26  1  0  0  0  0
 12 27  1  0  0  0  0
 13 22  1  0  0  0  0
 13 25  2  0  0  0  0
 14 23  1  0  0  0  0
 14 30  2  0  0  0  0
 15 27  2  0  0  0  0
 15 28  1  0  0  0  0
 16 23  2  0  0  0  0
 16 81  1  0  0  0  0
 17 29  1  0  0  0  0
 18 29  1  0  0  0  0
 18 31  2  0  0  0  0
 18 34  1  0  0  0  0
 19 21  2  0  0  0  0
 19 40  1  0  0  0  0
 20 22  2  0  0  0  0
 20 41  1  0  0  0  0
 21 49  1  0  0  0  0
 22 42  1  0  0  0  0
 23 67  1  0  0  0  0
 24 77  1  0  0  0  0
 25 78  1  0  0  0  0
 26 28  2  0  0  0  0
 26 77  1  0  0  0  0
 27 79  1  0  0  0  0
 28 80  1  0  0  0  0
 29 61  2  0  0  0  0
 30 32  1  0  0  0  0
 30 81  1  0  0  0  0
 31 62  1  0  0  0  0
 31 65  1  0  0  0  0
 32 33  2  0  0  0  0
 33 35  1  0  0  0  0
 34 66  1  0  0  0  0
 34 71  2  0  0  0  0
 35 63  1  0  0  0  0
 35 72  2  0  0  0  0
 36 50  1  0  0  0  0
 36 68  1  0  0  0  0
 36 73  2  0  0  0  0
 37 58  1  0  0  0  0
 37 64  1  0  0  0  0
 37 74  2  0  0  0  0
 38 57  1  0  0  0  0
 38 67  1  0  0  0  0
 38 75  2  0  0  0  0
 39 59  1  0  0  0  0
 39 69  1  0  0  0  0
 39 76  2  0  0  0  0
 40 43  1  0  0  0  0
 41 50  1  0  0  0  0
 42 64  1  0  0  0  0
 43 45  1  0  0  0  0
 44 46  1  0  0  0  0
 44 47  1  0  0  0  0
 45 49  1  0  0  0  0
 46 51  1  0  0  0  0
 47 63  1  0  0  0  0
 48 51  1  0  0  0  0
 48 63  1  0  0  0  0
 49 68  1  0  0  0  0
 50 64  1  0  0  0  0
 51 62  1  0  0  0  0
 52 59  1  0  0  0  0
 53 60  1  0  0  0  0
 54 60  1  0  0  0  0
 55 60  1  0  0  0  0
 56 70  1  0  0  0  0
 57 78  1  0  0  0  0
 58 60  1  0  0  0  0
 58 69  1  0  0  0  0
 59 70  1  0  0  0  0
 61 62  1  0  0  0  0
M  CHG  1  70   1
M  ISO  4  33 100  35 100  57 101  78 101
M  END
> <Batch ID>
0152

> <Smiles>
CNC(C)C(=O)NC(C(=O)N1Cc2cc([101O:1][101CH2:1]C(=O)Nc3csc(C=[100CH:0][100C:0](=O)N4CCCC(n5nc(-c6ccc(Oc7ccc(F)cc7F)cc6)c(C(N)=O)c5N)C4)c3)ccc2CC1C(=O)NC1CCCc2ccccc21)C(C)(C)C

> <Shape>
0.322

> <Color>
0.109

> <Negative vol penalty>
0.000

$$$$

  -OEChem-04052303273D

 83 92  0     1  0  0  0  0  0999 V2000
  -28.0275  -34.7157   15.5109 C   0  0  0  0  0  0  0  0  0  0  0  0
  -28.2760  -33.4947   16.1297 C   0  0  0  0  0  0  0  0  0  0  0  0
  -24.6540   -8.3865   21.4590 C   0  0  0  0  0  0  0  0  0  0  0  0
  -22.9150  -10.0582   21.3242 C   0  0  0  0  0  0  0  0  0  0  0  0
  -27.6084  -35.8079   16.2694 C   0  0  0  0  0  0  0  0  0  0  0  0
  -28.1065  -33.3656   17.5077 C   0  0  0  0  0  0  0  0  0  0  0  0
  -25.6514  -29.1212   18.7738 C   0  0  0  0  0  0  0  0  0  0  0  0
  -23.8743   -7.6471   22.3483 C   0  0  0  0  0  0  0  0  0  0  0  0
  -22.1352   -9.3187   22.2135 C   0  0  0  0  0  0  0  0  0  0  0  0
  -26.3827  -27.9343   18.7597 C   0  0  0  0  0  0  0  0  0  0  0  0
  -21.2365   -5.5377   22.1885 C   0  0  0  0  0  0  0  0  0  0  0  0
  -21.1417   -4.1620   21.9782 C   0  0  0  0  0  0  0  0  0  0  0  0
  -27.9239  -20.9621   19.6130 C   0  0  0  0  0  0  0  0  0  0  0  0
  -26.6308  -28.0659   21.1556 C   0  0  0  0  0  0  0  0  0  0  0  0
  -27.0961  -20.7887   17.3057 C   0  0  0  0  0  0  0  0  0  0  0  0
  -22.0952   -3.7624   24.1618 C   0  0  0  0  0  0  0  0  0  0  0  0
  -24.1744   -9.5922   20.9470 C   0  0  0  0  0  0  0  0  0  0  0  0
  -24.9933  -10.2580   18.6246 C   0  0  0  0  0  0  0  0  0  0  0  0
  -27.4244  -35.6894   17.6561 C   0  0  0  0  0  0  0  0  0  0  0  0
  -25.4132  -29.7962   19.9796 C   0  0  0  0  0  0  0  0  0  0  0  0
  -27.6859  -34.4575   18.2858 C   0  0  0  0  0  0  0  0  0  0  0  0
  -28.0408  -19.5990   19.6017 C   0  0  0  0  0  0  0  0  0  0  0  0
  -25.8940  -29.2598   21.1826 C   0  0  0  0  0  0  0  0  0  0  0  0
  -27.7049  -18.8769   18.4830 C   0  0  0  0  0  0  0  0  0  0  0  0
  -27.4442  -21.5630   18.4401 C   0  0  0  0  0  0  0  0  0  0  0  0
  -27.2218  -19.3984   17.3169 C   0  0  0  0  0  0  0  0  0  0  0  0
  -22.6149   -8.1131   22.7255 C   0  0  0  0  0  0  0  0  0  0  0  0
  -26.8750  -27.4080   19.9504 C   0  0  0  0  0  0  0  0  0  0  0  0
  -21.7608   -6.0257   23.3855 C   0  0  0  0  0  0  0  0  0  0  0  0
  -21.5710   -3.2744   22.9649 C   0  0  0  0  0  0  0  0  0  0  0  0
  -22.1902   -5.1381   24.3721 C   0  0  0  0  0  0  0  0  0  0  0  0
  -24.9796  -10.3568   20.0288 C   0  0  0  0  0  0  0  0  0  0  0  0
  -25.9191  -11.1901   18.2238 C   0  0  0  0  0  0  0  0  0  0  0  0
  -24.2367   -9.4005   17.7598 C   0  0  0  0  0  0  0  0  0  0  0  0
  -26.1721  -32.6581   21.1360 C   0  0  0  0  0  0  0  0  0  0  0  0
  -24.2611  -31.7415   23.5916 C   0  0  0  0  0  0  0  0  0  0  0  0
  -27.5860  -23.8876   19.3941 C   0  0  0  0  0  0  0  0  0  0  0  0
  -22.8496  -29.1928   25.3689 C   0  0  0  0  0  0  0  0  0  0  0  0
  -27.7408  -16.4036   18.6141 C   0  0  0  0  0  0  0  0  0  0  0  0
  -27.0156  -36.9106   18.4411 C   0  0  0  0  0  0  0  0  0  0  0  0
  -24.5997  -31.0614   19.9810 C   0  0  0  0  0  0  0  0  0  0  0  0
  -28.4086  -18.3392   20.3311 C   0  0  0  0  0  0  0  0  0  0  0  0
  -25.6484  -29.9352   22.5062 C   0  0  0  0  0  0  0  0  0  0  0  0
  -26.4992  -36.5899   19.8413 C   0  0  0  0  0  0  0  0  0  0  0  0
  -29.3021  -13.8349   20.8349 C   0  0  0  0  0  0  0  0  0  0  0  0
  -27.4265  -35.5995   20.5384 C   0  0  0  0  0  0  0  0  0  0  0  0
  -28.2518  -12.7341   20.7716 C   0  0  0  0  0  0  0  0  0  0  0  0
  -28.6991  -15.2304   20.6744 C   0  0  0  0  0  0  0  0  0  0  0  0
  -26.8030  -14.2616   19.3940 C   0  0  0  0  0  0  0  0  0  0  0  0
  -27.4896  -34.2712   19.7747 C   0  0  1  0  0  0  0  0  0  0  0  0
  -24.8565  -31.9355   21.2047 C   0  0  1  0  0  0  0  0  0  0  0  0
  -27.4295  -12.8638   19.4835 C   0  0  2  0  0  0  0  0  0  0  0  0
  -21.3660  -28.7545   27.3448 C   0  0  0  0  0  0  0  0  0  0  0  0
  -26.5762  -32.3893   25.4705 C   0  0  0  0  0  0  0  0  0  0  0  0
  -25.4105  -31.0685   27.2495 C   0  0  0  0  0  0  0  0  0  0  0  0
  -24.3281  -33.1054   26.2996 C   0  0  0  0  0  0  0  0  0  0  0  0
  -20.8244  -27.8325   23.6934 C   0  0  0  0  0  0  0  0  0  0  0  0
  -27.2911  -25.3013   18.9282 C   0  0  0  0  0  0  0  0  0  1  0  0
  -24.4720  -31.0086   24.8944 C   0  0  1  0  0  0  0  0  0  0  0  0
  -21.4250  -28.9609   25.8392 C   0  0  2  0  0  0  0  0  0  0  0  0
  -25.2032  -31.8810   25.9535 C   0  0  0  0  0  0  0  0  0  0  0  0
  -25.8294  -11.2786   20.4892 N   0  0  0  0  0  0  0  0  0  0  0  0
  -26.3858  -11.7677   19.3679 N   0  0  0  0  0  0  0  0  0  0  0  0
  -28.0043  -17.6690   19.0782 N   0  0  0  0  0  0  0  0  0  0  0  0
  -24.8530  -31.1730   22.4548 N   0  0  0  0  0  0  0  0  0  0  0  0
  -27.8009  -15.3337   19.5193 N   0  0  0  0  0  0  0  0  0  0  0  0
  -26.8844  -18.6396   16.1951 N   0  0  0  0  0  0  0  0  0  0  0  0
  -26.3715  -11.5636   17.0080 N   0  0  0  0  0  0  0  0  0  0  0  0
  -23.3292   -8.5019   18.3370 N   0  0  0  0  0  0  0  0  0  0  0  0
  -27.3028  -22.9513   18.3895 N   0  0  0  0  0  0  0  0  0  0  0  0
  -26.3046  -33.4821   20.0346 N   0  0  0  0  0  0  0  0  0  0  0  0
  -23.1573  -30.5358   25.3143 N   0  0  0  0  0  0  0  0  0  0  0  0
  -20.8504  -27.7560   25.1768 N   0  3  0  0  0  0  0  0  0  0  0  0
  -24.3736   -9.4188   16.5130 O   0  0  0  0  0  0  0  0  0  0  0  0
  -27.0048  -32.4824   22.0178 O   0  0  0  0  0  0  0  0  0  0  0  0
  -23.5897  -32.7762   23.5817 O   0  0  0  0  0  0  0  0  0  0  0  0
  -28.0161  -23.6587   20.5198 O   0  0  0  0  0  0  0  0  0  0  0  0
  -23.6143  -28.2742   25.0823 O   0  0  0  0  0  0  0  0  0  0  0  0
  -27.4103  -16.2243   17.4333 O   0  0  0  0  0  0  0  0  0  0  0  0
  -21.8537   -7.3917   23.5931 O   0  0  0  0  0  0  0  0  0  0  0  0
  -27.5971  -26.2379   19.9393 O   0  0  0  0  0  0  0  0  0  1  0  0
  -21.4784   -1.9534   22.7634 F   0  0  0  0  0  0  0  0  0  0  0  0
  -22.6936   -5.6010   25.5245 F   0  0  0  0  0  0  0  0  0  0  0  0
  1  2  1  0  0  0  0
  1  5  2  0  0  0  0
  2  6  2  0  0  0  0
  3  8  2  0  0  0  0
  3 17  1  0  0  0  0
  4  9  1  0  0  0  0
  4 17  2  0  0  0  0
  5 19  1  0  0  0  0
  6 21  1  0  0  0  0
  7 10  2  0  0  0  0
  7 20  1  0  0  0  0
  8 27  1  0  0  0  0
  9 27  2  0  0  0  0
 10 28  1  0  0  0  0
 11 12  2  0  0  0  0
 11 29  1  0  0  0  0
 12 30  1  0  0  0  0
 13 22  1  0  0  0  0
 13 25  2  0  0  0  0
 14 23  1  0  0  0  0
 14 28  2  0  0  0  0
 15 25  1  0  0  0  0
 15 26  2  0  0  0  0
 16 30  2  0  0  0  0
 16 31  1  0  0  0  0
 17 32  1  0  0  0  0
 18 32  1  0  0  0  0
 18 33  2  0  0  0  0
 18 34  1  0  0  0  0
 19 21  2  0  0  0  0
 19 40  1  0  0  0  0
 20 23  2  0  0  0  0
 20 41  1  0  0  0  0
 21 50  1  0  0  0  0
 22 24  2  0  0  0  0
 22 42  1  0  0  0  0
 23 43  1  0  0  0  0
 24 26  1  0  0  0  0
 24 64  1  0  0  0  0
 25 70  1  0  0  0  0
 26 67  1  0  0  0  0
 27 80  1  0  0  0  0
 28 81  1  0  0  0  0
 29 31  2  0  0  0  0
 29 80  1  0  0  0  0
 30 82  1  0  0  0  0
 31 83  1  0  0  0  0
 32 62  2  0  0  0  0
 33 63  1  0  0  0  0
 33 68  1  0  0  0  0
 34 69  1  0  0  0  0
 34 74  2  0  0  0  0
 35 51  1  0  0  0  0
 35 71  1  0  0  0  0
 35 75  2  0  0  0  0
 36 59  1  0  0  0  0
 36 65  1  0  0  0  0
 36 76  2  0  0  0  0
 37 58  1  0  0  0  0
 37 70  1  0  0  0  0
 37 77  2  0  0  0  0
 38 60  1  0  0  0  0
 38 72  1  0  0  0  0
 38 78  2  0  0  0  0
 39 64  1  0  0  0  0
 39 66  1  0  0  0  0
 39 79  2  0  0  0  0
 40 44  1  0  0  0  0
 41 51  1  0  0  0  0
 42 64  1  0  0  0  0
 43 65  1  0  0  0  0
 44 46  1  0  0  0  0
 45 47  1  0  0  0  0
 45 48  1  0  0  0  0
 46 50  1  0  0  0  0
 47 52  1  0  0  0  0
 48 66  1  0  0  0  0
 49 52  1  0  0  0  0
 49 66  1  0  0  0  0
 50 71  1  0  0  0  0
 51 65  1  0  0  0  0
 52 63  1  0  0  0  0
 53 60  1  0  0  0  0
 54 61  1  0  0  0  0
 55 61  1  0  0  0  0
 56 61  1  0  0  0  0
 57 73  1  0  0  0  0
 58 81  1  0  0  0  0
 59 61  1  0  0  0  0
 59 72  1  0  0  0  0
 60 73  1  0  0  0  0
 62 63  1  0  0  0  0
M  CHG  1  73   1
M  ISO  4  39 100  58 101  64 100  81 101
M  END
> <Batch ID>
0152

> <Smiles>
CNC(C)C(=O)NC(C(=O)N1Cc2cc([101O:1][101CH2:1]C(=O)Nc3cc(N)c4c(c3)C[100N:0]4[100C:0](=O)N3CCCC(n4nc(-c5ccc(Oc6ccc(F)cc6F)cc5)c(C(N)=O)c4N)C3)ccc2CC1C(=O)NC1CCCc2ccccc21)C(C)(C)C

> <Shape>
0.253

> <Color>
0.089

> <Negative vol penalty>
0.000

$$$$

  -OEChem-04052303273D

 84 93  0     1  0  0  0  0  0999 V2000
  -25.8967  -32.4044   14.8030 C   0  0  0  0  0  0  0  0  0  0  0  0
  -26.3724  -31.1571   15.1943 C   0  0  0  0  0  0  0  0  0  0  0  0
  -23.2370   -9.6389   20.3835 C   0  0  0  0  0  0  0  0  0  0  0  0
  -23.7912  -10.1881   22.6701 C   0  0  0  0  0  0  0  0  0  0  0  0
  -25.8622  -33.4549   15.7191 C   0  0  0  0  0  0  0  0  0  0  0  0
  -26.8149  -30.9597   16.5019 C   0  0  0  0  0  0  0  0  0  0  0  0
  -26.2747  -25.8538   19.8401 C   0  0  0  0  0  0  0  0  0  0  0  0
  -22.5318   -8.5187   20.8234 C   0  0  0  0  0  0  0  0  0  0  0  0
  -23.0859   -9.0679   23.1100 C   0  0  0  0  0  0  0  0  0  0  0  0
  -27.1626  -24.8148   20.1154 C   0  0  0  0  0  0  0  0  0  0  0  0
  -23.5881   -5.7309   23.3174 C   0  0  0  0  0  0  0  0  0  0  0  0
  -24.1879   -4.9270   24.2866 C   0  0  0  0  0  0  0  0  0  0  0  0
  -31.3795  -18.0921   21.0735 C   0  0  0  0  0  0  0  0  0  0  0  0
  -27.7675  -25.8891   22.1888 C   0  0  0  0  0  0  0  0  0  0  0  0
  -22.3366   -5.3474   25.7810 C   0  0  0  0  0  0  0  0  0  0  0  0
  -23.8667  -10.4735   21.3068 C   0  0  0  0  0  0  0  0  0  0  0  0
  -31.3473  -19.4665   21.4479 C   0  0  0  0  0  0  0  0  0  0  0  0
  -24.0929  -12.9314   20.6625 C   0  0  0  0  0  0  0  0  0  0  0  0
  -26.2955  -33.2677   17.0412 C   0  0  0  0  0  0  0  0  0  0  0  0
  -26.1343  -26.9256   20.7334 C   0  0  0  0  0  0  0  0  0  0  0  0
  -26.7874  -32.0090   17.4362 C   0  0  0  0  0  0  0  0  0  0  0  0
  -26.8752  -26.9392   21.9238 C   0  0  0  0  0  0  0  0  0  0  0  0
  -22.4562   -8.2333   22.1867 C   0  0  0  0  0  0  0  0  0  0  0  0
  -27.9113  -24.8338   21.2885 C   0  0  0  0  0  0  0  0  0  0  0  0
  -22.3625   -6.3432   23.5800 C   0  0  0  0  0  0  0  0  0  0  0  0
  -23.5622   -4.7352   25.5185 C   0  0  0  0  0  0  0  0  0  0  0  0
  -21.7368   -6.1514   24.8118 C   0  0  0  0  0  0  0  0  0  0  0  0
  -24.5959  -11.6305   20.8529 C   0  0  0  0  0  0  0  0  0  0  0  0
  -25.1745  -13.6574   20.2270 C   0  0  0  0  0  0  0  0  0  0  0  0
  -30.1296  -19.8295   21.9798 C   0  0  0  0  0  0  0  0  0  0  0  0
  -30.1851  -17.4569   21.3337 C   0  0  0  0  0  0  0  0  0  0  0  0
  -32.4650  -20.3553   21.2821 C   0  0  0  0  0  0  0  0  0  0  0  0
  -22.7667  -13.4385   20.8617 C   0  0  0  0  0  0  0  0  0  0  0  0
  -26.6339  -30.0605   20.5719 C   0  0  0  0  0  0  0  0  0  0  0  0
  -25.2970  -30.0322   23.5273 C   0  0  0  0  0  0  0  0  0  0  0  0
  -24.5820  -28.2796   26.3670 C   0  0  0  0  0  0  0  0  0  0  0  0
  -30.5460  -15.0809   20.5783 C   0  0  0  0  0  0  0  0  0  0  0  0
  -26.2835  -34.4458   17.9827 C   0  0  0  0  0  0  0  0  0  0  0  0
  -25.1525  -28.0252   20.4346 C   0  0  0  0  0  0  0  0  0  0  0  0
  -26.7463  -28.0567   22.9253 C   0  0  0  0  0  0  0  0  0  0  0  0
  -26.4204  -34.0531   19.4515 C   0  0  0  0  0  0  0  0  0  0  0  0
  -29.7643  -12.1466   18.7193 C   0  0  0  0  0  0  0  0  0  0  0  0
  -27.5449  -33.0380   19.6301 C   0  0  0  0  0  0  0  0  0  0  0  0
  -28.3086  -11.8577   19.0930 C   0  0  0  0  0  0  0  0  0  0  0  0
  -29.7930  -23.1086   23.6333 C   0  0  0  0  0  0  0  0  0  0  0  0
  -30.5579  -12.6884   19.9069 C   0  0  0  0  0  0  0  0  0  0  0  0
  -30.6967  -22.0381   23.0216 C   0  0  0  0  0  0  0  0  0  0  0  0
  -28.5036  -13.5621   20.9488 C   0  0  0  0  0  0  0  0  0  0  0  0
  -28.3972  -21.5978   22.3975 C   0  0  0  0  0  0  0  0  0  0  0  0
  -27.2530  -31.7490   18.8524 C   0  0  1  0  0  0  0  0  0  0  0  0
  -25.4684  -29.3242   21.1695 C   0  0  1  0  0  0  0  0  0  0  0  0
  -27.6477  -13.0756   19.7679 C   0  0  2  0  0  0  0  0  0  0  0  0
  -28.5538  -23.0762   22.7506 C   0  0  2  0  0  0  0  0  0  1  0  0
  -23.5145  -28.5356   28.6236 C   0  0  0  0  0  0  0  0  0  0  0  0
  -27.7599  -31.5357   24.5190 C   0  0  0  0  0  0  0  0  0  0  0  0
  -27.1024  -30.9292   26.8575 C   0  0  0  0  0  0  0  0  0  0  0  0
  -25.5916  -32.3454   25.4665 C   0  0  0  0  0  0  0  0  0  0  0  0
  -22.5405  -26.2238   25.7631 C   0  0  0  0  0  0  0  0  0  0  0  0
  -25.8197  -29.8840   24.9357 C   0  0  1  0  0  0  0  0  0  0  0  0
  -23.3012  -28.1421   27.1702 C   0  0  2  0  0  0  0  0  0  0  0  0
  -26.5725  -31.1533   25.4251 C   0  0  0  0  0  0  0  0  0  0  0  0
  -25.8958  -11.5324   20.5620 N   0  0  0  0  0  0  0  0  0  0  0  0
  -26.2188  -12.7811   20.1842 N   0  0  0  0  0  0  0  0  0  0  0  0
  -29.7643  -21.0772   22.4398 N   0  0  3  0  0  0  0  0  0  0  0  0
  -25.7778  -29.1120   22.5850 N   0  0  0  0  0  0  0  0  0  0  0  0
  -29.8739  -13.8433   20.4927 N   0  0  0  0  0  0  0  0  0  0  0  0
  -25.3246  -14.9533   19.8800 N   0  0  0  0  0  0  0  0  0  0  0  0
  -33.3801  -20.5023   22.2609 N   0  0  0  0  0  0  0  0  0  0  0  0
  -21.7751  -12.5568   21.3130 N   0  0  0  0  0  0  0  0  0  0  0  0
  -29.7845  -16.1141   21.1233 N   0  0  0  0  0  0  0  0  0  0  0  0
  -26.2872  -30.9380   19.5623 N   0  0  0  0  0  0  0  0  0  0  0  0
  -24.6739  -29.5140   25.7595 N   0  0  0  0  0  0  0  0  0  0  0  0
  -32.6231  -21.0595   20.1437 N   0  3  0  0  0  0  0  0  0  0  0  0
  -22.8139  -26.7343   27.1312 N   0  3  0  0  0  0  0  0  0  0  0  0
  -22.4659  -14.6341   20.6302 O   0  0  0  0  0  0  0  0  0  0  0  0
  -27.7639  -29.8493   20.9964 O   0  0  0  0  0  0  0  0  0  0  0  0
  -24.4863  -30.9268   23.2741 O   0  0  0  0  0  0  0  0  0  0  0  0
  -25.4191  -27.3831   26.2895 O   0  0  0  0  0  0  0  0  0  0  0  0
  -31.7021  -15.2210   20.1711 O   0  0  0  0  0  0  0  0  0  0  0  0
  -21.7679   -7.1405   22.6164 O   0  0  0  0  0  0  0  0  0  0  0  0
  -28.7792  -23.8212   21.5593 O   0  0  0  0  0  0  0  0  0  1  0  0
  -24.1375   -3.9619   26.4486 F   0  0  0  0  0  0  0  0  0  0  0  0
  -20.5588   -6.7361   25.0694 F   0  0  0  0  0  0  0  0  0  0  0  0
  -29.0316  -18.5162   22.0264 S   0  0  0  0  0  0  0  0  0  0  0  0
  1  2  1  0  0  0  0
  1  5  2  0  0  0  0
  2  6  2  0  0  0  0
  3  8  2  0  0  0  0
  3 16  1  0  0  0  0
  4  9  1  0  0  0  0
  4 16  2  0  0  0  0
  5 19  1  0  0  0  0
  6 21  1  0  0  0  0
  7 10  2  0  0  0  0
  7 20  1  0  0  0  0
  8 23  1  0  0  0  0
  9 23  2  0  0  0  0
 10 24  1  0  0  0  0
 11 12  2  0  0  0  0
 11 25  1  0  0  0  0
 12 26  1  0  0  0  0
 13 17  1  0  0  0  0
 13 31  2  0  0  0  0
 14 22  1  0  0  0  0
 14 24  2  0  0  0  0
 15 26  2  0  0  0  0
 15 27  1  0  0  0  0
 16 28  1  0  0  0  0
 17 30  2  0  0  0  0
 17 32  1  0  0  0  0
 18 28  1  0  0  0  0
 18 29  2  0  0  0  0
 18 33  1  0  0  0  0
 19 21  2  0  0  0  0
 19 38  1  0  0  0  0
 20 22  2  0  0  0  0
 20 39  1  0  0  0  0
 21 50  1  0  0  0  0
 22 40  1  0  0  0  0
 23 80  1  0  0  0  0
 24 81  1  0  0  0  0
 25 27  2  0  0  0  0
 25 80  1  0  0  0  0
 26 82  1  0  0  0  0
 27 83  1  0  0  0  0
 28 62  2  0  0  0  0
 29 63  1  0  0  0  0
 29 67  1  0  0  0  0
 30 64  1  0  0  0  0
 30 84  1  0  0  0  0
 31 70  1  0  0  0  0
 31 84  1  0  0  0  0
 32 68  1  0  0  0  0
 32 73  2  0  0  0  0
 33 69  1  0  0  0  0
 33 75  2  0  0  0  0
 34 51  1  0  0  0  0
 34 71  1  0  0  0  0
 34 76  2  0  0  0  0
 35 59  1  0  0  0  0
 35 65  1  0  0  0  0
 35 77  2  0  0  0  0
 36 60  1  0  0  0  0
 36 72  1  0  0  0  0
 36 78  2  0  0  0  0
 37 66  1  0  0  0  0
 37 70  1  0  0  0  0
 37 79  2  0  0  0  0
 38 41  1  0  0  0  0
 39 51  1  0  0  0  0
 40 65  1  0  0  0  0
 41 43  1  0  0  0  0
 42 44  1  0  0  0  0
 42 46  1  0  0  0  0
 43 50  1  0  0  0  0
 44 52  1  0  0  0  0
 45 47  1  0  0  0  0
 45 53  1  0  0  0  0
 46 66  1  0  0  0  0
 47 64  1  0  0  0  0
 48 52  1  0  0  0  0
 48 66  1  0  0  0  0
 49 53  1  0  0  0  0
 49 64  1  0  0  0  0
 50 71  1  0  0  0  0
 51 65  1  0  0  0  0
 52 63  1  0  0  0  0
 53 81  1  0  0  0  0
 54 60  1  0  0  0  0
 55 61  1  0  0  0  0
 56 61  1  0  0  0  0
 57 61  1  0  0  0  0
 58 74  1  0  0  0  0
 59 61  1  0  0  0  0
 59 72  1  0  0  0  0
 60 74  1  0  0  0  0
 62 63  1  0  0  0  0
M  CHG  2  73   1  74   1
M  ISO  4  37 100  53 101  70 100  81 101
M  END
> <Batch ID>
0152

> <Smiles>
CNC(C)C(=O)NC(C(=O)N1Cc2cc([101O:1][101CH:1]3CCN(c4sc([100NH:0][100C:0](=O)N5CCCC(n6nc(-c7ccc(Oc8ccc(F)cc8F)cc7)c(C(N)=O)c6N)C5)cc4C(=N)N)C3)ccc2CC1C(=O)NC1CCCc2ccccc21)C(C)(C)C

> <Shape>
0.266

> <Color>
0.176

> <Negative vol penalty>
0.000

$$$$

  -OEChem-04052303273D

 82 91  0     1  0  0  0  0  0999 V2000
  -27.0200  -37.0284   20.3364 C   0  0  0  0  0  0  0  0  0  0  0  0
  -27.4832  -35.7978   19.8820 C   0  0  0  0  0  0  0  0  0  0  0  0
  -23.2117  -10.1401   19.8074 C   0  0  0  0  0  0  0  0  0  0  0  0
  -23.8728   -9.7349   22.0956 C   0  0  0  0  0  0  0  0  0  0  0  0
  -26.4216  -37.1264   21.5919 C   0  0  0  0  0  0  0  0  0  0  0  0
  -27.3492  -34.6646   20.6834 C   0  0  0  0  0  0  0  0  0  0  0  0
  -26.2927  -28.9319   18.8057 C   0  0  0  0  0  0  0  0  0  0  0  0
  -22.5010   -8.9400   19.8002 C   0  0  0  0  0  0  0  0  0  0  0  0
  -23.1620   -8.5347   22.0884 C   0  0  0  0  0  0  0  0  0  0  0  0
  -27.1369  -27.8415   18.6003 C   0  0  0  0  0  0  0  0  0  0  0  0
  -23.5988   -5.3876   20.9327 C   0  0  0  0  0  0  0  0  0  0  0  0
  -24.2207   -4.2629   21.4747 C   0  0  0  0  0  0  0  0  0  0  0  0
  -26.6066  -27.0230   20.8067 C   0  0  0  0  0  0  0  0  0  0  0  0
  -28.7378  -20.4217   18.3192 C   0  0  0  0  0  0  0  0  0  0  0  0
  -22.4432   -4.0626   23.0987 C   0  0  0  0  0  0  0  0  0  0  0  0
  -23.8977  -10.5376   20.9551 C   0  0  0  0  0  0  0  0  0  0  0  0
  -24.1509  -13.0485   21.3276 C   0  0  0  0  0  0  0  0  0  0  0  0
  -26.2714  -35.9919   22.4050 C   0  0  0  0  0  0  0  0  0  0  0  0
  -25.6064  -29.0820   20.0193 C   0  0  0  0  0  0  0  0  0  0  0  0
  -26.7494  -34.7477   21.9515 C   0  0  0  0  0  0  0  0  0  0  0  0
  -25.7523  -28.1148   21.0240 C   0  0  0  0  0  0  0  0  0  0  0  0
  -28.7436  -19.0123   18.3135 C   0  0  0  0  0  0  0  0  0  0  0  0
  -22.4761   -8.1373   20.9406 C   0  0  0  0  0  0  0  0  0  0  0  0
  -27.2962  -26.8884   19.6020 C   0  0  0  0  0  0  0  0  0  0  0  0
  -22.3991   -5.8499   21.4737 C   0  0  0  0  0  0  0  0  0  0  0  0
  -23.6429   -3.6003   22.5576 C   0  0  0  0  0  0  0  0  0  0  0  0
  -21.8213   -5.1874   22.5567 C   0  0  0  0  0  0  0  0  0  0  0  0
  -24.6325  -11.7770   20.9630 C   0  0  0  0  0  0  0  0  0  0  0  0
  -28.1568  -18.4884   19.4283 C   0  0  0  0  0  0  0  0  0  0  0  0
  -25.2290  -13.8837   21.1649 C   0  0  0  0  0  0  0  0  0  0  0  0
  -28.1281  -20.9011   19.4681 C   0  0  0  0  0  0  0  0  0  0  0  0
  -22.8456  -13.4397   21.7735 C   0  0  0  0  0  0  0  0  0  0  0  0
  -25.5956  -31.2585   22.3358 C   0  0  0  0  0  0  0  0  0  0  0  0
  -23.1473  -29.4633   23.4783 C   0  0  0  0  0  0  0  0  0  0  0  0
  -28.2345  -23.4065   19.2550 C   0  0  0  0  0  0  0  0  0  0  0  0
  -21.5889  -26.4295   23.5976 C   0  0  0  0  0  0  0  0  0  0  0  0
  -29.4924  -15.5042   17.8605 C   0  0  0  0  0  0  0  0  0  0  0  0
  -25.6607  -36.1559   23.7742 C   0  0  0  0  0  0  0  0  0  0  0  0
  -24.6787  -30.2497   20.2150 C   0  0  0  0  0  0  0  0  0  0  0  0
  -25.0222  -28.2192   22.3372 C   0  0  0  0  0  0  0  0  0  0  0  0
  -29.2296  -17.9493   17.4157 C   0  0  0  0  0  0  0  0  0  0  0  0
  -28.1339  -17.0154   19.4511 C   0  0  0  0  0  0  0  0  0  0  0  0
  -25.2188  -34.8383   24.4059 C   0  0  0  0  0  0  0  0  0  0  0  0
  -30.1116  -12.8564   20.3286 C   0  0  0  0  0  0  0  0  0  0  0  0
  -26.3105  -33.7831   24.2586 C   0  0  0  0  0  0  0  0  0  0  0  0
  -28.6950  -12.4170   20.7053 C   0  0  0  0  0  0  0  0  0  0  0  0
  -30.1895  -13.3721   18.8931 C   0  0  0  0  0  0  0  0  0  0  0  0
  -27.8010  -13.9733   18.9367 C   0  0  0  0  0  0  0  0  0  0  0  0
  -26.5998  -33.4910   22.7813 C   0  0  1  0  0  0  0  0  0  0  0  0
  -24.4276  -30.5735   21.6845 C   0  0  1  0  0  0  0  0  0  0  0  0
  -27.6670  -13.5227   20.3973 C   0  0  1  0  0  0  0  0  0  0  0  0
  -19.6317  -25.2602   24.6461 C   0  0  0  0  0  0  0  0  0  0  0  0
  -24.6586  -29.3117   26.1246 C   0  0  0  0  0  0  0  0  0  0  0  0
  -23.1746  -27.4058   26.7830 C   0  0  0  0  0  0  0  0  0  0  0  0
  -22.1921  -29.6575   26.3503 C   0  0  0  0  0  0  0  0  0  0  0  0
  -20.3779  -25.8444   20.9613 C   0  0  0  0  0  0  0  0  0  0  0  0
  -27.8010  -24.6117   20.0687 C   0  0  0  0  0  0  0  0  0  1  0  0
  -23.0330  -28.2777   24.4058 C   0  0  1  0  0  0  0  0  0  0  0  0
  -20.1305  -26.0394   23.4391 C   0  0  2  0  0  0  0  0  0  0  0  0
  -23.2800  -28.6619   25.8920 C   0  0  0  0  0  0  0  0  0  0  0  0
  -25.9167  -11.7977   20.5962 N   0  0  0  0  0  0  0  0  0  0  0  0
  -26.2510  -13.0925   20.7294 N   0  0  0  0  0  0  0  0  0  0  0  0
  -24.1316  -29.3824   22.4831 N   0  0  0  0  0  0  0  0  0  0  0  0
  -28.8796  -16.7192   18.1863 N   0  0  0  0  0  0  0  0  0  0  0  0
  -29.1752  -14.3974   18.6540 N   0  0  0  0  0  0  0  0  0  0  0  0
  -25.3930  -15.2104   21.3532 N   0  0  0  0  0  0  0  0  0  0  0  0
  -21.8545  -12.4550   21.8846 N   0  0  0  0  0  0  0  0  0  0  0  0
  -27.9010  -22.1816   19.8914 N   0  0  0  0  0  0  0  0  0  0  0  0
  -25.5734  -32.6357   22.2249 N   0  0  0  0  0  0  0  0  0  0  0  0
  -21.7244  -27.6850   24.1514 N   0  0  0  0  0  0  0  0  0  0  0  0
  -19.9496  -25.1930   22.2259 N   0  3  0  0  0  0  0  0  0  0  0  0
  -22.5618  -14.6301   22.0491 O   0  0  0  0  0  0  0  0  0  0  0  0
  -26.4526  -30.5874   22.8986 O   0  0  0  0  0  0  0  0  0  0  0  0
  -22.3864  -30.4228   23.6268 O   0  0  0  0  0  0  0  0  0  0  0  0
  -28.8051  -23.5311   18.1764 O   0  0  0  0  0  0  0  0  0  0  0  0
  -22.5153  -25.6926   23.2670 O   0  0  0  0  0  0  0  0  0  0  0  0
  -30.3211  -15.4247   16.9450 O   0  0  0  0  0  0  0  0  0  0  0  0
  -21.7825   -6.9662   20.9340 O   0  0  0  0  0  0  0  0  0  0  0  0
  -28.1287  -25.8124   19.4023 O   0  0  0  0  0  0  0  0  0  1  0  0
  -24.2394   -2.5193   23.0770 F   0  0  0  0  0  0  0  0  0  0  0  0
  -20.6682   -5.6261   23.0800 F   0  0  0  0  0  0  0  0  0  0  0  0
  -27.5832  -19.6285   20.5075 S   0  0  0  0  0  0  0  0  0  0  0  0
  1  2  1  0  0  0  0
  1  5  2  0  0  0  0
  2  6  2  0  0  0  0
  3  8  2  0  0  0  0
  3 16  1  0  0  0  0
  4  9  1  0  0  0  0
  4 16  2  0  0  0  0
  5 18  1  0  0  0  0
  6 20  1  0  0  0  0
  7 10  2  0  0  0  0
  7 19  1  0  0  0  0
  8 23  1  0  0  0  0
  9 23  2  0  0  0  0
 10 24  1  0  0  0  0
 11 12  2  0  0  0  0
 11 25  1  0  0  0  0
 12 26  1  0  0  0  0
 13 21  1  0  0  0  0
 13 24  2  0  0  0  0
 14 22  1  0  0  0  0
 14 31  2  0  0  0  0
 15 26  2  0  0  0  0
 15 27  1  0  0  0  0
 16 28  1  0  0  0  0
 17 28  1  0  0  0  0
 17 30  2  0  0  0  0
 17 32  1  0  0  0  0
 18 20  2  0  0  0  0
 18 38  1  0  0  0  0
 19 21  2  0  0  0  0
 19 39  1  0  0  0  0
 20 49  1  0  0  0  0
 21 40  1  0  0  0  0
 22 29  2  0  0  0  0
 22 41  1  0  0  0  0
 23 78  1  0  0  0  0
 24 79  1  0  0  0  0
 25 27  2  0  0  0  0
 25 78  1  0  0  0  0
 26 80  1  0  0  0  0
 27 81  1  0  0  0  0
 28 61  2  0  0  0  0
 29 42  1  0  0  0  0
 29 82  1  0  0  0  0
 30 62  1  0  0  0  0
 30 66  1  0  0  0  0
 31 68  1  0  0  0  0
 31 82  1  0  0  0  0
 32 67  1  0  0  0  0
 32 72  2  0  0  0  0
 33 50  1  0  0  0  0
 33 69  1  0  0  0  0
 33 73  2  0  0  0  0
 34 58  1  0  0  0  0
 34 63  1  0  0  0  0
 34 74  2  0  0  0  0
 35 57  1  0  0  0  0
 35 68  1  0  0  0  0
 35 75  2  0  0  0  0
 36 59  1  0  0  0  0
 36 70  1  0  0  0  0
 36 76  2  0  0  0  0
 37 64  1  0  0  0  0
 37 65  1  0  0  0  0
 37 77  2  0  0  0  0
 38 43  1  0  0  0  0
 39 50  1  0  0  0  0
 40 63  1  0  0  0  0
 41 64  1  0  0  0  0
 42 64  1  0  0  0  0
 43 45  1  0  0  0  0
 44 46  1  0  0  0  0
 44 47  1  0  0  0  0
 45 49  1  0  0  0  0
 46 51  1  0  0  0  0
 47 65  1  0  0  0  0
 48 51  1  0  0  0  0
 48 65  1  0  0  0  0
 49 69  1  0  0  0  0
 50 63  1  0  0  0  0
 51 62  1  0  0  0  0
 52 59  1  0  0  0  0
 53 60  1  0  0  0  0
 54 60  1  0  0  0  0
 55 60  1  0  0  0  0
 56 71  1  0  0  0  0
 57 79  1  0  0  0  0
 58 60  1  0  0  0  0
 58 70  1  0  0  0  0
 59 71  1  0  0  0  0
 61 62  1  0  0  0  0
M  CHG  1  71   1
M  ISO  4  37 100  57 101  64 100  79 101
M  END
> <Batch ID>
0152

> <Smiles>
CNC(C)C(=O)NC(C(=O)N1Cc2cc([101O:1][101CH2:1]C(=O)Nc3cc4c(s3)C[100N:0]([100C:0](=O)N3CCCC(n5nc(-c6ccc(Oc7ccc(F)cc7F)cc6)c(C(N)=O)c5N)C3)C4)ccc2CC1C(=O)NC1CCCc2ccccc21)C(C)(C)C

> <Shape>
0.337

> <Color>
0.166

> <Negative vol penalty>
0.000

$$$$

  -OEChem-04052303273D

 88 97  0     1  0  0  0  0  0999 V2000
  -16.5698  -29.8969   24.3244 C   0  0  0  0  0  0  0  0  0  0  0  0
  -17.4893  -29.0761   24.9695 C   0  0  0  0  0  0  0  0  0  0  0  0
  -33.2916  -16.7200   23.3364 C   0  0  0  0  0  0  0  0  0  0  0  0
  -22.8578  -10.2197   20.0124 C   0  0  0  0  0  0  0  0  0  0  0  0
  -23.7219  -10.0492   22.2621 C   0  0  0  0  0  0  0  0  0  0  0  0
  -32.6191  -17.6245   24.1581 C   0  0  0  0  0  0  0  0  0  0  0  0
  -16.5817  -29.9968   22.9338 C   0  0  0  0  0  0  0  0  0  0  0  0
  -18.4206  -28.3538   24.2242 C   0  0  0  0  0  0  0  0  0  0  0  0
  -25.1389  -25.8906   24.5609 C   0  0  0  0  0  0  0  0  0  0  0  0
  -32.5773  -15.9388   22.4279 C   0  0  0  0  0  0  0  0  0  0  0  0
  -22.0167   -9.1333   20.2531 C   0  0  0  0  0  0  0  0  0  0  0  0
  -22.8807   -8.9628   22.5029 C   0  0  0  0  0  0  0  0  0  0  0  0
  -25.8620  -24.7090   24.4037 C   0  0  0  0  0  0  0  0  0  0  0  0
  -19.6217   -8.4529   23.2373 C   0  0  0  0  0  0  0  0  0  0  0  0
  -18.9205   -8.4328   24.4429 C   0  0  0  0  0  0  0  0  0  0  0  0
  -30.5181  -16.9665   23.1630 C   0  0  0  0  0  0  0  0  0  0  0  0
  -25.8400  -25.0209   22.0117 C   0  0  0  0  0  0  0  0  0  0  0  0
  -19.9986   -6.3534   25.0353 C   0  0  0  0  0  0  0  0  0  0  0  0
  -23.7104  -10.6776   21.0169 C   0  0  0  0  0  0  0  0  0  0  0  0
  -31.2324  -17.7477   24.0714 C   0  0  0  0  0  0  0  0  0  0  0  0
  -24.2930  -13.1610   20.9822 C   0  0  0  0  0  0  0  0  0  0  0  0
  -17.5198  -29.2828   22.1717 C   0  0  0  0  0  0  0  0  0  0  0  0
  -24.7509  -26.6418   23.4421 C   0  0  0  0  0  0  0  0  0  0  0  0
  -18.4441  -28.4431   22.8220 C   0  0  0  0  0  0  0  0  0  0  0  0
  -25.1143  -26.2130   22.1576 C   0  0  0  0  0  0  0  0  0  0  0  0
  -31.1906  -16.0620   22.3412 C   0  0  0  0  0  0  0  0  0  0  0  0
  -22.0281   -8.5049   21.4983 C   0  0  0  0  0  0  0  0  0  0  0  0
  -26.2102  -24.2725   23.1288 C   0  0  0  0  0  0  0  0  0  0  0  0
  -20.5113   -7.4232   22.9306 C   0  0  0  0  0  0  0  0  0  0  0  0
  -19.1090   -7.3831   25.3419 C   0  0  0  0  0  0  0  0  0  0  0  0
  -20.6998   -6.3735   23.8296 C   0  0  0  0  0  0  0  0  0  0  0  0
  -24.5799  -11.7994   20.7687 C   0  0  0  0  0  0  0  0  0  0  0  0
  -25.4352  -13.8176   20.5942 C   0  0  0  0  0  0  0  0  0  0  0  0
  -30.5210  -18.7035   24.9389 C   0  0  0  0  0  0  0  0  0  0  0  0
  -23.1005  -13.7771   21.4864 C   0  0  0  0  0  0  0  0  0  0  0  0
  -21.9662  -27.5233   22.1882 C   0  0  0  0  0  0  0  0  0  0  0  0
  -23.8547  -29.2369   20.1833 C   0  0  0  0  0  0  0  0  0  0  0  0
  -26.9088  -29.6361   18.7137 C   0  0  0  0  0  0  0  0  0  0  0  0
  -30.9799  -14.3232   20.5306 C   0  0  0  0  0  0  0  0  0  0  0  0
  -17.4632  -29.3861   20.6681 C   0  0  0  0  0  0  0  0  0  0  0  0
  -23.9942  -27.9281   23.6302 C   0  0  0  0  0  0  0  0  0  0  0  0
  -24.7395  -26.9937   20.9253 C   0  0  0  0  0  0  0  0  0  0  0  0
  -18.7247  -28.8778   19.9747 C   0  0  0  0  0  0  0  0  0  0  0  0
  -29.5231  -12.1380   18.1264 C   0  0  0  0  0  0  0  0  0  0  0  0
  -19.1506  -27.5347   20.5590 C   0  0  0  0  0  0  0  0  0  0  0  0
  -28.0836  -11.9671   18.6171 C   0  0  0  0  0  0  0  0  0  0  0  0
  -29.3183  -21.5009   22.9877 C   0  0  0  0  0  0  0  0  0  0  0  0
  -30.5119  -12.2228   19.2878 C   0  0  0  0  0  0  0  0  0  0  0  0
  -30.1871  -20.2535   23.0838 C   0  0  0  0  0  0  0  0  0  0  0  0
  -28.7526  -13.0639   20.7934 C   0  0  0  0  0  0  0  0  0  0  0  0
  -19.4858  -27.6630   22.0499 C   0  0  1  0  0  0  0  0  0  0  0  0
  -23.2076  -28.3452   22.3914 C   0  0  1  0  0  0  0  0  0  0  0  0
  -27.7131  -13.0388   19.6610 C   0  0  2  0  0  0  0  0  0  0  0  0
  -28.0371  -21.1378   23.7691 C   0  0  2  0  0  0  0  0  0  0  0  0
  -28.6100  -20.3305   24.9948 C   0  0  0  0  0  0  0  0  0  0  0  0
  -27.1202  -20.2877   22.8606 C   0  0  0  0  0  0  0  0  0  0  0  0
  -27.6424  -19.2789   25.5470 C   0  0  0  0  0  0  0  0  0  0  0  0
  -29.1131  -21.2176   26.1464 C   0  0  0  0  0  0  0  0  0  0  0  0
  -28.1380  -31.1055   17.0928 C   0  0  0  0  0  0  0  0  0  0  0  0
  -22.3969  -27.8936   17.8638 C   0  0  0  0  0  0  0  0  0  0  0  0
  -24.2496  -28.6439   16.3562 C   0  0  0  0  0  0  0  0  0  0  0  0
  -22.8467  -30.3324   17.5409 C   0  0  0  0  0  0  0  0  0  0  0  0
  -28.8861  -30.4406   20.7635 C   0  0  0  0  0  0  0  0  0  0  0  0
  -27.2656  -22.4063   24.1580 C   0  0  0  0  0  0  0  0  0  1  0  0
  -24.5230  -28.9713   18.8560 C   0  0  1  0  0  0  0  0  0  0  0  0
  -27.7980  -30.8560   18.5540 C   0  0  2  0  0  0  0  0  0  0  0  0
  -23.5096  -28.9444   17.6771 C   0  0  0  0  0  0  0  0  0  0  0  0
  -25.8081  -11.6014   20.2825 N   0  0  0  0  0  0  0  0  0  0  0  0
  -26.3030  -12.8472   20.1873 N   0  0  0  0  0  0  0  0  0  0  0  0
  -29.8122  -19.6778   24.3894 N   0  0  0  0  0  0  0  0  0  0  0  0
  -23.9944  -28.2415   21.1608 N   0  0  0  0  0  0  0  0  0  0  0  0
  -30.0990  -13.2617   20.2339 N   0  0  0  0  0  0  0  0  0  0  0  0
  -25.7719  -15.1246   20.5647 N   0  0  0  0  0  0  0  0  0  0  0  0
  -22.0211  -12.9551   21.8379 N   0  0  0  0  0  0  0  0  0  0  0  0
  -30.4659  -15.2681   21.4181 N   0  0  0  0  0  0  0  0  0  0  0  0
  -20.7947  -28.2553   22.2244 N   0  0  0  0  0  0  0  0  0  0  0  0
  -25.5723  -29.9755   18.7191 N   0  0  0  0  0  0  0  0  0  0  0  0
  -30.6006  -18.5715   26.2597 N   0  3  0  0  0  0  0  0  0  0  0  0
  -29.0704  -30.6717   19.3077 N   0  3  0  0  0  0  0  0  0  0  0  0
  -22.9895  -15.0208   21.6058 O   0  0  0  0  0  0  0  0  0  0  0  0
  -22.0641  -26.3148   22.0103 O   0  0  0  0  0  0  0  0  0  0  0  0
  -23.2376  -30.2921   20.3492 O   0  0  0  0  0  0  0  0  0  0  0  0
  -27.3549  -28.4958   18.8191 O   0  0  0  0  0  0  0  0  0  0  0  0
  -32.0968  -14.4035   20.0129 O   0  0  0  0  0  0  0  0  0  0  0  0
  -21.2073   -7.4449   21.7336 O   0  0  0  0  0  0  0  0  0  0  0  0
  -26.9154  -23.1192   22.9725 O   0  0  0  0  0  0  0  0  0  1  0  0
  -18.4367   -7.3647   26.5003 F   0  0  0  0  0  0  0  0  0  0  0  0
  -21.5540   -5.3820   23.5411 F   0  0  0  0  0  0  0  0  0  0  0  0
  1  2  1  0  0  0  0
  1  7  2  0  0  0  0
  2  8  2  0  0  0  0
  3  6  2  0  0  0  0
  3 10  1  0  0  0  0
  4 11  2  0  0  0  0
  4 19  1  0  0  0  0
  5 12  1  0  0  0  0
  5 19  2  0  0  0  0
  6 20  1  0  0  0  0
  7 22  1  0  0  0  0
  8 24  1  0  0  0  0
  9 13  2  0  0  0  0
  9 23  1  0  0  0  0
 10 26  2  0  0  0  0
 11 27  1  0  0  0  0
 12 27  2  0  0  0  0
 13 28  1  0  0  0  0
 14 15  2  0  0  0  0
 14 29  1  0  0  0  0
 15 30  1  0  0  0  0
 16 20  2  0  0  0  0
 16 26  1  0  0  0  0
 17 25  1  0  0  0  0
 17 28  2  0  0  0  0
 18 30  2  0  0  0  0
 18 31  1  0  0  0  0
 19 32  1  0  0  0  0
 20 34  1  0  0  0  0
 21 32  1  0  0  0  0
 21 33  2  0  0  0  0
 21 35  1  0  0  0  0
 22 24  2  0  0  0  0
 22 40  1  0  0  0  0
 23 25  2  0  0  0  0
 23 41  1  0  0  0  0
 24 51  1  0  0  0  0
 25 42  1  0  0  0  0
 26 75  1  0  0  0  0
 27 85  1  0  0  0  0
 28 86  1  0  0  0  0
 29 31  2  0  0  0  0
 29 85  1  0  0  0  0
 30 87  1  0  0  0  0
 31 88  1  0  0  0  0
 32 68  2  0  0  0  0
 33 69  1  0  0  0  0
 33 73  1  0  0  0  0
 34 70  1  0  0  0  0
 34 78  2  0  0  0  0
 35 74  1  0  0  0  0
 35 80  2  0  0  0  0
 36 52  1  0  0  0  0
 36 76  1  0  0  0  0
 36 81  2  0  0  0  0
 37 65  1  0  0  0  0
 37 71  1  0  0  0  0
 37 82  2  0  0  0  0
 38 66  1  0  0  0  0
 38 77  1  0  0  0  0
 38 83  2  0  0  0  0
 39 72  1  0  0  0  0
 39 75  1  0  0  0  0
 39 84  2  0  0  0  0
 40 43  1  0  0  0  0
 41 52  1  0  0  0  0
 42 71  1  0  0  0  0
 43 45  1  0  0  0  0
 44 46  1  0  0  0  0
 44 48  1  0  0  0  0
 45 51  1  0  0  0  0
 46 53  1  0  0  0  0
 47 49  1  0  0  0  0
 47 54  1  0  0  0  0
 48 72  1  0  0  0  0
 49 70  1  0  0  0  0
 50 53  1  0  0  0  0
 50 72  1  0  0  0  0
 51 76  1  0  0  0  0
 52 71  1  0  0  0  0
 53 69  1  0  0  0  0
 54 55  1  0  0  0  0
 54 56  1  0  0  0  0
 54 64  1  0  0  0  0
 55 57  1  0  0  0  0
 55 58  1  0  0  0  0
 55 70  1  0  0  0  0
 59 66  1  0  0  0  0
 60 67  1  0  0  0  0
 61 67  1  0  0  0  0
 62 67  1  0  0  0  0
 63 79  1  0  0  0  0
 64 86  1  0  0  0  0
 65 67  1  0  0  0  0
 65 77  1  0  0  0  0
 66 79  1  0  0  0  0
 68 69  1  0  0  0  0
M  CHG  2  78   1  79   1
M  ISO  4  39 100  64 101  75 100  86 101
M  END
> <Batch ID>
0152

> <Smiles>
CNC(C)C(=O)NC(C(=O)N1Cc2cc([101O:1][101CH2:1]C3(C)CCN(C(=N)c4cccc([100NH:0][100C:0](=O)N5CCCC(n6nc(-c7ccc(Oc8ccc(F)cc8F)cc7)c(C(N)=O)c6N)C5)c4)C3(C)C)ccc2CC1C(=O)NC1CCCc2ccccc21)C(C)(C)C

> <Shape>
0.259

> <Color>
0.184

> <Negative vol penalty>
0.000

$$$$

  -OEChem-04052303273D

 86 95  0     1  0  0  0  0  0999 V2000
  -23.4793  -34.9568   26.2430 C   0  0  0  0  0  0  0  0  0  0  0  0
  -24.4791  -34.2283   25.6066 C   0  0  0  0  0  0  0  0  0  0  0  0
  -24.5815  -13.5496   21.4519 C   0  0  0  0  0  0  0  0  0  0  0  0
  -26.2322  -13.3416   19.7001 C   0  0  0  0  0  0  0  0  0  0  0  0
  -22.2467  -34.3619   26.5089 C   0  0  0  0  0  0  0  0  0  0  0  0
  -24.2472  -32.9040   25.2366 C   0  0  0  0  0  0  0  0  0  0  0  0
  -26.4210  -30.0304   20.2845 C   0  0  0  0  0  0  0  0  0  0  0  0
  -27.2731  -23.5342   14.0201 C   0  0  0  0  0  0  0  0  0  0  0  0
  -26.3585  -22.7273   14.6969 C   0  0  0  0  0  0  0  0  0  0  0  0
  -24.5769  -12.1640   21.6121 C   0  0  0  0  0  0  0  0  0  0  0  0
  -26.2277  -11.9560   19.8603 C   0  0  0  0  0  0  0  0  0  0  0  0
  -27.5020  -29.1698   20.0985 C   0  0  0  0  0  0  0  0  0  0  0  0
  -23.2374   -9.4811   20.0526 C   0  0  0  0  0  0  0  0  0  0  0  0
  -22.0004   -8.8467   20.1662 C   0  0  0  0  0  0  0  0  0  0  0  0
  -27.9835  -22.3517   16.4450 C   0  0  0  0  0  0  0  0  0  0  0  0
  -26.0253  -27.2758   20.3253 C   0  0  0  0  0  0  0  0  0  0  0  0
  -22.6258   -8.0182   22.3479 C   0  0  0  0  0  0  0  0  0  0  0  0
  -25.4091  -14.1384   20.4958 C   0  0  0  0  0  0  0  0  0  0  0  0
  -28.8981  -23.1585   15.7681 C   0  0  0  0  0  0  0  0  0  0  0  0
  -26.2359  -16.4999   20.9933 C   0  0  0  0  0  0  0  0  0  0  0  0
  -21.9963  -33.0326   26.1334 C   0  0  0  0  0  0  0  0  0  0  0  0
  -25.1337  -29.5193   20.5036 C   0  0  0  0  0  0  0  0  0  0  0  0
  -23.0106  -32.2903   25.4989 C   0  0  0  0  0  0  0  0  0  0  0  0
  -24.9293  -28.1321   20.5113 C   0  0  0  0  0  0  0  0  0  0  0  0
  -28.5429  -23.7498   14.5557 C   0  0  0  0  0  0  0  0  0  0  0  0
  -26.7137  -22.1360   15.9094 C   0  0  0  0  0  0  0  0  0  0  0  0
  -25.4000  -11.3672   20.8164 C   0  0  0  0  0  0  0  0  0  0  0  0
  -27.3047  -27.7922   20.1217 C   0  0  0  0  0  0  0  0  0  0  0  0
  -24.1687   -9.3840   21.0866 C   0  0  0  0  0  0  0  0  0  0  0  0
  -21.6946   -8.1152   21.3139 C   0  0  0  0  0  0  0  0  0  0  0  0
  -23.8628   -8.6526   22.2342 C   0  0  0  0  0  0  0  0  0  0  0  0
  -25.4139  -15.5696   20.3295 C   0  0  0  0  0  0  0  0  0  0  0  0
  -25.8537  -17.7183   20.4874 C   0  0  0  0  0  0  0  0  0  0  0  0
  -31.3947  -25.9067   18.6112 C   0  0  0  0  0  0  0  0  0  0  0  0
  -30.1103  -26.2658   18.4752 C   0  0  0  0  0  0  0  0  0  0  0  0
  -30.2346  -23.3740   16.3509 C   0  0  0  0  0  0  0  0  0  0  0  0
  -27.2540  -16.2822   21.9791 C   0  0  0  0  0  0  0  0  0  0  0  0
  -23.0296  -29.6834   22.8804 C   0  0  0  0  0  0  0  0  0  0  0  0
  -21.1135  -28.1325   20.7720 C   0  0  0  0  0  0  0  0  0  0  0  0
  -20.8574  -26.1174   18.0296 C   0  0  0  0  0  0  0  0  0  0  0  0
  -24.4841  -21.0007   16.2033 C   0  0  0  0  0  0  0  0  0  0  0  0
  -20.6646  -32.4177   26.4843 C   0  0  0  0  0  0  0  0  0  0  0  0
  -23.9738  -30.4612   20.6760 C   0  0  0  0  0  0  0  0  0  0  0  0
  -23.5637  -27.5329   20.7225 C   0  0  0  0  0  0  0  0  0  0  0  0
  -31.7238  -24.6925   17.8070 C   0  0  0  0  0  0  0  0  0  0  0  0
  -29.3709  -25.3456   17.5545 C   0  0  0  0  0  0  0  0  0  0  0  0
  -20.3702  -31.1272   25.7238 C   0  0  0  0  0  0  0  0  0  0  0  0
  -21.8973  -18.9905   17.5977 C   0  0  0  0  0  0  0  0  0  0  0  0
  -21.5847  -30.2045   25.7480 C   0  0  0  0  0  0  0  0  0  0  0  0
  -22.6492  -17.9979   18.4874 C   0  0  0  0  0  0  0  0  0  0  0  0
  -22.6713  -19.3050   16.3188 C   0  0  0  0  0  0  0  0  0  0  0  0
  -24.8083  -18.7546   17.4139 C   0  0  0  0  0  0  0  0  0  0  0  0
  -22.7887  -30.8592   25.0600 C   0  0  1  0  0  0  0  0  0  0  0  0
  -22.7923  -29.8272   21.4037 C   0  0  1  0  0  0  0  0  0  0  0  0
  -24.0979  -18.4568   18.7444 C   0  0  2  0  0  0  0  0  0  0  0  0
  -29.5042  -24.6184   13.8126 C   0  0  0  0  0  0  0  0  0  0  0  0
  -19.1599  -24.9906   16.5646 C   0  0  0  0  0  0  0  0  0  0  0  0
  -20.6442  -26.0322   22.9350 C   0  0  0  0  0  0  0  0  0  0  0  0
  -19.7598  -24.5033   21.1607 C   0  0  0  0  0  0  0  0  0  0  0  0
  -18.6041  -26.6628   21.6332 C   0  0  0  0  0  0  0  0  0  0  0  0
  -21.7698  -27.5985   15.6353 C   0  0  0  0  0  0  0  0  0  0  0  0
  -29.4298  -27.4165   19.1223 C   0  0  0  0  0  0  0  0  0  1  0  0
  -20.8354  -26.6853   20.4445 C   0  0  1  0  0  0  0  0  0  0  0  0
  -20.0157  -26.2307   16.7714 C   0  0  2  0  0  0  0  0  0  0  0  0
  -19.9871  -25.9819   21.5413 C   0  0  0  0  0  0  0  0  0  0  0  0
  -24.5728  -16.1475   19.4677 N   0  0  0  0  0  0  0  0  0  0  0  0
  -24.8643  -17.4540   19.5866 N   0  0  0  0  0  0  0  0  0  0  0  0
  -30.4281  -24.3900   17.1721 N   0  0  0  0  0  0  0  0  0  0  0  0
  -22.4624  -28.4952   20.8926 N   0  0  0  0  0  0  0  0  0  0  0  0
  -24.0331  -19.7372   16.6404 N   0  0  0  0  0  0  0  0  0  0  0  0
  -26.2707  -18.9791   20.7296 N   0  0  0  0  0  0  0  0  0  0  0  0
  -27.5194  -14.9676   22.3863 N   0  0  0  0  0  0  0  0  0  0  0  0
  -25.7842  -21.3165   16.5965 N   0  0  0  0  0  0  0  0  0  0  0  0
  -22.6498  -30.7863   23.6213 N   0  0  0  0  0  0  0  0  0  0  0  0
  -20.2246  -26.6767   19.1196 N   0  0  0  0  0  0  0  0  0  0  0  0
  -31.2240  -22.5410   16.0421 N   0  3  0  0  0  0  0  0  0  0  0  0
  -20.8901  -26.4028   15.5770 N   0  3  0  0  0  0  0  0  0  0  0  0
  -27.8975  -17.2268   22.4959 O   0  0  0  0  0  0  0  0  0  0  0  0
  -23.5194  -28.6479   23.3157 O   0  0  0  0  0  0  0  0  0  0  0  0
  -20.1688  -28.9139   20.9085 O   0  0  0  0  0  0  0  0  0  0  0  0
  -21.9639  -25.5826   18.0449 O   0  0  0  0  0  0  0  0  0  0  0  0
  -23.7602  -21.7588   15.5528 O   0  0  0  0  0  0  0  0  0  0  0  0
  -25.3960  -10.0151   20.9726 O   0  0  0  0  0  0  0  0  0  0  0  0
  -28.3582  -26.9499   19.9410 O   0  0  0  0  0  0  0  0  0  1  0  0
  -20.5060   -7.5073   21.4235 F   0  0  0  0  0  0  0  0  0  0  0  0
  -24.7529   -8.5567   23.2314 F   0  0  0  0  0  0  0  0  0  0  0  0
  1  2  1  0  0  0  0
  1  5  2  0  0  0  0
  2  6  2  0  0  0  0
  3 10  2  0  0  0  0
  3 18  1  0  0  0  0
  4 11  1  0  0  0  0
  4 18  2  0  0  0  0
  5 21  1  0  0  0  0
  6 23  1  0  0  0  0
  7 12  2  0  0  0  0
  7 22  1  0  0  0  0
  8  9  2  0  0  0  0
  8 25  1  0  0  0  0
  9 26  1  0  0  0  0
 10 27  1  0  0  0  0
 11 27  2  0  0  0  0
 12 28  1  0  0  0  0
 13 14  2  0  0  0  0
 13 29  1  0  0  0  0
 14 30  1  0  0  0  0
 15 19  1  0  0  0  0
 15 26  2  0  0  0  0
 16 24  1  0  0  0  0
 16 28  2  0  0  0  0
 17 30  2  0  0  0  0
 17 31  1  0  0  0  0
 18 32  1  0  0  0  0
 19 25  2  0  0  0  0
 19 36  1  0  0  0  0
 20 32  1  0  0  0  0
 20 33  2  0  0  0  0
 20 37  1  0  0  0  0
 21 23  2  0  0  0  0
 21 42  1  0  0  0  0
 22 24  2  0  0  0  0
 22 43  1  0  0  0  0
 23 53  1  0  0  0  0
 24 44  1  0  0  0  0
 25 56  1  0  0  0  0
 26 73  1  0  0  0  0
 27 83  1  0  0  0  0
 28 84  1  0  0  0  0
 29 31  2  0  0  0  0
 29 83  1  0  0  0  0
 30 85  1  0  0  0  0
 31 86  1  0  0  0  0
 32 66  2  0  0  0  0
 33 67  1  0  0  0  0
 33 71  1  0  0  0  0
 34 35  2  0  0  0  0
 34 45  1  0  0  0  0
 35 46  1  0  0  0  0
 35 62  1  0  0  0  0
 36 68  1  0  0  0  0
 36 76  2  0  0  0  0
 37 72  1  0  0  0  0
 37 78  2  0  0  0  0
 38 54  1  0  0  0  0
 38 74  1  0  0  0  0
 38 79  2  0  0  0  0
 39 63  1  0  0  0  0
 39 69  1  0  0  0  0
 39 80  2  0  0  0  0
 40 64  1  0  0  0  0
 40 75  1  0  0  0  0
 40 81  2  0  0  0  0
 41 70  1  0  0  0  0
 41 73  1  0  0  0  0
 41 82  2  0  0  0  0
 42 47  1  0  0  0  0
 43 54  1  0  0  0  0
 44 69  1  0  0  0  0
 45 68  1  0  0  0  0
 46 68  1  0  0  0  0
 47 49  1  0  0  0  0
 48 50  1  0  0  0  0
 48 51  1  0  0  0  0
 49 53  1  0  0  0  0
 50 55  1  0  0  0  0
 51 70  1  0  0  0  0
 52 55  1  0  0  0  0
 52 70  1  0  0  0  0
 53 74  1  0  0  0  0
 54 69  1  0  0  0  0
 55 67  1  0  0  0  0
 57 64  1  0  0  0  0
 58 65  1  0  0  0  0
 59 65  1  0  0  0  0
 60 65  1  0  0  0  0
 61 77  1  0  0  0  0
 62 84  1  0  0  0  0
 63 65  1  0  0  0  0
 63 75  1  0  0  0  0
 64 77  1  0  0  0  0
 66 67  1  0  0  0  0
M  CHG  2  76   1  77   1
M  ISO  4  41 100  62 101  73 100  84 101
M  END
> <Batch ID>
0152

> <Smiles>
CNC(C)C(=O)NC(C(=O)N1Cc2cc([101O:1][101CH2:1]C3=CCN(C(=N)c4cc([100NH:0][100C:0](=O)N5CCCC(n6nc(-c7ccc(Oc8ccc(F)cc8F)cc7)c(C(N)=O)c6N)C5)ccc4C)C3)ccc2CC1C(=O)NC1CCCc2ccccc21)C(C)(C)C

> <Shape>
0.226

> <Color>
0.089

> <Negative vol penalty>
0.000

$$$$

  -OEChem-04052303273D

 90 99  0     1  0  0  0  0  0999 V2000
  -18.6639  -32.6569   20.1326 C   0  0  0  0  0  0  0  0  0  0  0  0
  -19.8789  -32.1746   19.6566 C   0  0  0  0  0  0  0  0  0  0  0  0
  -23.9059  -10.9083   23.5635 C   0  0  0  0  0  0  0  0  0  0  0  0
  -24.5509   -9.3810   21.8062 C   0  0  0  0  0  0  0  0  0  0  0  0
  -18.3647  -32.5695   21.4915 C   0  0  0  0  0  0  0  0  0  0  0  0
  -20.7959  -31.6055   20.5396 C   0  0  0  0  0  0  0  0  0  0  0  0
  -24.6049  -26.9483   19.3962 C   0  0  0  0  0  0  0  0  0  0  0  0
  -23.4043   -9.8405   24.3076 C   0  0  0  0  0  0  0  0  0  0  0  0
  -24.0494   -8.3131   22.5502 C   0  0  0  0  0  0  0  0  0  0  0  0
  -25.9549  -26.9038   19.0505 C   0  0  0  0  0  0  0  0  0  0  0  0
  -21.0300   -6.9555   23.2367 C   0  0  0  0  0  0  0  0  0  0  0  0
  -20.2478   -6.0122   22.5704 C   0  0  0  0  0  0  0  0  0  0  0  0
  -26.5313  -26.5679   21.3687 C   0  0  0  0  0  0  0  0  0  0  0  0
  -30.7541  -18.8333   19.6920 C   0  0  0  0  0  0  0  0  0  0  0  0
  -21.8292   -4.2838   23.1610 C   0  0  0  0  0  0  0  0  0  0  0  0
  -28.5833  -19.2098   20.5877 C   0  0  0  0  0  0  0  0  0  0  0  0
  -24.4792  -10.6786   22.3128 C   0  0  0  0  0  0  0  0  0  0  0  0
  -24.2838  -12.9023   21.0780 C   0  0  0  0  0  0  0  0  0  0  0  0
  -19.2745  -31.9904   22.3902 C   0  0  0  0  0  0  0  0  0  0  0  0
  -24.2081  -26.8136   20.7344 C   0  0  0  0  0  0  0  0  0  0  0  0
  -20.5092  -31.5115   21.9121 C   0  0  0  0  0  0  0  0  0  0  0  0
  -25.1755  -26.6084   21.7285 C   0  0  0  0  0  0  0  0  0  0  0  0
  -30.9042  -20.2091   19.5579 C   0  0  0  0  0  0  0  0  0  0  0  0
  -29.5746  -18.3160   20.2159 C   0  0  0  0  0  0  0  0  0  0  0  0
  -23.4761   -8.5428   23.8010 C   0  0  0  0  0  0  0  0  0  0  0  0
  -26.9184  -26.7164   20.0372 C   0  0  0  0  0  0  0  0  0  0  0  0
  -22.2118   -6.5630   23.8651 C   0  0  0  0  0  0  0  0  0  0  0  0
  -20.6473   -4.6763   22.5326 C   0  0  0  0  0  0  0  0  0  0  0  0
  -22.6114   -5.2271   23.8273 C   0  0  0  0  0  0  0  0  0  0  0  0
  -24.9970  -11.7814   21.5435 C   0  0  0  0  0  0  0  0  0  0  0  0
  -29.8533  -21.0181   19.9590 C   0  0  0  0  0  0  0  0  0  0  0  0
  -25.2199  -13.6505   20.4069 C   0  0  0  0  0  0  0  0  0  0  0  0
  -22.8989  -13.2373   21.2381 C   0  0  0  0  0  0  0  0  0  0  0  0
  -22.6862  -28.6674   22.8203 C   0  0  0  0  0  0  0  0  0  0  0  0
  -22.8211  -26.0158   24.6838 C   0  0  0  0  0  0  0  0  0  0  0  0
  -25.2467  -23.4577   25.4519 C   0  0  0  0  0  0  0  0  0  0  0  0
  -30.2958  -15.9090   20.0363 C   0  0  0  0  0  0  0  0  0  0  0  0
  -18.9266  -31.9609   23.8574 C   0  0  0  0  0  0  0  0  0  0  0  0
  -22.7462  -26.8371   21.0876 C   0  0  0  0  0  0  0  0  0  0  0  0
  -24.8003  -26.4382   23.1772 C   0  0  0  0  0  0  0  0  0  0  0  0
  -19.7951  -31.0042   24.6703 C   0  0  0  0  0  0  0  0  0  0  0  0
  -29.9495  -12.5197   19.0020 C   0  0  0  0  0  0  0  0  0  0  0  0
  -21.2670  -31.1852   24.3131 C   0  0  0  0  0  0  0  0  0  0  0  0
  -28.5715  -12.1177   19.5327 C   0  0  0  0  0  0  0  0  0  0  0  0
  -31.1945  -24.4564   20.5040 C   0  0  0  0  0  0  0  0  0  0  0  0
  -29.6934  -24.4632   18.5001 C   0  0  0  0  0  0  0  0  0  0  0  0
  -30.6779  -13.4546   19.9659 C   0  0  0  0  0  0  0  0  0  0  0  0
  -30.5760  -23.1348   20.9615 C   0  0  0  0  0  0  0  0  0  0  0  0
  -29.0752  -23.1414   18.9585 C   0  0  0  0  0  0  0  0  0  0  0  0
  -28.5393  -14.2415   20.9022 C   0  0  0  0  0  0  0  0  0  0  0  0
  -21.5194  -30.8650   22.8349 C   0  0  1  0  0  0  0  0  0  0  0  0
  -22.4897  -27.2032   22.5462 C   0  0  1  0  0  0  0  0  0  0  0  0
  -27.7407  -13.3518   19.9355 C   0  0  2  0  0  0  0  0  0  0  0  0
  -30.2391  -25.3208   19.6583 C   0  0  0  0  0  0  0  0  0  0  0  0
  -31.0174  -26.5164   19.0796 C   0  0  0  0  0  0  0  0  0  0  0  0
  -24.9321  -21.0801   26.1906 C   0  0  0  0  0  0  0  0  0  0  0  0
  -32.3731  -19.2005   17.0255 C   0  0  0  0  0  0  0  0  0  0  0  0
  -31.1508  -21.3533   16.7178 C   0  0  0  0  0  0  0  0  0  0  0  0
  -33.6443  -21.3467   16.9802 C   0  0  0  0  0  0  0  0  0  0  0  0
  -23.0959  -27.1589   27.4995 C   0  0  0  0  0  0  0  0  0  0  0  0
  -24.3955  -25.1133   28.1279 C   0  0  0  0  0  0  0  0  0  0  0  0
  -22.0220  -24.9030   27.3896 C   0  0  0  0  0  0  0  0  0  0  0  0
  -26.8854  -22.4238   23.2148 C   0  0  0  0  0  0  0  0  0  0  0  0
  -32.1700  -20.7603   18.9953 C   0  0  0  0  0  0  0  0  0  0  0  0
  -29.0887  -25.8727   20.5209 C   0  0  0  0  0  0  0  0  0  1  0  0
  -23.8048  -25.4627   25.6866 C   0  0  1  0  0  0  0  0  0  0  0  0
  -25.2046  -22.0047   25.0143 C   0  0  2  0  0  0  0  0  0  0  0  0
  -32.3334  -20.6863   17.4414 C   0  0  0  0  0  0  0  0  0  0  0  0
  -23.3380  -25.6759   27.1543 C   0  0  0  0  0  0  0  0  0  0  0  0
  -28.6926  -20.5523   20.4724 N   0  0  0  0  0  0  0  0  0  0  0  0
  -26.2867  -11.8107   21.1972 N   0  0  0  0  0  0  0  0  0  0  0  0
  -26.3912  -12.9590   20.5070 N   0  0  0  0  0  0  0  0  0  0  0  0
  -29.9997  -22.4053   19.8255 N   0  0  0  0  0  0  0  0  0  0  0  0
  -23.3585  -26.4750   23.4729 N   0  0  0  0  0  0  0  0  0  0  0  0
  -29.8320  -14.6027   20.2994 N   0  0  0  0  0  0  0  0  0  0  0  0
  -25.1471  -14.8258   19.7468 N   0  0  0  0  0  0  0  0  0  0  0  0
  -22.0774  -12.3576   21.9561 N   0  0  0  0  0  0  0  0  0  0  0  0
  -29.3921  -16.9188   20.3650 N   0  0  0  0  0  0  0  0  0  0  0  0
  -21.5524  -29.4333   22.6264 N   0  0  0  0  0  0  0  0  0  0  0  0
  -24.0157  -24.0655   25.3236 N   0  0  0  0  0  0  0  0  0  0  0  0
  -26.5035  -21.6114   24.3985 N   0  3  0  0  0  0  0  0  0  0  0  0
  -22.4011  -14.2776   20.7446 O   0  0  0  0  0  0  0  0  0  0  0  0
  -23.7847  -29.0722   23.1823 O   0  0  0  0  0  0  0  0  0  0  0  0
  -21.6194  -26.0330   24.9617 O   0  0  0  0  0  0  0  0  0  0  0  0
  -26.2684  -23.9982   25.8696 O   0  0  0  0  0  0  0  0  0  0  0  0
  -31.4016  -16.1152   19.5297 O   0  0  0  0  0  0  0  0  0  0  0  0
  -22.9869   -7.5005   24.5268 O   0  0  0  0  0  0  0  0  0  0  0  0
  -28.2368  -26.6733   19.7026 O   0  0  0  0  0  0  0  0  0  1  0  0
  -19.8953   -3.7703   21.8940 F   0  0  0  0  0  0  0  0  0  0  0  0
  -23.7452   -4.8438   24.4301 F   0  0  0  0  0  0  0  0  0  0  0  0
  1  2  1  0  0  0  0
  1  5  2  0  0  0  0
  2  6  2  0  0  0  0
  3  8  2  0  0  0  0
  3 17  1  0  0  0  0
  4  9  1  0  0  0  0
  4 17  2  0  0  0  0
  5 19  1  0  0  0  0
  6 21  1  0  0  0  0
  7 10  2  0  0  0  0
  7 20  1  0  0  0  0
  8 25  1  0  0  0  0
  9 25  2  0  0  0  0
 10 26  1  0  0  0  0
 11 12  2  0  0  0  0
 11 27  1  0  0  0  0
 12 28  1  0  0  0  0
 13 22  1  0  0  0  0
 13 26  2  0  0  0  0
 14 23  1  0  0  0  0
 14 24  2  0  0  0  0
 15 28  2  0  0  0  0
 15 29  1  0  0  0  0
 16 24  1  0  0  0  0
 16 70  2  0  0  0  0
 17 30  1  0  0  0  0
 18 30  1  0  0  0  0
 18 32  2  0  0  0  0
 18 33  1  0  0  0  0
 19 21  2  0  0  0  0
 19 38  1  0  0  0  0
 20 22  2  0  0  0  0
 20 39  1  0  0  0  0
 21 51  1  0  0  0  0
 22 40  1  0  0  0  0
 23 31  2  0  0  0  0
 23 64  1  0  0  0  0
 24 78  1  0  0  0  0
 25 87  1  0  0  0  0
 26 88  1  0  0  0  0
 27 29  2  0  0  0  0
 27 87  1  0  0  0  0
 28 89  1  0  0  0  0
 29 90  1  0  0  0  0
 30 71  2  0  0  0  0
 31 70  1  0  0  0  0
 31 73  1  0  0  0  0
 32 72  1  0  0  0  0
 32 76  1  0  0  0  0
 33 77  1  0  0  0  0
 33 82  2  0  0  0  0
 34 52  1  0  0  0  0
 34 79  1  0  0  0  0
 34 83  2  0  0  0  0
 35 66  1  0  0  0  0
 35 74  1  0  0  0  0
 35 84  2  0  0  0  0
 36 67  1  0  0  0  0
 36 80  1  0  0  0  0
 36 85  2  0  0  0  0
 37 75  1  0  0  0  0
 37 78  1  0  0  0  0
 37 86  2  0  0  0  0
 38 41  1  0  0  0  0
 39 52  1  0  0  0  0
 40 74  1  0  0  0  0
 41 43  1  0  0  0  0
 42 44  1  0  0  0  0
 42 47  1  0  0  0  0
 43 51  1  0  0  0  0
 44 53  1  0  0  0  0
 45 48  1  0  0  0  0
 45 54  1  0  0  0  0
 46 49  1  0  0  0  0
 46 54  1  0  0  0  0
 47 75  1  0  0  0  0
 48 73  1  0  0  0  0
 49 73  1  0  0  0  0
 50 53  1  0  0  0  0
 50 75  1  0  0  0  0
 51 79  1  0  0  0  0
 52 74  1  0  0  0  0
 53 72  1  0  0  0  0
 54 55  1  0  0  0  0
 54 65  1  0  0  0  0
 56 67  1  0  0  0  0
 57 68  1  0  0  0  0
 58 68  1  0  0  0  0
 59 68  1  0  0  0  0
 60 69  1  0  0  0  0
 61 69  1  0  0  0  0
 62 69  1  0  0  0  0
 63 81  1  0  0  0  0
 64 68  1  0  0  0  0
 65 88  1  0  0  0  0
 66 69  1  0  0  0  0
 66 80  1  0  0  0  0
 67 81  1  0  0  0  0
 71 72  1  0  0  0  0
M  CHG  1  81   1
M  ISO  4  37 100  65 101  78 100  88 101
M  END
> <Batch ID>
0152

> <Smiles>
CNC(C)C(=O)NC(C(=O)N1Cc2cc([101O:1][101CH2:1]C3(C)CCN(c4ncc([100NH:0][100C:0](=O)N5CCCC(n6nc(-c7ccc(Oc8ccc(F)cc8F)cc7)c(C(N)=O)c6N)C5)cc4CC(C)(C)C)CC3)ccc2CC1C(=O)NC1CCCc2ccccc21)C(C)(C)C

> <Shape>
0.270

> <Color>
0.183

> <Negative vol penalty>
0.000

$$$$

  -OEChem-04052303273D

 77 85  0     1  0  0  0  0  0999 V2000
  -43.5203  -22.1260   22.0724 C   0  0  0  0  0  0  0  0  0  0  0  0
  -42.6403  -21.2644   21.4253 C   0  0  0  0  0  0  0  0  0  0  0  0
  -23.0436   -9.8825   19.9986 C   0  0  0  0  0  0  0  0  0  0  0  0
  -23.8709   -9.9315   22.2680 C   0  0  0  0  0  0  0  0  0  0  0  0
  -43.0398  -23.0284   23.0204 C   0  0  0  0  0  0  0  0  0  0  0  0
  -41.2794  -21.3040   21.7267 C   0  0  0  0  0  0  0  0  0  0  0  0
  -34.8593  -20.3747   18.6879 C   0  0  0  0  0  0  0  0  0  0  0  0
  -22.3200   -8.7255   20.2874 C   0  0  0  0  0  0  0  0  0  0  0  0
  -23.1472   -8.7745   22.5568 C   0  0  0  0  0  0  0  0  0  0  0  0
  -33.6718  -19.6682   18.8738 C   0  0  0  0  0  0  0  0  0  0  0  0
  -21.8035   -5.6321   23.7934 C   0  0  0  0  0  0  0  0  0  0  0  0
  -22.4496   -4.6253   24.5108 C   0  0  0  0  0  0  0  0  0  0  0  0
  -32.9443  -21.3230   20.4711 C   0  0  0  0  0  0  0  0  0  0  0  0
  -24.1042   -4.4398   22.7601 C   0  0  0  0  0  0  0  0  0  0  0  0
  -23.8192  -10.4854   20.9889 C   0  0  0  0  0  0  0  0  0  0  0  0
  -24.1300  -13.0119   20.8220 C   0  0  0  0  0  0  0  0  0  0  0  0
  -41.6710  -23.0858   23.3265 C   0  0  0  0  0  0  0  0  0  0  0  0
  -35.1033  -21.5569   19.4016 C   0  0  0  0  0  0  0  0  0  0  0  0
  -40.7804  -22.2071   22.6806 C   0  0  0  0  0  0  0  0  0  0  0  0
  -34.1345  -22.0440   20.2906 C   0  0  0  0  0  0  0  0  0  0  0  0
  -22.3717   -8.1716   21.5665 C   0  0  0  0  0  0  0  0  0  0  0  0
  -32.7153  -20.1407   19.7676 C   0  0  0  0  0  0  0  0  0  0  0  0
  -22.3077   -6.0426   22.5593 C   0  0  0  0  0  0  0  0  0  0  0  0
  -23.6000   -4.0292   23.9942 C   0  0  0  0  0  0  0  0  0  0  0  0
  -23.4581   -5.4465   22.0427 C   0  0  0  0  0  0  0  0  0  0  0  0
  -24.5674  -11.6802   20.6911 C   0  0  0  0  0  0  0  0  0  0  0  0
  -25.2028  -13.7672   20.4155 C   0  0  0  0  0  0  0  0  0  0  0  0
  -22.8670  -13.5207   21.2710 C   0  0  0  0  0  0  0  0  0  0  0  0
  -37.2853  -22.4909   21.5158 C   0  0  0  0  0  0  0  0  0  0  0  0
  -35.8142  -25.3626   21.1817 C   0  0  0  0  0  0  0  0  0  0  0  0
  -32.9956  -27.0936   20.3413 C   0  0  0  0  0  0  0  0  0  0  0  0
  -30.7528  -14.6797   20.7331 C   0  0  0  0  0  0  0  0  0  0  0  0
  -41.2051  -24.0454   24.3927 C   0  0  0  0  0  0  0  0  0  0  0  0
  -36.3777  -22.3215   19.1699 C   0  0  0  0  0  0  0  0  0  0  0  0
  -34.3394  -23.3189   21.0660 C   0  0  0  0  0  0  0  0  0  0  0  0
  -39.6970  -24.2819   24.3824 C   0  0  0  0  0  0  0  0  0  0  0  0
  -29.5082  -12.4353   18.1191 C   0  0  0  0  0  0  0  0  0  0  0  0
  -38.9496  -22.9569   24.2718 C   0  0  0  0  0  0  0  0  0  0  0  0
  -28.0894  -12.1151   18.5932 C   0  0  0  0  0  0  0  0  0  0  0  0
  -30.4563  -12.7001   19.2869 C   0  0  0  0  0  0  0  0  0  0  0  0
  -28.5704  -13.3916   20.7130 C   0  0  0  0  0  0  0  0  0  0  0  0
  -31.0584  -17.0163   21.4893 C   0  0  0  0  0  0  0  0  0  0  0  0
  -28.9686  -16.4800   20.4634 C   0  0  0  0  0  0  0  0  0  0  0  0
  -39.2938  -22.2370   22.9623 C   0  0  1  0  0  0  0  0  0  0  0  0
  -36.7429  -23.2402   20.3317 C   0  0  1  0  0  0  0  0  0  0  0  0
  -27.5714  -13.1920   19.5651 C   0  0  2  0  0  0  0  0  0  0  0  0
  -30.1775  -18.2581   21.5083 C   0  0  1  0  0  0  0  0  0  0  0  0
  -32.0846  -29.4279   20.2053 C   0  0  0  0  0  0  0  0  0  0  0  0
  -35.5019  -25.4150   24.2164 C   0  0  0  0  0  0  0  0  0  0  0  0
  -33.7984  -27.2288   23.9400 C   0  0  0  0  0  0  0  0  0  0  0  0
  -36.1497  -27.6046   23.1964 C   0  0  0  0  0  0  0  0  0  0  0  0
  -27.9208  -18.7643   20.4423 C   0  0  0  0  0  0  0  0  0  0  0  0
  -32.5400  -26.8701   17.4256 C   0  0  0  0  0  0  0  0  0  0  0  0
  -30.9401  -19.5405   21.2320 C   0  0  0  0  0  0  0  0  0  1  0  0
  -34.6599  -26.0581   21.8620 C   0  0  1  0  0  0  0  0  0  0  0  0
  -32.7859  -28.3071   19.4537 C   0  0  2  0  0  0  0  0  0  0  0  0
  -35.0241  -26.5515   23.2907 C   0  0  0  0  0  0  0  0  0  0  0  0
  -25.8203  -11.5913   20.2368 N   0  0  0  0  0  0  0  0  0  0  0  0
  -26.1793  -12.8766   20.0786 N   0  0  0  0  0  0  0  0  0  0  0  0
  -35.6043  -24.0272   20.8095 N   0  0  0  0  0  0  0  0  0  0  0  0
  -29.9033  -13.7095   20.1901 N   0  0  0  0  0  0  0  0  0  0  0  0
  -30.2174  -15.9444   20.9764 N   0  0  0  0  0  0  0  0  0  0  0  0
  -25.3965  -15.0995   20.3168 N   0  0  0  0  0  0  0  0  0  0  0  0
  -21.8754  -12.6062   21.6514 N   0  0  0  0  0  0  0  0  0  0  0  0
  -38.5802  -22.8348   21.8542 N   0  0  0  0  0  0  0  0  0  0  0  0
  -34.2299  -27.1172   20.9555 N   0  0  0  0  0  0  0  0  0  0  0  0
  -29.1866  -17.9703   20.3967 N   0  3  2  0  0  0  0  0  0  0  0  0
  -31.9573  -27.9454   18.2690 N   0  3  0  0  0  0  0  0  0  0  0  0
  -22.6193  -14.7495   21.3174 O   0  0  0  0  0  0  0  0  0  0  0  0
  -36.5806  -21.6632   22.0815 O   0  0  0  0  0  0  0  0  0  0  0  0
  -36.8610  -25.9836   20.9812 O   0  0  0  0  0  0  0  0  0  0  0  0
  -32.1477  -26.2146   20.4791 O   0  0  0  0  0  0  0  0  0  0  0  0
  -31.9489  -14.4414   20.9466 O   0  0  0  0  0  0  0  0  0  0  0  0
  -21.6655   -7.0428   21.8487 O   0  0  0  0  0  0  0  0  0  0  0  0
  -31.5462  -19.4471   19.9529 O   0  0  0  0  0  0  0  0  0  1  0  0
  -24.2212   -3.0635   24.6839 F   0  0  0  0  0  0  0  0  0  0  0  0
  -23.9478   -5.8375   20.8582 F   0  0  0  0  0  0  0  0  0  0  0  0
  1  2  1  0  0  0  0
  1  5  2  0  0  0  0
  2  6  2  0  0  0  0
  3  8  2  0  0  0  0
  3 15  1  0  0  0  0
  4  9  1  0  0  0  0
  4 15  2  0  0  0  0
  5 17  1  0  0  0  0
  6 19  1  0  0  0  0
  7 10  2  0  0  0  0
  7 18  1  0  0  0  0
  8 21  1  0  0  0  0
  9 21  2  0  0  0  0
 10 22  1  0  0  0  0
 11 12  2  0  0  0  0
 11 23  1  0  0  0  0
 12 24  1  0  0  0  0
 13 20  1  0  0  0  0
 13 22  2  0  0  0  0
 14 24  2  0  0  0  0
 14 25  1  0  0  0  0
 15 26  1  0  0  0  0
 16 26  1  0  0  0  0
 16 27  2  0  0  0  0
 16 28  1  0  0  0  0
 17 19  2  0  0  0  0
 17 33  1  0  0  0  0
 18 20  2  0  0  0  0
 18 34  1  0  0  0  0
 19 44  1  0  0  0  0
 20 35  1  0  0  0  0
 21 74  1  0  0  0  0
 22 75  1  0  0  0  0
 23 25  2  0  0  0  0
 23 74  1  0  0  0  0
 24 76  1  0  0  0  0
 25 77  1  0  0  0  0
 26 58  2  0  0  0  0
 27 59  1  0  0  0  0
 27 63  1  0  0  0  0
 28 64  1  0  0  0  0
 28 69  2  0  0  0  0
 29 45  1  0  0  0  0
 29 65  1  0  0  0  0
 29 70  2  0  0  0  0
 30 55  1  0  0  0  0
 30 60  1  0  0  0  0
 30 71  2  0  0  0  0
 31 56  1  0  0  0  0
 31 66  1  0  0  0  0
 31 72  2  0  0  0  0
 32 61  1  0  0  0  0
 32 62  1  0  0  0  0
 32 73  2  0  0  0  0
 33 36  1  0  0  0  0
 34 45  1  0  0  0  0
 35 60  1  0  0  0  0
 36 38  1  0  0  0  0
 37 39  1  0  0  0  0
 37 40  1  0  0  0  0
 38 44  1  0  0  0  0
 39 46  1  0  0  0  0
 40 61  1  0  0  0  0
 41 46  1  0  0  0  0
 41 61  1  0  0  0  0
 42 47  1  0  0  0  0
 42 62  1  0  0  0  0
 43 62  1  0  0  0  0
 43 67  1  0  0  0  0
 44 65  1  0  0  0  0
 45 60  1  0  0  0  0
 46 59  1  0  0  0  0
 47 54  1  0  0  0  0
 47 67  1  0  0  0  0
 48 56  1  0  0  0  0
 49 57  1  0  0  0  0
 50 57  1  0  0  0  0
 51 57  1  0  0  0  0
 52 67  1  0  0  0  0
 53 68  1  0  0  0  0
 54 75  1  0  0  0  0
 55 57  1  0  0  0  0
 55 66  1  0  0  0  0
 56 68  1  0  0  0  0
 58 59  1  0  0  0  0
M  CHG  2  67   1  68   1
M  ISO  4  32 100  54 101  62 100  75 101
M  END
> <Batch ID>
0152

> <Smiles>
CNC(C)C(=O)NC(C(=O)N1Cc2cc([101O:1][101CH2:1]C3C[100N:0]([100C:0](=O)N4CCCC(n5nc(-c6ccc(Oc7ccc(F)cc7F)cc6)c(C(N)=O)c5N)C4)CN3C)ccc2CC1C(=O)NC1CCCc2ccccc21)C(C)(C)C

> <Shape>
0.195

> <Color>
0.184

> <Negative vol penalty>
0.000

$$$$

  -OEChem-04052303273D

 85 94  0     1  0  0  0  0  0999 V2000
  -29.0743  -24.9040   17.2505 C   0  0  0  0  0  0  0  0  0  0  0  0
  -27.9032  -24.9623   17.9992 C   0  0  0  0  0  0  0  0  0  0  0  0
  -26.4344  -12.9146   20.4309 C   0  0  0  0  0  0  0  0  0  0  0  0
  -24.0472  -12.9954   20.0679 C   0  0  0  0  0  0  0  0  0  0  0  0
  -30.1914  -25.6376   17.6476 C   0  0  0  0  0  0  0  0  0  0  0  0
  -27.8489  -25.7535   19.1461 C   0  0  0  0  0  0  0  0  0  0  0  0
  -23.5904  -28.4796   19.4259 C   0  0  0  0  0  0  0  0  0  0  0  0
  -26.2713  -11.8016   21.2556 C   0  0  0  0  0  0  0  0  0  0  0  0
  -23.8841  -11.8823   20.8926 C   0  0  0  0  0  0  0  0  0  0  0  0
  -22.4355  -27.8161   19.8377 C   0  0  0  0  0  0  0  0  0  0  0  0
  -24.2579   -8.5321   20.6550 C   0  0  0  0  0  0  0  0  0  0  0  0
  -23.4070   -7.5191   20.2130 C   0  0  0  0  0  0  0  0  0  0  0  0
  -20.0672  -20.0552   19.4533 C   0  0  0  0  0  0  0  0  0  0  0  0
  -22.7184  -28.7146   22.0585 C   0  0  0  0  0  0  0  0  0  0  0  0
  -21.0268  -21.9702   20.6182 C   0  0  0  0  0  0  0  0  0  0  0  0
  -22.0230   -7.8282   22.1691 C   0  0  0  0  0  0  0  0  0  0  0  0
  -25.3223  -13.5116   19.8371 C   0  0  0  0  0  0  0  0  0  0  0  0
  -25.7016  -14.6653   17.5937 C   0  0  0  0  0  0  0  0  0  0  0  0
  -30.1478  -26.4458   18.7946 C   0  0  0  0  0  0  0  0  0  0  0  0
  -24.3253  -29.2582   20.3315 C   0  0  0  0  0  0  0  0  0  0  0  0
  -28.9669  -26.4976   19.5597 C   0  0  0  0  0  0  0  0  0  0  0  0
  -18.8315  -20.5171   19.8410 C   0  0  0  0  0  0  0  0  0  0  0  0
  -23.8809  -29.3891   21.6550 C   0  0  0  0  0  0  0  0  0  0  0  0
  -18.6809  -21.6599   20.5887 C   0  0  0  0  0  0  0  0  0  0  0  0
  -21.1811  -20.7986   19.8518 C   0  0  0  0  0  0  0  0  0  0  0  0
  -19.7566  -22.4133   20.9960 C   0  0  0  0  0  0  0  0  0  0  0  0
  -24.9962  -11.2854   21.4865 C   0  0  0  0  0  0  0  0  0  0  0  0
  -22.0009  -27.9311   21.1549 C   0  0  0  0  0  0  0  0  0  0  0  0
  -23.9914   -9.1932   21.8540 C   0  0  0  0  0  0  0  0  0  0  0  0
  -22.2896   -7.1671   20.9701 C   0  0  0  0  0  0  0  0  0  0  0  0
  -22.8740   -8.8412   22.6111 C   0  0  0  0  0  0  0  0  0  0  0  0
  -25.4900  -14.6617   18.9855 C   0  0  0  0  0  0  0  0  0  0  0  0
  -25.7958  -15.9954   17.2642 C   0  0  0  0  0  0  0  0  0  0  0  0
  -25.8036  -13.5648   16.6804 C   0  0  0  0  0  0  0  0  0  0  0  0
  -27.2791  -29.1501   21.5008 C   0  0  0  0  0  0  0  0  0  0  0  0
  -26.4321  -31.9777   22.8462 C   0  0  0  0  0  0  0  0  0  0  0  0
  -20.5693  -24.4462   22.2428 C   0  0  0  0  0  0  0  0  0  0  0  0
  -23.9376  -34.0333   23.9411 C   0  0  0  0  0  0  0  0  0  0  0  0
  -23.6926  -20.9856   19.7898 C   0  0  0  0  0  0  0  0  0  0  0  0
  -31.3956  -27.1837   19.2106 C   0  0  0  0  0  0  0  0  0  0  0  0
  -25.5542  -29.9892   19.8648 C   0  0  0  0  0  0  0  0  0  0  0  0
  -17.3571  -20.2501   19.7765 C   0  0  0  0  0  0  0  0  0  0  0  0
  -17.1855  -21.5525   20.6277 C   0  0  0  0  0  0  0  0  0  0  0  0
  -24.6228  -30.2291   22.6612 C   0  0  0  0  0  0  0  0  0  0  0  0
  -31.1374  -28.2906   20.2297 C   0  0  0  0  0  0  0  0  0  0  0  0
  -27.1006  -20.2236   19.0955 C   0  0  0  0  0  0  0  0  0  0  0  0
  -30.2285  -27.7868   21.3463 C   0  0  0  0  0  0  0  0  0  0  0  0
  -27.0925  -18.7121   18.8558 C   0  0  0  0  0  0  0  0  0  0  0  0
  -26.1185  -20.6290   20.1932 C   0  0  0  0  0  0  0  0  0  0  0  0
  -24.7362  -18.6349   19.7663 C   0  0  0  0  0  0  0  0  0  0  0  0
  -28.8611  -27.3637   20.7961 C   0  0  1  0  0  0  0  0  0  0  0  0
  -26.5088  -30.3399   21.0019 C   0  0  1  0  0  0  0  0  0  0  0  0
  -25.6625  -18.1858   18.6244 C   0  0  2  0  0  0  0  0  0  0  0  0
  -19.8159  -25.2004   24.5038 C   0  0  0  0  0  0  0  0  0  0  0  0
  -23.5569  -36.2631   25.0274 C   0  0  0  0  0  0  0  0  0  0  0  0
  -27.2836  -30.8109   25.5339 C   0  0  0  0  0  0  0  0  0  0  0  0
  -26.0240  -32.6603   26.6570 C   0  0  0  0  0  0  0  0  0  0  0  0
  -27.9553  -33.1924   25.1705 C   0  0  0  0  0  0  0  0  0  0  0  0
  -22.3994  -35.0323   21.6185 C   0  0  0  0  0  0  0  0  0  0  0  0
  -20.8150  -26.8760   22.9259 C   0  0  0  0  0  0  0  0  0  1  0  0
  -25.7867  -32.3922   24.1464 C   0  0  1  0  0  0  0  0  0  0  0  0
  -19.9623  -25.6099   23.0388 C   0  0  1  0  0  0  0  0  0  0  0  0
  -23.6762  -35.5108   23.7112 C   0  0  2  0  0  0  0  0  0  0  0  0
  -26.7493  -32.2465   25.3587 C   0  0  0  0  0  0  0  0  0  0  0  0
  -25.4522  -15.8918   19.5045 N   0  0  0  0  0  0  0  0  0  0  0  0
  -25.6414  -16.6808   18.4331 N   0  0  0  0  0  0  0  0  0  0  0  0
  -25.8220  -30.9193   22.1581 N   0  0  0  0  0  0  0  0  0  0  0  0
  -24.7841  -20.0990   19.9045 N   0  0  0  0  0  0  0  0  0  0  0  0
  -25.9950  -16.6337   16.0915 N   0  0  0  0  0  0  0  0  0  0  0  0
  -25.6834  -12.2633   17.1863 N   0  0  0  0  0  0  0  0  0  0  0  0
  -19.5820  -23.5880   21.7659 N   0  0  0  0  0  0  0  0  0  0  0  0
  -22.4799  -20.3702   19.4811 N   0  0  0  0  0  0  0  0  0  0  0  0
  -28.0411  -28.5265   20.5314 N   0  0  0  0  0  0  0  0  0  0  0  0
  -25.2864  -33.7470   23.9401 N   0  0  0  0  0  0  0  0  0  0  0  0
  -22.4118  -35.7002   22.9454 N   0  3  0  0  0  0  0  0  0  0  0  0
  -26.0121  -13.7301   15.4545 O   0  0  0  0  0  0  0  0  0  0  0  0
  -27.1898  -28.8231   22.6784 O   0  0  0  0  0  0  0  0  0  0  0  0
  -27.4363  -32.5758   22.4518 O   0  0  0  0  0  0  0  0  0  0  0  0
  -21.7819  -24.3343   22.0880 O   0  0  0  0  0  0  0  0  0  0  0  0
  -23.0356  -33.2154   24.1088 O   0  0  0  0  0  0  0  0  0  0  0  0
  -23.8291  -22.2041   19.9265 O   0  0  0  0  0  0  0  0  0  0  0  0
  -24.8368  -10.1992   22.2910 O   0  0  0  0  0  0  0  0  0  0  0  0
  -20.8744  -27.2840   21.5597 O   0  0  0  0  0  0  0  0  0  1  0  0
  -21.4717   -6.1953   20.5448 F   0  0  0  0  0  0  0  0  0  0  0  0
  -22.6122   -9.4736   23.7632 F   0  0  0  0  0  0  0  0  0  0  0  0
  1  2  1  0  0  0  0
  1  5  2  0  0  0  0
  2  6  2  0  0  0  0
  3  8  2  0  0  0  0
  3 17  1  0  0  0  0
  4  9  1  0  0  0  0
  4 17  2  0  0  0  0
  5 19  1  0  0  0  0
  6 21  1  0  0  0  0
  7 10  2  0  0  0  0
  7 20  1  0  0  0  0
  8 27  1  0  0  0  0
  9 27  2  0  0  0  0
 10 28  1  0  0  0  0
 11 12  2  0  0  0  0
 11 29  1  0  0  0  0
 12 30  1  0  0  0  0
 13 22  2  0  0  0  0
 13 25  1  0  0  0  0
 14 23  1  0  0  0  0
 14 28  2  0  0  0  0
 15 25  2  0  0  0  0
 15 26  1  0  0  0  0
 16 30  2  0  0  0  0
 16 31  1  0  0  0  0
 17 32  1  0  0  0  0
 18 32  1  0  0  0  0
 18 33  2  0  0  0  0
 18 34  1  0  0  0  0
 19 21  2  0  0  0  0
 19 40  1  0  0  0  0
 20 23  2  0  0  0  0
 20 41  1  0  0  0  0
 21 51  1  0  0  0  0
 22 24  1  0  0  0  0
 22 42  1  0  0  0  0
 23 44  1  0  0  0  0
 24 26  2  0  0  0  0
 24 43  1  0  0  0  0
 25 72  1  0  0  0  0
 26 71  1  0  0  0  0
 27 82  1  0  0  0  0
 28 83  1  0  0  0  0
 29 31  2  0  0  0  0
 29 82  1  0  0  0  0
 30 84  1  0  0  0  0
 31 85  1  0  0  0  0
 32 65  2  0  0  0  0
 33 66  1  0  0  0  0
 33 69  1  0  0  0  0
 34 70  1  0  0  0  0
 34 76  2  0  0  0  0
 35 52  1  0  0  0  0
 35 73  1  0  0  0  0
 35 77  2  0  0  0  0
 36 61  1  0  0  0  0
 36 67  1  0  0  0  0
 36 78  2  0  0  0  0
 37 62  1  0  0  0  0
 37 71  1  0  0  0  0
 37 79  2  0  0  0  0
 38 63  1  0  0  0  0
 38 74  1  0  0  0  0
 38 80  2  0  0  0  0
 39 68  1  0  0  0  0
 39 72  1  0  0  0  0
 39 81  2  0  0  0  0
 40 45  1  0  0  0  0
 41 52  1  0  0  0  0
 42 43  1  0  0  0  0
 44 67  1  0  0  0  0
 45 47  1  0  0  0  0
 46 48  1  0  0  0  0
 46 49  1  0  0  0  0
 47 51  1  0  0  0  0
 48 53  1  0  0  0  0
 49 68  1  0  0  0  0
 50 53  1  0  0  0  0
 50 68  1  0  0  0  0
 51 73  1  0  0  0  0
 52 67  1  0  0  0  0
 53 66  1  0  0  0  0
 54 62  1  0  0  0  0
 55 63  1  0  0  0  0
 56 64  1  0  0  0  0
 57 64  1  0  0  0  0
 58 64  1  0  0  0  0
 59 75  1  0  0  0  0
 60 62  1  0  0  0  0
 60 83  1  0  0  0  0
 61 64  1  0  0  0  0
 61 74  1  0  0  0  0
 63 75  1  0  0  0  0
 65 66  1  0  0  0  0
M  CHG  1  75   1
M  ISO  4  39 100  60 101  72 100  83 101
M  END
> <Batch ID>
0152

> <Smiles>
CNC(C)C(=O)NC(C(=O)N1Cc2cc([101O:1][101CH2:1]C(C)C(=O)Nc3cc([100NH:0][100C:0](=O)N4CCCC(n5nc(-c6ccc(Oc7ccc(F)cc7F)cc6)c(C(N)=O)c5N)C4)cc4c3CC4)ccc2CC1C(=O)NC1CCCc2ccccc21)C(C)(C)C

> <Shape>
0.266

> <Color>
0.070

> <Negative vol penalty>
0.000

$$$$

  -OEChem-04052303273D

 84 92  0     1  0  0  0  0  0999 V2000
  -16.9075  -27.4488   23.9865 C   0  0  0  0  0  0  0  0  0  0  0  0
  -17.8829  -26.5387   23.5920 C   0  0  0  0  0  0  0  0  0  0  0  0
  -23.9121  -10.5898   23.0502 C   0  0  0  0  0  0  0  0  0  0  0  0
  -24.4211  -12.4642   24.4870 C   0  0  0  0  0  0  0  0  0  0  0  0
  -17.0028  -28.7839   23.5962 C   0  0  0  0  0  0  0  0  0  0  0  0
  -18.9537  -26.9630   22.8061 C   0  0  0  0  0  0  0  0  0  0  0  0
  -24.7159  -24.8988   23.0109 C   0  0  0  0  0  0  0  0  0  0  0  0
  -23.4276   -9.8795   24.1485 C   0  0  0  0  0  0  0  0  0  0  0  0
  -23.9366  -11.7540   25.5853 C   0  0  0  0  0  0  0  0  0  0  0  0
  -25.4080  -23.9708   22.2341 C   0  0  0  0  0  0  0  0  0  0  0  0
  -20.6079   -9.7939   26.0127 C   0  0  0  0  0  0  0  0  0  0  0  0
  -19.3996   -9.1133   25.8627 C   0  0  0  0  0  0  0  0  0  0  0  0
  -26.2917  -25.7664   20.8871 C   0  0  0  0  0  0  0  0  0  0  0  0
  -30.3087  -18.5934   21.4185 C   0  0  0  0  0  0  0  0  0  0  0  0
  -32.2559  -18.1621   20.0550 C   0  0  0  0  0  0  0  0  0  0  0  0
  -30.9045  -20.1225   19.6454 C   0  0  0  0  0  0  0  0  0  0  0  0
  -20.5119   -7.0281   26.3650 C   0  0  0  0  0  0  0  0  0  0  0  0
  -24.4089  -11.8821   23.2194 C   0  0  0  0  0  0  0  0  0  0  0  0
  -24.1806  -13.4672   21.2338 C   0  0  0  0  0  0  0  0  0  0  0  0
  -18.0804  -29.2268   22.8131 C   0  0  0  0  0  0  0  0  0  0  0  0
  -24.7980  -26.2691   22.7245 C   0  0  0  0  0  0  0  0  0  0  0  0
  -19.0628  -28.3050   22.4038 C   0  0  0  0  0  0  0  0  0  0  0  0
  -25.6017  -26.7100   21.6634 C   0  0  0  0  0  0  0  0  0  0  0  0
  -31.4082  -17.7962   21.1006 C   0  0  0  0  0  0  0  0  0  0  0  0
  -30.0568  -19.7565   20.6909 C   0  0  0  0  0  0  0  0  0  0  0  0
  -32.0041  -19.3253   19.3274 C   0  0  0  0  0  0  0  0  0  0  0  0
  -23.4398  -10.4616   25.4161 C   0  0  0  0  0  0  0  0  0  0  0  0
  -26.1937  -24.4043   21.1702 C   0  0  0  0  0  0  0  0  0  0  0  0
  -21.7682   -9.0916   26.3387 C   0  0  0  0  0  0  0  0  0  0  0  0
  -19.3516   -7.7304   26.0389 C   0  0  0  0  0  0  0  0  0  0  0  0
  -21.7201   -7.7088   26.5149 C   0  0  0  0  0  0  0  0  0  0  0  0
  -24.9101  -12.6161   22.0854 C   0  0  0  0  0  0  0  0  0  0  0  0
  -25.1052  -13.9158   20.3224 C   0  0  0  0  0  0  0  0  0  0  0  0
  -22.7915  -13.8209   21.2638 C   0  0  0  0  0  0  0  0  0  0  0  0
  -22.7130  -28.5105   21.8685 C   0  0  0  0  0  0  0  0  0  0  0  0
  -25.2667  -30.4764   22.2380 C   0  0  0  0  0  0  0  0  0  0  0  0
  -28.5445  -21.7467   20.3974 C   0  0  0  0  0  0  0  0  0  0  0  0
  -28.6597  -30.8389   22.2946 C   0  0  0  0  0  0  0  0  0  0  0  0
  -31.0493  -14.5458   20.5048 C   0  0  0  0  0  0  0  0  0  0  0  0
  -18.1156  -30.6699   22.3763 C   0  0  0  0  0  0  0  0  0  0  0  0
  -24.0666  -27.2594   23.5886 C   0  0  0  0  0  0  0  0  0  0  0  0
  -25.7393  -28.1716   21.3270 C   0  0  0  0  0  0  0  0  0  0  0  0
  -19.4799  -31.1159   21.8567 C   0  0  0  0  0  0  0  0  0  0  0  0
  -29.1825  -12.6193   18.1776 C   0  0  0  0  0  0  0  0  0  0  0  0
  -20.0430  -30.0858   20.8828 C   0  0  0  0  0  0  0  0  0  0  0  0
  -27.8081  -12.4798   18.8345 C   0  0  0  0  0  0  0  0  0  0  0  0
  -30.3081  -12.5717   19.2086 C   0  0  0  0  0  0  0  0  0  0  0  0
  -28.8007  -13.3924   20.9752 C   0  0  0  0  0  0  0  0  0  0  0  0
  -20.2526  -28.7320   21.5718 C   0  0  1  0  0  0  0  0  0  0  0  0
  -23.8135  -28.5910   22.8884 C   0  0  1  0  0  0  0  0  0  0  0  0
  -27.6294  -13.4914   19.9828 C   0  0  2  0  0  0  0  0  0  0  0  0
  -30.4510  -32.5726   22.5823 C   0  0  0  0  0  0  0  0  0  0  0  0
  -24.7405  -31.4863   19.4072 C   0  0  0  0  0  0  0  0  0  0  0  0
  -27.0450  -32.4650   19.4028 C   0  0  0  0  0  0  0  0  0  0  0  0
  -25.3545  -33.2667   21.0527 C   0  0  0  0  0  0  0  0  0  0  0  0
  -32.4136  -20.4275   17.1267 C   0  0  0  0  0  0  0  0  0  0  0  0
  -29.7514  -29.4812   24.6870 C   0  0  0  0  0  0  0  0  0  0  0  0
  -31.6775  -16.5525   21.8784 C   0  0  0  0  0  0  0  0  0  0  0  0
  -27.2913  -22.2978   21.0518 C   0  0  0  0  0  0  0  0  0  1  0  0
  -26.3741  -30.9710   21.3391 C   0  0  1  0  0  0  0  0  0  0  0  0
  -29.5819  -31.5366   23.2781 C   0  0  2  0  0  0  0  0  0  0  0  0
  -25.8746  -32.0195   20.3053 C   0  0  0  0  0  0  0  0  0  0  0  0
  -26.1988  -12.5275   21.7453 N   0  0  0  0  0  0  0  0  0  0  0  0
  -26.2862  -13.3286   20.6698 N   0  0  0  0  0  0  0  0  0  0  0  0
  -24.9997  -29.1006   22.1973 N   0  0  0  0  0  0  0  0  0  0  0  0
  -30.0789  -13.5600   20.2657 N   0  0  0  0  0  0  0  0  0  0  0  0
  -25.0150  -14.7511   19.2658 N   0  0  0  0  0  0  0  0  0  0  0  0
  -21.9834  -13.2699   22.2677 N   0  0  0  0  0  0  0  0  0  0  0  0
  -28.9411  -20.5648   21.0139 N   0  0  0  0  0  0  0  0  0  0  0  0
  -32.8618  -19.6952   18.2703 N   0  0  0  0  0  0  0  0  0  0  0  0
  -21.4531  -28.7566   22.3797 N   0  0  0  0  0  0  0  0  0  0  0  0
  -27.4294  -31.4573   22.2212 N   0  0  0  0  0  0  0  0  0  0  0  0
  -30.7580  -15.4540   21.5173 N   0  0  0  0  0  0  0  0  0  0  0  0
  -30.4738  -30.5458   23.9442 N   0  3  0  0  0  0  0  0  0  0  0  0
  -22.2784  -14.5894   20.4155 O   0  0  0  0  0  0  0  0  0  0  0  0
  -22.9870  -28.2463   20.7037 O   0  0  0  0  0  0  0  0  0  0  0  0
  -24.6657  -31.2801   22.9553 O   0  0  0  0  0  0  0  0  0  0  0  0
  -29.0824  -22.3193   19.4554 O   0  0  0  0  0  0  0  0  0  0  0  0
  -28.9981  -29.8469   21.6528 O   0  0  0  0  0  0  0  0  0  0  0  0
  -32.1006  -14.6224   19.8597 O   0  0  0  0  0  0  0  0  0  0  0  0
  -22.9668   -9.7689   26.4880 O   0  0  0  0  0  0  0  0  0  0  0  0
  -26.8698  -23.5005   20.4099 O   0  0  0  0  0  0  0  0  0  1  0  0
  -18.1909   -7.0772   25.8964 F   0  0  0  0  0  0  0  0  0  0  0  0
  -22.8313   -7.0289   26.8294 F   0  0  0  0  0  0  0  0  0  0  0  0
  1  2  1  0  0  0  0
  1  5  2  0  0  0  0
  2  6  2  0  0  0  0
  3  8  2  0  0  0  0
  3 18  1  0  0  0  0
  4  9  1  0  0  0  0
  4 18  2  0  0  0  0
  5 20  1  0  0  0  0
  6 22  1  0  0  0  0
  7 10  2  0  0  0  0
  7 21  1  0  0  0  0
  8 27  1  0  0  0  0
  9 27  2  0  0  0  0
 10 28  1  0  0  0  0
 11 12  2  0  0  0  0
 11 29  1  0  0  0  0
 12 30  1  0  0  0  0
 13 23  1  0  0  0  0
 13 28  2  0  0  0  0
 14 24  1  0  0  0  0
 14 25  2  0  0  0  0
 15 24  2  0  0  0  0
 15 26  1  0  0  0  0
 16 25  1  0  0  0  0
 16 26  2  0  0  0  0
 17 30  2  0  0  0  0
 17 31  1  0  0  0  0
 18 32  1  0  0  0  0
 19 32  1  0  0  0  0
 19 33  2  0  0  0  0
 19 34  1  0  0  0  0
 20 22  2  0  0  0  0
 20 40  1  0  0  0  0
 21 23  2  0  0  0  0
 21 41  1  0  0  0  0
 22 49  1  0  0  0  0
 23 42  1  0  0  0  0
 24 58  1  0  0  0  0
 25 69  1  0  0  0  0
 26 70  1  0  0  0  0
 27 81  1  0  0  0  0
 28 82  1  0  0  0  0
 29 31  2  0  0  0  0
 29 81  1  0  0  0  0
 30 83  1  0  0  0  0
 31 84  1  0  0  0  0
 32 63  2  0  0  0  0
 33 64  1  0  0  0  0
 33 67  1  0  0  0  0
 34 68  1  0  0  0  0
 34 75  2  0  0  0  0
 35 50  1  0  0  0  0
 35 71  1  0  0  0  0
 35 76  2  0  0  0  0
 36 60  1  0  0  0  0
 36 65  1  0  0  0  0
 36 77  2  0  0  0  0
 37 59  1  0  0  0  0
 37 69  1  0  0  0  0
 37 78  2  0  0  0  0
 38 61  1  0  0  0  0
 38 72  1  0  0  0  0
 38 79  2  0  0  0  0
 39 66  1  0  0  0  0
 39 73  1  0  0  0  0
 39 80  2  0  0  0  0
 40 43  1  0  0  0  0
 41 50  1  0  0  0  0
 42 65  1  0  0  0  0
 43 45  1  0  0  0  0
 44 46  1  0  0  0  0
 44 47  1  0  0  0  0
 45 49  1  0  0  0  0
 46 51  1  0  0  0  0
 47 66  1  0  0  0  0
 48 51  1  0  0  0  0
 48 66  1  0  0  0  0
 49 71  1  0  0  0  0
 50 65  1  0  0  0  0
 51 64  1  0  0  0  0
 52 61  1  0  0  0  0
 53 62  1  0  0  0  0
 54 62  1  0  0  0  0
 55 62  1  0  0  0  0
 56 70  1  0  0  0  0
 57 74  1  0  0  0  0
 58 73  1  0  0  0  0
 59 82  1  0  0  0  0
 60 62  1  0  0  0  0
 60 72  1  0  0  0  0
 61 74  1  0  0  0  0
 63 64  1  0  0  0  0
M  CHG  1  74   1
M  ISO  4  39 100  59 101  73 100  82 101
M  END
> <Batch ID>
0152

> <Smiles>
CNc1cc(C[100NH:0][100C:0](=O)N2CCCC(n3nc(-c4ccc(Oc5ccc(F)cc5F)cc4)c(C(N)=O)c3N)C2)cc(NC(=O)[101CH2:1][101O:1]c2ccc3c(c2)CN(C(=O)C(NC(=O)C(C)NC)C(C)(C)C)C(C(=O)NC2CCCc4ccccc42)C3)c1

> <Shape>
0.250

> <Color>
0.117

> <Negative vol penalty>
0.000

$$$$

  -OEChem-04052303273D

 81 89  0     1  0  0  0  0  0999 V2000
  -23.3866   -7.9945   22.0541 C   0  0  0  0  0  0  0  0  0  0  0  0
  -24.3479   -8.8467   21.5203 C   0  0  0  0  0  0  0  0  0  0  0  0
  -25.0063  -32.3127   23.0775 C   0  0  0  0  0  0  0  0  0  0  0  0
  -25.9612  -32.1599   20.8635 C   0  0  0  0  0  0  0  0  0  0  0  0
  -22.0496   -8.3884   22.0889 C   0  0  0  0  0  0  0  0  0  0  0  0
  -23.9726  -10.0930   21.0199 C   0  0  0  0  0  0  0  0  0  0  0  0
  -27.2174  -15.2818   21.2500 C   0  0  0  0  0  0  0  0  0  0  0  0
  -25.5827  -33.5725   23.2392 C   0  0  0  0  0  0  0  0  0  0  0  0
  -26.5376  -33.4198   21.0251 C   0  0  0  0  0  0  0  0  0  0  0  0
  -28.0319  -15.9209   20.3163 C   0  0  0  0  0  0  0  0  0  0  0  0
  -24.9497  -36.7459   22.2582 C   0  0  0  0  0  0  0  0  0  0  0  0
  -24.1554  -37.7579   22.7971 C   0  0  0  0  0  0  0  0  0  0  0  0
  -29.1293  -23.5281   16.9932 C   0  0  0  0  0  0  0  0  0  0  0  0
  -28.5151  -24.6188   17.6539 C   0  0  0  0  0  0  0  0  0  0  0  0
  -26.1787  -17.3224   19.6678 C   0  0  0  0  0  0  0  0  0  0  0  0
  -25.7070  -37.9981   24.6334 C   0  0  0  0  0  0  0  0  0  0  0  0
  -25.1956  -31.6063   21.8897 C   0  0  0  0  0  0  0  0  0  0  0  0
  -23.3293  -30.0126   21.1938 C   0  0  0  0  0  0  0  0  0  0  0  0
  -21.6591   -9.6440   21.5976 C   0  0  0  0  0  0  0  0  0  0  0  0
  -25.8722  -15.6514   21.3923 C   0  0  0  0  0  0  0  0  0  0  0  0
  -22.6289  -10.5035   21.0470 C   0  0  0  0  0  0  0  0  0  0  0  0
  -25.3499  -16.6882   20.6059 C   0  0  0  0  0  0  0  0  0  0  0  0
  -26.3484  -34.1261   22.2130 C   0  0  0  0  0  0  0  0  0  0  0  0
  -27.5119  -16.9394   19.5230 C   0  0  0  0  0  0  0  0  0  0  0  0
  -26.1227  -36.3599   22.9070 C   0  0  0  0  0  0  0  0  0  0  0  0
  -24.5340  -38.3840   23.9846 C   0  0  0  0  0  0  0  0  0  0  0  0
  -26.5013  -36.9860   24.0945 C   0  0  0  0  0  0  0  0  0  0  0  0
  -24.6010  -30.3046   21.7223 C   0  0  0  0  0  0  0  0  0  0  0  0
  -23.2407  -28.6431   21.2492 C   0  0  0  0  0  0  0  0  0  0  0  0
  -29.1592  -22.4977   17.9039 C   0  0  0  0  0  0  0  0  0  0  0  0
  -28.2133  -24.1770   18.9211 C   0  0  0  0  0  0  0  0  0  0  0  0
  -22.3185  -30.8999   20.6971 C   0  0  0  0  0  0  0  0  0  0  0  0
  -23.0862  -14.1698   21.0088 C   0  0  0  0  0  0  0  0  0  0  0  0
  -21.8938  -16.9299   22.2263 C   0  0  0  0  0  0  0  0  0  0  0  0
  -29.6401  -20.1907   18.7929 C   0  0  0  0  0  0  0  0  0  0  0  0
  -22.3058  -20.2743   22.7672 C   0  0  0  0  0  0  0  0  0  0  0  0
  -27.3295  -24.2857   21.2776 C   0  0  0  0  0  0  0  0  0  0  0  0
  -20.1952  -10.0065   21.6134 C   0  0  0  0  0  0  0  0  0  0  0  0
  -25.0139  -14.9704   22.4228 C   0  0  0  0  0  0  0  0  0  0  0  0
  -23.9176  -17.1363   20.7340 C   0  0  0  0  0  0  0  0  0  0  0  0
  -19.9342  -11.4960   21.4051 C   0  0  0  0  0  0  0  0  0  0  0  0
  -24.8391  -24.8852   23.7507 C   0  0  0  0  0  0  0  0  0  0  0  0
  -20.7640  -12.0255   20.2398 C   0  0  0  0  0  0  0  0  0  0  0  0
  -24.3754  -26.3142   23.4593 C   0  0  0  0  0  0  0  0  0  0  0  0
  -26.3391  -24.7166   23.5156 C   0  0  0  0  0  0  0  0  0  0  0  0
  -26.3496  -26.5799   21.9039 C   0  0  0  0  0  0  0  0  0  0  0  0
  -22.2645  -11.8734   20.5171 C   0  0  1  0  0  0  0  0  0  0  0  0
  -23.5218  -15.0783   22.1235 C   0  0  1  0  0  0  0  0  0  0  0  0
  -24.8339  -26.7820   22.0641 C   0  0  2  0  0  0  0  0  0  0  0  0
  -21.1439  -22.2681   23.7531 C   0  0  0  0  0  0  0  0  0  0  0  0
  -20.0762  -17.0773   19.7800 C   0  0  0  0  0  0  0  0  0  0  0  0
  -19.6568  -19.4850   20.3231 C   0  0  0  0  0  0  0  0  0  0  0  0
  -18.9768  -17.7077   21.9360 C   0  0  0  0  0  0  0  0  0  0  0  0
  -24.4560  -20.6883   24.7582 C   0  0  0  0  0  0  0  0  0  0  0  0
  -30.2739  -18.9060   18.2715 C   0  0  0  0  0  0  0  0  0  0  0  0
  -29.6967  -17.6524   18.9113 C   0  0  0  0  0  0  0  0  0  1  0  0
  -21.4303  -18.2432   21.6436 C   0  0  1  0  0  0  0  0  0  0  0  0
  -22.1134  -21.1249   24.0098 C   0  0  2  0  0  0  0  0  0  0  0  0
  -20.0615  -18.1188   20.9166 C   0  0  0  0  0  0  0  0  0  0  0  0
  -25.2720  -29.2088   22.0868 N   0  0  0  0  0  0  0  0  0  0  0  0
  -24.4186  -28.2148   21.7869 N   0  0  0  0  0  0  0  0  0  0  0  0
  -23.1168  -16.4354   21.7513 N   0  0  0  0  0  0  0  0  0  0  0  0
  -26.6994  -25.1762   22.1725 N   0  0  0  0  0  0  0  0  0  0  0  0
  -22.2708  -27.7754   20.8900 N   0  0  0  0  0  0  0  0  0  0  0  0
  -22.5730  -32.2780   20.7125 N   0  0  0  0  0  0  0  0  0  0  0  0
  -29.6529  -21.1749   17.8081 N   0  0  0  0  0  0  0  0  0  0  0  0
  -27.5946  -24.8245   20.0191 N   0  0  0  0  0  0  0  0  0  0  0  0
  -22.7178  -12.9049   21.4254 N   0  0  0  0  0  0  0  0  0  0  0  0
  -21.4382  -19.2028   22.7424 N   0  0  0  0  0  0  0  0  0  0  0  0
  -23.4152  -21.7022   24.4490 N   0  3  0  0  0  0  0  0  0  0  0  0
  -21.2156  -30.4840   20.2679 O   0  0  0  0  0  0  0  0  0  0  0  0
  -23.0831  -14.5862   19.8562 O   0  0  0  0  0  0  0  0  0  0  0  0
  -21.1999  -16.3673   23.0769 O   0  0  0  0  0  0  0  0  0  0  0  0
  -29.1978  -20.2844   19.9330 O   0  0  0  0  0  0  0  0  0  0  0  0
  -23.1396  -20.5363   21.9032 O   0  0  0  0  0  0  0  0  0  0  0  0
  -27.5883  -23.1219   21.5948 O   0  0  0  0  0  0  0  0  0  0  0  0
  -28.6027  -22.8850   19.0815 O   0  0  0  0  0  0  0  0  0  0  0  0
  -26.9107  -35.3555   22.3703 O   0  0  0  0  0  0  0  0  0  0  0  0
  -28.3045  -17.5644   18.6104 O   0  0  0  0  0  0  0  0  0  1  0  0
  -23.7718  -39.3568   24.5012 F   0  0  0  0  0  0  0  0  0  0  0  0
  -27.6278  -36.6203   24.7216 F   0  0  0  0  0  0  0  0  0  0  0  0
  1  2  1  0  0  0  0
  1  5  2  0  0  0  0
  2  6  2  0  0  0  0
  3  8  2  0  0  0  0
  3 17  1  0  0  0  0
  4  9  1  0  0  0  0
  4 17  2  0  0  0  0
  5 19  1  0  0  0  0
  6 21  1  0  0  0  0
  7 10  2  0  0  0  0
  7 20  1  0  0  0  0
  8 23  1  0  0  0  0
  9 23  2  0  0  0  0
 10 24  1  0  0  0  0
 11 12  2  0  0  0  0
 11 25  1  0  0  0  0
 12 26  1  0  0  0  0
 13 14  1  0  0  0  0
 13 30  2  0  0  0  0
 14 31  2  0  0  0  0
 15 22  1  0  0  0  0
 15 24  2  0  0  0  0
 16 26  2  0  0  0  0
 16 27  1  0  0  0  0
 17 28  1  0  0  0  0
 18 28  1  0  0  0  0
 18 29  2  0  0  0  0
 18 32  1  0  0  0  0
 19 21  2  0  0  0  0
 19 38  1  0  0  0  0
 20 22  2  0  0  0  0
 20 39  1  0  0  0  0
 21 47  1  0  0  0  0
 22 40  1  0  0  0  0
 23 78  1  0  0  0  0
 24 79  1  0  0  0  0
 25 27  2  0  0  0  0
 25 78  1  0  0  0  0
 26 80  1  0  0  0  0
 27 81  1  0  0  0  0
 28 60  2  0  0  0  0
 29 61  1  0  0  0  0
 29 64  1  0  0  0  0
 30 66  1  0  0  0  0
 30 77  1  0  0  0  0
 31 67  1  0  0  0  0
 31 77  1  0  0  0  0
 32 65  1  0  0  0  0
 32 71  2  0  0  0  0
 33 48  1  0  0  0  0
 33 68  1  0  0  0  0
 33 72  2  0  0  0  0
 34 57  1  0  0  0  0
 34 62  1  0  0  0  0
 34 73  2  0  0  0  0
 35 55  1  0  0  0  0
 35 66  1  0  0  0  0
 35 74  2  0  0  0  0
 36 58  1  0  0  0  0
 36 69  1  0  0  0  0
 36 75  2  0  0  0  0
 37 63  1  0  0  0  0
 37 67  1  0  0  0  0
 37 76  2  0  0  0  0
 38 41  1  0  0  0  0
 39 48  1  0  0  0  0
 40 62  1  0  0  0  0
 41 43  1  0  0  0  0
 42 44  1  0  0  0  0
 42 45  1  0  0  0  0
 43 47  1  0  0  0  0
 44 49  1  0  0  0  0
 45 63  1  0  0  0  0
 46 49  1  0  0  0  0
 46 63  1  0  0  0  0
 47 68  1  0  0  0  0
 48 62  1  0  0  0  0
 49 61  1  0  0  0  0
 50 58  1  0  0  0  0
 51 59  1  0  0  0  0
 52 59  1  0  0  0  0
 53 59  1  0  0  0  0
 54 70  1  0  0  0  0
 55 56  1  0  0  0  0
 56 79  1  0  0  0  0
 57 59  1  0  0  0  0
 57 69  1  0  0  0  0
 58 70  1  0  0  0  0
 60 61  1  0  0  0  0
M  CHG  1  70   1
M  ISO  4  37 100  56 101  67 100  79 101
M  END
> <Batch ID>
0152

> <Smiles>
CNC(C)C(=O)NC(C(=O)N1Cc2cc([101O:1][101CH2:1]CC(=O)Nc3ccc([100NH:0][100C:0](=O)N4CCCC(n5nc(-c6ccc(Oc7ccc(F)cc7F)cc6)c(C(N)=O)c5N)C4)o3)ccc2CC1C(=O)NC1CCCc2ccccc21)C(C)(C)C

> <Shape>
0.214

> <Color>
0.084

> <Negative vol penalty>
0.000

$$$$

  -OEChem-04052303273D

 86 95  0     1  0  0  0  0  0999 V2000
  -31.7237  -12.7722   21.5092 C   0  0  0  0  0  0  0  0  0  0  0  0
  -31.1378  -13.9028   22.0694 C   0  0  0  0  0  0  0  0  0  0  0  0
  -22.6373  -30.6442   20.5627 C   0  0  0  0  0  0  0  0  0  0  0  0
  -22.5401  -28.8674   22.1970 C   0  0  0  0  0  0  0  0  0  0  0  0
  -31.1026  -12.1219   20.4437 C   0  0  0  0  0  0  0  0  0  0  0  0
  -29.9309  -14.3845   21.5635 C   0  0  0  0  0  0  0  0  0  0  0  0
  -26.6438  -15.6082   25.2163 C   0  0  0  0  0  0  0  0  0  0  0  0
  -21.2509  -30.5886   20.4198 C   0  0  0  0  0  0  0  0  0  0  0  0
  -21.1536  -28.8119   22.0541 C   0  0  0  0  0  0  0  0  0  0  0  0
  -26.8445  -16.8215   25.8731 C   0  0  0  0  0  0  0  0  0  0  0  0
  -18.4682  -30.5571   23.1328 C   0  0  0  0  0  0  0  0  0  0  0  0
  -17.7010  -30.4807   24.2952 C   0  0  0  0  0  0  0  0  0  0  0  0
  -28.8719  -20.8457   22.0875 C   0  0  0  0  0  0  0  0  0  0  0  0
  -28.2948  -23.1332   22.6081 C   0  0  0  0  0  0  0  0  0  0  0  0
  -25.1359  -17.8372   24.5062 C   0  0  0  0  0  0  0  0  0  0  0  0
  -29.4750  -22.6205   20.5632 C   0  0  0  0  0  0  0  0  0  0  0  0
  -16.7839  -28.3729   23.5514 C   0  0  0  0  0  0  0  0  0  0  0  0
  -23.2819  -29.7835   21.4513 C   0  0  0  0  0  0  0  0  0  0  0  0
  -28.2862  -21.7791   22.9427 C   0  0  0  0  0  0  0  0  0  0  0  0
  -25.4447  -30.6326   22.5043 C   0  0  0  0  0  0  0  0  0  0  0  0
  -29.8826  -12.5902   19.9309 C   0  0  0  0  0  0  0  0  0  0  0  0
  -25.6937  -15.5029   24.1903 C   0  0  0  0  0  0  0  0  0  0  0  0
  -29.2936  -13.7407   20.4893 C   0  0  0  0  0  0  0  0  0  0  0  0
  -24.9234  -16.6208   23.8396 C   0  0  0  0  0  0  0  0  0  0  0  0
  -29.4663  -21.2663   20.8978 C   0  0  0  0  0  0  0  0  0  0  0  0
  -28.8892  -23.5539   21.4184 C   0  0  0  0  0  0  0  0  0  0  0  0
  -20.5091  -29.6725   21.1655 C   0  0  0  0  0  0  0  0  0  0  0  0
  -26.0925  -17.9369   25.5161 C   0  0  0  0  0  0  0  0  0  0  0  0
  -18.3933  -29.5414   22.1797 C   0  0  0  0  0  0  0  0  0  0  0  0
  -16.8589  -29.3887   24.5045 C   0  0  0  0  0  0  0  0  0  0  0  0
  -17.5511  -28.4493   22.3890 C   0  0  0  0  0  0  0  0  0  0  0  0
  -24.7141  -29.8400   21.5989 C   0  0  0  0  0  0  0  0  0  0  0  0
  -26.7584  -30.3240   22.2482 C   0  0  0  0  0  0  0  0  0  0  0  0
  -27.6582  -21.3347   24.1998 C   0  0  0  0  0  0  0  0  0  0  0  0
  -24.9777  -31.5644   23.4889 C   0  0  0  0  0  0  0  0  0  0  0  0
  -25.8072  -14.8064   21.0910 C   0  0  0  0  0  0  0  0  0  0  0  0
  -22.5753  -14.9195   21.3454 C   0  0  0  0  0  0  0  0  0  0  0  0
  -19.8400  -16.0879   23.0187 C   0  0  0  0  0  0  0  0  0  0  0  0
  -29.4458  -25.5137   19.9366 C   0  0  0  0  0  0  0  0  0  0  0  0
  -29.2728  -11.8816   18.7473 C   0  0  0  0  0  0  0  0  0  0  0  0
  -25.4706  -14.1802   23.5098 C   0  0  0  0  0  0  0  0  0  0  0  0
  -23.8766  -16.5550   22.7587 C   0  0  0  0  0  0  0  0  0  0  0  0
  -27.8066  -12.2367   18.5140 C   0  0  0  0  0  0  0  0  0  0  0  0
  -29.6398  -28.8533   18.7172 C   0  0  0  0  0  0  0  0  0  0  0  0
  -30.2426  -21.1692   26.7307 C   0  0  0  0  0  0  0  0  0  0  0  0
  -27.6036  -13.7463   18.5947 C   0  0  0  0  0  0  0  0  0  0  0  0
  -28.4688  -29.5589   19.4049 C   0  0  0  0  0  0  0  0  0  0  0  0
  -28.9755  -21.3227   27.5656 C   0  0  0  0  0  0  0  0  0  0  0  0
  -29.8161  -21.6197   25.3393 C   0  0  0  0  0  0  0  0  0  0  0  0
  -29.2931  -27.4135   18.3421 C   0  0  0  0  0  0  0  0  0  0  0  0
  -27.6038  -27.2982   20.1315 C   0  0  0  0  0  0  0  0  0  0  0  0
  -27.9725  -14.2791   19.9845 C   0  0  1  0  0  0  0  0  0  0  0  0
  -24.8367  -14.3181   22.1290 C   0  0  1  0  0  0  0  0  0  0  0  0
  -27.9272  -28.7307   20.5865 C   0  0  2  0  0  0  0  0  0  0  0  0
  -27.8508  -20.8833   26.6233 C   0  0  2  0  0  0  0  0  0  0  0  0
  -17.3315  -16.0418   22.9680 C   0  0  0  0  0  0  0  0  0  0  0  0
  -22.5880  -16.9095   19.0325 C   0  0  0  0  0  0  0  0  0  0  0  0
  -20.2426  -17.5331   19.6478 C   0  0  0  0  0  0  0  0  0  0  0  0
  -20.7638  -15.2018   18.9294 C   0  0  0  0  0  0  0  0  0  0  0  0
  -19.6942  -14.8008   25.6797 C   0  0  0  0  0  0  0  0  0  0  0  0
  -27.5975  -19.3835   26.6557 C   0  0  0  0  0  0  0  0  0  1  0  0
  -21.5289  -15.9983   21.2037 C   0  0  1  0  0  0  0  0  0  0  0  0
  -18.5893  -15.3872   23.5178 C   0  0  2  0  0  0  0  0  0  0  0  0
  -21.3018  -16.4128   19.7225 C   0  0  0  0  0  0  0  0  0  0  0  0
  -25.4984  -29.0848   20.8253 N   0  0  0  0  0  0  0  0  0  0  0  0
  -26.7356  -29.4015   21.2439 N   0  0  0  0  0  0  0  0  0  0  0  0
  -28.3861  -21.2678   25.3010 N   0  0  0  0  0  0  0  0  0  0  0  0
  -23.7000  -15.2411   22.1185 N   0  0  0  0  0  0  0  0  0  0  0  0
  -28.7909  -26.6889   19.5115 N   0  0  0  0  0  0  0  0  0  0  0  0
  -30.0590  -20.3226   20.0334 N   0  0  0  0  0  0  0  0  0  0  0  0
  -27.9192  -30.7545   22.7864 N   0  0  0  0  0  0  0  0  0  0  0  0
  -23.5963  -31.7616   23.6200 N   0  0  0  0  0  0  0  0  0  0  0  0
  -28.8985  -24.9294   21.0783 N   0  0  0  0  0  0  0  0  0  0  0  0
  -26.9151  -13.9962   20.9313 N   0  0  0  0  0  0  0  0  0  0  0  0
  -20.3336  -15.4982   21.8742 N   0  0  0  0  0  0  0  0  0  0  0  0
  -26.3687  -21.0099   24.2068 N   0  3  0  0  0  0  0  0  0  0  0  0
  -18.5298  -15.4313   25.0062 N   0  3  0  0  0  0  0  0  0  0  0  0
  -25.7629  -32.2153   24.2192 O   0  0  0  0  0  0  0  0  0  0  0  0
  -25.5677  -15.8408   20.4791 O   0  0  0  0  0  0  0  0  0  0  0  0
  -22.3980  -13.8291   20.7966 O   0  0  0  0  0  0  0  0  0  0  0  0
  -20.3281  -17.0633   23.5852 O   0  0  0  0  0  0  0  0  0  0  0  0
  -30.4370  -25.0741   19.3481 O   0  0  0  0  0  0  0  0  0  0  0  0
  -19.1562  -29.6182   21.0265 O   0  0  0  0  0  0  0  0  0  0  0  0
  -26.2868  -19.1226   26.1552 O   0  0  0  0  0  0  0  0  0  1  0  0
  -16.1233  -29.3147   25.6215 F   0  0  0  0  0  0  0  0  0  0  0  0
  -17.4758  -27.4698   21.4775 F   0  0  0  0  0  0  0  0  0  0  0  0
  1  2  1  0  0  0  0
  1  5  2  0  0  0  0
  2  6  2  0  0  0  0
  3  8  2  0  0  0  0
  3 18  1  0  0  0  0
  4  9  1  0  0  0  0
  4 18  2  0  0  0  0
  5 21  1  0  0  0  0
  6 23  1  0  0  0  0
  7 10  2  0  0  0  0
  7 22  1  0  0  0  0
  8 27  1  0  0  0  0
  9 27  2  0  0  0  0
 10 28  1  0  0  0  0
 11 12  2  0  0  0  0
 11 29  1  0  0  0  0
 12 30  1  0  0  0  0
 13 19  1  0  0  0  0
 13 25  2  0  0  0  0
 14 19  2  0  0  0  0
 14 26  1  0  0  0  0
 15 24  1  0  0  0  0
 15 28  2  0  0  0  0
 16 25  1  0  0  0  0
 16 26  2  0  0  0  0
 17 30  2  0  0  0  0
 17 31  1  0  0  0  0
 18 32  1  0  0  0  0
 19 34  1  0  0  0  0
 20 32  1  0  0  0  0
 20 33  2  0  0  0  0
 20 35  1  0  0  0  0
 21 23  2  0  0  0  0
 21 40  1  0  0  0  0
 22 24  2  0  0  0  0
 22 41  1  0  0  0  0
 23 52  1  0  0  0  0
 24 42  1  0  0  0  0
 25 70  1  0  0  0  0
 26 73  1  0  0  0  0
 27 83  1  0  0  0  0
 28 84  1  0  0  0  0
 29 31  2  0  0  0  0
 29 83  1  0  0  0  0
 30 85  1  0  0  0  0
 31 86  1  0  0  0  0
 32 65  2  0  0  0  0
 33 66  1  0  0  0  0
 33 71  1  0  0  0  0
 34 67  1  0  0  0  0
 34 76  2  0  0  0  0
 35 72  1  0  0  0  0
 35 78  2  0  0  0  0
 36 53  1  0  0  0  0
 36 74  1  0  0  0  0
 36 79  2  0  0  0  0
 37 62  1  0  0  0  0
 37 68  1  0  0  0  0
 37 80  2  0  0  0  0
 38 63  1  0  0  0  0
 38 75  1  0  0  0  0
 38 81  2  0  0  0  0
 39 69  1  0  0  0  0
 39 73  1  0  0  0  0
 39 82  2  0  0  0  0
 40 43  1  0  0  0  0
 41 53  1  0  0  0  0
 42 68  1  0  0  0  0
 43 46  1  0  0  0  0
 44 47  1  0  0  0  0
 44 50  1  0  0  0  0
 45 48  1  0  0  0  0
 45 49  1  0  0  0  0
 46 52  1  0  0  0  0
 47 54  1  0  0  0  0
 48 55  1  0  0  0  0
 49 67  1  0  0  0  0
 50 69  1  0  0  0  0
 51 54  1  0  0  0  0
 51 69  1  0  0  0  0
 52 74  1  0  0  0  0
 53 68  1  0  0  0  0
 54 66  1  0  0  0  0
 55 61  1  0  0  0  0
 55 67  1  0  0  0  0
 56 63  1  0  0  0  0
 57 64  1  0  0  0  0
 58 64  1  0  0  0  0
 59 64  1  0  0  0  0
 60 77  1  0  0  0  0
 61 84  1  0  0  0  0
 62 64  1  0  0  0  0
 62 75  1  0  0  0  0
 63 77  1  0  0  0  0
 65 66  1  0  0  0  0
M  CHG  2  76   1  77   1
M  ISO  4  39 100  61 101  73 100  84 101
M  END
> <Batch ID>
0152

> <Smiles>
CNC(C)C(=O)NC(C(=O)N1Cc2cc([101O:1][101CH2:1]C3CCCN3C(=N)c3cc(N)cc([100NH:0][100C:0](=O)N4CCCC(n5nc(-c6ccc(Oc7ccc(F)cc7F)cc6)c(C(N)=O)c5N)C4)c3)ccc2CC1C(=O)NC1CCCc2ccccc21)C(C)(C)C

> <Shape>
0.250

> <Color>
0.083

> <Negative vol penalty>
0.000

$$$$

  -OEChem-04052303273D

 82 91  0     1  0  0  0  0  0999 V2000
  -20.7261  -34.9810   16.2574 C   0  0  0  0  0  0  0  0  0  0  0  0
  -21.3467  -33.7444   16.1120 C   0  0  0  0  0  0  0  0  0  0  0  0
  -24.7223   -8.8858   21.5137 C   0  0  0  0  0  0  0  0  0  0  0  0
  -23.0723  -10.5606   20.9573 C   0  0  0  0  0  0  0  0  0  0  0  0
  -21.1660  -35.8695   17.2377 C   0  0  0  0  0  0  0  0  0  0  0  0
  -22.4083  -33.3960   16.9462 C   0  0  0  0  0  0  0  0  0  0  0  0
  -23.7334  -27.8108   19.0807 C   0  0  0  0  0  0  0  0  0  0  0  0
  -23.7875   -8.2312   22.3156 C   0  0  0  0  0  0  0  0  0  0  0  0
  -22.1374   -9.9060   21.7591 C   0  0  0  0  0  0  0  0  0  0  0  0
  -24.6432  -26.8395   18.6654 C   0  0  0  0  0  0  0  0  0  0  0  0
  -21.1607   -6.1463   21.8839 C   0  0  0  0  0  0  0  0  0  0  0  0
  -21.0676   -4.7592   21.7705 C   0  0  0  0  0  0  0  0  0  0  0  0
  -25.4587  -20.1357   19.4936 C   0  0  0  0  0  0  0  0  0  0  0  0
  -25.3367  -18.7302   19.6078 C   0  0  0  0  0  0  0  0  0  0  0  0
  -26.2323  -27.6403   20.2942 C   0  0  0  0  0  0  0  0  0  0  0  0
  -21.6350   -4.5299   24.1077 C   0  0  0  0  0  0  0  0  0  0  0  0
  -24.3648  -10.0506   20.8346 C   0  0  0  0  0  0  0  0  0  0  0  0
  -25.5744  -10.5134   18.6368 C   0  0  0  0  0  0  0  0  0  0  0  0
  -22.2273  -35.5278   18.0908 C   0  0  0  0  0  0  0  0  0  0  0  0
  -24.0708  -28.7127   20.1000 C   0  0  0  0  0  0  0  0  0  0  0  0
  -22.8637  -34.2812   17.9380 C   0  0  0  0  0  0  0  0  0  0  0  0
  -25.3240  -28.6205   20.7223 C   0  0  0  0  0  0  0  0  0  0  0  0
  -22.4950   -8.7412   22.4383 C   0  0  0  0  0  0  0  0  0  0  0  0
  -25.8940  -26.7559   19.2702 C   0  0  0  0  0  0  0  0  0  0  0  0
  -21.4911   -6.7252   23.1093 C   0  0  0  0  0  0  0  0  0  0  0  0
  -21.3047   -3.9510   22.8823 C   0  0  0  0  0  0  0  0  0  0  0  0
  -21.7282   -5.9170   24.2211 C   0  0  0  0  0  0  0  0  0  0  0  0
  -25.3302  -10.7277   20.0066 C   0  0  0  0  0  0  0  0  0  0  0  0
  -26.5770  -11.3986   18.3242 C   0  0  0  0  0  0  0  0  0  0  0  0
  -26.7561  -20.4357   19.8381 C   0  0  0  0  0  0  0  0  0  0  0  0
  -26.5684  -18.2716   20.0136 C   0  0  0  0  0  0  0  0  0  0  0  0
  -24.9506   -9.5963   17.7282 C   0  0  0  0  0  0  0  0  0  0  0  0
  -24.3860  -31.8701   20.2879 C   0  0  0  0  0  0  0  0  0  0  0  0
  -24.7886  -31.2511   23.4465 C   0  0  0  0  0  0  0  0  0  0  0  0
  -25.6759  -29.0197   25.8715 C   0  0  0  0  0  0  0  0  0  0  0  0
  -28.3206  -16.5968   20.6998 C   0  0  0  0  0  0  0  0  0  0  0  0
  -22.6985  -36.5401   19.1046 C   0  0  0  0  0  0  0  0  0  0  0  0
  -23.0681  -29.7375   20.5548 C   0  0  0  0  0  0  0  0  0  0  0  0
  -25.7273  -29.5519   21.8350 C   0  0  0  0  0  0  0  0  0  0  0  0
  -23.5853  -35.9434   20.1944 C   0  0  0  0  0  0  0  0  0  0  0  0
  -30.3092  -13.6731   20.2815 C   0  0  0  0  0  0  0  0  0  0  0  0
  -24.6462  -35.0348   19.5814 C   0  0  0  0  0  0  0  0  0  0  0  0
  -29.2806  -12.5676   20.0329 C   0  0  0  0  0  0  0  0  0  0  0  0
  -29.0317  -23.2577   20.5072 C   0  0  0  0  0  0  0  0  0  0  0  0
  -29.8067  -14.6971   21.2978 C   0  0  0  0  0  0  0  0  0  0  0  0
  -28.8368  -21.7571   20.3010 C   0  0  0  0  0  0  0  0  0  0  0  0
  -26.8391  -22.9328   19.6051 C   0  0  0  0  0  0  0  0  0  0  0  0
  -27.4635  -14.1722   20.7473 C   0  0  0  0  0  0  0  0  0  0  0  0
  -24.0023  -33.8569   18.8401 C   0  0  1  0  0  0  0  0  0  0  0  0
  -23.7101  -30.9343   21.2497 C   0  0  1  0  0  0  0  0  0  0  0  0
  -28.0444  -23.8761   19.5216 C   0  0  1  0  0  0  0  0  0  0  0  0
  -27.8983  -13.1524   19.6822 C   0  0  2  0  0  0  0  0  0  0  0  0
  -25.9412  -28.8151   28.3585 C   0  0  0  0  0  0  0  0  0  0  0  0
  -27.3942  -32.8317   23.2962 C   0  0  0  0  0  0  0  0  0  0  0  0
  -28.0592  -31.8094   25.4827 C   0  0  0  0  0  0  0  0  0  0  0  0
  -26.0326  -33.2578   25.3502 C   0  0  0  0  0  0  0  0  0  0  0  0
  -23.6369  -26.8805   26.0297 C   0  0  0  0  0  0  0  0  0  0  0  0
  -27.7001  -25.3195   19.8449 C   0  0  0  0  0  0  0  0  0  1  0  0
  -25.9709  -30.9438   24.3336 C   0  0  1  0  0  0  0  0  0  0  0  0
  -25.0040  -28.6290   27.1754 C   0  0  2  0  0  0  0  0  0  0  0  0
  -26.8576  -32.1942   24.5934 C   0  0  0  0  0  0  0  0  0  0  0  0
  -26.1147  -11.6745   20.5282 N   0  0  0  0  0  0  0  0  0  0  0  0
  -26.8616  -12.0630   19.4807 N   0  0  0  0  0  0  0  0  0  0  0  0
  -27.4355  -21.6334   19.9077 N   0  0  3  0  0  0  0  0  0  0  0  0
  -24.7146  -30.5409   22.2399 N   0  0  0  0  0  0  0  0  0  0  0  0
  -28.4948  -15.2107   20.8978 N   0  0  0  0  0  0  0  0  0  0  0  0
  -27.2342  -11.6654   17.1756 N   0  0  0  0  0  0  0  0  0  0  0  0
  -23.9375   -8.7589   18.2147 N   0  0  0  0  0  0  0  0  0  0  0  0
  -27.0395  -16.9640   20.2893 N   0  0  0  0  0  0  0  0  0  0  0  0
  -23.5559  -32.8512   19.7803 N   0  0  0  0  0  0  0  0  0  0  0  0
  -25.4268  -30.3354   25.5428 N   0  0  0  0  0  0  0  0  0  0  0  0
  -24.5799  -27.2009   27.1320 N   0  3  0  0  0  0  0  0  0  0  0  0
  -25.2930   -9.5103   16.5245 O   0  0  0  0  0  0  0  0  0  0  0  0
  -25.5732  -31.7144   20.0268 O   0  0  0  0  0  0  0  0  0  0  0  0
  -23.9574  -32.0852   23.8141 O   0  0  0  0  0  0  0  0  0  0  0  0
  -26.3571  -28.2372   25.2125 O   0  0  0  0  0  0  0  0  0  0  0  0
  -29.2476  -17.3960   20.8545 O   0  0  0  0  0  0  0  0  0  0  0  0
  -27.4392  -19.3050   20.1562 O   0  0  0  0  0  0  0  0  0  0  0  0
  -21.5824   -8.1025   23.2205 O   0  0  0  0  0  0  0  0  0  0  0  0
  -26.7842  -25.8092   18.8663 O   0  0  0  0  0  0  0  0  0  1  0  0
  -21.2137   -2.6191   22.7736 F   0  0  0  0  0  0  0  0  0  0  0  0
  -22.0447   -6.4675   25.4012 F   0  0  0  0  0  0  0  0  0  0  0  0
  1  2  1  0  0  0  0
  1  5  2  0  0  0  0
  2  6  2  0  0  0  0
  3  8  2  0  0  0  0
  3 17  1  0  0  0  0
  4  9  1  0  0  0  0
  4 17  2  0  0  0  0
  5 19  1  0  0  0  0
  6 21  1  0  0  0  0
  7 10  2  0  0  0  0
  7 20  1  0  0  0  0
  8 23  1  0  0  0  0
  9 23  2  0  0  0  0
 10 24  1  0  0  0  0
 11 12  2  0  0  0  0
 11 25  1  0  0  0  0
 12 26  1  0  0  0  0
 13 14  1  0  0  0  0
 13 30  2  0  0  0  0
 14 31  2  0  0  0  0
 15 22  1  0  0  0  0
 15 24  2  0  0  0  0
 16 26  2  0  0  0  0
 16 27  1  0  0  0  0
 17 28  1  0  0  0  0
 18 28  1  0  0  0  0
 18 29  2  0  0  0  0
 18 32  1  0  0  0  0
 19 21  2  0  0  0  0
 19 37  1  0  0  0  0
 20 22  2  0  0  0  0
 20 38  1  0  0  0  0
 21 49  1  0  0  0  0
 22 39  1  0  0  0  0
 23 79  1  0  0  0  0
 24 80  1  0  0  0  0
 25 27  2  0  0  0  0
 25 79  1  0  0  0  0
 26 81  1  0  0  0  0
 27 82  1  0  0  0  0
 28 62  2  0  0  0  0
 29 63  1  0  0  0  0
 29 67  1  0  0  0  0
 30 64  1  0  0  0  0
 30 78  1  0  0  0  0
 31 69  1  0  0  0  0
 31 78  1  0  0  0  0
 32 68  1  0  0  0  0
 32 73  2  0  0  0  0
 33 50  1  0  0  0  0
 33 70  1  0  0  0  0
 33 74  2  0  0  0  0
 34 59  1  0  0  0  0
 34 65  1  0  0  0  0
 34 75  2  0  0  0  0
 35 60  1  0  0  0  0
 35 71  1  0  0  0  0
 35 76  2  0  0  0  0
 36 66  1  0  0  0  0
 36 69  1  0  0  0  0
 36 77  2  0  0  0  0
 37 40  1  0  0  0  0
 38 50  1  0  0  0  0
 39 65  1  0  0  0  0
 40 42  1  0  0  0  0
 41 43  1  0  0  0  0
 41 45  1  0  0  0  0
 42 49  1  0  0  0  0
 43 52  1  0  0  0  0
 44 46  1  0  0  0  0
 44 51  1  0  0  0  0
 45 66  1  0  0  0  0
 46 64  1  0  0  0  0
 47 51  1  0  0  0  0
 47 64  1  0  0  0  0
 48 52  1  0  0  0  0
 48 66  1  0  0  0  0
 49 70  1  0  0  0  0
 50 65  1  0  0  0  0
 51 58  1  0  0  0  0
 52 63  1  0  0  0  0
 53 60  1  0  0  0  0
 54 61  1  0  0  0  0
 55 61  1  0  0  0  0
 56 61  1  0  0  0  0
 57 72  1  0  0  0  0
 58 80  1  0  0  0  0
 59 61  1  0  0  0  0
 59 71  1  0  0  0  0
 60 72  1  0  0  0  0
 62 63  1  0  0  0  0
M  CHG  1  72   1
M  ISO  4  36 100  58 101  69 100  80 101
M  END
> <Batch ID>
0152

> <Smiles>
CNC(C)C(=O)NC(C(=O)N1Cc2cc([101O:1][101CH2:1]C3CCN(c4ccc([100NH:0][100C:0](=O)N5CCCC(n6nc(-c7ccc(Oc8ccc(F)cc8F)cc7)c(C(N)=O)c6N)C5)o4)C3)ccc2CC1C(=O)NC1CCCc2ccccc21)C(C)(C)C

> <Shape>
0.288

> <Color>
0.088

> <Negative vol penalty>
0.000

$$$$

  -OEChem-04052303273D

 85 93  0     1  0  0  0  0  0999 V2000
  -29.9159  -33.6138   24.5175 C   0  0  0  0  0  0  0  0  0  0  0  0
  -29.6061  -32.2898   24.2232 C   0  0  0  0  0  0  0  0  0  0  0  0
  -24.7930   -8.7291   21.5586 C   0  0  0  0  0  0  0  0  0  0  0  0
  -23.1982  -10.0728   20.3388 C   0  0  0  0  0  0  0  0  0  0  0  0
  -28.8934  -34.5317   24.7540 C   0  0  0  0  0  0  0  0  0  0  0  0
  -28.2737  -31.8827   24.1663 C   0  0  0  0  0  0  0  0  0  0  0  0
  -27.3060  -28.9573   20.1475 C   0  0  0  0  0  0  0  0  0  0  0  0
  -23.7767   -8.2955   22.4098 C   0  0  0  0  0  0  0  0  0  0  0  0
  -22.1818   -9.6391   21.1899 C   0  0  0  0  0  0  0  0  0  0  0  0
  -27.7030  -27.6229   20.2209 C   0  0  0  0  0  0  0  0  0  0  0  0
  -21.2568   -6.0421   22.3347 C   0  0  0  0  0  0  0  0  0  0  0  0
  -21.2004   -4.6814   22.6364 C   0  0  0  0  0  0  0  0  0  0  0  0
  -25.1763  -17.3761   17.3537 C   0  0  0  0  0  0  0  0  0  0  0  0
  -24.9874  -19.7669   17.6448 C   0  0  0  0  0  0  0  0  0  0  0  0
  -25.4408  -26.9861   20.7649 C   0  0  0  0  0  0  0  0  0  0  0  0
  -26.9157  -18.5938   18.5064 C   0  0  0  0  0  0  0  0  0  0  0  0
  -21.4780   -5.1899   24.9819 C   0  0  0  0  0  0  0  0  0  0  0  0
  -24.5038   -9.6179   20.5231 C   0  0  0  0  0  0  0  0  0  0  0  0
  -24.4705  -18.5640   17.1636 C   0  0  0  0  0  0  0  0  0  0  0  0
  -25.9685   -9.4666   18.4400 C   0  0  0  0  0  0  0  0  0  0  0  0
  -27.5475  -34.1378   24.6904 C   0  0  0  0  0  0  0  0  0  0  0  0
  -25.9734  -29.3180   20.3933 C   0  0  0  0  0  0  0  0  0  0  0  0
  -27.2323  -32.7959   24.4034 C   0  0  0  0  0  0  0  0  0  0  0  0
  -25.0289  -28.3255   20.6914 C   0  0  0  0  0  0  0  0  0  0  0  0
  -26.3989  -17.3909   18.0251 C   0  0  0  0  0  0  0  0  0  0  0  0
  -26.2099  -19.7818   18.3162 C   0  0  0  0  0  0  0  0  0  0  0  0
  -22.4710   -8.7504   22.2254 C   0  0  0  0  0  0  0  0  0  0  0  0
  -26.7710  -26.6373   20.5325 C   0  0  0  0  0  0  0  0  0  0  0  0
  -21.4239   -6.9767   23.3567 C   0  0  0  0  0  0  0  0  0  0  0  0
  -21.3110   -4.2553   23.9600 C   0  0  0  0  0  0  0  0  0  0  0  0
  -21.5344   -6.5506   24.6802 C   0  0  0  0  0  0  0  0  0  0  0  0
  -25.5534  -10.0666   19.6439 C   0  0  0  0  0  0  0  0  0  0  0  0
  -26.9879  -10.2695   17.9898 C   0  0  0  0  0  0  0  0  0  0  0  0
  -23.1959  -18.5481   16.4637 C   0  0  0  0  0  0  0  0  0  0  0  0
  -25.4764   -8.2889   17.7869 C   0  0  0  0  0  0  0  0  0  0  0  0
  -26.8430  -23.1214   19.6803 C   0  0  0  0  0  0  0  0  0  0  0  0
  -26.0117  -22.0051   19.2451 C   0  0  0  0  0  0  0  0  0  0  0  0
  -24.5028  -31.1406   22.5426 C   0  0  0  0  0  0  0  0  0  0  0  0
  -21.8983  -30.5227   20.7103 C   0  0  0  0  0  0  0  0  0  0  0  0
  -20.3579  -28.4661   18.4643 C   0  0  0  0  0  0  0  0  0  0  0  0
  -28.3418  -16.0236   18.8629 C   0  0  0  0  0  0  0  0  0  0  0  0
  -26.4780  -35.1552   25.0000 C   0  0  0  0  0  0  0  0  0  0  0  0
  -25.5556  -30.7588   20.2839 C   0  0  0  0  0  0  0  0  0  0  0  0
  -23.5818  -28.6581   20.9440 C   0  0  0  0  0  0  0  0  0  0  0  0
  -25.0828  -34.7279   24.5517 C   0  0  0  0  0  0  0  0  0  0  0  0
  -30.4128  -13.2167   19.5767 C   0  0  0  0  0  0  0  0  0  0  0  0
  -24.8062  -33.2868   24.9683 C   0  0  0  0  0  0  0  0  0  0  0  0
  -29.4405  -12.0350   19.5593 C   0  0  0  0  0  0  0  0  0  0  0  0
  -29.7724  -14.4695   20.1718 C   0  0  0  0  0  0  0  0  0  0  0  0
  -27.5239  -13.6822   19.5444 C   0  0  0  0  0  0  0  0  0  0  0  0
  -25.7983  -32.3216   24.3082 C   0  0  1  0  0  0  0  0  0  0  0  0
  -24.2790  -31.0712   21.0584 C   0  0  1  0  0  0  0  0  0  0  0  0
  -28.1032  -12.4153   18.8941 C   0  0  2  0  0  0  0  0  0  0  0  0
  -18.2185  -28.2029   17.1794 C   0  0  0  0  0  0  0  0  0  0  0  0
  -20.4945  -29.5719   23.2470 C   0  0  0  0  0  0  0  0  0  0  0  0
  -18.7785  -28.4645   21.7989 C   0  0  0  0  0  0  0  0  0  0  0  0
  -19.0677  -30.9408   21.7158 C   0  0  0  0  0  0  0  0  0  0  0  0
  -21.7641  -28.6237   15.8650 C   0  0  0  0  0  0  0  0  0  0  0  0
  -26.1789  -24.3487   20.2731 C   0  0  0  0  0  0  0  0  0  1  0  0
  -20.8348  -29.4514   20.6905 C   0  0  1  0  0  0  0  0  0  0  0  0
  -19.6341  -28.7585   17.1624 C   0  0  2  0  0  0  0  0  0  0  0  0
  -19.8215  -29.6008   21.8602 C   0  0  0  0  0  0  0  0  0  0  0  0
  -26.2522  -11.1658   19.9400 N   0  0  0  0  0  0  0  0  0  0  0  0
  -22.4829  -19.6138   16.2494 N   0  0  0  0  0  0  0  0  0  0  0  0
  -27.1168  -11.2627   18.9156 N   0  0  0  0  0  0  0  0  0  0  0  0
  -23.2237  -30.0817   20.8315 N   0  0  0  0  0  0  0  0  0  0  0  0
  -28.5121  -14.7709   19.4894 N   0  0  0  0  0  0  0  0  0  0  0  0
  -27.7778  -10.2156   16.8964 N   0  0  0  0  0  0  0  0  0  0  0  0
  -24.4244   -7.5828   18.3860 N   0  0  0  0  0  0  0  0  0  0  0  0
  -24.6974  -22.1409   19.4009 N   0  0  0  0  0  0  0  0  0  0  0  0
  -27.1156  -16.1840   18.2184 N   0  0  0  0  0  0  0  0  0  0  0  0
  -25.4330  -32.0871   22.9277 N   0  0  0  0  0  0  0  0  0  0  0  0
  -20.2286  -29.5025   19.3645 N   0  0  0  0  0  0  0  0  0  0  0  0
  -26.7171  -20.9642   18.7896 N   0  3  0  0  0  0  0  0  0  0  0  0
  -20.3645  -28.1489   16.0154 N   0  3  0  0  0  0  0  0  0  0  0  0
  -25.9665   -7.8657   16.7125 O   0  0  0  0  0  0  0  0  0  0  0  0
  -28.0662  -23.0590   19.5627 O   0  0  0  0  0  0  0  0  0  0  0  0
  -23.8768  -30.3918   23.2836 O   0  0  0  0  0  0  0  0  0  0  0  0
  -21.5659  -31.7067   20.6143 O   0  0  0  0  0  0  0  0  0  0  0  0
  -20.9732  -27.4211   18.6642 O   0  0  0  0  0  0  0  0  0  0  0  0
  -29.2297  -16.8800   18.8725 O   0  0  0  0  0  0  0  0  0  0  0  0
  -21.4789   -8.3272   23.0556 O   0  0  0  0  0  0  0  0  0  0  0  0
  -27.1560  -25.3341   20.6055 O   0  0  0  0  0  0  0  0  0  1  0  0
  -21.2552   -2.9487   24.2497 F   0  0  0  0  0  0  0  0  0  0  0  0
  -21.6939   -7.4438   25.6664 F   0  0  0  0  0  0  0  0  0  0  0  0
  1  2  1  0  0  0  0
  1  5  2  0  0  0  0
  2  6  2  0  0  0  0
  3  8  2  0  0  0  0
  3 18  1  0  0  0  0
  4  9  1  0  0  0  0
  4 18  2  0  0  0  0
  5 21  1  0  0  0  0
  6 23  1  0  0  0  0
  7 10  2  0  0  0  0
  7 22  1  0  0  0  0
  8 27  1  0  0  0  0
  9 27  2  0  0  0  0
 10 28  1  0  0  0  0
 11 12  2  0  0  0  0
 11 29  1  0  0  0  0
 12 30  1  0  0  0  0
 13 19  1  0  0  0  0
 13 25  2  0  0  0  0
 14 19  2  0  0  0  0
 14 26  1  0  0  0  0
 15 24  1  0  0  0  0
 15 28  2  0  0  0  0
 16 25  1  0  0  0  0
 16 26  2  0  0  0  0
 17 30  2  0  0  0  0
 17 31  1  0  0  0  0
 18 32  1  0  0  0  0
 19 34  1  0  0  0  0
 20 32  1  0  0  0  0
 20 33  2  0  0  0  0
 20 35  1  0  0  0  0
 21 23  2  0  0  0  0
 21 42  1  0  0  0  0
 22 24  2  0  0  0  0
 22 43  1  0  0  0  0
 23 51  1  0  0  0  0
 24 44  1  0  0  0  0
 25 71  1  0  0  0  0
 26 74  1  0  0  0  0
 27 82  1  0  0  0  0
 28 83  1  0  0  0  0
 29 31  2  0  0  0  0
 29 82  1  0  0  0  0
 30 84  1  0  0  0  0
 31 85  1  0  0  0  0
 32 63  2  0  0  0  0
 33 65  1  0  0  0  0
 33 68  1  0  0  0  0
 34 64  2  0  0  0  0
 35 69  1  0  0  0  0
 35 76  2  0  0  0  0
 36 37  1  0  0  0  0
 36 59  1  0  0  0  0
 36 77  2  0  0  0  0
 37 70  1  0  0  0  0
 37 74  2  0  0  0  0
 38 52  1  0  0  0  0
 38 72  1  0  0  0  0
 38 78  2  0  0  0  0
 39 60  1  0  0  0  0
 39 66  1  0  0  0  0
 39 79  2  0  0  0  0
 40 61  1  0  0  0  0
 40 73  1  0  0  0  0
 40 80  2  0  0  0  0
 41 67  1  0  0  0  0
 41 71  1  0  0  0  0
 41 81  2  0  0  0  0
 42 45  1  0  0  0  0
 43 52  1  0  0  0  0
 44 66  1  0  0  0  0
 45 47  1  0  0  0  0
 46 48  1  0  0  0  0
 46 49  1  0  0  0  0
 47 51  1  0  0  0  0
 48 53  1  0  0  0  0
 49 67  1  0  0  0  0
 50 53  1  0  0  0  0
 50 67  1  0  0  0  0
 51 72  1  0  0  0  0
 52 66  1  0  0  0  0
 53 65  1  0  0  0  0
 54 61  1  0  0  0  0
 55 62  1  0  0  0  0
 56 62  1  0  0  0  0
 57 62  1  0  0  0  0
 58 75  1  0  0  0  0
 59 83  1  0  0  0  0
 60 62  1  0  0  0  0
 60 73  1  0  0  0  0
 61 75  1  0  0  0  0
 63 65  1  0  0  0  0
M  CHG  2  74   1  75   1
M  ISO  4  41 100  59 101  71 100  83 101
M  END
> <Batch ID>
0152

> <Smiles>
CNC(C)C(=O)NC(C(=O)N1Cc2cc([101O:1][101CH2:1]C(=O)C(=N)Nc3cc(C=N)cc([100NH:0][100C:0](=O)N4CCCC(n5nc(-c6ccc(Oc7ccc(F)cc7F)cc6)c(C(N)=O)c5N)C4)c3)ccc2CC1C(=O)NC1CCCc2ccccc21)C(C)(C)C

> <Shape>
0.266

> <Color>
0.085

> <Negative vol penalty>
0.000

$$$$

  -OEChem-04052303273D

 86 95  0     1  0  0  0  0  0999 V2000
  -21.3348  -29.2215   14.9964 C   0  0  0  0  0  0  0  0  0  0  0  0
  -22.4937  -28.7223   15.5822 C   0  0  0  0  0  0  0  0  0  0  0  0
  -23.3651  -10.7846   23.0088 C   0  0  0  0  0  0  0  0  0  0  0  0
  -23.7617   -9.4845   21.0114 C   0  0  0  0  0  0  0  0  0  0  0  0
  -20.8426  -30.4683   15.3798 C   0  0  0  0  0  0  0  0  0  0  0  0
  -23.1617  -29.4703   16.5511 C   0  0  0  0  0  0  0  0  0  0  0  0
  -24.5661  -26.6771   20.5349 C   0  0  0  0  0  0  0  0  0  0  0  0
  -22.6615   -9.7161   23.5646 C   0  0  0  0  0  0  0  0  0  0  0  0
  -23.0581   -8.4160   21.5672 C   0  0  0  0  0  0  0  0  0  0  0  0
  -25.6971  -25.8760   20.3839 C   0  0  0  0  0  0  0  0  0  0  0  0
  -19.5787   -8.3562   23.2975 C   0  0  0  0  0  0  0  0  0  0  0  0
  -18.3677   -8.6376   23.9298 C   0  0  0  0  0  0  0  0  0  0  0  0
  -31.5488  -18.0770   20.5550 C   0  0  0  0  0  0  0  0  0  0  0  0
  -27.0153  -27.5285   21.5462 C   0  0  0  0  0  0  0  0  0  0  0  0
  -19.2386   -7.7404   25.9971 C   0  0  0  0  0  0  0  0  0  0  0  0
  -23.9152  -10.6688   21.7322 C   0  0  0  0  0  0  0  0  0  0  0  0
  -31.5620  -19.4756   20.8270 C   0  0  0  0  0  0  0  0  0  0  0  0
  -24.1543  -13.0669   20.8959 C   0  0  0  0  0  0  0  0  0  0  0  0
  -21.4995  -31.2276   16.3609 C   0  0  0  0  0  0  0  0  0  0  0  0
  -24.6535  -27.9169   21.1842 C   0  0  0  0  0  0  0  0  0  0  0  0
  -22.6785  -30.7290   16.9471 C   0  0  0  0  0  0  0  0  0  0  0  0
  -25.8834  -28.3423   21.7064 C   0  0  0  0  0  0  0  0  0  0  0  0
  -22.5080   -8.5318   22.8438 C   0  0  0  0  0  0  0  0  0  0  0  0
  -26.9225  -26.3030   20.8871 C   0  0  0  0  0  0  0  0  0  0  0  0
  -20.6197   -7.7669   24.0149 C   0  0  0  0  0  0  0  0  0  0  0  0
  -18.1976   -8.3297   25.2796 C   0  0  0  0  0  0  0  0  0  0  0  0
  -20.4497   -7.4590   25.3647 C   0  0  0  0  0  0  0  0  0  0  0  0
  -24.6417  -11.7724   21.1573 C   0  0  0  0  0  0  0  0  0  0  0  0
  -25.2254  -13.7341   20.3537 C   0  0  0  0  0  0  0  0  0  0  0  0
  -30.3805  -19.9042   21.3908 C   0  0  0  0  0  0  0  0  0  0  0  0
  -30.3576  -17.4899   20.9214 C   0  0  0  0  0  0  0  0  0  0  0  0
  -32.6862  -20.3241   20.5396 C   0  0  0  0  0  0  0  0  0  0  0  0
  -22.8499  -13.6172   21.1229 C   0  0  0  0  0  0  0  0  0  0  0  0
  -24.1515  -30.9370   20.3294 C   0  0  0  0  0  0  0  0  0  0  0  0
  -24.6713  -31.5066   23.4803 C   0  0  0  0  0  0  0  0  0  0  0  0
  -26.9482  -30.3435   26.0259 C   0  0  0  0  0  0  0  0  0  0  0  0
  -30.6339  -15.0572   20.3281 C   0  0  0  0  0  0  0  0  0  0  0  0
  -20.9557  -32.5908   16.7087 C   0  0  0  0  0  0  0  0  0  0  0  0
  -23.4187  -28.7572   21.3625 C   0  0  0  0  0  0  0  0  0  0  0  0
  -26.0262  -29.6558   22.4295 C   0  0  0  0  0  0  0  0  0  0  0  0
  -21.5147  -33.1551   18.0122 C   0  0  0  0  0  0  0  0  0  0  0  0
  -30.5375  -23.1183   23.2631 C   0  0  0  0  0  0  0  0  0  0  0  0
  -29.7018  -12.0127   18.7347 C   0  0  0  0  0  0  0  0  0  0  0  0
  -23.0295  -32.9826   18.0625 C   0  0  0  0  0  0  0  0  0  0  0  0
  -29.3251  -23.8467   22.6973 C   0  0  0  0  0  0  0  0  0  0  0  0
  -28.2621  -11.7852   19.2014 C   0  0  0  0  0  0  0  0  0  0  0  0
  -30.3850  -21.6039   23.1569 C   0  0  0  0  0  0  0  0  0  0  0  0
  -30.5658  -12.6222   19.8373 C   0  0  0  0  0  0  0  0  0  0  0  0
  -28.9175  -21.8875   21.1517 C   0  0  0  0  0  0  0  0  0  0  0  0
  -28.5850  -13.6166   20.9129 C   0  0  0  0  0  0  0  0  0  0  0  0
  -23.4176  -31.4996   18.0195 C   0  0  1  0  0  0  0  0  0  0  0  0
  -23.7283  -30.2339   21.5881 C   0  0  1  0  0  0  0  0  0  0  0  0
  -29.0661  -23.4131   21.2523 C   0  0  1  0  0  0  0  0  0  0  0  0
  -27.6602  -13.0642   19.8159 C   0  0  2  0  0  0  0  0  0  0  0  0
  -26.6812  -30.2136   28.5177 C   0  0  0  0  0  0  0  0  0  0  0  0
  -26.0287  -34.2393   23.4774 C   0  0  0  0  0  0  0  0  0  0  0  0
  -27.2585  -33.5530   25.5474 C   0  0  0  0  0  0  0  0  0  0  0  0
  -24.7686  -33.7025   25.5699 C   0  0  0  0  0  0  0  0  0  0  0  0
  -27.5864  -27.4538   26.0601 C   0  0  0  0  0  0  0  0  0  0  0  0
  -27.8261  -24.1114   20.6956 C   0  0  0  0  0  0  0  0  0  1  0  0
  -25.8852  -31.8053   24.3266 C   0  0  1  0  0  0  0  0  0  0  0  0
  -26.6125  -29.4485   27.2052 C   0  0  2  0  0  0  0  0  0  0  0  0
  -25.9872  -33.3095   24.7066 C   0  0  0  0  0  0  0  0  0  0  0  0
  -25.9227  -11.6237   20.8097 N   0  0  0  0  0  0  0  0  0  0  0  0
  -26.2493  -12.8335   20.3242 N   0  0  0  0  0  0  0  0  0  0  0  0
  -30.0582  -21.2105   21.7801 N   0  0  2  0  0  0  0  0  0  0  0  0
  -24.7913  -30.4445   22.5729 N   0  0  0  0  0  0  0  0  0  0  0  0
  -29.9350  -13.8323   20.3689 N   0  0  0  0  0  0  0  0  0  0  0  0
  -25.3819  -14.9973   19.9040 N   0  0  0  0  0  0  0  0  0  0  0  0
  -32.6441  -21.6424   20.8179 N   0  0  0  0  0  0  0  0  0  0  0  0
  -21.8665  -12.7938   21.6879 N   0  0  0  0  0  0  0  0  0  0  0  0
  -29.9213  -16.1448   20.8320 N   0  0  0  0  0  0  0  0  0  0  0  0
  -23.2149  -30.8865   19.3147 N   0  0  0  0  0  0  0  0  0  0  0  0
  -25.8167  -30.9032   25.4712 N   0  0  0  0  0  0  0  0  0  0  0  0
  -33.8076  -19.8197   19.9872 N   0  3  0  0  0  0  0  0  0  0  0  0
  -27.5669  -28.3061   27.2767 N   0  3  0  0  0  0  0  0  0  0  0  0
  -22.5603  -14.7991   20.8183 O   0  0  0  0  0  0  0  0  0  0  0  0
  -25.2460  -31.4861   20.2829 O   0  0  0  0  0  0  0  0  0  0  0  0
  -23.6518  -32.1859   23.6241 O   0  0  0  0  0  0  0  0  0  0  0  0
  -28.0994  -30.5305   25.6380 O   0  0  0  0  0  0  0  0  0  0  0  0
  -31.7699  -15.1407   19.8542 O   0  0  0  0  0  0  0  0  0  0  0  0
  -21.8217   -7.4889   23.3859 O   0  0  0  0  0  0  0  0  0  0  0  0
  -28.0282  -25.5233   20.7405 O   0  0  0  0  0  0  0  0  0  1  0  0
  -17.0351   -8.6013   25.8871 F   0  0  0  0  0  0  0  0  0  0  0  0
  -21.4465   -6.8939   26.0595 F   0  0  0  0  0  0  0  0  0  0  0  0
  -29.2617  -18.6232   21.5901 S   0  0  0  0  0  0  0  0  0  0  0  0
  1  2  1  0  0  0  0
  1  5  2  0  0  0  0
  2  6  2  0  0  0  0
  3  8  2  0  0  0  0
  3 16  1  0  0  0  0
  4  9  1  0  0  0  0
  4 16  2  0  0  0  0
  5 19  1  0  0  0  0
  6 21  1  0  0  0  0
  7 10  2  0  0  0  0
  7 20  1  0  0  0  0
  8 23  1  0  0  0  0
  9 23  2  0  0  0  0
 10 24  1  0  0  0  0
 11 12  2  0  0  0  0
 11 25  1  0  0  0  0
 12 26  1  0  0  0  0
 13 17  1  0  0  0  0
 13 31  2  0  0  0  0
 14 22  1  0  0  0  0
 14 24  2  0  0  0  0
 15 26  2  0  0  0  0
 15 27  1  0  0  0  0
 16 28  1  0  0  0  0
 17 30  2  0  0  0  0
 17 32  1  0  0  0  0
 18 28  1  0  0  0  0
 18 29  2  0  0  0  0
 18 33  1  0  0  0  0
 19 21  2  0  0  0  0
 19 38  1  0  0  0  0
 20 22  2  0  0  0  0
 20 39  1  0  0  0  0
 21 51  1  0  0  0  0
 22 40  1  0  0  0  0
 23 82  1  0  0  0  0
 24 83  1  0  0  0  0
 25 27  2  0  0  0  0
 25 82  1  0  0  0  0
 26 84  1  0  0  0  0
 27 85  1  0  0  0  0
 28 64  2  0  0  0  0
 29 65  1  0  0  0  0
 29 69  1  0  0  0  0
 30 66  1  0  0  0  0
 30 86  1  0  0  0  0
 31 72  1  0  0  0  0
 31 86  1  0  0  0  0
 32 70  1  0  0  0  0
 32 75  2  0  0  0  0
 33 71  1  0  0  0  0
 33 77  2  0  0  0  0
 34 52  1  0  0  0  0
 34 73  1  0  0  0  0
 34 78  2  0  0  0  0
 35 61  1  0  0  0  0
 35 67  1  0  0  0  0
 35 79  2  0  0  0  0
 36 62  1  0  0  0  0
 36 74  1  0  0  0  0
 36 80  2  0  0  0  0
 37 68  1  0  0  0  0
 37 72  1  0  0  0  0
 37 81  2  0  0  0  0
 38 41  1  0  0  0  0
 39 52  1  0  0  0  0
 40 67  1  0  0  0  0
 41 44  1  0  0  0  0
 42 45  1  0  0  0  0
 42 47  1  0  0  0  0
 43 46  1  0  0  0  0
 43 48  1  0  0  0  0
 44 51  1  0  0  0  0
 45 53  1  0  0  0  0
 46 54  1  0  0  0  0
 47 66  1  0  0  0  0
 48 68  1  0  0  0  0
 49 53  1  0  0  0  0
 49 66  1  0  0  0  0
 50 54  1  0  0  0  0
 50 68  1  0  0  0  0
 51 73  1  0  0  0  0
 52 67  1  0  0  0  0
 53 60  1  0  0  0  0
 54 65  1  0  0  0  0
 55 62  1  0  0  0  0
 56 63  1  0  0  0  0
 57 63  1  0  0  0  0
 58 63  1  0  0  0  0
 59 76  1  0  0  0  0
 60 83  1  0  0  0  0
 61 63  1  0  0  0  0
 61 74  1  0  0  0  0
 62 76  1  0  0  0  0
 64 65  1  0  0  0  0
M  CHG  2  75   1  76   1
M  ISO  4  37 100  60 101  72 100  83 101
M  END
> <Batch ID>
0152

> <Smiles>
CNC(C)C(=O)NC(C(=O)N1Cc2cc([101O:1][101CH2:1]C3CCCN(c4sc([100NH:0][100C:0](=O)N5CCCC(n6nc(-c7ccc(Oc8ccc(F)cc8F)cc7)c(C(N)=O)c6N)C5)cc4C(=N)N)C3)ccc2CC1C(=O)NC1CCCc2ccccc21)C(C)(C)C

> <Shape>
0.291

> <Color>
0.175

> <Negative vol penalty>
0.000

$$$$

  -OEChem-04052303273D

 83 91  0     1  0  0  0  0  0999 V2000
  -20.2381  -23.5545   33.4849 C   0  0  0  0  0  0  0  0  0  0  0  0
  -21.1182  -23.1881   32.4716 C   0  0  0  0  0  0  0  0  0  0  0  0
  -31.9521  -18.8889   21.6847 C   0  0  0  0  0  0  0  0  0  0  0  0
  -23.2006   -9.8510   19.9527 C   0  0  0  0  0  0  0  0  0  0  0  0
  -23.9120   -9.9299   22.2603 C   0  0  0  0  0  0  0  0  0  0  0  0
  -19.6311  -22.5735   34.2679 C   0  0  0  0  0  0  0  0  0  0  0  0
  -21.3925  -21.8404   32.2415 C   0  0  0  0  0  0  0  0  0  0  0  0
  -21.3166  -20.6554   27.3186 C   0  0  0  0  0  0  0  0  0  0  0  0
  -32.1335  -17.5347   21.9655 C   0  0  0  0  0  0  0  0  0  0  0  0
  -30.8134  -19.5502   22.1450 C   0  0  0  0  0  0  0  0  0  0  0  0
  -22.5090   -8.6665   20.2064 C   0  0  0  0  0  0  0  0  0  0  0  0
  -23.2204   -8.7454   22.5140 C   0  0  0  0  0  0  0  0  0  0  0  0
  -22.4345  -21.0047   26.5623 C   0  0  0  0  0  0  0  0  0  0  0  0
  -20.0234   -7.7989   23.0654 C   0  0  0  0  0  0  0  0  0  0  0  0
  -19.2455   -7.7394   24.2216 C   0  0  0  0  0  0  0  0  0  0  0  0
  -23.2404  -18.7363   26.7169 C   0  0  0  0  0  0  0  0  0  0  0  0
  -30.0376  -17.5029   23.1667 C   0  0  0  0  0  0  0  0  0  0  0  0
  -20.5648   -5.8767   25.0134 C   0  0  0  0  0  0  0  0  0  0  0  0
  -23.9021  -10.4826   20.9796 C   0  0  0  0  0  0  0  0  0  0  0  0
  -24.1225  -13.0195   20.8259 C   0  0  0  0  0  0  0  0  0  0  0  0
  -19.8907  -21.2127   34.0410 C   0  0  0  0  0  0  0  0  0  0  0  0
  -21.1573  -19.3443   27.7897 C   0  0  0  0  0  0  0  0  0  0  0  0
  -20.7894  -20.8404   33.0231 C   0  0  0  0  0  0  0  0  0  0  0  0
  -22.1183  -18.3723   27.4768 C   0  0  0  0  0  0  0  0  0  0  0  0
  -31.1763  -16.8417   22.7065 C   0  0  0  0  0  0  0  0  0  0  0  0
  -29.8562  -18.8572   22.8860 C   0  0  0  0  0  0  0  0  0  0  0  0
  -22.5189   -8.1137   21.4870 C   0  0  0  0  0  0  0  0  0  0  0  0
  -23.3981  -20.0458   26.2638 C   0  0  0  0  0  0  0  0  0  0  0  0
  -21.0720   -6.8972   22.8831 C   0  0  0  0  0  0  0  0  0  0  0  0
  -19.5162   -6.7783   25.1956 C   0  0  0  0  0  0  0  0  0  0  0  0
  -21.3427   -5.9362   23.8571 C   0  0  0  0  0  0  0  0  0  0  0  0
  -24.6172  -11.7059   20.7181 C   0  0  0  0  0  0  0  0  0  0  0  0
  -25.1839  -13.8162   20.4723 C   0  0  0  0  0  0  0  0  0  0  0  0
  -22.8200  -13.4784   21.2113 C   0  0  0  0  0  0  0  0  0  0  0  0
  -20.9651  -18.0016   30.6644 C   0  0  0  0  0  0  0  0  0  0  0  0
  -26.6042  -19.8874   24.4499 C   0  0  0  0  0  0  0  0  0  0  0  0
  -20.3286  -15.3268   28.9432 C   0  0  0  0  0  0  0  0  0  0  0  0
  -20.6107  -13.6503   25.9840 C   0  0  0  0  0  0  0  0  0  0  0  0
  -30.9476  -14.0578   20.9574 C   0  0  0  0  0  0  0  0  0  0  0  0
  -19.2472  -20.1905   34.9441 C   0  0  0  0  0  0  0  0  0  0  0  0
  -19.9324  -18.9772   28.5817 C   0  0  0  0  0  0  0  0  0  0  0  0
  -21.9840  -16.9460   27.9416 C   0  0  0  0  0  0  0  0  0  0  0  0
  -19.3026  -18.7686   34.3913 C   0  0  0  0  0  0  0  0  0  0  0  0
  -29.3563  -13.1274   17.9113 C   0  0  0  0  0  0  0  0  0  0  0  0
  -20.7025  -18.4505   33.8756 C   0  0  0  0  0  0  0  0  0  0  0  0
  -27.9261  -12.7881   18.3346 C   0  0  0  0  0  0  0  0  0  0  0  0
  -30.3737  -12.6997   18.9668 C   0  0  0  0  0  0  0  0  0  0  0  0
  -28.6792  -12.8717   20.7480 C   0  0  0  0  0  0  0  0  0  0  0  0
  -21.0934  -19.3879   32.7266 C   0  0  1  0  0  0  0  0  0  0  0  0
  -20.1291  -17.7347   29.4448 C   0  0  1  0  0  0  0  0  0  0  0  0
  -27.6128  -13.3345   19.7405 C   0  0  2  0  0  0  0  0  0  0  0  0
  -20.0240  -11.4682   24.8925 C   0  0  0  0  0  0  0  0  0  0  0  0
  -22.5903  -13.9589   30.4675 C   0  0  0  0  0  0  0  0  0  0  0  0
  -22.5876  -12.1640   28.7220 C   0  0  0  0  0  0  0  0  0  0  0  0
  -20.5584  -12.5422   30.1229 C   0  0  0  0  0  0  0  0  0  0  0  0
  -18.9468  -14.9896   23.9354 C   0  0  0  0  0  0  0  0  0  0  0  0
  -31.3703  -15.3938   23.0058 C   0  0  0  0  0  0  0  0  0  0  0  0
  -27.6848  -18.8813   24.1149 C   0  0  0  0  0  0  0  0  0  0  0  0
  -25.4382  -19.3516   25.2578 C   0  0  0  0  0  0  0  0  0  1  0  0
  -21.1607  -14.2243   28.3340 C   0  0  1  0  0  0  0  0  0  0  0  0
  -19.5875  -12.9023   25.1486 C   0  0  2  0  0  0  0  0  0  0  0  0
  -21.7281  -13.2496   29.4044 C   0  0  0  0  0  0  0  0  0  0  0  0
  -25.8935  -11.6662   20.3264 N   0  0  0  0  0  0  0  0  0  0  0  0
  -26.2098  -12.9646   20.1850 N   0  0  0  0  0  0  0  0  0  0  0  0
  -20.7718  -16.6378   28.7182 N   0  0  0  0  0  0  0  0  0  0  0  0
  -30.0200  -13.2523   20.2765 N   0  0  0  0  0  0  0  0  0  0  0  0
  -25.3304  -15.1552   20.3820 N   0  0  0  0  0  0  0  0  0  0  0  0
  -21.8470  -12.5257   21.5431 N   0  0  0  0  0  0  0  0  0  0  0  0
  -28.7237  -19.5151   23.3442 N   0  0  0  0  0  0  0  0  0  0  0  0
  -20.4498  -18.9763   31.4974 N   0  0  0  0  0  0  0  0  0  0  0  0
  -20.3180  -13.5842   27.3298 N   0  0  0  0  0  0  0  0  0  0  0  0
  -30.5301  -14.5461   22.1895 N   0  0  0  0  0  0  0  0  0  0  0  0
  -19.3987  -13.5780   23.8337 N   0  3  0  0  0  0  0  0  0  0  0  0
  -22.5227  -14.6966   21.2442 O   0  0  0  0  0  0  0  0  0  0  0  0
  -22.0002  -17.3689   30.8377 O   0  0  0  0  0  0  0  0  0  0  0  0
  -26.6578  -21.0642   24.0951 O   0  0  0  0  0  0  0  0  0  0  0  0
  -19.3185  -15.0358   29.5887 O   0  0  0  0  0  0  0  0  0  0  0  0
  -21.5754  -14.2318   25.4923 O   0  0  0  0  0  0  0  0  0  0  0  0
  -32.0631  -14.3266   20.4988 O   0  0  0  0  0  0  0  0  0  0  0  0
  -21.8440   -6.9581   21.7350 O   0  0  0  0  0  0  0  0  0  0  0  0
  -24.4906  -20.3842   25.5263 O   0  0  0  0  0  0  0  0  0  1  0  0
  -18.7700   -6.7223   26.3066 F   0  0  0  0  0  0  0  0  0  0  0  0
  -22.3495   -5.0680   23.6882 F   0  0  0  0  0  0  0  0  0  0  0  0
  1  2  1  0  0  0  0
  1  6  2  0  0  0  0
  2  7  2  0  0  0  0
  3  9  1  0  0  0  0
  3 10  2  0  0  0  0
  4 11  2  0  0  0  0
  4 19  1  0  0  0  0
  5 12  1  0  0  0  0
  5 19  2  0  0  0  0
  6 21  1  0  0  0  0
  7 23  1  0  0  0  0
  8 13  2  0  0  0  0
  8 22  1  0  0  0  0
  9 25  2  0  0  0  0
 10 26  1  0  0  0  0
 11 27  1  0  0  0  0
 12 27  2  0  0  0  0
 13 28  1  0  0  0  0
 14 15  2  0  0  0  0
 14 29  1  0  0  0  0
 15 30  1  0  0  0  0
 16 24  1  0  0  0  0
 16 28  2  0  0  0  0
 17 25  1  0  0  0  0
 17 26  2  0  0  0  0
 18 30  2  0  0  0  0
 18 31  1  0  0  0  0
 19 32  1  0  0  0  0
 20 32  1  0  0  0  0
 20 33  2  0  0  0  0
 20 34  1  0  0  0  0
 21 23  2  0  0  0  0
 21 40  1  0  0  0  0
 22 24  2  0  0  0  0
 22 41  1  0  0  0  0
 23 49  1  0  0  0  0
 24 42  1  0  0  0  0
 25 57  1  0  0  0  0
 26 69  1  0  0  0  0
 27 80  1  0  0  0  0
 28 81  1  0  0  0  0
 29 31  2  0  0  0  0
 29 80  1  0  0  0  0
 30 82  1  0  0  0  0
 31 83  1  0  0  0  0
 32 63  2  0  0  0  0
 33 64  1  0  0  0  0
 33 67  1  0  0  0  0
 34 68  1  0  0  0  0
 34 74  2  0  0  0  0
 35 50  1  0  0  0  0
 35 70  1  0  0  0  0
 35 75  2  0  0  0  0
 36 58  1  0  0  0  0
 36 59  1  0  0  0  0
 36 76  2  0  0  0  0
 37 60  1  0  0  0  0
 37 65  1  0  0  0  0
 37 77  2  0  0  0  0
 38 61  1  0  0  0  0
 38 71  1  0  0  0  0
 38 78  2  0  0  0  0
 39 66  1  0  0  0  0
 39 72  1  0  0  0  0
 39 79  2  0  0  0  0
 40 43  1  0  0  0  0
 41 50  1  0  0  0  0
 42 65  1  0  0  0  0
 43 45  1  0  0  0  0
 44 46  1  0  0  0  0
 44 47  1  0  0  0  0
 45 49  1  0  0  0  0
 46 51  1  0  0  0  0
 47 66  1  0  0  0  0
 48 51  1  0  0  0  0
 48 66  1  0  0  0  0
 49 70  1  0  0  0  0
 50 65  1  0  0  0  0
 51 64  1  0  0  0  0
 52 61  1  0  0  0  0
 53 62  1  0  0  0  0
 54 62  1  0  0  0  0
 55 62  1  0  0  0  0
 56 73  1  0  0  0  0
 57 72  1  0  0  0  0
 58 69  1  0  0  0  0
 59 81  1  0  0  0  0
 60 62  1  0  0  0  0
 60 71  1  0  0  0  0
 61 73  1  0  0  0  0
 63 64  1  0  0  0  0
M  CHG  1  73   1
M  ISO  4  39 100  59 101  72 100  81 101
M  END
> <Batch ID>
0152

> <Smiles>
CNC(C)C(=O)NC(C(=O)N1Cc2cc([101O:1][101CH2:1]C(=O)CNc3cccc(C[100NH:0][100C:0](=O)N4CCCC(n5nc(-c6ccc(Oc7ccc(F)cc7F)cc6)c(C(N)=O)c5N)C4)c3)ccc2CC1C(=O)NC1CCCc2ccccc21)C(C)(C)C

> <Shape>
0.170

> <Color>
0.185

> <Negative vol penalty>
0.000

$$$$

  -OEChem-04052303273D

 84 93  0     1  0  0  0  0  0999 V2000
  -31.6401  -26.2915   17.0525 C   0  0  0  0  0  0  0  0  0  0  0  0
  -30.4258  -26.0361   17.6814 C   0  0  0  0  0  0  0  0  0  0  0  0
  -24.2357   -9.4460   22.0235 C   0  0  0  0  0  0  0  0  0  0  0  0
  -22.9687   -9.8863   20.0140 C   0  0  0  0  0  0  0  0  0  0  0  0
  -32.5408  -27.1930   17.6182 C   0  0  0  0  0  0  0  0  0  0  0  0
  -30.1118  -26.6813   18.8771 C   0  0  0  0  0  0  0  0  0  0  0  0
  -25.3655  -28.4455   18.9447 C   0  0  0  0  0  0  0  0  0  0  0  0
  -23.6420   -8.1877   22.1221 C   0  0  0  0  0  0  0  0  0  0  0  0
  -22.3750   -8.6279   20.1126 C   0  0  0  0  0  0  0  0  0  0  0  0
  -24.3469  -27.5238   19.1830 C   0  0  0  0  0  0  0  0  0  0  0  0
  -20.6951   -6.8988   23.1608 C   0  0  0  0  0  0  0  0  0  0  0  0
  -20.2325   -6.4977   24.4141 C   0  0  0  0  0  0  0  0  0  0  0  0
  -24.2508  -28.2347   21.4862 C   0  0  0  0  0  0  0  0  0  0  0  0
  -22.0750  -20.3386   18.8481 C   0  0  0  0  0  0  0  0  0  0  0  0
  -21.7272   -4.6004   24.3585 C   0  0  0  0  0  0  0  0  0  0  0  0
  -23.8990  -10.2954   20.9695 C   0  0  0  0  0  0  0  0  0  0  0  0
  -25.7006  -11.9242   20.1894 C   0  0  0  0  0  0  0  0  0  0  0  0
  -32.2336  -27.8569   18.8164 C   0  0  0  0  0  0  0  0  0  0  0  0
  -25.8427  -29.2625   19.9797 C   0  0  0  0  0  0  0  0  0  0  0  0
  -31.0098  -27.5915   19.4601 C   0  0  0  0  0  0  0  0  0  0  0  0
  -25.2737  -29.1677   21.2578 C   0  0  0  0  0  0  0  0  0  0  0  0
  -21.5942  -20.5260   20.1185 C   0  0  0  0  0  0  0  0  0  0  0  0
  -21.6258  -21.7519   20.7282 C   0  0  0  0  0  0  0  0  0  0  0  0
  -22.7117   -7.7786   21.1667 C   0  0  0  0  0  0  0  0  0  0  0  0
  -23.7914  -27.4163   20.4546 C   0  0  0  0  0  0  0  0  0  0  0  0
  -21.6737   -6.1507   22.5063 C   0  0  0  0  0  0  0  0  0  0  0  0
  -20.7486   -5.3485   25.0130 C   0  0  0  0  0  0  0  0  0  0  0  0
  -22.1898   -5.0015   23.1052 C   0  0  0  0  0  0  0  0  0  0  0  0
  -24.5114  -11.5956   20.8674 C   0  0  0  0  0  0  0  0  0  0  0  0
  -22.1480  -22.8275   20.0687 C   0  0  0  0  0  0  0  0  0  0  0  0
  -22.5904  -21.4738   18.2383 C   0  0  0  0  0  0  0  0  0  0  0  0
  -25.8487  -13.2748   20.3909 C   0  0  0  0  0  0  0  0  0  0  0  0
  -26.5916  -11.0839   19.4440 C   0  0  0  0  0  0  0  0  0  0  0  0
  -22.2052  -24.1790   20.6965 C   0  0  0  0  0  0  0  0  0  0  0  0
  -28.6467  -29.6393   21.4286 C   0  0  0  0  0  0  0  0  0  0  0  0
  -27.1145  -32.0876   22.9052 C   0  0  0  0  0  0  0  0  0  0  0  0
  -24.1611  -33.4749   23.9050 C   0  0  0  0  0  0  0  0  0  0  0  0
  -21.9252  -17.5437   21.4631 C   0  0  0  0  0  0  0  0  0  0  0  0
  -33.2591  -28.7872   19.4144 C   0  0  0  0  0  0  0  0  0  0  0  0
  -26.9235  -30.2704   19.6999 C   0  0  0  0  0  0  0  0  0  0  0  0
  -20.9967  -21.2568   21.9931 C   0  0  0  0  0  0  0  0  0  0  0  0
  -25.7365  -30.0359   22.3982 C   0  0  0  0  0  0  0  0  0  0  0  0
  -32.6904  -29.7113   20.4881 C   0  0  0  0  0  0  0  0  0  0  0  0
  -24.7855  -16.7320   23.5246 C   0  0  0  0  0  0  0  0  0  0  0  0
  -31.8200  -28.9247   21.4631 C   0  0  0  0  0  0  0  0  0  0  0  0
  -25.1506  -15.3419   23.0010 C   0  0  0  0  0  0  0  0  0  0  0  0
  -23.2727  -16.9293   23.5640 C   0  0  0  0  0  0  0  0  0  0  0  0
  -22.9505  -15.3068   21.7386 C   0  0  0  0  0  0  0  0  0  0  0  0
  -30.6226  -28.2903   20.7453 C   0  0  1  0  0  0  0  0  0  0  0  0
  -20.9416  -19.8481   21.2933 C   0  0  2  0  0  0  0  0  0  0  0  0
  -27.6861  -30.6920   20.9521 C   0  0  1  0  0  0  0  0  0  0  0  0
  -24.4665  -15.0545   21.6515 C   0  0  2  0  0  0  0  0  0  0  0  0
  -23.2304  -35.4614   25.1237 C   0  0  0  0  0  0  0  0  0  0  0  0
  -27.9699  -30.8553   25.5622 C   0  0  0  0  0  0  0  0  0  0  0  0
  -26.2605  -32.2893   26.6979 C   0  0  0  0  0  0  0  0  0  0  0  0
  -28.1512  -33.3476   25.4618 C   0  0  0  0  0  0  0  0  0  0  0  0
  -23.6549  -22.4066   16.1835 C   0  0  0  0  0  0  0  0  0  0  0  0
  -22.6422  -34.3682   21.5272 C   0  0  0  0  0  0  0  0  0  0  0  0
  -22.7991  -25.3264   19.9034 C   0  0  0  0  0  0  0  0  0  1  0  0
  -26.2918  -32.2307   24.1629 C   0  0  1  0  0  0  0  0  0  0  0  0
  -23.6133  -34.8842   23.7698 C   0  0  2  0  0  0  0  0  0  0  0  0
  -27.1607  -32.1629   25.4504 C   0  0  0  0  0  0  0  0  0  0  0  0
  -23.9445  -12.6521   21.4558 N   0  0  0  0  0  0  0  0  0  0  0  0
  -22.6395  -22.7108   18.8132 N   0  0  0  0  0  0  0  0  0  0  0  0
  -24.7810  -13.6579   21.1482 N   0  0  0  0  0  0  0  0  0  0  0  0
  -26.8001  -31.0017   22.0760 N   0  0  0  0  0  0  0  0  0  0  0  0
  -22.6857  -16.6586   22.2437 N   0  0  0  0  0  0  0  0  0  0  0  0
  -26.7868  -14.1600   19.9926 N   0  0  0  0  0  0  0  0  0  0  0  0
  -26.2898   -9.7195   19.3363 N   0  0  0  0  0  0  0  0  0  0  0  0
  -23.0992  -21.3216   16.9233 N   0  0  0  0  0  0  0  0  0  0  0  0
  -29.6001  -29.2832   20.4939 N   0  0  0  0  0  0  0  0  0  0  0  0
  -25.5353  -33.4697   24.0171 N   0  0  0  0  0  0  0  0  0  0  0  0
  -21.7163  -18.8087   22.0021 N   0  0  0  0  0  0  0  0  0  0  0  0
  -22.4045  -34.8887   22.8982 N   0  3  0  0  0  0  0  0  0  0  0  0
  -27.6335  -11.5267   18.9038 O   0  0  0  0  0  0  0  0  0  0  0  0
  -21.7726  -24.3375   21.8357 O   0  0  0  0  0  0  0  0  0  0  0  0
  -28.5323  -29.1851   22.5609 O   0  0  0  0  0  0  0  0  0  0  0  0
  -27.9986  -32.9133   22.6638 O   0  0  0  0  0  0  0  0  0  0  0  0
  -23.4414  -32.4786   23.9143 O   0  0  0  0  0  0  0  0  0  0  0  0
  -21.4654  -17.2369   20.3576 O   0  0  0  0  0  0  0  0  0  0  0  0
  -22.1324   -6.5507   21.2624 O   0  0  0  0  0  0  0  0  0  0  0  0
  -22.7976  -26.5170   20.6901 O   0  0  0  0  0  0  0  0  0  1  0  0
  -20.3054   -4.9643   26.2172 F   0  0  0  0  0  0  0  0  0  0  0  0
  -23.1309   -4.2793   22.4818 F   0  0  0  0  0  0  0  0  0  0  0  0
  1  2  1  0  0  0  0
  1  5  2  0  0  0  0
  2  6  2  0  0  0  0
  3  8  2  0  0  0  0
  3 16  1  0  0  0  0
  4  9  1  0  0  0  0
  4 16  2  0  0  0  0
  5 18  1  0  0  0  0
  6 20  1  0  0  0  0
  7 10  2  0  0  0  0
  7 19  1  0  0  0  0
  8 24  1  0  0  0  0
  9 24  2  0  0  0  0
 10 25  1  0  0  0  0
 11 12  2  0  0  0  0
 11 26  1  0  0  0  0
 12 27  1  0  0  0  0
 13 21  1  0  0  0  0
 13 25  2  0  0  0  0
 14 22  2  0  0  0  0
 14 31  1  0  0  0  0
 15 27  2  0  0  0  0
 15 28  1  0  0  0  0
 16 29  1  0  0  0  0
 17 29  1  0  0  0  0
 17 32  2  0  0  0  0
 17 33  1  0  0  0  0
 18 20  2  0  0  0  0
 18 39  1  0  0  0  0
 19 21  2  0  0  0  0
 19 40  1  0  0  0  0
 20 49  1  0  0  0  0
 21 42  1  0  0  0  0
 22 23  1  0  0  0  0
 22 50  1  0  0  0  0
 23 30  2  0  0  0  0
 23 41  1  0  0  0  0
 24 81  1  0  0  0  0
 25 82  1  0  0  0  0
 26 28  2  0  0  0  0
 26 81  1  0  0  0  0
 27 83  1  0  0  0  0
 28 84  1  0  0  0  0
 29 63  2  0  0  0  0
 30 34  1  0  0  0  0
 30 64  1  0  0  0  0
 31 64  2  0  0  0  0
 31 70  1  0  0  0  0
 32 65  1  0  0  0  0
 32 68  1  0  0  0  0
 33 69  1  0  0  0  0
 33 75  2  0  0  0  0
 34 59  1  0  0  0  0
 34 76  2  0  0  0  0
 35 51  1  0  0  0  0
 35 71  1  0  0  0  0
 35 77  2  0  0  0  0
 36 60  1  0  0  0  0
 36 66  1  0  0  0  0
 36 78  2  0  0  0  0
 37 61  1  0  0  0  0
 37 72  1  0  0  0  0
 37 79  2  0  0  0  0
 38 67  1  0  0  0  0
 38 73  1  0  0  0  0
 38 80  2  0  0  0  0
 39 43  1  0  0  0  0
 40 51  1  0  0  0  0
 41 50  1  0  0  0  0
 42 66  1  0  0  0  0
 43 45  1  0  0  0  0
 44 46  1  0  0  0  0
 44 47  1  0  0  0  0
 45 49  1  0  0  0  0
 46 52  1  0  0  0  0
 47 67  1  0  0  0  0
 48 52  1  0  0  0  0
 48 67  1  0  0  0  0
 49 71  1  0  0  0  0
 50 73  1  0  0  0  0
 51 66  1  0  0  0  0
 52 65  1  0  0  0  0
 53 61  1  0  0  0  0
 54 62  1  0  0  0  0
 55 62  1  0  0  0  0
 56 62  1  0  0  0  0
 57 70  1  0  0  0  0
 58 74  1  0  0  0  0
 59 82  1  0  0  0  0
 60 62  1  0  0  0  0
 60 72  1  0  0  0  0
 61 74  1  0  0  0  0
 63 65  1  0  0  0  0
M  CHG  1  74   1
M  ISO  4  38 100  59 101  73 100  82 101
M  END
> <Batch ID>
0152

> <Smiles>
CNc1cc2c(c(C(=O)[101CH2:1][101O:1]c3ccc4c(c3)CN(C(=O)C(NC(=O)C(C)NC)C(C)(C)C)C(C(=O)NC3CCCc5ccccc53)C4)n1)CC2[100NH:0][100C:0](=O)N1CCCC(n2nc(-c3ccc(Oc4ccc(F)cc4F)cc3)c(C(N)=O)c2N)C1

> <Shape>
0.251

> <Color>
0.104

> <Negative vol penalty>
0.000

$$$$

  -OEChem-04052303273D

 83 92  0     1  0  0  0  0  0999 V2000
  -28.3333  -33.8974   28.3597 C   0  0  0  0  0  0  0  0  0  0  0  0
  -28.5982  -32.5459   28.5566 C   0  0  0  0  0  0  0  0  0  0  0  0
  -23.0961   -9.8261   19.9919 C   0  0  0  0  0  0  0  0  0  0  0  0
  -23.8313   -9.9182   22.2915 C   0  0  0  0  0  0  0  0  0  0  0  0
  -27.7281  -34.3229   27.1779 C   0  0  0  0  0  0  0  0  0  0  0  0
  -28.2570  -31.6190   27.5723 C   0  0  0  0  0  0  0  0  0  0  0  0
  -32.5795  -17.6388   23.3384 C   0  0  0  0  0  0  0  0  0  0  0  0
  -30.3831  -18.4909   23.8739 C   0  0  0  0  0  0  0  0  0  0  0  0
  -31.3062  -26.5140   26.1073 C   0  0  0  0  0  0  0  0  0  0  0  0
  -32.0083  -16.7191   22.4589 C   0  0  0  0  0  0  0  0  0  0  0  0
  -29.8119  -17.5712   22.9944 C   0  0  0  0  0  0  0  0  0  0  0  0
  -22.3575   -8.6770   20.2739 C   0  0  0  0  0  0  0  0  0  0  0  0
  -23.0926   -8.7691   22.5736 C   0  0  0  0  0  0  0  0  0  0  0  0
  -31.1203  -25.1773   26.4572 C   0  0  0  0  0  0  0  0  0  0  0  0
  -19.8637   -7.9694   23.1696 C   0  0  0  0  0  0  0  0  0  0  0  0
  -19.0945   -7.9647   24.3331 C   0  0  0  0  0  0  0  0  0  0  0  0
  -29.8976  -24.8174   24.4091 C   0  0  0  0  0  0  0  0  0  0  0  0
  -20.3412   -6.0630   25.1495 C   0  0  0  0  0  0  0  0  0  0  0  0
  -23.8330  -10.4467   21.0006 C   0  0  0  0  0  0  0  0  0  0  0  0
  -24.1589  -12.9686   20.7964 C   0  0  0  0  0  0  0  0  0  0  0  0
  -31.7669  -18.5246   24.0460 C   0  0  0  0  0  0  0  0  0  0  0  0
  -27.3881  -33.4019   26.1745 C   0  0  0  0  0  0  0  0  0  0  0  0
  -30.7790  -27.0159   24.9087 C   0  0  0  0  0  0  0  0  0  0  0  0
  -27.6455  -32.0325   26.3766 C   0  0  0  0  0  0  0  0  0  0  0  0
  -30.0804  -26.1603   24.0450 C   0  0  0  0  0  0  0  0  0  0  0  0
  -30.6245  -16.6854   22.2869 C   0  0  0  0  0  0  0  0  0  0  0  0
  -22.3557   -8.1485   21.5648 C   0  0  0  0  0  0  0  0  0  0  0  0
  -30.4134  -24.3295   25.6094 C   0  0  0  0  0  0  0  0  0  0  0  0
  -20.8716   -7.0209   22.9959 C   0  0  0  0  0  0  0  0  0  0  0  0
  -19.3332   -7.0115   25.3231 C   0  0  0  0  0  0  0  0  0  0  0  0
  -21.1103   -6.0677   23.9859 C   0  0  0  0  0  0  0  0  0  0  0  0
  -24.5967  -11.6334   20.7097 C   0  0  0  0  0  0  0  0  0  0  0  0
  -25.2497  -13.7128   20.4188 C   0  0  0  0  0  0  0  0  0  0  0  0
  -22.8805  -13.4894   21.1838 C   0  0  0  0  0  0  0  0  0  0  0  0
  -28.6500  -29.2537   24.1580 C   0  0  0  0  0  0  0  0  0  0  0  0
  -29.5965  -28.5862   21.1280 C   0  0  0  0  0  0  0  0  0  0  0  0
  -30.9795  -26.3517   18.9506 C   0  0  0  0  0  0  0  0  0  0  0  0
  -30.7064  -14.8032   20.6144 C   0  0  0  0  0  0  0  0  0  0  0  0
  -26.6924  -33.9038   24.9340 C   0  0  0  0  0  0  0  0  0  0  0  0
  -31.0112  -28.4538   24.5331 C   0  0  0  0  0  0  0  0  0  0  0  0
  -29.5118  -26.6450   22.7373 C   0  0  0  0  0  0  0  0  0  0  0  0
  -26.7032  -32.9020   23.7822 C   0  0  0  0  0  0  0  0  0  0  0  0
  -29.6341  -12.3007   18.3199 C   0  0  0  0  0  0  0  0  0  0  0  0
  -26.3131  -31.5135   24.2787 C   0  0  0  0  0  0  0  0  0  0  0  0
  -28.1919  -12.0138   18.7442 C   0  0  0  0  0  0  0  0  0  0  0  0
  -30.5346  -12.5777   19.5224 C   0  0  0  0  0  0  0  0  0  0  0  0
  -28.6080  -13.3359   20.8576 C   0  0  0  0  0  0  0  0  0  0  0  0
  -32.3492  -20.1833   27.2273 C   0  0  0  0  0  0  0  0  0  0  0  0
  -27.3127  -30.9996   25.3218 C   0  0  1  0  0  0  0  0  0  0  0  0
  -32.3843  -19.5184   24.9965 C   0  0  2  0  0  0  0  0  0  0  0  0
  -29.9887  -28.9824   23.5319 C   0  0  1  0  0  0  0  0  0  0  0  0
  -27.6491  -13.1148   19.6763 C   0  0  2  0  0  0  0  0  0  0  0  0
  -31.2895  -20.9301   26.4329 C   0  0  1  0  0  0  0  0  0  0  0  0
  -31.5885  -26.0771   16.5317 C   0  0  0  0  0  0  0  0  0  0  0  0
  -26.6569  -28.1435   20.4407 C   0  0  0  0  0  0  0  0  0  0  0  0
  -27.3931  -26.9778   18.3509 C   0  0  0  0  0  0  0  0  0  0  0  0
  -27.9598  -29.3816   18.7018 C   0  0  0  0  0  0  0  0  0  0  0  0
  -33.8476  -26.0033   19.5923 C   0  0  0  0  0  0  0  0  0  0  0  0
  -31.2424  -22.4124   26.7468 C   0  0  0  0  0  0  0  0  0  1  0  0
  -29.1553  -27.6154   20.0595 C   0  0  1  0  0  0  0  0  0  0  0  0
  -32.0725  -26.5054   17.9084 C   0  0  2  0  0  0  0  0  0  0  0  0
  -27.8002  -28.0206   19.4137 C   0  0  0  0  0  0  0  0  0  0  0  0
  -25.8666  -11.5323   20.3083 N   0  0  0  0  0  0  0  0  0  0  0  0
  -26.2361  -12.8133   20.1394 N   0  0  0  0  0  0  0  0  0  0  0  0
  -29.7599  -28.0605   22.4175 N   0  0  0  0  0  0  0  0  0  0  0  0
  -29.9592  -13.6343   20.3575 N   0  0  0  0  0  0  0  0  0  0  0  0
  -25.4518  -15.0424   20.3017 N   0  0  0  0  0  0  0  0  0  0  0  0
  -21.8712  -12.5853   21.5418 N   0  0  0  0  0  0  0  0  0  0  0  0
  -30.0440  -15.7514   21.3933 N   0  0  0  0  0  0  0  0  0  0  0  0
  -28.5191  -30.5279   24.6764 N   0  0  0  0  0  0  0  0  0  0  0  0
  -30.2622  -27.5179   19.1142 N   0  0  0  0  0  0  0  0  0  0  0  0
  -32.5824  -18.9812   26.3810 N   0  3  0  0  0  0  0  0  0  0  0  0
  -33.2545  -25.6733   18.2708 N   0  3  0  0  0  0  0  0  0  0  0  0
  -22.6352  -14.7196   21.1958 O   0  0  0  0  0  0  0  0  0  0  0  0
  -27.7983  -28.3727   24.1687 O   0  0  0  0  0  0  0  0  0  0  0  0
  -29.7960  -29.7660   20.8281 O   0  0  0  0  0  0  0  0  0  0  0  0
  -30.7795  -25.3011   19.5562 O   0  0  0  0  0  0  0  0  0  0  0  0
  -31.8393  -14.9638   20.1530 O   0  0  0  0  0  0  0  0  0  0  0  0
  -31.6204  -20.7374   25.0437 O   0  0  0  0  0  0  0  0  0  0  0  0
  -21.6349   -7.0274   21.8405 O   0  0  0  0  0  0  0  0  0  0  0  0
  -30.2300  -23.0245   25.9489 O   0  0  0  0  0  0  0  0  0  1  0  0
  -18.5955   -7.0081   26.4411 F   0  0  0  0  0  0  0  0  0  0  0  0
  -22.0780   -5.1546   23.8252 F   0  0  0  0  0  0  0  0  0  0  0  0
  1  2  1  0  0  0  0
  1  5  2  0  0  0  0
  2  6  2  0  0  0  0
  3 12  2  0  0  0  0
  3 19  1  0  0  0  0
  4 13  1  0  0  0  0
  4 19  2  0  0  0  0
  5 22  1  0  0  0  0
  6 24  1  0  0  0  0
  7 10  2  0  0  0  0
  7 21  1  0  0  0  0
  8 11  1  0  0  0  0
  8 21  2  0  0  0  0
  9 14  2  0  0  0  0
  9 23  1  0  0  0  0
 10 26  1  0  0  0  0
 11 26  2  0  0  0  0
 12 27  1  0  0  0  0
 13 27  2  0  0  0  0
 14 28  1  0  0  0  0
 15 16  2  0  0  0  0
 15 29  1  0  0  0  0
 16 30  1  0  0  0  0
 17 25  1  0  0  0  0
 17 28  2  0  0  0  0
 18 30  2  0  0  0  0
 18 31  1  0  0  0  0
 19 32  1  0  0  0  0
 20 32  1  0  0  0  0
 20 33  2  0  0  0  0
 20 34  1  0  0  0  0
 21 50  1  0  0  0  0
 22 24  2  0  0  0  0
 22 39  1  0  0  0  0
 23 25  2  0  0  0  0
 23 40  1  0  0  0  0
 24 49  1  0  0  0  0
 25 41  1  0  0  0  0
 26 69  1  0  0  0  0
 27 80  1  0  0  0  0
 28 81  1  0  0  0  0
 29 31  2  0  0  0  0
 29 80  1  0  0  0  0
 30 82  1  0  0  0  0
 31 83  1  0  0  0  0
 32 63  2  0  0  0  0
 33 64  1  0  0  0  0
 33 67  1  0  0  0  0
 34 68  1  0  0  0  0
 34 74  2  0  0  0  0
 35 51  1  0  0  0  0
 35 70  1  0  0  0  0
 35 75  2  0  0  0  0
 36 60  1  0  0  0  0
 36 65  1  0  0  0  0
 36 76  2  0  0  0  0
 37 61  1  0  0  0  0
 37 71  1  0  0  0  0
 37 77  2  0  0  0  0
 38 66  1  0  0  0  0
 38 69  1  0  0  0  0
 38 78  2  0  0  0  0
 39 42  1  0  0  0  0
 40 51  1  0  0  0  0
 41 65  1  0  0  0  0
 42 44  1  0  0  0  0
 43 45  1  0  0  0  0
 43 46  1  0  0  0  0
 44 49  1  0  0  0  0
 45 52  1  0  0  0  0
 46 66  1  0  0  0  0
 47 52  1  0  0  0  0
 47 66  1  0  0  0  0
 48 53  1  0  0  0  0
 48 72  1  0  0  0  0
 49 70  1  0  0  0  0
 50 72  1  0  0  0  0
 50 79  1  0  0  0  0
 51 65  1  0  0  0  0
 52 64  1  0  0  0  0
 53 59  1  0  0  0  0
 53 79  1  0  0  0  0
 54 61  1  0  0  0  0
 55 62  1  0  0  0  0
 56 62  1  0  0  0  0
 57 62  1  0  0  0  0
 58 73  1  0  0  0  0
 59 81  1  0  0  0  0
 60 62  1  0  0  0  0
 60 71  1  0  0  0  0
 61 73  1  0  0  0  0
 63 64  1  0  0  0  0
M  CHG  2  72   1  73   1
M  ISO  4  38 100  59 101  69 100  81 101
M  END
> <Batch ID>
0152

> <Smiles>
CNC(C)C(=O)NC(C(=O)N1Cc2cc([101O:1][101CH2:1]C3CNC(c4ccc([100NH:0][100C:0](=O)N5CCCC(n6nc(-c7ccc(Oc8ccc(F)cc8F)cc7)c(C(N)=O)c6N)C5)cc4)O3)ccc2CC1C(=O)NC1CCCc2ccccc21)C(C)(C)C

> <Shape>
0.282

> <Color>
0.207

> <Negative vol penalty>
0.000

$$$$

  -OEChem-04052303273D

 82 90  0     1  0  0  0  0  0999 V2000
  -28.1452  -30.9409   27.7146 C   0  0  0  0  0  0  0  0  0  0  0  0
  -28.1493  -30.0053   26.6850 C   0  0  0  0  0  0  0  0  0  0  0  0
  -24.5930   -8.8379   21.3897 C   0  0  0  0  0  0  0  0  0  0  0  0
  -23.2028  -10.8137   21.3746 C   0  0  0  0  0  0  0  0  0  0  0  0
  -26.9489  -31.5413   28.1046 C   0  0  0  0  0  0  0  0  0  0  0  0
  -26.9567  -29.6687   26.0456 C   0  0  0  0  0  0  0  0  0  0  0  0
  -27.4366  -29.4907   21.0075 C   0  0  0  0  0  0  0  0  0  0  0  0
  -23.7871   -8.2783   22.3811 C   0  0  0  0  0  0  0  0  0  0  0  0
  -22.3968  -10.2542   22.3660 C   0  0  0  0  0  0  0  0  0  0  0  0
  -28.0392  -28.3565   20.4649 C   0  0  0  0  0  0  0  0  0  0  0  0
  -20.7922   -6.7204   22.5718 C   0  0  0  0  0  0  0  0  0  0  0  0
  -20.4130   -5.3864   22.4227 C   0  0  0  0  0  0  0  0  0  0  0  0
  -25.8635  -27.4693   19.9187 C   0  0  0  0  0  0  0  0  0  0  0  0
  -28.6650  -18.9378   19.8302 C   0  0  0  0  0  0  0  0  0  0  0  0
  -21.5034   -4.8431   24.5091 C   0  0  0  0  0  0  0  0  0  0  0  0
  -24.3009  -10.1056   20.8864 C   0  0  0  0  0  0  0  0  0  0  0  0
  -24.9754  -10.5629   18.4691 C   0  0  0  0  0  0  0  0  0  0  0  0
  -25.7425  -31.2190   27.4632 C   0  0  0  0  0  0  0  0  0  0  0  0
  -26.0402  -29.6179   21.0195 C   0  0  0  0  0  0  0  0  0  0  0  0
  -25.7429  -30.2643   26.4284 C   0  0  0  0  0  0  0  0  0  0  0  0
  -25.2458  -28.6072   20.4597 C   0  0  0  0  0  0  0  0  0  0  0  0
  -27.7341  -17.8733   19.8901 C   0  0  0  0  0  0  0  0  0  0  0  0
  -22.6890   -8.9865   22.8693 C   0  0  0  0  0  0  0  0  0  0  0  0
  -27.2525  -27.3443   19.9231 C   0  0  0  0  0  0  0  0  0  0  0  0
  -21.5271   -7.1158   23.6896 C   0  0  0  0  0  0  0  0  0  0  0  0
  -20.7685   -4.4478   23.3913 C   0  0  0  0  0  0  0  0  0  0  0  0
  -21.8826   -6.1772   24.6582 C   0  0  0  0  0  0  0  0  0  0  0  0
  -25.1334  -10.6844   19.8627 C   0  0  0  0  0  0  0  0  0  0  0  0
  -26.0138  -11.2905   17.9411 C   0  0  0  0  0  0  0  0  0  0  0  0
  -27.9209  -20.0928   19.7654 C   0  0  0  0  0  0  0  0  0  0  0  0
  -26.4875  -18.4538   19.8579 C   0  0  0  0  0  0  0  0  0  0  0  0
  -23.9791   -9.8556   17.7189 C   0  0  0  0  0  0  0  0  0  0  0  0
  -23.8310  -29.8780   23.2902 C   0  0  0  0  0  0  0  0  0  0  0  0
  -21.8476  -30.3358   20.7645 C   0  0  0  0  0  0  0  0  0  0  0  0
  -21.2324  -29.8636   17.4410 C   0  0  0  0  0  0  0  0  0  0  0  0
  -29.2544  -15.8678   20.0030 C   0  0  0  0  0  0  0  0  0  0  0  0
  -24.4672  -31.8592   27.9515 C   0  0  0  0  0  0  0  0  0  0  0  0
  -25.4066  -30.8597   21.5844 C   0  0  0  0  0  0  0  0  0  0  0  0
  -23.7431  -28.7047   20.4298 C   0  0  0  0  0  0  0  0  0  0  0  0
  -23.3043  -31.7247   26.9717 C   0  0  0  0  0  0  0  0  0  0  0  0
  -30.4816  -12.7019   18.9316 C   0  0  0  0  0  0  0  0  0  0  0  0
  -23.2043  -30.2929   26.4552 C   0  0  0  0  0  0  0  0  0  0  0  0
  -29.2340  -11.8158   18.9161 C   0  0  0  0  0  0  0  0  0  0  0  0
  -30.4574  -13.6952   20.0919 C   0  0  0  0  0  0  0  0  0  0  0  0
  -27.9957  -13.6306   20.1651 C   0  0  0  0  0  0  0  0  0  0  0  0
  -24.4734  -29.8913   25.6939 C   0  0  1  0  0  0  0  0  0  0  0  0
  -23.9559  -30.6508   22.0076 C   0  0  1  0  0  0  0  0  0  0  0  0
  -27.9442  -12.6574   18.9760 C   0  0  2  0  0  0  0  0  0  0  0  0
  -19.5111  -30.3177   15.6724 C   0  0  0  0  0  0  0  0  0  0  0  0
  -20.1118  -28.0881   21.8803 C   0  0  0  0  0  0  0  0  0  0  0  0
  -18.9831  -27.9468   19.6501 C   0  0  0  0  0  0  0  0  0  0  0  0
  -18.8369  -30.0464   20.9891 C   0  0  0  0  0  0  0  0  0  0  0  0
  -23.1258  -31.4913   15.8521 C   0  0  0  0  0  0  0  0  0  0  0  0
  -27.3397  -22.5154   19.6294 C   0  0  0  0  0  0  0  0  0  0  0  0
  -27.1002  -25.0164   19.4610 C   0  0  0  0  0  0  0  0  0  1  0  0
  -21.0232  -29.4360   19.8757 C   0  0  1  0  0  0  0  0  0  0  0  0
  -20.7731  -30.8206   16.3558 C   0  0  2  0  0  0  0  0  0  0  0  0
  -28.0783  -23.8484   19.5255 C   0  0  1  0  0  0  0  0  0  0  0  0
  -19.7670  -28.8763   20.6010 C   0  0  0  0  0  0  0  0  0  0  0  0
  -26.1891  -11.4304   20.1988 N   0  0  0  0  0  0  0  0  0  0  0  0
  -26.7039  -11.7841   19.0089 N   0  0  0  0  0  0  0  0  0  0  0  0
  -23.1705  -29.9354   20.9999 N   0  0  0  0  0  0  0  0  0  0  0  0
  -29.2083  -14.4598   20.0823 N   0  0  0  0  0  0  0  0  0  0  0  0
  -26.3948  -11.5498   16.6722 N   0  0  0  0  0  0  0  0  0  0  0  0
  -22.9841   -9.1599   18.4192 N   0  0  0  0  0  0  0  0  0  0  0  0
  -28.0042  -16.4846   19.9683 N   0  0  0  0  0  0  0  0  0  0  0  0
  -28.2879  -21.4258   19.6904 N   0  0  0  0  0  0  0  0  0  0  0  0
  -24.4692  -30.4658   24.3656 N   0  0  0  0  0  0  0  0  0  0  0  0
  -20.7251  -30.2100   18.6755 N   0  0  0  0  0  0  0  0  0  0  0  0
  -21.8352  -30.9804   15.3226 N   0  3  0  0  0  0  0  0  0  0  0  0
  -23.9809   -9.8273   16.4648 O   0  0  0  0  0  0  0  0  0  0  0  0
  -23.2009  -28.8270   23.3034 O   0  0  0  0  0  0  0  0  0  0  0  0
  -21.3388  -31.3599   21.2269 O   0  0  0  0  0  0  0  0  0  0  0  0
  -21.9648  -28.9027   17.2155 O   0  0  0  0  0  0  0  0  0  0  0  0
  -30.3239  -16.4796   19.9411 O   0  0  0  0  0  0  0  0  0  0  0  0
  -26.5926  -19.8065   19.7820 O   0  0  0  0  0  0  0  0  0  0  0  0
  -28.8900  -24.0246   20.6885 O   0  0  0  0  0  0  0  0  0  0  0  0
  -21.9022   -8.4407   23.8366 O   0  0  0  0  0  0  0  0  0  0  0  0
  -27.8381  -26.2359   19.3935 O   0  0  0  0  0  0  0  0  0  1  0  0
  -20.4030   -3.1671   23.2487 F   0  0  0  0  0  0  0  0  0  0  0  0
  -22.5875   -6.5513   25.7348 F   0  0  0  0  0  0  0  0  0  0  0  0
  -25.3283  -17.7895   19.8955 F   0  0  0  0  0  0  0  0  0  0  0  0
  1  2  1  0  0  0  0
  1  5  2  0  0  0  0
  2  6  2  0  0  0  0
  3  8  2  0  0  0  0
  3 16  1  0  0  0  0
  4  9  1  0  0  0  0
  4 16  2  0  0  0  0
  5 18  1  0  0  0  0
  6 20  1  0  0  0  0
  7 10  2  0  0  0  0
  7 19  1  0  0  0  0
  8 23  1  0  0  0  0
  9 23  2  0  0  0  0
 10 24  1  0  0  0  0
 11 12  2  0  0  0  0
 11 25  1  0  0  0  0
 12 26  1  0  0  0  0
 13 21  1  0  0  0  0
 13 24  2  0  0  0  0
 14 22  1  0  0  0  0
 14 30  2  0  0  0  0
 15 26  2  0  0  0  0
 15 27  1  0  0  0  0
 16 28  1  0  0  0  0
 17 28  1  0  0  0  0
 17 29  2  0  0  0  0
 17 32  1  0  0  0  0
 18 20  2  0  0  0  0
 18 37  1  0  0  0  0
 19 21  2  0  0  0  0
 19 38  1  0  0  0  0
 20 46  1  0  0  0  0
 21 39  1  0  0  0  0
 22 31  2  0  0  0  0
 22 66  1  0  0  0  0
 23 78  1  0  0  0  0
 24 79  1  0  0  0  0
 25 27  2  0  0  0  0
 25 78  1  0  0  0  0
 26 80  1  0  0  0  0
 27 81  1  0  0  0  0
 28 60  2  0  0  0  0
 29 61  1  0  0  0  0
 29 64  1  0  0  0  0
 30 67  1  0  0  0  0
 30 76  1  0  0  0  0
 31 76  1  0  0  0  0
 31 82  1  0  0  0  0
 32 65  1  0  0  0  0
 32 71  2  0  0  0  0
 33 47  1  0  0  0  0
 33 68  1  0  0  0  0
 33 72  2  0  0  0  0
 34 56  1  0  0  0  0
 34 62  1  0  0  0  0
 34 73  2  0  0  0  0
 35 57  1  0  0  0  0
 35 69  1  0  0  0  0
 35 74  2  0  0  0  0
 36 63  1  0  0  0  0
 36 66  1  0  0  0  0
 36 75  2  0  0  0  0
 37 40  1  0  0  0  0
 38 47  1  0  0  0  0
 39 62  1  0  0  0  0
 40 42  1  0  0  0  0
 41 43  1  0  0  0  0
 41 44  1  0  0  0  0
 42 46  1  0  0  0  0
 43 48  1  0  0  0  0
 44 63  1  0  0  0  0
 45 48  1  0  0  0  0
 45 63  1  0  0  0  0
 46 68  1  0  0  0  0
 47 62  1  0  0  0  0
 48 61  1  0  0  0  0
 49 57  1  0  0  0  0
 50 59  1  0  0  0  0
 51 59  1  0  0  0  0
 52 59  1  0  0  0  0
 53 70  1  0  0  0  0
 54 58  1  0  0  0  0
 54 67  1  0  0  0  0
 55 58  1  0  0  0  0
 55 79  1  0  0  0  0
 56 59  1  0  0  0  0
 56 69  1  0  0  0  0
 57 70  1  0  0  0  0
 58 77  1  0  0  0  0
 60 61  1  0  0  0  0
M  CHG  1  70   1
M  ISO  4  36 100  55 101  66 100  79 101
M  END
> <Batch ID>
0152

> <Smiles>
CNC(C)C(=O)NC(C(=O)N1Cc2cc([101O:1][101CH2:1]C(O)CNc3cc([100NH:0][100C:0](=O)N4CCCC(n5nc(-c6ccc(Oc7ccc(F)cc7F)cc6)c(C(N)=O)c5N)C4)c(F)o3)ccc2CC1C(=O)NC1CCCc2ccccc21)C(C)(C)C

> <Shape>
0.288

> <Color>
0.108

> <Negative vol penalty>
0.000

$$$$

  -OEChem-04052303273D

 84 93  0     1  0  0  0  0  0999 V2000
  -30.0866  -34.7693   23.9633 C   0  0  0  0  0  0  0  0  0  0  0  0
  -30.2851  -33.4286   23.6494 C   0  0  0  0  0  0  0  0  0  0  0  0
  -23.8966   -9.6777   22.2850 C   0  0  0  0  0  0  0  0  0  0  0  0
  -23.1215   -9.7222   19.9971 C   0  0  0  0  0  0  0  0  0  0  0  0
  -28.8405  -35.2010   24.4159 C   0  0  0  0  0  0  0  0  0  0  0  0
  -29.2378  -32.5186   23.7889 C   0  0  0  0  0  0  0  0  0  0  0  0
  -28.8108  -29.3604   19.7471 C   0  0  0  0  0  0  0  0  0  0  0  0
  -22.9532   -8.6953   22.5855 C   0  0  0  0  0  0  0  0  0  0  0  0
  -22.1781   -8.7398   20.2976 C   0  0  0  0  0  0  0  0  0  0  0  0
  -29.6990  -28.2905   19.6457 C   0  0  0  0  0  0  0  0  0  0  0  0
  -22.6111   -5.3580   22.1633 C   0  0  0  0  0  0  0  0  0  0  0  0
  -23.0323   -4.2645   22.9199 C   0  0  0  0  0  0  0  0  0  0  0  0
  -28.0291  -26.8234   20.5823 C   0  0  0  0  0  0  0  0  0  0  0  0
  -21.4132   -4.8204   24.6247 C   0  0  0  0  0  0  0  0  0  0  0  0
  -23.9808  -10.1912   20.9908 C   0  0  0  0  0  0  0  0  0  0  0  0
  -26.2738  -11.0095   20.2290 C   0  0  0  0  0  0  0  0  0  0  0  0
  -27.7747  -34.2975   24.5518 C   0  0  0  0  0  0  0  0  0  0  0  0
  -27.5263  -29.1721   20.2775 C   0  0  0  0  0  0  0  0  0  0  0  0
  -27.9767  -32.9383   24.2450 C   0  0  0  0  0  0  0  0  0  0  0  0
  -27.1250  -27.8915   20.6850 C   0  0  0  0  0  0  0  0  0  0  0  0
  -22.0939   -8.2263   21.5919 C   0  0  0  0  0  0  0  0  0  0  0  0
  -29.3089  -27.0223   20.0654 C   0  0  0  0  0  0  0  0  0  0  0  0
  -21.5909   -6.1827   22.6374 C   0  0  0  0  0  0  0  0  0  0  0  0
  -22.4334   -3.9957   24.1506 C   0  0  0  0  0  0  0  0  0  0  0  0
  -20.9920   -5.9139   23.8681 C   0  0  0  0  0  0  0  0  0  0  0  0
  -24.9548  -11.2065   20.6799 C   0  0  0  0  0  0  0  0  0  0  0  0
  -26.7793  -12.2780   20.0816 C   0  0  0  0  0  0  0  0  0  0  0  0
  -29.1839  -24.7133   18.2372 C   0  0  0  0  0  0  0  0  0  0  0  0
  -28.7390  -22.3611   18.4852 C   0  0  0  0  0  0  0  0  0  0  0  0
  -29.6999  -24.7942   19.4706 C   0  0  0  0  0  0  0  0  0  1  0  0
  -28.6888  -23.4633   17.7271 C   0  0  0  0  0  0  0  0  0  0  0  0
  -29.7658  -23.5698   20.3370 C   0  0  0  0  0  0  0  0  0  0  0  0
  -28.0696  -19.4523   21.3436 C   0  0  0  0  0  0  0  0  0  0  0  0
  -26.9789   -9.7890   19.9668 C   0  0  0  0  0  0  0  0  0  0  0  0
  -25.8576  -30.2970   22.7666 C   0  0  0  0  0  0  0  0  0  0  0  0
  -23.4637  -28.5157   21.3004 C   0  0  0  0  0  0  0  0  0  0  0  0
  -21.1650  -30.0552   23.2968 C   0  0  0  0  0  0  0  0  0  0  0  0
  -27.5046  -17.3708   22.1214 C   0  0  0  0  0  0  0  0  0  0  0  0
  -26.4593  -34.8024   25.0898 C   0  0  0  0  0  0  0  0  0  0  0  0
  -26.5726  -30.3338   20.3502 C   0  0  0  0  0  0  0  0  0  0  0  0
  -25.7567  -27.6368   21.2572 C   0  0  0  0  0  0  0  0  0  0  0  0
  -27.9942  -20.9339   21.2763 C   0  0  0  0  0  0  0  0  0  0  0  0
  -29.0524  -18.8828   20.3757 C   0  0  0  0  0  0  0  0  0  0  0  0
  -25.2959  -33.8429   24.8530 C   0  0  0  0  0  0  0  0  0  0  0  0
  -24.4893  -16.7782   20.1660 C   0  0  0  0  0  0  0  0  0  0  0  0
  -25.6939  -32.4186   25.2271 C   0  0  0  0  0  0  0  0  0  0  0  0
  -24.4360  -15.2514   20.1237 C   0  0  0  0  0  0  0  0  0  0  0  0
  -25.0492  -17.2838   21.4926 C   0  0  0  0  0  0  0  0  0  0  0  0
  -26.3411  -15.1875   21.7912 C   0  0  0  0  0  0  0  0  0  0  0  0
  -26.8583  -31.9254   24.3597 C   0  0  1  0  0  0  0  0  0  0  0  0
  -25.4270  -30.1219   21.3378 C   0  0  1  0  0  0  0  0  0  0  0  0
  -25.8095  -14.6416   20.4555 C   0  0  1  0  0  0  0  0  0  0  0  0
  -29.2915  -21.1829   20.5337 C   0  0  2  0  0  0  0  0  0  0  0  0
  -18.6890  -30.3053   23.6192 C   0  0  0  0  0  0  0  0  0  0  0  0
  -23.3476  -30.4098   18.9120 C   0  0  0  0  0  0  0  0  0  0  0  0
  -21.2084  -31.3277   19.8338 C   0  0  0  0  0  0  0  0  0  0  0  0
  -21.3491  -28.9281   19.1669 C   0  0  0  0  0  0  0  0  0  0  0  0
  -21.2832  -28.8851   26.0127 C   0  0  0  0  0  0  0  0  0  0  0  0
  -22.5365  -29.7046   21.2595 C   0  0  1  0  0  0  0  0  0  0  0  0
  -19.9344  -29.5251   24.0102 C   0  0  2  0  0  0  0  0  0  0  0  0
  -22.1341  -30.0927   19.8087 C   0  0  0  0  0  0  0  0  0  0  0  0
  -24.6421  -12.4984   20.8105 N   0  0  0  0  0  0  0  0  0  0  0  0
  -27.3502  -18.7443   22.1450 N   0  0  0  0  0  0  0  0  0  0  0  0
  -25.7718  -13.1247   20.4395 N   0  0  0  0  0  0  0  0  0  0  0  0
  -29.2627  -22.3921   19.7667 N   0  0  0  0  0  0  0  0  0  0  0  0
  -24.8371  -28.7816   21.2285 N   0  0  0  0  0  0  0  0  0  0  0  0
  -26.3391  -16.6530   21.7944 N   0  0  0  0  0  0  0  0  0  0  0  0
  -27.9829  -12.7406   19.6820 N   0  0  0  0  0  0  0  0  0  0  0  0
  -26.3104   -8.5741   20.1704 N   0  0  0  0  0  0  0  0  0  0  0  0
  -26.3840  -31.5436   23.0467 N   0  0  0  0  0  0  0  0  0  0  0  0
  -21.4090  -29.3727   22.1238 N   0  0  0  0  0  0  0  0  0  0  0  0
  -20.1079  -29.6262   25.4869 N   0  3  0  0  0  0  0  0  0  0  0  0
  -30.2431  -23.6603   21.4675 O   0  0  0  0  0  0  0  0  0  0  0  0
  -28.1720   -9.7757   19.5796 O   0  0  0  0  0  0  0  0  0  0  0  0
  -25.7208  -29.3704   23.5567 O   0  0  0  0  0  0  0  0  0  0  0  0
  -22.9858  -27.3810   21.3859 O   0  0  0  0  0  0  0  0  0  0  0  0
  -21.8401  -30.9843   23.7343 O   0  0  0  0  0  0  0  0  0  0  0  0
  -28.5672  -16.7948   22.3676 O   0  0  0  0  0  0  0  0  0  0  0  0
  -29.4591  -20.0586   19.6580 O   0  0  0  0  0  0  0  0  0  0  0  0
  -28.1828  -23.4989   16.4512 O   0  0  0  0  0  0  0  0  0  0  0  0
  -21.1733   -7.2675   21.8847 O   0  0  0  0  0  0  0  0  0  0  0  0
  -30.1737  -25.9761   19.9669 O   0  0  0  0  0  0  0  0  0  1  0  0
  -22.8369   -2.9447   24.8764 F   0  0  0  0  0  0  0  0  0  0  0  0
  -20.0106   -6.7020   24.3283 F   0  0  0  0  0  0  0  0  0  0  0  0
  1  2  1  0  0  0  0
  1  5  2  0  0  0  0
  2  6  2  0  0  0  0
  3  8  2  0  0  0  0
  3 15  1  0  0  0  0
  4  9  1  0  0  0  0
  4 15  2  0  0  0  0
  5 17  1  0  0  0  0
  6 19  1  0  0  0  0
  7 10  2  0  0  0  0
  7 18  1  0  0  0  0
  8 21  1  0  0  0  0
  9 21  2  0  0  0  0
 10 22  1  0  0  0  0
 11 12  2  0  0  0  0
 11 23  1  0  0  0  0
 12 24  1  0  0  0  0
 13 20  1  0  0  0  0
 13 22  2  0  0  0  0
 14 24  2  0  0  0  0
 14 25  1  0  0  0  0
 15 26  1  0  0  0  0
 16 26  1  0  0  0  0
 16 27  2  0  0  0  0
 16 34  1  0  0  0  0
 17 19  2  0  0  0  0
 17 39  1  0  0  0  0
 18 20  2  0  0  0  0
 18 40  1  0  0  0  0
 19 50  1  0  0  0  0
 20 41  1  0  0  0  0
 21 81  1  0  0  0  0
 22 82  1  0  0  0  0
 23 25  2  0  0  0  0
 23 81  1  0  0  0  0
 24 83  1  0  0  0  0
 25 84  1  0  0  0  0
 26 62  2  0  0  0  0
 27 64  1  0  0  0  0
 27 68  1  0  0  0  0
 28 30  2  0  0  0  0
 28 31  1  0  0  0  0
 29 31  2  0  0  0  0
 29 65  1  0  0  0  0
 30 32  1  0  0  0  0
 30 82  1  0  0  0  0
 31 80  1  0  0  0  0
 32 65  1  0  0  0  0
 32 73  2  0  0  0  0
 33 42  1  0  0  0  0
 33 43  1  0  0  0  0
 33 63  2  0  0  0  0
 34 69  1  0  0  0  0
 34 74  2  0  0  0  0
 35 51  1  0  0  0  0
 35 70  1  0  0  0  0
 35 75  2  0  0  0  0
 36 59  1  0  0  0  0
 36 66  1  0  0  0  0
 36 76  2  0  0  0  0
 37 60  1  0  0  0  0
 37 71  1  0  0  0  0
 37 77  2  0  0  0  0
 38 63  1  0  0  0  0
 38 67  1  0  0  0  0
 38 78  2  0  0  0  0
 39 44  1  0  0  0  0
 40 51  1  0  0  0  0
 41 66  1  0  0  0  0
 42 53  1  0  0  0  0
 43 79  1  0  0  0  0
 44 46  1  0  0  0  0
 45 47  1  0  0  0  0
 45 48  1  0  0  0  0
 46 50  1  0  0  0  0
 47 52  1  0  0  0  0
 48 67  1  0  0  0  0
 49 52  1  0  0  0  0
 49 67  1  0  0  0  0
 50 70  1  0  0  0  0
 51 66  1  0  0  0  0
 52 64  1  0  0  0  0
 53 65  1  0  0  0  0
 53 79  1  0  0  0  0
 54 60  1  0  0  0  0
 55 61  1  0  0  0  0
 56 61  1  0  0  0  0
 57 61  1  0  0  0  0
 58 72  1  0  0  0  0
 59 61  1  0  0  0  0
 59 71  1  0  0  0  0
 60 72  1  0  0  0  0
 62 64  1  0  0  0  0
M  CHG  1  72   1
M  ISO  4  30 101  38 100  63 100  82 101
M  END
> <Batch ID>
0152

> <Smiles>
CNC(C)C(=O)NC(C(=O)N1Cc2cc([101O:1][101CH:1]3CC(=O)CN(c4cc([100NH:0][100C:0](=O)N5CCCC(n6nc(-c7ccc(Oc8ccc(F)cc8F)cc7)c(C(N)=O)c6N)C5)co4)C3=O)ccc2CC1C(=O)NC1CCCc2ccccc21)C(C)(C)C

> <Shape>
0.364

> <Color>
0.100

> <Negative vol penalty>
0.000

$$$$

  -OEChem-04052303273D

 84 93  0     1  0  0  0  0  0999 V2000
  -29.0155  -21.7735   16.2522 C   0  0  0  0  0  0  0  0  0  0  0  0
  -28.1176  -22.8344   16.2876 C   0  0  0  0  0  0  0  0  0  0  0  0
  -24.7351  -15.0946   19.5478 C   0  0  0  0  0  0  0  0  0  0  0  0
  -26.7045  -15.3098   20.9307 C   0  0  0  0  0  0  0  0  0  0  0  0
  -29.7004  -21.4061   17.4085 C   0  0  0  0  0  0  0  0  0  0  0  0
  -27.9133  -23.5359   17.4764 C   0  0  0  0  0  0  0  0  0  0  0  0
  -24.0358  -28.0466   18.7977 C   0  0  0  0  0  0  0  0  0  0  0  0
  -24.7970  -13.7070   19.6756 C   0  0  0  0  0  0  0  0  0  0  0  0
  -26.7663  -13.9222   21.0586 C   0  0  0  0  0  0  0  0  0  0  0  0
  -22.7447  -28.1775   19.3071 C   0  0  0  0  0  0  0  0  0  0  0  0
  -23.9776  -11.3795   21.9874 C   0  0  0  0  0  0  0  0  0  0  0  0
  -22.7904  -10.7001   22.2606 C   0  0  0  0  0  0  0  0  0  0  0  0
  -23.6578  -28.5612   21.5067 C   0  0  0  0  0  0  0  0  0  0  0  0
  -20.9460  -25.0714   21.5117 C   0  0  0  0  0  0  0  0  0  0  0  0
  -23.0364   -9.4457   20.2104 C   0  0  0  0  0  0  0  0  0  0  0  0
  -19.6199  -25.8218   19.6854 C   0  0  0  0  0  0  0  0  0  0  0  0
  -21.3087  -24.3163   19.2858 C   0  0  0  0  0  0  0  0  0  0  0  0
  -25.6889  -15.8960   20.1753 C   0  0  0  0  0  0  0  0  0  0  0  0
  -25.6929  -18.0771   18.8523 C   0  0  0  0  0  0  0  0  0  0  0  0
  -29.4945  -22.0960   18.6146 C   0  0  0  0  0  0  0  0  0  0  0  0
  -25.1493  -28.1613   19.6424 C   0  0  0  0  0  0  0  0  0  0  0  0
  -28.6129  -23.1956   18.6483 C   0  0  0  0  0  0  0  0  0  0  0  0
  -24.9621  -28.4338   21.0051 C   0  0  0  0  0  0  0  0  0  0  0  0
  -19.9006  -25.8585   21.0418 C   0  0  0  0  0  0  0  0  0  0  0  0
  -21.6686  -24.2827   20.6234 C   0  0  0  0  0  0  0  0  0  0  0  0
  -25.8125  -13.1208   20.4310 C   0  0  0  0  0  0  0  0  0  0  0  0
  -22.5554  -28.4320   20.6623 C   0  0  0  0  0  0  0  0  0  0  0  0
  -24.6941  -11.0920   20.8256 C   0  0  0  0  0  0  0  0  0  0  0  0
  -22.3198   -9.7332   21.3722 C   0  0  0  0  0  0  0  0  0  0  0  0
  -24.2236  -10.1251   19.9372 C   0  0  0  0  0  0  0  0  0  0  0  0
  -25.6259  -17.3294   20.0432 C   0  0  0  0  0  0  0  0  0  0  0  0
  -25.5882  -19.3841   19.2611 C   0  0  0  0  0  0  0  0  0  0  0  0
  -18.8960  -28.3748   23.5971 C   0  0  0  0  0  0  0  0  0  0  0  0
  -19.6702  -27.7088   22.7149 C   0  0  0  0  0  0  0  0  0  0  0  0
  -25.8368  -17.6301   17.4976 C   0  0  0  0  0  0  0  0  0  0  0  0
  -27.5109  -26.2217   20.5167 C   0  0  0  0  0  0  0  0  0  0  0  0
  -28.6296  -28.8852   21.9921 C   0  0  0  0  0  0  0  0  0  0  0  0
  -27.2500  -31.5998   23.9272 C   0  0  0  0  0  0  0  0  0  0  0  0
  -23.2089  -23.3370   22.3783 C   0  0  0  0  0  0  0  0  0  0  0  0
  -30.2681  -21.6611   19.8343 C   0  0  0  0  0  0  0  0  0  0  0  0
  -26.5363  -28.0440   19.0726 C   0  0  0  0  0  0  0  0  0  0  0  0
  -26.1248  -28.5860   21.9504 C   0  0  0  0  0  0  0  0  0  0  0  0
  -17.4550  -28.0315   23.8313 C   0  0  0  0  0  0  0  0  0  0  0  0
  -29.6600  -22.1708   21.1369 C   0  0  0  0  0  0  0  0  0  0  0  0
  -17.0794  -26.6670   23.2558 C   0  0  0  0  0  0  0  0  0  0  0  0
  -25.7929  -21.4128   23.8941 C   0  0  0  0  0  0  0  0  0  0  0  0
  -29.3851  -23.6635   21.0331 C   0  0  0  0  0  0  0  0  0  0  0  0
  -25.9853  -20.2404   22.9294 C   0  0  0  0  0  0  0  0  0  0  0  0
  -17.6893  -26.4459   21.8710 C   0  0  0  0  0  0  0  0  0  0  0  0
  -24.3254  -21.8233   24.0022 C   0  0  0  0  0  0  0  0  0  0  0  0
  -23.8541  -20.9260   21.7568 C   0  0  0  0  0  0  0  0  0  0  0  0
  -28.3517  -23.9536   19.9373 C   0  0  1  0  0  0  0  0  0  0  0  0
  -27.5820  -27.6687   20.1180 C   0  0  1  0  0  0  0  0  0  0  0  0
  -25.3242  -20.5188   21.5652 C   0  0  2  0  0  0  0  0  0  0  0  0
  -28.0572  -33.9552   24.2404 C   0  0  0  0  0  0  0  0  0  0  0  0
  -30.0045  -27.7756   24.4798 C   0  0  0  0  0  0  0  0  0  0  0  0
  -29.4265  -29.9046   25.6636 C   0  0  0  0  0  0  0  0  0  0  0  0
  -30.9204  -29.9560   23.6666 C   0  0  0  0  0  0  0  0  0  0  0  0
  -24.6640  -32.7281   23.0335 C   0  0  0  0  0  0  0  0  0  0  0  0
  -21.0935  -28.1687   22.5196 C   0  0  0  0  0  0  0  0  0  1  0  0
  -28.4519  -29.5059   23.3566 C   0  0  1  0  0  0  0  0  0  0  0  0
  -27.0997  -33.0449   23.4872 C   0  0  2  0  0  0  0  0  0  0  0  0
  -29.6805  -29.2696   24.2798 C   0  0  0  0  0  0  0  0  0  0  0  0
  -20.2995  -25.0682   18.7921 N   0  0  0  0  0  0  0  0  0  0  0  0
  -25.4894  -18.0976   21.1273 N   0  0  0  0  0  0  0  0  0  0  0  0
  -25.4698  -19.3416   20.6192 N   0  0  0  0  0  0  0  0  0  0  0  0
  -19.1461  -26.6733   21.9228 N   0  0  0  0  0  0  0  0  0  0  0  0
  -27.4612  -28.4564   21.3464 N   0  0  0  0  0  0  0  0  0  0  0  0
  -23.7671  -22.0749   22.6718 N   0  0  0  0  0  0  0  0  0  0  0  0
  -25.5868  -20.5542   18.5878 N   0  0  0  0  0  0  0  0  0  0  0  0
  -27.1294  -17.4857   16.9754 N   0  0  0  0  0  0  0  0  0  0  0  0
  -22.7391  -23.4700   21.0720 N   0  0  0  0  0  0  0  0  0  0  0  0
  -28.2744  -25.3826   19.7277 N   0  0  0  0  0  0  0  0  0  0  0  0
  -28.1384  -30.9122   23.1276 N   0  0  0  0  0  0  0  0  0  0  0  0
  -25.7086  -33.5193   23.7334 N   0  3  0  0  0  0  0  0  0  0  0  0
  -24.8481  -17.3822   16.7664 O   0  0  0  0  0  0  0  0  0  0  0  0
  -26.8161  -25.8912   21.4704 O   0  0  0  0  0  0  0  0  0  0  0  0
  -29.7627  -28.7908   21.5135 O   0  0  0  0  0  0  0  0  0  0  0  0
  -26.6431  -31.1291   24.8867 O   0  0  0  0  0  0  0  0  0  0  0  0
  -23.1764  -24.2428   23.2152 O   0  0  0  0  0  0  0  0  0  0  0  0
  -25.8730  -11.7668   20.5562 O   0  0  0  0  0  0  0  0  0  0  0  0
  -21.2962  -28.5596   21.1622 O   0  0  0  0  0  0  0  0  0  1  0  0
  -21.1806   -9.0798   21.6354 F   0  0  0  0  0  0  0  0  0  0  0  0
  -24.9083   -9.8438   18.8201 F   0  0  0  0  0  0  0  0  0  0  0  0
  1  2  1  0  0  0  0
  1  5  2  0  0  0  0
  2  6  2  0  0  0  0
  3  8  2  0  0  0  0
  3 18  1  0  0  0  0
  4  9  1  0  0  0  0
  4 18  2  0  0  0  0
  5 20  1  0  0  0  0
  6 22  1  0  0  0  0
  7 10  2  0  0  0  0
  7 21  1  0  0  0  0
  8 26  1  0  0  0  0
  9 26  2  0  0  0  0
 10 27  1  0  0  0  0
 11 12  2  0  0  0  0
 11 28  1  0  0  0  0
 12 29  1  0  0  0  0
 13 23  1  0  0  0  0
 13 27  2  0  0  0  0
 14 24  2  0  0  0  0
 14 25  1  0  0  0  0
 15 29  2  0  0  0  0
 15 30  1  0  0  0  0
 16 24  1  0  0  0  0
 16 64  2  0  0  0  0
 17 25  2  0  0  0  0
 17 64  1  0  0  0  0
 18 31  1  0  0  0  0
 19 31  1  0  0  0  0
 19 32  2  0  0  0  0
 19 35  1  0  0  0  0
 20 22  2  0  0  0  0
 20 40  1  0  0  0  0
 21 23  2  0  0  0  0
 21 41  1  0  0  0  0
 22 52  1  0  0  0  0
 23 42  1  0  0  0  0
 24 67  1  0  0  0  0
 25 72  1  0  0  0  0
 26 81  1  0  0  0  0
 27 82  1  0  0  0  0
 28 30  2  0  0  0  0
 28 81  1  0  0  0  0
 29 83  1  0  0  0  0
 30 84  1  0  0  0  0
 31 65  2  0  0  0  0
 32 66  1  0  0  0  0
 32 70  1  0  0  0  0
 33 34  2  0  0  0  0
 33 43  1  0  0  0  0
 34 60  1  0  0  0  0
 34 67  1  0  0  0  0
 35 71  1  0  0  0  0
 35 76  2  0  0  0  0
 36 53  1  0  0  0  0
 36 73  1  0  0  0  0
 36 77  2  0  0  0  0
 37 61  1  0  0  0  0
 37 68  1  0  0  0  0
 37 78  2  0  0  0  0
 38 62  1  0  0  0  0
 38 74  1  0  0  0  0
 38 79  2  0  0  0  0
 39 69  1  0  0  0  0
 39 72  1  0  0  0  0
 39 80  2  0  0  0  0
 40 44  1  0  0  0  0
 41 53  1  0  0  0  0
 42 68  1  0  0  0  0
 43 45  1  0  0  0  0
 44 47  1  0  0  0  0
 45 49  1  0  0  0  0
 46 48  1  0  0  0  0
 46 50  1  0  0  0  0
 47 52  1  0  0  0  0
 48 54  1  0  0  0  0
 49 67  1  0  0  0  0
 50 69  1  0  0  0  0
 51 54  1  0  0  0  0
 51 69  1  0  0  0  0
 52 73  1  0  0  0  0
 53 68  1  0  0  0  0
 54 66  1  0  0  0  0
 55 62  1  0  0  0  0
 56 63  1  0  0  0  0
 57 63  1  0  0  0  0
 58 63  1  0  0  0  0
 59 75  1  0  0  0  0
 60 82  1  0  0  0  0
 61 63  1  0  0  0  0
 61 74  1  0  0  0  0
 62 75  1  0  0  0  0
 65 66  1  0  0  0  0
M  CHG  1  75   1
M  ISO  4  39 100  60 101  72 100  82 101
M  END
> <Batch ID>
0152

> <Smiles>
CNC(C)C(=O)NC(C(=O)N1Cc2cc([101O:1][101CH2:1]C3=CCCCN3c3cncc([100NH:0][100C:0](=O)N4CCCC(n5nc(-c6ccc(Oc7ccc(F)cc7F)cc6)c(C(N)=O)c5N)C4)c3)ccc2CC1C(=O)NC1CCCc2ccccc21)C(C)(C)C

> <Shape>
0.244

> <Color>
0.057

> <Negative vol penalty>
0.000

$$$$

  -OEChem-04052303273D

 83 92  0     1  0  0  0  0  0999 V2000
  -20.3613  -11.6441   17.6700 C   0  0  0  0  0  0  0  0  0  0  0  0
  -20.9305  -12.8438   17.2551 C   0  0  0  0  0  0  0  0  0  0  0  0
  -19.4494  -28.5863   23.4134 C   0  0  0  0  0  0  0  0  0  0  0  0
  -20.9429  -26.8665   22.6078 C   0  0  0  0  0  0  0  0  0  0  0  0
  -20.7165  -11.0942   18.9010 C   0  0  0  0  0  0  0  0  0  0  0  0
  -21.8545  -13.4949   18.0716 C   0  0  0  0  0  0  0  0  0  0  0  0
  -30.5331  -26.6606   19.6136 C   0  0  0  0  0  0  0  0  0  0  0  0
  -27.7107  -17.6040   17.7017 C   0  0  0  0  0  0  0  0  0  0  0  0
  -29.6960  -27.6824   20.0614 C   0  0  0  0  0  0  0  0  0  0  0  0
  -18.3555  -27.8472   22.9633 C   0  0  0  0  0  0  0  0  0  0  0  0
  -19.8490  -26.1273   22.1577 C   0  0  0  0  0  0  0  0  0  0  0  0
  -28.2112  -18.8119   18.1856 C   0  0  0  0  0  0  0  0  0  0  0  0
  -17.5025  -24.0921   23.4891 C   0  0  0  0  0  0  0  0  0  0  0  0
  -17.4889  -22.7247   23.7640 C   0  0  0  0  0  0  0  0  0  0  0  0
  -28.7994  -26.2069   21.7456 C   0  0  0  0  0  0  0  0  0  0  0  0
  -28.8086  -17.7281   20.2562 C   0  0  0  0  0  0  0  0  0  0  0  0
  -17.4179  -22.2494   21.3963 C   0  0  0  0  0  0  0  0  0  0  0  0
  -20.7432  -28.0960   23.2356 C   0  0  0  0  0  0  0  0  0  0  0  0
  -22.1426  -29.2616   25.0218 C   0  0  0  0  0  0  0  0  0  0  0  0
  -30.5112  -25.3976   20.2251 C   0  0  0  0  0  0  0  0  0  0  0  0
  -21.6526  -11.7340   19.7287 C   0  0  0  0  0  0  0  0  0  0  0  0
  -27.7455  -16.4495   18.4970 C   0  0  0  0  0  0  0  0  0  0  0  0
  -22.2216  -12.9538   19.3154 C   0  0  0  0  0  0  0  0  0  0  0  0
  -29.6371  -25.1724   21.3041 C   0  0  0  0  0  0  0  0  0  0  0  0
  -28.3102  -16.5061   19.7792 C   0  0  0  0  0  0  0  0  0  0  0  0
  -28.8298  -27.4558   21.1267 C   0  0  0  0  0  0  0  0  0  0  0  0
  -18.5553  -26.6177   22.3355 C   0  0  0  0  0  0  0  0  0  0  0  0
  -28.7576  -18.8748   19.4641 C   0  0  0  0  0  0  0  0  0  0  0  0
  -17.4737  -24.5382   22.1677 C   0  0  0  0  0  0  0  0  0  0  0  0
  -17.4466  -21.8033   22.7176 C   0  0  0  0  0  0  0  0  0  0  0  0
  -17.4314  -23.6168   21.1213 C   0  0  0  0  0  0  0  0  0  0  0  0
  -21.8736  -28.8593   23.6999 C   0  0  0  0  0  0  0  0  0  0  0  0
  -23.3248  -29.9556   24.9357 C   0  0  0  0  0  0  0  0  0  0  0  0
  -30.7603  -23.0646   19.2416 C   0  0  0  0  0  0  0  0  0  0  0  0
  -29.7128  -22.4052   19.7731 C   0  0  0  0  0  0  0  0  0  0  0  0
  -21.3912  -29.0287   26.2205 C   0  0  0  0  0  0  0  0  0  0  0  0
  -25.5519  -14.5020   19.7212 C   0  0  0  0  0  0  0  0  0  0  0  0
  -28.1480  -12.7796   20.6248 C   0  0  0  0  0  0  0  0  0  0  0  0
  -31.4793  -12.7322   21.3642 C   0  0  0  0  0  0  0  0  0  0  0  0
  -27.8838  -29.7900   21.0765 C   0  0  0  0  0  0  0  0  0  0  0  0
  -31.4370  -24.3087   19.7414 C   0  0  0  0  0  0  0  0  0  0  0  0
  -21.9697  -11.1254   21.0717 C   0  0  0  0  0  0  0  0  0  0  0  0
  -27.2259  -15.1482   17.9503 C   0  0  0  0  0  0  0  0  0  0  0  0
  -29.5853  -23.8207   21.9661 C   0  0  0  0  0  0  0  0  0  0  0  0
  -28.3898  -15.2906   20.6650 C   0  0  0  0  0  0  0  0  0  0  0  0
  -28.9788  -22.7521   21.0526 C   0  0  0  0  0  0  0  0  0  0  0  0
  -23.2372  -11.6867   21.7108 C   0  0  0  0  0  0  0  0  0  0  0  0
  -25.8883  -32.6230   21.8947 C   0  0  0  0  0  0  0  0  0  0  0  0
  -23.2503  -13.2095   21.6224 C   0  0  0  0  0  0  0  0  0  0  0  0
  -24.6596  -32.0164   22.5763 C   0  0  0  0  0  0  0  0  0  0  0  0
  -26.3900  -31.7484   20.7471 C   0  0  0  0  0  0  0  0  0  0  0  0
  -25.4106  -29.7381   21.7809 C   0  0  0  0  0  0  0  0  0  0  0  0
  -23.2462  -13.6774   20.1620 C   0  0  1  0  0  0  0  0  0  0  0  0
  -26.8449  -14.1516   19.0407 C   0  0  1  0  0  0  0  0  0  0  0  0
  -24.9078  -30.5511   22.9850 C   0  0  2  0  0  0  0  0  0  0  0  0
  -33.3104  -11.1854   22.1069 C   0  0  0  0  0  0  0  0  0  0  0  0
  -27.0435  -12.8414   23.4684 C   0  0  0  0  0  0  0  0  0  0  0  0
  -29.3053  -12.1474   24.2875 C   0  0  0  0  0  0  0  0  0  0  0  0
  -28.0135  -10.6435   22.7735 C   0  0  0  0  0  0  0  0  0  0  0  0
  -33.0392  -13.2053   18.8941 C   0  0  0  0  0  0  0  0  0  0  0  0
  -29.1670  -21.1848   19.0739 C   0  0  0  0  0  0  0  0  0  1  0  0
  -29.0445  -12.7544   21.8391 C   0  0  1  0  0  0  0  0  0  0  0  0
  -32.5974  -11.8080   20.9167 C   0  0  2  0  0  0  0  0  0  0  0  0
  -28.3486  -12.1202   23.0764 C   0  0  0  0  0  0  0  0  0  0  0  0
  -22.8095  -29.2642   22.8371 N   0  0  0  0  0  0  0  0  0  0  0  0
  -23.6780  -29.9281   23.6187 N   0  0  0  0  0  0  0  0  0  0  0  0
  -27.8628  -14.0430   20.0878 N   0  0  0  0  0  0  0  0  0  0  0  0
  -26.6071  -30.3758   21.2096 N   0  0  0  0  0  0  0  0  0  0  0  0
  -24.0861  -30.5805   25.8589 N   0  0  0  0  0  0  0  0  0  0  0  0
  -21.6676  -27.8766   26.9691 N   0  0  0  0  0  0  0  0  0  0  0  0
  -27.9786  -28.4935   21.5810 N   0  0  0  0  0  0  0  0  0  0  0  0
  -24.5663  -13.5431   19.5845 N   0  0  0  0  0  0  0  0  0  0  0  0
  -30.2687  -12.0753   21.4287 N   0  0  0  0  0  0  0  0  0  0  0  0
  -33.5992  -12.5601   20.1094 N   0  3  0  0  0  0  0  0  0  0  0  0
  -20.4897  -29.8105   26.6072 O   0  0  0  0  0  0  0  0  0  0  0  0
  -25.4561  -15.5630   20.3268 O   0  0  0  0  0  0  0  0  0  0  0  0
  -27.7224  -11.7169   20.1651 O   0  0  0  0  0  0  0  0  0  0  0  0
  -31.6623  -13.9173   21.6335 O   0  0  0  0  0  0  0  0  0  0  0  0
  -28.8308  -30.4040   20.5783 O   0  0  0  0  0  0  0  0  0  0  0  0
  -17.4880  -25.8961   21.8964 O   0  0  0  0  0  0  0  0  0  0  0  0
  -29.2462  -20.0527   19.9391 O   0  0  0  0  0  0  0  0  0  1  0  0
  -17.4352  -20.4902   22.9818 F   0  0  0  0  0  0  0  0  0  0  0  0
  -17.4048  -24.0393   19.8499 F   0  0  0  0  0  0  0  0  0  0  0  0
  1  2  1  0  0  0  0
  1  5  2  0  0  0  0
  2  6  2  0  0  0  0
  3 10  2  0  0  0  0
  3 18  1  0  0  0  0
  4 11  1  0  0  0  0
  4 18  2  0  0  0  0
  5 21  1  0  0  0  0
  6 23  1  0  0  0  0
  7  9  2  0  0  0  0
  7 20  1  0  0  0  0
  8 12  2  0  0  0  0
  8 22  1  0  0  0  0
  9 26  1  0  0  0  0
 10 27  1  0  0  0  0
 11 27  2  0  0  0  0
 12 28  1  0  0  0  0
 13 14  2  0  0  0  0
 13 29  1  0  0  0  0
 14 30  1  0  0  0  0
 15 24  1  0  0  0  0
 15 26  2  0  0  0  0
 16 25  1  0  0  0  0
 16 28  2  0  0  0  0
 17 30  2  0  0  0  0
 17 31  1  0  0  0  0
 18 32  1  0  0  0  0
 19 32  1  0  0  0  0
 19 33  2  0  0  0  0
 19 36  1  0  0  0  0
 20 24  2  0  0  0  0
 20 41  1  0  0  0  0
 21 23  2  0  0  0  0
 21 42  1  0  0  0  0
 22 25  2  0  0  0  0
 22 43  1  0  0  0  0
 23 53  1  0  0  0  0
 24 44  1  0  0  0  0
 25 45  1  0  0  0  0
 26 71  1  0  0  0  0
 27 80  1  0  0  0  0
 28 81  1  0  0  0  0
 29 31  2  0  0  0  0
 29 80  1  0  0  0  0
 30 82  1  0  0  0  0
 31 83  1  0  0  0  0
 32 65  2  0  0  0  0
 33 66  1  0  0  0  0
 33 69  1  0  0  0  0
 34 35  2  0  0  0  0
 34 41  1  0  0  0  0
 35 46  1  0  0  0  0
 35 61  1  0  0  0  0
 36 70  1  0  0  0  0
 36 75  2  0  0  0  0
 37 54  1  0  0  0  0
 37 72  1  0  0  0  0
 37 76  2  0  0  0  0
 38 62  1  0  0  0  0
 38 67  1  0  0  0  0
 38 77  2  0  0  0  0
 39 63  1  0  0  0  0
 39 73  1  0  0  0  0
 39 78  2  0  0  0  0
 40 68  1  0  0  0  0
 40 71  1  0  0  0  0
 40 79  2  0  0  0  0
 42 47  1  0  0  0  0
 43 54  1  0  0  0  0
 44 46  1  0  0  0  0
 45 67  1  0  0  0  0
 47 49  1  0  0  0  0
 48 50  1  0  0  0  0
 48 51  1  0  0  0  0
 49 53  1  0  0  0  0
 50 55  1  0  0  0  0
 51 68  1  0  0  0  0
 52 55  1  0  0  0  0
 52 68  1  0  0  0  0
 53 72  1  0  0  0  0
 54 67  1  0  0  0  0
 55 66  1  0  0  0  0
 56 63  1  0  0  0  0
 57 64  1  0  0  0  0
 58 64  1  0  0  0  0
 59 64  1  0  0  0  0
 60 74  1  0  0  0  0
 61 81  1  0  0  0  0
 62 64  1  0  0  0  0
 62 73  1  0  0  0  0
 63 74  1  0  0  0  0
 65 66  1  0  0  0  0
M  CHG  1  74   1
M  ISO  4  40 100  61 101  71 100  81 101
M  END
> <Batch ID>
0152

> <Smiles>
CNC(C)C(=O)NC(C(=O)N1Cc2cc([101O:1][101CH2:1]C3=CCc4ccc([100NH:0][100C:0](=O)N5CCCC(n6nc(-c7ccc(Oc8ccc(F)cc8F)cc7)c(C(N)=O)c6N)C5)cc4CC3)ccc2CC1C(=O)NC1CCCc2ccccc21)C(C)(C)C

> <Shape>
0.277

> <Color>
0.061

> <Negative vol penalty>
0.000

$$$$

  -OEChem-04052303273D

 83 92  0     1  0  0  0  0  0999 V2000
  -29.8722  -36.7703   20.5766 C   0  0  0  0  0  0  0  0  0  0  0  0
  -29.8218  -35.4904   20.0339 C   0  0  0  0  0  0  0  0  0  0  0  0
  -24.5775   -8.7801   21.5580 C   0  0  0  0  0  0  0  0  0  0  0  0
  -23.6843  -10.6288   22.8314 C   0  0  0  0  0  0  0  0  0  0  0  0
  -29.4132  -36.9948   21.8739 C   0  0  0  0  0  0  0  0  0  0  0  0
  -29.3133  -34.4338   20.7886 C   0  0  0  0  0  0  0  0  0  0  0  0
  -26.1104  -29.6405   18.7219 C   0  0  0  0  0  0  0  0  0  0  0  0
  -24.0437   -7.8842   22.4843 C   0  0  0  0  0  0  0  0  0  0  0  0
  -23.1504   -9.7329   23.7576 C   0  0  0  0  0  0  0  0  0  0  0  0
  -26.4770  -28.3326   18.4074 C   0  0  0  0  0  0  0  0  0  0  0  0
  -21.0262   -6.5290   23.1854 C   0  0  0  0  0  0  0  0  0  0  0  0
  -20.3597   -5.4072   22.6924 C   0  0  0  0  0  0  0  0  0  0  0  0
  -25.7847  -27.6166   20.6045 C   0  0  0  0  0  0  0  0  0  0  0  0
  -26.6951  -20.4209   18.2808 C   0  0  0  0  0  0  0  0  0  0  0  0
  -21.9379   -3.9714   23.8260 C   0  0  0  0  0  0  0  0  0  0  0  0
  -24.3979  -10.1524   21.7316 C   0  0  0  0  0  0  0  0  0  0  0  0
  -24.3254  -11.5757   19.6158 C   0  0  0  0  0  0  0  0  0  0  0  0
  -28.8899  -35.9423   22.6414 C   0  0  0  0  0  0  0  0  0  0  0  0
  -25.5874  -29.9486   19.9860 C   0  0  0  0  0  0  0  0  0  0  0  0
  -28.8481  -34.6441   22.0978 C   0  0  0  0  0  0  0  0  0  0  0  0
  -25.4098  -28.9286   20.9316 C   0  0  0  0  0  0  0  0  0  0  0  0
  -26.5464  -19.0039   18.2716 C   0  0  0  0  0  0  0  0  0  0  0  0
  -23.3301   -8.3606   23.5840 C   0  0  0  0  0  0  0  0  0  0  0  0
  -26.3169  -27.3210   19.3497 C   0  0  0  0  0  0  0  0  0  0  0  0
  -22.1486   -6.3720   23.9987 C   0  0  0  0  0  0  0  0  0  0  0  0
  -20.8155   -4.1285   23.0128 C   0  0  0  0  0  0  0  0  0  0  0  0
  -22.6044   -5.0932   24.3190 C   0  0  0  0  0  0  0  0  0  0  0  0
  -24.9497  -11.0784   20.7755 C   0  0  0  0  0  0  0  0  0  0  0  0
  -25.2588  -12.4134   19.0558 C   0  0  0  0  0  0  0  0  0  0  0  0
  -27.9088  -20.8105   18.8030 C   0  0  0  0  0  0  0  0  0  0  0  0
  -27.6524  -18.3643   18.7868 C   0  0  0  0  0  0  0  0  0  0  0  0
  -28.4151  -24.4227   19.0616 C   0  0  0  0  0  0  0  0  0  0  0  0
  -27.9552  -25.6519   19.3182 C   0  0  0  0  0  0  0  0  0  1  0  0
  -23.0187  -11.3048   19.0917 C   0  0  0  0  0  0  0  0  0  0  0  0
  -26.4973  -31.8092   22.3973 C   0  0  0  0  0  0  0  0  0  0  0  0
  -23.6133  -30.9692   23.6219 C   0  0  0  0  0  0  0  0  0  0  0  0
  -21.0446  -28.7239   23.7068 C   0  0  0  0  0  0  0  0  0  0  0  0
  -29.0934  -16.4258   19.5026 C   0  0  0  0  0  0  0  0  0  0  0  0
  -28.4495  -36.2245   24.0560 C   0  0  0  0  0  0  0  0  0  0  0  0
  -25.1718  -31.3596   20.3004 C   0  0  0  0  0  0  0  0  0  0  0  0
  -24.8339  -29.2035   22.2959 C   0  0  0  0  0  0  0  0  0  0  0  0
  -29.8060  -23.9485   19.3420 C   0  0  0  0  0  0  0  0  0  0  0  0
  -27.5833  -23.2805   18.5608 C   0  0  0  0  0  0  0  0  0  0  0  0
  -27.5790  -35.1224   24.6542 C   0  0  0  0  0  0  0  0  0  0  0  0
  -30.1549  -13.0891   20.1479 C   0  0  0  0  0  0  0  0  0  0  0  0
  -28.1909  -33.7519   24.3820 C   0  0  0  0  0  0  0  0  0  0  0  0
  -28.8440  -12.3094   20.2733 C   0  0  0  0  0  0  0  0  0  0  0  0
  -29.6074  -22.4622   19.6254 C   0  0  0  0  0  0  0  0  0  0  0  0
  -30.0398  -14.4915   20.7426 C   0  0  0  0  0  0  0  0  0  0  0  0
  -27.6061  -14.5110   20.3610 C   0  0  0  0  0  0  0  0  0  0  0  0
  -28.2805  -33.4770   22.8761 C   0  0  1  0  0  0  0  0  0  0  0  0
  -25.1288  -31.6504   21.7974 C   0  0  1  0  0  0  0  0  0  0  0  0
  -27.6536  -13.1155   19.7176 C   0  0  2  0  0  0  0  0  0  0  0  0
  -25.3381  -18.3102   17.7640 C   0  0  0  0  0  0  0  0  0  0  0  0
  -18.8445  -28.2893   24.8328 C   0  0  0  0  0  0  0  0  0  0  0  0
  -25.0824  -30.0874   26.1466 C   0  0  0  0  0  0  0  0  0  0  0  0
  -23.0282  -28.8227   26.8164 C   0  0  0  0  0  0  0  0  0  0  0  0
  -22.9357  -31.3022   26.5592 C   0  0  0  0  0  0  0  0  0  0  0  0
  -19.5800  -28.8113   21.1365 C   0  0  0  0  0  0  0  0  0  0  0  0
  -23.1096  -29.8480   24.4984 C   0  0  1  0  0  0  0  0  0  0  0  0
  -19.5401  -28.9113   23.6319 C   0  0  2  0  0  0  0  0  0  0  0  0
  -23.5517  -30.0099   25.9802 C   0  0  0  0  0  0  0  0  0  0  0  0
  -26.1842  -11.5599   20.9433 N   0  0  0  0  0  0  0  0  0  0  0  0
  -26.3432  -12.3684   19.8817 N   0  0  0  0  0  0  0  0  0  0  0  0
  -28.3606  -22.1071   18.9517 N   0  0  3  0  0  0  0  0  0  0  0  0
  -24.4485  -30.6001   22.5579 N   0  0  0  0  0  0  0  0  0  0  0  0
  -28.8931  -15.1970   20.1664 N   0  0  0  0  0  0  0  0  0  0  0  0
  -25.2494  -13.1767   17.9424 N   0  0  0  0  0  0  0  0  0  0  0  0
  -22.1880  -10.4198   19.7926 N   0  0  0  0  0  0  0  0  0  0  0  0
  -27.9347  -16.9875   18.9672 N   0  0  0  0  0  0  0  0  0  0  0  0
  -26.9845  -33.1015   22.3529 N   0  0  0  0  0  0  0  0  0  0  0  0
  -21.6640  -29.7991   24.3080 N   0  0  0  0  0  0  0  0  0  0  0  0
  -19.0000  -28.2778   22.3958 N   0  3  0  0  0  0  0  0  0  0  0  0
  -22.6061  -11.8191   18.0246 O   0  0  0  0  0  0  0  0  0  0  0  0
  -27.0682  -30.8319   22.8670 O   0  0  0  0  0  0  0  0  0  0  0  0
  -23.2724  -32.1289   23.8678 O   0  0  0  0  0  0  0  0  0  0  0  0
  -21.6132  -27.7220   23.2783 O   0  0  0  0  0  0  0  0  0  0  0  0
  -30.2146  -16.9284   19.3919 O   0  0  0  0  0  0  0  0  0  0  0  0
  -22.8088   -7.4866   24.4879 O   0  0  0  0  0  0  0  0  0  0  0  0
  -26.6747  -26.0437   19.0455 O   0  0  0  0  0  0  0  0  0  1  0  0
  -20.1745   -3.0513   22.5405 F   0  0  0  0  0  0  0  0  0  0  0  0
  -23.6814   -4.9360   25.1008 F   0  0  0  0  0  0  0  0  0  0  0  0
  -28.8631  -19.4707   19.2791 S   0  0  0  0  0  0  0  0  0  0  0  0
  1  2  1  0  0  0  0
  1  5  2  0  0  0  0
  2  6  2  0  0  0  0
  3  8  2  0  0  0  0
  3 16  1  0  0  0  0
  4  9  1  0  0  0  0
  4 16  2  0  0  0  0
  5 18  1  0  0  0  0
  6 20  1  0  0  0  0
  7 10  2  0  0  0  0
  7 19  1  0  0  0  0
  8 23  1  0  0  0  0
  9 23  2  0  0  0  0
 10 24  1  0  0  0  0
 11 12  2  0  0  0  0
 11 25  1  0  0  0  0
 12 26  1  0  0  0  0
 13 21  1  0  0  0  0
 13 24  2  0  0  0  0
 14 22  1  0  0  0  0
 14 30  2  0  0  0  0
 15 26  2  0  0  0  0
 15 27  1  0  0  0  0
 16 28  1  0  0  0  0
 17 28  1  0  0  0  0
 17 29  2  0  0  0  0
 17 34  1  0  0  0  0
 18 20  2  0  0  0  0
 18 39  1  0  0  0  0
 19 21  2  0  0  0  0
 19 40  1  0  0  0  0
 20 51  1  0  0  0  0
 21 41  1  0  0  0  0
 22 31  2  0  0  0  0
 22 54  1  0  0  0  0
 23 79  1  0  0  0  0
 24 80  1  0  0  0  0
 25 27  2  0  0  0  0
 25 79  1  0  0  0  0
 26 81  1  0  0  0  0
 27 82  1  0  0  0  0
 28 63  2  0  0  0  0
 29 64  1  0  0  0  0
 29 68  1  0  0  0  0
 30 65  1  0  0  0  0
 30 83  1  0  0  0  0
 31 70  1  0  0  0  0
 31 83  1  0  0  0  0
 32 33  2  0  0  0  0
 32 42  1  0  0  0  0
 32 43  1  0  0  0  0
 33 80  1  0  0  0  0
 34 69  1  0  0  0  0
 34 74  2  0  0  0  0
 35 52  1  0  0  0  0
 35 71  1  0  0  0  0
 35 75  2  0  0  0  0
 36 60  1  0  0  0  0
 36 66  1  0  0  0  0
 36 76  2  0  0  0  0
 37 61  1  0  0  0  0
 37 72  1  0  0  0  0
 37 77  2  0  0  0  0
 38 67  1  0  0  0  0
 38 70  1  0  0  0  0
 38 78  2  0  0  0  0
 39 44  1  0  0  0  0
 40 52  1  0  0  0  0
 41 66  1  0  0  0  0
 42 48  1  0  0  0  0
 43 65  1  0  0  0  0
 44 46  1  0  0  0  0
 45 47  1  0  0  0  0
 45 49  1  0  0  0  0
 46 51  1  0  0  0  0
 47 53  1  0  0  0  0
 48 65  1  0  0  0  0
 49 67  1  0  0  0  0
 50 53  1  0  0  0  0
 50 67  1  0  0  0  0
 51 71  1  0  0  0  0
 52 66  1  0  0  0  0
 53 64  1  0  0  0  0
 55 61  1  0  0  0  0
 56 62  1  0  0  0  0
 57 62  1  0  0  0  0
 58 62  1  0  0  0  0
 59 73  1  0  0  0  0
 60 62  1  0  0  0  0
 60 72  1  0  0  0  0
 61 73  1  0  0  0  0
 63 64  1  0  0  0  0
M  CHG  1  73   1
M  ISO  4  33 101  38 100  70 100  80 101
M  END
> <Batch ID>
0152

> <Smiles>
CNC(C)C(=O)NC(C(=O)N1Cc2cc([101O:1][101CH:1]=C3CCN(c4cc(C)c([100NH:0][100C:0](=O)N5CCCC(n6nc(-c7ccc(Oc8ccc(F)cc8F)cc7)c(C(N)=O)c6N)C5)s4)C3)ccc2CC1C(=O)NC1CCCc2ccccc21)C(C)(C)C

> <Shape>
0.297

> <Color>
0.105

> <Negative vol penalty>
0.000

$$$$

  -OEChem-04052303273D

 83 92  0     1  0  0  0  0  0999 V2000
  -16.8162  -28.5278   23.3446 C   0  0  0  0  0  0  0  0  0  0  0  0
  -17.5297  -28.5157   22.1504 C   0  0  0  0  0  0  0  0  0  0  0  0
  -26.7008  -13.1398   21.0403 C   0  0  0  0  0  0  0  0  0  0  0  0
  -26.8863  -13.2387   18.6335 C   0  0  0  0  0  0  0  0  0  0  0  0
  -17.4312  -28.9610   24.5184 C   0  0  0  0  0  0  0  0  0  0  0  0
  -18.8585  -28.9379   22.1291 C   0  0  0  0  0  0  0  0  0  0  0  0
  -21.8398  -25.8367   19.4571 C   0  0  0  0  0  0  0  0  0  0  0  0
  -26.1627  -11.8564   20.9461 C   0  0  0  0  0  0  0  0  0  0  0  0
  -26.3482  -11.9552   18.5393 C   0  0  0  0  0  0  0  0  0  0  0  0
  -21.7903  -25.9462   18.0681 C   0  0  0  0  0  0  0  0  0  0  0  0
  -23.1757  -10.4562   20.2101 C   0  0  0  0  0  0  0  0  0  0  0  0
  -22.0550  -10.1654   20.9880 C   0  0  0  0  0  0  0  0  0  0  0  0
  -23.8143  -27.2581   18.1055 C   0  0  0  0  0  0  0  0  0  0  0  0
  -25.0473  -22.4284   15.4164 C   0  0  0  0  0  0  0  0  0  0  0  0
  -23.2822   -8.4048   22.0977 C   0  0  0  0  0  0  0  0  0  0  0  0
  -25.9056  -20.4696   14.5062 C   0  0  0  0  0  0  0  0  0  0  0  0
  -27.0625  -13.8310   19.8840 C   0  0  0  0  0  0  0  0  0  0  0  0
  -28.9774  -15.5027   20.0994 C   0  0  0  0  0  0  0  0  0  0  0  0
  -18.7712  -29.3796   24.5134 C   0  0  0  0  0  0  0  0  0  0  0  0
  -22.8726  -26.4473   20.1829 C   0  0  0  0  0  0  0  0  0  0  0  0
  -19.4917  -29.3784   23.3038 C   0  0  0  0  0  0  0  0  0  0  0  0
  -23.8760  -27.1527   19.5034 C   0  0  0  0  0  0  0  0  0  0  0  0
  -25.5102  -21.1037   15.6633 C   0  0  0  0  0  0  0  0  0  0  0  0
  -25.9864  -11.2641   19.6956 C   0  0  0  0  0  0  0  0  0  0  0  0
  -22.7761  -26.6594   17.3924 C   0  0  0  0  0  0  0  0  0  0  0  0
  -24.3496   -9.7212   20.3759 C   0  0  0  0  0  0  0  0  0  0  0  0
  -22.1083   -9.1398   21.9319 C   0  0  0  0  0  0  0  0  0  0  0  0
  -24.4029   -8.6956   21.3197 C   0  0  0  0  0  0  0  0  0  0  0  0
  -27.6179  -15.1570   19.9806 C   0  0  0  0  0  0  0  0  0  0  0  0
  -25.1068  -22.7564   14.0796 C   0  0  0  0  0  0  0  0  0  0  0  0
  -28.9791  -16.8750   20.1551 C   0  0  0  0  0  0  0  0  0  0  0  0
  -30.1352  -14.6587   20.1544 C   0  0  0  0  0  0  0  0  0  0  0  0
  -23.0145  -28.7073   22.4137 C   0  0  0  0  0  0  0  0  0  0  0  0
  -26.1537  -27.8933   22.4854 C   0  0  0  0  0  0  0  0  0  0  0  0
  -28.8314  -26.5315   20.8660 C   0  0  0  0  0  0  0  0  0  0  0  0
  -25.1933  -21.0463   18.1619 C   0  0  0  0  0  0  0  0  0  0  0  0
  -19.3789  -29.8841   25.7982 C   0  0  0  0  0  0  0  0  0  0  0  0
  -22.9264  -26.2973   21.6786 C   0  0  0  0  0  0  0  0  0  0  0  0
  -25.0174  -27.8096   20.2344 C   0  0  0  0  0  0  0  0  0  0  0  0
  -20.9031  -29.9611   25.7620 C   0  0  0  0  0  0  0  0  0  0  0  0
  -26.2591  -20.5706   21.5257 C   0  0  0  0  0  0  0  0  0  0  0  0
  -21.3737  -30.6209   24.4698 C   0  0  0  0  0  0  0  0  0  0  0  0
  -25.8545  -25.0454   13.4256 C   0  0  0  0  0  0  0  0  0  0  0  0
  -26.8577  -19.1622   21.5206 C   0  0  0  0  0  0  0  0  0  0  0  0
  -25.1303  -26.3521   13.1566 C   0  0  0  0  0  0  0  0  0  0  0  0
  -25.0378  -20.6711   20.6134 C   0  0  0  0  0  0  0  0  0  0  0  0
  -25.8509  -18.8012   19.2308 C   0  0  0  0  0  0  0  0  0  0  0  0
  -20.9423  -29.8053   23.2450 C   0  0  1  0  0  0  0  0  0  0  0  0
  -24.7215  -24.0222   13.4265 C   0  0  2  0  0  0  0  0  0  0  0  0
  -23.7405  -27.3928   22.3601 C   0  0  1  0  0  0  0  0  0  0  0  0
  -27.1221  -18.6674   20.0850 C   0  0  2  0  0  0  0  0  0  0  0  0
  -23.8483  -26.2643   13.9800 C   0  0  2  0  0  0  0  0  0  0  0  0
  -31.2736  -26.0391   21.1669 C   0  0  0  0  0  0  0  0  0  0  0  0
  -26.7998  -30.8431   22.0486 C   0  0  0  0  0  0  0  0  0  0  0  0
  -29.1262  -30.1681   21.4157 C   0  0  0  0  0  0  0  0  0  0  0  0
  -28.2703  -29.6879   23.7091 C   0  0  0  0  0  0  0  0  0  0  0  0
  -22.2206  -24.3381   13.7224 C   0  0  0  0  0  0  0  0  0  0  0  0
  -28.4037  -23.6214   20.5388 C   0  0  0  0  0  0  0  0  0  0  0  0
  -23.9759  -26.8909   15.3521 C   0  0  0  0  0  0  0  0  0  1  0  0
  -27.3930  -28.3478   21.7530 C   0  0  1  0  0  0  0  0  0  0  0  0
  -29.8574  -25.5025   21.3051 C   0  0  2  0  0  0  0  0  0  0  0  0
  -27.8749  -29.7511   22.2177 C   0  0  0  0  0  0  0  0  0  0  0  0
  -26.8144  -16.2238   19.9620 N   0  0  0  0  0  0  0  0  0  0  0  0
  -27.6715  -17.2532   20.0700 N   0  0  0  0  0  0  0  0  0  0  0  0
  -25.0224  -27.6399   21.6968 N   0  0  0  0  0  0  0  0  0  0  0  0
  -25.3645  -20.1892   19.2695 N   0  0  0  0  0  0  0  0  0  0  0  0
  -29.9716  -17.7831   20.2682 N   0  0  0  0  0  0  0  0  0  0  0  0
  -29.9541  -13.2707   20.0842 N   0  0  0  0  0  0  0  0  0  0  0  0
  -25.5674  -20.4899   16.9391 N   0  0  0  0  0  0  0  0  0  0  0  0
  -21.8028  -28.6541   23.0758 N   0  0  0  0  0  0  0  0  0  0  0  0
  -28.3813  -27.2888   21.9268 N   0  0  0  0  0  0  0  0  0  0  0  0
  -23.5933  -24.7656   14.1468 N   0  3  1  0  0  0  0  0  0  0  0  0
  -29.7397  -24.2682   20.4782 N   0  3  0  0  0  0  0  0  0  0  0  0
  -31.2945  -15.1210   20.2792 O   0  0  0  0  0  0  0  0  0  0  0  0
  -23.5171  -29.6968   21.8941 O   0  0  0  0  0  0  0  0  0  0  0  0
  -26.1901  -27.7608   23.7113 O   0  0  0  0  0  0  0  0  0  0  0  0
  -28.4684  -26.6540   19.6982 O   0  0  0  0  0  0  0  0  0  0  0  0
  -24.7734  -22.1990   18.2920 O   0  0  0  0  0  0  0  0  0  0  0  0
  -25.4616  -10.0116   19.6033 O   0  0  0  0  0  0  0  0  0  0  0  0
  -22.7298  -26.7684   16.0367 O   0  0  0  0  0  0  0  0  0  1  0  0
  -21.0325   -8.8617   22.6799 F   0  0  0  0  0  0  0  0  0  0  0  0
  -25.5282   -7.9868   21.4844 F   0  0  0  0  0  0  0  0  0  0  0  0
  -25.7184  -21.4701   13.1291 S   0  0  0  0  0  0  0  0  0  0  0  0
  1  2  1  0  0  0  0
  1  5  2  0  0  0  0
  2  6  2  0  0  0  0
  3  8  2  0  0  0  0
  3 17  1  0  0  0  0
  4  9  1  0  0  0  0
  4 17  2  0  0  0  0
  5 19  1  0  0  0  0
  6 21  1  0  0  0  0
  7 10  2  0  0  0  0
  7 20  1  0  0  0  0
  8 24  1  0  0  0  0
  9 24  2  0  0  0  0
 10 25  1  0  0  0  0
 11 12  2  0  0  0  0
 11 26  1  0  0  0  0
 12 27  1  0  0  0  0
 13 22  1  0  0  0  0
 13 25  2  0  0  0  0
 14 23  1  0  0  0  0
 14 30  2  0  0  0  0
 15 27  2  0  0  0  0
 15 28  1  0  0  0  0
 16 23  2  0  0  0  0
 16 83  1  0  0  0  0
 17 29  1  0  0  0  0
 18 29  1  0  0  0  0
 18 31  2  0  0  0  0
 18 32  1  0  0  0  0
 19 21  2  0  0  0  0
 19 37  1  0  0  0  0
 20 22  2  0  0  0  0
 20 38  1  0  0  0  0
 21 48  1  0  0  0  0
 22 39  1  0  0  0  0
 23 69  1  0  0  0  0
 24 79  1  0  0  0  0
 25 80  1  0  0  0  0
 26 28  2  0  0  0  0
 26 79  1  0  0  0  0
 27 81  1  0  0  0  0
 28 82  1  0  0  0  0
 29 63  2  0  0  0  0
 30 49  1  0  0  0  0
 30 83  1  0  0  0  0
 31 64  1  0  0  0  0
 31 67  1  0  0  0  0
 32 68  1  0  0  0  0
 32 74  2  0  0  0  0
 33 50  1  0  0  0  0
 33 70  1  0  0  0  0
 33 75  2  0  0  0  0
 34 60  1  0  0  0  0
 34 65  1  0  0  0  0
 34 76  2  0  0  0  0
 35 61  1  0  0  0  0
 35 71  1  0  0  0  0
 35 77  2  0  0  0  0
 36 66  1  0  0  0  0
 36 69  1  0  0  0  0
 36 78  2  0  0  0  0
 37 40  1  0  0  0  0
 38 50  1  0  0  0  0
 39 65  1  0  0  0  0
 40 42  1  0  0  0  0
 41 44  1  0  0  0  0
 41 46  1  0  0  0  0
 42 48  1  0  0  0  0
 43 45  1  0  0  0  0
 43 49  1  0  0  0  0
 44 51  1  0  0  0  0
 45 52  1  0  0  0  0
 46 66  1  0  0  0  0
 47 51  1  0  0  0  0
 47 66  1  0  0  0  0
 48 70  1  0  0  0  0
 49 72  1  0  0  0  0
 50 65  1  0  0  0  0
 51 64  1  0  0  0  0
 52 59  1  0  0  0  0
 52 72  1  0  0  0  0
 53 61  1  0  0  0  0
 54 62  1  0  0  0  0
 55 62  1  0  0  0  0
 56 62  1  0  0  0  0
 57 72  1  0  0  0  0
 58 73  1  0  0  0  0
 59 80  1  0  0  0  0
 60 62  1  0  0  0  0
 60 71  1  0  0  0  0
 61 73  1  0  0  0  0
 63 64  1  0  0  0  0
M  CHG  2  72   1  73   1
M  ISO  4  36 100  59 101  69 100  80 101
M  END
> <Batch ID>
0152

> <Smiles>
CNC(C)C(=O)NC(C(=O)N1Cc2cc([101O:1][101CH2:1]C3CCC(c4cc([100NH:0][100C:0](=O)N5CCCC(n6nc(-c7ccc(Oc8ccc(F)cc8F)cc7)c(C(N)=O)c6N)C5)cs4)N3C)ccc2CC1C(=O)NC1CCCc2ccccc21)C(C)(C)C

> <Shape>
0.219

> <Color>
0.086

> <Negative vol penalty>
0.000

$$$$

  -OEChem-04052303273D

 84 93  0     1  0  0  0  0  0999 V2000
  -16.7012  -28.6905   23.9298 C   0  0  0  0  0  0  0  0  0  0  0  0
  -16.9926  -28.8564   22.5796 C   0  0  0  0  0  0  0  0  0  0  0  0
  -27.2917  -11.7210   20.7052 C   0  0  0  0  0  0  0  0  0  0  0  0
  -27.5731  -12.1280   23.0700 C   0  0  0  0  0  0  0  0  0  0  0  0
  -17.6154  -29.1093   24.8956 C   0  0  0  0  0  0  0  0  0  0  0  0
  -18.1979  -29.4422   22.1945 C   0  0  0  0  0  0  0  0  0  0  0  0
  -23.8142  -26.7075   17.5034 C   0  0  0  0  0  0  0  0  0  0  0  0
  -26.4877  -10.6176   20.9907 C   0  0  0  0  0  0  0  0  0  0  0  0
  -26.7690  -11.0245   23.3555 C   0  0  0  0  0  0  0  0  0  0  0  0
  -24.9462  -26.2656   16.8183 C   0  0  0  0  0  0  0  0  0  0  0  0
  -23.2905  -10.0409   21.9282 C   0  0  0  0  0  0  0  0  0  0  0  0
  -22.1078   -9.8957   21.2033 C   0  0  0  0  0  0  0  0  0  0  0  0
  -26.3367  -27.7282   18.1508 C   0  0  0  0  0  0  0  0  0  0  0  0
  -30.5717  -22.1402   18.0830 C   0  0  0  0  0  0  0  0  0  0  0  0
  -22.8802   -7.7635   20.3701 C   0  0  0  0  0  0  0  0  0  0  0  0
  -31.0939  -20.1955   16.9221 C   0  0  0  0  0  0  0  0  0  0  0  0
  -27.8344  -12.4762   21.7448 C   0  0  0  0  0  0  0  0  0  0  0  0
  -29.8765  -13.6221   20.7327 C   0  0  0  0  0  0  0  0  0  0  0  0
  -18.8368  -29.6918   24.5219 C   0  0  0  0  0  0  0  0  0  0  0  0
  -23.9412  -27.6512   18.5265 C   0  0  0  0  0  0  0  0  0  0  0  0
  -19.1287  -29.8704   23.1562 C   0  0  0  0  0  0  0  0  0  0  0  0
  -25.2079  -28.1654   18.8489 C   0  0  0  0  0  0  0  0  0  0  0  0
  -30.4635  -20.7206   18.0287 C   0  0  0  0  0  0  0  0  0  0  0  0
  -26.2263  -10.2693   22.3159 C   0  0  0  0  0  0  0  0  0  0  0  0
  -26.2043  -26.7749   17.1410 C   0  0  0  0  0  0  0  0  0  0  0  0
  -24.2682   -9.0475   21.8740 C   0  0  0  0  0  0  0  0  0  0  0  0
  -21.9026   -8.7570   20.4242 C   0  0  0  0  0  0  0  0  0  0  0  0
  -24.0630   -7.9088   21.0950 C   0  0  0  0  0  0  0  0  0  0  0  0
  -28.6655  -13.6158   21.4505 C   0  0  0  0  0  0  0  0  0  0  0  0
  -31.2811  -22.6462   17.0159 C   0  0  0  0  0  0  0  0  0  0  0  0
  -30.2674  -14.9388   20.7304 C   0  0  0  0  0  0  0  0  0  0  0  0
  -30.5846  -12.5350   20.1224 C   0  0  0  0  0  0  0  0  0  0  0  0
  -22.2283  -29.7138   21.1509 C   0  0  0  0  0  0  0  0  0  0  0  0
  -29.3796  -25.2082   16.6320 C   0  0  0  0  0  0  0  0  0  0  0  0
  -24.8474  -28.6991   22.3841 C   0  0  0  0  0  0  0  0  0  0  0  0
  -27.6073  -27.0369   23.5054 C   0  0  0  0  0  0  0  0  0  0  0  0
  -29.1297  -20.3567   20.1346 C   0  0  0  0  0  0  0  0  0  0  0  0
  -19.7728  -30.1720   25.6027 C   0  0  0  0  0  0  0  0  0  0  0  0
  -22.7418  -28.2014   19.2495 C   0  0  0  0  0  0  0  0  0  0  0  0
  -25.2924  -29.2047   19.9332 C   0  0  0  0  0  0  0  0  0  0  0  0
  -21.1904  -30.4418   25.1050 C   0  0  0  0  0  0  0  0  0  0  0  0
  -32.5061  -25.2196   18.6456 C   0  0  0  0  0  0  0  0  0  0  0  0
  -28.4914  -18.9067   23.3232 C   0  0  0  0  0  0  0  0  0  0  0  0
  -21.1573  -31.2493   23.8112 C   0  0  0  0  0  0  0  0  0  0  0  0
  -32.9360  -24.5371   17.3502 C   0  0  0  0  0  0  0  0  0  0  0  0
  -28.5794  -17.4015   23.0612 C   0  0  0  0  0  0  0  0  0  0  0  0
  -31.1861  -25.8788   18.2797 C   0  0  0  0  0  0  0  0  0  0  0  0
  -27.8576  -19.6507   22.1491 C   0  0  0  0  0  0  0  0  0  0  0  0
  -28.5655  -17.8873   20.5811 C   0  0  0  0  0  0  0  0  0  0  0  0
  -20.4365  -30.4790   22.6984 C   0  0  1  0  0  0  0  0  0  0  0  0
  -31.6172  -24.0935   16.7058 C   0  0  2  0  0  0  0  0  0  0  0  0
  -23.0198  -28.5101   20.7316 C   0  0  1  0  0  0  0  0  0  0  0  0
  -29.2563  -17.1035   21.7090 C   0  0  2  0  0  0  0  0  0  0  0  0
  -29.0438  -26.7544   25.5435 C   0  0  0  0  0  0  0  0  0  0  0  0
  -26.1244  -31.4184   21.8563 C   0  0  0  0  0  0  0  0  0  0  0  0
  -28.0848  -30.6852   23.2303 C   0  0  0  0  0  0  0  0  0  0  0  0
  -25.8262  -30.8573   24.2751 C   0  0  0  0  0  0  0  0  0  0  0  0
  -27.0124  -24.1422   23.6658 C   0  0  0  0  0  0  0  0  0  0  0  0
  -28.5408  -26.3318   17.1863 C   0  0  0  0  0  0  0  0  0  1  0  0
  -26.3044  -28.9715   22.6605 C   0  0  1  0  0  0  0  0  0  0  0  0
  -27.8514  -26.2231   24.7634 C   0  0  2  0  0  0  0  0  0  0  0  0
  -26.5767  -30.4680   22.9829 C   0  0  0  0  0  0  0  0  0  0  0  0
  -28.3106  -14.8320   21.8736 N   0  0  0  0  0  0  0  0  0  0  0  0
  -29.3045  -15.6147   21.4204 N   0  0  0  0  0  0  0  0  0  0  0  0
  -24.4200  -28.8301   21.0572 N   0  0  0  0  0  0  0  0  0  0  0  0
  -30.6304  -25.0536   17.2111 N   0  0  0  0  0  0  0  0  0  0  0  0
  -28.5533  -19.3230   20.9028 N   0  0  0  0  0  0  0  0  0  0  0  0
  -31.3375  -15.5727   20.2055 N   0  0  0  0  0  0  0  0  0  0  0  0
  -31.5366  -11.8455   20.8857 N   0  0  0  0  0  0  0  0  0  0  0  0
  -29.7929  -19.9216   18.9877 N   0  0  0  0  0  0  0  0  0  0  0  0
  -21.3032  -29.4604   22.1456 N   0  0  0  0  0  0  0  0  0  0  0  0
  -26.6978  -28.0505   23.7213 N   0  0  0  0  0  0  0  0  0  0  0  0
  -28.1145  -24.7980   24.4155 N   0  3  0  0  0  0  0  0  0  0  0  0
  -30.3911  -12.1960   18.9303 O   0  0  0  0  0  0  0  0  0  0  0  0
  -22.4413  -30.7943   20.6133 O   0  0  0  0  0  0  0  0  0  0  0  0
  -28.9423  -24.4916   15.7302 O   0  0  0  0  0  0  0  0  0  0  0  0
  -24.1049  -28.3840   23.3183 O   0  0  0  0  0  0  0  0  0  0  0  0
  -28.1701  -26.7996   22.4389 O   0  0  0  0  0  0  0  0  0  0  0  0
  -29.0650  -21.5381   20.4839 O   0  0  0  0  0  0  0  0  0  0  0  0
  -25.4416   -9.1928   22.5949 O   0  0  0  0  0  0  0  0  0  0  0  0
  -27.3058  -26.3358   16.4713 O   0  0  0  0  0  0  0  0  0  1  0  0
  -20.7660   -8.6170   19.7294 F   0  0  0  0  0  0  0  0  0  0  0  0
  -24.9981   -6.9505   21.0399 F   0  0  0  0  0  0  0  0  0  0  0  0
  -31.8126  -21.4119   15.9546 S   0  0  0  0  0  0  0  0  0  0  0  0
  1  2  1  0  0  0  0
  1  5  2  0  0  0  0
  2  6  2  0  0  0  0
  3  8  2  0  0  0  0
  3 17  1  0  0  0  0
  4  9  1  0  0  0  0
  4 17  2  0  0  0  0
  5 19  1  0  0  0  0
  6 21  1  0  0  0  0
  7 10  2  0  0  0  0
  7 20  1  0  0  0  0
  8 24  1  0  0  0  0
  9 24  2  0  0  0  0
 10 25  1  0  0  0  0
 11 12  2  0  0  0  0
 11 26  1  0  0  0  0
 12 27  1  0  0  0  0
 13 22  1  0  0  0  0
 13 25  2  0  0  0  0
 14 23  1  0  0  0  0
 14 30  2  0  0  0  0
 15 27  2  0  0  0  0
 15 28  1  0  0  0  0
 16 23  2  0  0  0  0
 16 84  1  0  0  0  0
 17 29  1  0  0  0  0
 18 29  1  0  0  0  0
 18 31  2  0  0  0  0
 18 32  1  0  0  0  0
 19 21  2  0  0  0  0
 19 38  1  0  0  0  0
 20 22  2  0  0  0  0
 20 39  1  0  0  0  0
 21 50  1  0  0  0  0
 22 40  1  0  0  0  0
 23 70  1  0  0  0  0
 24 80  1  0  0  0  0
 25 81  1  0  0  0  0
 26 28  2  0  0  0  0
 26 80  1  0  0  0  0
 27 82  1  0  0  0  0
 28 83  1  0  0  0  0
 29 63  2  0  0  0  0
 30 51  1  0  0  0  0
 30 84  1  0  0  0  0
 31 64  1  0  0  0  0
 31 68  1  0  0  0  0
 32 69  1  0  0  0  0
 32 74  2  0  0  0  0
 33 52  1  0  0  0  0
 33 71  1  0  0  0  0
 33 75  2  0  0  0  0
 34 59  1  0  0  0  0
 34 66  1  0  0  0  0
 34 76  2  0  0  0  0
 35 60  1  0  0  0  0
 35 65  1  0  0  0  0
 35 77  2  0  0  0  0
 36 61  1  0  0  0  0
 36 72  1  0  0  0  0
 36 78  2  0  0  0  0
 37 67  1  0  0  0  0
 37 70  1  0  0  0  0
 37 79  2  0  0  0  0
 38 41  1  0  0  0  0
 39 52  1  0  0  0  0
 40 65  1  0  0  0  0
 41 44  1  0  0  0  0
 42 45  1  0  0  0  0
 42 47  1  0  0  0  0
 43 46  1  0  0  0  0
 43 48  1  0  0  0  0
 44 50  1  0  0  0  0
 45 51  1  0  0  0  0
 46 53  1  0  0  0  0
 47 66  1  0  0  0  0
 48 67  1  0  0  0  0
 49 53  1  0  0  0  0
 49 67  1  0  0  0  0
 50 71  1  0  0  0  0
 51 66  1  0  0  0  0
 52 65  1  0  0  0  0
 53 64  1  0  0  0  0
 54 61  1  0  0  0  0
 55 62  1  0  0  0  0
 56 62  1  0  0  0  0
 57 62  1  0  0  0  0
 58 73  1  0  0  0  0
 59 81  1  0  0  0  0
 60 62  1  0  0  0  0
 60 72  1  0  0  0  0
 61 73  1  0  0  0  0
 63 64  1  0  0  0  0
M  CHG  1  73   1
M  ISO  4  37 100  59 101  70 100  81 101
M  END
> <Batch ID>
0152

> <Smiles>
CNC(C)C(=O)NC(C(=O)N1Cc2cc([101O:1][101CH2:1]C(=O)N3CCCC3c3cc([100NH:0][100C:0](=O)N4CCCC(n5nc(-c6ccc(Oc7ccc(F)cc7F)cc6)c(C(N)=O)c5N)C4)cs3)ccc2CC1C(=O)NC1CCCc2ccccc21)C(C)(C)C

> <Shape>
0.273

> <Color>
0.075

> <Negative vol penalty>
0.000

$$$$

  -OEChem-04052303273D

 83 92  0     1  0  0  0  0  0999 V2000
  -28.1651  -34.1777   26.4503 C   0  0  0  0  0  0  0  0  0  0  0  0
  -28.4805  -33.0987   25.6307 C   0  0  0  0  0  0  0  0  0  0  0  0
  -26.2259  -19.1420   16.9176 C   0  0  0  0  0  0  0  0  0  0  0  0
  -24.2086   -9.6516   21.6095 C   0  0  0  0  0  0  0  0  0  0  0  0
  -23.2231  -11.0157   19.8760 C   0  0  0  0  0  0  0  0  0  0  0  0
  -26.8670  -34.3259   26.9370 C   0  0  0  0  0  0  0  0  0  0  0  0
  -27.4980  -32.1667   25.2982 C   0  0  0  0  0  0  0  0  0  0  0  0
  -26.9281  -29.1499   19.9991 C   0  0  0  0  0  0  0  0  0  0  0  0
  -26.6684  -20.3362   17.4865 C   0  0  0  0  0  0  0  0  0  0  0  0
  -26.7197  -17.9230   17.3823 C   0  0  0  0  0  0  0  0  0  0  0  0
  -22.9367   -9.3548   22.0991 C   0  0  0  0  0  0  0  0  0  0  0  0
  -21.9512  -10.7189   20.3655 C   0  0  0  0  0  0  0  0  0  0  0  0
  -27.3040  -27.8664   19.6053 C   0  0  0  0  0  0  0  0  0  0  0  0
  -20.3805   -7.2896   21.3028 C   0  0  0  0  0  0  0  0  0  0  0  0
  -20.1053   -5.9619   21.6295 C   0  0  0  0  0  0  0  0  0  0  0  0
  -25.0773  -27.0732   20.0870 C   0  0  0  0  0  0  0  0  0  0  0  0
  -28.0985  -19.0925   18.9848 C   0  0  0  0  0  0  0  0  0  0  0  0
  -19.6564   -6.6163   23.9114 C   0  0  0  0  0  0  0  0  0  0  0  0
  -24.3519  -10.4821   20.4980 C   0  0  0  0  0  0  0  0  0  0  0  0
  -26.3901  -10.0761   19.0186 C   0  0  0  0  0  0  0  0  0  0  0  0
  -25.8659  -33.4006   26.6024 C   0  0  0  0  0  0  0  0  0  0  0  0
  -25.6249  -29.4029   20.4509 C   0  0  0  0  0  0  0  0  0  0  0  0
  -26.1856  -32.3020   25.7819 C   0  0  0  0  0  0  0  0  0  0  0  0
  -24.6867  -28.3613   20.4835 C   0  0  0  0  0  0  0  0  0  0  0  0
  -27.6047  -20.3115   18.5201 C   0  0  0  0  0  0  0  0  0  0  0  0
  -27.6560  -17.8983   18.4159 C   0  0  0  0  0  0  0  0  0  0  0  0
  -21.8080   -9.8884   21.4771 C   0  0  0  0  0  0  0  0  0  0  0  0
  -26.3794  -26.8272   19.6520 C   0  0  0  0  0  0  0  0  0  0  0  0
  -20.2938   -8.2808   22.2805 C   0  0  0  0  0  0  0  0  0  0  0  0
  -19.7432   -5.6252   22.9338 C   0  0  0  0  0  0  0  0  0  0  0  0
  -19.9317   -7.9442   23.5848 C   0  0  0  0  0  0  0  0  0  0  0  0
  -25.6655  -10.7896   19.9922 C   0  0  0  0  0  0  0  0  0  0  0  0
  -27.5693  -10.7688   18.8921 C   0  0  0  0  0  0  0  0  0  0  0  0
  -28.2033  -23.7355   19.6555 C   0  0  0  0  0  0  0  0  0  0  0  0
  -27.7630  -24.9644   19.9458 C   0  0  0  0  0  0  0  0  0  1  0  0
  -26.0293   -8.8931   18.2934 C   0  0  0  0  0  0  0  0  0  0  0  0
  -24.3554  -30.4201   23.1816 C   0  0  0  0  0  0  0  0  0  0  0  0
  -21.6090  -30.4136   21.4554 C   0  0  0  0  0  0  0  0  0  0  0  0
  -19.8649  -29.1872   18.7906 C   0  0  0  0  0  0  0  0  0  0  0  0
  -29.0906  -16.4580   19.9039 C   0  0  0  0  0  0  0  0  0  0  0  0
  -24.4885  -33.5767   27.1911 C   0  0  0  0  0  0  0  0  0  0  0  0
  -25.2277  -30.7985   20.8467 C   0  0  0  0  0  0  0  0  0  0  0  0
  -23.2694  -28.5848   20.9414 C   0  0  0  0  0  0  0  0  0  0  0  0
  -29.3206  -23.0332   20.3600 C   0  0  0  0  0  0  0  0  0  0  0  0
  -27.5754  -22.8107   18.6566 C   0  0  0  0  0  0  0  0  0  0  0  0
  -23.4150  -32.7507   26.4871 C   0  0  0  0  0  0  0  0  0  0  0  0
  -30.5539  -13.5676   21.3808 C   0  0  0  0  0  0  0  0  0  0  0  0
  -23.8970  -31.3192   26.2741 C   0  0  0  0  0  0  0  0  0  0  0  0
  -29.5351  -12.4610   21.0984 C   0  0  0  0  0  0  0  0  0  0  0  0
  -28.9230  -21.5641   20.2472 C   0  0  0  0  0  0  0  0  0  0  0  0
  -29.8733  -14.9029   21.6770 C   0  0  0  0  0  0  0  0  0  0  0  0
  -27.8854  -14.2369   20.3831 C   0  0  0  0  0  0  0  0  0  0  0  0
  -25.1414  -31.2835   25.3788 C   0  0  1  0  0  0  0  0  0  0  0  0
  -24.0192  -30.8346   21.7771 C   0  0  1  0  0  0  0  0  0  0  0  0
  -28.5249  -12.8880   20.0155 C   0  0  2  0  0  0  0  0  0  0  0  0
  -17.6302  -29.3416   17.6593 C   0  0  0  0  0  0  0  0  0  0  0  0
  -20.3822  -28.6822   23.6479 C   0  0  0  0  0  0  0  0  0  0  0  0
  -18.5412  -28.0937   22.0565 C   0  0  0  0  0  0  0  0  0  0  0  0
  -18.8706  -30.4648   22.7579 C   0  0  0  0  0  0  0  0  0  0  0  0
  -21.0743  -30.1886   16.2819 C   0  0  0  0  0  0  0  0  0  0  0  0
  -20.5268  -29.3999   21.1720 C   0  0  1  0  0  0  0  0  0  0  0  0
  -19.0509  -29.8816   17.7138 C   0  0  2  0  0  0  0  0  0  0  0  0
  -19.6074  -29.1552   22.4017 C   0  0  0  0  0  0  0  0  0  0  0  0
  -26.3291  -11.8538   20.4517 N   0  0  0  0  0  0  0  0  0  0  0  0
  -27.4830  -11.8142   19.7639 N   0  0  0  0  0  0  0  0  0  0  0  0
  -28.0422  -21.4940   19.0837 N   0  0  3  0  0  0  0  0  0  0  0  0
  -22.9311  -29.9655   21.3242 N   0  0  0  0  0  0  0  0  0  0  0  0
  -28.9339  -15.2446   20.6066 N   0  0  0  0  0  0  0  0  0  0  0  0
  -28.6614  -10.5796   18.1214 N   0  0  0  0  0  0  0  0  0  0  0  0
  -24.7801   -8.3097   18.5455 N   0  0  0  0  0  0  0  0  0  0  0  0
  -28.1582  -16.6598   18.8867 N   0  0  0  0  0  0  0  0  0  0  0  0
  -24.7708  -31.4602   23.9910 N   0  0  0  0  0  0  0  0  0  0  0  0
  -19.8236  -29.8746   19.9852 N   0  0  0  0  0  0  0  0  0  0  0  0
  -19.6811  -29.6817   16.3782 N   0  3  0  0  0  0  0  0  0  0  0  0
  -26.7989   -8.3595   17.4588 O   0  0  0  0  0  0  0  0  0  0  0  0
  -24.2446  -29.2440   23.5074 O   0  0  0  0  0  0  0  0  0  0  0  0
  -21.2930  -31.5625   21.7741 O   0  0  0  0  0  0  0  0  0  0  0  0
  -20.4734  -28.1378   18.5929 O   0  0  0  0  0  0  0  0  0  0  0  0
  -30.0025  -17.2466   20.1658 O   0  0  0  0  0  0  0  0  0  0  0  0
  -20.5667   -9.5987   21.9544 O   0  0  0  0  0  0  0  0  0  0  0  0
  -26.7438  -25.5733   19.2689 O   0  0  0  0  0  0  0  0  0  1  0  0
  -19.4774   -4.3503   23.2470 F   0  0  0  0  0  0  0  0  0  0  0  0
  -19.8456   -8.8922   24.5280 F   0  0  0  0  0  0  0  0  0  0  0  0
  1  2  1  0  0  0  0
  1  6  2  0  0  0  0
  2  7  2  0  0  0  0
  3  9  2  0  0  0  0
  3 10  1  0  0  0  0
  4 11  2  0  0  0  0
  4 19  1  0  0  0  0
  5 12  1  0  0  0  0
  5 19  2  0  0  0  0
  6 21  1  0  0  0  0
  7 23  1  0  0  0  0
  8 13  2  0  0  0  0
  8 22  1  0  0  0  0
  9 25  1  0  0  0  0
 10 26  2  0  0  0  0
 11 27  1  0  0  0  0
 12 27  2  0  0  0  0
 13 28  1  0  0  0  0
 14 15  2  0  0  0  0
 14 29  1  0  0  0  0
 15 30  1  0  0  0  0
 16 24  1  0  0  0  0
 16 28  2  0  0  0  0
 17 25  2  0  0  0  0
 17 26  1  0  0  0  0
 18 30  2  0  0  0  0
 18 31  1  0  0  0  0
 19 32  1  0  0  0  0
 20 32  1  0  0  0  0
 20 33  2  0  0  0  0
 20 36  1  0  0  0  0
 21 23  2  0  0  0  0
 21 41  1  0  0  0  0
 22 24  2  0  0  0  0
 22 42  1  0  0  0  0
 23 53  1  0  0  0  0
 24 43  1  0  0  0  0
 25 66  1  0  0  0  0
 26 71  1  0  0  0  0
 27 80  1  0  0  0  0
 28 81  1  0  0  0  0
 29 31  2  0  0  0  0
 29 80  1  0  0  0  0
 30 82  1  0  0  0  0
 31 83  1  0  0  0  0
 32 64  2  0  0  0  0
 33 65  1  0  0  0  0
 33 69  1  0  0  0  0
 34 35  2  0  0  0  0
 34 44  1  0  0  0  0
 34 45  1  0  0  0  0
 35 81  1  0  0  0  0
 36 70  1  0  0  0  0
 36 75  2  0  0  0  0
 37 54  1  0  0  0  0
 37 72  1  0  0  0  0
 37 76  2  0  0  0  0
 38 61  1  0  0  0  0
 38 67  1  0  0  0  0
 38 77  2  0  0  0  0
 39 62  1  0  0  0  0
 39 73  1  0  0  0  0
 39 78  2  0  0  0  0
 40 68  1  0  0  0  0
 40 71  1  0  0  0  0
 40 79  2  0  0  0  0
 41 46  1  0  0  0  0
 42 54  1  0  0  0  0
 43 67  1  0  0  0  0
 44 50  1  0  0  0  0
 45 66  1  0  0  0  0
 46 48  1  0  0  0  0
 47 49  1  0  0  0  0
 47 51  1  0  0  0  0
 48 53  1  0  0  0  0
 49 55  1  0  0  0  0
 50 66  1  0  0  0  0
 51 68  1  0  0  0  0
 52 55  1  0  0  0  0
 52 68  1  0  0  0  0
 53 72  1  0  0  0  0
 54 67  1  0  0  0  0
 55 65  1  0  0  0  0
 56 62  1  0  0  0  0
 57 63  1  0  0  0  0
 58 63  1  0  0  0  0
 59 63  1  0  0  0  0
 60 74  1  0  0  0  0
 61 63  1  0  0  0  0
 61 73  1  0  0  0  0
 62 74  1  0  0  0  0
 64 65  1  0  0  0  0
M  CHG  1  74   1
M  ISO  4  35 101  40 100  71 100  81 101
M  END
> <Batch ID>
0152

> <Smiles>
CNC(C)C(=O)NC(C(=O)N1Cc2cc([101O:1][101CH:1]=C3CCN(c4cccc([100NH:0][100C:0](=O)N5CCCC(n6nc(-c7ccc(Oc8ccc(F)cc8F)cc7)c(C(N)=O)c6N)C5)c4)C3)ccc2CC1C(=O)NC1CCCc2ccccc21)C(C)(C)C

> <Shape>
0.291

> <Color>
0.079

> <Negative vol penalty>
0.000

$$$$

  -OEChem-04052303273D

 86 95  0     1  0  0  0  0  0999 V2000
  -26.7237  -35.5147   22.6888 C   0  0  0  0  0  0  0  0  0  0  0  0
  -27.1145  -34.2923   23.2258 C   0  0  0  0  0  0  0  0  0  0  0  0
  -23.1978   -9.7506   20.0346 C   0  0  0  0  0  0  0  0  0  0  0  0
  -23.8495   -9.9770   22.3500 C   0  0  0  0  0  0  0  0  0  0  0  0
  -25.6021  -35.5856   21.8636 C   0  0  0  0  0  0  0  0  0  0  0  0
  -26.3832  -33.1402   22.9390 C   0  0  0  0  0  0  0  0  0  0  0  0
  -28.5777  -27.4656   22.2396 C   0  0  0  0  0  0  0  0  0  0  0  0
  -22.4956   -8.5864   20.3460 C   0  0  0  0  0  0  0  0  0  0  0  0
  -23.1472   -8.8127   22.6615 C   0  0  0  0  0  0  0  0  0  0  0  0
  -28.6482  -26.3741   23.1041 C   0  0  0  0  0  0  0  0  0  0  0  0
  -19.5219   -7.7661   21.7306 C   0  0  0  0  0  0  0  0  0  0  0  0
  -18.2423   -7.6182   21.1956 C   0  0  0  0  0  0  0  0  0  0  0  0
  -31.3781  -18.9701   23.9563 C   0  0  0  0  0  0  0  0  0  0  0  0
  -29.4984  -17.8916   22.8884 C   0  0  0  0  0  0  0  0  0  0  0  0
  -26.6045  -25.5043   22.1629 C   0  0  0  0  0  0  0  0  0  0  0  0
  -31.7432  -17.1057   22.4637 C   0  0  0  0  0  0  0  0  0  0  0  0
  -18.9492   -5.6054   20.0615 C   0  0  0  0  0  0  0  0  0  0  0  0
  -23.8748  -10.4459   21.0366 C   0  0  0  0  0  0  0  0  0  0  0  0
  -30.0033  -18.8726   23.7418 C   0  0  0  0  0  0  0  0  0  0  0  0
  -24.1083  -12.9671   20.7253 C   0  0  0  0  0  0  0  0  0  0  0  0
  -24.8623  -34.4322   21.5587 C   0  0  0  0  0  0  0  0  0  0  0  0
  -27.5124  -27.5905   21.3363 C   0  0  0  0  0  0  0  0  0  0  0  0
  -25.2499  -33.1960   22.1100 C   0  0  0  0  0  0  0  0  0  0  0  0
  -26.5241  -26.5970   21.2862 C   0  0  0  0  0  0  0  0  0  0  0  0
  -32.2481  -18.0867   23.3171 C   0  0  0  0  0  0  0  0  0  0  0  0
  -30.3684  -17.0081   22.2493 C   0  0  0  0  0  0  0  0  0  0  0  0
  -22.4702   -8.1175   21.6594 C   0  0  0  0  0  0  0  0  0  0  0  0
  -27.6601  -25.3947   23.0678 C   0  0  0  0  0  0  0  0  0  0  0  0
  -20.5152   -6.8337   21.4311 C   0  0  0  0  0  0  0  0  0  0  0  0
  -17.9559   -6.5378   20.3611 C   0  0  0  0  0  0  0  0  0  0  0  0
  -20.2289   -5.7533   20.5966 C   0  0  0  0  0  0  0  0  0  0  0  0
  -24.6009  -11.6483   20.7154 C   0  0  0  0  0  0  0  0  0  0  0  0
  -25.1815  -13.7372   20.3489 C   0  0  0  0  0  0  0  0  0  0  0  0
  -27.8875  -21.9546   24.3526 C   0  0  0  0  0  0  0  0  0  0  0  0
  -29.0840  -19.8060   24.4170 C   0  0  0  0  0  0  0  0  0  0  0  0
  -22.7980  -13.4525   21.0462 C   0  0  0  0  0  0  0  0  0  0  0  0
  -25.1832  -29.7076   20.8936 C   0  0  0  0  0  0  0  0  0  0  0  0
  -24.5725  -27.9038   18.2676 C   0  0  0  0  0  0  0  0  0  0  0  0
  -24.8305  -24.8805   16.7055 C   0  0  0  0  0  0  0  0  0  0  0  0
  -30.5813  -15.0569   20.6702 C   0  0  0  0  0  0  0  0  0  0  0  0
  -23.6296  -34.5663   20.7001 C   0  0  0  0  0  0  0  0  0  0  0  0
  -27.4650  -28.7603   20.3920 C   0  0  0  0  0  0  0  0  0  0  0  0
  -25.3706  -26.6739   20.3209 C   0  0  0  0  0  0  0  0  0  0  0  0
  -23.1280  -33.2367   20.1426 C   0  0  0  0  0  0  0  0  0  0  0  0
  -29.6872  -12.4110   18.4617 C   0  0  0  0  0  0  0  0  0  0  0  0
  -23.0938  -32.1769   21.2391 C   0  0  0  0  0  0  0  0  0  0  0  0
  -28.2437  -12.0852   18.8520 C   0  0  0  0  0  0  0  0  0  0  0  0
  -29.0768  -22.8480   22.5155 C   0  0  0  0  0  0  0  0  0  0  0  0
  -30.5344  -12.7788   19.6785 C   0  0  0  0  0  0  0  0  0  0  0  0
  -29.2939  -21.3394   22.5104 C   0  0  0  0  0  0  0  0  0  0  0  0
  -28.5350  -13.5178   20.9135 C   0  0  0  0  0  0  0  0  0  0  0  0
  -24.4969  -31.9200   21.8021 C   0  0  1  0  0  0  0  0  0  0  0  0
  -27.7978  -23.0549   23.3258 C   0  0  2  0  0  0  0  0  0  1  0  0
  -26.0616  -29.0487   19.8680 C   0  0  1  0  0  0  0  0  0  0  0  0
  -27.6265  -13.2044   19.7135 C   0  0  2  0  0  0  0  0  0  0  0  0
  -24.2026  -23.7007   14.5815 C   0  0  0  0  0  0  0  0  0  0  0  0
  -21.6929  -27.6730   19.2498 C   0  0  0  0  0  0  0  0  0  0  0  0
  -21.3779  -25.7630   17.6621 C   0  0  0  0  0  0  0  0  0  0  0  0
  -21.9291  -28.0327   16.7863 C   0  0  0  0  0  0  0  0  0  0  0  0
  -27.6629  -24.3722   16.0141 C   0  0  0  0  0  0  0  0  0  0  0  0
  -23.7150  -26.6960   17.9761 C   0  0  1  0  0  0  0  0  0  0  0  0
  -25.2724  -24.5062   15.3023 C   0  0  2  0  0  0  0  0  0  0  0  0
  -22.1993  -27.0404   17.9382 C   0  0  0  0  0  0  0  0  0  0  0  0
  -25.8868  -11.5808   20.3606 N   0  0  0  0  0  0  0  0  0  0  0  0
  -26.2113  -12.8669   20.1440 N   0  0  0  0  0  0  0  0  0  0  0  0
  -28.7660  -20.9443   23.8269 N   0  0  0  0  0  0  0  0  0  0  0  0
  -25.3652  -27.8402   19.4224 N   0  0  0  0  0  0  0  0  0  0  0  0
  -29.8898  -13.8479   20.4442 N   0  0  0  0  0  0  0  0  0  0  0  0
  -33.6383  -18.1856   23.5335 N   0  0  0  0  0  0  0  0  0  0  0  0
  -25.3351  -15.0673   20.1764 N   0  0  0  0  0  0  0  0  0  0  0  0
  -21.8133  -12.5251   21.4132 N   0  0  0  0  0  0  0  0  0  0  0  0
  -29.8559  -16.0117   21.3820 N   0  0  0  0  0  0  0  0  0  0  0  0
  -25.2599  -31.0873   20.8971 N   0  0  0  0  0  0  0  0  0  0  0  0
  -24.2281  -26.1204   16.7376 N   0  0  0  0  0  0  0  0  0  0  0  0
  -28.5877  -19.4868   25.6086 N   0  3  0  0  0  0  0  0  0  0  0  0
  -26.5199  -23.6924   15.3519 N   0  3  0  0  0  0  0  0  0  0  0  0
  -27.3378  -21.8793   25.4363 O   0  0  0  0  0  0  0  0  0  0  0  0
  -22.5044  -14.6709   20.9927 O   0  0  0  0  0  0  0  0  0  0  0  0
  -24.4862  -29.0156   21.6264 O   0  0  0  0  0  0  0  0  0  0  0  0
  -24.5455  -28.8652   17.4953 O   0  0  0  0  0  0  0  0  0  0  0  0
  -24.9991  -24.1448   17.6755 O   0  0  0  0  0  0  0  0  0  0  0  0
  -31.7222  -15.2423   20.2389 O   0  0  0  0  0  0  0  0  0  0  0  0
  -21.7849   -6.9816   21.9637 O   0  0  0  0  0  0  0  0  0  0  0  0
  -27.7262  -24.3285   23.9109 O   0  0  0  0  0  0  0  0  0  1  0  0
  -16.7267   -6.3950   19.8485 F   0  0  0  0  0  0  0  0  0  0  0  0
  -21.1787   -4.8537   20.3062 F   0  0  0  0  0  0  0  0  0  0  0  0
  1  2  1  0  0  0  0
  1  5  2  0  0  0  0
  2  6  2  0  0  0  0
  3  8  2  0  0  0  0
  3 18  1  0  0  0  0
  4  9  1  0  0  0  0
  4 18  2  0  0  0  0
  5 21  1  0  0  0  0
  6 23  1  0  0  0  0
  7 10  2  0  0  0  0
  7 22  1  0  0  0  0
  8 27  1  0  0  0  0
  9 27  2  0  0  0  0
 10 28  1  0  0  0  0
 11 12  2  0  0  0  0
 11 29  1  0  0  0  0
 12 30  1  0  0  0  0
 13 19  1  0  0  0  0
 13 25  2  0  0  0  0
 14 19  2  0  0  0  0
 14 26  1  0  0  0  0
 15 24  1  0  0  0  0
 15 28  2  0  0  0  0
 16 25  1  0  0  0  0
 16 26  2  0  0  0  0
 17 30  2  0  0  0  0
 17 31  1  0  0  0  0
 18 32  1  0  0  0  0
 19 35  1  0  0  0  0
 20 32  1  0  0  0  0
 20 33  2  0  0  0  0
 20 36  1  0  0  0  0
 21 23  2  0  0  0  0
 21 41  1  0  0  0  0
 22 24  2  0  0  0  0
 22 42  1  0  0  0  0
 23 52  1  0  0  0  0
 24 43  1  0  0  0  0
 25 69  1  0  0  0  0
 26 72  1  0  0  0  0
 27 83  1  0  0  0  0
 28 84  1  0  0  0  0
 29 31  2  0  0  0  0
 29 83  1  0  0  0  0
 30 85  1  0  0  0  0
 31 86  1  0  0  0  0
 32 64  2  0  0  0  0
 33 65  1  0  0  0  0
 33 70  1  0  0  0  0
 34 53  1  0  0  0  0
 34 66  1  0  0  0  0
 34 77  2  0  0  0  0
 35 66  1  0  0  0  0
 35 75  2  0  0  0  0
 36 71  1  0  0  0  0
 36 78  2  0  0  0  0
 37 54  1  0  0  0  0
 37 73  1  0  0  0  0
 37 79  2  0  0  0  0
 38 61  1  0  0  0  0
 38 67  1  0  0  0  0
 38 80  2  0  0  0  0
 39 62  1  0  0  0  0
 39 74  1  0  0  0  0
 39 81  2  0  0  0  0
 40 68  1  0  0  0  0
 40 72  1  0  0  0  0
 40 82  2  0  0  0  0
 41 44  1  0  0  0  0
 42 54  1  0  0  0  0
 43 67  1  0  0  0  0
 44 46  1  0  0  0  0
 45 47  1  0  0  0  0
 45 49  1  0  0  0  0
 46 52  1  0  0  0  0
 47 55  1  0  0  0  0
 48 50  1  0  0  0  0
 48 53  1  0  0  0  0
 49 68  1  0  0  0  0
 50 66  1  0  0  0  0
 51 55  1  0  0  0  0
 51 68  1  0  0  0  0
 52 73  1  0  0  0  0
 53 84  1  0  0  0  0
 54 67  1  0  0  0  0
 55 65  1  0  0  0  0
 56 62  1  0  0  0  0
 57 63  1  0  0  0  0
 58 63  1  0  0  0  0
 59 63  1  0  0  0  0
 60 76  1  0  0  0  0
 61 63  1  0  0  0  0
 61 74  1  0  0  0  0
 62 76  1  0  0  0  0
 64 65  1  0  0  0  0
M  CHG  2  75   1  76   1
M  ISO  4  40 100  53 101  72 100  84 101
M  END
> <Batch ID>
0152

> <Smiles>
CNC(C)C(=O)NC(C(=O)N1Cc2cc([101O:1][101CH:1]3CCN(C(=N)c4cc(N)cc([100NH:0][100C:0](=O)N5CCCC(n6nc(-c7ccc(Oc8ccc(F)cc8F)cc7)c(C(N)=O)c6N)C5)c4)C3=O)ccc2CC1C(=O)NC1CCCc2ccccc21)C(C)(C)C

> <Shape>
0.243

> <Color>
0.186

> <Negative vol penalty>
0.000

$$$$

  -OEChem-04052303273D

 84 93  0     1  0  0  0  0  0999 V2000
  -28.3690  -34.9200   16.2913 C   0  0  0  0  0  0  0  0  0  0  0  0
  -28.6173  -33.5549   16.1894 C   0  0  0  0  0  0  0  0  0  0  0  0
  -23.9642  -10.6133   23.3541 C   0  0  0  0  0  0  0  0  0  0  0  0
  -24.2390  -12.8136   24.3132 C   0  0  0  0  0  0  0  0  0  0  0  0
  -28.1253  -35.4918   17.5393 C   0  0  0  0  0  0  0  0  0  0  0  0
  -28.6231  -32.7610   17.3357 C   0  0  0  0  0  0  0  0  0  0  0  0
  -32.3955  -17.4980   20.6615 C   0  0  0  0  0  0  0  0  0  0  0  0
  -26.7453  -26.9503   17.7992 C   0  0  0  0  0  0  0  0  0  0  0  0
  -32.3669  -18.7917   20.1351 C   0  0  0  0  0  0  0  0  0  0  0  0
  -23.4606  -10.1469   24.5683 C   0  0  0  0  0  0  0  0  0  0  0  0
  -23.7353  -12.3472   25.5275 C   0  0  0  0  0  0  0  0  0  0  0  0
  -27.4345  -25.7384   17.7921 C   0  0  0  0  0  0  0  0  0  0  0  0
  -20.5367  -10.2655   26.2625 C   0  0  0  0  0  0  0  0  0  0  0  0
  -19.3938   -9.4668   26.2262 C   0  0  0  0  0  0  0  0  0  0  0  0
  -29.9366  -18.7182   19.9553 C   0  0  0  0  0  0  0  0  0  0  0  0
  -27.4444  -25.7367   20.2044 C   0  0  0  0  0  0  0  0  0  0  0  0
  -20.6187   -7.6665   27.2731 C   0  0  0  0  0  0  0  0  0  0  0  0
  -24.3535  -11.9467   23.2266 C   0  0  0  0  0  0  0  0  0  0  0  0
  -24.1434  -12.9854   20.9061 C   0  0  0  0  0  0  0  0  0  0  0  0
  -28.1187  -34.7028   18.7004 C   0  0  0  0  0  0  0  0  0  0  0  0
  -26.4095  -27.5710   19.0110 C   0  0  0  0  0  0  0  0  0  0  0  0
  -28.3805  -33.3230   18.6006 C   0  0  0  0  0  0  0  0  0  0  0  0
  -31.1894  -16.8532   20.8177 C   0  0  0  0  0  0  0  0  0  0  0  0
  -29.9974  -17.4466   20.4754 C   0  0  0  0  0  0  0  0  0  0  0  0
  -26.7487  -26.9552   20.2242 C   0  0  0  0  0  0  0  0  0  0  0  0
  -31.1453  -19.3978   19.7841 C   0  0  0  0  0  0  0  0  0  0  0  0
  -23.3461  -11.0138   25.6550 C   0  0  0  0  0  0  0  0  0  0  0  0
  -27.7868  -25.1328   18.9947 C   0  0  0  0  0  0  0  0  0  0  0  0
  -21.7207   -9.7647   26.8040 C   0  0  0  0  0  0  0  0  0  0  0  0
  -19.4347   -8.1673   26.7315 C   0  0  0  0  0  0  0  0  0  0  0  0
  -21.7616   -8.4652   27.3093 C   0  0  0  0  0  0  0  0  0  0  0  0
  -24.8745  -12.4289   21.9727 C   0  0  0  0  0  0  0  0  0  0  0  0
  -25.0915  -13.2814   19.9575 C   0  0  0  0  0  0  0  0  0  0  0  0
  -22.7333  -13.2143   20.7838 C   0  0  0  0  0  0  0  0  0  0  0  0
  -30.9880  -14.3862   20.4122 C   0  0  0  0  0  0  0  0  0  0  0  0
  -27.1427  -30.3382   20.3926 C   0  0  0  0  0  0  0  0  0  0  0  0
  -24.9648  -29.3705   22.5933 C   0  0  0  0  0  0  0  0  0  0  0  0
  -30.0419  -21.4617   18.8530 C   0  0  0  0  0  0  0  0  0  0  0  0
  -23.2978  -26.7899   24.0794 C   0  0  0  0  0  0  0  0  0  0  0  0
  -27.8970  -35.3739   20.0328 C   0  0  0  0  0  0  0  0  0  0  0  0
  -25.6424  -28.8648   19.0018 C   0  0  0  0  0  0  0  0  0  0  0  0
  -29.1720  -16.2619   20.8853 C   0  0  0  0  0  0  0  0  0  0  0  0
  -26.3937  -27.5704   21.5523 C   0  0  0  0  0  0  0  0  0  0  0  0
  -27.5502  -34.3994   21.1554 C   0  0  0  0  0  0  0  0  0  0  0  0
  -29.3778  -11.8918   18.3734 C   0  0  0  0  0  0  0  0  0  0  0  0
  -28.4953  -33.2022   21.1340 C   0  0  0  0  0  0  0  0  0  0  0  0
  -27.9850  -11.7747   18.9910 C   0  0  0  0  0  0  0  0  0  0  0  0
  -30.4380  -12.1689   19.4347 C   0  0  0  0  0  0  0  0  0  0  0  0
  -28.7602  -13.2594   20.8935 C   0  0  0  0  0  0  0  0  0  0  0  0
  -28.3707  -32.4245   19.8183 C   0  0  1  0  0  0  0  0  0  0  0  0
  -25.8036  -29.6642   20.2911 C   0  0  1  0  0  0  0  0  0  0  0  0
  -27.6570  -13.0084   19.8504 C   0  0  2  0  0  0  0  0  0  0  0  0
  -30.5393  -15.5707   21.2824 C   0  0  2  0  0  0  0  0  0  0  0  0
  -30.7043  -15.3093   22.7743 C   0  0  0  0  0  0  0  0  0  0  0  0
  -21.6092  -26.3079   25.8720 C   0  0  0  0  0  0  0  0  0  0  0  0
  -27.0993  -29.8310   24.7244 C   0  0  0  0  0  0  0  0  0  0  0  0
  -25.7173  -28.4662   26.3042 C   0  0  0  0  0  0  0  0  0  0  0  0
  -24.8042  -30.5895   25.3657 C   0  0  0  0  0  0  0  0  0  0  0  0
  -21.4076  -25.5967   22.1397 C   0  0  0  0  0  0  0  0  0  0  0  0
  -30.4861  -22.8263   18.3389 C   0  0  0  0  0  0  0  0  0  0  0  0
  -29.3267  -23.7002   17.8848 C   0  0  0  0  0  0  0  0  0  1  0  0
  -25.0191  -28.5639   23.8682 C   0  0  1  0  0  0  0  0  0  0  0  0
  -21.8262  -26.5892   24.3933 C   0  0  2  0  0  0  0  0  0  0  0  0
  -25.6685  -29.3518   25.0407 C   0  0  0  0  0  0  0  0  0  0  0  0
  -26.1859  -12.3735   21.7254 N   0  0  0  0  0  0  0  0  0  0  0  0
  -26.2863  -12.8988   20.4925 N   0  0  0  0  0  0  0  0  0  0  0  0
  -30.0781  -13.3298   20.2507 N   0  0  0  0  0  0  0  0  0  0  0  0
  -25.6490  -28.8389   21.4909 N   0  0  0  0  0  0  0  0  0  0  0  0
  -25.0114  -13.8289   18.7261 N   0  0  0  0  0  0  0  0  0  0  0  0
  -21.9023  -12.8514   21.8525 N   0  0  0  0  0  0  0  0  0  0  0  0
  -31.1432  -20.7095   19.2528 N   0  0  0  0  0  0  0  0  0  0  0  0
  -27.1818  -31.5994   19.8295 N   0  0  0  0  0  0  0  0  0  0  0  0
  -23.6538  -28.1210   24.1295 N   0  0  0  0  0  0  0  0  0  0  0  0
  -21.2816  -25.4430   23.6120 N   0  3  0  0  0  0  0  0  0  0  0  0
  -22.2234  -13.7104   19.7507 O   0  0  0  0  0  0  0  0  0  0  0  0
  -32.1106  -14.3853   19.8845 O   0  0  0  0  0  0  0  0  0  0  0  0
  -28.0712  -29.7575   20.9424 O   0  0  0  0  0  0  0  0  0  0  0  0
  -24.3326  -30.4295   22.5741 O   0  0  0  0  0  0  0  0  0  0  0  0
  -28.8619  -21.1287   18.8852 O   0  0  0  0  0  0  0  0  0  0  0  0
  -24.0566  -25.8586   23.8196 O   0  0  0  0  0  0  0  0  0  0  0  0
  -22.8544  -10.5591   26.8399 O   0  0  0  0  0  0  0  0  0  0  0  0
  -28.4601  -23.9503   18.9906 O   0  0  0  0  0  0  0  0  0  1  0  0
  -18.3367   -7.4009   26.6981 F   0  0  0  0  0  0  0  0  0  0  0  0
  -22.8958   -7.9790   27.8318 F   0  0  0  0  0  0  0  0  0  0  0  0
  1  2  1  0  0  0  0
  1  5  2  0  0  0  0
  2  6  2  0  0  0  0
  3 10  2  0  0  0  0
  3 18  1  0  0  0  0
  4 11  1  0  0  0  0
  4 18  2  0  0  0  0
  5 20  1  0  0  0  0
  6 22  1  0  0  0  0
  7  9  2  0  0  0  0
  7 23  1  0  0  0  0
  8 12  2  0  0  0  0
  8 21  1  0  0  0  0
  9 26  1  0  0  0  0
 10 27  1  0  0  0  0
 11 27  2  0  0  0  0
 12 28  1  0  0  0  0
 13 14  2  0  0  0  0
 13 29  1  0  0  0  0
 14 30  1  0  0  0  0
 15 24  1  0  0  0  0
 15 26  2  0  0  0  0
 16 25  1  0  0  0  0
 16 28  2  0  0  0  0
 17 30  2  0  0  0  0
 17 31  1  0  0  0  0
 18 32  1  0  0  0  0
 19 32  1  0  0  0  0
 19 33  2  0  0  0  0
 19 34  1  0  0  0  0
 20 22  2  0  0  0  0
 20 40  1  0  0  0  0
 21 25  2  0  0  0  0
 21 41  1  0  0  0  0
 22 50  1  0  0  0  0
 23 24  2  0  0  0  0
 23 53  1  0  0  0  0
 24 42  1  0  0  0  0
 25 43  1  0  0  0  0
 26 71  1  0  0  0  0
 27 81  1  0  0  0  0
 28 82  1  0  0  0  0
 29 31  2  0  0  0  0
 29 81  1  0  0  0  0
 30 83  1  0  0  0  0
 31 84  1  0  0  0  0
 32 65  2  0  0  0  0
 33 66  1  0  0  0  0
 33 69  1  0  0  0  0
 34 70  1  0  0  0  0
 34 75  2  0  0  0  0
 35 53  1  0  0  0  0
 35 67  1  0  0  0  0
 35 76  2  0  0  0  0
 36 51  1  0  0  0  0
 36 72  1  0  0  0  0
 36 77  2  0  0  0  0
 37 62  1  0  0  0  0
 37 68  1  0  0  0  0
 37 78  2  0  0  0  0
 38 60  1  0  0  0  0
 38 71  1  0  0  0  0
 38 79  2  0  0  0  0
 39 63  1  0  0  0  0
 39 73  1  0  0  0  0
 39 80  2  0  0  0  0
 40 44  1  0  0  0  0
 41 51  1  0  0  0  0
 42 53  1  0  0  0  0
 43 68  1  0  0  0  0
 44 46  1  0  0  0  0
 45 47  1  0  0  0  0
 45 48  1  0  0  0  0
 46 50  1  0  0  0  0
 47 52  1  0  0  0  0
 48 67  1  0  0  0  0
 49 52  1  0  0  0  0
 49 67  1  0  0  0  0
 50 72  1  0  0  0  0
 51 68  1  0  0  0  0
 52 66  1  0  0  0  0
 53 54  1  0  0  0  0
 55 63  1  0  0  0  0
 56 64  1  0  0  0  0
 57 64  1  0  0  0  0
 58 64  1  0  0  0  0
 59 74  1  0  0  0  0
 60 61  1  0  0  0  0
 61 82  1  0  0  0  0
 62 64  1  0  0  0  0
 62 73  1  0  0  0  0
 63 74  1  0  0  0  0
 65 66  1  0  0  0  0
M  CHG  1  74   1
M  ISO  4  35 100  53 100  61 101  82 101
M  END
> <Batch ID>
0152

> <Smiles>
CNC(C)C(=O)NC(C(=O)N1Cc2cc([101O:1][101CH2:1]CC(=O)Nc3ccc4c(c3)C[100C:0]4(C)[100C:0](=O)N3CCCC(n4nc(-c5ccc(Oc6ccc(F)cc6F)cc5)c(C(N)=O)c4N)C3)ccc2CC1C(=O)NC1CCCc2ccccc21)C(C)(C)C

> <Shape>
0.226

> <Color>
0.108

> <Negative vol penalty>
0.000

$$$$

  -OEChem-04052303273D

 86 95  0     1  0  0  0  0  0999 V2000
  -17.2338  -29.7568   23.8640 C   0  0  0  0  0  0  0  0  0  0  0  0
  -18.4881  -30.3347   23.6964 C   0  0  0  0  0  0  0  0  0  0  0  0
  -26.6679  -12.9579   21.1544 C   0  0  0  0  0  0  0  0  0  0  0  0
  -26.6111  -13.3894   18.7779 C   0  0  0  0  0  0  0  0  0  0  0  0
  -17.0700  -28.3842   23.6824 C   0  0  0  0  0  0  0  0  0  0  0  0
  -19.5797  -29.5400   23.3481 C   0  0  0  0  0  0  0  0  0  0  0  0
  -25.6841  -29.7690   19.6062 C   0  0  0  0  0  0  0  0  0  0  0  0
  -30.7264  -22.2972   18.3249 C   0  0  0  0  0  0  0  0  0  0  0  0
  -26.0756  -11.7130   20.9426 C   0  0  0  0  0  0  0  0  0  0  0  0
  -26.0188  -12.1445   18.5661 C   0  0  0  0  0  0  0  0  0  0  0  0
  -27.0460  -29.5079   19.7501 C   0  0  0  0  0  0  0  0  0  0  0  0
  -24.2490   -8.5709   21.0614 C   0  0  0  0  0  0  0  0  0  0  0  0
  -31.8365  -23.1395   18.3860 C   0  0  0  0  0  0  0  0  0  0  0  0
  -23.2044   -8.1958   21.9062 C   0  0  0  0  0  0  0  0  0  0  0  0
  -26.6284  -27.1603   19.3850 C   0  0  0  0  0  0  0  0  0  0  0  0
  -29.5238  -23.7742   19.8113 C   0  0  0  0  0  0  0  0  0  0  0  0
  -21.9328  -10.1207   21.1884 C   0  0  0  0  0  0  0  0  0  0  0  0
  -26.9357  -13.7962   20.0721 C   0  0  0  0  0  0  0  0  0  0  0  0
  -28.9235  -15.3770   20.3107 C   0  0  0  0  0  0  0  0  0  0  0  0
  -18.1582  -27.5737   23.3222 C   0  0  0  0  0  0  0  0  0  0  0  0
  -24.7811  -28.7245   19.3611 C   0  0  0  0  0  0  0  0  0  0  0  0
  -19.4306  -28.1550   23.1628 C   0  0  0  0  0  0  0  0  0  0  0  0
  -25.2558  -27.4111   19.2359 C   0  0  0  0  0  0  0  0  0  0  0  0
  -30.6340  -24.6166   19.8724 C   0  0  0  0  0  0  0  0  0  0  0  0
  -29.5700  -22.6146   19.0375 C   0  0  0  0  0  0  0  0  0  0  0  0
  -25.7510  -11.3063   19.6484 C   0  0  0  0  0  0  0  0  0  0  0  0
  -27.5180  -28.2030   19.6424 C   0  0  0  0  0  0  0  0  0  0  0  0
  -24.1355   -9.7209   20.2801 C   0  0  0  0  0  0  0  0  0  0  0  0
  -22.0463   -8.9707   21.9697 C   0  0  0  0  0  0  0  0  0  0  0  0
  -31.7903  -24.2992   19.1598 C   0  0  0  0  0  0  0  0  0  0  0  0
  -22.9774  -10.4957   20.3436 C   0  0  0  0  0  0  0  0  0  0  0  0
  -27.5471  -15.0825   20.2903 C   0  0  0  0  0  0  0  0  0  0  0  0
  -28.9821  -16.7276   20.5537 C   0  0  0  0  0  0  0  0  0  0  0  0
  -30.0486  -14.5076   20.1264 C   0  0  0  0  0  0  0  0  0  0  0  0
  -22.2857  -27.5070   20.9085 C   0  0  0  0  0  0  0  0  0  0  0  0
  -21.9768  -25.7284   18.2135 C   0  0  0  0  0  0  0  0  0  0  0  0
  -23.4537  -24.3734   15.4513 C   0  0  0  0  0  0  0  0  0  0  0  0
  -27.2180  -21.9256   19.6201 C   0  0  0  0  0  0  0  0  0  0  0  0
  -17.9419  -26.0876   23.1832 C   0  0  0  0  0  0  0  0  0  0  0  0
  -23.3185  -29.0262   19.1818 C   0  0  0  0  0  0  0  0  0  0  0  0
  -24.3303  -26.2569   18.9532 C   0  0  0  0  0  0  0  0  0  0  0  0
  -19.0734  -25.3735   22.4482 C   0  0  0  0  0  0  0  0  0  0  0  0
  -25.3685  -19.9812   21.9602 C   0  0  0  0  0  0  0  0  0  0  0  0
  -20.4277  -25.8270   22.9839 C   0  0  0  0  0  0  0  0  0  0  0  0
  -25.8837  -18.5576   21.7360 C   0  0  0  0  0  0  0  0  0  0  0  0
  -30.2776  -27.2011   22.4752 C   0  0  0  0  0  0  0  0  0  0  0  0
  -25.2783  -20.7642   20.6516 C   0  0  0  0  0  0  0  0  0  0  0  0
  -29.7835  -25.8992   21.8508 C   0  0  0  0  0  0  0  0  0  0  0  0
  -27.0261  -19.3607   19.6297 C   0  0  0  0  0  0  0  0  0  0  0  0
  -31.3336  -26.9813   20.3355 C   0  0  0  0  0  0  0  0  0  0  0  0
  -20.6340  -27.3301   22.7609 C   0  0  1  0  0  0  0  0  0  0  0  0
  -22.4228  -27.8196   19.4453 C   0  0  1  0  0  0  0  0  0  0  0  0
  -27.1957  -18.5539   20.9273 C   0  0  2  0  0  0  0  0  0  0  0  0
  -30.7387  -28.0357   21.2805 C   0  0  1  0  0  0  0  0  0  0  0  0
  -22.9542  -22.9375   13.4548 C   0  0  0  0  0  0  0  0  0  0  0  0
  -21.9730  -23.2531   19.9976 C   0  0  0  0  0  0  0  0  0  0  0  0
  -22.4297  -21.8702   17.9611 C   0  0  0  0  0  0  0  0  0  0  0  0
  -20.3192  -23.1902   18.1226 C   0  0  0  0  0  0  0  0  0  0  0  0
  -24.1827  -26.5367   13.5679 C   0  0  0  0  0  0  0  0  0  0  0  0
  -31.2444  -29.8289   22.7030 C   0  0  0  0  0  0  0  0  0  0  0  0
  -29.5895  -28.8124   20.6391 C   0  0  0  0  0  0  0  0  0  1  0  0
  -22.5093  -24.3957   17.7452 C   0  0  1  0  0  0  0  0  0  0  0  0
  -23.0372  -24.3580   13.9916 C   0  0  2  0  0  0  0  0  0  0  0  0
  -21.8253  -23.1985   18.4639 C   0  0  0  0  0  0  0  0  0  0  0  0
  -26.7861  -16.1593   20.5035 N   0  0  0  0  0  0  0  0  0  0  0  0
  -27.6876  -17.1436   20.6603 N   0  0  0  0  0  0  0  0  0  0  0  0
  -30.5864  -25.7620   20.6391 N   0  0  3  0  0  0  0  0  0  0  0  0
  -22.9082  -26.6021   18.7922 N   0  0  0  0  0  0  0  0  0  0  0  0
  -26.5587  -20.7204   19.9420 N   0  0  0  0  0  0  0  0  0  0  0  0
  -30.0141  -17.5880   20.6845 N   0  0  0  0  0  0  0  0  0  0  0  0
  -29.8097  -13.1476   19.8860 N   0  0  0  0  0  0  0  0  0  0  0  0
  -28.4428  -21.7583   18.9750 N   0  0  0  0  0  0  0  0  0  0  0  0
  -20.9907  -27.5923   21.3831 N   0  0  0  0  0  0  0  0  0  0  0  0
  -22.3622  -24.3845   16.2938 N   0  0  0  0  0  0  0  0  0  0  0  0
  -24.0183  -25.1163   13.1650 N   0  3  0  0  0  0  0  0  0  0  0  0
  -31.2311  -14.9213   20.1899 O   0  0  0  0  0  0  0  0  0  0  0  0
  -23.2809  -27.2091   21.5585 O   0  0  0  0  0  0  0  0  0  0  0  0
  -20.7800  -25.9875   18.0645 O   0  0  0  0  0  0  0  0  0  0  0  0
  -24.6297  -24.3717   15.8085 O   0  0  0  0  0  0  0  0  0  0  0  0
  -26.7447  -23.0245   19.9207 O   0  0  0  0  0  0  0  0  0  0  0  0
  -25.1732  -10.0915   19.4413 O   0  0  0  0  0  0  0  0  0  0  0  0
  -28.8468  -27.9453   19.7830 O   0  0  0  0  0  0  0  0  0  1  0  0
  -31.7384  -28.9524   21.7028 O   0  0  0  0  0  0  0  0  0  0  0  0
  -21.0426   -8.6096   22.7799 F   0  0  0  0  0  0  0  0  0  0  0  0
  -32.8637  -25.1006   19.2131 F   0  0  0  0  0  0  0  0  0  0  0  0
  -22.8622  -11.6009   19.5946 F   0  0  0  0  0  0  0  0  0  0  0  0
  1  2  1  0  0  0  0
  1  5  2  0  0  0  0
  2  6  2  0  0  0  0
  3  9  2  0  0  0  0
  3 18  1  0  0  0  0
  4 10  1  0  0  0  0
  4 18  2  0  0  0  0
  5 20  1  0  0  0  0
  6 22  1  0  0  0  0
  7 11  2  0  0  0  0
  7 21  1  0  0  0  0
  8 13  2  0  0  0  0
  8 25  1  0  0  0  0
  9 26  1  0  0  0  0
 10 26  2  0  0  0  0
 11 27  1  0  0  0  0
 12 14  2  0  0  0  0
 12 28  1  0  0  0  0
 13 30  1  0  0  0  0
 14 29  1  0  0  0  0
 15 23  1  0  0  0  0
 15 27  2  0  0  0  0
 16 24  1  0  0  0  0
 16 25  2  0  0  0  0
 17 29  2  0  0  0  0
 17 31  1  0  0  0  0
 18 32  1  0  0  0  0
 19 32  1  0  0  0  0
 19 33  2  0  0  0  0
 19 34  1  0  0  0  0
 20 22  2  0  0  0  0
 20 39  1  0  0  0  0
 21 23  2  0  0  0  0
 21 40  1  0  0  0  0
 22 51  1  0  0  0  0
 23 41  1  0  0  0  0
 24 30  2  0  0  0  0
 24 67  1  0  0  0  0
 25 72  1  0  0  0  0
 26 81  1  0  0  0  0
 27 82  1  0  0  0  0
 28 31  2  0  0  0  0
 28 81  1  0  0  0  0
 29 84  1  0  0  0  0
 30 85  1  0  0  0  0
 31 86  1  0  0  0  0
 32 65  2  0  0  0  0
 33 66  1  0  0  0  0
 33 70  1  0  0  0  0
 34 71  1  0  0  0  0
 34 76  2  0  0  0  0
 35 52  1  0  0  0  0
 35 73  1  0  0  0  0
 35 77  2  0  0  0  0
 36 62  1  0  0  0  0
 36 68  1  0  0  0  0
 36 78  2  0  0  0  0
 37 63  1  0  0  0  0
 37 74  1  0  0  0  0
 37 79  2  0  0  0  0
 38 69  1  0  0  0  0
 38 72  1  0  0  0  0
 38 80  2  0  0  0  0
 39 42  1  0  0  0  0
 40 52  1  0  0  0  0
 41 68  1  0  0  0  0
 42 44  1  0  0  0  0
 43 45  1  0  0  0  0
 43 47  1  0  0  0  0
 44 51  1  0  0  0  0
 45 53  1  0  0  0  0
 46 48  1  0  0  0  0
 46 54  1  0  0  0  0
 47 69  1  0  0  0  0
 48 67  1  0  0  0  0
 49 53  1  0  0  0  0
 49 69  1  0  0  0  0
 50 54  1  0  0  0  0
 50 67  1  0  0  0  0
 51 73  1  0  0  0  0
 52 68  1  0  0  0  0
 53 66  1  0  0  0  0
 54 61  1  0  0  0  0
 54 83  1  0  0  0  0
 55 63  1  0  0  0  0
 56 64  1  0  0  0  0
 57 64  1  0  0  0  0
 58 64  1  0  0  0  0
 59 75  1  0  0  0  0
 60 83  1  0  0  0  0
 61 82  1  0  0  0  0
 62 64  1  0  0  0  0
 62 74  1  0  0  0  0
 63 75  1  0  0  0  0
 65 66  1  0  0  0  0
M  CHG  1  75   1
M  ISO  4  38 100  61 101  72 100  82 101
M  END
> <Batch ID>
0152

> <Smiles>
CNC(C)C(=O)NC(C(=O)N1Cc2cc([101O:1][101CH2:1]C3(OC)CCN(c4cc([100NH:0][100C:0](=O)N5CCCC(n6nc(-c7ccc(Oc8ccc(F)cc8F)cc7)c(C(N)=O)c6N)C5)ccc4F)C3)ccc2CC1C(=O)NC1CCCc2ccccc21)C(C)(C)C

> <Shape>
0.274

> <Color>
0.083

> <Negative vol penalty>
0.000

$$$$

  -OEChem-04052303273D

 85 94  0     1  0  0  0  0  0999 V2000
  -20.4140  -34.4994   20.8512 C   0  0  0  0  0  0  0  0  0  0  0  0
  -21.5852  -33.8407   20.4909 C   0  0  0  0  0  0  0  0  0  0  0  0
  -25.5259  -13.5118   22.0809 C   0  0  0  0  0  0  0  0  0  0  0  0
  -25.9551  -14.0874   19.7741 C   0  0  0  0  0  0  0  0  0  0  0  0
  -19.6911  -34.0745   21.9652 C   0  0  0  0  0  0  0  0  0  0  0  0
  -22.0348  -32.7574   21.2451 C   0  0  0  0  0  0  0  0  0  0  0  0
  -29.4115  -22.2750   16.7904 C   0  0  0  0  0  0  0  0  0  0  0  0
  -24.9282  -27.7747   19.1698 C   0  0  0  0  0  0  0  0  0  0  0  0
  -28.5993  -21.6276   17.7205 C   0  0  0  0  0  0  0  0  0  0  0  0
  -24.5533  -12.5994   21.6724 C   0  0  0  0  0  0  0  0  0  0  0  0
  -24.9824  -13.1749   19.3655 C   0  0  0  0  0  0  0  0  0  0  0  0
  -26.2763  -27.4216   19.1291 C   0  0  0  0  0  0  0  0  0  0  0  0
  -24.4528   -9.4671   20.4029 C   0  0  0  0  0  0  0  0  0  0  0  0
  -24.4535   -8.2074   21.0018 C   0  0  0  0  0  0  0  0  0  0  0  0
  -26.0089  -26.1876   21.1846 C   0  0  0  0  0  0  0  0  0  0  0  0
  -29.1439  -23.2929   19.4117 C   0  0  0  0  0  0  0  0  0  0  0  0
  -22.2124   -8.5940   21.8174 C   0  0  0  0  0  0  0  0  0  0  0  0
  -26.2268  -14.2559   21.1318 C   0  0  0  0  0  0  0  0  0  0  0  0
  -28.6034  -14.9502   21.7462 C   0  0  0  0  0  0  0  0  0  0  0  0
  -20.1269  -32.9794   22.7277 C   0  0  0  0  0  0  0  0  0  0  0  0
  -24.1115  -27.3452   20.2257 C   0  0  0  0  0  0  0  0  0  0  0  0
  -21.3178  -32.3183   22.3711 C   0  0  0  0  0  0  0  0  0  0  0  0
  -30.0820  -23.4170   17.1947 C   0  0  0  0  0  0  0  0  0  0  0  0
  -24.6502  -26.5345   21.2350 C   0  0  0  0  0  0  0  0  0  0  0  0
  -29.9567  -23.9349   18.4902 C   0  0  0  0  0  0  0  0  0  0  0  0
  -28.4666  -22.1327   19.0222 C   0  0  0  0  0  0  0  0  0  0  0  0
  -24.2815  -12.4309   20.3147 C   0  0  0  0  0  0  0  0  0  0  0  0
  -26.8176  -26.6303   20.1381 C   0  0  0  0  0  0  0  0  0  0  0  0
  -23.3320  -10.2903   20.5114 C   0  0  0  0  0  0  0  0  0  0  0  0
  -23.3332   -7.7708   21.7090 C   0  0  0  0  0  0  0  0  0  0  0  0
  -22.2118   -9.8538   21.2186 C   0  0  0  0  0  0  0  0  0  0  0  0
  -27.2313  -15.1991   21.5532 C   0  0  0  0  0  0  0  0  0  0  0  0
  -29.1192  -16.1598   22.1430 C   0  0  0  0  0  0  0  0  0  0  0  0
  -29.3454  -13.7345   21.5814 C   0  0  0  0  0  0  0  0  0  0  0  0
  -22.4415  -28.8009   22.5051 C   0  0  0  0  0  0  0  0  0  0  0  0
  -21.4164  -25.7888   23.1363 C   0  0  0  0  0  0  0  0  0  0  0  0
  -21.9905  -22.4308   22.9332 C   0  0  0  0  0  0  0  0  0  0  0  0
  -27.3933  -21.8148   21.2790 C   0  0  0  0  0  0  0  0  0  0  0  0
  -19.3373  -32.5865   23.9511 C   0  0  0  0  0  0  0  0  0  0  0  0
  -22.6530  -27.7125   20.2409 C   0  0  0  0  0  0  0  0  0  0  0  0
  -30.9777  -24.3022   16.3895 C   0  0  0  0  0  0  0  0  0  0  0  0
  -23.8111  -26.0306   22.3797 C   0  0  0  0  0  0  0  0  0  0  0  0
  -19.6817  -31.1956   24.4775 C   0  0  0  0  0  0  0  0  0  0  0  0
  -27.8867  -20.1938   24.4105 C   0  0  0  0  0  0  0  0  0  0  0  0
  -21.1942  -31.0088   24.5426 C   0  0  0  0  0  0  0  0  0  0  0  0
  -27.9055  -18.7066   24.0499 C   0  0  0  0  0  0  0  0  0  0  0  0
  -31.5921  -25.1894   17.4911 C   0  0  0  0  0  0  0  0  0  0  0  0
  -26.8834  -20.9709   23.5600 C   0  0  0  0  0  0  0  0  0  0  0  0
  -27.0514  -19.3093   21.7490 C   0  0  0  0  0  0  0  0  0  0  0  0
  -21.8247  -31.1237   23.1495 C   0  0  1  0  0  0  0  0  0  0  0  0
  -22.0346  -27.6463   21.6340 C   0  0  1  0  0  0  0  0  0  0  0  0
  -28.0934  -18.4965   22.5346 C   0  0  2  0  0  0  0  0  0  0  0  0
  -20.9909  -20.2193   23.5715 C   0  0  0  0  0  0  0  0  0  0  0  0
  -22.2859  -26.2329   26.0271 C   0  0  0  0  0  0  0  0  0  0  0  0
  -22.1596  -23.7564   26.3724 C   0  0  0  0  0  0  0  0  0  0  0  0
  -20.1058  -25.0357   25.7657 C   0  0  0  0  0  0  0  0  0  0  0  0
  -30.3771  -27.4133   21.5925 C   0  0  0  0  0  0  0  0  0  0  0  0
  -31.3568  -28.1383   19.4100 C   0  0  0  0  0  0  0  0  0  0  0  0
  -21.7967  -21.5717   20.1077 C   0  0  0  0  0  0  0  0  0  0  0  0
  -31.0343  -25.6734   19.9261 C   0  0  0  0  0  0  0  0  0  0  0  0
  -29.0287  -27.2031   19.4757 C   0  0  0  0  0  0  0  0  0  1  0  0
  -21.8934  -24.6599   24.0178 C   0  0  1  0  0  0  0  0  0  0  0  0
  -21.1027  -21.2822   22.4896 C   0  0  2  0  0  0  0  0  0  0  0  0
  -21.6277  -24.9322   25.5253 C   0  0  0  0  0  0  0  0  0  0  0  0
  -30.4450  -27.0962   20.0840 C   0  0  0  0  0  0  0  0  0  0  0  0
  -26.8965  -16.4670   21.8068 N   0  0  0  0  0  0  0  0  0  0  0  0
  -28.0657  -17.0257   22.1632 N   0  0  0  0  0  0  0  0  0  0  0  0
  -30.7064  -25.0917   18.6493 N   0  0  2  0  0  0  0  0  0  0  0  0
  -22.3921  -26.4220   22.3534 N   0  0  0  0  0  0  0  0  0  0  0  0
  -27.1251  -20.7268   22.1363 N   0  0  0  0  0  0  0  0  0  0  0  0
  -30.3666  -16.5564   22.4733 N   0  0  0  0  0  0  0  0  0  0  0  0
  -28.6598  -12.5842   21.1676 N   0  0  0  0  0  0  0  0  0  0  0  0
  -27.6394  -21.4576   19.9537 N   0  0  0  0  0  0  0  0  0  0  0  0
  -21.6164  -29.9043   22.3984 N   0  0  0  0  0  0  0  0  0  0  0  0
  -21.2595  -23.4486   23.5086 N   0  0  0  0  0  0  0  0  0  0  0  0
  -21.6549  -20.6454   21.2605 N   0  3  0  0  0  0  0  0  0  0  0  0
  -30.5768  -13.6662   21.8105 O   0  0  0  0  0  0  0  0  0  0  0  0
  -23.4299  -28.6979   23.2221 O   0  0  0  0  0  0  0  0  0  0  0  0
  -20.2209  -26.0928   23.1370 O   0  0  0  0  0  0  0  0  0  0  0  0
  -23.2108  -22.4242   22.7875 O   0  0  0  0  0  0  0  0  0  0  0  0
  -27.4308  -22.9754   21.6957 O   0  0  0  0  0  0  0  0  0  0  0  0
  -23.3327  -11.5404   19.9156 O   0  0  0  0  0  0  0  0  0  0  0  0
  -28.1333  -26.2848   20.1012 O   0  0  0  0  0  0  0  0  0  1  0  0
  -23.3334   -6.5604   22.2827 F   0  0  0  0  0  0  0  0  0  0  0  0
  -21.1316  -10.6397   21.3251 F   0  0  0  0  0  0  0  0  0  0  0  0
  1  2  1  0  0  0  0
  1  5  2  0  0  0  0
  2  6  2  0  0  0  0
  3 10  2  0  0  0  0
  3 18  1  0  0  0  0
  4 11  1  0  0  0  0
  4 18  2  0  0  0  0
  5 20  1  0  0  0  0
  6 22  1  0  0  0  0
  7  9  2  0  0  0  0
  7 23  1  0  0  0  0
  8 12  2  0  0  0  0
  8 21  1  0  0  0  0
  9 26  1  0  0  0  0
 10 27  1  0  0  0  0
 11 27  2  0  0  0  0
 12 28  1  0  0  0  0
 13 14  2  0  0  0  0
 13 29  1  0  0  0  0
 14 30  1  0  0  0  0
 15 24  1  0  0  0  0
 15 28  2  0  0  0  0
 16 25  1  0  0  0  0
 16 26  2  0  0  0  0
 17 30  2  0  0  0  0
 17 31  1  0  0  0  0
 18 32  1  0  0  0  0
 19 32  1  0  0  0  0
 19 33  2  0  0  0  0
 19 34  1  0  0  0  0
 20 22  2  0  0  0  0
 20 39  1  0  0  0  0
 21 24  2  0  0  0  0
 21 40  1  0  0  0  0
 22 50  1  0  0  0  0
 23 25  2  0  0  0  0
 23 41  1  0  0  0  0
 24 42  1  0  0  0  0
 25 68  1  0  0  0  0
 26 73  1  0  0  0  0
 27 82  1  0  0  0  0
 28 83  1  0  0  0  0
 29 31  2  0  0  0  0
 29 82  1  0  0  0  0
 30 84  1  0  0  0  0
 31 85  1  0  0  0  0
 32 66  2  0  0  0  0
 33 67  1  0  0  0  0
 33 71  1  0  0  0  0
 34 72  1  0  0  0  0
 34 77  2  0  0  0  0
 35 51  1  0  0  0  0
 35 74  1  0  0  0  0
 35 78  2  0  0  0  0
 36 62  1  0  0  0  0
 36 69  1  0  0  0  0
 36 79  2  0  0  0  0
 37 63  1  0  0  0  0
 37 75  1  0  0  0  0
 37 80  2  0  0  0  0
 38 70  1  0  0  0  0
 38 73  1  0  0  0  0
 38 81  2  0  0  0  0
 39 43  1  0  0  0  0
 40 51  1  0  0  0  0
 41 47  1  0  0  0  0
 42 69  1  0  0  0  0
 43 45  1  0  0  0  0
 44 46  1  0  0  0  0
 44 48  1  0  0  0  0
 45 50  1  0  0  0  0
 46 52  1  0  0  0  0
 47 68  1  0  0  0  0
 48 70  1  0  0  0  0
 49 52  1  0  0  0  0
 49 70  1  0  0  0  0
 50 74  1  0  0  0  0
 51 69  1  0  0  0  0
 52 67  1  0  0  0  0
 53 63  1  0  0  0  0
 54 64  1  0  0  0  0
 55 64  1  0  0  0  0
 56 64  1  0  0  0  0
 57 65  1  0  0  0  0
 58 65  1  0  0  0  0
 59 76  1  0  0  0  0
 60 65  1  0  0  0  0
 60 68  1  0  0  0  0
 61 65  1  0  0  0  0
 61 83  1  0  0  0  0
 62 64  1  0  0  0  0
 62 75  1  0  0  0  0
 63 76  1  0  0  0  0
 66 67  1  0  0  0  0
M  CHG  1  76   1
M  ISO  4  38 100  61 101  73 100  83 101
M  END
> <Batch ID>
0152

> <Smiles>
CNC(C)C(=O)NC(C(=O)N1Cc2cc([101O:1][101CH2:1]C(C)(C)CN3CCc4ccc([100NH:0][100C:0](=O)N5CCCC(n6nc(-c7ccc(Oc8ccc(F)cc8F)cc7)c(C(N)=O)c6N)C5)cc43)ccc2CC1C(=O)NC1CCCc2ccccc21)C(C)(C)C

> <Shape>
0.241

> <Color>
0.079

> <Negative vol penalty>
0.000

$$$$

  -OEChem-04052303273D

 85 94  0     1  0  0  0  0  0999 V2000
  -18.1020  -26.8288   22.2476 C   0  0  0  0  0  0  0  0  0  0  0  0
  -19.1799  -26.0099   22.5686 C   0  0  0  0  0  0  0  0  0  0  0  0
  -22.9962   -9.8600   20.0010 C   0  0  0  0  0  0  0  0  0  0  0  0
  -23.7013   -9.9646   22.3095 C   0  0  0  0  0  0  0  0  0  0  0  0
  -18.2863  -28.2053   22.1239 C   0  0  0  0  0  0  0  0  0  0  0  0
  -20.4430  -26.5670   22.7650 C   0  0  0  0  0  0  0  0  0  0  0  0
  -24.7192  -24.6892   26.7266 C   0  0  0  0  0  0  0  0  0  0  0  0
  -22.2327   -8.7278   20.2855 C   0  0  0  0  0  0  0  0  0  0  0  0
  -22.9377   -8.8325   22.5940 C   0  0  0  0  0  0  0  0  0  0  0  0
  -25.8528  -23.8919   26.5751 C   0  0  0  0  0  0  0  0  0  0  0  0
  -23.2017   -5.4853   22.1971 C   0  0  0  0  0  0  0  0  0  0  0  0
  -23.7875   -4.4876   22.9762 C   0  0  0  0  0  0  0  0  0  0  0  0
  -27.2069  -25.8736   26.3328 C   0  0  0  0  0  0  0  0  0  0  0  0
  -31.7647  -17.5221   21.6247 C   0  0  0  0  0  0  0  0  0  0  0  0
  -22.0481   -4.7585   24.6310 C   0  0  0  0  0  0  0  0  0  0  0  0
  -23.7305  -10.4783   21.0130 C   0  0  0  0  0  0  0  0  0  0  0  0
  -24.1056  -12.9913   20.7854 C   0  0  0  0  0  0  0  0  0  0  0  0
  -19.5504  -28.7806   22.3284 C   0  0  0  0  0  0  0  0  0  0  0  0
  -24.8195  -26.0868   26.6714 C   0  0  0  0  0  0  0  0  0  0  0  0
  -20.6447  -27.9523   22.6426 C   0  0  0  0  0  0  0  0  0  0  0  0
  -26.0734  -26.6864   26.4865 C   0  0  0  0  0  0  0  0  0  0  0  0
  -31.8525  -18.8093   22.2291 C   0  0  0  0  0  0  0  0  0  0  0  0
  -22.2034   -8.2141   21.5820 C   0  0  0  0  0  0  0  0  0  0  0  0
  -27.0964  -24.4839   26.3753 C   0  0  0  0  0  0  0  0  0  0  0  0
  -22.0391   -6.1197   22.6350 C   0  0  0  0  0  0  0  0  0  0  0  0
  -23.2107   -4.1241   24.1931 C   0  0  0  0  0  0  0  0  0  0  0  0
  -21.4624   -5.7563   23.8519 C   0  0  0  0  0  0  0  0  0  0  0  0
  -24.5199  -11.6475   20.7196 C   0  0  0  0  0  0  0  0  0  0  0  0
  -25.2151  -13.7112   20.4148 C   0  0  0  0  0  0  0  0  0  0  0  0
  -30.5410  -16.9293   21.8452 C   0  0  0  0  0  0  0  0  0  0  0  0
  -30.6923  -19.1515   22.8886 C   0  0  0  0  0  0  0  0  0  0  0  0
  -22.8318  -13.5399   21.1492 C   0  0  0  0  0  0  0  0  0  0  0  0
  -23.6351  -28.3476   24.7766 C   0  0  0  0  0  0  0  0  0  0  0  0
  -29.2713  -21.9813   24.9022 C   0  0  0  0  0  0  0  0  0  0  0  0
  -25.0182  -30.3352   26.9351 C   0  0  0  0  0  0  0  0  0  0  0  0
  -27.4026  -30.8018   29.3316 C   0  0  0  0  0  0  0  0  0  0  0  0
  -30.6878  -14.7036   20.6743 C   0  0  0  0  0  0  0  0  0  0  0  0
  -19.7105  -30.2680   22.1372 C   0  0  0  0  0  0  0  0  0  0  0  0
  -23.5912  -26.9335   26.8634 C   0  0  0  0  0  0  0  0  0  0  0  0
  -26.2377  -28.1829   26.4397 C   0  0  0  0  0  0  0  0  0  0  0  0
  -21.0036  -30.8226   22.7294 C   0  0  0  0  0  0  0  0  0  0  0  0
  -29.6010  -12.1954   18.3929 C   0  0  0  0  0  0  0  0  0  0  0  0
  -22.1887  -29.9448   22.3397 C   0  0  0  0  0  0  0  0  0  0  0  0
  -28.1481  -11.9398   18.8002 C   0  0  0  0  0  0  0  0  0  0  0  0
  -32.9438  -21.0654   21.4900 C   0  0  0  0  0  0  0  0  0  0  0  0
  -33.6635  -19.9793   20.7534 C   0  0  0  0  0  0  0  0  0  0  0  0
  -30.4899  -12.4694   19.6047 C   0  0  0  0  0  0  0  0  0  0  0  0
  -28.5596  -13.2777   20.9044 C   0  0  0  0  0  0  0  0  0  0  0  0
  -22.0251  -28.5220   22.8876 C   0  0  1  0  0  0  0  0  0  0  0  0
  -23.7332  -28.3343   26.2759 C   0  0  1  0  0  0  0  0  0  0  0  0
  -27.6130  -13.0610   19.7125 C   0  0  2  0  0  0  0  0  0  0  0  0
  -33.0986  -19.6930   22.1442 C   0  0  0  0  0  0  0  0  0  0  0  0
  -34.0902  -19.5791   23.2776 C   0  0  0  0  0  0  0  0  0  0  0  0
  -28.3137  -32.5441   30.8911 C   0  0  0  0  0  0  0  0  0  0  0  0
  -26.4434  -31.6800   24.5962 C   0  0  0  0  0  0  0  0  0  0  0  0
  -28.0098  -32.7284   26.2440 C   0  0  0  0  0  0  0  0  0  0  0  0
  -25.5732  -33.2554   26.3326 C   0  0  0  0  0  0  0  0  0  0  0  0
  -26.7245  -29.1874   31.7175 C   0  0  0  0  0  0  0  0  0  0  0  0
  -29.2000  -20.6178   24.2481 C   0  0  0  0  0  0  0  0  0  0  0  0
  -28.0213  -22.4199   25.6402 C   0  0  0  0  0  0  0  0  0  1  0  0
  -26.3766  -30.9776   27.0798 C   0  0  1  0  0  0  0  0  0  0  0  0
  -27.3268  -31.3990   30.7252 C   0  0  2  0  0  0  0  0  0  0  0  0
  -26.5977  -32.1321   26.0620 C   0  0  0  0  0  0  0  0  0  0  0  0
  -25.7931  -11.5186   20.3371 N   0  0  0  0  0  0  0  0  0  0  0  0
  -26.1884  -12.7906   20.1591 N   0  0  0  0  0  0  0  0  0  0  0  0
  -25.0061  -28.9676   26.6262 N   0  0  0  0  0  0  0  0  0  0  0  0
  -29.9227  -13.5457   20.4200 N   0  0  0  0  0  0  0  0  0  0  0  0
  -25.4432  -15.0355   20.2858 N   0  0  0  0  0  0  0  0  0  0  0  0
  -21.8013  -12.6584   21.5031 N   0  0  0  0  0  0  0  0  0  0  0  0
  -30.0324  -15.6725   21.4334 N   0  0  0  0  0  0  0  0  0  0  0  0
  -30.4429  -20.3283   23.5800 N   0  0  0  0  0  0  0  0  0  0  0  0
  -22.3459  -28.4837   24.2983 N   0  0  0  0  0  0  0  0  0  0  0  0
  -26.4899  -31.3827   28.4767 N   0  0  0  0  0  0  0  0  0  0  0  0
  -27.6335  -30.3619   31.7505 N   0  3  0  0  0  0  0  0  0  0  0  0
  -22.6092  -14.7743   21.1442 O   0  0  0  0  0  0  0  0  0  0  0  0
  -24.6539  -28.2436   24.1036 O   0  0  0  0  0  0  0  0  0  0  0  0
  -30.2718  -22.6951   24.8451 O   0  0  0  0  0  0  0  0  0  0  0  0
  -24.0051  -31.0200   27.0973 O   0  0  0  0  0  0  0  0  0  0  0  0
  -28.1950  -29.9119   29.0305 O   0  0  0  0  0  0  0  0  0  0  0  0
  -31.8297  -14.8381   20.2271 O   0  0  0  0  0  0  0  0  0  0  0  0
  -21.4583   -7.1095   21.8600 O   0  0  0  0  0  0  0  0  0  0  0  0
  -28.2044  -23.7080   26.2264 O   0  0  0  0  0  0  0  0  0  1  0  0
  -23.7725   -3.1649   24.9404 F   0  0  0  0  0  0  0  0  0  0  0  0
  -20.3449   -6.3614   24.2773 F   0  0  0  0  0  0  0  0  0  0  0  0
  -29.5042  -17.9233   22.7777 S   0  0  0  0  0  0  0  0  0  0  0  0
  1  2  1  0  0  0  0
  1  5  2  0  0  0  0
  2  6  2  0  0  0  0
  3  8  2  0  0  0  0
  3 16  1  0  0  0  0
  4  9  1  0  0  0  0
  4 16  2  0  0  0  0
  5 18  1  0  0  0  0
  6 20  1  0  0  0  0
  7 10  2  0  0  0  0
  7 19  1  0  0  0  0
  8 23  1  0  0  0  0
  9 23  2  0  0  0  0
 10 24  1  0  0  0  0
 11 12  2  0  0  0  0
 11 25  1  0  0  0  0
 12 26  1  0  0  0  0
 13 21  1  0  0  0  0
 13 24  2  0  0  0  0
 14 22  1  0  0  0  0
 14 30  2  0  0  0  0
 15 26  2  0  0  0  0
 15 27  1  0  0  0  0
 16 28  1  0  0  0  0
 17 28  1  0  0  0  0
 17 29  2  0  0  0  0
 17 32  1  0  0  0  0
 18 20  2  0  0  0  0
 18 38  1  0  0  0  0
 19 21  2  0  0  0  0
 19 39  1  0  0  0  0
 20 49  1  0  0  0  0
 21 40  1  0  0  0  0
 22 31  2  0  0  0  0
 22 52  1  0  0  0  0
 23 81  1  0  0  0  0
 24 82  1  0  0  0  0
 25 27  2  0  0  0  0
 25 81  1  0  0  0  0
 26 83  1  0  0  0  0
 27 84  1  0  0  0  0
 28 64  2  0  0  0  0
 29 65  1  0  0  0  0
 29 68  1  0  0  0  0
 30 70  1  0  0  0  0
 30 85  1  0  0  0  0
 31 71  1  0  0  0  0
 31 85  1  0  0  0  0
 32 69  1  0  0  0  0
 32 75  2  0  0  0  0
 33 50  1  0  0  0  0
 33 72  1  0  0  0  0
 33 76  2  0  0  0  0
 34 59  1  0  0  0  0
 34 60  1  0  0  0  0
 34 77  2  0  0  0  0
 35 61  1  0  0  0  0
 35 66  1  0  0  0  0
 35 78  2  0  0  0  0
 36 62  1  0  0  0  0
 36 73  1  0  0  0  0
 36 79  2  0  0  0  0
 37 67  1  0  0  0  0
 37 70  1  0  0  0  0
 37 80  2  0  0  0  0
 38 41  1  0  0  0  0
 39 50  1  0  0  0  0
 40 66  1  0  0  0  0
 41 43  1  0  0  0  0
 42 44  1  0  0  0  0
 42 47  1  0  0  0  0
 43 49  1  0  0  0  0
 44 51  1  0  0  0  0
 45 46  1  0  0  0  0
 45 52  1  0  0  0  0
 46 52  1  0  0  0  0
 47 67  1  0  0  0  0
 48 51  1  0  0  0  0
 48 67  1  0  0  0  0
 49 72  1  0  0  0  0
 50 66  1  0  0  0  0
 51 65  1  0  0  0  0
 52 53  1  0  0  0  0
 54 62  1  0  0  0  0
 55 63  1  0  0  0  0
 56 63  1  0  0  0  0
 57 63  1  0  0  0  0
 58 74  1  0  0  0  0
 59 71  1  0  0  0  0
 60 82  1  0  0  0  0
 61 63  1  0  0  0  0
 61 73  1  0  0  0  0
 62 74  1  0  0  0  0
 64 65  1  0  0  0  0
M  CHG  1  74   1
M  ISO  4  37 100  60 101  70 100  82 101
M  END
> <Batch ID>
0152

> <Smiles>
CNC(C)C(=O)NC(C(=O)N1Cc2cc([101O:1][101CH2:1]C(=O)CNc3sc([100NH:0][100C:0](=O)N4CCCC(n5nc(-c6ccc(Oc7ccc(F)cc7F)cc6)c(C(N)=O)c5N)C4)cc3C3(C)CC3)ccc2CC1C(=O)NC1CCCc2ccccc21)C(C)(C)C

> <Shape>
0.290

> <Color>
0.232

> <Negative vol penalty>
0.000

$$$$

  -OEChem-04052303273D

 88 97  0     1  0  0  0  0  0999 V2000
  -28.5068  -36.6331   24.4776 C   0  0  0  0  0  0  0  0  0  0  0  0
  -28.8868  -35.4160   23.9211 C   0  0  0  0  0  0  0  0  0  0  0  0
  -21.9960  -12.6608   22.1619 C   0  0  0  0  0  0  0  0  0  0  0  0
  -22.0795  -14.4686   20.5613 C   0  0  0  0  0  0  0  0  0  0  0  0
  -27.2769  -36.7490   25.1241 C   0  0  0  0  0  0  0  0  0  0  0  0
  -28.0375  -34.3137   24.0117 C   0  0  0  0  0  0  0  0  0  0  0  0
  -27.2883  -29.8909   19.8425 C   0  0  0  0  0  0  0  0  0  0  0  0
  -20.6613  -12.9623   22.4328 C   0  0  0  0  0  0  0  0  0  0  0  0
  -20.7449  -14.7701   20.8321 C   0  0  0  0  0  0  0  0  0  0  0  0
  -27.8170  -28.6054   19.7333 C   0  0  0  0  0  0  0  0  0  0  0  0
  -17.6464  -12.4297   20.9977 C   0  0  0  0  0  0  0  0  0  0  0  0
  -16.7436  -11.3688   21.0683 C   0  0  0  0  0  0  0  0  0  0  0  0
  -29.3669  -19.2627   17.7812 C   0  0  0  0  0  0  0  0  0  0  0  0
  -28.6101  -20.1882   15.6819 C   0  0  0  0  0  0  0  0  0  0  0  0
  -25.8350  -27.7082   20.7752 C   0  0  0  0  0  0  0  0  0  0  0  0
  -27.8203  -18.0213   16.4013 C   0  0  0  0  0  0  0  0  0  0  0  0
  -16.2222  -11.9644   23.3509 C   0  0  0  0  0  0  0  0  0  0  0  0
  -22.7051  -13.4140   21.2262 C   0  0  0  0  0  0  0  0  0  0  0  0
  -29.3779  -20.2935   16.8416 C   0  0  0  0  0  0  0  0  0  0  0  0
  -24.5984  -11.8905   20.4500 C   0  0  0  0  0  0  0  0  0  0  0  0
  -26.4080  -35.6502   25.2142 C   0  0  0  0  0  0  0  0  0  0  0  0
  -26.0316  -30.0960   20.4297 C   0  0  0  0  0  0  0  0  0  0  0  0
  -26.7955  -34.4147   24.6612 C   0  0  0  0  0  0  0  0  0  0  0  0
  -25.2914  -28.9970   20.8883 C   0  0  0  0  0  0  0  0  0  0  0  0
  -28.5882  -18.1265   17.5611 C   0  0  0  0  0  0  0  0  0  0  0  0
  -20.0358  -14.0169   21.7679 C   0  0  0  0  0  0  0  0  0  0  0  0
  -27.0916  -27.5142   20.2023 C   0  0  0  0  0  0  0  0  0  0  0  0
  -17.8372  -13.2580   22.1037 C   0  0  0  0  0  0  0  0  0  0  0  0
  -16.0315  -11.1362   22.2449 C   0  0  0  0  0  0  0  0  0  0  0  0
  -27.8313  -19.0521   15.4617 C   0  0  0  0  0  0  0  0  0  0  0  0
  -17.1251  -13.0253   23.2803 C   0  0  0  0  0  0  0  0  0  0  0  0
  -24.0840  -13.1033   20.9464 C   0  0  0  0  0  0  0  0  0  0  0  0
  -25.9523  -12.1031   20.3600 C   0  0  0  0  0  0  0  0  0  0  0  0
  -30.2015  -21.4936   17.0731 C   0  0  0  0  0  0  0  0  0  0  0  0
  -23.9135  -10.6801   20.1014 C   0  0  0  0  0  0  0  0  0  0  0  0
  -24.9787  -31.6695   22.9830 C   0  0  0  0  0  0  0  0  0  0  0  0
  -22.0698  -30.8403   21.8112 C   0  0  0  0  0  0  0  0  0  0  0  0
  -20.2202  -28.7120   19.8887 C   0  0  0  0  0  0  0  0  0  0  0  0
  -29.2780  -17.0260   19.7196 C   0  0  0  0  0  0  0  0  0  0  0  0
  -25.1093  -35.8113   25.9640 C   0  0  0  0  0  0  0  0  0  0  0  0
  -25.4637  -31.4862   20.5158 C   0  0  0  0  0  0  0  0  0  0  0  0
  -23.9288  -29.1616   21.5084 C   0  0  0  0  0  0  0  0  0  0  0  0
  -24.1050  -34.6949   25.6896 C   0  0  0  0  0  0  0  0  0  0  0  0
  -29.4850  -14.6448   22.3586 C   0  0  0  0  0  0  0  0  0  0  0  0
  -24.7856  -33.3323   25.7723 C   0  0  0  0  0  0  0  0  0  0  0  0
  -28.1730  -13.8649   22.2470 C   0  0  0  0  0  0  0  0  0  0  0  0
  -30.6714  -24.4691   18.8392 C   0  0  0  0  0  0  0  0  0  0  0  0
  -28.2283  -23.8028   18.7964 C   0  0  0  0  0  0  0  0  0  0  0  0
  -29.2938  -16.1256   22.0357 C   0  0  0  0  0  0  0  0  0  0  0  0
  -31.0667  -22.9974   18.7914 C   0  0  0  0  0  0  0  0  0  0  0  0
  -28.6363  -22.3347   18.7480 C   0  0  0  0  0  0  0  0  0  0  0  0
  -27.3288  -15.6214   20.6379 C   0  0  0  0  0  0  0  0  0  0  0  0
  -25.8909  -33.2028   24.7173 C   0  0  1  0  0  0  0  0  0  0  0  0
  -24.3979  -31.6303   21.5978 C   0  0  1  0  0  0  0  0  0  0  0  0
  -27.4836  -14.1129   20.8909 C   0  0  2  0  0  0  0  0  0  0  0  0
  -29.2948  -24.6617   19.4871 C   0  0  0  0  0  0  0  0  0  0  0  0
  -17.8625  -28.2657   19.1542 C   0  0  0  0  0  0  0  0  0  0  0  0
  -21.4440  -29.6517   24.5508 C   0  0  0  0  0  0  0  0  0  0  0  0
  -19.5341  -28.4184   23.5021 C   0  0  0  0  0  0  0  0  0  0  0  0
  -19.5547  -30.9129   23.5045 C   0  0  0  0  0  0  0  0  0  0  0  0
  -20.9087  -29.1151   17.0387 C   0  0  0  0  0  0  0  0  0  0  0  0
  -28.8936  -26.1320   19.4963 C   0  0  0  0  0  0  0  0  0  1  0  0
  -21.1430  -29.6617   21.9865 C   0  0  1  0  0  0  0  0  0  0  0  0
  -19.1687  -28.9714   18.8250 C   0  0  2  0  0  0  0  0  0  0  0  0
  -20.4454  -29.6579   23.3761 C   0  0  0  0  0  0  0  0  0  0  0  0
  -25.0338  -14.0185   21.1571 N   0  0  0  0  0  0  0  0  0  0  0  0
  -26.1586  -13.3804   20.7914 N   0  0  0  0  0  0  0  0  0  0  0  0
  -29.9791  -22.2390   18.1465 N   0  0  0  0  0  0  0  0  0  0  0  0
  -23.4193  -30.5413   21.5758 N   0  0  0  0  0  0  0  0  0  0  0  0
  -28.6392  -16.2833   20.7351 N   0  0  0  0  0  0  0  0  0  0  0  0
  -26.9747  -11.3201   19.9548 N   0  0  0  0  0  0  0  0  0  0  0  0
  -22.5212  -10.6323   20.2549 N   0  0  0  0  0  0  0  0  0  0  0  0
  -28.5758  -17.0798   18.5161 N   0  0  0  0  0  0  0  0  0  0  0  0
  -25.3181  -32.9375   23.4151 N   0  0  0  0  0  0  0  0  0  0  0  0
  -20.2219  -29.6949   20.8557 N   0  0  0  0  0  0  0  0  0  0  0  0
  -31.1560  -21.8088   16.2025 N   0  3  0  0  0  0  0  0  0  0  0  0
  -19.6435  -28.4865   17.4982 N   0  3  0  0  0  0  0  0  0  0  0  0
  -24.5202   -9.6653   19.6823 O   0  0  0  0  0  0  0  0  0  0  0  0
  -25.1079  -30.6269   23.6137 O   0  0  0  0  0  0  0  0  0  0  0  0
  -21.6121  -31.9841   21.8733 O   0  0  0  0  0  0  0  0  0  0  0  0
  -20.9631  -27.7331   19.8662 O   0  0  0  0  0  0  0  0  0  0  0  0
  -30.3805  -17.5510   19.8954 O   0  0  0  0  0  0  0  0  0  0  0  0
  -18.7333  -14.3113   22.0318 O   0  0  0  0  0  0  0  0  0  0  0  0
  -27.6056  -26.2585   20.0975 O   0  0  0  0  0  0  0  0  0  1  0  0
  -15.1634  -10.1183   22.3120 F   0  0  0  0  0  0  0  0  0  0  0  0
  -27.0941  -18.9511   14.3480 F   0  0  0  0  0  0  0  0  0  0  0  0
  -17.3033  -13.8183   24.3458 F   0  0  0  0  0  0  0  0  0  0  0  0
  -29.3823  -24.2577   20.7896 F   0  0  0  0  0  0  0  0  0  0  0  0
  1  2  1  0  0  0  0
  1  5  2  0  0  0  0
  2  6  2  0  0  0  0
  3  8  2  0  0  0  0
  3 18  1  0  0  0  0
  4  9  1  0  0  0  0
  4 18  2  0  0  0  0
  5 21  1  0  0  0  0
  6 23  1  0  0  0  0
  7 10  2  0  0  0  0
  7 22  1  0  0  0  0
  8 26  1  0  0  0  0
  9 26  2  0  0  0  0
 10 27  1  0  0  0  0
 11 12  2  0  0  0  0
 11 28  1  0  0  0  0
 12 29  1  0  0  0  0
 13 19  2  0  0  0  0
 13 25  1  0  0  0  0
 14 19  1  0  0  0  0
 14 30  2  0  0  0  0
 15 24  1  0  0  0  0
 15 27  2  0  0  0  0
 16 25  2  0  0  0  0
 16 30  1  0  0  0  0
 17 29  2  0  0  0  0
 17 31  1  0  0  0  0
 18 32  1  0  0  0  0
 19 34  1  0  0  0  0
 20 32  1  0  0  0  0
 20 33  2  0  0  0  0
 20 35  1  0  0  0  0
 21 23  2  0  0  0  0
 21 40  1  0  0  0  0
 22 24  2  0  0  0  0
 22 41  1  0  0  0  0
 23 53  1  0  0  0  0
 24 42  1  0  0  0  0
 25 73  1  0  0  0  0
 26 83  1  0  0  0  0
 27 84  1  0  0  0  0
 28 31  2  0  0  0  0
 28 83  1  0  0  0  0
 29 85  1  0  0  0  0
 30 86  1  0  0  0  0
 31 87  1  0  0  0  0
 32 66  2  0  0  0  0
 33 67  1  0  0  0  0
 33 71  1  0  0  0  0
 34 68  1  0  0  0  0
 34 76  2  0  0  0  0
 35 72  1  0  0  0  0
 35 78  2  0  0  0  0
 36 54  1  0  0  0  0
 36 74  1  0  0  0  0
 36 79  2  0  0  0  0
 37 63  1  0  0  0  0
 37 69  1  0  0  0  0
 37 80  2  0  0  0  0
 38 64  1  0  0  0  0
 38 75  1  0  0  0  0
 38 81  2  0  0  0  0
 39 70  1  0  0  0  0
 39 73  1  0  0  0  0
 39 82  2  0  0  0  0
 40 43  1  0  0  0  0
 41 54  1  0  0  0  0
 42 69  1  0  0  0  0
 43 45  1  0  0  0  0
 44 46  1  0  0  0  0
 44 49  1  0  0  0  0
 45 53  1  0  0  0  0
 46 55  1  0  0  0  0
 47 50  1  0  0  0  0
 47 56  1  0  0  0  0
 48 51  1  0  0  0  0
 48 56  1  0  0  0  0
 49 70  1  0  0  0  0
 50 68  1  0  0  0  0
 51 68  1  0  0  0  0
 52 55  1  0  0  0  0
 52 70  1  0  0  0  0
 53 74  1  0  0  0  0
 54 69  1  0  0  0  0
 55 67  1  0  0  0  0
 56 62  1  0  0  0  0
 56 88  1  0  0  0  0
 57 64  1  0  0  0  0
 58 65  1  0  0  0  0
 59 65  1  0  0  0  0
 60 65  1  0  0  0  0
 61 77  1  0  0  0  0
 62 84  1  0  0  0  0
 63 65  1  0  0  0  0
 63 75  1  0  0  0  0
 64 77  1  0  0  0  0
 66 67  1  0  0  0  0
M  CHG  2  76   1  77   1
M  ISO  4  39 100  62 101  73 100  84 101
M  END
> <Batch ID>
0152

> <Smiles>
CNC(C)C(=O)NC(C(=O)N1Cc2cc([101O:1][101CH2:1]C3(F)CCN(C(=N)c4cc(F)cc([100NH:0][100C:0](=O)N5CCCC(n6nc(-c7ccc(Oc8ccc(F)cc8F)cc7)c(C(N)=O)c6N)C5)c4)CC3)ccc2CC1C(=O)NC1CCCc2ccccc21)C(C)(C)C

> <Shape>
0.295

> <Color>
0.083

> <Negative vol penalty>
0.000

$$$$

  -OEChem-04052303273D

 85 94  0     1  0  0  0  0  0999 V2000
  -16.6075  -28.6075   21.0626 C   0  0  0  0  0  0  0  0  0  0  0  0
  -17.5247  -29.3576   20.3335 C   0  0  0  0  0  0  0  0  0  0  0  0
  -22.2882  -14.1258   20.1444 C   0  0  0  0  0  0  0  0  0  0  0  0
  -22.4122  -16.4362   20.8397 C   0  0  0  0  0  0  0  0  0  0  0  0
  -16.8317  -28.3583   22.4160 C   0  0  0  0  0  0  0  0  0  0  0  0
  -18.6660  -29.8598   20.9576 C   0  0  0  0  0  0  0  0  0  0  0  0
  -31.3062  -22.1053   20.1374 C   0  0  0  0  0  0  0  0  0  0  0  0
  -29.0395  -22.8672   19.7932 C   0  0  0  0  0  0  0  0  0  0  0  0
  -25.2486  -28.1225   18.6032 C   0  0  0  0  0  0  0  0  0  0  0  0
  -30.8245  -20.9494   20.7517 C   0  0  0  0  0  0  0  0  0  0  0  0
  -28.5577  -21.7112   20.4075 C   0  0  0  0  0  0  0  0  0  0  0  0
  -20.9872  -14.0461   20.6409 C   0  0  0  0  0  0  0  0  0  0  0  0
  -21.1111  -16.3566   21.3362 C   0  0  0  0  0  0  0  0  0  0  0  0
  -26.5376  -28.0057   18.0828 C   0  0  0  0  0  0  0  0  0  0  0  0
  -19.4871  -13.6884   23.6486 C   0  0  0  0  0  0  0  0  0  0  0  0
  -19.1506  -12.5659   24.4052 C   0  0  0  0  0  0  0  0  0  0  0  0
  -27.4126  -29.2945   19.9326 C   0  0  0  0  0  0  0  0  0  0  0  0
  -17.4264  -12.0063   22.8080 C   0  0  0  0  0  0  0  0  0  0  0  0
  -23.0007  -15.3208   20.2438 C   0  0  0  0  0  0  0  0  0  0  0  0
  -24.7630  -15.1943   18.4037 C   0  0  0  0  0  0  0  0  0  0  0  0
  -30.4137  -23.0642   19.6582 C   0  0  0  0  0  0  0  0  0  0  0  0
  -17.9812  -28.8496   23.0547 C   0  0  0  0  0  0  0  0  0  0  0  0
  -25.0384  -28.8134   19.7998 C   0  0  0  0  0  0  0  0  0  0  0  0
  -18.9051  -29.6181   22.3211 C   0  0  0  0  0  0  0  0  0  0  0  0
  -26.1253  -29.4041   20.4652 C   0  0  0  0  0  0  0  0  0  0  0  0
  -29.4503  -20.7523   20.8868 C   0  0  0  0  0  0  0  0  0  0  0  0
  -20.3986  -15.1615   21.2368 C   0  0  0  0  0  0  0  0  0  0  0  0
  -27.6169  -28.5905   18.7458 C   0  0  0  0  0  0  0  0  0  0  0  0
  -18.7932  -13.9699   22.4717 C   0  0  0  0  0  0  0  0  0  0  0  0
  -18.1203  -11.7249   23.9849 C   0  0  0  0  0  0  0  0  0  0  0  0
  -17.7629  -13.1288   22.0514 C   0  0  0  0  0  0  0  0  0  0  0  0
  -24.3449  -15.4036   19.7316 C   0  0  0  0  0  0  0  0  0  0  0  0
  -26.1223  -15.3890   18.4370 C   0  0  0  0  0  0  0  0  0  0  0  0
  -23.9917  -14.8544   17.2439 C   0  0  0  0  0  0  0  0  0  0  0  0
  -22.5828  -29.9680   22.3907 C   0  0  0  0  0  0  0  0  0  0  0  0
  -25.0983  -29.0560   23.8910 C   0  0  0  0  0  0  0  0  0  0  0  0
  -27.8817  -27.5645   25.1815 C   0  0  0  0  0  0  0  0  0  0  0  0
  -29.7095  -18.5279   22.0404 C   0  0  0  0  0  0  0  0  0  0  0  0
  -18.1566  -28.5943   24.5307 C   0  0  0  0  0  0  0  0  0  0  0  0
  -23.6589  -29.0168   20.3649 C   0  0  0  0  0  0  0  0  0  0  0  0
  -25.8471  -30.1674   21.7313 C   0  0  0  0  0  0  0  0  0  0  0  0
  -19.5780  -28.8456   25.0276 C   0  0  0  0  0  0  0  0  0  0  0  0
  -29.8852  -15.0340   21.3778 C   0  0  0  0  0  0  0  0  0  0  0  0
  -30.4976  -24.4122   17.5179 C   0  0  0  0  0  0  0  0  0  0  0  0
  -30.5504  -25.5887   19.7735 C   0  0  0  0  0  0  0  0  0  0  0  0
  -20.1052  -30.1717   24.4888 C   0  0  0  0  0  0  0  0  0  0  0  0
  -28.5247  -14.7144   20.7540 C   0  0  0  0  0  0  0  0  0  0  0  0
  -31.0290  -25.6830   16.8495 C   0  0  0  0  0  0  0  0  0  0  0  0
  -31.0820  -26.8538   19.0944 C   0  0  0  0  0  0  0  0  0  0  0  0
  -29.7703  -16.0832   22.4822 C   0  0  0  0  0  0  0  0  0  0  0  0
  -27.7200  -17.0006   21.4703 C   0  0  0  0  0  0  0  0  0  0  0  0
  -30.9382  -24.3222   18.9897 C   0  0  0  0  0  0  0  0  0  0  0  0
  -20.1674  -30.1591   22.9566 C   0  0  1  0  0  0  0  0  0  0  0  0
  -23.6301  -29.0101   21.9038 C   0  0  1  0  0  0  0  0  0  0  0  0
  -27.7939  -15.9962   20.3086 C   0  0  2  0  0  0  0  0  0  0  0  0
  -30.6472  -26.9542   17.6239 C   0  0  0  0  0  0  0  0  0  0  0  0
  -28.9886  -27.0148   27.3655 C   0  0  0  0  0  0  0  0  0  0  0  0
  -25.9516  -31.9694   24.1875 C   0  0  0  0  0  0  0  0  0  0  0  0
  -27.7553  -31.2082   25.7482 C   0  0  0  0  0  0  0  0  0  0  0  0
  -25.3601  -30.8315   26.3346 C   0  0  0  0  0  0  0  0  0  0  0  0
  -27.7818  -24.6579   24.6334 C   0  0  0  0  0  0  0  0  0  0  0  0
  -29.1569  -27.2883   17.4848 C   0  0  0  0  0  0  0  0  0  1  0  0
  -26.4195  -29.4497   24.5014 C   0  0  1  0  0  0  0  0  0  0  0  0
  -28.0525  -26.5230   26.2726 C   0  0  2  0  0  0  0  0  0  0  0  0
  -26.3700  -30.8542   25.1665 C   0  0  0  0  0  0  0  0  0  0  0  0
  -25.3566  -15.7078   20.5488 N   0  0  0  0  0  0  0  0  0  0  0  0
  -26.4240  -15.6910   19.7324 N   0  0  0  0  0  0  0  0  0  0  0  0
  -24.8798  -29.4308   22.5597 N   0  0  0  0  0  0  0  0  0  0  0  0
  -29.0712  -17.2707   21.9863 N   0  0  0  0  0  0  0  0  0  0  0  0
  -27.0769  -15.3296   17.4843 N   0  0  0  0  0  0  0  0  0  0  0  0
  -23.4668  -15.8930   16.4626 N   0  0  0  0  0  0  0  0  0  0  0  0
  -28.9606  -19.5780   21.5105 N   0  0  0  0  0  0  0  0  0  0  0  0
  -21.3222  -29.4134   22.5039 N   0  0  0  0  0  0  0  0  0  0  0  0
  -26.7866  -28.3702   25.4115 N   0  0  0  0  0  0  0  0  0  0  0  0
  -31.3986  -28.1000   17.0087 N   0  3  0  0  0  0  0  0  0  0  0  0
  -28.6136  -25.2647   25.7043 N   0  3  0  0  0  0  0  0  0  0  0  0
  -23.7606  -13.6650   16.9193 O   0  0  0  0  0  0  0  0  0  0  0  0
  -22.8945  -31.1251   22.6467 O   0  0  0  0  0  0  0  0  0  0  0  0
  -24.2780  -28.4378   24.5754 O   0  0  0  0  0  0  0  0  0  0  0  0
  -28.6456  -27.6567   24.2232 O   0  0  0  0  0  0  0  0  0  0  0  0
  -30.8482  -18.6584   22.4966 O   0  0  0  0  0  0  0  0  0  0  0  0
  -19.1290  -15.0842   21.7213 O   0  0  0  0  0  0  0  0  0  0  0  0
  -28.8733  -28.4689   18.2346 O   0  0  0  0  0  0  0  0  0  1  0  0
  -17.7982  -10.6461   24.7107 F   0  0  0  0  0  0  0  0  0  0  0  0
  -17.0935  -13.3934   20.9210 F   0  0  0  0  0  0  0  0  0  0  0  0
  1  2  1  0  0  0  0
  1  5  2  0  0  0  0
  2  6  2  0  0  0  0
  3 12  2  0  0  0  0
  3 19  1  0  0  0  0
  4 13  1  0  0  0  0
  4 19  2  0  0  0  0
  5 22  1  0  0  0  0
  6 24  1  0  0  0  0
  7 10  2  0  0  0  0
  7 21  1  0  0  0  0
  8 11  1  0  0  0  0
  8 21  2  0  0  0  0
  9 14  2  0  0  0  0
  9 23  1  0  0  0  0
 10 26  1  0  0  0  0
 11 26  2  0  0  0  0
 12 27  1  0  0  0  0
 13 27  2  0  0  0  0
 14 28  1  0  0  0  0
 15 16  2  0  0  0  0
 15 29  1  0  0  0  0
 16 30  1  0  0  0  0
 17 25  1  0  0  0  0
 17 28  2  0  0  0  0
 18 30  2  0  0  0  0
 18 31  1  0  0  0  0
 19 32  1  0  0  0  0
 20 32  1  0  0  0  0
 20 33  2  0  0  0  0
 20 34  1  0  0  0  0
 21 52  1  0  0  0  0
 22 24  2  0  0  0  0
 22 39  1  0  0  0  0
 23 25  2  0  0  0  0
 23 40  1  0  0  0  0
 24 53  1  0  0  0  0
 25 41  1  0  0  0  0
 26 72  1  0  0  0  0
 27 82  1  0  0  0  0
 28 83  1  0  0  0  0
 29 31  2  0  0  0  0
 29 82  1  0  0  0  0
 30 84  1  0  0  0  0
 31 85  1  0  0  0  0
 32 66  2  0  0  0  0
 33 67  1  0  0  0  0
 33 70  1  0  0  0  0
 34 71  1  0  0  0  0
 34 77  2  0  0  0  0
 35 54  1  0  0  0  0
 35 73  1  0  0  0  0
 35 78  2  0  0  0  0
 36 63  1  0  0  0  0
 36 68  1  0  0  0  0
 36 79  2  0  0  0  0
 37 64  1  0  0  0  0
 37 74  1  0  0  0  0
 37 80  2  0  0  0  0
 38 69  1  0  0  0  0
 38 72  1  0  0  0  0
 38 81  2  0  0  0  0
 39 42  1  0  0  0  0
 40 54  1  0  0  0  0
 41 68  1  0  0  0  0
 42 46  1  0  0  0  0
 43 47  1  0  0  0  0
 43 50  1  0  0  0  0
 44 48  1  0  0  0  0
 44 52  1  0  0  0  0
 45 49  1  0  0  0  0
 45 52  1  0  0  0  0
 46 53  1  0  0  0  0
 47 55  1  0  0  0  0
 48 56  1  0  0  0  0
 49 56  1  0  0  0  0
 50 69  1  0  0  0  0
 51 55  1  0  0  0  0
 51 69  1  0  0  0  0
 53 73  1  0  0  0  0
 54 68  1  0  0  0  0
 55 67  1  0  0  0  0
 56 62  1  0  0  0  0
 56 75  1  0  0  0  0
 57 64  1  0  0  0  0
 58 65  1  0  0  0  0
 59 65  1  0  0  0  0
 60 65  1  0  0  0  0
 61 76  1  0  0  0  0
 62 83  1  0  0  0  0
 63 65  1  0  0  0  0
 63 74  1  0  0  0  0
 64 76  1  0  0  0  0
 66 67  1  0  0  0  0
M  CHG  2  75   1  76   1
M  ISO  4  38 100  62 101  72 100  83 101
M  END
> <Batch ID>
0152

> <Smiles>
CNC(C)C(=O)NC(C(=O)N1Cc2cc([101O:1][101CH2:1]C3(N)CCC(c4ccc([100NH:0][100C:0](=O)N5CCCC(n6nc(-c7ccc(Oc8ccc(F)cc8F)cc7)c(C(N)=O)c6N)C5)cc4)CC3)ccc2CC1C(=O)NC1CCCc2ccccc21)C(C)(C)C

> <Shape>
0.245

> <Color>
0.073

> <Negative vol penalty>
0.000

$$$$

  -OEChem-04052303273D

 84 93  0     1  0  0  0  0  0999 V2000
  -29.9927  -32.5869   26.7021 C   0  0  0  0  0  0  0  0  0  0  0  0
  -29.8375  -31.4582   25.9037 C   0  0  0  0  0  0  0  0  0  0  0  0
  -22.9823  -10.5063   21.3119 C   0  0  0  0  0  0  0  0  0  0  0  0
  -24.7035   -9.0134   22.1155 C   0  0  0  0  0  0  0  0  0  0  0  0
  -28.8747  -33.3242   27.0899 C   0  0  0  0  0  0  0  0  0  0  0  0
  -28.5639  -31.0654   25.4937 C   0  0  0  0  0  0  0  0  0  0  0  0
  -27.0503  -28.4784   20.1531 C   0  0  0  0  0  0  0  0  0  0  0  0
  -22.1348   -9.4180   21.1052 C   0  0  0  0  0  0  0  0  0  0  0  0
  -23.8560   -7.9250   21.9088 C   0  0  0  0  0  0  0  0  0  0  0  0
  -26.8260  -27.1530   19.7831 C   0  0  0  0  0  0  0  0  0  0  0  0
  -21.2389   -6.4746   23.4797 C   0  0  0  0  0  0  0  0  0  0  0  0
  -21.1612   -5.5149   24.4890 C   0  0  0  0  0  0  0  0  0  0  0  0
  -24.4552  -27.4745   20.0915 C   0  0  0  0  0  0  0  0  0  0  0  0
  -26.1615  -22.7613   18.5593 C   0  0  0  0  0  0  0  0  0  0  0  0
  -21.9404   -3.8280   22.9449 C   0  0  0  0  0  0  0  0  0  0  0  0
  -26.4514  -22.2383   15.8969 C   0  0  0  0  0  0  0  0  0  0  0  0
  -24.2667  -10.3041   21.8170 C   0  0  0  0  0  0  0  0  0  0  0  0
  -25.2660  -12.1997   23.2011 C   0  0  0  0  0  0  0  0  0  0  0  0
  -27.5877  -32.9458   26.6764 C   0  0  0  0  0  0  0  0  0  0  0  0
  -25.9779  -29.3100   20.5062 C   0  0  0  0  0  0  0  0  0  0  0  0
  -27.4275  -31.7976   25.8775 C   0  0  0  0  0  0  0  0  0  0  0  0
  -24.6683  -28.8108   20.4632 C   0  0  0  0  0  0  0  0  0  0  0  0
  -26.0350  -23.7991   17.6425 C   0  0  0  0  0  0  0  0  0  0  0  0
  -26.1813  -23.5409   16.2841 C   0  0  0  0  0  0  0  0  0  0  0  0
  -22.5716   -8.1273   21.4037 C   0  0  0  0  0  0  0  0  0  0  0  0
  -25.5286  -26.6501   19.7550 C   0  0  0  0  0  0  0  0  0  0  0  0
  -21.6673   -6.1110   22.2030 C   0  0  0  0  0  0  0  0  0  0  0  0
  -21.5119   -4.1916   24.2215 C   0  0  0  0  0  0  0  0  0  0  0  0
  -22.0181   -4.7877   21.9356 C   0  0  0  0  0  0  0  0  0  0  0  0
  -25.1429  -11.4279   22.0302 C   0  0  0  0  0  0  0  0  0  0  0  0
  -26.4323  -21.4935   18.0702 C   0  0  0  0  0  0  0  0  0  0  0  0
  -26.2225  -13.1368   22.8956 C   0  0  0  0  0  0  0  0  0  0  0  0
  -24.5773  -12.0802   24.4529 C   0  0  0  0  0  0  0  0  0  0  0  0
  -25.1258  -30.8760   23.1378 C   0  0  0  0  0  0  0  0  0  0  0  0
  -22.8056  -32.0669   21.2089 C   0  0  0  0  0  0  0  0  0  0  0  0
  -20.8836  -31.6876   18.4144 C   0  0  0  0  0  0  0  0  0  0  0  0
  -28.5609  -16.7812   19.5382 C   0  0  0  0  0  0  0  0  0  0  0  0
  -26.4050  -33.7470   27.1601 C   0  0  0  0  0  0  0  0  0  0  0  0
  -26.2343  -30.7450   20.8772 C   0  0  0  0  0  0  0  0  0  0  0  0
  -23.4808  -29.6683   20.8136 C   0  0  0  0  0  0  0  0  0  0  0  0
  -25.1247  -33.4787   26.3732 C   0  0  0  0  0  0  0  0  0  0  0  0
  -29.3815  -13.4720   18.9688 C   0  0  0  0  0  0  0  0  0  0  0  0
  -24.9146  -31.9789   26.1909 C   0  0  0  0  0  0  0  0  0  0  0  0
  -28.3671  -12.6963   19.8088 C   0  0  0  0  0  0  0  0  0  0  0  0
  -26.0844  -19.0101   18.4352 C   0  0  0  0  0  0  0  0  0  0  0  0
  -28.0195  -20.1944   19.5588 C   0  0  0  0  0  0  0  0  0  0  0  0
  -28.7220  -14.6580   18.2745 C   0  0  0  0  0  0  0  0  0  0  0  0
  -26.2631  -17.8415   19.4086 C   0  0  0  0  0  0  0  0  0  0  0  0
  -28.1353  -19.0140   20.5189 C   0  0  0  0  0  0  0  0  0  0  0  0
  -27.0168  -14.8378   20.0572 C   0  0  0  0  0  0  0  0  0  0  0  0
  -26.0646  -31.3538   25.3920 C   0  0  1  0  0  0  0  0  0  0  0  0
  -26.5767  -20.3368   19.0411 C   0  0  0  0  0  0  0  0  0  0  0  0
  -25.1138  -31.3552   21.7137 C   0  0  1  0  0  0  0  0  0  0  0  0
  -27.6331  -13.6283   20.7892 C   0  0  1  0  0  0  0  0  0  0  0  0
  -19.0495  -32.8071   17.1182 C   0  0  0  0  0  0  0  0  0  0  0  0
  -20.7757  -31.1508   23.2945 C   0  0  0  0  0  0  0  0  0  0  0  0
  -18.9841  -31.4160   21.5659 C   0  0  0  0  0  0  0  0  0  0  0  0
  -20.3087  -33.3978   22.3010 C   0  0  0  0  0  0  0  0  0  0  0  0
  -22.5872  -31.9524   16.0088 C   0  0  0  0  0  0  0  0  0  0  0  0
  -21.4028  -31.6484   20.8399 C   0  0  1  0  0  0  0  0  0  0  0  0
  -20.5525  -32.6432   17.2823 C   0  0  2  0  0  0  0  0  0  0  0  0
  -20.3902  -31.8863   21.9955 C   0  0  0  0  0  0  0  0  0  0  0  0
  -26.5811  -21.2042   16.7580 N   0  0  0  0  0  0  0  0  0  0  0  0
  -25.9561  -11.8391   21.0537 N   0  0  0  0  0  0  0  0  0  0  0  0
  -26.5993  -12.8796   21.6103 N   0  0  0  0  0  0  0  0  0  0  0  0
  -23.7836  -31.0628   21.1760 N   0  0  0  0  0  0  0  0  0  0  0  0
  -28.0331  -15.5163   19.2381 N   0  0  0  0  0  0  0  0  0  0  0  0
  -27.6468  -17.7821   19.9000 N   0  0  0  0  0  0  0  0  0  0  0  0
  -26.0627  -24.5557   15.3172 N   0  0  0  0  0  0  0  0  0  0  0  0
  -26.7696  -14.1476   23.6037 N   0  0  0  0  0  0  0  0  0  0  0  0
  -23.6254  -11.0617   24.5973 N   0  0  0  0  0  0  0  0  0  0  0  0
  -25.7590  -25.1027   18.1096 N   0  0  0  0  0  0  0  0  0  1  0  0
  -25.9124  -31.6374   23.9810 N   0  0  0  0  0  0  0  0  0  0  0  0
  -21.0775  -32.3546   19.6055 N   0  0  0  0  0  0  0  0  0  0  0  0
  -21.1133  -32.1380   15.9973 N   0  3  0  0  0  0  0  0  0  0  0  0
  -24.7876  -12.8640   25.4095 O   0  0  0  0  0  0  0  0  0  0  0  0
  -24.4687  -29.8896   23.4489 O   0  0  0  0  0  0  0  0  0  0  0  0
  -23.0268  -33.2430   21.5080 O   0  0  0  0  0  0  0  0  0  0  0  0
  -20.9589  -30.4709   18.2585 O   0  0  0  0  0  0  0  0  0  0  0  0
  -29.7770  -17.0036   19.4870 O   0  0  0  0  0  0  0  0  0  0  0  0
  -21.7448   -7.0651   21.2023 O   0  0  0  0  0  0  0  0  0  0  0  0
  -25.3043  -25.3419   19.3907 O   0  0  0  0  0  0  0  0  0  1  0  0
  -21.4387   -3.2704   25.1912 F   0  0  0  0  0  0  0  0  0  0  0  0
  -22.4315   -4.4326   20.7113 F   0  0  0  0  0  0  0  0  0  0  0  0
  1  2  1  0  0  0  0
  1  5  2  0  0  0  0
  2  6  2  0  0  0  0
  3  8  2  0  0  0  0
  3 17  1  0  0  0  0
  4  9  1  0  0  0  0
  4 17  2  0  0  0  0
  5 19  1  0  0  0  0
  6 21  1  0  0  0  0
  7 10  2  0  0  0  0
  7 20  1  0  0  0  0
  8 25  1  0  0  0  0
  9 25  2  0  0  0  0
 10 26  1  0  0  0  0
 11 12  2  0  0  0  0
 11 27  1  0  0  0  0
 12 28  1  0  0  0  0
 13 22  1  0  0  0  0
 13 26  2  0  0  0  0
 14 23  1  0  0  0  0
 14 31  2  0  0  0  0
 15 28  2  0  0  0  0
 15 29  1  0  0  0  0
 16 24  1  0  0  0  0
 16 63  2  0  0  0  0
 17 30  1  0  0  0  0
 18 30  1  0  0  0  0
 18 32  2  0  0  0  0
 18 33  1  0  0  0  0
 19 21  2  0  0  0  0
 19 38  1  0  0  0  0
 20 22  2  0  0  0  0
 20 39  1  0  0  0  0
 21 51  1  0  0  0  0
 22 40  1  0  0  0  0
 23 24  2  0  0  0  0
 23 72  1  0  0  0  0
 24 69  1  0  0  0  0
 25 81  1  0  0  0  0
 26 82  1  0  0  0  0
 27 29  2  0  0  0  0
 27 81  1  0  0  0  0
 28 83  1  0  0  0  0
 29 84  1  0  0  0  0
 30 64  2  0  0  0  0
 31 52  1  0  0  0  0
 31 63  1  0  0  0  0
 32 65  1  0  0  0  0
 32 70  1  0  0  0  0
 33 71  1  0  0  0  0
 33 76  2  0  0  0  0
 34 53  1  0  0  0  0
 34 73  1  0  0  0  0
 34 77  2  0  0  0  0
 35 60  1  0  0  0  0
 35 66  1  0  0  0  0
 35 78  2  0  0  0  0
 36 61  1  0  0  0  0
 36 74  1  0  0  0  0
 36 79  2  0  0  0  0
 37 67  1  0  0  0  0
 37 68  1  0  0  0  0
 37 80  2  0  0  0  0
 38 41  1  0  0  0  0
 39 53  1  0  0  0  0
 40 66  1  0  0  0  0
 41 43  1  0  0  0  0
 42 44  1  0  0  0  0
 42 47  1  0  0  0  0
 43 51  1  0  0  0  0
 44 54  1  0  0  0  0
 45 48  1  0  0  0  0
 45 52  1  0  0  0  0
 46 49  1  0  0  0  0
 46 52  1  0  0  0  0
 47 67  1  0  0  0  0
 48 68  1  0  0  0  0
 49 68  1  0  0  0  0
 50 54  1  0  0  0  0
 50 67  1  0  0  0  0
 51 73  1  0  0  0  0
 53 66  1  0  0  0  0
 54 65  1  0  0  0  0
 55 61  1  0  0  0  0
 56 62  1  0  0  0  0
 57 62  1  0  0  0  0
 58 62  1  0  0  0  0
 59 75  1  0  0  0  0
 60 62  1  0  0  0  0
 60 74  1  0  0  0  0
 61 75  1  0  0  0  0
 64 65  1  0  0  0  0
 72 82  1  0  0  0  0
M  CHG  1  75   1
M  ISO  4  37 100  68 100  72 101  82 101
M  END
> <Batch ID>
0152

> <Smiles>
CNC(C)C(=O)NC(C(=O)N1Cc2cc([101O:1][101NH:1]c3cc(C4CC[100N:0]([100C:0](=O)N5CCCC(n6nc(-c7ccc(Oc8ccc(F)cc8F)cc7)c(C(N)=O)c6N)C5)CC4)ncc3N)ccc2CC1C(=O)NC1CCCc2ccccc21)C(C)(C)C

> <Shape>
0.274

> <Color>
0.113

> <Negative vol penalty>
0.000

$$$$

  -OEChem-04052303273D

 82 91  0     1  0  0  0  0  0999 V2000
  -22.6937  -10.6515   19.1231 C   0  0  0  0  0  0  0  0  0  0  0  0
  -22.1103  -11.9125   19.1929 C   0  0  0  0  0  0  0  0  0  0  0  0
  -29.1818  -28.2581   19.3466 C   0  0  0  0  0  0  0  0  0  0  0  0
  -28.9444  -28.0065   21.7377 C   0  0  0  0  0  0  0  0  0  0  0  0
  -23.9642  -10.4418   19.6577 C   0  0  0  0  0  0  0  0  0  0  0  0
  -22.7968  -12.9645   19.7984 C   0  0  0  0  0  0  0  0  0  0  0  0
  -22.6517  -18.8697   18.1819 C   0  0  0  0  0  0  0  0  0  0  0  0
  -30.5698  -28.2563   19.4842 C   0  0  0  0  0  0  0  0  0  0  0  0
  -30.3325  -28.0046   21.8753 C   0  0  0  0  0  0  0  0  0  0  0  0
  -21.9387  -19.9606   18.6773 C   0  0  0  0  0  0  0  0  0  0  0  0
  -34.1787  -27.9554   19.1678 C   0  0  0  0  0  0  0  0  0  0  0  0
  -34.9178  -27.1783   18.2759 C   0  0  0  0  0  0  0  0  0  0  0  0
  -23.8309  -20.5691   20.0441 C   0  0  0  0  0  0  0  0  0  0  0  0
  -33.7654  -25.1992   19.0456 C   0  0  0  0  0  0  0  0  0  0  0  0
  -28.3691  -28.1333   20.4734 C   0  0  0  0  0  0  0  0  0  0  0  0
  -26.0988  -27.0211   20.1319 C   0  0  0  0  0  0  0  0  0  0  0  0
  -24.6706  -11.4940   20.2614 C   0  0  0  0  0  0  0  0  0  0  0  0
  -23.9580  -18.6137   18.6229 C   0  0  0  0  0  0  0  0  0  0  0  0
  -24.0774  -12.7684   20.3428 C   0  0  0  0  0  0  0  0  0  0  0  0
  -24.5593  -19.4758   19.5509 C   0  0  0  0  0  0  0  0  0  0  0  0
  -31.1452  -28.1295   20.7485 C   0  0  0  0  0  0  0  0  0  0  0  0
  -22.5272  -20.8088   19.6107 C   0  0  0  0  0  0  0  0  0  0  0  0
  -33.2331  -27.3545   19.9987 C   0  0  0  0  0  0  0  0  0  0  0  0
  -34.7111  -25.8002   18.2148 C   0  0  0  0  0  0  0  0  0  0  0  0
  -33.0264  -25.9763   19.9375 C   0  0  0  0  0  0  0  0  0  0  0  0
  -26.9351  -28.1357   20.3321 C   0  0  0  0  0  0  0  0  0  0  0  0
  -20.1710  -27.6031   21.6764 C   0  0  0  0  0  0  0  0  0  0  0  0
  -19.7839  -27.2387   22.9503 C   0  0  0  0  0  0  0  0  0  0  0  0
  -24.8330  -27.5497   20.0628 C   0  0  0  0  0  0  0  0  0  0  0  0
  -20.2157  -25.4274   21.4459 C   0  0  0  0  0  0  0  0  0  0  0  0
  -26.4360  -25.6321   20.0188 C   0  0  0  0  0  0  0  0  0  0  0  0
  -25.3775  -16.2224   20.1625 C   0  0  0  0  0  0  0  0  0  0  0  0
  -28.0616  -17.9386   19.5519 C   0  0  0  0  0  0  0  0  0  0  0  0
  -29.9132  -21.0229   19.2764 C   0  0  0  0  0  0  0  0  0  0  0  0
  -21.1183  -31.0823   22.4725 C   0  0  0  0  0  0  0  0  0  0  0  0
  -26.0217  -11.2078   20.8673 C   0  0  0  0  0  0  0  0  0  0  0  0
  -24.7234  -17.4481   18.0588 C   0  0  0  0  0  0  0  0  0  0  0  0
  -25.9664  -19.2563   20.0413 C   0  0  0  0  0  0  0  0  0  0  0  0
  -20.3003  -29.0188   21.2490 C   0  0  0  0  0  0  0  0  0  0  0  0
  -19.4967  -28.1946   24.0572 C   0  0  0  0  0  0  0  0  0  0  0  0
  -26.8373  -12.4649   21.1585 C   0  0  0  0  0  0  0  0  0  0  0  0
  -23.2372  -32.3278   19.6928 C   0  0  0  0  0  0  0  0  0  0  0  0
  -25.9748  -13.5109   21.8575 C   0  0  0  0  0  0  0  0  0  0  0  0
  -24.3634  -31.2953   19.6540 C   0  0  0  0  0  0  0  0  0  0  0  0
  -19.3861  -29.6257   23.4984 C   0  0  0  0  0  0  0  0  0  0  0  0
  -22.6331  -32.4579   21.0881 C   0  0  0  0  0  0  0  0  0  0  0  0
  -23.2971  -30.1363   21.6263 C   0  0  0  0  0  0  0  0  0  0  0  0
  -24.8007  -13.9406   20.9696 C   0  0  1  0  0  0  0  0  0  0  0  0
  -25.8621  -16.9871   18.9633 C   0  0  1  0  0  0  0  0  0  0  0  0
  -23.8879  -29.9468   20.2220 C   0  0  2  0  0  0  0  0  0  0  0  0
  -32.2826  -21.4456   18.5660 C   0  0  0  0  0  0  0  0  0  0  0  0
  -28.6747  -17.8065   22.5380 C   0  0  0  0  0  0  0  0  0  0  0  0
  -30.3214  -19.6638   22.2111 C   0  0  0  0  0  0  0  0  0  0  0  0
  -30.6586  -17.4818   21.0503 C   0  0  0  0  0  0  0  0  0  0  0  0
  -29.0665  -22.9331   17.1804 C   0  0  0  0  0  0  0  0  0  0  0  0
  -20.7790  -23.9598   19.5084 C   0  0  0  0  0  0  0  0  0  0  0  0
  -20.8657  -22.4679   19.2330 C   0  0  0  0  0  0  0  0  0  1  0  0
  -28.8189  -19.0301   20.2690 C   0  0  1  0  0  0  0  0  0  0  0  0
  -30.8242  -21.4371   18.1350 C   0  0  2  0  0  0  0  0  0  0  0  0
  -29.5912  -18.4988   21.5095 C   0  0  0  0  0  0  0  0  0  0  0  0
  -26.2577  -29.2855   20.3864 N   0  0  0  0  0  0  0  0  0  0  0  0
  -20.4168  -26.5612   20.8077 N   0  0  0  0  0  0  0  0  0  0  0  0
  -24.9823  -28.8963   20.2192 N   0  0  0  0  0  0  0  0  0  0  0  0
  -26.6715  -18.0996   19.4648 N   0  0  0  0  0  0  0  0  0  0  0  0
  -20.3952  -29.8791   22.4514 N   0  0  0  0  0  0  0  0  0  0  0  0
  -22.2383  -31.1567   21.6271 N   0  0  0  0  0  0  0  0  0  0  0  0
  -23.6179  -26.9893   19.8839 N   0  0  0  0  0  0  0  0  0  0  0  0
  -27.7845  -25.2621   20.1129 N   0  0  0  0  0  0  0  0  0  0  0  0
  -20.3701  -24.1971   20.8880 N   0  0  0  0  0  0  0  0  0  0  0  0
  -25.2500  -14.8631   19.9491 N   0  0  0  0  0  0  0  0  0  0  0  0
  -29.6653  -19.6666   19.2657 N   0  0  0  0  0  0  0  0  0  0  0  0
  -30.4675  -22.8029   17.6570 N   0  3  0  0  0  0  0  0  0  0  0  0
  -25.5688  -24.7472   19.8230 O   0  0  0  0  0  0  0  0  0  0  0  0
  -25.1386  -16.8210   21.2047 O   0  0  0  0  0  0  0  0  0  0  0  0
  -28.6814  -16.9822   19.0800 O   0  0  0  0  0  0  0  0  0  0  0  0
  -29.4690  -21.8221   20.0978 O   0  0  0  0  0  0  0  0  0  0  0  0
  -20.7899  -32.0265   23.2006 O   0  0  0  0  0  0  0  0  0  0  0  0
  -32.4996  -28.1275   20.8830 O   0  0  0  0  0  0  0  0  0  0  0  0
  -21.8284  -21.8813   20.0997 O   0  0  0  0  0  0  0  0  0  1  0  0
  -35.4198  -25.0542   17.3572 F   0  0  0  0  0  0  0  0  0  0  0  0
  -32.1185  -25.3935   20.7323 F   0  0  0  0  0  0  0  0  0  0  0  0
  -19.7270  -25.5460   23.0916 S   0  0  0  0  0  0  0  0  0  0  0  0
  1  2  1  0  0  0  0
  1  5  2  0  0  0  0
  2  6  2  0  0  0  0
  3  8  2  0  0  0  0
  3 15  1  0  0  0  0
  4  9  1  0  0  0  0
  4 15  2  0  0  0  0
  5 17  1  0  0  0  0
  6 19  1  0  0  0  0
  7 10  2  0  0  0  0
  7 18  1  0  0  0  0
  8 21  1  0  0  0  0
  9 21  2  0  0  0  0
 10 22  1  0  0  0  0
 11 12  2  0  0  0  0
 11 23  1  0  0  0  0
 12 24  1  0  0  0  0
 13 20  1  0  0  0  0
 13 22  2  0  0  0  0
 14 24  2  0  0  0  0
 14 25  1  0  0  0  0
 15 26  1  0  0  0  0
 16 26  1  0  0  0  0
 16 29  2  0  0  0  0
 16 31  1  0  0  0  0
 17 19  2  0  0  0  0
 17 36  1  0  0  0  0
 18 20  2  0  0  0  0
 18 37  1  0  0  0  0
 19 48  1  0  0  0  0
 20 38  1  0  0  0  0
 21 78  1  0  0  0  0
 22 79  1  0  0  0  0
 23 25  2  0  0  0  0
 23 78  1  0  0  0  0
 24 80  1  0  0  0  0
 25 81  1  0  0  0  0
 26 61  2  0  0  0  0
 27 28  2  0  0  0  0
 27 39  1  0  0  0  0
 27 62  1  0  0  0  0
 28 40  1  0  0  0  0
 28 82  1  0  0  0  0
 29 63  1  0  0  0  0
 29 67  1  0  0  0  0
 30 62  2  0  0  0  0
 30 69  1  0  0  0  0
 30 82  1  0  0  0  0
 31 68  1  0  0  0  0
 31 73  2  0  0  0  0
 32 49  1  0  0  0  0
 32 70  1  0  0  0  0
 32 74  2  0  0  0  0
 33 58  1  0  0  0  0
 33 64  1  0  0  0  0
 33 75  2  0  0  0  0
 34 59  1  0  0  0  0
 34 71  1  0  0  0  0
 34 76  2  0  0  0  0
 35 65  1  0  0  0  0
 35 66  1  0  0  0  0
 35 77  2  0  0  0  0
 36 41  1  0  0  0  0
 37 49  1  0  0  0  0
 38 64  1  0  0  0  0
 39 65  1  0  0  0  0
 40 45  1  0  0  0  0
 41 43  1  0  0  0  0
 42 44  1  0  0  0  0
 42 46  1  0  0  0  0
 43 48  1  0  0  0  0
 44 50  1  0  0  0  0
 45 65  1  0  0  0  0
 46 66  1  0  0  0  0
 47 50  1  0  0  0  0
 47 66  1  0  0  0  0
 48 70  1  0  0  0  0
 49 64  1  0  0  0  0
 50 63  1  0  0  0  0
 51 59  1  0  0  0  0
 52 60  1  0  0  0  0
 53 60  1  0  0  0  0
 54 60  1  0  0  0  0
 55 72  1  0  0  0  0
 56 57  1  0  0  0  0
 56 69  1  0  0  0  0
 57 79  1  0  0  0  0
 58 60  1  0  0  0  0
 58 71  1  0  0  0  0
 59 72  1  0  0  0  0
 61 63  1  0  0  0  0
M  CHG  1  72   1
M  ISO  4  35 100  57 101  65 100  79 101
M  END
> <Batch ID>
0152

> <Smiles>
CNC(C)C(=O)NC(C(=O)N1Cc2cc([101O:1][101CH2:1]CNc3nc4c(s3)CC[100N:0]([100C:0](=O)N3CCCC(n5nc(-c6ccc(Oc7ccc(F)cc7F)cc6)c(C(N)=O)c5N)C3)C4)ccc2CC1C(=O)NC1CCCc2ccccc21)C(C)(C)C

> <Shape>
0.250

> <Color>
0.061

> <Negative vol penalty>
0.000

$$$$

  -OEChem-04052303273D

 83 92  0     1  0  0  0  0  0999 V2000
  -26.3479  -11.0575   17.4447 C   0  0  0  0  0  0  0  0  0  0  0  0
  -25.5908  -12.1407   17.0102 C   0  0  0  0  0  0  0  0  0  0  0  0
  -29.6284  -26.6594   19.4189 C   0  0  0  0  0  0  0  0  0  0  0  0
  -29.2621  -26.8822   21.7966 C   0  0  0  0  0  0  0  0  0  0  0  0
  -26.5401  -10.8454   18.8092 C   0  0  0  0  0  0  0  0  0  0  0  0
  -25.0245  -13.0119   17.9401 C   0  0  0  0  0  0  0  0  0  0  0  0
  -23.2874  -19.9092   18.7918 C   0  0  0  0  0  0  0  0  0  0  0  0
  -30.9563  -26.3048   19.6567 C   0  0  0  0  0  0  0  0  0  0  0  0
  -30.5900  -26.5276   22.0344 C   0  0  0  0  0  0  0  0  0  0  0  0
  -22.2041  -20.7109   19.1490 C   0  0  0  0  0  0  0  0  0  0  0  0
  -33.7867  -25.3303   23.2858 C   0  0  0  0  0  0  0  0  0  0  0  0
  -34.0404  -24.4063   24.2994 C   0  0  0  0  0  0  0  0  0  0  0  0
  -19.2470  -29.8532   23.7262 C   0  0  0  0  0  0  0  0  0  0  0  0
  -22.6691  -20.2909   21.4785 C   0  0  0  0  0  0  0  0  0  0  0  0
  -32.6871  -22.7702   23.1466 C   0  0  0  0  0  0  0  0  0  0  0  0
  -18.1564  -29.1708   24.2186 C   0  0  0  0  0  0  0  0  0  0  0  0
  -28.7813  -26.9481   20.4889 C   0  0  0  0  0  0  0  0  0  0  0  0
  -26.4264  -26.5444   19.5948 C   0  0  0  0  0  0  0  0  0  0  0  0
  -25.9839  -11.7199   19.7561 C   0  0  0  0  0  0  0  0  0  0  0  0
  -24.0643  -19.2825   19.7767 C   0  0  0  0  0  0  0  0  0  0  0  0
  -25.2083  -12.8105   19.3186 C   0  0  0  0  0  0  0  0  0  0  0  0
  -23.7632  -19.4838   21.1313 C   0  0  0  0  0  0  0  0  0  0  0  0
  -20.0199  -29.0549   22.8343 C   0  0  0  0  0  0  0  0  0  0  0  0
  -31.4371  -26.2389   20.9644 C   0  0  0  0  0  0  0  0  0  0  0  0
  -21.8931  -20.8995   20.4924 C   0  0  0  0  0  0  0  0  0  0  0  0
  -32.9831  -24.9744   22.2026 C   0  0  0  0  0  0  0  0  0  0  0  0
  -33.4907  -23.1262   24.2298 C   0  0  0  0  0  0  0  0  0  0  0  0
  -32.4333  -23.6943   22.1330 C   0  0  0  0  0  0  0  0  0  0  0  0
  -27.4096  -27.3150   20.2439 C   0  0  0  0  0  0  0  0  0  0  0  0
  -19.4907  -27.7924   22.6793 C   0  0  0  0  0  0  0  0  0  0  0  0
  -25.3019  -27.3328   19.6174 C   0  0  0  0  0  0  0  0  0  0  0  0
  -26.5211  -25.2332   19.0226 C   0  0  0  0  0  0  0  0  0  0  0  0
  -24.7196  -16.2657   20.5337 C   0  0  0  0  0  0  0  0  0  0  0  0
  -26.7565  -17.6473   22.6465 C   0  0  0  0  0  0  0  0  0  0  0  0
  -27.5806  -20.3854   24.5095 C   0  0  0  0  0  0  0  0  0  0  0  0
  -21.8004  -30.7480   22.2778 C   0  0  0  0  0  0  0  0  0  0  0  0
  -26.1796  -11.4229   21.2217 C   0  0  0  0  0  0  0  0  0  0  0  0
  -25.2458  -18.4424   19.3756 C   0  0  0  0  0  0  0  0  0  0  0  0
  -24.5784  -18.8497   22.2276 C   0  0  0  0  0  0  0  0  0  0  0  0
  -25.8580  -12.6059   22.1312 C   0  0  0  0  0  0  0  0  0  0  0  0
  -24.7203  -32.2064   20.8550 C   0  0  0  0  0  0  0  0  0  0  0  0
  -24.5333  -13.2452   21.7272 C   0  0  0  0  0  0  0  0  0  0  0  0
  -18.9889  -26.2502   20.7398 C   0  0  0  0  0  0  0  0  0  0  0  0
  -25.5994  -31.0004   20.5158 C   0  0  0  0  0  0  0  0  0  0  0  0
  -19.5000  -25.0777   19.9025 C   0  0  0  0  0  0  0  0  0  0  0  0
  -23.9458  -31.9959   22.1548 C   0  0  0  0  0  0  0  0  0  0  0  0
  -24.0408  -29.5498   21.8773 C   0  0  0  0  0  0  0  0  0  0  0  0
  -20.3744  -25.4298   22.6928 C   0  0  0  0  0  0  0  0  0  0  0  0
  -24.5984  -13.7919   20.2959 C   0  0  1  0  0  0  0  0  0  0  0  0
  -19.9991  -26.6401   21.8322 C   0  0  2  0  0  0  0  0  0  0  0  0
  -25.6560  -17.4376   20.4478 C   0  0  1  0  0  0  0  0  0  0  0  0
  -24.7909  -29.6884   20.5424 C   0  0  2  0  0  0  0  0  0  0  0  0
  -19.8762  -23.8813   20.7758 C   0  0  1  0  0  0  0  0  0  0  0  0
  -29.2785  -21.2017   26.1673 C   0  0  0  0  0  0  0  0  0  0  0  0
  -25.4192  -15.9875   24.8298 C   0  0  0  0  0  0  0  0  0  0  0  0
  -26.4639  -17.5042   26.5258 C   0  0  0  0  0  0  0  0  0  0  0  0
  -27.9084  -16.1430   25.0148 C   0  0  0  0  0  0  0  0  0  0  0  0
  -28.4576  -22.5670   22.7121 C   0  0  0  0  0  0  0  0  0  0  0  0
  -20.5021  -22.7553   19.9658 C   0  0  0  0  0  0  0  0  0  1  0  0
  -26.6531  -18.1260   24.0745 C   0  0  1  0  0  0  0  0  0  0  0  0
  -28.8976  -21.1166   24.6974 C   0  0  2  0  0  0  0  0  0  0  0  0
  -26.5945  -16.9507   25.0908 C   0  0  0  0  0  0  0  0  0  0  0  0
  -26.9501  -28.5019   20.6492 N   0  0  0  0  0  0  0  0  0  0  0  0
  -25.6659  -28.4830   20.2537 N   0  0  0  0  0  0  0  0  0  0  0  0
  -25.7198  -18.0320   21.7846 N   0  0  0  0  0  0  0  0  0  0  0  0
  -23.2008  -30.7359   22.1059 N   0  0  0  0  0  0  0  0  0  0  0  0
  -24.0473  -27.1474   19.1550 N   0  0  0  0  0  0  0  0  0  0  0  0
  -26.2400  -24.1272   19.8363 N   0  0  0  0  0  0  0  0  0  0  0  0
  -21.1965  -29.4950   22.1788 N   0  0  0  0  0  0  0  0  0  0  0  0
  -25.3163  -15.0481   20.2669 N   0  0  0  0  0  0  0  0  0  0  0  0
  -27.7720  -19.0392   24.2810 N   0  0  0  0  0  0  0  0  0  0  0  0
  -20.8698  -24.3316   21.8067 N   0  3  0  0  0  0  0  0  0  0  0  0
  -28.8030  -22.5017   24.1555 N   0  3  0  0  0  0  0  0  0  0  0  0
  -26.8615  -25.0470   17.8297 O   0  0  0  0  0  0  0  0  0  0  0  0
  -23.5433  -16.4520   20.8221 O   0  0  0  0  0  0  0  0  0  0  0  0
  -27.7253  -16.9635   22.3066 O   0  0  0  0  0  0  0  0  0  0  0  0
  -26.4909  -20.9512   24.5639 O   0  0  0  0  0  0  0  0  0  0  0  0
  -21.1791  -31.7964   22.4698 O   0  0  0  0  0  0  0  0  0  0  0  0
  -32.7327  -25.8927   21.1968 O   0  0  0  0  0  0  0  0  0  0  0  0
  -20.8359  -21.6810   20.8438 O   0  0  0  0  0  0  0  0  0  1  0  0
  -33.7357  -22.2384   25.2024 F   0  0  0  0  0  0  0  0  0  0  0  0
  -31.6615  -23.3462   21.0943 F   0  0  0  0  0  0  0  0  0  0  0  0
  -18.0676  -27.5740   23.6063 S   0  0  0  0  0  0  0  0  0  0  0  0
  1  2  1  0  0  0  0
  1  5  2  0  0  0  0
  2  6  2  0  0  0  0
  3  8  2  0  0  0  0
  3 17  1  0  0  0  0
  4  9  1  0  0  0  0
  4 17  2  0  0  0  0
  5 19  1  0  0  0  0
  6 21  1  0  0  0  0
  7 10  2  0  0  0  0
  7 20  1  0  0  0  0
  8 24  1  0  0  0  0
  9 24  2  0  0  0  0
 10 25  1  0  0  0  0
 11 12  2  0  0  0  0
 11 26  1  0  0  0  0
 12 27  1  0  0  0  0
 13 16  2  0  0  0  0
 13 23  1  0  0  0  0
 14 22  1  0  0  0  0
 14 25  2  0  0  0  0
 15 27  2  0  0  0  0
 15 28  1  0  0  0  0
 16 83  1  0  0  0  0
 17 29  1  0  0  0  0
 18 29  1  0  0  0  0
 18 31  2  0  0  0  0
 18 32  1  0  0  0  0
 19 21  2  0  0  0  0
 19 37  1  0  0  0  0
 20 22  2  0  0  0  0
 20 38  1  0  0  0  0
 21 49  1  0  0  0  0
 22 39  1  0  0  0  0
 23 30  2  0  0  0  0
 23 69  1  0  0  0  0
 24 79  1  0  0  0  0
 25 80  1  0  0  0  0
 26 28  2  0  0  0  0
 26 79  1  0  0  0  0
 27 81  1  0  0  0  0
 28 82  1  0  0  0  0
 29 63  2  0  0  0  0
 30 50  1  0  0  0  0
 30 83  1  0  0  0  0
 31 64  1  0  0  0  0
 31 67  1  0  0  0  0
 32 68  1  0  0  0  0
 32 74  2  0  0  0  0
 33 51  1  0  0  0  0
 33 70  1  0  0  0  0
 33 75  2  0  0  0  0
 34 60  1  0  0  0  0
 34 65  1  0  0  0  0
 34 76  2  0  0  0  0
 35 61  1  0  0  0  0
 35 71  1  0  0  0  0
 35 77  2  0  0  0  0
 36 66  1  0  0  0  0
 36 69  1  0  0  0  0
 36 78  2  0  0  0  0
 37 40  1  0  0  0  0
 38 51  1  0  0  0  0
 39 65  1  0  0  0  0
 40 42  1  0  0  0  0
 41 44  1  0  0  0  0
 41 46  1  0  0  0  0
 42 49  1  0  0  0  0
 43 45  1  0  0  0  0
 43 50  1  0  0  0  0
 44 52  1  0  0  0  0
 45 53  1  0  0  0  0
 46 66  1  0  0  0  0
 47 52  1  0  0  0  0
 47 66  1  0  0  0  0
 48 50  1  0  0  0  0
 48 72  1  0  0  0  0
 49 70  1  0  0  0  0
 51 65  1  0  0  0  0
 52 64  1  0  0  0  0
 53 59  1  0  0  0  0
 53 72  1  0  0  0  0
 54 61  1  0  0  0  0
 55 62  1  0  0  0  0
 56 62  1  0  0  0  0
 57 62  1  0  0  0  0
 58 73  1  0  0  0  0
 59 80  1  0  0  0  0
 60 62  1  0  0  0  0
 60 71  1  0  0  0  0
 61 73  1  0  0  0  0
 63 64  1  0  0  0  0
M  CHG  2  72   1  73   1
M  ISO  4  36 100  59 101  69 100  80 101
M  END
> <Batch ID>
0152

> <Smiles>
CNC(C)C(=O)NC(C(=O)N1Cc2cc([101O:1][101CH2:1]C3CCC(c4sccc4[100NH:0][100C:0](=O)N4CCCC(n5nc(-c6ccc(Oc7ccc(F)cc7F)cc6)c(C(N)=O)c5N)C4)CN3)ccc2CC1C(=O)NC1CCCc2ccccc21)C(C)(C)C

> <Shape>
0.192

> <Color>
0.080

> <Negative vol penalty>
0.000

$$$$

  -OEChem-04052303273D

 87 96  0     1  0  0  0  0  0999 V2000
  -31.5910  -35.0120   22.9440 C   0  0  0  0  0  0  0  0  0  0  0  0
  -31.5180  -33.6847   23.3545 C   0  0  0  0  0  0  0  0  0  0  0  0
  -23.0767   -9.8659   19.9408 C   0  0  0  0  0  0  0  0  0  0  0  0
  -23.8354   -9.8743   22.2345 C   0  0  0  0  0  0  0  0  0  0  0  0
  -31.2803  -35.3515   21.6279 C   0  0  0  0  0  0  0  0  0  0  0  0
  -31.1332  -32.6963   22.4493 C   0  0  0  0  0  0  0  0  0  0  0  0
  -33.1648  -26.9236   22.2178 C   0  0  0  0  0  0  0  0  0  0  0  0
  -22.3333   -8.7125   20.1909 C   0  0  0  0  0  0  0  0  0  0  0  0
  -23.0919   -8.7209   22.4847 C   0  0  0  0  0  0  0  0  0  0  0  0
  -32.6375  -25.7238   22.6937 C   0  0  0  0  0  0  0  0  0  0  0  0
  -19.8639   -7.9218   23.0859 C   0  0  0  0  0  0  0  0  0  0  0  0
  -19.1063   -7.8820   24.2564 C   0  0  0  0  0  0  0  0  0  0  0  0
  -31.8474  -18.3668   24.1987 C   0  0  0  0  0  0  0  0  0  0  0  0
  -32.0593  -16.6128   22.5509 C   0  0  0  0  0  0  0  0  0  0  0  0
  -31.6892  -25.2851   20.5194 C   0  0  0  0  0  0  0  0  0  0  0  0
  -29.8748  -17.4620   23.1371 C   0  0  0  0  0  0  0  0  0  0  0  0
  -20.3483   -5.9455   24.9944 C   0  0  0  0  0  0  0  0  0  0  0  0
  -23.8279  -10.4468   20.9626 C   0  0  0  0  0  0  0  0  0  0  0  0
  -32.6462  -17.4991   23.4541 C   0  0  0  0  0  0  0  0  0  0  0  0
  -24.1685  -12.9720   20.8416 C   0  0  0  0  0  0  0  0  0  0  0  0
  -30.9008  -34.3655   20.7036 C   0  0  0  0  0  0  0  0  0  0  0  0
  -32.9486  -27.3190   20.8899 C   0  0  0  0  0  0  0  0  0  0  0  0
  -30.8158  -33.0232   21.1200 C   0  0  0  0  0  0  0  0  0  0  0  0
  -32.2169  -26.4891   20.0284 C   0  0  0  0  0  0  0  0  0  0  0  0
  -30.4616  -18.3483   24.0403 C   0  0  0  0  0  0  0  0  0  0  0  0
  -30.6736  -16.5942   22.3924 C   0  0  0  0  0  0  0  0  0  0  0  0
  -22.3409   -8.1400   21.4628 C   0  0  0  0  0  0  0  0  0  0  0  0
  -31.8972  -24.9058   21.8453 C   0  0  0  0  0  0  0  0  0  0  0  0
  -20.8636   -6.9734   22.8695 C   0  0  0  0  0  0  0  0  0  0  0  0
  -19.3486   -6.8939   25.2107 C   0  0  0  0  0  0  0  0  0  0  0  0
  -21.1058   -5.9853   23.8238 C   0  0  0  0  0  0  0  0  0  0  0  0
  -24.5965  -11.6379   20.7047 C   0  0  0  0  0  0  0  0  0  0  0  0
  -25.2605  -13.7219   20.4786 C   0  0  0  0  0  0  0  0  0  0  0  0
  -29.5234  -22.6656   23.3372 C   0  0  0  0  0  0  0  0  0  0  0  0
  -30.1280  -23.7546   22.8529 C   0  0  0  0  0  0  0  0  0  1  0  0
  -34.0828  -17.5190   23.6184 C   0  0  0  0  0  0  0  0  0  0  0  0
  -22.8976  -13.4874   21.2597 C   0  0  0  0  0  0  0  0  0  0  0  0
  -31.5048  -29.7800   19.4890 C   0  0  0  0  0  0  0  0  0  0  0  0
  -32.7269  -28.4592   16.7900 C   0  0  0  0  0  0  0  0  0  0  0  0
  -33.8947  -25.6748   15.1993 C   0  0  0  0  0  0  0  0  0  0  0  0
  -30.7261  -14.7702   20.6556 C   0  0  0  0  0  0  0  0  0  0  0  0
  -30.5286  -34.7871   19.3042 C   0  0  0  0  0  0  0  0  0  0  0  0
  -33.5467  -28.6033   20.3846 C   0  0  0  0  0  0  0  0  0  0  0  0
  -31.9735  -26.8584   18.5887 C   0  0  0  0  0  0  0  0  0  0  0  0
  -28.1533  -22.6287   23.9457 C   0  0  0  0  0  0  0  0  0  0  0  0
  -30.1342  -21.3024   23.4110 C   0  0  0  0  0  0  0  0  0  0  0  0
  -30.4917  -33.6301   18.3090 C   0  0  0  0  0  0  0  0  0  0  0  0
  -29.6141  -12.3548   18.2879 C   0  0  0  0  0  0  0  0  0  0  0  0
  -29.7341  -32.4440   18.8973 C   0  0  0  0  0  0  0  0  0  0  0  0
  -28.1744  -12.0627   18.7168 C   0  0  0  0  0  0  0  0  0  0  0  0
  -30.5285  -12.5846   19.4899 C   0  0  0  0  0  0  0  0  0  0  0  0
  -28.6205  -13.3087   20.8698 C   0  0  0  0  0  0  0  0  0  0  0  0
  -28.1815  -21.3720   24.8056 C   0  0  0  0  0  0  0  0  0  0  0  0
  -30.4263  -31.9192   20.1610 C   0  0  1  0  0  0  0  0  0  0  0  0
  -32.8293  -29.1536   19.1558 C   0  0  1  0  0  0  0  0  0  0  0  0
  -27.6483  -13.1345   19.6916 C   0  0  2  0  0  0  0  0  0  0  0  0
  -34.7861  -24.8989   12.9856 C   0  0  0  0  0  0  0  0  0  0  0  0
  -29.9005  -28.4973   15.6413 C   0  0  0  0  0  0  0  0  0  0  0  0
  -30.6679  -26.8877   13.8839 C   0  0  0  0  0  0  0  0  0  0  0  0
  -31.6919  -29.1580   14.0262 C   0  0  0  0  0  0  0  0  0  0  0  0
  -36.4843  -24.8783   16.3902 C   0  0  0  0  0  0  0  0  0  0  0  0
  -29.6025  -19.2823   24.8406 C   0  0  0  0  0  0  0  0  0  0  0  0
  -32.2486  -27.4343   15.7901 C   0  0  1  0  0  0  0  0  0  0  0  0
  -35.1391  -25.4404   14.3621 C   0  0  2  0  0  0  0  0  0  0  0  0
  -31.1300  -27.9880   14.8630 C   0  0  0  0  0  0  0  0  0  0  0  0
  -25.8616  -11.5425   20.2871 N   0  0  0  0  0  0  0  0  0  0  0  0
  -26.2380  -12.8262   20.1584 N   0  0  0  0  0  0  0  0  0  0  0  0
  -32.5735  -28.1270   18.1435 N   0  0  0  0  0  0  0  0  0  0  0  0
  -29.9686  -13.6155   20.3665 N   0  0  0  0  0  0  0  0  0  0  0  0
  -25.4703  -15.0534   20.4051 N   0  0  0  0  0  0  0  0  0  0  0  0
  -34.6573  -18.3695   24.4856 N   0  0  0  0  0  0  0  0  0  0  0  0
  -21.8859  -12.5779   21.5968 N   0  0  0  0  0  0  0  0  0  0  0  0
  -30.0779  -15.6953   21.4733 N   0  0  0  0  0  0  0  0  0  0  0  0
  -31.5819  -31.1218   19.8102 N   0  0  0  0  0  0  0  0  0  0  0  0
  -33.4364  -26.9700   15.0817 N   0  0  0  0  0  0  0  0  0  0  0  0
  -34.8613  -16.6861   22.9074 N   0  3  0  0  0  0  0  0  0  0  0  0
  -29.0747  -20.4242   24.0375 N   0  3  2  0  0  0  0  0  0  0  0  0
  -36.0395  -24.4621   15.0352 N   0  3  0  0  0  0  0  0  0  0  0  0
  -22.6607  -14.7180   21.3164 O   0  0  0  0  0  0  0  0  0  0  0  0
  -30.4880  -29.0969   19.4556 O   0  0  0  0  0  0  0  0  0  0  0  0
  -33.2250  -29.5126   16.3852 O   0  0  0  0  0  0  0  0  0  0  0  0
  -33.3784  -24.7958   15.8859 O   0  0  0  0  0  0  0  0  0  0  0  0
  -31.8554  -14.9392   20.1885 O   0  0  0  0  0  0  0  0  0  0  0  0
  -21.6153   -7.0147   21.7073 O   0  0  0  0  0  0  0  0  0  0  0  0
  -31.3809  -23.7346   22.3074 O   0  0  0  0  0  0  0  0  0  1  0  0
  -18.6221   -6.8568   26.3354 F   0  0  0  0  0  0  0  0  0  0  0  0
  -22.0657   -5.0721   23.6220 F   0  0  0  0  0  0  0  0  0  0  0  0
  1  2  1  0  0  0  0
  1  5  2  0  0  0  0
  2  6  2  0  0  0  0
  3  8  2  0  0  0  0
  3 18  1  0  0  0  0
  4  9  1  0  0  0  0
  4 18  2  0  0  0  0
  5 21  1  0  0  0  0
  6 23  1  0  0  0  0
  7 10  2  0  0  0  0
  7 22  1  0  0  0  0
  8 27  1  0  0  0  0
  9 27  2  0  0  0  0
 10 28  1  0  0  0  0
 11 12  2  0  0  0  0
 11 29  1  0  0  0  0
 12 30  1  0  0  0  0
 13 19  1  0  0  0  0
 13 25  2  0  0  0  0
 14 19  2  0  0  0  0
 14 26  1  0  0  0  0
 15 24  1  0  0  0  0
 15 28  2  0  0  0  0
 16 25  1  0  0  0  0
 16 26  2  0  0  0  0
 17 30  2  0  0  0  0
 17 31  1  0  0  0  0
 18 32  1  0  0  0  0
 19 36  1  0  0  0  0
 20 32  1  0  0  0  0
 20 33  2  0  0  0  0
 20 37  1  0  0  0  0
 21 23  2  0  0  0  0
 21 42  1  0  0  0  0
 22 24  2  0  0  0  0
 22 43  1  0  0  0  0
 23 54  1  0  0  0  0
 24 44  1  0  0  0  0
 25 62  1  0  0  0  0
 26 73  1  0  0  0  0
 27 84  1  0  0  0  0
 28 85  1  0  0  0  0
 29 31  2  0  0  0  0
 29 84  1  0  0  0  0
 30 86  1  0  0  0  0
 31 87  1  0  0  0  0
 32 66  2  0  0  0  0
 33 67  1  0  0  0  0
 33 70  1  0  0  0  0
 34 35  2  0  0  0  0
 34 45  1  0  0  0  0
 34 46  1  0  0  0  0
 35 85  1  0  0  0  0
 36 71  1  0  0  0  0
 36 76  2  0  0  0  0
 37 72  1  0  0  0  0
 37 79  2  0  0  0  0
 38 55  1  0  0  0  0
 38 74  1  0  0  0  0
 38 80  2  0  0  0  0
 39 63  1  0  0  0  0
 39 68  1  0  0  0  0
 39 81  2  0  0  0  0
 40 64  1  0  0  0  0
 40 75  1  0  0  0  0
 40 82  2  0  0  0  0
 41 69  1  0  0  0  0
 41 73  1  0  0  0  0
 41 83  2  0  0  0  0
 42 47  1  0  0  0  0
 43 55  1  0  0  0  0
 44 68  1  0  0  0  0
 45 53  1  0  0  0  0
 46 77  1  0  0  0  0
 47 49  1  0  0  0  0
 48 50  1  0  0  0  0
 48 51  1  0  0  0  0
 49 54  1  0  0  0  0
 50 56  1  0  0  0  0
 51 69  1  0  0  0  0
 52 56  1  0  0  0  0
 52 69  1  0  0  0  0
 53 77  1  0  0  0  0
 54 74  1  0  0  0  0
 55 68  1  0  0  0  0
 56 67  1  0  0  0  0
 57 64  1  0  0  0  0
 58 65  1  0  0  0  0
 59 65  1  0  0  0  0
 60 65  1  0  0  0  0
 61 78  1  0  0  0  0
 62 77  1  0  0  0  0
 63 65  1  0  0  0  0
 63 75  1  0  0  0  0
 64 78  1  0  0  0  0
 66 67  1  0  0  0  0
M  CHG  3  76   1  77   1  78   1
M  ISO  4  35 101  41 100  73 100  85 101
M  END
> <Batch ID>
0152

> <Smiles>
CNC(C)C(=O)NC(C(=O)N1Cc2cc([101O:1][101CH:1]=C3CCN(Cc4cc([100NH:0][100C:0](=O)N5CCCC(n6nc(-c7ccc(Oc8ccc(F)cc8F)cc7)c(C(N)=O)c6N)C5)cc(C(=N)N)c4)C3)ccc2CC1C(=O)NC1CCCc2ccccc21)C(C)(C)C

> <Shape>
0.181

> <Color>
0.176

> <Negative vol penalty>
0.000

$$$$

  -OEChem-04052303273D

 84 93  0     1  0  0  0  0  0999 V2000
  -24.8108  -36.5467   18.9879 C   0  0  0  0  0  0  0  0  0  0  0  0
  -25.8878  -35.7308   18.6566 C   0  0  0  0  0  0  0  0  0  0  0  0
  -31.2854  -19.1188   19.9079 C   0  0  0  0  0  0  0  0  0  0  0  0
  -22.6016  -12.2180   21.9078 C   0  0  0  0  0  0  0  0  0  0  0  0
  -23.9855  -10.3490   22.5624 C   0  0  0  0  0  0  0  0  0  0  0  0
  -24.0717  -36.2892   20.1417 C   0  0  0  0  0  0  0  0  0  0  0  0
  -26.2270  -34.6575   19.4796 C   0  0  0  0  0  0  0  0  0  0  0  0
  -26.9296  -27.0680   17.7669 C   0  0  0  0  0  0  0  0  0  0  0  0
  -30.2459  -20.0408   20.0295 C   0  0  0  0  0  0  0  0  0  0  0  0
  -31.0167  -17.7517   19.9759 C   0  0  0  0  0  0  0  0  0  0  0  0
  -21.7624  -11.9776   22.9957 C   0  0  0  0  0  0  0  0  0  0  0  0
  -23.1462  -10.1085   23.6503 C   0  0  0  0  0  0  0  0  0  0  0  0
  -26.9308  -25.6806   17.6211 C   0  0  0  0  0  0  0  0  0  0  0  0
  -20.1434   -8.6583   24.2074 C   0  0  0  0  0  0  0  0  0  0  0  0
  -19.7661   -7.3386   24.4557 C   0  0  0  0  0  0  0  0  0  0  0  0
  -26.3874  -25.4234   19.9634 C   0  0  0  0  0  0  0  0  0  0  0  0
  -28.6688  -18.2288   20.2875 C   0  0  0  0  0  0  0  0  0  0  0  0
  -20.7878   -7.4578   26.6418 C   0  0  0  0  0  0  0  0  0  0  0  0
  -23.7132  -11.4037   21.6912 C   0  0  0  0  0  0  0  0  0  0  0  0
  -24.2295  -11.6385   19.2040 C   0  0  0  0  0  0  0  0  0  0  0  0
  -24.3961  -35.2065   20.9742 C   0  0  0  0  0  0  0  0  0  0  0  0
  -26.6418  -27.6394   19.0095 C   0  0  0  0  0  0  0  0  0  0  0  0
  -25.4924  -34.3861   20.6464 C   0  0  0  0  0  0  0  0  0  0  0  0
  -26.3725  -26.8127   20.1126 C   0  0  0  0  0  0  0  0  0  0  0  0
  -28.9376  -19.5959   20.2194 C   0  0  0  0  0  0  0  0  0  0  0  0
  -29.7084  -17.3068   20.1657 C   0  0  0  0  0  0  0  0  0  0  0  0
  -22.0347  -10.9229   23.8669 C   0  0  0  0  0  0  0  0  0  0  0  0
  -26.6606  -24.8604   18.7168 C   0  0  0  0  0  0  0  0  0  0  0  0
  -20.8429   -9.3778   25.1763 C   0  0  0  0  0  0  0  0  0  0  0  0
  -20.0883   -6.7383   25.6728 C   0  0  0  0  0  0  0  0  0  0  0  0
  -21.1651   -8.7775   26.3935 C   0  0  0  0  0  0  0  0  0  0  0  0
  -24.5803  -11.6512   20.5673 C   0  0  0  0  0  0  0  0  0  0  0  0
  -25.3989  -11.9312   18.5458 C   0  0  0  0  0  0  0  0  0  0  0  0
  -25.8081  -22.4280   20.5372 C   0  0  0  0  0  0  0  0  0  0  0  0
  -22.9600  -11.3849   18.5877 C   0  0  0  0  0  0  0  0  0  0  0  0
  -26.2016  -30.7787   21.0162 C   0  0  0  0  0  0  0  0  0  0  0  0
  -24.0091  -28.8310   21.9163 C   0  0  0  0  0  0  0  0  0  0  0  0
  -21.4974  -26.5587   22.3222 C   0  0  0  0  0  0  0  0  0  0  0  0
  -30.3521  -14.8714   20.1354 C   0  0  0  0  0  0  0  0  0  0  0  0
  -23.5971  -34.9961   22.2360 C   0  0  0  0  0  0  0  0  0  0  0  0
  -26.6899  -29.1274   19.2269 C   0  0  0  0  0  0  0  0  0  0  0  0
  -26.1023  -27.4707   21.4381 C   0  0  0  0  0  0  0  0  0  0  0  0
  -26.0307  -21.4475   21.6628 C   0  0  0  0  0  0  0  0  0  0  0  0
  -23.7902  -33.6146   22.8560 C   0  0  0  0  0  0  0  0  0  0  0  0
  -30.1491  -11.5085   18.9833 C   0  0  0  0  0  0  0  0  0  0  0  0
  -25.2718  -33.2556   22.9090 C   0  0  0  0  0  0  0  0  0  0  0  0
  -28.6650  -11.1643   19.1290 C   0  0  0  0  0  0  0  0  0  0  0  0
  -26.7198  -20.1862   21.1541 C   0  0  0  0  0  0  0  0  0  0  0  0
  -30.6382  -12.4030   20.1211 C   0  0  0  0  0  0  0  0  0  0  0  0
  -27.6685  -21.4360   19.2139 C   0  0  0  0  0  0  0  0  0  0  0  0
  -28.3635  -13.2774   20.4822 C   0  0  0  0  0  0  0  0  0  0  0  0
  -25.8761  -33.1974   21.5008 C   0  0  1  0  0  0  0  0  0  0  0  0
  -27.0294  -22.7343   19.6924 C   0  0  1  0  0  0  0  0  0  1  0  0
  -25.6418  -29.6236   20.2392 C   0  0  1  0  0  0  0  0  0  0  0  0
  -27.8092  -12.4312   19.3244 C   0  0  2  0  0  0  0  0  0  0  0  0
  -19.3896  -26.1643   23.6256 C   0  0  0  0  0  0  0  0  0  0  0  0
  -25.6672  -28.1370   24.3806 C   0  0  0  0  0  0  0  0  0  0  0  0
  -23.6894  -26.8871   25.2719 C   0  0  0  0  0  0  0  0  0  0  0  0
  -23.5310  -29.3433   24.8660 C   0  0  0  0  0  0  0  0  0  0  0  0
  -19.8566  -26.4586   19.8611 C   0  0  0  0  0  0  0  0  0  0  0  0
  -23.5899  -27.7624   22.8938 C   0  0  1  0  0  0  0  0  0  0  0  0
  -19.9879  -26.7182   22.3419 C   0  0  2  0  0  0  0  0  0  0  0  0
  -24.1304  -28.0259   24.3277 C   0  0  0  0  0  0  0  0  0  0  0  0
  -25.8715  -11.9297   20.7649 N   0  0  0  0  0  0  0  0  0  0  0  0
  -26.3424  -12.0947   19.5170 N   0  0  0  0  0  0  0  0  0  0  0  0
  -27.8948  -20.5212   20.3408 N   0  0  2  0  0  0  0  0  0  0  0  0
  -25.2255  -28.6372   21.2505 N   0  0  0  0  0  0  0  0  0  0  0  0
  -29.7824  -13.5851   20.2440 N   0  0  0  0  0  0  0  0  0  0  0  0
  -25.7019  -12.0620   17.2368 N   0  0  0  0  0  0  0  0  0  0  0  0
  -21.8623  -11.1003   19.4114 N   0  0  0  0  0  0  0  0  0  0  0  0
  -29.4361  -15.9180   20.2360 N   0  0  0  0  0  0  0  0  0  0  0  0
  -25.5083  -31.9615   20.8437 N   0  0  0  0  0  0  0  0  0  0  0  0
  -22.1358  -27.6796   22.8093 N   0  0  0  0  0  0  0  0  0  0  0  0
  -19.3759  -25.9984   21.1893 N   0  3  0  0  0  0  0  0  0  0  0  0
  -24.7281  -22.9919   20.3752 O   0  0  0  0  0  0  0  0  0  0  0  0
  -22.8073  -11.3937   17.3427 O   0  0  0  0  0  0  0  0  0  0  0  0
  -27.1890  -30.6102   21.7221 O   0  0  0  0  0  0  0  0  0  0  0  0
  -23.2825  -29.8147   21.7497 O   0  0  0  0  0  0  0  0  0  0  0  0
  -22.0543  -25.5401   21.9188 O   0  0  0  0  0  0  0  0  0  0  0  0
  -31.5593  -15.0320   19.9384 O   0  0  0  0  0  0  0  0  0  0  0  0
  -21.2160  -10.6881   24.9286 O   0  0  0  0  0  0  0  0  0  0  0  0
  -26.6589  -23.5068   18.5664 O   0  0  0  0  0  0  0  0  0  1  0  0
  -19.7247   -5.4715   25.9117 F   0  0  0  0  0  0  0  0  0  0  0  0
  -21.8359   -9.4640   27.3286 F   0  0  0  0  0  0  0  0  0  0  0  0
  1  2  1  0  0  0  0
  1  6  2  0  0  0  0
  2  7  2  0  0  0  0
  3  9  2  0  0  0  0
  3 10  1  0  0  0  0
  4 11  2  0  0  0  0
  4 19  1  0  0  0  0
  5 12  1  0  0  0  0
  5 19  2  0  0  0  0
  6 21  1  0  0  0  0
  7 23  1  0  0  0  0
  8 13  2  0  0  0  0
  8 22  1  0  0  0  0
  9 25  1  0  0  0  0
 10 26  2  0  0  0  0
 11 27  1  0  0  0  0
 12 27  2  0  0  0  0
 13 28  1  0  0  0  0
 14 15  2  0  0  0  0
 14 29  1  0  0  0  0
 15 30  1  0  0  0  0
 16 24  1  0  0  0  0
 16 28  2  0  0  0  0
 17 25  2  0  0  0  0
 17 26  1  0  0  0  0
 18 30  2  0  0  0  0
 18 31  1  0  0  0  0
 19 32  1  0  0  0  0
 20 32  1  0  0  0  0
 20 33  2  0  0  0  0
 20 35  1  0  0  0  0
 21 23  2  0  0  0  0
 21 40  1  0  0  0  0
 22 24  2  0  0  0  0
 22 41  1  0  0  0  0
 23 52  1  0  0  0  0
 24 42  1  0  0  0  0
 25 66  1  0  0  0  0
 26 71  1  0  0  0  0
 27 81  1  0  0  0  0
 28 82  1  0  0  0  0
 29 31  2  0  0  0  0
 29 81  1  0  0  0  0
 30 83  1  0  0  0  0
 31 84  1  0  0  0  0
 32 64  2  0  0  0  0
 33 65  1  0  0  0  0
 33 69  1  0  0  0  0
 34 43  1  0  0  0  0
 34 53  1  0  0  0  0
 34 75  2  0  0  0  0
 35 70  1  0  0  0  0
 35 76  2  0  0  0  0
 36 54  1  0  0  0  0
 36 72  1  0  0  0  0
 36 77  2  0  0  0  0
 37 61  1  0  0  0  0
 37 67  1  0  0  0  0
 37 78  2  0  0  0  0
 38 62  1  0  0  0  0
 38 73  1  0  0  0  0
 38 79  2  0  0  0  0
 39 68  1  0  0  0  0
 39 71  1  0  0  0  0
 39 80  2  0  0  0  0
 40 44  1  0  0  0  0
 41 54  1  0  0  0  0
 42 67  1  0  0  0  0
 43 48  1  0  0  0  0
 44 46  1  0  0  0  0
 45 47  1  0  0  0  0
 45 49  1  0  0  0  0
 46 52  1  0  0  0  0
 47 55  1  0  0  0  0
 48 66  1  0  0  0  0
 49 68  1  0  0  0  0
 50 53  1  0  0  0  0
 50 66  1  0  0  0  0
 51 55  1  0  0  0  0
 51 68  1  0  0  0  0
 52 72  1  0  0  0  0
 53 82  1  0  0  0  0
 54 67  1  0  0  0  0
 55 65  1  0  0  0  0
 56 62  1  0  0  0  0
 57 63  1  0  0  0  0
 58 63  1  0  0  0  0
 59 63  1  0  0  0  0
 60 74  1  0  0  0  0
 61 63  1  0  0  0  0
 61 73  1  0  0  0  0
 62 74  1  0  0  0  0
 64 65  1  0  0  0  0
M  CHG  1  74   1
M  ISO  4  39 100  53 101  71 100  82 101
M  END
> <Batch ID>
0152

> <Smiles>
CNC(C)C(=O)NC(C(=O)N1Cc2cc([101O:1][101CH:1]3CN(c4cccc([100NH:0][100C:0](=O)N5CCCC(n6nc(-c7ccc(Oc8ccc(F)cc8F)cc7)c(C(N)=O)c6N)C5)c4)CCC3=O)ccc2CC1C(=O)NC1CCCc2ccccc21)C(C)(C)C

> <Shape>
0.247

> <Color>
0.074

> <Negative vol penalty>
0.000

$$$$

  -OEChem-04052303273D

 82 90  0     1  0  0  0  0  0999 V2000
  -28.1152  -38.4218   24.9043 C   0  0  0  0  0  0  0  0  0  0  0  0
  -28.7734  -37.2221   24.6535 C   0  0  0  0  0  0  0  0  0  0  0  0
  -23.3914   -9.5934   20.8808 C   0  0  0  0  0  0  0  0  0  0  0  0
  -24.0155  -10.3238   23.0976 C   0  0  0  0  0  0  0  0  0  0  0  0
  -26.8249  -38.4106   25.4322 C   0  0  0  0  0  0  0  0  0  0  0  0
  -28.1418  -36.0103   24.9316 C   0  0  0  0  0  0  0  0  0  0  0  0
  -28.6774  -30.7756   21.7985 C   0  0  0  0  0  0  0  0  0  0  0  0
  -22.7507   -8.4816   21.4274 C   0  0  0  0  0  0  0  0  0  0  0  0
  -23.3747   -9.2119   23.6443 C   0  0  0  0  0  0  0  0  0  0  0  0
  -29.4469  -29.6319   22.0075 C   0  0  0  0  0  0  0  0  0  0  0  0
  -23.6268   -5.4599   22.6630 C   0  0  0  0  0  0  0  0  0  0  0  0
  -23.8471   -4.2230   22.0571 C   0  0  0  0  0  0  0  0  0  0  0  0
  -31.1335  -19.7695   20.9100 C   0  0  0  0  0  0  0  0  0  0  0  0
  -31.2059  -18.3745   20.6295 C   0  0  0  0  0  0  0  0  0  0  0  0
  -27.5712  -28.5762   23.0967 C   0  0  0  0  0  0  0  0  0  0  0  0
  -21.4816   -4.0214   21.6087 C   0  0  0  0  0  0  0  0  0  0  0  0
  -24.0239  -10.5145   21.7158 C   0  0  0  0  0  0  0  0  0  0  0  0
  -24.1238  -12.9273   20.8937 C   0  0  0  0  0  0  0  0  0  0  0  0
  -26.1735  -37.1980   25.7079 C   0  0  0  0  0  0  0  0  0  0  0  0
  -27.3502  -30.8323   22.2475 C   0  0  0  0  0  0  0  0  0  0  0  0
  -26.8420  -35.9829   25.4650 C   0  0  0  0  0  0  0  0  0  0  0  0
  -26.7862  -29.7208   22.8899 C   0  0  0  0  0  0  0  0  0  0  0  0
  -22.7423   -8.2908   22.8091 C   0  0  0  0  0  0  0  0  0  0  0  0
  -28.8948  -28.5330   22.6592 C   0  0  0  0  0  0  0  0  0  0  0  0
  -22.3339   -5.9776   22.7418 C   0  0  0  0  0  0  0  0  0  0  0  0
  -22.7745   -3.5038   21.5299 C   0  0  0  0  0  0  0  0  0  0  0  0
  -21.2613   -5.2584   22.2147 C   0  0  0  0  0  0  0  0  0  0  0  0
  -24.6864  -11.6629   21.1517 C   0  0  0  0  0  0  0  0  0  0  0  0
  -25.1564  -13.6607   20.3624 C   0  0  0  0  0  0  0  0  0  0  0  0
  -29.9250  -20.1231   21.4686 C   0  0  0  0  0  0  0  0  0  0  0  0
  -30.0498  -17.7147   20.9847 C   0  0  0  0  0  0  0  0  0  0  0  0
  -22.7873  -13.3970   21.1148 C   0  0  0  0  0  0  0  0  0  0  0  0
  -25.7594  -32.6400   24.3224 C   0  0  0  0  0  0  0  0  0  0  0  0
  -23.1969  -31.0089   23.1841 C   0  0  0  0  0  0  0  0  0  0  0  0
  -30.0908  -22.6071   21.8485 C   0  0  0  0  0  0  0  0  0  0  0  0
  -21.9917  -28.2000   21.6661 C   0  0  0  0  0  0  0  0  0  0  0  0
  -30.4757  -15.3064   20.3806 C   0  0  0  0  0  0  0  0  0  0  0  0
  -24.7967  -37.2369   26.3223 C   0  0  0  0  0  0  0  0  0  0  0  0
  -26.5251  -32.0634   21.9907 C   0  0  0  0  0  0  0  0  0  0  0  0
  -25.3597  -29.7235   23.3733 C   0  0  0  0  0  0  0  0  0  0  0  0
  -24.0545  -35.9056   26.2384 C   0  0  0  0  0  0  0  0  0  0  0  0
  -29.7385  -12.2204   18.7649 C   0  0  0  0  0  0  0  0  0  0  0  0
  -24.9668  -34.7583   26.6605 C   0  0  0  0  0  0  0  0  0  0  0  0
  -28.3121  -11.9043   19.2206 C   0  0  0  0  0  0  0  0  0  0  0  0
  -30.5572  -12.8745   19.8765 C   0  0  0  0  0  0  0  0  0  0  0  0
  -28.5133  -13.7420   20.9438 C   0  0  0  0  0  0  0  0  0  0  0  0
  -26.1808  -34.6478   25.7302 C   0  0  1  0  0  0  0  0  0  0  0  0
  -25.3442  -32.2015   22.9466 C   0  0  1  0  0  0  0  0  0  0  0  0
  -27.6305  -13.1413   19.8377 C   0  0  2  0  0  0  0  0  0  0  0  0
  -19.8498  -27.1378   20.9036 C   0  0  0  0  0  0  0  0  0  0  0  0
  -22.5232  -30.2985   26.0740 C   0  0  0  0  0  0  0  0  0  0  0  0
  -20.9995  -28.5114   25.2062 C   0  0  0  0  0  0  0  0  0  0  0  0
  -20.5503  -30.9039   24.6614 C   0  0  0  0  0  0  0  0  0  0  0  0
  -22.8858  -28.1490   18.8453 C   0  0  0  0  0  0  0  0  0  0  0  0
  -29.2030  -23.7087   22.4107 C   0  0  0  0  0  0  0  0  0  0  0  0
  -29.8754  -25.0770   22.3820 C   0  0  0  0  0  0  0  0  0  0  0  0
  -28.9521  -26.1682   22.9042 C   0  0  0  0  0  0  0  0  0  1  0  0
  -22.4951  -29.7253   23.5567 C   0  0  1  0  0  0  0  0  0  0  0  0
  -21.0271  -28.0156   20.5085 C   0  0  2  0  0  0  0  0  0  0  0  0
  -21.6695  -29.8601   24.8673 C   0  0  0  0  0  0  0  0  0  0  0  0
  -25.9763  -11.5935   20.8120 N   0  0  0  0  0  0  0  0  0  0  0  0
  -26.2327  -12.8235   20.3351 N   0  0  0  0  0  0  0  0  0  0  0  0
  -24.5956  -30.9529   23.1041 N   0  0  0  0  0  0  0  0  0  0  0  0
  -29.8513  -14.0415   20.4102 N   0  0  0  0  0  0  0  0  0  0  0  0
  -25.2396  -14.9335   19.9204 N   0  0  0  0  0  0  0  0  0  0  0  0
  -21.8514  -12.5129   21.6687 N   0  0  0  0  0  0  0  0  0  0  0  0
  -29.4351  -21.3801   21.8959 N   0  0  0  0  0  0  0  0  0  0  0  0
  -29.6957  -16.3463   20.8853 N   0  0  0  0  0  0  0  0  0  0  0  0
  -25.8072  -34.0114   24.4853 N   0  0  0  0  0  0  0  0  0  0  0  0
  -21.7074  -29.3376   22.3916 N   0  0  0  0  0  0  0  0  0  0  0  0
  -21.7205  -27.3798   19.3527 N   0  3  0  0  0  0  0  0  0  0  0  0
  -22.4291  -14.5610   20.8143 O   0  0  0  0  0  0  0  0  0  0  0  0
  -26.0158  -31.7966   25.1737 O   0  0  0  0  0  0  0  0  0  0  0  0
  -22.5283  -32.0220   22.9650 O   0  0  0  0  0  0  0  0  0  0  0  0
  -31.2204  -22.8326   21.4271 O   0  0  0  0  0  0  0  0  0  0  0  0
  -22.9036  -27.4115   21.9053 O   0  0  0  0  0  0  0  0  0  0  0  0
  -31.6076  -15.4607   19.9149 O   0  0  0  0  0  0  0  0  0  0  0  0
  -22.1170   -7.2061   23.3429 O   0  0  0  0  0  0  0  0  0  0  0  0
  -29.6438  -27.4157   22.8650 O   0  0  0  0  0  0  0  0  0  1  0  0
  -22.9863   -2.3167   20.9468 F   0  0  0  0  0  0  0  0  0  0  0  0
  -20.0172   -5.7511   22.2863 F   0  0  0  0  0  0  0  0  0  0  0  0
  -28.8839  -18.7760   21.6530 S   0  0  0  0  0  0  0  0  0  0  0  0
  1  2  1  0  0  0  0
  1  5  2  0  0  0  0
  2  6  2  0  0  0  0
  3  8  2  0  0  0  0
  3 17  1  0  0  0  0
  4  9  1  0  0  0  0
  4 17  2  0  0  0  0
  5 19  1  0  0  0  0
  6 21  1  0  0  0  0
  7 10  2  0  0  0  0
  7 20  1  0  0  0  0
  8 23  1  0  0  0  0
  9 23  2  0  0  0  0
 10 24  1  0  0  0  0
 11 12  2  0  0  0  0
 11 25  1  0  0  0  0
 12 26  1  0  0  0  0
 13 14  1  0  0  0  0
 13 30  2  0  0  0  0
 14 31  2  0  0  0  0
 15 22  1  0  0  0  0
 15 24  2  0  0  0  0
 16 26  2  0  0  0  0
 16 27  1  0  0  0  0
 17 28  1  0  0  0  0
 18 28  1  0  0  0  0
 18 29  2  0  0  0  0
 18 32  1  0  0  0  0
 19 21  2  0  0  0  0
 19 38  1  0  0  0  0
 20 22  2  0  0  0  0
 20 39  1  0  0  0  0
 21 47  1  0  0  0  0
 22 40  1  0  0  0  0
 23 78  1  0  0  0  0
 24 79  1  0  0  0  0
 25 27  2  0  0  0  0
 25 78  1  0  0  0  0
 26 80  1  0  0  0  0
 27 81  1  0  0  0  0
 28 61  2  0  0  0  0
 29 62  1  0  0  0  0
 29 65  1  0  0  0  0
 30 67  1  0  0  0  0
 30 82  1  0  0  0  0
 31 68  1  0  0  0  0
 31 82  1  0  0  0  0
 32 66  1  0  0  0  0
 32 72  2  0  0  0  0
 33 48  1  0  0  0  0
 33 69  1  0  0  0  0
 33 73  2  0  0  0  0
 34 58  1  0  0  0  0
 34 63  1  0  0  0  0
 34 74  2  0  0  0  0
 35 55  1  0  0  0  0
 35 67  1  0  0  0  0
 35 75  2  0  0  0  0
 36 59  1  0  0  0  0
 36 70  1  0  0  0  0
 36 76  2  0  0  0  0
 37 64  1  0  0  0  0
 37 68  1  0  0  0  0
 37 77  2  0  0  0  0
 38 41  1  0  0  0  0
 39 48  1  0  0  0  0
 40 63  1  0  0  0  0
 41 43  1  0  0  0  0
 42 44  1  0  0  0  0
 42 45  1  0  0  0  0
 43 47  1  0  0  0  0
 44 49  1  0  0  0  0
 45 64  1  0  0  0  0
 46 49  1  0  0  0  0
 46 64  1  0  0  0  0
 47 69  1  0  0  0  0
 48 63  1  0  0  0  0
 49 62  1  0  0  0  0
 50 59  1  0  0  0  0
 51 60  1  0  0  0  0
 52 60  1  0  0  0  0
 53 60  1  0  0  0  0
 54 71  1  0  0  0  0
 55 56  1  0  0  0  0
 56 57  1  0  0  0  0
 57 79  1  0  0  0  0
 58 60  1  0  0  0  0
 58 70  1  0  0  0  0
 59 71  1  0  0  0  0
 61 62  1  0  0  0  0
M  CHG  1  71   1
M  ISO  4  37 100  57 101  68 100  79 101
M  END
> <Batch ID>
0152

> <Smiles>
CNC(C)C(=O)NC(C(=O)N1Cc2cc([101O:1][101CH2:1]CCC(=O)Nc3ccc([100NH:0][100C:0](=O)N4CCCC(n5nc(-c6ccc(Oc7ccc(F)cc7F)cc6)c(C(N)=O)c5N)C4)s3)ccc2CC1C(=O)NC1CCCc2ccccc21)C(C)(C)C

> <Shape>
0.334

> <Color>
0.188

> <Negative vol penalty>
0.000

$$$$

  -OEChem-04052303273D

 85 94  0     1  0  0  0  0  0999 V2000
  -23.9172  -35.4093   15.3766 C   0  0  0  0  0  0  0  0  0  0  0  0
  -24.4519  -34.1295   15.4840 C   0  0  0  0  0  0  0  0  0  0  0  0
  -23.3354   -9.7683   20.9686 C   0  0  0  0  0  0  0  0  0  0  0  0
  -23.0945  -12.1715   21.0283 C   0  0  0  0  0  0  0  0  0  0  0  0
  -24.0022  -36.2917   16.4527 C   0  0  0  0  0  0  0  0  0  0  0  0
  -25.0730  -33.7317   16.6674 C   0  0  0  0  0  0  0  0  0  0  0  0
  -25.0396  -28.1286   19.1393 C   0  0  0  0  0  0  0  0  0  0  0  0
  -22.2328   -9.6367   21.8127 C   0  0  0  0  0  0  0  0  0  0  0  0
  -21.9918  -12.0400   21.8725 C   0  0  0  0  0  0  0  0  0  0  0  0
  -25.9650  -27.0862   19.1127 C   0  0  0  0  0  0  0  0  0  0  0  0
  -18.8641   -9.7560   21.5472 C   0  0  0  0  0  0  0  0  0  0  0  0
  -17.9100   -8.7920   21.2218 C   0  0  0  0  0  0  0  0  0  0  0  0
  -30.2492  -18.6849   19.6741 C   0  0  0  0  0  0  0  0  0  0  0  0
  -26.8434  -27.8198   21.2362 C   0  0  0  0  0  0  0  0  0  0  0  0
  -18.3044   -7.6885   23.3346 C   0  0  0  0  0  0  0  0  0  0  0  0
  -32.0257  -20.2660   19.6508 C   0  0  0  0  0  0  0  0  0  0  0  0
  -32.5291  -18.0342   19.8606 C   0  0  0  0  0  0  0  0  0  0  0  0
  -23.7663  -11.0357   20.5764 C   0  0  0  0  0  0  0  0  0  0  0  0
  -25.0470  -10.6550   18.4033 C   0  0  0  0  0  0  0  0  0  0  0  0
  -24.6161  -35.9012   17.6533 C   0  0  0  0  0  0  0  0  0  0  0  0
  -25.0164  -29.0325   20.2111 C   0  0  0  0  0  0  0  0  0  0  0  0
  -25.1675  -34.6101   17.7602 C   0  0  0  0  0  0  0  0  0  0  0  0
  -30.6655  -20.0090   19.5915 C   0  0  0  0  0  0  0  0  0  0  0  0
  -25.9151  -28.8713   21.2753 C   0  0  0  0  0  0  0  0  0  0  0  0
  -31.1924  -17.6726   19.8114 C   0  0  0  0  0  0  0  0  0  0  0  0
  -21.5610  -10.7725   22.2646 C   0  0  0  0  0  0  0  0  0  0  0  0
  -26.8690  -26.9333   20.1598 C   0  0  0  0  0  0  0  0  0  0  0  0
  -19.5385   -9.6863   22.7662 C   0  0  0  0  0  0  0  0  0  0  0  0
  -17.6301   -7.7583   22.1155 C   0  0  0  0  0  0  0  0  0  0  0  0
  -19.2586   -8.6525   23.6599 C   0  0  0  0  0  0  0  0  0  0  0  0
  -24.9056  -11.1723   19.7049 C   0  0  0  0  0  0  0  0  0  0  0  0
  -26.2994  -11.0573   18.0081 C   0  0  0  0  0  0  0  0  0  0  0  0
  -24.1284   -9.8802   17.6212 C   0  0  0  0  0  0  0  0  0  0  0  0
  -25.4651  -32.1647   20.5141 C   0  0  0  0  0  0  0  0  0  0  0  0
  -24.5513  -31.6054   23.5759 C   0  0  0  0  0  0  0  0  0  0  0  0
  -24.2504  -29.3850   26.1500 C   0  0  0  0  0  0  0  0  0  0  0  0
  -29.5022  -15.7952   19.8657 C   0  0  0  0  0  0  0  0  0  0  0  0
  -24.7259  -36.9059   18.7728 C   0  0  0  0  0  0  0  0  0  0  0  0
  -23.9944  -30.1358   20.2377 C   0  0  0  0  0  0  0  0  0  0  0  0
  -25.9180  -29.8027   22.4589 C   0  0  0  0  0  0  0  0  0  0  0  0
  -25.0682  -36.2794   20.1221 C   0  0  0  0  0  0  0  0  0  0  0  0
  -30.2781  -12.1014   20.5566 C   0  0  0  0  0  0  0  0  0  0  0  0
  -29.8480  -21.8961   18.1171 C   0  0  0  0  0  0  0  0  0  0  0  0
  -29.6992  -22.1002   20.6390 C   0  0  0  0  0  0  0  0  0  0  0  0
  -26.2142  -35.2837   19.9730 C   0  0  0  0  0  0  0  0  0  0  0  0
  -29.2608  -11.4497   19.6229 C   0  0  0  0  0  0  0  0  0  0  0  0
  -28.8221  -23.0229   17.9673 C   0  0  0  0  0  0  0  0  0  0  0  0
  -28.6713  -23.2243   20.4856 C   0  0  0  0  0  0  0  0  0  0  0  0
  -30.6260  -13.5220   20.1304 C   0  0  0  0  0  0  0  0  0  0  0  0
  -28.1376  -13.7184   19.9716 C   0  0  0  0  0  0  0  0  0  0  0  0
  -29.6608  -21.1369   19.4411 C   0  0  0  0  0  0  0  0  0  0  0  0
  -25.8270  -34.1332   19.0360 C   0  0  1  0  0  0  0  0  0  0  0  0
  -24.3994  -31.3040   21.1314 C   0  0  1  0  0  0  0  0  0  0  0  0
  -28.1739  -12.4288   19.1368 C   0  0  2  0  0  0  0  0  0  0  0  0
  -28.8363  -23.9880   19.1622 C   0  0  0  0  0  0  0  0  0  0  0  0
  -23.5043  -29.2302   28.5409 C   0  0  0  0  0  0  0  0  0  0  0  0
  -27.1165  -32.9986   24.4640 C   0  0  0  0  0  0  0  0  0  0  0  0
  -26.7944  -31.9927   26.7339 C   0  0  0  0  0  0  0  0  0  0  0  0
  -25.0947  -33.5729   25.8192 C   0  0  0  0  0  0  0  0  0  0  0  0
  -22.1604  -27.3960   25.4904 C   0  0  0  0  0  0  0  0  0  0  0  0
  -27.7406  -25.0443   19.0075 C   0  0  0  0  0  0  0  0  0  1  0  0
  -25.2654  -31.2418   24.8553 C   0  0  1  0  0  0  0  0  0  0  0  0
  -23.0944  -29.0768   27.0845 C   0  0  2  0  0  0  0  0  0  0  0  0
  -26.0692  -32.4349   25.4450 C   0  0  0  0  0  0  0  0  0  0  0  0
  -32.9716  -19.3093   19.7837 N   0  0  0  0  0  0  0  0  0  0  0  0
  -25.9822  -11.8512   20.1098 N   0  0  0  0  0  0  0  0  0  0  0  0
  -26.8122  -11.7633   19.0564 N   0  0  0  0  0  0  0  0  0  0  0  0
  -24.9037  -30.8696   22.4357 N   0  0  0  0  0  0  0  0  0  0  0  0
  -29.4452  -14.3844   19.9771 N   0  0  0  0  0  0  0  0  0  0  0  0
  -27.0011  -10.8724   16.8698 N   0  0  0  0  0  0  0  0  0  0  0  0
  -23.2213  -10.5552   16.7930 N   0  0  0  0  0  0  0  0  0  0  0  0
  -30.7994  -16.3137   19.8991 N   0  0  0  0  0  0  0  0  0  0  0  0
  -24.9751  -33.1865   19.7233 N   0  0  0  0  0  0  0  0  0  0  0  0
  -24.2478  -30.7053   25.7525 N   0  0  0  0  0  0  0  0  0  0  0  0
  -22.6171  -27.6807   26.8751 N   0  3  0  0  0  0  0  0  0  0  0  0
  -24.1015   -8.6270   17.6683 O   0  0  0  0  0  0  0  0  0  0  0  0
  -26.6446  -31.9208   20.7399 O   0  0  0  0  0  0  0  0  0  0  0  0
  -23.7066  -32.5043   23.5893 O   0  0  0  0  0  0  0  0  0  0  0  0
  -25.0754  -28.5399   25.8098 O   0  0  0  0  0  0  0  0  0  0  0  0
  -28.4827  -16.4767   19.7385 O   0  0  0  0  0  0  0  0  0  0  0  0
  -30.0969  -24.6647   19.1680 O   0  0  0  0  0  0  0  0  0  0  0  0
  -20.4849  -10.6445   23.0881 O   0  0  0  0  0  0  0  0  0  0  0  0
  -27.7737  -25.9170   20.1360 O   0  0  0  0  0  0  0  0  0  1  0  0
  -16.7127   -6.8335   21.8035 F   0  0  0  0  0  0  0  0  0  0  0  0
  -19.9023   -8.5809   24.8331 F   0  0  0  0  0  0  0  0  0  0  0  0
  1  2  1  0  0  0  0
  1  5  2  0  0  0  0
  2  6  2  0  0  0  0
  3  8  2  0  0  0  0
  3 18  1  0  0  0  0
  4  9  1  0  0  0  0
  4 18  2  0  0  0  0
  5 20  1  0  0  0  0
  6 22  1  0  0  0  0
  7 10  2  0  0  0  0
  7 21  1  0  0  0  0
  8 26  1  0  0  0  0
  9 26  2  0  0  0  0
 10 27  1  0  0  0  0
 11 12  2  0  0  0  0
 11 28  1  0  0  0  0
 12 29  1  0  0  0  0
 13 23  2  0  0  0  0
 13 25  1  0  0  0  0
 14 24  1  0  0  0  0
 14 27  2  0  0  0  0
 15 29  2  0  0  0  0
 15 30  1  0  0  0  0
 16 23  1  0  0  0  0
 16 65  2  0  0  0  0
 17 25  2  0  0  0  0
 17 65  1  0  0  0  0
 18 31  1  0  0  0  0
 19 31  1  0  0  0  0
 19 32  2  0  0  0  0
 19 33  1  0  0  0  0
 20 22  2  0  0  0  0
 20 38  1  0  0  0  0
 21 24  2  0  0  0  0
 21 39  1  0  0  0  0
 22 52  1  0  0  0  0
 23 51  1  0  0  0  0
 24 40  1  0  0  0  0
 25 72  1  0  0  0  0
 26 82  1  0  0  0  0
 27 83  1  0  0  0  0
 28 30  2  0  0  0  0
 28 82  1  0  0  0  0
 29 84  1  0  0  0  0
 30 85  1  0  0  0  0
 31 66  2  0  0  0  0
 32 67  1  0  0  0  0
 32 70  1  0  0  0  0
 33 71  1  0  0  0  0
 33 76  2  0  0  0  0
 34 53  1  0  0  0  0
 34 73  1  0  0  0  0
 34 77  2  0  0  0  0
 35 62  1  0  0  0  0
 35 68  1  0  0  0  0
 35 78  2  0  0  0  0
 36 63  1  0  0  0  0
 36 74  1  0  0  0  0
 36 79  2  0  0  0  0
 37 69  1  0  0  0  0
 37 72  1  0  0  0  0
 37 80  2  0  0  0  0
 38 41  1  0  0  0  0
 39 53  1  0  0  0  0
 40 68  1  0  0  0  0
 41 45  1  0  0  0  0
 42 46  1  0  0  0  0
 42 49  1  0  0  0  0
 43 47  1  0  0  0  0
 43 51  1  0  0  0  0
 44 48  1  0  0  0  0
 44 51  1  0  0  0  0
 45 52  1  0  0  0  0
 46 54  1  0  0  0  0
 47 55  1  0  0  0  0
 48 55  1  0  0  0  0
 49 69  1  0  0  0  0
 50 54  1  0  0  0  0
 50 69  1  0  0  0  0
 52 73  1  0  0  0  0
 53 68  1  0  0  0  0
 54 67  1  0  0  0  0
 55 61  1  0  0  0  0
 55 81  1  0  0  0  0
 56 63  1  0  0  0  0
 57 64  1  0  0  0  0
 58 64  1  0  0  0  0
 59 64  1  0  0  0  0
 60 75  1  0  0  0  0
 61 83  1  0  0  0  0
 62 64  1  0  0  0  0
 62 74  1  0  0  0  0
 63 75  1  0  0  0  0
 66 67  1  0  0  0  0
M  CHG  1  75   1
M  ISO  4  37 100  61 101  72 100  83 101
M  END
> <Batch ID>
0152

> <Smiles>
CNC(C)C(=O)NC(C(=O)N1Cc2cc([101O:1][101CH2:1]C3(O)CCC(c4cncc([100NH:0][100C:0](=O)N5CCCC(n6nc(-c7ccc(Oc8ccc(F)cc8F)cc7)c(C(N)=O)c6N)C5)c4)CC3)ccc2CC1C(=O)NC1CCCc2ccccc21)C(C)(C)C

> <Shape>
0.246

> <Color>
0.096

> <Negative vol penalty>
0.000

$$$$

  -OEChem-04052303273D

 83 92  0     1  0  0  0  0  0999 V2000
  -27.9373  -32.1461   16.5227 C   0  0  0  0  0  0  0  0  0  0  0  0
  -27.7820  -30.8260   16.9334 C   0  0  0  0  0  0  0  0  0  0  0  0
  -22.9155   -9.9792   20.0853 C   0  0  0  0  0  0  0  0  0  0  0  0
  -23.6102  -10.1394   22.3937 C   0  0  0  0  0  0  0  0  0  0  0  0
  -27.9692  -33.1700   17.4685 C   0  0  0  0  0  0  0  0  0  0  0  0
  -27.6595  -30.5289   18.2903 C   0  0  0  0  0  0  0  0  0  0  0  0
  -24.2675  -26.0875   20.7951 C   0  0  0  0  0  0  0  0  0  0  0  0
  -22.1118   -8.8844   20.4031 C   0  0  0  0  0  0  0  0  0  0  0  0
  -22.8064   -9.0446   22.7115 C   0  0  0  0  0  0  0  0  0  0  0  0
  -24.5846  -24.8083   21.2496 C   0  0  0  0  0  0  0  0  0  0  0  0
  -22.9571   -5.6786   22.4318 C   0  0  0  0  0  0  0  0  0  0  0  0
  -23.5035   -4.6889   23.2488 C   0  0  0  0  0  0  0  0  0  0  0  0
  -24.7944  -25.6647   23.4950 C   0  0  0  0  0  0  0  0  0  0  0  0
  -28.8626  -19.2504   23.4849 C   0  0  0  0  0  0  0  0  0  0  0  0
  -21.7648   -5.0764   24.8810 C   0  0  0  0  0  0  0  0  0  0  0  0
  -23.6648  -10.6066   21.0806 C   0  0  0  0  0  0  0  0  0  0  0  0
  -24.1276  -13.0959   20.7695 C   0  0  0  0  0  0  0  0  0  0  0  0
  -27.8374  -32.8862   18.8370 C   0  0  0  0  0  0  0  0  0  0  0  0
  -24.2220  -27.1688   21.6868 C   0  0  0  0  0  0  0  0  0  0  0  0
  -27.6910  -31.5499   19.2554 C   0  0  0  0  0  0  0  0  0  0  0  0
  -24.4738  -26.9562   23.0497 C   0  0  0  0  0  0  0  0  0  0  0  0
  -29.7867  -18.2043   23.2913 C   0  0  0  0  0  0  0  0  0  0  0  0
  -22.0572   -8.4171   21.7162 C   0  0  0  0  0  0  0  0  0  0  0  0
  -24.8510  -24.5972   22.5993 C   0  0  0  0  0  0  0  0  0  0  0  0
  -21.8145   -6.3672   22.8394 C   0  0  0  0  0  0  0  0  0  0  0  0
  -22.9074   -4.3878   24.4734 C   0  0  0  0  0  0  0  0  0  0  0  0
  -21.2184   -6.0661   24.0639 C   0  0  0  0  0  0  0  0  0  0  0  0
  -24.4957  -11.7372   20.7528 C   0  0  0  0  0  0  0  0  0  0  0  0
  -29.9399  -17.8822   21.9695 C   0  0  0  0  0  0  0  0  0  0  0  0
  -25.2634  -13.7641   20.3822 C   0  0  0  0  0  0  0  0  0  0  0  0
  -28.3559  -19.6826   22.2696 C   0  0  0  0  0  0  0  0  0  0  0  0
  -22.8714  -13.7000   21.1051 C   0  0  0  0  0  0  0  0  0  0  0  0
  -25.8167  -29.9027   21.9806 C   0  0  0  0  0  0  0  0  0  0  0  0
  -23.6455  -30.4660   24.3239 C   0  0  0  0  0  0  0  0  0  0  0  0
  -26.7540  -21.5295   22.8667 C   0  0  0  0  0  0  0  0  0  0  0  0
  -21.4493  -29.1939   26.6053 C   0  0  0  0  0  0  0  0  0  0  0  0
  -30.7814  -14.5508   20.6625 C   0  0  0  0  0  0  0  0  0  0  0  0
  -27.9253  -34.0219   19.8256 C   0  0  0  0  0  0  0  0  0  0  0  0
  -23.8521  -28.5377   21.1850 C   0  0  0  0  0  0  0  0  0  0  0  0
  -30.6439  -17.3550   24.1545 C   0  0  0  0  0  0  0  0  0  0  0  0
  -24.4181  -28.0798   24.0512 C   0  0  0  0  0  0  0  0  0  0  0  0
  -27.4129  -33.6592   21.2170 C   0  0  0  0  0  0  0  0  0  0  0  0
  -31.6189  -16.7100   23.1168 C   0  0  0  0  0  0  0  0  0  0  0  0
  -29.6010  -12.0325   18.4396 C   0  0  0  0  0  0  0  0  0  0  0  0
  -27.9775  -32.3131   21.6598 C   0  0  0  0  0  0  0  0  0  0  0  0
  -28.1398  -11.8391   18.8488 C   0  0  0  0  0  0  0  0  0  0  0  0
  -30.4933  -12.3096   19.6475 C   0  0  0  0  0  0  0  0  0  0  0  0
  -28.5897  -13.2349   20.9098 C   0  0  0  0  0  0  0  0  0  0  0  0
  -27.5301  -31.1900   20.7164 C   0  0  1  0  0  0  0  0  0  0  0  0
  -30.9130  -16.7900   21.7245 C   0  0  1  0  0  0  0  0  0  0  0  0
  -24.3385  -29.6599   22.0969 C   0  0  1  0  0  0  0  0  0  0  0  0
  -27.6419  -13.0083   19.7196 C   0  0  2  0  0  0  0  0  0  0  0  0
  -19.8485  -29.8995   28.4045 C   0  0  0  0  0  0  0  0  0  0  0  0
  -25.9929  -31.0112   26.1953 C   0  0  0  0  0  0  0  0  0  0  0  0
  -24.4191  -30.7679   28.1272 C   0  0  0  0  0  0  0  0  0  0  0  0
  -24.0657  -32.5838   26.4538 C   0  0  0  0  0  0  0  0  0  0  0  0
  -19.1450  -27.9956   25.1863 C   0  0  0  0  0  0  0  0  0  0  0  0
  -25.8276  -22.4799   22.1311 C   0  0  0  0  0  0  0  0  0  1  0  0
  -23.5765  -30.1894   25.8063 C   0  0  1  0  0  0  0  0  0  0  0  0
  -20.0121  -29.5579   26.9316 C   0  0  2  0  0  0  0  0  0  0  0  0
  -24.5166  -31.1170   26.6267 C   0  0  0  0  0  0  0  0  0  0  0  0
  -25.7659  -11.5516   20.3840 N   0  0  0  0  0  0  0  0  0  0  0  0
  -26.2059  -12.8024   20.1652 N   0  0  0  0  0  0  0  0  0  0  0  0
  -24.0582  -29.4010   23.5106 N   0  0  0  0  0  0  0  0  0  0  0  0
  -29.9668  -13.4303   20.4302 N   0  0  0  0  0  0  0  0  0  0  0  0
  -25.5379  -15.0745   20.2094 N   0  0  0  0  0  0  0  0  0  0  0  0
  -21.8090  -12.8672   21.4818 N   0  0  0  0  0  0  0  0  0  0  0  0
  -27.4151  -20.6965   21.9706 N   0  0  0  0  0  0  0  0  0  0  0  0
  -26.1622  -30.8094   20.9967 N   0  0  0  0  0  0  0  0  0  0  0  0
  -22.1684  -30.2888   26.1750 N   0  0  0  0  0  0  0  0  0  0  0  0
  -30.2029  -15.5709   21.4079 N   0  0  0  0  0  0  0  0  0  0  0  0
  -19.1038  -28.4213   26.6090 N   0  3  0  0  0  0  0  0  0  0  0  0
  -22.6915  -14.9405   21.0561 O   0  0  0  0  0  0  0  0  0  0  0  0
  -26.5867  -29.3123   22.7291 O   0  0  0  0  0  0  0  0  0  0  0  0
  -23.3375  -31.5836   23.9023 O   0  0  0  0  0  0  0  0  0  0  0  0
  -26.8559  -21.5491   24.0889 O   0  0  0  0  0  0  0  0  0  0  0  0
  -21.8908  -28.0531   26.7241 O   0  0  0  0  0  0  0  0  0  0  0  0
  -31.9366  -14.6381   20.2326 O   0  0  0  0  0  0  0  0  0  0  0  0
  -21.2728   -7.3490   22.0267 O   0  0  0  0  0  0  0  0  0  0  0  0
  -25.1615  -23.3497   23.0455 O   0  0  0  0  0  0  0  0  0  1  0  0
  -23.4313   -3.4363   25.2572 F   0  0  0  0  0  0  0  0  0  0  0  0
  -20.1200   -6.7235   24.4603 F   0  0  0  0  0  0  0  0  0  0  0  0
  -29.0163  -18.8114   20.9280 S   0  0  0  0  0  0  0  0  0  0  0  0
  1  2  1  0  0  0  0
  1  5  2  0  0  0  0
  2  6  2  0  0  0  0
  3  8  2  0  0  0  0
  3 16  1  0  0  0  0
  4  9  1  0  0  0  0
  4 16  2  0  0  0  0
  5 18  1  0  0  0  0
  6 20  1  0  0  0  0
  7 10  2  0  0  0  0
  7 19  1  0  0  0  0
  8 23  1  0  0  0  0
  9 23  2  0  0  0  0
 10 24  1  0  0  0  0
 11 12  2  0  0  0  0
 11 25  1  0  0  0  0
 12 26  1  0  0  0  0
 13 21  1  0  0  0  0
 13 24  2  0  0  0  0
 14 22  1  0  0  0  0
 14 31  2  0  0  0  0
 15 26  2  0  0  0  0
 15 27  1  0  0  0  0
 16 28  1  0  0  0  0
 17 28  1  0  0  0  0
 17 30  2  0  0  0  0
 17 32  1  0  0  0  0
 18 20  2  0  0  0  0
 18 38  1  0  0  0  0
 19 21  2  0  0  0  0
 19 39  1  0  0  0  0
 20 49  1  0  0  0  0
 21 41  1  0  0  0  0
 22 29  2  0  0  0  0
 22 40  1  0  0  0  0
 23 79  1  0  0  0  0
 24 80  1  0  0  0  0
 25 27  2  0  0  0  0
 25 79  1  0  0  0  0
 26 81  1  0  0  0  0
 27 82  1  0  0  0  0
 28 62  2  0  0  0  0
 29 50  1  0  0  0  0
 29 83  1  0  0  0  0
 30 63  1  0  0  0  0
 30 66  1  0  0  0  0
 31 68  1  0  0  0  0
 31 83  1  0  0  0  0
 32 67  1  0  0  0  0
 32 73  2  0  0  0  0
 33 51  1  0  0  0  0
 33 69  1  0  0  0  0
 33 74  2  0  0  0  0
 34 59  1  0  0  0  0
 34 64  1  0  0  0  0
 34 75  2  0  0  0  0
 35 58  1  0  0  0  0
 35 68  1  0  0  0  0
 35 76  2  0  0  0  0
 36 60  1  0  0  0  0
 36 70  1  0  0  0  0
 36 77  2  0  0  0  0
 37 65  1  0  0  0  0
 37 71  1  0  0  0  0
 37 78  2  0  0  0  0
 38 42  1  0  0  0  0
 39 51  1  0  0  0  0
 40 43  1  0  0  0  0
 41 64  1  0  0  0  0
 42 45  1  0  0  0  0
 43 50  1  0  0  0  0
 44 46  1  0  0  0  0
 44 47  1  0  0  0  0
 45 49  1  0  0  0  0
 46 52  1  0  0  0  0
 47 65  1  0  0  0  0
 48 52  1  0  0  0  0
 48 65  1  0  0  0  0
 49 69  1  0  0  0  0
 50 71  1  0  0  0  0
 51 64  1  0  0  0  0
 52 63  1  0  0  0  0
 53 60  1  0  0  0  0
 54 61  1  0  0  0  0
 55 61  1  0  0  0  0
 56 61  1  0  0  0  0
 57 72  1  0  0  0  0
 58 80  1  0  0  0  0
 59 61  1  0  0  0  0
 59 70  1  0  0  0  0
 60 72  1  0  0  0  0
 62 63  1  0  0  0  0
M  CHG  1  72   1
M  ISO  4  37 100  58 101  71 100  80 101
M  END
> <Batch ID>
0152

> <Smiles>
CNC(C)C(=O)NC(C(=O)N1Cc2cc([101O:1][101CH2:1]C(=O)Nc3cc4c(s3)C([100NH:0][100C:0](=O)N3CCCC(n5nc(-c6ccc(Oc7ccc(F)cc7F)cc6)c(C(N)=O)c5N)C3)CC4)ccc2CC1C(=O)NC1CCCc2ccccc21)C(C)(C)C

> <Shape>
0.263

> <Color>
0.204

> <Negative vol penalty>
0.000

$$$$

  -OEChem-04052303273D

 82 91  0     1  0  0  0  0  0999 V2000
  -27.0200  -37.0284   20.3364 C   0  0  0  0  0  0  0  0  0  0  0  0
  -27.4832  -35.7978   19.8820 C   0  0  0  0  0  0  0  0  0  0  0  0
  -23.2117  -10.1401   19.8074 C   0  0  0  0  0  0  0  0  0  0  0  0
  -23.8728   -9.7349   22.0956 C   0  0  0  0  0  0  0  0  0  0  0  0
  -26.4216  -37.1264   21.5919 C   0  0  0  0  0  0  0  0  0  0  0  0
  -27.3492  -34.6646   20.6834 C   0  0  0  0  0  0  0  0  0  0  0  0
  -26.2927  -28.9319   18.8057 C   0  0  0  0  0  0  0  0  0  0  0  0
  -22.5010   -8.9400   19.8002 C   0  0  0  0  0  0  0  0  0  0  0  0
  -23.1620   -8.5347   22.0884 C   0  0  0  0  0  0  0  0  0  0  0  0
  -27.1369  -27.8415   18.6003 C   0  0  0  0  0  0  0  0  0  0  0  0
  -23.5988   -5.3876   20.9327 C   0  0  0  0  0  0  0  0  0  0  0  0
  -24.2207   -4.2629   21.4747 C   0  0  0  0  0  0  0  0  0  0  0  0
  -26.6066  -27.0230   20.8067 C   0  0  0  0  0  0  0  0  0  0  0  0
  -28.7378  -20.4217   18.3192 C   0  0  0  0  0  0  0  0  0  0  0  0
  -22.4432   -4.0626   23.0987 C   0  0  0  0  0  0  0  0  0  0  0  0
  -23.8977  -10.5376   20.9551 C   0  0  0  0  0  0  0  0  0  0  0  0
  -24.1509  -13.0485   21.3276 C   0  0  0  0  0  0  0  0  0  0  0  0
  -26.2714  -35.9919   22.4050 C   0  0  0  0  0  0  0  0  0  0  0  0
  -25.6064  -29.0820   20.0193 C   0  0  0  0  0  0  0  0  0  0  0  0
  -26.7494  -34.7477   21.9515 C   0  0  0  0  0  0  0  0  0  0  0  0
  -25.7523  -28.1148   21.0240 C   0  0  0  0  0  0  0  0  0  0  0  0
  -28.7436  -19.0123   18.3135 C   0  0  0  0  0  0  0  0  0  0  0  0
  -22.4761   -8.1373   20.9406 C   0  0  0  0  0  0  0  0  0  0  0  0
  -27.2962  -26.8884   19.6020 C   0  0  0  0  0  0  0  0  0  0  0  0
  -22.3991   -5.8499   21.4737 C   0  0  0  0  0  0  0  0  0  0  0  0
  -23.6429   -3.6003   22.5576 C   0  0  0  0  0  0  0  0  0  0  0  0
  -21.8213   -5.1874   22.5567 C   0  0  0  0  0  0  0  0  0  0  0  0
  -24.6325  -11.7770   20.9630 C   0  0  0  0  0  0  0  0  0  0  0  0
  -28.1568  -18.4884   19.4283 C   0  0  0  0  0  0  0  0  0  0  0  0
  -25.2290  -13.8837   21.1649 C   0  0  0  0  0  0  0  0  0  0  0  0
  -28.1281  -20.9011   19.4681 C   0  0  0  0  0  0  0  0  0  0  0  0
  -22.8456  -13.4397   21.7735 C   0  0  0  0  0  0  0  0  0  0  0  0
  -25.5956  -31.2585   22.3358 C   0  0  0  0  0  0  0  0  0  0  0  0
  -23.1473  -29.4633   23.4783 C   0  0  0  0  0  0  0  0  0  0  0  0
  -28.2345  -23.4065   19.2550 C   0  0  0  0  0  0  0  0  0  0  0  0
  -21.5889  -26.4295   23.5976 C   0  0  0  0  0  0  0  0  0  0  0  0
  -29.4924  -15.5042   17.8605 C   0  0  0  0  0  0  0  0  0  0  0  0
  -25.6607  -36.1559   23.7742 C   0  0  0  0  0  0  0  0  0  0  0  0
  -24.6787  -30.2497   20.2150 C   0  0  0  0  0  0  0  0  0  0  0  0
  -25.0222  -28.2192   22.3372 C   0  0  0  0  0  0  0  0  0  0  0  0
  -29.2296  -17.9493   17.4157 C   0  0  0  0  0  0  0  0  0  0  0  0
  -28.1339  -17.0154   19.4511 C   0  0  0  0  0  0  0  0  0  0  0  0
  -25.2188  -34.8383   24.4059 C   0  0  0  0  0  0  0  0  0  0  0  0
  -30.1116  -12.8564   20.3286 C   0  0  0  0  0  0  0  0  0  0  0  0
  -26.3105  -33.7831   24.2586 C   0  0  0  0  0  0  0  0  0  0  0  0
  -28.6950  -12.4170   20.7053 C   0  0  0  0  0  0  0  0  0  0  0  0
  -30.1895  -13.3721   18.8931 C   0  0  0  0  0  0  0  0  0  0  0  0
  -27.8010  -13.9733   18.9367 C   0  0  0  0  0  0  0  0  0  0  0  0
  -26.5998  -33.4910   22.7813 C   0  0  1  0  0  0  0  0  0  0  0  0
  -24.4276  -30.5735   21.6845 C   0  0  1  0  0  0  0  0  0  0  0  0
  -27.6670  -13.5227   20.3973 C   0  0  1  0  0  0  0  0  0  0  0  0
  -19.6317  -25.2602   24.6461 C   0  0  0  0  0  0  0  0  0  0  0  0
  -24.6586  -29.3117   26.1246 C   0  0  0  0  0  0  0  0  0  0  0  0
  -23.1746  -27.4058   26.7830 C   0  0  0  0  0  0  0  0  0  0  0  0
  -22.1921  -29.6575   26.3503 C   0  0  0  0  0  0  0  0  0  0  0  0
  -20.3779  -25.8444   20.9613 C   0  0  0  0  0  0  0  0  0  0  0  0
  -27.8010  -24.6117   20.0687 C   0  0  0  0  0  0  0  0  0  1  0  0
  -23.0330  -28.2777   24.4058 C   0  0  1  0  0  0  0  0  0  0  0  0
  -20.1305  -26.0394   23.4391 C   0  0  2  0  0  0  0  0  0  0  0  0
  -23.2800  -28.6619   25.8920 C   0  0  0  0  0  0  0  0  0  0  0  0
  -25.9167  -11.7977   20.5962 N   0  0  0  0  0  0  0  0  0  0  0  0
  -26.2510  -13.0925   20.7294 N   0  0  0  0  0  0  0  0  0  0  0  0
  -24.1316  -29.3824   22.4831 N   0  0  0  0  0  0  0  0  0  0  0  0
  -28.8796  -16.7192   18.1863 N   0  0  0  0  0  0  0  0  0  0  0  0
  -29.1752  -14.3974   18.6540 N   0  0  0  0  0  0  0  0  0  0  0  0
  -25.3930  -15.2104   21.3532 N   0  0  0  0  0  0  0  0  0  0  0  0
  -21.8545  -12.4550   21.8846 N   0  0  0  0  0  0  0  0  0  0  0  0
  -27.9010  -22.1816   19.8914 N   0  0  0  0  0  0  0  0  0  0  0  0
  -25.5734  -32.6357   22.2249 N   0  0  0  0  0  0  0  0  0  0  0  0
  -21.7244  -27.6850   24.1514 N   0  0  0  0  0  0  0  0  0  0  0  0
  -19.9496  -25.1930   22.2259 N   0  3  0  0  0  0  0  0  0  0  0  0
  -22.5618  -14.6301   22.0491 O   0  0  0  0  0  0  0  0  0  0  0  0
  -26.4526  -30.5874   22.8986 O   0  0  0  0  0  0  0  0  0  0  0  0
  -22.3864  -30.4228   23.6268 O   0  0  0  0  0  0  0  0  0  0  0  0
  -28.8051  -23.5311   18.1764 O   0  0  0  0  0  0  0  0  0  0  0  0
  -22.5153  -25.6926   23.2670 O   0  0  0  0  0  0  0  0  0  0  0  0
  -30.3211  -15.4247   16.9450 O   0  0  0  0  0  0  0  0  0  0  0  0
  -21.7825   -6.9662   20.9340 O   0  0  0  0  0  0  0  0  0  0  0  0
  -28.1287  -25.8124   19.4023 O   0  0  0  0  0  0  0  0  0  1  0  0
  -24.2394   -2.5193   23.0770 F   0  0  0  0  0  0  0  0  0  0  0  0
  -20.6682   -5.6261   23.0800 F   0  0  0  0  0  0  0  0  0  0  0  0
  -27.5832  -19.6285   20.5075 S   0  0  0  0  0  0  0  0  0  0  0  0
  1  2  1  0  0  0  0
  1  5  2  0  0  0  0
  2  6  2  0  0  0  0
  3  8  2  0  0  0  0
  3 16  1  0  0  0  0
  4  9  1  0  0  0  0
  4 16  2  0  0  0  0
  5 18  1  0  0  0  0
  6 20  1  0  0  0  0
  7 10  2  0  0  0  0
  7 19  1  0  0  0  0
  8 23  1  0  0  0  0
  9 23  2  0  0  0  0
 10 24  1  0  0  0  0
 11 12  2  0  0  0  0
 11 25  1  0  0  0  0
 12 26  1  0  0  0  0
 13 21  1  0  0  0  0
 13 24  2  0  0  0  0
 14 22  1  0  0  0  0
 14 31  2  0  0  0  0
 15 26  2  0  0  0  0
 15 27  1  0  0  0  0
 16 28  1  0  0  0  0
 17 28  1  0  0  0  0
 17 30  2  0  0  0  0
 17 32  1  0  0  0  0
 18 20  2  0  0  0  0
 18 38  1  0  0  0  0
 19 21  2  0  0  0  0
 19 39  1  0  0  0  0
 20 49  1  0  0  0  0
 21 40  1  0  0  0  0
 22 29  2  0  0  0  0
 22 41  1  0  0  0  0
 23 78  1  0  0  0  0
 24 79  1  0  0  0  0
 25 27  2  0  0  0  0
 25 78  1  0  0  0  0
 26 80  1  0  0  0  0
 27 81  1  0  0  0  0
 28 61  2  0  0  0  0
 29 42  1  0  0  0  0
 29 82  1  0  0  0  0
 30 62  1  0  0  0  0
 30 66  1  0  0  0  0
 31 68  1  0  0  0  0
 31 82  1  0  0  0  0
 32 67  1  0  0  0  0
 32 72  2  0  0  0  0
 33 50  1  0  0  0  0
 33 69  1  0  0  0  0
 33 73  2  0  0  0  0
 34 58  1  0  0  0  0
 34 63  1  0  0  0  0
 34 74  2  0  0  0  0
 35 57  1  0  0  0  0
 35 68  1  0  0  0  0
 35 75  2  0  0  0  0
 36 59  1  0  0  0  0
 36 70  1  0  0  0  0
 36 76  2  0  0  0  0
 37 64  1  0  0  0  0
 37 65  1  0  0  0  0
 37 77  2  0  0  0  0
 38 43  1  0  0  0  0
 39 50  1  0  0  0  0
 40 63  1  0  0  0  0
 41 64  1  0  0  0  0
 42 64  1  0  0  0  0
 43 45  1  0  0  0  0
 44 46  1  0  0  0  0
 44 47  1  0  0  0  0
 45 49  1  0  0  0  0
 46 51  1  0  0  0  0
 47 65  1  0  0  0  0
 48 51  1  0  0  0  0
 48 65  1  0  0  0  0
 49 69  1  0  0  0  0
 50 63  1  0  0  0  0
 51 62  1  0  0  0  0
 52 59  1  0  0  0  0
 53 60  1  0  0  0  0
 54 60  1  0  0  0  0
 55 60  1  0  0  0  0
 56 71  1  0  0  0  0
 57 79  1  0  0  0  0
 58 60  1  0  0  0  0
 58 70  1  0  0  0  0
 59 71  1  0  0  0  0
 61 62  1  0  0  0  0
M  CHG  1  71   1
M  ISO  4  37 100  57 101  64 100  79 101
M  END
> <Batch ID>
0152

> <Smiles>
CNC(C)C(=O)NC(C(=O)N1Cc2cc([101O:1][101CH2:1]C(=O)Nc3cc4c(s3)C[100N:0]([100C:0](=O)N3CCCC(n5nc(-c6ccc(Oc7ccc(F)cc7F)cc6)c(C(N)=O)c5N)C3)C4)ccc2CC1C(=O)NC1CCCc2ccccc21)C(C)(C)C

> <Shape>
0.337

> <Color>
0.166

> <Negative vol penalty>
0.000

$$$$

  -OEChem-04052303273D

 82 90  0     1  0  0  0  0  0999 V2000
  -34.3473  -12.0385   19.8855 C   0  0  0  0  0  0  0  0  0  0  0  0
  -34.5710  -13.3696   19.5486 C   0  0  0  0  0  0  0  0  0  0  0  0
  -21.9557  -21.6159   23.7268 C   0  0  0  0  0  0  0  0  0  0  0  0
  -19.7342  -21.4174   24.6555 C   0  0  0  0  0  0  0  0  0  0  0  0
  -33.0536  -11.5987   20.1629 C   0  0  0  0  0  0  0  0  0  0  0  0
  -33.5009  -14.2616   19.4879 C   0  0  0  0  0  0  0  0  0  0  0  0
  -31.8994  -21.1469   20.6472 C   0  0  0  0  0  0  0  0  0  0  0  0
  -22.4208  -20.6660   24.6361 C   0  0  0  0  0  0  0  0  0  0  0  0
  -20.1992  -20.4674   25.5648 C   0  0  0  0  0  0  0  0  0  0  0  0
  -31.3079  -22.2371   20.0106 C   0  0  0  0  0  0  0  0  0  0  0  0
  -21.9078  -20.4384   28.4822 C   0  0  0  0  0  0  0  0  0  0  0  0
  -21.5040  -20.5618   29.8116 C   0  0  0  0  0  0  0  0  0  0  0  0
  -29.1269  -21.3828   20.5872 C   0  0  0  0  0  0  0  0  0  0  0  0
  -24.9317  -27.4862   20.7503 C   0  0  0  0  0  0  0  0  0  0  0  0
  -20.4724  -18.3799   29.7007 C   0  0  0  0  0  0  0  0  0  0  0  0
  -26.8755  -28.1824   19.6830 C   0  0  0  0  0  0  0  0  0  0  0  0
  -20.6123  -21.9917   23.7365 C   0  0  0  0  0  0  0  0  0  0  0  0
  -19.6141  -22.7363   21.5101 C   0  0  0  0  0  0  0  0  0  0  0  0
  -31.9684  -12.4879   20.1150 C   0  0  0  0  0  0  0  0  0  0  0  0
  -31.1075  -20.1591   21.2502 C   0  0  0  0  0  0  0  0  0  0  0  0
  -32.1913  -13.8330   19.7636 C   0  0  0  0  0  0  0  0  0  0  0  0
  -29.7109  -20.2824   21.2331 C   0  0  0  0  0  0  0  0  0  0  0  0
  -26.1924  -27.1065   20.2057 C   0  0  0  0  0  0  0  0  0  0  0  0
  -21.5426  -20.0917   25.5551 C   0  0  0  0  0  0  0  0  0  0  0  0
  -29.9214  -22.3537   19.9779 C   0  0  0  0  0  0  0  0  0  0  0  0
  -21.5938  -19.2859   27.7620 C   0  0  0  0  0  0  0  0  0  0  0  0
  -20.7864  -19.5325   30.4209 C   0  0  0  0  0  0  0  0  0  0  0  0
  -20.8762  -18.2566   28.3713 C   0  0  0  0  0  0  0  0  0  0  0  0
  -20.1314  -22.9733   22.7978 C   0  0  0  0  0  0  0  0  0  0  0  0
  -24.6994  -28.8382   20.6234 C   0  0  0  0  0  0  0  0  0  0  0  0
  -19.3011  -23.9847   21.0307 C   0  0  0  0  0  0  0  0  0  0  0  0
  -19.4326  -21.4983   20.8101 C   0  0  0  0  0  0  0  0  0  0  0  0
  -23.5163  -29.6248   21.0573 C   0  0  0  0  0  0  0  0  0  0  0  0
  -30.6799  -17.0419   20.7988 C   0  0  0  0  0  0  0  0  0  0  0  0
  -28.8606  -17.3003   23.4719 C   0  0  0  0  0  0  0  0  0  0  0  0
  -27.9225  -25.3566   19.6778 C   0  0  0  0  0  0  0  0  0  0  0  0
  -26.9867  -19.2849   25.5205 C   0  0  0  0  0  0  0  0  0  0  0  0
  -21.3281  -29.4490   22.1994 C   0  0  0  0  0  0  0  0  0  0  0  0
  -30.5817  -11.9557   20.3767 C   0  0  0  0  0  0  0  0  0  0  0  0
  -31.7616  -19.0032   21.9561 C   0  0  0  0  0  0  0  0  0  0  0  0
  -28.8165  -19.2596   21.8831 C   0  0  0  0  0  0  0  0  0  0  0  0
  -29.5527  -13.0481   20.6561 C   0  0  0  0  0  0  0  0  0  0  0  0
  -17.9843  -28.3471   22.5183 C   0  0  0  0  0  0  0  0  0  0  0  0
  -29.6787  -14.1740   19.6347 C   0  0  0  0  0  0  0  0  0  0  0  0
  -18.1031  -26.8208   22.4934 C   0  0  0  0  0  0  0  0  0  0  0  0
  -19.1422  -28.9941   23.2769 C   0  0  0  0  0  0  0  0  0  0  0  0
  -20.5976  -27.0641   22.8130 C   0  0  0  0  0  0  0  0  0  0  0  0
  -31.0596  -14.8364   19.7114 C   0  0  1  0  0  0  0  0  0  0  0  0
  -30.8462  -17.7902   22.0911 C   0  0  1  0  0  0  0  0  0  0  0  0
  -19.4927  -26.3696   22.0006 C   0  0  1  0  0  0  0  0  0  0  0  0
  -25.5945  -19.2043   27.6068 C   0  0  0  0  0  0  0  0  0  0  0  0
  -26.5969  -15.9819   21.9074 C   0  0  0  0  0  0  0  0  0  0  0  0
  -25.0075  -16.7813   23.6690 C   0  0  0  0  0  0  0  0  0  0  0  0
  -26.8328  -15.1900   24.2679 C   0  0  0  0  0  0  0  0  0  0  0  0
  -28.7568  -21.2036   26.9149 C   0  0  0  0  0  0  0  0  0  0  0  0
  -28.0842  -23.8596   19.8657 C   0  0  0  0  0  0  0  0  0  1  0  0
  -27.4071  -17.5974   23.7513 C   0  0  1  0  0  0  0  0  0  0  0  0
  -26.9792  -19.4526   27.0292 C   0  0  2  0  0  0  0  0  0  0  0  0
  -26.4776  -16.4061   23.3849 C   0  0  0  0  0  0  0  0  0  0  0  0
  -20.1480  -24.2704   23.1161 N   0  0  0  0  0  0  0  0  0  0  0  0
  -19.6372  -24.8596   22.0215 N   0  0  0  0  0  0  0  0  0  0  0  0
  -29.5034  -18.1444   22.5553 N   0  0  0  0  0  0  0  0  0  0  0  0
  -20.4216  -28.5226   22.7438 N   0  0  0  0  0  0  0  0  0  0  0  0
  -18.7740  -24.4086   19.8624 N   0  0  0  0  0  0  0  0  0  0  0  0
  -19.8069  -20.3083   21.4490 N   0  0  0  0  0  0  0  0  0  0  0  0
  -26.7043  -25.7873   20.1921 N   0  0  0  0  0  0  0  0  0  0  0  0
  -22.5024  -28.8947   21.6780 N   0  0  0  0  0  0  0  0  0  0  0  0
  -31.1269  -15.7351   20.8438 N   0  0  0  0  0  0  0  0  0  0  0  0
  -27.3350  -18.0030   25.1508 N   0  0  0  0  0  0  0  0  0  0  0  0
  -27.4021  -20.8330   27.3990 N   0  3  0  0  0  0  0  0  0  0  0  0
  -18.9679  -21.4501   19.6459 O   0  0  0  0  0  0  0  0  0  0  0  0
  -23.5120  -30.8411   20.8881 O   0  0  0  0  0  0  0  0  0  0  0  0
  -30.1815  -17.6078   19.8328 O   0  0  0  0  0  0  0  0  0  0  0  0
  -29.4075  -16.3585   24.0512 O   0  0  0  0  0  0  0  0  0  0  0  0
  -28.7903  -26.0336   19.1362 O   0  0  0  0  0  0  0  0  0  0  0  0
  -26.7076  -20.1986   24.7473 O   0  0  0  0  0  0  0  0  0  0  0  0
  -21.0958  -30.6608   22.1472 O   0  0  0  0  0  0  0  0  0  0  0  0
  -21.9960  -19.1646   26.4425 O   0  0  0  0  0  0  0  0  0  0  0  0
  -29.3415  -23.4165   19.3566 O   0  0  0  0  0  0  0  0  0  1  0  0
  -20.4000  -19.6504   31.6980 F   0  0  0  0  0  0  0  0  0  0  0  0
  -20.5726  -17.1464   27.6848 F   0  0  0  0  0  0  0  0  0  0  0  0
  -25.9979  -29.6433   19.8499 S   0  0  0  0  0  0  0  0  0  0  0  0
  1  2  1  0  0  0  0
  1  5  2  0  0  0  0
  2  6  2  0  0  0  0
  3  8  2  0  0  0  0
  3 17  1  0  0  0  0
  4  9  1  0  0  0  0
  4 17  2  0  0  0  0
  5 19  1  0  0  0  0
  6 21  1  0  0  0  0
  7 10  2  0  0  0  0
  7 20  1  0  0  0  0
  8 24  1  0  0  0  0
  9 24  2  0  0  0  0
 10 25  1  0  0  0  0
 11 12  2  0  0  0  0
 11 26  1  0  0  0  0
 12 27  1  0  0  0  0
 13 22  1  0  0  0  0
 13 25  2  0  0  0  0
 14 23  1  0  0  0  0
 14 30  2  0  0  0  0
 15 27  2  0  0  0  0
 15 28  1  0  0  0  0
 16 23  2  0  0  0  0
 16 82  1  0  0  0  0
 17 29  1  0  0  0  0
 18 29  1  0  0  0  0
 18 31  2  0  0  0  0
 18 32  1  0  0  0  0
 19 21  2  0  0  0  0
 19 39  1  0  0  0  0
 20 22  2  0  0  0  0
 20 40  1  0  0  0  0
 21 48  1  0  0  0  0
 22 41  1  0  0  0  0
 23 66  1  0  0  0  0
 24 78  1  0  0  0  0
 25 79  1  0  0  0  0
 26 28  2  0  0  0  0
 26 78  1  0  0  0  0
 27 80  1  0  0  0  0
 28 81  1  0  0  0  0
 29 60  2  0  0  0  0
 30 33  1  0  0  0  0
 30 82  1  0  0  0  0
 31 61  1  0  0  0  0
 31 64  1  0  0  0  0
 32 65  1  0  0  0  0
 32 71  2  0  0  0  0
 33 67  1  0  0  0  0
 33 72  2  0  0  0  0
 34 49  1  0  0  0  0
 34 68  1  0  0  0  0
 34 73  2  0  0  0  0
 35 57  1  0  0  0  0
 35 62  1  0  0  0  0
 35 74  2  0  0  0  0
 36 56  1  0  0  0  0
 36 66  1  0  0  0  0
 36 75  2  0  0  0  0
 37 58  1  0  0  0  0
 37 69  1  0  0  0  0
 37 76  2  0  0  0  0
 38 63  1  0  0  0  0
 38 67  1  0  0  0  0
 38 77  2  0  0  0  0
 39 42  1  0  0  0  0
 40 49  1  0  0  0  0
 41 62  1  0  0  0  0
 42 44  1  0  0  0  0
 43 45  1  0  0  0  0
 43 46  1  0  0  0  0
 44 48  1  0  0  0  0
 45 50  1  0  0  0  0
 46 63  1  0  0  0  0
 47 50  1  0  0  0  0
 47 63  1  0  0  0  0
 48 68  1  0  0  0  0
 49 62  1  0  0  0  0
 50 61  1  0  0  0  0
 51 58  1  0  0  0  0
 52 59  1  0  0  0  0
 53 59  1  0  0  0  0
 54 59  1  0  0  0  0
 55 70  1  0  0  0  0
 56 79  1  0  0  0  0
 57 59  1  0  0  0  0
 57 69  1  0  0  0  0
 58 70  1  0  0  0  0
 60 61  1  0  0  0  0
M  CHG  1  70   1
M  ISO  4  38 100  56 101  67 100  79 101
M  END
> <Batch ID>
0152

> <Smiles>
CNC(C)C(=O)NC(C(=O)N1Cc2cc([101O:1][101CH2:1]C(=O)Nc3csc(C(=O)[100NH:0][100C:0](=O)N4CCCC(n5nc(-c6ccc(Oc7ccc(F)cc7F)cc6)c(C(N)=O)c5N)C4)c3)ccc2CC1C(=O)NC1CCCc2ccccc21)C(C)(C)C

> <Shape>
0.190

> <Color>
0.073

> <Negative vol penalty>
0.000

$$$$
