
  -OEChem-04052303303D

 86 95  0     1  0  0  0  0  0999 V2000
  -16.8055  -30.2112   24.2761 C   0  0  0  0  0  0  0  0  0  0  0  0
  -18.0050  -30.4833   24.9262 C   0  0  0  0  0  0  0  0  0  0  0  0
  -29.4228  -16.9514   19.3421 C   0  0  0  0  0  0  0  0  0  0  0  0
  -27.3724  -17.4701   20.5099 C   0  0  0  0  0  0  0  0  0  0  0  0
  -16.7821  -29.3221   23.2023 C   0  0  0  0  0  0  0  0  0  0  0  0
  -19.1816  -29.8657   24.5036 C   0  0  0  0  0  0  0  0  0  0  0  0
  -24.8129  -32.2727   24.5175 C   0  0  0  0  0  0  0  0  0  0  0  0
  -29.3020  -15.6152   19.7237 C   0  0  0  0  0  0  0  0  0  0  0  0
  -27.2516  -16.1339   20.8914 C   0  0  0  0  0  0  0  0  0  0  0  0
  -25.8823  -32.1523   25.4040 C   0  0  0  0  0  0  0  0  0  0  0  0
  -26.2446  -13.2271   19.4925 C   0  0  0  0  0  0  0  0  0  0  0  0
  -24.9911  -12.6288   19.3642 C   0  0  0  0  0  0  0  0  0  0  0  0
  -26.3711  -25.5476   26.6889 C   0  0  0  0  0  0  0  0  0  0  0  0
  -28.4050  -25.5294   25.3853 C   0  0  0  0  0  0  0  0  0  0  0  0
  -26.8252  -30.4151   24.0211 C   0  0  0  0  0  0  0  0  0  0  0  0
  -26.4078  -24.4790   24.5224 C   0  0  0  0  0  0  0  0  0  0  0  0
  -24.9565  -12.1916   21.7400 C   0  0  0  0  0  0  0  0  0  0  0  0
  -28.4580  -17.8789   19.7353 C   0  0  0  0  0  0  0  0  0  0  0  0
  -27.7148  -25.8916   26.5421 C   0  0  0  0  0  0  0  0  0  0  0  0
  -28.0706  -19.8608   18.1766 C   0  0  0  0  0  0  0  0  0  0  0  0
  -17.9607  -28.7007   22.7602 C   0  0  0  0  0  0  0  0  0  0  0  0
  -24.7360  -31.4563   23.3800 C   0  0  0  0  0  0  0  0  0  0  0  0
  -19.1737  -28.9665   23.4238 C   0  0  0  0  0  0  0  0  0  0  0  0
  -25.7551  -30.5289   23.1204 C   0  0  0  0  0  0  0  0  0  0  0  0
  -25.7175  -24.8413   25.6791 C   0  0  0  0  0  0  0  0  0  0  0  0
  -27.7515  -24.8231   24.3755 C   0  0  0  0  0  0  0  0  0  0  0  0
  -28.2164  -15.2064   20.4983 C   0  0  0  0  0  0  0  0  0  0  0  0
  -26.8871  -31.2214   25.1574 C   0  0  0  0  0  0  0  0  0  0  0  0
  -26.8541  -13.3076   20.7446 C   0  0  0  0  0  0  0  0  0  0  0  0
  -24.3471  -12.1111   20.4879 C   0  0  0  0  0  0  0  0  0  0  0  0
  -26.2100  -12.7899   21.8684 C   0  0  0  0  0  0  0  0  0  0  0  0
  -28.5824  -19.2595   19.3420 C   0  0  0  0  0  0  0  0  0  0  0  0
  -28.4561  -21.1757   18.2711 C   0  0  0  0  0  0  0  0  0  0  0  0
  -28.4055  -26.6378   27.6090 C   0  0  0  0  0  0  0  0  0  0  0  0
  -27.3142  -19.2826   17.1046 C   0  0  0  0  0  0  0  0  0  0  0  0
  -22.6895  -29.2639   22.3268 C   0  0  0  0  0  0  0  0  0  0  0  0
  -24.5679  -29.3434   19.6834 C   0  0  0  0  0  0  0  0  0  0  0  0
  -27.6186  -30.0306   18.3166 C   0  0  0  0  0  0  0  0  0  0  0  0
  -29.7878  -24.7171   22.8960 C   0  0  0  0  0  0  0  0  0  0  0  0
  -17.8777  -27.7108   21.6253 C   0  0  0  0  0  0  0  0  0  0  0  0
  -23.5896  -31.6170   22.4196 C   0  0  0  0  0  0  0  0  0  0  0  0
  -25.7298  -29.6428   21.9028 C   0  0  0  0  0  0  0  0  0  0  0  0
  -19.2321  -27.3852   21.0009 C   0  0  0  0  0  0  0  0  0  0  0  0
  -31.8918  -23.9467   20.1290 C   0  0  0  0  0  0  0  0  0  0  0  0
  -20.2670  -27.1062   22.0861 C   0  0  0  0  0  0  0  0  0  0  0  0
  -31.2319  -22.7156   19.5035 C   0  0  0  0  0  0  0  0  0  0  0  0
  -29.0482  -30.1698   27.9584 C   0  0  0  0  0  0  0  0  0  0  0  0
  -31.7910  -23.9313   21.6532 C   0  0  0  0  0  0  0  0  0  0  0  0
  -29.0613  -28.7898   28.6018 C   0  0  0  0  0  0  0  0  0  0  0  0
  -29.7738  -22.5203   21.5584 C   0  0  0  0  0  0  0  0  0  0  0  0
  -27.7334  -28.7477   26.5349 C   0  0  0  0  0  0  0  0  0  0  0  0
  -20.4752  -28.3354   22.9790 C   0  0  1  0  0  0  0  0  0  0  0  0
  -23.3491  -30.3774   21.5634 C   0  0  1  0  0  0  0  0  0  0  0  0
  -29.7929  -22.5234   20.0211 C   0  0  2  0  0  0  0  0  0  0  0  0
  -27.7847  -30.1758   27.0889 C   0  0  1  0  0  0  0  0  0  1  0  0
  -26.5289  -30.5264   27.8848 C   0  0  0  0  0  0  0  0  0  0  0  0
  -28.8622  -29.9597   16.1381 C   0  0  0  0  0  0  0  0  0  0  0  0
  -24.8495  -26.3165   19.9454 C   0  0  0  0  0  0  0  0  0  0  0  0
  -26.8027  -26.4329   18.3835 C   0  0  0  0  0  0  0  0  0  0  0  0
  -24.5403  -27.1365   17.6031 C   0  0  0  0  0  0  0  0  0  0  0  0
  -28.0702  -32.9553   18.3460 C   0  0  0  0  0  0  0  0  0  0  0  0
  -25.8035  -28.6056   19.2273 C   0  0  1  0  0  0  0  0  0  0  0  0
  -28.0135  -30.8070   17.0733 C   0  0  2  0  0  0  0  0  0  0  0  0
  -25.4988  -27.1381   18.8139 C   0  0  0  0  0  0  0  0  0  0  0  0
  -29.2428  -20.1215   20.1197 N   0  0  0  0  0  0  0  0  0  0  0  0
  -29.1487  -21.2780   19.4415 N   0  0  0  0  0  0  0  0  0  0  0  0
  -28.4015  -27.9583   27.5842 N   0  0  0  0  0  0  0  0  0  0  0  0
  -24.5849  -29.8332   20.9970 N   0  0  0  0  0  0  0  0  0  0  0  0
  -30.3988  -23.7500   22.0701 N   0  0  0  0  0  0  0  0  0  0  0  0
  -24.3590  -24.4929   25.8278 N   0  0  0  0  0  0  0  0  0  0  0  0
  -28.2668  -22.2429   17.4662 N   0  0  0  0  0  0  0  0  0  0  0  0
  -27.0046  -17.9170   17.1660 N   0  0  0  0  0  0  0  0  0  0  0  0
  -28.4525  -24.4547   23.2004 N   0  0  0  0  0  0  0  0  0  0  0  0
  -21.3086  -29.3110   22.3096 N   0  0  0  0  0  0  0  0  0  0  0  0
  -26.3940  -29.4148   18.1667 N   0  0  0  0  0  0  0  0  0  0  0  0
  -29.0202  -25.9699   28.5807 N   0  3  0  0  0  0  0  0  0  0  0  0
  -28.7939  -32.0205   17.4465 N   0  3  0  0  0  0  0  0  0  0  0  0
  -26.9386  -19.9533   16.1133 O   0  0  0  0  0  0  0  0  0  0  0  0
  -23.3821  -28.4234   22.8884 O   0  0  0  0  0  0  0  0  0  0  0  0
  -23.6254  -29.4861   18.9005 O   0  0  0  0  0  0  0  0  0  0  0  0
  -28.3274  -29.9729   19.3190 O   0  0  0  0  0  0  0  0  0  0  0  0
  -30.3956  -25.7193   23.2808 O   0  0  0  0  0  0  0  0  0  0  0  0
  -28.0982  -13.9026   20.8705 O   0  0  0  0  0  0  0  0  0  0  0  0
  -27.9317  -31.1014   26.0213 O   0  0  0  0  0  0  0  0  0  1  0  0
  -23.1427  -11.5380   20.3647 F   0  0  0  0  0  0  0  0  0  0  0  0
  -26.7900  -12.8654   23.0741 F   0  0  0  0  0  0  0  0  0  0  0  0
  1  2  1  0  0  0  0
  1  5  2  0  0  0  0
  2  6  2  0  0  0  0
  3  8  2  0  0  0  0
  3 18  1  0  0  0  0
  4  9  1  0  0  0  0
  4 18  2  0  0  0  0
  5 21  1  0  0  0  0
  6 23  1  0  0  0  0
  7 10  2  0  0  0  0
  7 22  1  0  0  0  0
  8 27  1  0  0  0  0
  9 27  2  0  0  0  0
 10 28  1  0  0  0  0
 11 12  2  0  0  0  0
 11 29  1  0  0  0  0
 12 30  1  0  0  0  0
 13 19  1  0  0  0  0
 13 25  2  0  0  0  0
 14 19  2  0  0  0  0
 14 26  1  0  0  0  0
 15 24  1  0  0  0  0
 15 28  2  0  0  0  0
 16 25  1  0  0  0  0
 16 26  2  0  0  0  0
 17 30  2  0  0  0  0
 17 31  1  0  0  0  0
 18 32  1  0  0  0  0
 19 34  1  0  0  0  0
 20 32  1  0  0  0  0
 20 33  2  0  0  0  0
 20 35  1  0  0  0  0
 21 23  2  0  0  0  0
 21 40  1  0  0  0  0
 22 24  2  0  0  0  0
 22 41  1  0  0  0  0
 23 52  1  0  0  0  0
 24 42  1  0  0  0  0
 25 70  1  0  0  0  0
 26 73  1  0  0  0  0
 27 83  1  0  0  0  0
 28 84  1  0  0  0  0
 29 31  2  0  0  0  0
 29 83  1  0  0  0  0
 30 85  1  0  0  0  0
 31 86  1  0  0  0  0
 32 65  2  0  0  0  0
 33 66  1  0  0  0  0
 33 71  1  0  0  0  0
 34 67  1  0  0  0  0
 34 76  2  0  0  0  0
 35 72  1  0  0  0  0
 35 78  2  0  0  0  0
 36 53  1  0  0  0  0
 36 74  1  0  0  0  0
 36 79  2  0  0  0  0
 37 62  1  0  0  0  0
 37 68  1  0  0  0  0
 37 80  2  0  0  0  0
 38 63  1  0  0  0  0
 38 75  1  0  0  0  0
 38 81  2  0  0  0  0
 39 69  1  0  0  0  0
 39 73  1  0  0  0  0
 39 82  2  0  0  0  0
 40 43  1  0  0  0  0
 41 53  1  0  0  0  0
 42 68  1  0  0  0  0
 43 45  1  0  0  0  0
 44 46  1  0  0  0  0
 44 48  1  0  0  0  0
 45 52  1  0  0  0  0
 46 54  1  0  0  0  0
 47 49  1  0  0  0  0
 47 55  1  0  0  0  0
 48 69  1  0  0  0  0
 49 67  1  0  0  0  0
 50 54  1  0  0  0  0
 50 69  1  0  0  0  0
 51 55  1  0  0  0  0
 51 67  1  0  0  0  0
 52 74  1  0  0  0  0
 53 68  1  0  0  0  0
 54 66  1  0  0  0  0
 55 56  1  0  0  0  0
 55 84  1  0  0  0  0
 57 63  1  0  0  0  0
 58 64  1  0  0  0  0
 59 64  1  0  0  0  0
 60 64  1  0  0  0  0
 61 77  1  0  0  0  0
 62 64  1  0  0  0  0
 62 75  1  0  0  0  0
 63 77  1  0  0  0  0
 65 66  1  0  0  0  0
M  CHG  2  76   1  77   1
M  ISO  4  39 100  55 101  73 100  84 101
M  END
> <Batch ID>
0153

> <Smiles>
CNC(C)C(=O)NC(C(=O)N1Cc2cc([101O:1][101C:1]3(C)CCN(C(=N)c4cc(N)cc([100NH:0][100C:0](=O)N5CCCC(n6nc(-c7ccc(Oc8ccc(F)cc8F)cc7)c(C(N)=O)c6N)C5)c4)C3)ccc2CC1C(=O)NC1CCCc2ccccc21)C(C)(C)C

> <Shape>
0.280

> <Color>
0.098

> <Negative vol penalty>
0.000

$$$$

  -OEChem-04052303303D

 85 94  0     1  0  0  0  0  0999 V2000
  -23.2892  -38.1465   20.3117 C   0  0  0  0  0  0  0  0  0  0  0  0
  -23.7338  -37.1599   19.4375 C   0  0  0  0  0  0  0  0  0  0  0  0
  -24.6783   -9.0144   21.2222 C   0  0  0  0  0  0  0  0  0  0  0  0
  -22.9250  -10.5675   20.6298 C   0  0  0  0  0  0  0  0  0  0  0  0
  -23.5730  -38.0493   21.6733 C   0  0  0  0  0  0  0  0  0  0  0  0
  -24.4634  -36.0758   19.9243 C   0  0  0  0  0  0  0  0  0  0  0  0
  -25.5629  -29.0985   18.7308 C   0  0  0  0  0  0  0  0  0  0  0  0
  -23.7228   -8.0262   21.4594 C   0  0  0  0  0  0  0  0  0  0  0  0
  -21.9695   -9.5793   20.8669 C   0  0  0  0  0  0  0  0  0  0  0  0
  -26.6018  -28.1908   18.5296 C   0  0  0  0  0  0  0  0  0  0  0  0
  -21.8359   -5.8963   19.6329 C   0  0  0  0  0  0  0  0  0  0  0  0
  -22.0809   -4.6217   19.1220 C   0  0  0  0  0  0  0  0  0  0  0  0
  -28.6420  -20.0439   20.2899 C   0  0  0  0  0  0  0  0  0  0  0  0
  -26.9645  -28.0871   20.9123 C   0  0  0  0  0  0  0  0  0  0  0  0
  -22.0137   -3.7119   21.3591 C   0  0  0  0  0  0  0  0  0  0  0  0
  -24.2793  -10.2850   20.8075 C   0  0  0  0  0  0  0  0  0  0  0  0
  -28.8802  -20.9184   19.1905 C   0  0  0  0  0  0  0  0  0  0  0  0
  -25.9206  -11.5823   19.3476 C   0  0  0  0  0  0  0  0  0  0  0  0
  -24.2982  -36.9586   22.1784 C   0  0  0  0  0  0  0  0  0  0  0  0
  -25.2235  -29.5163   20.0257 C   0  0  0  0  0  0  0  0  0  0  0  0
  -24.7584  -35.9646   21.2937 C   0  0  0  0  0  0  0  0  0  0  0  0
  -25.9191  -28.9982   21.1274 C   0  0  0  0  0  0  0  0  0  0  0  0
  -22.3685   -8.3086   21.2817 C   0  0  0  0  0  0  0  0  0  0  0  0
  -27.3047  -27.6872   19.6202 C   0  0  0  0  0  0  0  0  0  0  0  0
  -21.6799   -6.0787   21.0070 C   0  0  0  0  0  0  0  0  0  0  0  0
  -22.1698   -3.5296   19.9850 C   0  0  0  0  0  0  0  0  0  0  0  0
  -21.7687   -4.9865   21.8701 C   0  0  0  0  0  0  0  0  0  0  0  0
  -25.2658  -11.3064   20.5629 C   0  0  0  0  0  0  0  0  0  0  0  0
  -26.7538  -12.6349   19.6377 C   0  0  0  0  0  0  0  0  0  0  0  0
  -27.9903  -18.8933   19.9040 C   0  0  0  0  0  0  0  0  0  0  0  0
  -28.4016  -20.4027   18.0060 C   0  0  0  0  0  0  0  0  0  0  0  0
  -29.3597  -24.6373   19.7279 C   0  0  0  0  0  0  0  0  0  0  0  0
  -29.5609  -22.2188   19.3246 C   0  0  0  0  0  0  0  0  0  0  0  0
  -25.7874  -10.9441   18.0706 C   0  0  0  0  0  0  0  0  0  0  0  0
  -25.2046  -32.3056   21.5499 C   0  0  0  0  0  0  0  0  0  0  0  0
  -23.8100  -30.5662   23.9061 C   0  0  0  0  0  0  0  0  0  0  0  0
  -23.3156  -27.5127   25.3479 C   0  0  0  0  0  0  0  0  0  0  0  0
  -27.7152  -17.5701   22.0300 C   0  0  0  0  0  0  0  0  0  0  0  0
  -24.6212  -36.9210   23.6511 C   0  0  0  0  0  0  0  0  0  0  0  0
  -24.0827  -30.4756   20.2277 C   0  0  0  0  0  0  0  0  0  0  0  0
  -25.5807  -29.3993   22.5391 C   0  0  0  0  0  0  0  0  0  0  0  0
  -25.0779  -35.5488   24.1397 C   0  0  0  0  0  0  0  0  0  0  0  0
  -28.0523  -14.6801   24.0821 C   0  0  0  0  0  0  0  0  0  0  0  0
  -26.1175  -34.9627   23.1897 C   0  0  0  0  0  0  0  0  0  0  0  0
  -27.4113  -13.5674   23.2495 C   0  0  0  0  0  0  0  0  0  0  0  0
  -27.0123  -24.7394   19.4690 C   0  0  0  0  0  0  0  0  0  0  0  0
  -27.3135  -16.0073   23.9198 C   0  0  0  0  0  0  0  0  0  0  0  0
  -27.3819  -23.2814   19.7159 C   0  0  0  0  0  0  0  0  0  0  0  0
  -26.4855  -15.3354   21.6990 C   0  0  0  0  0  0  0  0  0  0  0  0
  -25.5313  -34.7608   21.7871 C   0  0  1  0  0  0  0  0  0  0  0  0
  -28.1892  -25.5394   20.0263 C   0  0  2  0  0  0  0  0  0  1  0  0
  -24.1602  -31.2254   21.5540 C   0  0  1  0  0  0  0  0  0  0  0  0
  -27.2338  -13.9947   21.7793 C   0  0  2  0  0  0  0  0  0  0  0  0
  -22.1590  -26.4127   27.2843 C   0  0  0  0  0  0  0  0  0  0  0  0
  -25.9637  -31.6245   25.7906 C   0  0  0  0  0  0  0  0  0  0  0  0
  -25.3512  -29.8066   27.3993 C   0  0  0  0  0  0  0  0  0  0  0  0
  -23.6667  -31.5375   26.7756 C   0  0  0  0  0  0  0  0  0  0  0  0
  -21.6576  -25.8390   23.5566 C   0  0  0  0  0  0  0  0  0  0  0  0
  -24.3111  -29.7700   25.0867 C   0  0  1  0  0  0  0  0  0  0  0  0
  -22.0534  -26.8149   25.8215 C   0  0  2  0  0  0  0  0  0  0  0  0
  -24.8311  -30.6784   26.2365 C   0  0  0  0  0  0  0  0  0  0  0  0
  -25.6501  -12.1182   21.5515 N   0  0  0  0  0  0  0  0  0  0  0  0
  -26.5554  -12.9144   20.9578 N   0  0  0  0  0  0  0  0  0  0  0  0
  -28.8470  -23.3027   19.5707 N   0  0  0  0  0  0  0  0  0  0  0  0
  -24.4614  -30.3447   22.6844 N   0  0  0  0  0  0  0  0  0  0  0  0
  -27.1866  -16.3498   22.5016 N   0  0  0  0  0  0  0  0  0  0  0  0
  -27.6295  -13.3393   18.8899 N   0  0  0  0  0  0  0  0  0  0  0  0
  -28.4665  -20.9800   16.7790 N   0  0  0  0  0  0  0  0  0  0  0  0
  -24.8859   -9.8781   17.9471 N   0  0  0  0  0  0  0  0  0  0  0  0
  -27.5640  -17.7723   20.6586 N   0  0  0  0  0  0  0  0  0  0  0  0
  -24.7006  -33.5763   21.7522 N   0  0  0  0  0  0  0  0  0  0  0  0
  -23.2197  -28.8825   25.4735 N   0  0  0  0  0  0  0  0  0  0  0  0
  -30.8832  -22.2802   19.1975 N   0  3  0  0  0  0  0  0  0  0  0  0
  -21.8056  -25.5876   25.0133 N   0  3  0  0  0  0  0  0  0  0  0  0
  -30.5382  -24.9275   19.6321 O   0  0  0  0  0  0  0  0  0  0  0  0
  -26.4603  -11.2978   17.0728 O   0  0  0  0  0  0  0  0  0  0  0  0
  -26.3808  -32.0082   21.3775 O   0  0  0  0  0  0  0  0  0  0  0  0
  -22.8704  -31.3504   24.0605 O   0  0  0  0  0  0  0  0  0  0  0  0
  -24.2906  -26.9034   24.9137 O   0  0  0  0  0  0  0  0  0  0  0  0
  -28.2858  -18.3640   22.7824 O   0  0  0  0  0  0  0  0  0  0  0  0
  -21.4359   -7.3445   21.5127 O   0  0  0  0  0  0  0  0  0  0  0  0
  -28.3196  -26.8016   19.4266 O   0  0  0  0  0  0  0  0  0  1  0  0
  -22.4036   -2.3054   19.4940 F   0  0  0  0  0  0  0  0  0  0  0  0
  -21.6185   -5.1553   23.1910 F   0  0  0  0  0  0  0  0  0  0  0  0
  -27.6684  -18.8704   18.2223 S   0  0  0  0  0  0  0  0  0  0  0  0
  1  2  1  0  0  0  0
  1  5  2  0  0  0  0
  2  6  2  0  0  0  0
  3  8  2  0  0  0  0
  3 16  1  0  0  0  0
  4  9  1  0  0  0  0
  4 16  2  0  0  0  0
  5 19  1  0  0  0  0
  6 21  1  0  0  0  0
  7 10  2  0  0  0  0
  7 20  1  0  0  0  0
  8 23  1  0  0  0  0
  9 23  2  0  0  0  0
 10 24  1  0  0  0  0
 11 12  2  0  0  0  0
 11 25  1  0  0  0  0
 12 26  1  0  0  0  0
 13 17  1  0  0  0  0
 13 30  2  0  0  0  0
 14 22  1  0  0  0  0
 14 24  2  0  0  0  0
 15 26  2  0  0  0  0
 15 27  1  0  0  0  0
 16 28  1  0  0  0  0
 17 31  2  0  0  0  0
 17 33  1  0  0  0  0
 18 28  1  0  0  0  0
 18 29  2  0  0  0  0
 18 34  1  0  0  0  0
 19 21  2  0  0  0  0
 19 39  1  0  0  0  0
 20 22  2  0  0  0  0
 20 40  1  0  0  0  0
 21 50  1  0  0  0  0
 22 41  1  0  0  0  0
 23 81  1  0  0  0  0
 24 82  1  0  0  0  0
 25 27  2  0  0  0  0
 25 81  1  0  0  0  0
 26 83  1  0  0  0  0
 27 84  1  0  0  0  0
 28 62  2  0  0  0  0
 29 63  1  0  0  0  0
 29 67  1  0  0  0  0
 30 70  1  0  0  0  0
 30 85  1  0  0  0  0
 31 68  1  0  0  0  0
 31 85  1  0  0  0  0
 32 51  1  0  0  0  0
 32 64  1  0  0  0  0
 32 75  2  0  0  0  0
 33 64  1  0  0  0  0
 33 73  2  0  0  0  0
 34 69  1  0  0  0  0
 34 76  2  0  0  0  0
 35 52  1  0  0  0  0
 35 71  1  0  0  0  0
 35 77  2  0  0  0  0
 36 59  1  0  0  0  0
 36 65  1  0  0  0  0
 36 78  2  0  0  0  0
 37 60  1  0  0  0  0
 37 72  1  0  0  0  0
 37 79  2  0  0  0  0
 38 66  1  0  0  0  0
 38 70  1  0  0  0  0
 38 80  2  0  0  0  0
 39 42  1  0  0  0  0
 40 52  1  0  0  0  0
 41 65  1  0  0  0  0
 42 44  1  0  0  0  0
 43 45  1  0  0  0  0
 43 47  1  0  0  0  0
 44 50  1  0  0  0  0
 45 53  1  0  0  0  0
 46 48  1  0  0  0  0
 46 51  1  0  0  0  0
 47 66  1  0  0  0  0
 48 64  1  0  0  0  0
 49 53  1  0  0  0  0
 49 66  1  0  0  0  0
 50 71  1  0  0  0  0
 51 82  1  0  0  0  0
 52 65  1  0  0  0  0
 53 63  1  0  0  0  0
 54 60  1  0  0  0  0
 55 61  1  0  0  0  0
 56 61  1  0  0  0  0
 57 61  1  0  0  0  0
 58 74  1  0  0  0  0
 59 61  1  0  0  0  0
 59 72  1  0  0  0  0
 60 74  1  0  0  0  0
 62 63  1  0  0  0  0
M  CHG  2  73   1  74   1
M  ISO  4  38 100  51 101  70 100  82 101
M  END
> <Batch ID>
0153

> <Smiles>
CNC(C)C(=O)NC(C(=O)N1Cc2cc([101O:1][101CH:1]3CCN(C(=N)c4cc([100NH:0][100C:0](=O)N5CCCC(n6nc(-c7ccc(Oc8ccc(F)cc8F)cc7)c(C(N)=O)c6N)C5)sc4N)C3=O)ccc2CC1C(=O)NC1CCCc2ccccc21)C(C)(C)C

> <Shape>
0.284

> <Color>
0.110

> <Negative vol penalty>
0.000

$$$$

  -OEChem-04052303303D

 83 92  0     1  0  0  0  0  0999 V2000
  -16.2461  -30.0220   23.5775 C   0  0  0  0  0  0  0  0  0  0  0  0
  -16.9191  -28.9892   24.2223 C   0  0  0  0  0  0  0  0  0  0  0  0
  -24.5382   -8.4540   20.5563 C   0  0  0  0  0  0  0  0  0  0  0  0
  -23.0408  -10.3410   20.3712 C   0  0  0  0  0  0  0  0  0  0  0  0
  -16.8556  -30.6966   22.5205 C   0  0  0  0  0  0  0  0  0  0  0  0
  -18.2017  -28.6297   23.8097 C   0  0  0  0  0  0  0  0  0  0  0  0
  -24.3998  -26.1288   26.3874 C   0  0  0  0  0  0  0  0  0  0  0  0
  -23.5305   -7.7151   21.1762 C   0  0  0  0  0  0  0  0  0  0  0  0
  -22.0331   -9.6021   20.9911 C   0  0  0  0  0  0  0  0  0  0  0  0
  -25.3250  -25.1094   26.1669 C   0  0  0  0  0  0  0  0  0  0  0  0
  -22.1415   -7.4861   24.2491 C   0  0  0  0  0  0  0  0  0  0  0  0
  -22.4829   -6.7507   25.3840 C   0  0  0  0  0  0  0  0  0  0  0  0
  -26.3099  -26.3978   24.3811 C   0  0  0  0  0  0  0  0  0  0  0  0
  -29.0990  -20.0115   21.9321 C   0  0  0  0  0  0  0  0  0  0  0  0
  -21.8055   -4.7168   24.2698 C   0  0  0  0  0  0  0  0  0  0  0  0
  -24.2934   -9.7669   20.1539 C   0  0  0  0  0  0  0  0  0  0  0  0
  -25.6046  -10.6105   18.1348 C   0  0  0  0  0  0  0  0  0  0  0  0
  -18.1500  -30.3516   22.1010 C   0  0  0  0  0  0  0  0  0  0  0  0
  -24.4159  -27.2876   25.5979 C   0  0  0  0  0  0  0  0  0  0  0  0
  -18.8285  -29.2994   22.7451 C   0  0  0  0  0  0  0  0  0  0  0  0
  -25.3855  -27.4315   24.5952 C   0  0  0  0  0  0  0  0  0  0  0  0
  -29.6270  -19.1077   20.9609 C   0  0  0  0  0  0  0  0  0  0  0  0
  -22.2779   -8.2892   21.3935 C   0  0  0  0  0  0  0  0  0  0  0  0
  -26.2784  -25.2425   25.1617 C   0  0  0  0  0  0  0  0  0  0  0  0
  -21.6321   -6.8369   23.1245 C   0  0  0  0  0  0  0  0  0  0  0  0
  -22.3150   -5.3660   25.3944 C   0  0  0  0  0  0  0  0  0  0  0  0
  -21.4641   -5.4522   23.1348 C   0  0  0  0  0  0  0  0  0  0  0  0
  -25.3341  -10.5309   19.5140 C   0  0  0  0  0  0  0  0  0  0  0  0
  -29.9181  -19.7620   19.7786 C   0  0  0  0  0  0  0  0  0  0  0  0
  -26.6819  -11.4577   18.0445 C   0  0  0  0  0  0  0  0  0  0  0  0
  -29.0057  -21.2995   21.4493 C   0  0  0  0  0  0  0  0  0  0  0  0
  -24.9412   -9.9756   17.0336 C   0  0  0  0  0  0  0  0  0  0  0  0
  -22.3681  -28.6659   23.5952 C   0  0  0  0  0  0  0  0  0  0  0  0
  -24.5912  -31.0279   23.5639 C   0  0  0  0  0  0  0  0  0  0  0  0
  -28.0577  -22.6361   23.3594 C   0  0  0  0  0  0  0  0  0  0  0  0
  -27.8445  -31.9508   24.0233 C   0  0  0  0  0  0  0  0  0  0  0  0
  -29.3384  -15.9562   19.3200 C   0  0  0  0  0  0  0  0  0  0  0  0
  -18.7491  -31.0782   20.9229 C   0  0  0  0  0  0  0  0  0  0  0  0
  -23.4279  -28.3896   25.8660 C   0  0  0  0  0  0  0  0  0  0  0  0
  -25.4580  -28.6645   23.7333 C   0  0  0  0  0  0  0  0  0  0  0  0
  -29.8682  -17.6392   21.1545 C   0  0  0  0  0  0  0  0  0  0  0  0
  -30.4721  -19.0955   18.5599 C   0  0  0  0  0  0  0  0  0  0  0  0
  -20.2576  -30.8849   20.7910 C   0  0  0  0  0  0  0  0  0  0  0  0
  -29.7412  -13.3047   21.6127 C   0  0  0  0  0  0  0  0  0  0  0  0
  -20.6234  -29.4130   20.9532 C   0  0  0  0  0  0  0  0  0  0  0  0
  -28.6400  -12.3458   21.1627 C   0  0  0  0  0  0  0  0  0  0  0  0
  -31.0378  -17.7222   18.9453 C   0  0  0  0  0  0  0  0  0  0  0  0
  -29.2889  -14.7650   21.5591 C   0  0  0  0  0  0  0  0  0  0  0  0
  -27.6421  -14.2161   19.7956 C   0  0  0  0  0  0  0  0  0  0  0  0
  -20.2306  -28.8967   22.3427 C   0  0  1  0  0  0  0  0  0  0  0  0
  -23.2109  -29.3031   24.6635 C   0  0  1  0  0  0  0  0  0  0  0  0
  -28.0905  -12.7467   19.7824 C   0  0  2  0  0  0  0  0  0  0  0  0
  -29.3654  -33.9421   23.8862 C   0  0  0  0  0  0  0  0  0  0  0  0
  -24.5971  -30.8108   20.5204 C   0  0  0  0  0  0  0  0  0  0  0  0
  -26.7489  -32.0905   20.5029 C   0  0  0  0  0  0  0  0  0  0  0  0
  -24.6765  -33.1507   21.3995 C   0  0  0  0  0  0  0  0  0  0  0  0
  -28.5148  -31.7827   26.9011 C   0  0  0  0  0  0  0  0  0  0  0  0
  -27.6689  -24.0790   23.6226 C   0  0  0  0  0  0  0  0  0  1  0  0
  -25.8162  -31.3321   22.7358 C   0  0  1  0  0  0  0  0  0  0  0  0
  -28.4653  -33.1082   24.7846 C   0  0  2  0  0  0  0  0  0  0  0  0
  -25.4574  -31.8218   21.3044 C   0  0  0  0  0  0  0  0  0  0  0  0
  -26.1721  -11.2685   20.2472 N   0  0  0  0  0  0  0  0  0  0  0  0
  -26.9798  -11.8196   19.3253 N   0  0  0  0  0  0  0  0  0  0  0  0
  -24.4663  -29.7115   24.0301 N   0  0  0  0  0  0  0  0  0  0  0  0
  -30.1184  -17.0005   19.8420 N   0  0  0  0  0  0  0  0  0  0  0  0
  -28.7289  -15.0914   20.2406 N   0  0  0  0  0  0  0  0  0  0  0  0
  -27.3941  -11.9208   16.9953 N   0  0  0  0  0  0  0  0  0  0  0  0
  -23.8516   -9.1365   17.3039 N   0  0  0  0  0  0  0  0  0  0  0  0
  -28.5603  -22.4470   22.0445 N   0  0  0  0  0  0  0  0  0  0  0  0
  -21.1883  -29.3365   23.3346 N   0  0  0  0  0  0  0  0  0  0  0  0
  -26.6077  -32.2812   23.5112 N   0  0  0  0  0  0  0  0  0  0  0  0
  -29.2796  -32.6007   25.9249 N   0  3  0  0  0  0  0  0  0  0  0  0
  -25.3143  -10.1343   15.8465 O   0  0  0  0  0  0  0  0  0  0  0  0
  -22.7599  -27.6424   23.0468 O   0  0  0  0  0  0  0  0  0  0  0  0
  -23.7788  -31.9269   23.7948 O   0  0  0  0  0  0  0  0  0  0  0  0
  -27.9320  -21.7698   24.2187 O   0  0  0  0  0  0  0  0  0  0  0  0
  -28.4027  -30.8636   23.8927 O   0  0  0  0  0  0  0  0  0  0  0  0
  -29.1893  -15.8102   18.1001 O   0  0  0  0  0  0  0  0  0  0  0  0
  -21.2943   -7.5684   21.9982 O   0  0  0  0  0  0  0  0  0  0  0  0
  -27.1916  -24.2384   24.9417 O   0  0  0  0  0  0  0  0  0  1  0  0
  -22.6443   -4.6597   26.4838 F   0  0  0  0  0  0  0  0  0  0  0  0
  -20.9762   -4.8228   22.0570 F   0  0  0  0  0  0  0  0  0  0  0  0
  -29.5536  -21.4216   19.8311 S   0  0  0  0  0  0  0  0  0  0  0  0
  1  2  1  0  0  0  0
  1  5  2  0  0  0  0
  2  6  2  0  0  0  0
  3  8  2  0  0  0  0
  3 16  1  0  0  0  0
  4  9  1  0  0  0  0
  4 16  2  0  0  0  0
  5 18  1  0  0  0  0
  6 20  1  0  0  0  0
  7 10  2  0  0  0  0
  7 19  1  0  0  0  0
  8 23  1  0  0  0  0
  9 23  2  0  0  0  0
 10 24  1  0  0  0  0
 11 12  2  0  0  0  0
 11 25  1  0  0  0  0
 12 26  1  0  0  0  0
 13 21  1  0  0  0  0
 13 24  2  0  0  0  0
 14 22  1  0  0  0  0
 14 31  2  0  0  0  0
 15 26  2  0  0  0  0
 15 27  1  0  0  0  0
 16 28  1  0  0  0  0
 17 28  1  0  0  0  0
 17 30  2  0  0  0  0
 17 32  1  0  0  0  0
 18 20  2  0  0  0  0
 18 38  1  0  0  0  0
 19 21  2  0  0  0  0
 19 39  1  0  0  0  0
 20 50  1  0  0  0  0
 21 40  1  0  0  0  0
 22 29  2  0  0  0  0
 22 41  1  0  0  0  0
 23 79  1  0  0  0  0
 24 80  1  0  0  0  0
 25 27  2  0  0  0  0
 25 79  1  0  0  0  0
 26 81  1  0  0  0  0
 27 82  1  0  0  0  0
 28 62  2  0  0  0  0
 29 42  1  0  0  0  0
 29 83  1  0  0  0  0
 30 63  1  0  0  0  0
 30 67  1  0  0  0  0
 31 69  1  0  0  0  0
 31 83  1  0  0  0  0
 32 68  1  0  0  0  0
 32 73  2  0  0  0  0
 33 51  1  0  0  0  0
 33 70  1  0  0  0  0
 33 74  2  0  0  0  0
 34 59  1  0  0  0  0
 34 64  1  0  0  0  0
 34 75  2  0  0  0  0
 35 58  1  0  0  0  0
 35 69  1  0  0  0  0
 35 76  2  0  0  0  0
 36 60  1  0  0  0  0
 36 71  1  0  0  0  0
 36 77  2  0  0  0  0
 37 65  1  0  0  0  0
 37 66  1  0  0  0  0
 37 78  2  0  0  0  0
 38 43  1  0  0  0  0
 39 51  1  0  0  0  0
 40 64  1  0  0  0  0
 41 65  1  0  0  0  0
 42 47  1  0  0  0  0
 43 45  1  0  0  0  0
 44 46  1  0  0  0  0
 44 48  1  0  0  0  0
 45 50  1  0  0  0  0
 46 52  1  0  0  0  0
 47 65  1  0  0  0  0
 48 66  1  0  0  0  0
 49 52  1  0  0  0  0
 49 66  1  0  0  0  0
 50 70  1  0  0  0  0
 51 64  1  0  0  0  0
 52 63  1  0  0  0  0
 53 60  1  0  0  0  0
 54 61  1  0  0  0  0
 55 61  1  0  0  0  0
 56 61  1  0  0  0  0
 57 72  1  0  0  0  0
 58 80  1  0  0  0  0
 59 61  1  0  0  0  0
 59 71  1  0  0  0  0
 60 72  1  0  0  0  0
 62 63  1  0  0  0  0
M  CHG  1  72   1
M  ISO  4  37 100  58 101  65 100  80 101
M  END
> <Batch ID>
0153

> <Smiles>
CNC(C)C(=O)NC(C(=O)N1Cc2cc([101O:1][101CH2:1]C(=O)Nc3cc4c(s3)CC[100N:0]([100C:0](=O)N3CCCC(n5nc(-c6ccc(Oc7ccc(F)cc7F)cc6)c(C(N)=O)c5N)C3)C4)ccc2CC1C(=O)NC1CCCc2ccccc21)C(C)(C)C

> <Shape>
0.277

> <Color>
0.088

> <Negative vol penalty>
0.000

$$$$

  -OEChem-04052303303D

 84 93  0     1  0  0  0  0  0999 V2000
  -27.7377  -37.8895   27.1190 C   0  0  0  0  0  0  0  0  0  0  0  0
  -28.4341  -36.7836   26.6424 C   0  0  0  0  0  0  0  0  0  0  0  0
  -24.3256   -9.1901   21.4843 C   0  0  0  0  0  0  0  0  0  0  0  0
  -24.7419  -10.4807   23.4838 C   0  0  0  0  0  0  0  0  0  0  0  0
  -26.3456  -37.8581   27.1893 C   0  0  0  0  0  0  0  0  0  0  0  0
  -27.7388  -35.6449   26.2368 C   0  0  0  0  0  0  0  0  0  0  0  0
  -29.2367  -31.8482   21.6709 C   0  0  0  0  0  0  0  0  0  0  0  0
  -23.9943   -8.0841   22.2671 C   0  0  0  0  0  0  0  0  0  0  0  0
  -24.4106   -9.3747   24.2666 C   0  0  0  0  0  0  0  0  0  0  0  0
  -29.8884  -30.6159   21.6514 C   0  0  0  0  0  0  0  0  0  0  0  0
  -21.3365   -7.0060   24.0578 C   0  0  0  0  0  0  0  0  0  0  0  0
  -20.1960   -6.2829   23.7086 C   0  0  0  0  0  0  0  0  0  0  0  0
  -30.6601  -21.3487   21.3883 C   0  0  0  0  0  0  0  0  0  0  0  0
  -30.7003  -22.7720   21.4388 C   0  0  0  0  0  0  0  0  0  0  0  0
  -27.7531  -29.4936   21.6411 C   0  0  0  0  0  0  0  0  0  0  0  0
  -21.5467   -4.3046   23.3936 C   0  0  0  0  0  0  0  0  0  0  0  0
  -24.6994  -10.3884   22.0927 C   0  0  0  0  0  0  0  0  0  0  0  0
  -24.1719  -12.5344   20.8184 C   0  0  0  0  0  0  0  0  0  0  0  0
  -25.6323  -36.7221   26.7753 C   0  0  0  0  0  0  0  0  0  0  0  0
  -27.8359  -31.9124   21.6868 C   0  0  0  0  0  0  0  0  0  0  0  0
  -26.3359  -35.5977   26.3029 C   0  0  0  0  0  0  0  0  0  0  0  0
  -27.0860  -30.7280   21.6583 C   0  0  0  0  0  0  0  0  0  0  0  0
  -24.0368   -8.1765   23.6582 C   0  0  0  0  0  0  0  0  0  0  0  0
  -29.1466  -29.4383   21.6394 C   0  0  0  0  0  0  0  0  0  0  0  0
  -22.5822   -6.3785   24.0748 C   0  0  0  0  0  0  0  0  0  0  0  0
  -20.3011   -4.9322   23.3766 C   0  0  0  0  0  0  0  0  0  0  0  0
  -22.6873   -5.0278   23.7427 C   0  0  0  0  0  0  0  0  0  0  0  0
  -25.0422  -11.5310   21.2846 C   0  0  0  0  0  0  0  0  0  0  0  0
  -29.3694  -20.8673   21.3859 C   0  0  0  0  0  0  0  0  0  0  0  0
  -24.9795  -13.3842   20.1028 C   0  0  0  0  0  0  0  0  0  0  0  0
  -29.4387  -23.3244   21.4727 C   0  0  0  0  0  0  0  0  0  0  0  0
  -22.7596  -12.6850   21.0147 C   0  0  0  0  0  0  0  0  0  0  0  0
  -25.6655  -33.0517   23.7104 C   0  0  0  0  0  0  0  0  0  0  0  0
  -23.6059  -32.2796   21.3261 C   0  0  0  0  0  0  0  0  0  0  0  0
  -29.8243  -25.8100   21.5551 C   0  0  0  0  0  0  0  0  0  0  0  0
  -22.9457  -30.3773   18.5707 C   0  0  0  0  0  0  0  0  0  0  0  0
  -29.7317  -16.2567   19.5897 C   0  0  0  0  0  0  0  0  0  0  0  0
  -24.1305  -36.7173   26.9142 C   0  0  0  0  0  0  0  0  0  0  0  0
  -27.1479  -33.2500   21.6809 C   0  0  0  0  0  0  0  0  0  0  0  0
  -25.5799  -30.7429   21.6540 C   0  0  0  0  0  0  0  0  0  0  0  0
  -23.4482  -35.6113   26.1133 C   0  0  0  0  0  0  0  0  0  0  0  0
  -29.7439  -12.8843   18.5364 C   0  0  0  0  0  0  0  0  0  0  0  0
  -24.1652  -34.2811   26.3218 C   0  0  0  0  0  0  0  0  0  0  0  0
  -28.4723  -12.2963   19.1418 C   0  0  0  0  0  0  0  0  0  0  0  0
  -29.3909  -18.5053   22.4676 C   0  0  0  0  0  0  0  0  0  0  0  0
  -30.3892  -13.8779   19.4930 C   0  0  0  0  0  0  0  0  0  0  0  0
  -29.1005  -17.1143   21.9201 C   0  0  0  0  0  0  0  0  0  0  0  0
  -29.3510  -18.6501   20.0978 C   0  0  0  0  0  0  0  0  0  0  0  0
  -28.1864  -14.4453   20.4808 C   0  0  0  0  0  0  0  0  0  0  0  0
  -25.6159  -34.3534   25.8303 C   0  0  1  0  0  0  0  0  0  0  0  0
  -28.9006  -19.4297   21.3413 C   0  0  2  0  0  0  0  0  0  0  0  0
  -25.7203  -33.1899   22.2152 C   0  0  1  0  0  0  0  0  0  0  0  0
  -27.5038  -13.4141   19.5586 C   0  0  2  0  0  0  0  0  0  0  0  0
  -21.1644  -29.9434   16.8573 C   0  0  0  0  0  0  0  0  0  0  0  0
  -22.0199  -30.6796   23.3839 C   0  0  0  0  0  0  0  0  0  0  0  0
  -20.8526  -29.5323   21.4893 C   0  0  0  0  0  0  0  0  0  0  0  0
  -20.6211  -31.9985   21.7845 C   0  0  0  0  0  0  0  0  0  0  0  0
  -24.7127  -31.2196   16.3509 C   0  0  0  0  0  0  0  0  0  0  0  0
  -28.9752  -27.0664   21.6094 C   0  0  0  0  0  0  0  0  0  1  0  0
  -22.8129  -31.0498   20.9549 C   0  0  1  0  0  0  0  0  0  0  0  0
  -22.4116  -30.7441   17.1979 C   0  0  2  0  0  0  0  0  0  0  0  0
  -21.6050  -30.8144   21.9052 C   0  0  0  0  0  0  0  0  0  0  0  0
  -26.3060  -11.7239   20.8975 N   0  0  0  0  0  0  0  0  0  0  0  0
  -26.2355  -12.8583   20.1805 N   0  0  0  0  0  0  0  0  0  0  0  0
  -24.9535  -32.0752   21.6550 N   0  0  0  0  0  0  0  0  0  0  0  0
  -29.4508  -14.9230   19.9064 N   0  0  0  0  0  0  0  0  0  0  0  0
  -29.3036  -17.2421   20.4785 N   0  0  0  0  0  0  0  0  0  0  0  0
  -24.7307  -14.5223   19.4208 N   0  0  0  0  0  0  0  0  0  0  0  0
  -22.0845  -11.7214   21.7764 N   0  0  0  0  0  0  0  0  0  0  0  0
  -29.0349  -24.6297   21.5233 N   0  0  0  0  0  0  0  0  0  0  0  0
  -25.6660  -34.2564   24.3872 N   0  0  0  0  0  0  0  0  0  0  0  0
  -22.4471  -31.2083   19.5515 N   0  0  0  0  0  0  0  0  0  0  0  0
  -23.4408  -30.4779   16.1535 N   0  3  0  0  0  0  0  0  0  0  0  0
  -22.1126  -13.6367   20.5155 O   0  0  0  0  0  0  0  0  0  0  0  0
  -25.6242  -31.9347   24.2128 O   0  0  0  0  0  0  0  0  0  0  0  0
  -23.0521  -33.3817   21.3176 O   0  0  0  0  0  0  0  0  0  0  0  0
  -31.0498  -25.8628   21.5425 O   0  0  0  0  0  0  0  0  0  0  0  0
  -23.7244  -29.4445   18.7550 O   0  0  0  0  0  0  0  0  0  0  0  0
  -30.3756  -16.5545   18.5745 O   0  0  0  0  0  0  0  0  0  0  0  0
  -23.7134   -7.0976   24.4224 O   0  0  0  0  0  0  0  0  0  0  0  0
  -29.7868  -28.2216   21.6207 O   0  0  0  0  0  0  0  0  0  1  0  0
  -19.2056   -4.2375   23.0428 F   0  0  0  0  0  0  0  0  0  0  0  0
  -23.8811   -4.4192   23.7584 F   0  0  0  0  0  0  0  0  0  0  0  0
  -28.2130  -22.1289   21.4441 S   0  0  0  0  0  0  0  0  0  0  0  0
  1  2  1  0  0  0  0
  1  5  2  0  0  0  0
  2  6  2  0  0  0  0
  3  8  2  0  0  0  0
  3 17  1  0  0  0  0
  4  9  1  0  0  0  0
  4 17  2  0  0  0  0
  5 19  1  0  0  0  0
  6 21  1  0  0  0  0
  7 10  2  0  0  0  0
  7 20  1  0  0  0  0
  8 23  1  0  0  0  0
  9 23  2  0  0  0  0
 10 24  1  0  0  0  0
 11 12  2  0  0  0  0
 11 25  1  0  0  0  0
 12 26  1  0  0  0  0
 13 14  1  0  0  0  0
 13 29  2  0  0  0  0
 14 31  2  0  0  0  0
 15 22  1  0  0  0  0
 15 24  2  0  0  0  0
 16 26  2  0  0  0  0
 16 27  1  0  0  0  0
 17 28  1  0  0  0  0
 18 28  1  0  0  0  0
 18 30  2  0  0  0  0
 18 32  1  0  0  0  0
 19 21  2  0  0  0  0
 19 38  1  0  0  0  0
 20 22  2  0  0  0  0
 20 39  1  0  0  0  0
 21 50  1  0  0  0  0
 22 40  1  0  0  0  0
 23 80  1  0  0  0  0
 24 81  1  0  0  0  0
 25 27  2  0  0  0  0
 25 80  1  0  0  0  0
 26 82  1  0  0  0  0
 27 83  1  0  0  0  0
 28 63  2  0  0  0  0
 29 51  1  0  0  0  0
 29 84  1  0  0  0  0
 30 64  1  0  0  0  0
 30 68  1  0  0  0  0
 31 70  1  0  0  0  0
 31 84  1  0  0  0  0
 32 69  1  0  0  0  0
 32 74  2  0  0  0  0
 33 52  1  0  0  0  0
 33 71  1  0  0  0  0
 33 75  2  0  0  0  0
 34 60  1  0  0  0  0
 34 65  1  0  0  0  0
 34 76  2  0  0  0  0
 35 59  1  0  0  0  0
 35 70  1  0  0  0  0
 35 77  2  0  0  0  0
 36 61  1  0  0  0  0
 36 72  1  0  0  0  0
 36 78  2  0  0  0  0
 37 66  1  0  0  0  0
 37 67  1  0  0  0  0
 37 79  2  0  0  0  0
 38 41  1  0  0  0  0
 39 52  1  0  0  0  0
 40 65  1  0  0  0  0
 41 43  1  0  0  0  0
 42 44  1  0  0  0  0
 42 46  1  0  0  0  0
 43 50  1  0  0  0  0
 44 53  1  0  0  0  0
 45 47  1  0  0  0  0
 45 51  1  0  0  0  0
 46 66  1  0  0  0  0
 47 67  1  0  0  0  0
 48 51  1  0  0  0  0
 48 67  1  0  0  0  0
 49 53  1  0  0  0  0
 49 66  1  0  0  0  0
 50 71  1  0  0  0  0
 52 65  1  0  0  0  0
 53 64  1  0  0  0  0
 54 61  1  0  0  0  0
 55 62  1  0  0  0  0
 56 62  1  0  0  0  0
 57 62  1  0  0  0  0
 58 73  1  0  0  0  0
 59 81  1  0  0  0  0
 60 62  1  0  0  0  0
 60 72  1  0  0  0  0
 61 73  1  0  0  0  0
 63 64  1  0  0  0  0
M  CHG  1  73   1
M  ISO  4  37 100  59 101  67 100  81 101
M  END
> <Batch ID>
0153

> <Smiles>
CNC(C)C(=O)NC(C(=O)N1Cc2cc([101O:1][101CH2:1]C(=O)Nc3ccc(C4CC[100N:0]([100C:0](=O)N5CCCC(n6nc(-c7ccc(Oc8ccc(F)cc8F)cc7)c(C(N)=O)c6N)C5)C4)s3)ccc2CC1C(=O)NC1CCCc2ccccc21)C(C)(C)C

> <Shape>
0.297

> <Color>
0.095

> <Negative vol penalty>
0.000

$$$$

  -OEChem-04052303303D

 84 93  0     1  0  0  0  0  0999 V2000
  -30.4706  -25.7066   17.1505 C   0  0  0  0  0  0  0  0  0  0  0  0
  -29.2115  -26.2869   17.0462 C   0  0  0  0  0  0  0  0  0  0  0  0
  -28.1490  -14.3616   21.5543 C   0  0  0  0  0  0  0  0  0  0  0  0
  -26.7081  -15.1283   19.7730 C   0  0  0  0  0  0  0  0  0  0  0  0
  -31.0790  -25.5901   18.3985 C   0  0  0  0  0  0  0  0  0  0  0  0
  -28.5655  -26.7617   18.1882 C   0  0  0  0  0  0  0  0  0  0  0  0
  -22.9961  -29.1307   18.8927 C   0  0  0  0  0  0  0  0  0  0  0  0
  -27.5161  -13.1188   21.5313 C   0  0  0  0  0  0  0  0  0  0  0  0
  -26.0752  -13.8855   19.7500 C   0  0  0  0  0  0  0  0  0  0  0  0
  -21.7149  -28.6743   19.1994 C   0  0  0  0  0  0  0  0  0  0  0  0
  -23.8392  -11.0342   19.4666 C   0  0  0  0  0  0  0  0  0  0  0  0
  -22.4461  -11.0172   19.3998 C   0  0  0  0  0  0  0  0  0  0  0  0
  -22.0632  -29.2684   21.5113 C   0  0  0  0  0  0  0  0  0  0  0  0
  -23.2997  -23.7447   21.3798 C   0  0  0  0  0  0  0  0  0  0  0  0
  -22.3314  -12.2345   21.4836 C   0  0  0  0  0  0  0  0  0  0  0  0
  -27.7449  -15.3664   20.6752 C   0  0  0  0  0  0  0  0  0  0  0  0
  -29.5265  -17.0442   19.9551 C   0  0  0  0  0  0  0  0  0  0  0  0
  -30.4341  -26.0526   19.5574 C   0  0  0  0  0  0  0  0  0  0  0  0
  -23.8259  -29.6502   19.8966 C   0  0  0  0  0  0  0  0  0  0  0  0
  -29.1733  -26.6749   19.4538 C   0  0  0  0  0  0  0  0  0  0  0  0
  -23.3536  -29.7331   21.2142 C   0  0  0  0  0  0  0  0  0  0  0  0
  -24.5849  -23.4341   20.8924 C   0  0  0  0  0  0  0  0  0  0  0  0
  -26.4793  -12.8807   20.6292 C   0  0  0  0  0  0  0  0  0  0  0  0
  -21.2493  -28.7405   20.5093 C   0  0  0  0  0  0  0  0  0  0  0  0
  -24.4785  -11.6513   20.5419 C   0  0  0  0  0  0  0  0  0  0  0  0
  -21.6922  -11.6174   20.4083 C   0  0  0  0  0  0  0  0  0  0  0  0
  -23.7246  -12.2515   21.5504 C   0  0  0  0  0  0  0  0  0  0  0  0
  -28.3979  -16.6506   20.6988 C   0  0  0  0  0  0  0  0  0  0  0  0
  -24.8001  -23.9210   19.6353 C   0  0  0  0  0  0  0  0  0  0  0  0
  -29.7501  -18.3456   20.3332 C   0  0  0  0  0  0  0  0  0  0  0  0
  -22.5835  -24.4581   20.4306 C   0  0  0  0  0  0  0  0  0  0  0  0
  -30.3032  -16.3002   19.0071 C   0  0  0  0  0  0  0  0  0  0  0  0
  -26.6416  -28.8337   21.1249 C   0  0  0  0  0  0  0  0  0  0  0  0
  -26.3048  -31.6228   22.7465 C   0  0  0  0  0  0  0  0  0  0  0  0
  -20.3455  -24.8847   21.5040 C   0  0  0  0  0  0  0  0  0  0  0  0
  -24.2145  -34.0159   23.9918 C   0  0  0  0  0  0  0  0  0  0  0  0
  -25.8875  -22.4001   22.6778 C   0  0  0  0  0  0  0  0  0  0  0  0
  -31.1416  -25.9084   20.8817 C   0  0  0  0  0  0  0  0  0  0  0  0
  -25.1954  -30.1630   19.5447 C   0  0  0  0  0  0  0  0  0  0  0  0
  -24.1976  -30.3010   22.3250 C   0  0  0  0  0  0  0  0  0  0  0  0
  -26.1567  -23.6613   19.1001 C   0  0  0  0  0  0  0  0  0  0  0  0
  -30.2003  -26.0326   22.0753 C   0  0  0  0  0  0  0  0  0  0  0  0
  -29.1387  -21.3393   24.0227 C   0  0  0  0  0  0  0  0  0  0  0  0
  -29.3341  -27.2745   21.9271 C   0  0  0  0  0  0  0  0  0  0  0  0
  -29.3896  -20.0241   23.2817 C   0  0  0  0  0  0  0  0  0  0  0  0
  -26.7640  -22.8071   20.2546 C   0  0  0  0  0  0  0  0  0  0  0  0
  -27.6488  -21.6094   24.2228 C   0  0  0  0  0  0  0  0  0  0  0  0
  -27.0928  -20.2233   22.2637 C   0  0  0  0  0  0  0  0  0  0  0  0
  -28.4385  -27.1707   20.6860 C   0  0  1  0  0  0  0  0  0  0  0  0
  -26.1452  -30.1980   20.7380 C   0  0  1  0  0  0  0  0  0  0  0  0
  -28.5755  -19.9545   21.9750 C   0  0  2  0  0  0  0  0  0  0  0  0
  -24.2289  -36.1553   25.3033 C   0  0  0  0  0  0  0  0  0  0  0  0
  -26.7811  -30.0432   25.3131 C   0  0  0  0  0  0  0  0  0  0  0  0
  -25.8582  -31.9846   26.5967 C   0  0  0  0  0  0  0  0  0  0  0  0
  -27.9250  -32.2656   25.2284 C   0  0  0  0  0  0  0  0  0  0  0  0
  -23.0152  -35.5330   21.7515 C   0  0  0  0  0  0  0  0  0  0  0  0
  -19.0445  -25.5795   21.1266 C   0  0  0  0  0  0  0  0  0  0  0  0
  -18.6928  -26.7221   22.0731 C   0  0  0  0  0  0  0  0  0  0  0  0
  -19.7939  -27.7714   22.1213 C   0  0  0  0  0  0  0  0  0  1  0  0
  -25.6925  -32.0248   24.0665 C   0  0  1  0  0  0  0  0  0  0  0  0
  -24.2602  -35.5314   23.9168 C   0  0  2  0  0  0  0  0  0  0  0  0
  -26.5488  -31.5670   25.2808 C   0  0  0  0  0  0  0  0  0  0  0  0
  -27.9368  -17.6231   21.4898 N   0  0  0  0  0  0  0  0  0  0  0  0
  -28.7798  -18.6407   21.2452 N   0  0  0  0  0  0  0  0  0  0  0  0
  -25.7263  -22.7737   21.3440 N   0  0  0  0  0  0  0  0  0  0  0  0
  -25.5317  -30.7836   21.9317 N   0  0  0  0  0  0  0  0  0  0  0  0
  -26.9283  -21.5045   22.9552 N   0  0  0  0  0  0  0  0  0  0  0  0
  -30.6800  -19.2548   19.9714 N   0  0  0  0  0  0  0  0  0  0  0  0
  -29.9356  -14.9753   18.7352 N   0  0  0  0  0  0  0  0  0  0  0  0
  -21.3109  -24.9585   20.4633 N   0  0  0  0  0  0  0  0  0  0  0  0
  -27.7907  -28.4446   20.4634 N   0  0  0  0  0  0  0  0  0  0  0  0
  -25.4790  -33.4663   23.9954 N   0  0  0  0  0  0  0  0  0  0  0  0
  -23.0957  -36.0471   23.1430 N   0  3  0  0  0  0  0  0  0  0  0  0
  -31.3038  -16.7902   18.4308 O   0  0  0  0  0  0  0  0  0  0  0  0
  -26.0283  -28.1828   21.9627 O   0  0  0  0  0  0  0  0  0  0  0  0
  -27.4246  -32.0439   22.4461 O   0  0  0  0  0  0  0  0  0  0  0  0
  -20.4998  -24.3369   22.5905 O   0  0  0  0  0  0  0  0  0  0  0  0
  -23.1622  -33.3831   24.0458 O   0  0  0  0  0  0  0  0  0  0  0  0
  -25.2039  -22.8805   23.5902 O   0  0  0  0  0  0  0  0  0  0  0  0
  -25.8617  -11.6680   20.6063 O   0  0  0  0  0  0  0  0  0  0  0  0
  -19.9903  -28.2918   20.8137 O   0  0  0  0  0  0  0  0  0  1  0  0
  -20.3544  -11.6023   20.3433 F   0  0  0  0  0  0  0  0  0  0  0  0
  -24.3331  -12.8469   22.5852 F   0  0  0  0  0  0  0  0  0  0  0  0
  -23.4944  -24.7416   18.9864 S   0  0  0  0  0  0  0  0  0  0  0  0
  1  2  1  0  0  0  0
  1  5  2  0  0  0  0
  2  6  2  0  0  0  0
  3  8  2  0  0  0  0
  3 16  1  0  0  0  0
  4  9  1  0  0  0  0
  4 16  2  0  0  0  0
  5 18  1  0  0  0  0
  6 20  1  0  0  0  0
  7 10  2  0  0  0  0
  7 19  1  0  0  0  0
  8 23  1  0  0  0  0
  9 23  2  0  0  0  0
 10 24  1  0  0  0  0
 11 12  2  0  0  0  0
 11 25  1  0  0  0  0
 12 26  1  0  0  0  0
 13 21  1  0  0  0  0
 13 24  2  0  0  0  0
 14 22  1  0  0  0  0
 14 31  2  0  0  0  0
 15 26  2  0  0  0  0
 15 27  1  0  0  0  0
 16 28  1  0  0  0  0
 17 28  1  0  0  0  0
 17 30  2  0  0  0  0
 17 32  1  0  0  0  0
 18 20  2  0  0  0  0
 18 38  1  0  0  0  0
 19 21  2  0  0  0  0
 19 39  1  0  0  0  0
 20 49  1  0  0  0  0
 21 40  1  0  0  0  0
 22 29  2  0  0  0  0
 22 65  1  0  0  0  0
 23 80  1  0  0  0  0
 24 81  1  0  0  0  0
 25 27  2  0  0  0  0
 25 80  1  0  0  0  0
 26 82  1  0  0  0  0
 27 83  1  0  0  0  0
 28 63  2  0  0  0  0
 29 41  1  0  0  0  0
 29 84  1  0  0  0  0
 30 64  1  0  0  0  0
 30 68  1  0  0  0  0
 31 70  1  0  0  0  0
 31 84  1  0  0  0  0
 32 69  1  0  0  0  0
 32 74  2  0  0  0  0
 33 50  1  0  0  0  0
 33 71  1  0  0  0  0
 33 75  2  0  0  0  0
 34 60  1  0  0  0  0
 34 66  1  0  0  0  0
 34 76  2  0  0  0  0
 35 57  1  0  0  0  0
 35 70  1  0  0  0  0
 35 77  2  0  0  0  0
 36 61  1  0  0  0  0
 36 72  1  0  0  0  0
 36 78  2  0  0  0  0
 37 65  1  0  0  0  0
 37 67  1  0  0  0  0
 37 79  2  0  0  0  0
 38 42  1  0  0  0  0
 39 50  1  0  0  0  0
 40 66  1  0  0  0  0
 41 46  1  0  0  0  0
 42 44  1  0  0  0  0
 43 45  1  0  0  0  0
 43 47  1  0  0  0  0
 44 49  1  0  0  0  0
 45 51  1  0  0  0  0
 46 65  1  0  0  0  0
 47 67  1  0  0  0  0
 48 51  1  0  0  0  0
 48 67  1  0  0  0  0
 49 71  1  0  0  0  0
 50 66  1  0  0  0  0
 51 64  1  0  0  0  0
 52 61  1  0  0  0  0
 53 62  1  0  0  0  0
 54 62  1  0  0  0  0
 55 62  1  0  0  0  0
 56 73  1  0  0  0  0
 57 58  1  0  0  0  0
 58 59  1  0  0  0  0
 59 81  1  0  0  0  0
 60 62  1  0  0  0  0
 60 72  1  0  0  0  0
 61 73  1  0  0  0  0
 63 64  1  0  0  0  0
M  CHG  1  73   1
M  ISO  4  37 100  59 101  65 100  81 101
M  END
> <Batch ID>
0153

> <Smiles>
CNC(C)C(=O)NC(C(=O)N1Cc2cc([101O:1][101CH2:1]CCC(=O)Nc3cc4c(s3)CC[100N:0]4[100C:0](=O)N3CCCC(n4nc(-c5ccc(Oc6ccc(F)cc6F)cc5)c(C(N)=O)c4N)C3)ccc2CC1C(=O)NC1CCCc2ccccc21)C(C)(C)C

> <Shape>
0.314

> <Color>
0.078

> <Negative vol penalty>
0.000

$$$$

  -OEChem-04052303303D

 85 94  0     1  0  0  0  0  0999 V2000
  -32.2812  -25.0280    8.7480 C   0  0  0  0  0  0  0  0  0  0  0  0
  -32.6017  -24.6896   10.0588 C   0  0  0  0  0  0  0  0  0  0  0  0
  -23.2527  -10.4059   22.3511 C   0  0  0  0  0  0  0  0  0  0  0  0
  -23.5606   -9.5501   20.1129 C   0  0  0  0  0  0  0  0  0  0  0  0
  -31.4615  -26.1268    8.4935 C   0  0  0  0  0  0  0  0  0  0  0  0
  -32.1034  -25.4504   11.1159 C   0  0  0  0  0  0  0  0  0  0  0  0
  -30.3247  -22.5910   14.8981 C   0  0  0  0  0  0  0  0  0  0  0  0
  -22.4739   -9.2934   22.6694 C   0  0  0  0  0  0  0  0  0  0  0  0
  -22.7818   -8.4375   20.4312 C   0  0  0  0  0  0  0  0  0  0  0  0
  -31.2608  -22.0205   15.7595 C   0  0  0  0  0  0  0  0  0  0  0  0
  -19.3030   -8.2431   22.1528 C   0  0  0  0  0  0  0  0  0  0  0  0
  -18.1136   -8.4629   22.8474 C   0  0  0  0  0  0  0  0  0  0  0  0
  -30.8328  -23.7646   17.3701 C   0  0  0  0  0  0  0  0  0  0  0  0
  -31.9891  -17.4299   21.3991 C   0  0  0  0  0  0  0  0  0  0  0  0
  -18.9141   -7.0767   24.6570 C   0  0  0  0  0  0  0  0  0  0  0  0
  -30.0522  -17.8657   22.4164 C   0  0  0  0  0  0  0  0  0  0  0  0
  -23.7961  -10.5343   21.0728 C   0  0  0  0  0  0  0  0  0  0  0  0
  -24.2064  -13.0347   20.7774 C   0  0  0  0  0  0  0  0  0  0  0  0
  -30.9450  -26.8956    9.5484 C   0  0  0  0  0  0  0  0  0  0  0  0
  -29.6424  -23.7608   15.2623 C   0  0  0  0  0  0  0  0  0  0  0  0
  -31.2770  -26.5612   10.8752 C   0  0  0  0  0  0  0  0  0  0  0  0
  -29.8867  -24.3466   16.5126 C   0  0  0  0  0  0  0  0  0  0  0  0
  -30.7073  -16.9023   21.6852 C   0  0  0  0  0  0  0  0  0  0  0  0
  -22.2384   -8.3092   21.7095 C   0  0  0  0  0  0  0  0  0  0  0  0
  -31.5171  -22.6089   16.9945 C   0  0  0  0  0  0  0  0  0  0  0  0
  -20.2980   -7.4400   22.7103 C   0  0  0  0  0  0  0  0  0  0  0  0
  -17.9191   -7.8797   24.0995 C   0  0  0  0  0  0  0  0  0  0  0  0
  -20.1036   -6.8568   23.9624 C   0  0  0  0  0  0  0  0  0  0  0  0
  -24.6002  -11.6836   20.7432 C   0  0  0  0  0  0  0  0  0  0  0  0
  -32.0257  -18.6782   21.9756 C   0  0  0  0  0  0  0  0  0  0  0  0
  -25.3234  -13.7280   20.3798 C   0  0  0  0  0  0  0  0  0  0  0  0
  -22.9438  -13.6114   21.1365 C   0  0  0  0  0  0  0  0  0  0  0  0
  -29.4645  -26.7106   14.0916 C   0  0  0  0  0  0  0  0  0  0  0  0
  -32.7953  -21.0302   19.9392 C   0  0  0  0  0  0  0  0  0  0  0  0
  -27.2012  -27.0671   16.3878 C   0  0  0  0  0  0  0  0  0  0  0  0
  -26.7713  -26.0933   19.8352 C   0  0  0  0  0  0  0  0  0  0  0  0
  -30.8120  -14.6450   20.5716 C   0  0  0  0  0  0  0  0  0  0  0  0
  -30.1015  -28.1025    9.2218 C   0  0  0  0  0  0  0  0  0  0  0  0
  -28.6162  -24.3488   14.3331 C   0  0  0  0  0  0  0  0  0  0  0  0
  -29.1662  -25.5914   16.9595 C   0  0  0  0  0  0  0  0  0  0  0  0
  -29.3098  -28.6329   10.4143 C   0  0  0  0  0  0  0  0  0  0  0  0
  -32.8555  -21.0349   24.2672 C   0  0  0  0  0  0  0  0  0  0  0  0
  -32.7199  -22.3197   23.4688 C   0  0  0  0  0  0  0  0  0  0  0  0
  -29.6701  -12.0950   18.3646 C   0  0  0  0  0  0  0  0  0  0  0  0
  -30.2018  -28.7274   11.6480 C   0  0  0  0  0  0  0  0  0  0  0  0
  -33.6289  -19.9963   23.4683 C   0  0  0  0  0  0  0  0  0  0  0  0
  -28.2169  -11.8718   18.7895 C   0  0  0  0  0  0  0  0  0  0  0  0
  -32.0588  -22.0795   22.1188 C   0  0  0  0  0  0  0  0  0  0  0  0
  -30.5727  -12.3870   19.5620 C   0  0  0  0  0  0  0  0  0  0  0  0
  -28.6649  -13.2575   20.8549 C   0  0  0  0  0  0  0  0  0  0  0  0
  -30.7358  -27.3471   12.0497 C   0  0  1  0  0  0  0  0  0  0  0  0
  -33.0936  -19.7650   22.0439 C   0  0  2  0  0  0  0  0  0  0  0  0
  -28.3549  -25.8294   14.5915 C   0  0  1  0  0  0  0  0  0  0  0  0
  -27.7057  -13.0241   19.6763 C   0  0  2  0  0  0  0  0  0  0  0  0
  -24.6840  -25.6866   21.1675 C   0  0  0  0  0  0  0  0  0  0  0  0
  -27.5129  -29.9850   17.2233 C   0  0  0  0  0  0  0  0  0  0  0  0
  -26.7468  -29.3375   19.5172 C   0  0  0  0  0  0  0  0  0  0  0  0
  -25.2224  -29.0411   17.5650 C   0  0  0  0  0  0  0  0  0  0  0  0
  -27.6493  -23.3718   20.5977 C   0  0  0  0  0  0  0  0  0  0  0  0
  -32.2162  -22.2329   19.2364 C   0  0  0  0  0  0  0  0  0  1  0  0
  -27.2050  -27.4957   17.8353 C   0  0  1  0  0  0  0  0  0  0  0  0
  -25.8106  -25.0471   20.3710 C   0  0  2  0  0  0  0  0  0  0  0  0
  -26.6944  -28.9522   18.0234 C   0  0  0  0  0  0  0  0  0  0  0  0
  -25.8683  -11.5257   20.3545 N   0  0  0  0  0  0  0  0  0  0  0  0
  -26.2809  -12.7867   20.1406 N   0  0  0  0  0  0  0  0  0  0  0  0
  -28.1766  -26.1322   16.0130 N   0  0  0  0  0  0  0  0  0  0  0  0
  -32.6934  -21.0046   21.3393 N   0  0  0  0  0  0  0  0  0  0  0  0
  -30.0279  -13.4924   20.3533 N   0  0  0  0  0  0  0  0  0  0  0  0
  -25.5700  -15.0450   20.2148 N   0  0  0  0  0  0  0  0  0  0  0  0
  -21.9032  -12.7549   21.5210 N   0  0  0  0  0  0  0  0  0  0  0  0
  -30.1770  -15.6429   21.3102 N   0  0  0  0  0  0  0  0  0  0  0  0
  -29.7122  -26.5898   12.7375 N   0  0  0  0  0  0  0  0  0  0  0  0
  -26.4317  -26.4931   18.5600 N   0  0  0  0  0  0  0  0  0  0  0  0
  -26.5295  -24.0901   21.2589 N   0  3  0  0  0  0  0  0  0  0  0  0
  -22.7394  -14.8486   21.1012 O   0  0  0  0  0  0  0  0  0  0  0  0
  -30.0515  -27.4467   14.8760 O   0  0  0  0  0  0  0  0  0  0  0  0
  -33.3234  -20.1393   19.2679 O   0  0  0  0  0  0  0  0  0  0  0  0
  -26.3591  -27.5387   15.6197 O   0  0  0  0  0  0  0  0  0  0  0  0
  -27.7251  -26.5165   20.4845 O   0  0  0  0  0  0  0  0  0  0  0  0
  -31.9521  -14.7508   20.1123 O   0  0  0  0  0  0  0  0  0  0  0  0
  -30.8489  -18.9514   22.5977 O   0  0  0  0  0  0  0  0  0  0  0  0
  -21.4787   -7.2233   22.0198 O   0  0  0  0  0  0  0  0  0  0  0  0
  -32.4308  -22.0544   17.8369 O   0  0  0  0  0  0  0  0  0  1  0  0
  -16.7775   -8.0922   24.7671 F   0  0  0  0  0  0  0  0  0  0  0  0
  -21.0563   -6.0853   24.5036 F   0  0  0  0  0  0  0  0  0  0  0  0
  1  2  1  0  0  0  0
  1  5  2  0  0  0  0
  2  6  2  0  0  0  0
  3  8  2  0  0  0  0
  3 17  1  0  0  0  0
  4  9  1  0  0  0  0
  4 17  2  0  0  0  0
  5 19  1  0  0  0  0
  6 21  1  0  0  0  0
  7 10  2  0  0  0  0
  7 20  1  0  0  0  0
  8 24  1  0  0  0  0
  9 24  2  0  0  0  0
 10 25  1  0  0  0  0
 11 12  2  0  0  0  0
 11 26  1  0  0  0  0
 12 27  1  0  0  0  0
 13 22  1  0  0  0  0
 13 25  2  0  0  0  0
 14 23  1  0  0  0  0
 14 30  2  0  0  0  0
 15 27  2  0  0  0  0
 15 28  1  0  0  0  0
 16 23  2  0  0  0  0
 16 81  1  0  0  0  0
 17 29  1  0  0  0  0
 18 29  1  0  0  0  0
 18 31  2  0  0  0  0
 18 32  1  0  0  0  0
 19 21  2  0  0  0  0
 19 38  1  0  0  0  0
 20 22  2  0  0  0  0
 20 39  1  0  0  0  0
 21 51  1  0  0  0  0
 22 40  1  0  0  0  0
 23 71  1  0  0  0  0
 24 82  1  0  0  0  0
 25 83  1  0  0  0  0
 26 28  2  0  0  0  0
 26 82  1  0  0  0  0
 27 84  1  0  0  0  0
 28 85  1  0  0  0  0
 29 64  2  0  0  0  0
 30 52  1  0  0  0  0
 30 81  1  0  0  0  0
 31 65  1  0  0  0  0
 31 69  1  0  0  0  0
 32 70  1  0  0  0  0
 32 75  2  0  0  0  0
 33 53  1  0  0  0  0
 33 72  1  0  0  0  0
 33 76  2  0  0  0  0
 34 60  1  0  0  0  0
 34 67  1  0  0  0  0
 34 77  2  0  0  0  0
 35 61  1  0  0  0  0
 35 66  1  0  0  0  0
 35 78  2  0  0  0  0
 36 62  1  0  0  0  0
 36 73  1  0  0  0  0
 36 79  2  0  0  0  0
 37 68  1  0  0  0  0
 37 71  1  0  0  0  0
 37 80  2  0  0  0  0
 38 41  1  0  0  0  0
 39 53  1  0  0  0  0
 40 66  1  0  0  0  0
 41 45  1  0  0  0  0
 42 43  1  0  0  0  0
 42 46  1  0  0  0  0
 43 48  1  0  0  0  0
 44 47  1  0  0  0  0
 44 49  1  0  0  0  0
 45 51  1  0  0  0  0
 46 52  1  0  0  0  0
 47 54  1  0  0  0  0
 48 67  1  0  0  0  0
 49 68  1  0  0  0  0
 50 54  1  0  0  0  0
 50 68  1  0  0  0  0
 51 72  1  0  0  0  0
 52 67  1  0  0  0  0
 53 66  1  0  0  0  0
 54 65  1  0  0  0  0
 55 62  1  0  0  0  0
 56 63  1  0  0  0  0
 57 63  1  0  0  0  0
 58 63  1  0  0  0  0
 59 74  1  0  0  0  0
 60 83  1  0  0  0  0
 61 63  1  0  0  0  0
 61 73  1  0  0  0  0
 62 74  1  0  0  0  0
 64 65  1  0  0  0  0
M  CHG  1  74   1
M  ISO  4  37 100  60 101  71 100  83 101
M  END
> <Batch ID>
0153

> <Smiles>
CNC(C)C(=O)NC(C(=O)N1Cc2cc([101O:1][101CH2:1]C(=O)N3CCCCC3c3cc([100NH:0][100C:0](=O)N4CCCC(n5nc(-c6ccc(Oc7ccc(F)cc7F)cc6)c(C(N)=O)c5N)C4)co3)ccc2CC1C(=O)NC1CCCc2ccccc21)C(C)(C)C

> <Shape>
0.195

> <Color>
0.191

> <Negative vol penalty>
0.000

$$$$

  -OEChem-04052303303D

 82 90  0     1  0  0  0  0  0999 V2000
  -18.5997  -33.1661   24.2994 C   0  0  0  0  0  0  0  0  0  0  0  0
  -19.7527  -32.5386   24.7599 C   0  0  0  0  0  0  0  0  0  0  0  0
  -26.9561  -15.2374   20.8561 C   0  0  0  0  0  0  0  0  0  0  0  0
  -29.0258  -14.0082   20.6500 C   0  0  0  0  0  0  0  0  0  0  0  0
  -17.5837  -32.4122   23.7135 C   0  0  0  0  0  0  0  0  0  0  0  0
  -19.8900  -31.1565   24.6358 C   0  0  0  0  0  0  0  0  0  0  0  0
  -24.4700  -29.8024   22.9522 C   0  0  0  0  0  0  0  0  0  0  0  0
  -26.2392  -14.0434   20.7785 C   0  0  0  0  0  0  0  0  0  0  0  0
  -28.3089  -12.8142   20.5725 C   0  0  0  0  0  0  0  0  0  0  0  0
  -25.5167  -29.8163   23.8732 C   0  0  0  0  0  0  0  0  0  0  0  0
  -25.4431  -11.4781   22.8323 C   0  0  0  0  0  0  0  0  0  0  0  0
  -24.4022  -11.2868   23.7409 C   0  0  0  0  0  0  0  0  0  0  0  0
  -29.5929  -25.9191   22.0674 C   0  0  0  0  0  0  0  0  0  0  0  0
  -25.3127  -27.4266   24.1321 C   0  0  0  0  0  0  0  0  0  0  0  0
  -22.8388  -11.0934   21.9091 C   0  0  0  0  0  0  0  0  0  0  0  0
  -29.8840  -23.6473   22.4630 C   0  0  0  0  0  0  0  0  0  0  0  0
  -28.3494  -15.2198   20.7918 C   0  0  0  0  0  0  0  0  0  0  0  0
  -29.9603  -24.6537   21.5254 C   0  0  0  0  0  0  0  0  0  0  0  0
  -29.5780  -17.0784   22.0345 C   0  0  0  0  0  0  0  0  0  0  0  0
  -17.7127  -31.0214   23.5734 C   0  0  0  0  0  0  0  0  0  0  0  0
  -23.8286  -28.5999   22.6219 C   0  0  0  0  0  0  0  0  0  0  0  0
  -18.8741  -30.3831   24.0487 C   0  0  0  0  0  0  0  0  0  0  0  0
  -24.2599  -27.3997   23.2047 C   0  0  0  0  0  0  0  0  0  0  0  0
  -26.9156  -12.8318   20.6368 C   0  0  0  0  0  0  0  0  0  0  0  0
  -25.9362  -28.6287   24.4654 C   0  0  0  0  0  0  0  0  0  0  0  0
  -25.1818  -11.4772   21.4621 C   0  0  0  0  0  0  0  0  0  0  0  0
  -23.1001  -11.0944   23.2794 C   0  0  0  0  0  0  0  0  0  0  0  0
  -23.8797  -11.2848   21.0005 C   0  0  0  0  0  0  0  0  0  0  0  0
  -29.0905  -16.4530   20.8713 C   0  0  0  0  0  0  0  0  0  0  0  0
  -30.2062  -18.2111   21.5777 C   0  0  0  0  0  0  0  0  0  0  0  0
  -29.2495  -25.8317   23.3987 C   0  0  0  0  0  0  0  0  0  0  0  0
  -30.3812  -24.4068   20.1222 C   0  0  0  0  0  0  0  0  0  0  0  0
  -29.4724  -16.6717   23.4053 C   0  0  0  0  0  0  0  0  0  0  0  0
  -20.8642  -27.4878   22.9043 C   0  0  0  0  0  0  0  0  0  0  0  0
  -22.0567  -24.9897   21.2132 C   0  0  0  0  0  0  0  0  0  0  0  0
  -24.7826  -23.1608   20.2797 C   0  0  0  0  0  0  0  0  0  0  0  0
  -30.4142  -22.6976   18.3331 C   0  0  0  0  0  0  0  0  0  0  0  0
  -16.5674  -30.2427   22.9763 C   0  0  0  0  0  0  0  0  0  0  0  0
  -22.7188  -28.5980   21.6066 C   0  0  0  0  0  0  0  0  0  0  0  0
  -23.6177  -26.0794   22.8689 C   0  0  0  0  0  0  0  0  0  0  0  0
  -16.9516  -28.8303   22.5429 C   0  0  0  0  0  0  0  0  0  0  0  0
  -31.4184  -19.6392   16.8719 C   0  0  0  0  0  0  0  0  0  0  0  0
  -17.7618  -28.1387   23.6347 C   0  0  0  0  0  0  0  0  0  0  0  0
  -30.9504  -18.5864   17.8803 C   0  0  0  0  0  0  0  0  0  0  0  0
  -30.4210  -20.7903   16.7494 C   0  0  0  0  0  0  0  0  0  0  0  0
  -29.5723  -20.3705   19.0212 C   0  0  0  0  0  0  0  0  0  0  0  0
  -19.0707  -28.8891   23.9094 C   0  0  1  0  0  0  0  0  0  0  0  0
  -21.7974  -27.3885   21.7308 C   0  0  1  0  0  0  0  0  0  0  0  0
  -30.5760  -19.2254   19.2326 C   0  0  1  0  0  0  0  0  0  0  0  0
  -25.4380  -21.1548   18.9217 C   0  0  0  0  0  0  0  0  0  0  0  0
  -29.1804  -29.0892   26.0886 C   0  0  0  0  0  0  0  0  0  0  0  0
  -21.0023  -23.1583   23.4141 C   0  0  0  0  0  0  0  0  0  0  0  0
  -22.4765  -21.3452   22.5155 C   0  0  0  0  0  0  0  0  0  0  0  0
  -20.6645  -22.2981   21.0903 C   0  0  0  0  0  0  0  0  0  0  0  0
  -26.4876  -24.7861   18.4879 C   0  0  0  0  0  0  0  0  0  0  0  0
  -28.7204  -28.2425   23.7643 C   0  0  0  0  0  0  0  0  0  0  0  0
  -22.7258  -23.6829   21.5647 C   0  0  1  0  0  0  0  0  0  0  0  0
  -25.2450  -22.6633   18.9221 C   0  0  2  0  0  0  0  0  0  0  0  0
  -28.2203  -29.1215   24.9084 C   0  0  1  0  0  0  0  0  0  1  0  0
  -21.7283  -22.6461   22.1542 C   0  0  0  0  0  0  0  0  0  0  0  0
  -29.3838  -17.1322   19.7592 N   0  0  0  0  0  0  0  0  0  0  0  0
  -30.0622  -18.1961   20.2216 N   0  0  0  0  0  0  0  0  0  0  0  0
  -22.5326  -26.1304   21.8752 N   0  0  0  0  0  0  0  0  0  0  0  0
  -30.1266  -21.3467   18.0711 N   0  0  0  0  0  0  0  0  0  0  0  0
  -30.8622  -19.2086   22.2079 N   0  0  0  0  0  0  0  0  0  0  0  0
  -28.7936  -15.4810   23.6986 N   0  0  0  0  0  0  0  0  0  0  0  0
  -28.8433  -26.8746   24.2144 N   0  0  0  0  0  0  0  0  0  0  0  0
  -30.1364  -23.1218   19.6373 N   0  0  0  0  0  0  0  0  0  0  0  0
  -20.0448  -28.6001   22.8789 N   0  0  0  0  0  0  0  0  0  0  0  0
  -23.4079  -23.2352   20.3553 N   0  0  0  0  0  0  0  0  0  0  0  0
  -26.5385  -23.3027   18.5491 N   0  3  0  0  0  0  0  0  0  0  0  0
  -30.8690  -25.3281   19.4733 O   0  0  0  0  0  0  0  0  0  0  0  0
  -29.9511  -17.3526   24.3437 O   0  0  0  0  0  0  0  0  0  0  0  0
  -20.8851  -26.6188   23.7680 O   0  0  0  0  0  0  0  0  0  0  0  0
  -21.1502  -24.9991   20.3766 O   0  0  0  0  0  0  0  0  0  0  0  0
  -25.5628  -23.4506   21.1840 O   0  0  0  0  0  0  0  0  0  0  0  0
  -30.9111  -23.4514   17.4904 O   0  0  0  0  0  0  0  0  0  0  0  0
  -26.2164  -11.6665   20.5613 O   0  0  0  0  0  0  0  0  0  0  0  0
  -26.9572  -28.6396   25.3651 O   0  0  0  0  0  0  0  0  0  1  0  0
  -22.1009  -10.9091   24.1520 F   0  0  0  0  0  0  0  0  0  0  0  0
  -23.6227  -11.2816   19.6853 F   0  0  0  0  0  0  0  0  0  0  0  0
  -29.3710  -24.2292   23.9896 S   0  0  0  0  0  0  0  0  0  0  0  0
  1  2  1  0  0  0  0
  1  5  2  0  0  0  0
  2  6  2  0  0  0  0
  3  8  2  0  0  0  0
  3 17  1  0  0  0  0
  4  9  1  0  0  0  0
  4 17  2  0  0  0  0
  5 20  1  0  0  0  0
  6 22  1  0  0  0  0
  7 10  2  0  0  0  0
  7 21  1  0  0  0  0
  8 24  1  0  0  0  0
  9 24  2  0  0  0  0
 10 25  1  0  0  0  0
 11 12  2  0  0  0  0
 11 26  1  0  0  0  0
 12 27  1  0  0  0  0
 13 18  1  0  0  0  0
 13 31  2  0  0  0  0
 14 23  1  0  0  0  0
 14 25  2  0  0  0  0
 15 27  2  0  0  0  0
 15 28  1  0  0  0  0
 16 18  2  0  0  0  0
 16 82  1  0  0  0  0
 17 29  1  0  0  0  0
 18 32  1  0  0  0  0
 19 29  1  0  0  0  0
 19 30  2  0  0  0  0
 19 33  1  0  0  0  0
 20 22  2  0  0  0  0
 20 38  1  0  0  0  0
 21 23  2  0  0  0  0
 21 39  1  0  0  0  0
 22 47  1  0  0  0  0
 23 40  1  0  0  0  0
 24 78  1  0  0  0  0
 25 79  1  0  0  0  0
 26 28  2  0  0  0  0
 26 78  1  0  0  0  0
 27 80  1  0  0  0  0
 28 81  1  0  0  0  0
 29 61  2  0  0  0  0
 30 62  1  0  0  0  0
 30 65  1  0  0  0  0
 31 67  1  0  0  0  0
 31 82  1  0  0  0  0
 32 68  1  0  0  0  0
 32 72  2  0  0  0  0
 33 66  1  0  0  0  0
 33 73  2  0  0  0  0
 34 48  1  0  0  0  0
 34 69  1  0  0  0  0
 34 74  2  0  0  0  0
 35 57  1  0  0  0  0
 35 63  1  0  0  0  0
 35 75  2  0  0  0  0
 36 58  1  0  0  0  0
 36 70  1  0  0  0  0
 36 76  2  0  0  0  0
 37 64  1  0  0  0  0
 37 68  1  0  0  0  0
 37 77  2  0  0  0  0
 38 41  1  0  0  0  0
 39 48  1  0  0  0  0
 40 63  1  0  0  0  0
 41 43  1  0  0  0  0
 42 44  1  0  0  0  0
 42 45  1  0  0  0  0
 43 47  1  0  0  0  0
 44 49  1  0  0  0  0
 45 64  1  0  0  0  0
 46 49  1  0  0  0  0
 46 64  1  0  0  0  0
 47 69  1  0  0  0  0
 48 63  1  0  0  0  0
 49 62  1  0  0  0  0
 50 58  1  0  0  0  0
 51 59  1  0  0  0  0
 52 60  1  0  0  0  0
 53 60  1  0  0  0  0
 54 60  1  0  0  0  0
 55 71  1  0  0  0  0
 56 59  1  0  0  0  0
 56 67  1  0  0  0  0
 57 60  1  0  0  0  0
 57 70  1  0  0  0  0
 58 71  1  0  0  0  0
 59 79  1  0  0  0  0
 61 62  1  0  0  0  0
M  CHG  1  71   1
M  ISO  4  37 100  59 101  68 100  79 101
M  END
> <Batch ID>
0153

> <Smiles>
CNC(C)C(=O)NC(C(=O)N1Cc2cc([101O:1][101CH:1](C)CNc3cc(C(=O)[100NH:0][100C:0](=O)N4CCCC(n5nc(-c6ccc(Oc7ccc(F)cc7F)cc6)c(C(N)=O)c5N)C4)cs3)ccc2CC1C(=O)NC1CCCc2ccccc21)C(C)(C)C

> <Shape>
0.223

> <Color>
0.061

> <Negative vol penalty>
0.000

$$$$

  -OEChem-04052303303D

 84 93  0     1  0  0  0  0  0999 V2000
  -16.5648  -27.7391   21.6669 C   0  0  0  0  0  0  0  0  0  0  0  0
  -17.7138  -26.9762   21.4844 C   0  0  0  0  0  0  0  0  0  0  0  0
  -22.9368  -10.0636   20.0355 C   0  0  0  0  0  0  0  0  0  0  0  0
  -24.2229   -9.4529   21.9875 C   0  0  0  0  0  0  0  0  0  0  0  0
  -16.6398  -29.1307   21.6275 C   0  0  0  0  0  0  0  0  0  0  0  0
  -18.9384  -27.6047   21.2613 C   0  0  0  0  0  0  0  0  0  0  0  0
  -22.6885  -25.5785   23.9955 C   0  0  0  0  0  0  0  0  0  0  0  0
  -22.2388   -8.8589   20.1184 C   0  0  0  0  0  0  0  0  0  0  0  0
  -23.5248   -8.2481   22.0704 C   0  0  0  0  0  0  0  0  0  0  0  0
  -23.2305  -24.3770   23.5411 C   0  0  0  0  0  0  0  0  0  0  0  0
  -20.5112   -7.1881   23.1726 C   0  0  0  0  0  0  0  0  0  0  0  0
  -20.0554   -6.7901   24.4294 C   0  0  0  0  0  0  0  0  0  0  0  0
  -25.0831  -25.5843   22.5772 C   0  0  0  0  0  0  0  0  0  0  0  0
  -21.3760   -4.7733   24.2698 C   0  0  0  0  0  0  0  0  0  0  0  0
  -27.5970  -18.5460   23.2225 C   0  0  0  0  0  0  0  0  0  0  0  0
  -23.9289  -10.3606   20.9700 C   0  0  0  0  0  0  0  0  0  0  0  0
  -24.3104  -12.8284   21.4919 C   0  0  0  0  0  0  0  0  0  0  0  0
  -17.8676  -29.7768   21.4134 C   0  0  0  0  0  0  0  0  0  0  0  0
  -23.3353  -26.7950   23.7343 C   0  0  0  0  0  0  0  0  0  0  0  0
  -19.0297  -29.0063   21.2176 C   0  0  0  0  0  0  0  0  0  0  0  0
  -24.5486  -26.7996   23.0316 C   0  0  0  0  0  0  0  0  0  0  0  0
  -22.5328   -7.9511   21.1358 C   0  0  0  0  0  0  0  0  0  0  0  0
  -24.4265  -24.3801   22.8293 C   0  0  0  0  0  0  0  0  0  0  0  0
  -21.3994   -6.3786   22.4644 C   0  0  0  0  0  0  0  0  0  0  0  0
  -20.4877   -5.5828   24.9780 C   0  0  0  0  0  0  0  0  0  0  0  0
  -21.8318   -5.1712   23.0130 C   0  0  0  0  0  0  0  0  0  0  0  0
  -24.6507  -11.6048   20.8846 C   0  0  0  0  0  0  0  0  0  0  0  0
  -27.9917  -17.2974   23.6240 C   0  0  0  0  0  0  0  0  0  0  0  0
  -26.3548  -18.7236   23.8559 C   0  0  0  0  0  0  0  0  0  0  0  0
  -25.3068  -13.6917   21.1066 C   0  0  0  0  0  0  0  0  0  0  0  0
  -23.1936  -13.1554   22.3295 C   0  0  0  0  0  0  0  0  0  0  0  0
  -22.5822  -29.4381   22.1373 C   0  0  0  0  0  0  0  0  0  0  0  0
  -25.3788  -30.5171   23.3772 C   0  0  0  0  0  0  0  0  0  0  0  0
  -25.8238  -21.0295   22.9985 C   0  0  0  0  0  0  0  0  0  0  0  0
  -28.4544  -29.7813   24.6603 C   0  0  0  0  0  0  0  0  0  0  0  0
  -30.8225  -14.5683   20.5215 C   0  0  0  0  0  0  0  0  0  0  0  0
  -17.8911  -31.2826   21.3319 C   0  0  0  0  0  0  0  0  0  0  0  0
  -22.7514  -28.0799   24.2545 C   0  0  0  0  0  0  0  0  0  0  0  0
  -25.2928  -28.0768   22.7425 C   0  0  0  0  0  0  0  0  0  0  0  0
  -19.2905  -31.8779   21.4636 C   0  0  0  0  0  0  0  0  0  0  0  0
  -28.9766  -13.1958   17.6571 C   0  0  0  0  0  0  0  0  0  0  0  0
  -20.2772  -31.1231   20.5785 C   0  0  0  0  0  0  0  0  0  0  0  0
  -27.6756  -12.7158   18.3058 C   0  0  0  0  0  0  0  0  0  0  0  0
  -30.5174  -17.1827   23.0276 C   0  0  0  0  0  0  0  0  0  0  0  0
  -30.1579  -13.1327   18.6236 C   0  0  0  0  0  0  0  0  0  0  0  0
  -31.3808  -16.1070   22.3882 C   0  0  0  0  0  0  0  0  0  0  0  0
  -29.0721  -15.5131   22.1301 C   0  0  0  0  0  0  0  0  0  0  0  0
  -28.6401  -13.3114   20.5553 C   0  0  0  0  0  0  0  0  0  0  0  0
  -20.3807  -29.6517   20.9978 C   0  0  1  0  0  0  0  0  0  0  0  0
  -29.2101  -16.4440   23.3464 C   0  0  2  0  0  0  0  0  0  0  0  0
  -23.2305  -29.3079   23.4866 C   0  0  1  0  0  0  0  0  0  0  0  0
  -27.4158  -13.4426   19.6399 C   0  0  2  0  0  0  0  0  0  0  0  0
  -30.5305  -30.8745   25.5503 C   0  0  0  0  0  0  0  0  0  0  0  0
  -26.2221  -31.2264   20.5319 C   0  0  0  0  0  0  0  0  0  0  0  0
  -28.5813  -31.4066   21.3504 C   0  0  0  0  0  0  0  0  0  0  0  0
  -26.8287  -32.9335   22.2559 C   0  0  0  0  0  0  0  0  0  0  0  0
  -28.1315  -28.5028   27.3099 C   0  0  0  0  0  0  0  0  0  0  0  0
  -24.6997  -22.0385   23.1426 C   0  0  0  0  0  0  0  0  0  1  0  0
  -26.8222  -30.4982   22.9351 C   0  0  1  0  0  0  0  0  0  0  0  0
  -29.1746  -30.2810   25.8997 C   0  0  2  0  0  0  0  0  0  0  0  0
  -27.0988  -31.4921   21.7719 C   0  0  0  0  0  0  0  0  0  0  0  0
  -25.7752  -11.6800   20.1678 N   0  0  0  0  0  0  0  0  0  0  0  0
  -26.0058  -17.6660   24.5938 N   0  0  0  0  0  0  0  0  0  0  0  0
  -26.1502  -12.9612   20.3222 N   0  0  0  0  0  0  0  0  0  0  0  0
  -24.6782  -29.3077   23.2665 N   0  0  0  0  0  0  0  0  0  0  0  0
  -29.8381  -13.8132   19.8767 N   0  0  0  0  0  0  0  0  0  0  0  0
  -30.4417  -15.2458   21.6825 N   0  0  0  0  0  0  0  0  0  0  0  0
  -25.5349  -14.9968   21.3656 N   0  0  0  0  0  0  0  0  0  0  0  0
  -22.2640  -12.1494   22.6263 N   0  0  0  0  0  0  0  0  0  0  0  0
  -25.5716  -19.8541   23.7397 N   0  0  0  0  0  0  0  0  0  0  0  0
  -21.2035  -29.5201   22.1811 N   0  0  0  0  0  0  0  0  0  0  0  0
  -27.6190  -30.7429   24.1324 N   0  0  0  0  0  0  0  0  0  0  0  0
  -29.3848  -29.1633   26.8627 N   0  3  0  0  0  0  0  0  0  0  0  0
  -23.0163  -14.3097   22.7873 O   0  0  0  0  0  0  0  0  0  0  0  0
  -23.2813  -29.4639   21.1311 O   0  0  0  0  0  0  0  0  0  0  0  0
  -24.8931  -31.5645   23.8116 O   0  0  0  0  0  0  0  0  0  0  0  0
  -26.8104  -21.2611   22.3074 O   0  0  0  0  0  0  0  0  0  0  0  0
  -28.6193  -28.6521   24.2039 O   0  0  0  0  0  0  0  0  0  0  0  0
  -31.9624  -14.6728   20.0519 O   0  0  0  0  0  0  0  0  0  0  0  0
  -27.0504  -16.7619   24.4428 O   0  0  0  0  0  0  0  0  0  0  0  0
  -21.8517   -6.7755   21.2172 O   0  0  0  0  0  0  0  0  0  0  0  0
  -24.9628  -23.1967   22.3794 O   0  0  0  0  0  0  0  0  0  1  0  0
  -20.0511   -5.2015   26.1855 F   0  0  0  0  0  0  0  0  0  0  0  0
  -22.6860   -4.3900   22.3379 F   0  0  0  0  0  0  0  0  0  0  0  0
  1  2  1  0  0  0  0
  1  5  2  0  0  0  0
  2  6  2  0  0  0  0
  3  8  2  0  0  0  0
  3 16  1  0  0  0  0
  4  9  1  0  0  0  0
  4 16  2  0  0  0  0
  5 18  1  0  0  0  0
  6 20  1  0  0  0  0
  7 10  2  0  0  0  0
  7 19  1  0  0  0  0
  8 22  1  0  0  0  0
  9 22  2  0  0  0  0
 10 23  1  0  0  0  0
 11 12  2  0  0  0  0
 11 24  1  0  0  0  0
 12 25  1  0  0  0  0
 13 21  1  0  0  0  0
 13 23  2  0  0  0  0
 14 25  2  0  0  0  0
 14 26  1  0  0  0  0
 15 28  2  0  0  0  0
 15 29  1  0  0  0  0
 16 27  1  0  0  0  0
 17 27  1  0  0  0  0
 17 30  2  0  0  0  0
 17 31  1  0  0  0  0
 18 20  2  0  0  0  0
 18 37  1  0  0  0  0
 19 21  2  0  0  0  0
 19 38  1  0  0  0  0
 20 49  1  0  0  0  0
 21 39  1  0  0  0  0
 22 81  1  0  0  0  0
 23 82  1  0  0  0  0
 24 26  2  0  0  0  0
 24 81  1  0  0  0  0
 25 83  1  0  0  0  0
 26 84  1  0  0  0  0
 27 62  2  0  0  0  0
 28 50  1  0  0  0  0
 28 80  1  0  0  0  0
 29 63  2  0  0  0  0
 29 70  1  0  0  0  0
 30 64  1  0  0  0  0
 30 68  1  0  0  0  0
 31 69  1  0  0  0  0
 31 74  2  0  0  0  0
 32 51  1  0  0  0  0
 32 71  1  0  0  0  0
 32 75  2  0  0  0  0
 33 59  1  0  0  0  0
 33 65  1  0  0  0  0
 33 76  2  0  0  0  0
 34 58  1  0  0  0  0
 34 70  1  0  0  0  0
 34 77  2  0  0  0  0
 35 60  1  0  0  0  0
 35 72  1  0  0  0  0
 35 78  2  0  0  0  0
 36 66  1  0  0  0  0
 36 67  1  0  0  0  0
 36 79  2  0  0  0  0
 37 40  1  0  0  0  0
 38 51  1  0  0  0  0
 39 65  1  0  0  0  0
 40 42  1  0  0  0  0
 41 43  1  0  0  0  0
 41 45  1  0  0  0  0
 42 49  1  0  0  0  0
 43 52  1  0  0  0  0
 44 46  1  0  0  0  0
 44 50  1  0  0  0  0
 45 66  1  0  0  0  0
 46 67  1  0  0  0  0
 47 50  1  0  0  0  0
 47 67  1  0  0  0  0
 48 52  1  0  0  0  0
 48 66  1  0  0  0  0
 49 71  1  0  0  0  0
 51 65  1  0  0  0  0
 52 64  1  0  0  0  0
 53 60  1  0  0  0  0
 54 61  1  0  0  0  0
 55 61  1  0  0  0  0
 56 61  1  0  0  0  0
 57 73  1  0  0  0  0
 58 82  1  0  0  0  0
 59 61  1  0  0  0  0
 59 72  1  0  0  0  0
 60 73  1  0  0  0  0
 62 64  1  0  0  0  0
 63 80  1  0  0  0  0
M  CHG  1  73   1
M  ISO  4  36 100  58 101  67 100  82 101
M  END
> <Batch ID>
0153

> <Smiles>
CNC(C)C(=O)NC(C(=O)N1Cc2cc([101O:1][101CH2:1]C(=O)Nc3cc(C4CC[100N:0]([100C:0](=O)N5CCCC(n6nc(-c7ccc(Oc8ccc(F)cc8F)cc7)c(C(N)=O)c6N)C5)C4)on3)ccc2CC1C(=O)NC1CCCc2ccccc21)C(C)(C)C

> <Shape>
0.287

> <Color>
0.158

> <Negative vol penalty>
0.000

$$$$

  -OEChem-04052303303D

 84 93  0     1  0  0  0  0  0999 V2000
  -26.1911  -34.4819   26.7322 C   0  0  0  0  0  0  0  0  0  0  0  0
  -26.7994  -33.4378   26.0428 C   0  0  0  0  0  0  0  0  0  0  0  0
  -31.2681  -22.7833   23.7313 C   0  0  0  0  0  0  0  0  0  0  0  0
  -24.1122  -13.6131   20.9150 C   0  0  0  0  0  0  0  0  0  0  0  0
  -26.5172  -13.4188   20.7919 C   0  0  0  0  0  0  0  0  0  0  0  0
  -31.8942  -23.7435   22.9366 C   0  0  0  0  0  0  0  0  0  0  0  0
  -24.8132  -34.4663   26.9444 C   0  0  0  0  0  0  0  0  0  0  0  0
  -26.0301  -32.3770   25.5660 C   0  0  0  0  0  0  0  0  0  0  0  0
  -27.2345  -31.0829   20.8205 C   0  0  0  0  0  0  0  0  0  0  0  0
  -30.1389  -22.1148   23.2582 C   0  0  0  0  0  0  0  0  0  0  0  0
  -23.9836  -12.2908   20.4902 C   0  0  0  0  0  0  0  0  0  0  0  0
  -26.3886  -12.0964   20.3670 C   0  0  0  0  0  0  0  0  0  0  0  0
  -28.3865  -30.3183   20.6419 C   0  0  0  0  0  0  0  0  0  0  0  0
  -24.2533   -9.2029   21.8412 C   0  0  0  0  0  0  0  0  0  0  0  0
  -23.3466   -8.3892   22.5203 C   0  0  0  0  0  0  0  0  0  0  0  0
  -30.2619  -23.3669   21.1957 C   0  0  0  0  0  0  0  0  0  0  0  0
  -27.0310  -28.3324   20.4463 C   0  0  0  0  0  0  0  0  0  0  0  0
  -22.1234   -8.0383   20.4665 C   0  0  0  0  0  0  0  0  0  0  0  0
  -25.3790  -14.1772   21.0658 C   0  0  0  0  0  0  0  0  0  0  0  0
  -31.3911  -24.0353   21.6688 C   0  0  0  0  0  0  0  0  0  0  0  0
  -25.6178  -16.0042   22.8301 C   0  0  0  0  0  0  0  0  0  0  0  0
  -24.0253  -33.4095   26.4616 C   0  0  0  0  0  0  0  0  0  0  0  0
  -25.9706  -30.4754   20.8242 C   0  0  0  0  0  0  0  0  0  0  0  0
  -24.6406  -32.3466   25.7731 C   0  0  0  0  0  0  0  0  0  0  0  0
  -25.8643  -29.0919   20.6225 C   0  0  0  0  0  0  0  0  0  0  0  0
  -29.6358  -22.4066   21.9904 C   0  0  0  0  0  0  0  0  0  0  0  0
  -25.1217  -11.5324   20.2162 C   0  0  0  0  0  0  0  0  0  0  0  0
  -28.2851  -28.9424   20.4577 C   0  0  0  0  0  0  0  0  0  0  0  0
  -24.0951   -9.4345   20.4748 C   0  0  0  0  0  0  0  0  0  0  0  0
  -22.2816   -7.8068   21.8330 C   0  0  0  0  0  0  0  0  0  0  0  0
  -23.0302   -8.8521   19.7875 C   0  0  0  0  0  0  0  0  0  0  0  0
  -25.5125  -15.5433   21.5041 C   0  0  0  0  0  0  0  0  0  0  0  0
  -25.7228  -17.3686   22.7120 C   0  0  0  0  0  0  0  0  0  0  0  0
  -32.0523  -25.0494   20.8282 C   0  0  0  0  0  0  0  0  0  0  0  0
  -25.6205  -15.2651   24.0587 C   0  0  0  0  0  0  0  0  0  0  0  0
  -23.6273  -30.1857   22.9523 C   0  0  0  0  0  0  0  0  0  0  0  0
  -22.0513  -28.8443   20.4545 C   0  0  0  0  0  0  0  0  0  0  0  0
  -22.2201  -27.2255   17.4548 C   0  0  0  0  0  0  0  0  0  0  0  0
  -27.8607  -21.8967   20.2771 C   0  0  0  0  0  0  0  0  0  0  0  0
  -22.5462  -33.4132   26.7565 C   0  0  0  0  0  0  0  0  0  0  0  0
  -24.7358  -31.3179   20.9914 C   0  0  0  0  0  0  0  0  0  0  0  0
  -24.5297  -28.3943   20.5979 C   0  0  0  0  0  0  0  0  0  0  0  0
  -21.7506  -32.4377   25.8930 C   0  0  0  0  0  0  0  0  0  0  0  0
  -25.0413  -20.3905   18.7088 C   0  0  0  0  0  0  0  0  0  0  0  0
  -22.4421  -31.0789   25.8471 C   0  0  0  0  0  0  0  0  0  0  0  0
  -24.9212  -19.0331   19.4053 C   0  0  0  0  0  0  0  0  0  0  0  0
  -31.7261  -28.6469   20.8005 C   0  0  0  0  0  0  0  0  0  0  0  0
  -26.4998  -20.7994   18.5110 C   0  0  0  0  0  0  0  0  0  0  0  0
  -32.2680  -27.3945   20.1170 C   0  0  0  0  0  0  0  0  0  0  0  0
  -27.2026  -19.4145   20.4235 C   0  0  0  0  0  0  0  0  0  0  0  0
  -30.6013  -26.7790   21.8141 C   0  0  0  0  0  0  0  0  0  0  0  0
  -23.8365  -31.1905   25.2189 C   0  0  1  0  0  0  0  0  0  0  0  0
  -23.5333  -30.5231   21.4912 C   0  0  1  0  0  0  0  0  0  0  0  0
  -25.7516  -18.9901   20.7031 C   0  0  2  0  0  0  0  0  0  0  0  0
  -30.3663  -28.2089   21.3362 C   0  0  2  0  0  0  0  0  0  1  0  0
  -20.7651  -26.2248   15.6719 C   0  0  0  0  0  0  0  0  0  0  0  0
  -21.5112  -26.4370   22.2498 C   0  0  0  0  0  0  0  0  0  0  0  0
  -20.9231  -25.1273   20.1987 C   0  0  0  0  0  0  0  0  0  0  0  0
  -19.5762  -27.1313   20.8256 C   0  0  0  0  0  0  0  0  0  0  0  0
  -23.2670  -29.0781   15.3979 C   0  0  0  0  0  0  0  0  0  0  0  0
  -21.9106  -27.4447   19.9065 C   0  0  1  0  0  0  0  0  0  0  0  0
  -21.5060  -27.4686   16.1375 C   0  0  2  0  0  0  0  0  0  0  0  0
  -21.0057  -26.5477   20.7975 C   0  0  0  0  0  0  0  0  0  0  0  0
  -25.5472  -16.5344   20.6094 N   0  0  0  0  0  0  0  0  0  0  0  0
  -25.6755  -17.6317   21.3745 N   0  0  0  0  0  0  0  0  0  0  0  0
  -31.6709  -26.3108   20.9126 N   0  0  0  0  0  0  0  0  0  0  0  0
  -23.3520  -29.2605   20.7722 N   0  0  0  0  0  0  0  0  0  0  0  0
  -27.2231  -20.7390   19.7831 N   0  0  0  0  0  0  0  0  0  0  0  0
  -25.8500  -18.3569   23.6227 N   0  0  0  0  0  0  0  0  0  0  0  0
  -25.5040  -13.8697   23.9992 N   0  0  0  0  0  0  0  0  0  0  0  0
  -28.4887  -21.7271   21.5106 N   0  0  0  0  0  0  0  0  0  0  0  0
  -23.7357  -31.2880   23.7785 N   0  0  0  0  0  0  0  0  0  0  0  0
  -21.4411  -27.5895   18.5328 N   0  0  0  0  0  0  0  0  0  0  0  0
  -33.0236  -24.6784   19.9992 N   0  3  0  0  0  0  0  0  0  0  0  0
  -22.4841  -27.8558   15.0818 N   0  3  0  0  0  0  0  0  0  0  0  0
  -25.7068  -15.8269   25.1769 O   0  0  0  0  0  0  0  0  0  0  0  0
  -23.6019  -29.0121   23.3042 O   0  0  0  0  0  0  0  0  0  0  0  0
  -21.0451  -29.5452   20.5888 O   0  0  0  0  0  0  0  0  0  0  0  0
  -23.3540  -26.7560   17.5211 O   0  0  0  0  0  0  0  0  0  0  0  0
  -27.8272  -22.9673   19.6650 O   0  0  0  0  0  0  0  0  0  0  0  0
  -24.9966  -10.2420   19.8019 O   0  0  0  0  0  0  0  0  0  0  0  0
  -29.4081  -28.1937   20.2838 O   0  0  0  0  0  0  0  0  0  1  0  0
  -21.4119   -7.0241   22.4849 F   0  0  0  0  0  0  0  0  0  0  0  0
  -22.8737   -9.0699   18.4745 F   0  0  0  0  0  0  0  0  0  0  0  0
  1  2  1  0  0  0  0
  1  7  2  0  0  0  0
  2  8  2  0  0  0  0
  3  6  2  0  0  0  0
  3 10  1  0  0  0  0
  4 11  2  0  0  0  0
  4 19  1  0  0  0  0
  5 12  1  0  0  0  0
  5 19  2  0  0  0  0
  6 20  1  0  0  0  0
  7 22  1  0  0  0  0
  8 24  1  0  0  0  0
  9 13  2  0  0  0  0
  9 23  1  0  0  0  0
 10 26  2  0  0  0  0
 11 27  1  0  0  0  0
 12 27  2  0  0  0  0
 13 28  1  0  0  0  0
 14 15  2  0  0  0  0
 14 29  1  0  0  0  0
 15 30  1  0  0  0  0
 16 20  2  0  0  0  0
 16 26  1  0  0  0  0
 17 25  1  0  0  0  0
 17 28  2  0  0  0  0
 18 30  2  0  0  0  0
 18 31  1  0  0  0  0
 19 32  1  0  0  0  0
 20 34  1  0  0  0  0
 21 32  1  0  0  0  0
 21 33  2  0  0  0  0
 21 35  1  0  0  0  0
 22 24  2  0  0  0  0
 22 40  1  0  0  0  0
 23 25  2  0  0  0  0
 23 41  1  0  0  0  0
 24 52  1  0  0  0  0
 25 42  1  0  0  0  0
 26 71  1  0  0  0  0
 27 81  1  0  0  0  0
 28 82  1  0  0  0  0
 29 31  2  0  0  0  0
 29 81  1  0  0  0  0
 30 83  1  0  0  0  0
 31 84  1  0  0  0  0
 32 64  2  0  0  0  0
 33 65  1  0  0  0  0
 33 69  1  0  0  0  0
 34 66  1  0  0  0  0
 34 74  2  0  0  0  0
 35 70  1  0  0  0  0
 35 76  2  0  0  0  0
 36 53  1  0  0  0  0
 36 72  1  0  0  0  0
 36 77  2  0  0  0  0
 37 61  1  0  0  0  0
 37 67  1  0  0  0  0
 37 78  2  0  0  0  0
 38 62  1  0  0  0  0
 38 73  1  0  0  0  0
 38 79  2  0  0  0  0
 39 68  1  0  0  0  0
 39 71  1  0  0  0  0
 39 80  2  0  0  0  0
 40 43  1  0  0  0  0
 41 53  1  0  0  0  0
 42 67  1  0  0  0  0
 43 45  1  0  0  0  0
 44 46  1  0  0  0  0
 44 48  1  0  0  0  0
 45 52  1  0  0  0  0
 46 54  1  0  0  0  0
 47 49  1  0  0  0  0
 47 55  1  0  0  0  0
 48 68  1  0  0  0  0
 49 66  1  0  0  0  0
 50 54  1  0  0  0  0
 50 68  1  0  0  0  0
 51 55  1  0  0  0  0
 51 66  1  0  0  0  0
 52 72  1  0  0  0  0
 53 67  1  0  0  0  0
 54 65  1  0  0  0  0
 55 82  1  0  0  0  0
 56 62  1  0  0  0  0
 57 63  1  0  0  0  0
 58 63  1  0  0  0  0
 59 63  1  0  0  0  0
 60 75  1  0  0  0  0
 61 63  1  0  0  0  0
 61 73  1  0  0  0  0
 62 75  1  0  0  0  0
 64 65  1  0  0  0  0
M  CHG  2  74   1  75   1
M  ISO  4  39 100  55 101  71 100  82 101
M  END
> <Batch ID>
0153

> <Smiles>
CNC(C)C(=O)NC(C(=O)N1Cc2cc([101O:1][101CH:1]3CCN(C(=N)c4cccc([100NH:0][100C:0](=O)N5CCCC(n6nc(-c7ccc(Oc8ccc(F)cc8F)cc7)c(C(N)=O)c6N)C5)c4)C3)ccc2CC1C(=O)NC1CCCc2ccccc21)C(C)(C)C

> <Shape>
0.243

> <Color>
0.073

> <Negative vol penalty>
0.000

$$$$

  -OEChem-04052303303D

 87 96  0     1  0  0  0  0  0999 V2000
  -18.4872  -28.5864   26.0754 C   0  0  0  0  0  0  0  0  0  0  0  0
  -19.8300  -28.2309   26.1526 C   0  0  0  0  0  0  0  0  0  0  0  0
  -24.2362   -9.7609   20.9776 C   0  0  0  0  0  0  0  0  0  0  0  0
  -24.8456  -10.5467   23.1795 C   0  0  0  0  0  0  0  0  0  0  0  0
  -17.8406  -28.5989   24.8402 C   0  0  0  0  0  0  0  0  0  0  0  0
  -20.5266  -27.8865   24.9948 C   0  0  0  0  0  0  0  0  0  0  0  0
  -26.4205  -29.0144   23.7718 C   0  0  0  0  0  0  0  0  0  0  0  0
  -30.7262  -20.6390   22.2866 C   0  0  0  0  0  0  0  0  0  0  0  0
  -30.4921  -19.4277   21.6358 C   0  0  0  0  0  0  0  0  0  0  0  0
  -23.8849   -8.5232   21.5165 C   0  0  0  0  0  0  0  0  0  0  0  0
  -24.4943   -9.3091   23.7184 C   0  0  0  0  0  0  0  0  0  0  0  0
  -27.5661  -28.2257   23.8683 C   0  0  0  0  0  0  0  0  0  0  0  0
  -21.2757   -7.1920   23.2055 C   0  0  0  0  0  0  0  0  0  0  0  0
  -20.0751   -6.6193   22.7855 C   0  0  0  0  0  0  0  0  0  0  0  0
  -28.1266  -19.6493   22.0743 C   0  0  0  0  0  0  0  0  0  0  0  0
  -27.3747  -27.6720   21.5282 C   0  0  0  0  0  0  0  0  0  0  0  0
  -21.2832   -4.7033   21.9448 C   0  0  0  0  0  0  0  0  0  0  0  0
  -24.7166  -10.7726   21.8091 C   0  0  0  0  0  0  0  0  0  0  0  0
  -28.3606  -20.8606   22.7251 C   0  0  0  0  0  0  0  0  0  0  0  0
  -24.2464  -13.1727   21.0836 C   0  0  0  0  0  0  0  0  0  0  0  0
  -18.5322  -28.2639   23.6654 C   0  0  0  0  0  0  0  0  0  0  0  0
  -25.7361  -29.1293   22.5533 C   0  0  0  0  0  0  0  0  0  0  0  0
  -19.8883  -27.8932   23.7430 C   0  0  0  0  0  0  0  0  0  0  0  0
  -26.2221  -28.4649   21.4183 C   0  0  0  0  0  0  0  0  0  0  0  0
  -29.6604  -21.3555   22.8313 C   0  0  0  0  0  0  0  0  0  0  0  0
  -29.1923  -18.9329   21.5296 C   0  0  0  0  0  0  0  0  0  0  0  0
  -24.0139   -8.2973   22.8869 C   0  0  0  0  0  0  0  0  0  0  0  0
  -28.0417  -27.5520   22.7471 C   0  0  0  0  0  0  0  0  0  0  0  0
  -22.4800   -6.5204   22.9950 C   0  0  0  0  0  0  0  0  0  0  0  0
  -20.0789   -5.3750   22.1552 C   0  0  0  0  0  0  0  0  0  0  0  0
  -22.4837   -5.2760   22.3647 C   0  0  0  0  0  0  0  0  0  0  0  0
  -25.0802  -12.0511   21.2529 C   0  0  0  0  0  0  0  0  0  0  0  0
  -25.0609  -14.1240   20.5195 C   0  0  0  0  0  0  0  0  0  0  0  0
  -27.2369  -21.5857   23.2824 C   0  0  0  0  0  0  0  0  0  0  0  0
  -22.8597  -13.3396   21.4073 C   0  0  0  0  0  0  0  0  0  0  0  0
  -22.8153  -28.3870   21.5426 C   0  0  0  0  0  0  0  0  0  0  0  0
  -23.7862  -29.9034   18.8444 C   0  0  0  0  0  0  0  0  0  0  0  0
  -26.3725  -30.9229   16.8649 C   0  0  0  0  0  0  0  0  0  0  0  0
  -29.8999  -16.8674   20.2729 C   0  0  0  0  0  0  0  0  0  0  0  0
  -17.7783  -28.2461   22.3593 C   0  0  0  0  0  0  0  0  0  0  0  0
  -24.5170  -30.0054   22.4594 C   0  0  0  0  0  0  0  0  0  0  0  0
  -25.5354  -28.5717   20.0821 C   0  0  0  0  0  0  0  0  0  0  0  0
  -18.6862  -28.2305   21.1322 C   0  0  0  0  0  0  0  0  0  0  0  0
  -29.7204  -13.7404   18.5796 C   0  0  0  0  0  0  0  0  0  0  0  0
  -19.7966  -27.1986   21.3027 C   0  0  0  0  0  0  0  0  0  0  0  0
  -28.4286  -13.1144   19.1102 C   0  0  0  0  0  0  0  0  0  0  0  0
  -30.4951  -24.1050   25.1438 C   0  0  0  0  0  0  0  0  0  0  0  0
  -30.4581  -14.5237   19.6640 C   0  0  0  0  0  0  0  0  0  0  0  0
  -30.7706  -22.6870   24.6439 C   0  0  0  0  0  0  0  0  0  0  0  0
  -28.3569  -14.9049   20.8923 C   0  0  0  0  0  0  0  0  0  0  0  0
  -29.3484  -23.8364   23.0544 C   0  0  0  0  0  0  0  0  0  0  0  0
  -20.6845  -27.5374   22.5062 C   0  0  1  0  0  0  0  0  0  0  0  0
  -23.6066  -29.6393   21.2913 C   0  0  1  0  0  0  0  0  0  0  0  0
  -27.5458  -14.1598   19.8197 C   0  0  2  0  0  0  0  0  0  0  0  0
  -30.1474  -24.8559   23.8665 C   0  0  1  0  0  0  0  0  0  0  0  0
  -26.8519  -32.1063   14.7045 C   0  0  0  0  0  0  0  0  0  0  0  0
  -22.9774  -27.4011   17.2969 C   0  0  0  0  0  0  0  0  0  0  0  0
  -24.3245  -28.2462   15.3632 C   0  0  0  0  0  0  0  0  0  0  0  0
  -22.3682  -29.5572   16.1858 C   0  0  0  0  0  0  0  0  0  0  0  0
  -27.8728  -33.0713   18.2405 C   0  0  0  0  0  0  0  0  0  0  0  0
  -29.4221  -26.1653   24.0989 C   0  0  0  0  0  0  0  0  0  1  0  0
  -24.4811  -29.4818   17.5722 C   0  0  1  0  0  0  0  0  0  0  0  0
  -26.6720  -32.2578   16.2070 C   0  0  2  0  0  0  0  0  0  0  0  0
  -23.5499  -28.6678   16.6300 C   0  0  0  0  0  0  0  0  0  0  0  0
  -26.3286  -12.2682   20.8304 N   0  0  0  0  0  0  0  0  0  0  0  0
  -26.2852  -13.5372   20.3900 N   0  0  0  0  0  0  0  0  0  0  0  0
  -29.9105  -22.5512   23.4708 N   0  0  3  0  0  0  0  0  0  0  0  0
  -24.3438  -29.4353   20.0426 N   0  0  0  0  0  0  0  0  0  0  0  0
  -29.5607  -15.4979   20.2889 N   0  0  0  0  0  0  0  0  0  0  0  0
  -24.8420  -15.3968   20.1266 N   0  0  0  0  0  0  0  0  0  0  0  0
  -26.5779  -22.4896   22.5408 N   0  0  0  0  0  0  0  0  0  0  0  0
  -22.1731  -12.2611   21.9814 N   0  0  0  0  0  0  0  0  0  0  0  0
  -28.9550  -17.7024   20.8683 N   0  0  0  0  0  0  0  0  0  0  0  0
  -21.6041  -28.6035   22.1716 N   0  0  0  0  0  0  0  0  0  0  0  0
  -25.0161  -30.7011   16.9760 N   0  0  0  0  0  0  0  0  0  0  0  0
  -26.8427  -21.3594   24.5453 N   0  3  0  0  0  0  0  0  0  0  0  0
  -27.9190  -32.8459   16.7728 N   0  3  0  0  0  0  0  0  0  0  0  0
  -22.2434  -14.4080   21.1786 O   0  0  0  0  0  0  0  0  0  0  0  0
  -23.2692  -27.3046   21.1903 O   0  0  0  0  0  0  0  0  0  0  0  0
  -22.7897  -30.6274   18.7777 O   0  0  0  0  0  0  0  0  0  0  0  0
  -27.2537  -30.1521   17.2391 O   0  0  0  0  0  0  0  0  0  0  0  0
  -30.9382  -17.2726   19.7440 O   0  0  0  0  0  0  0  0  0  0  0  0
  -23.6710   -7.0899   23.4132 O   0  0  0  0  0  0  0  0  0  0  0  0
  -29.1593  -26.7810   22.8387 O   0  0  0  0  0  0  0  0  0  1  0  0
  -18.9258   -4.8245   21.7534 F   0  0  0  0  0  0  0  0  0  0  0  0
  -23.6374   -4.6255   22.1608 F   0  0  0  0  0  0  0  0  0  0  0  0
  -31.3053  -25.1223   23.1964 F   0  0  0  0  0  0  0  0  0  0  0  0
  1  2  1  0  0  0  0
  1  5  2  0  0  0  0
  2  6  2  0  0  0  0
  3 10  2  0  0  0  0
  3 18  1  0  0  0  0
  4 11  1  0  0  0  0
  4 18  2  0  0  0  0
  5 21  1  0  0  0  0
  6 23  1  0  0  0  0
  7 12  2  0  0  0  0
  7 22  1  0  0  0  0
  8  9  2  0  0  0  0
  8 25  1  0  0  0  0
  9 26  1  0  0  0  0
 10 27  1  0  0  0  0
 11 27  2  0  0  0  0
 12 28  1  0  0  0  0
 13 14  2  0  0  0  0
 13 29  1  0  0  0  0
 14 30  1  0  0  0  0
 15 19  1  0  0  0  0
 15 26  2  0  0  0  0
 16 24  1  0  0  0  0
 16 28  2  0  0  0  0
 17 30  2  0  0  0  0
 17 31  1  0  0  0  0
 18 32  1  0  0  0  0
 19 25  2  0  0  0  0
 19 34  1  0  0  0  0
 20 32  1  0  0  0  0
 20 33  2  0  0  0  0
 20 35  1  0  0  0  0
 21 23  2  0  0  0  0
 21 40  1  0  0  0  0
 22 24  2  0  0  0  0
 22 41  1  0  0  0  0
 23 52  1  0  0  0  0
 24 42  1  0  0  0  0
 25 67  1  0  0  0  0
 26 73  1  0  0  0  0
 27 83  1  0  0  0  0
 28 84  1  0  0  0  0
 29 31  2  0  0  0  0
 29 83  1  0  0  0  0
 30 85  1  0  0  0  0
 31 86  1  0  0  0  0
 32 65  2  0  0  0  0
 33 66  1  0  0  0  0
 33 70  1  0  0  0  0
 34 71  1  0  0  0  0
 34 76  2  0  0  0  0
 35 72  1  0  0  0  0
 35 78  2  0  0  0  0
 36 53  1  0  0  0  0
 36 74  1  0  0  0  0
 36 79  2  0  0  0  0
 37 62  1  0  0  0  0
 37 68  1  0  0  0  0
 37 80  2  0  0  0  0
 38 63  1  0  0  0  0
 38 75  1  0  0  0  0
 38 81  2  0  0  0  0
 39 69  1  0  0  0  0
 39 73  1  0  0  0  0
 39 82  2  0  0  0  0
 40 43  1  0  0  0  0
 41 53  1  0  0  0  0
 42 68  1  0  0  0  0
 43 45  1  0  0  0  0
 44 46  1  0  0  0  0
 44 48  1  0  0  0  0
 45 52  1  0  0  0  0
 46 54  1  0  0  0  0
 47 49  1  0  0  0  0
 47 55  1  0  0  0  0
 48 69  1  0  0  0  0
 49 67  1  0  0  0  0
 50 54  1  0  0  0  0
 50 69  1  0  0  0  0
 51 55  1  0  0  0  0
 51 67  1  0  0  0  0
 52 74  1  0  0  0  0
 53 68  1  0  0  0  0
 54 66  1  0  0  0  0
 55 61  1  0  0  0  0
 55 87  1  0  0  0  0
 56 63  1  0  0  0  0
 57 64  1  0  0  0  0
 58 64  1  0  0  0  0
 59 64  1  0  0  0  0
 60 77  1  0  0  0  0
 61 84  1  0  0  0  0
 62 64  1  0  0  0  0
 62 75  1  0  0  0  0
 63 77  1  0  0  0  0
 65 66  1  0  0  0  0
M  CHG  2  76   1  77   1
M  ISO  4  39 100  61 101  73 100  84 101
M  END
> <Batch ID>
0153

> <Smiles>
CNC(C)C(=O)NC(C(=O)N1Cc2cc([101O:1][101CH2:1]C3(F)CCN(c4ccc([100NH:0][100C:0](=O)N5CCCC(n6nc(-c7ccc(Oc8ccc(F)cc8F)cc7)c(C(N)=O)c6N)C5)cc4C(=N)N)C3)ccc2CC1C(=O)NC1CCCc2ccccc21)C(C)(C)C

> <Shape>
0.254

> <Color>
0.134

> <Negative vol penalty>
0.000

$$$$

  -OEChem-04052303303D

 87 96  0     1  0  0  0  0  0999 V2000
  -29.8126  -19.3616   17.4185 C   0  0  0  0  0  0  0  0  0  0  0  0
  -28.9782  -20.3908   16.9942 C   0  0  0  0  0  0  0  0  0  0  0  0
  -25.1597  -15.6171   20.9376 C   0  0  0  0  0  0  0  0  0  0  0  0
  -24.1663  -14.2071   22.6294 C   0  0  0  0  0  0  0  0  0  0  0  0
  -30.0242  -19.1540   18.7809 C   0  0  0  0  0  0  0  0  0  0  0  0
  -28.3539  -21.2122   17.9323 C   0  0  0  0  0  0  0  0  0  0  0  0
  -26.1287  -27.9606   18.8406 C   0  0  0  0  0  0  0  0  0  0  0  0
  -25.7873  -14.5040   20.3785 C   0  0  0  0  0  0  0  0  0  0  0  0
  -24.7938  -13.0940   22.0703 C   0  0  0  0  0  0  0  0  0  0  0  0
  -24.9919  -28.6797   19.2069 C   0  0  0  0  0  0  0  0  0  0  0  0
  -27.9392  -12.0865   18.7204 C   0  0  0  0  0  0  0  0  0  0  0  0
  -29.2820  -12.2085   18.3633 C   0  0  0  0  0  0  0  0  0  0  0  0
  -17.8819  -23.9614   22.8296 C   0  0  0  0  0  0  0  0  0  0  0  0
  -25.4937  -28.2772   21.5318 C   0  0  0  0  0  0  0  0  0  0  0  0
  -29.8463  -12.7136   20.6575 C   0  0  0  0  0  0  0  0  0  0  0  0
  -24.3492  -15.4687   22.0632 C   0  0  0  0  0  0  0  0  0  0  0  0
  -18.1420  -25.3603   22.7554 C   0  0  0  0  0  0  0  0  0  0  0  0
  -24.3198  -17.7697   23.1641 C   0  0  0  0  0  0  0  0  0  0  0  0
  -29.4098  -19.9794   19.7358 C   0  0  0  0  0  0  0  0  0  0  0  0
  -26.9520  -27.3841   19.8185 C   0  0  0  0  0  0  0  0  0  0  0  0
  -28.5564  -21.0146   19.3087 C   0  0  0  0  0  0  0  0  0  0  0  0
  -26.6419  -27.5534   21.1754 C   0  0  0  0  0  0  0  0  0  0  0  0
  -25.6044  -13.2424   20.9448 C   0  0  0  0  0  0  0  0  0  0  0  0
  -24.6727  -28.8357   20.5526 C   0  0  0  0  0  0  0  0  0  0  0  0
  -27.5499  -12.2782   20.0461 C   0  0  0  0  0  0  0  0  0  0  0  0
  -30.2356  -12.5220   19.3318 C   0  0  0  0  0  0  0  0  0  0  0  0
  -28.5035  -12.5917   21.0147 C   0  0  0  0  0  0  0  0  0  0  0  0
  -23.7011  -16.6182   22.6416 C   0  0  0  0  0  0  0  0  0  0  0  0
  -23.2774  -18.5576   23.5872 C   0  0  0  0  0  0  0  0  0  0  0  0
  -19.4657  -25.6267   22.4828 C   0  0  0  0  0  0  0  0  0  0  0  0
  -19.0169  -23.2118   22.6106 C   0  0  0  0  0  0  0  0  0  0  0  0
  -17.1286  -26.3619   22.9458 C   0  0  0  0  0  0  0  0  0  0  0  0
  -25.7124  -18.0978   23.2586 C   0  0  0  0  0  0  0  0  0  0  0  0
  -27.8249  -24.4167   20.5510 C   0  0  0  0  0  0  0  0  0  0  0  0
  -29.7645  -25.9258   22.6683 C   0  0  0  0  0  0  0  0  0  0  0  0
  -29.5154  -28.7162   24.9420 C   0  0  0  0  0  0  0  0  0  0  0  0
  -18.2505  -20.8196   22.8017 C   0  0  0  0  0  0  0  0  0  0  0  0
  -29.6313  -19.6865   21.1986 C   0  0  0  0  0  0  0  0  0  0  0  0
  -28.1894  -26.6340   19.4078 C   0  0  0  0  0  0  0  0  0  0  0  0
  -27.5042  -26.9716   22.2646 C   0  0  0  0  0  0  0  0  0  0  0  0
  -29.2286  -20.8367   22.1179 C   0  0  0  0  0  0  0  0  0  0  0  0
  -18.3528  -17.5072   24.1035 C   0  0  0  0  0  0  0  0  0  0  0  0
  -27.8600  -21.3822   21.7224 C   0  0  0  0  0  0  0  0  0  0  0  0
  -19.8043  -17.0754   23.8822 C   0  0  0  0  0  0  0  0  0  0  0  0
  -20.7789  -28.7049   20.8342 C   0  0  0  0  0  0  0  0  0  0  0  0
  -20.6743  -29.0735   23.3085 C   0  0  0  0  0  0  0  0  0  0  0  0
  -17.8378  -18.3740   22.9559 C   0  0  0  0  0  0  0  0  0  0  0  0
  -20.6975  -27.1943   21.0568 C   0  0  0  0  0  0  0  0  0  0  0  0
  -20.5931  -27.5623   23.5303 C   0  0  0  0  0  0  0  0  0  0  0  0
  -20.1265  -19.1041   22.4100 C   0  0  0  0  0  0  0  0  0  0  0  0
  -27.8809  -21.9424   20.2951 C   0  0  1  0  0  0  0  0  0  0  0  0
  -28.6744  -25.6536   20.4713 C   0  0  1  0  0  0  0  0  0  0  0  0
  -20.7103  -18.2828   23.5711 C   0  0  2  0  0  0  0  0  0  0  0  0
  -21.4136  -29.4659   22.0147 C   0  0  0  0  0  0  0  0  0  0  0  0
  -21.2583  -30.9798   21.7824 C   0  0  0  0  0  0  0  0  0  0  0  0
  -31.2833  -30.2602   25.8297 C   0  0  0  0  0  0  0  0  0  0  0  0
  -29.8690  -23.9848   25.0202 C   0  0  0  0  0  0  0  0  0  0  0  0
  -30.1706  -25.9515   26.5399 C   0  0  0  0  0  0  0  0  0  0  0  0
  -31.8789  -25.4553   24.7911 C   0  0  0  0  0  0  0  0  0  0  0  0
  -28.0607  -31.1136   23.9960 C   0  0  0  0  0  0  0  0  0  0  0  0
  -22.9173  -29.1519   22.1257 C   0  0  0  0  0  0  0  0  0  1  0  0
  -29.6318  -26.3855   24.1002 C   0  0  1  0  0  0  0  0  0  0  0  0
  -30.1849  -30.0707   24.7951 C   0  0  2  0  0  0  0  0  0  0  0  0
  -30.3650  -25.4426   25.0956 C   0  0  0  0  0  0  0  0  0  0  0  0
  -22.3688  -16.6662   22.7242 N   0  0  0  0  0  0  0  0  0  0  0  0
  -22.1419  -17.8574   23.3037 N   0  0  0  0  0  0  0  0  0  0  0  0
  -20.0600  -26.8881   22.3432 N   0  0  0  0  0  0  0  0  0  0  0  0
  -28.6998  -26.2412   21.8123 N   0  0  0  0  0  0  0  0  0  0  0  0
  -18.7441  -19.5002   22.7212 N   0  0  0  0  0  0  0  0  0  0  0  0
  -23.2305  -19.7742   24.1705 N   0  0  0  0  0  0  0  0  0  0  0  0
  -17.4310  -27.6730   22.8646 N   0  0  0  0  0  0  0  0  0  0  0  0
  -26.6504  -17.1751   22.7757 N   0  0  0  0  0  0  0  0  0  0  0  0
  -19.2113  -21.8084   22.5921 N   0  0  0  0  0  0  0  0  0  0  0  0
  -28.5066  -23.2472   20.2734 N   0  0  0  0  0  0  0  0  0  0  0  0
  -30.0999  -27.7669   24.1305 N   0  0  0  0  0  0  0  0  0  0  0  0
  -15.8535  -26.0118   23.2079 N   0  3  0  0  0  0  0  0  0  0  0  0
  -29.1859  -31.1634   24.9647 N   0  3  0  0  0  0  0  0  0  0  0  0
  -26.1137  -19.1699   23.7714 O   0  0  0  0  0  0  0  0  0  0  0  0
  -26.6392  -24.5160   20.8442 O   0  0  0  0  0  0  0  0  0  0  0  0
  -30.7787  -25.3159   22.3205 O   0  0  0  0  0  0  0  0  0  0  0  0
  -28.5710  -28.5190   25.7034 O   0  0  0  0  0  0  0  0  0  0  0  0
  -17.0688  -21.0554   23.0658 O   0  0  0  0  0  0  0  0  0  0  0  0
  -26.2165  -12.1560   20.3993 O   0  0  0  0  0  0  0  0  0  0  0  0
  -23.5632  -29.5366   20.9128 O   0  0  0  0  0  0  0  0  0  1  0  0
  -31.5252  -12.6376   18.9890 F   0  0  0  0  0  0  0  0  0  0  0  0
  -28.1357  -12.7758   22.2901 F   0  0  0  0  0  0  0  0  0  0  0  0
  -20.3887  -24.1938   22.3174 S   0  0  0  0  0  0  0  0  0  0  0  0
  1  2  1  0  0  0  0
  1  5  2  0  0  0  0
  2  6  2  0  0  0  0
  3  8  2  0  0  0  0
  3 16  1  0  0  0  0
  4  9  1  0  0  0  0
  4 16  2  0  0  0  0
  5 19  1  0  0  0  0
  6 21  1  0  0  0  0
  7 10  2  0  0  0  0
  7 20  1  0  0  0  0
  8 23  1  0  0  0  0
  9 23  2  0  0  0  0
 10 24  1  0  0  0  0
 11 12  2  0  0  0  0
 11 25  1  0  0  0  0
 12 26  1  0  0  0  0
 13 17  1  0  0  0  0
 13 31  2  0  0  0  0
 14 22  1  0  0  0  0
 14 24  2  0  0  0  0
 15 26  2  0  0  0  0
 15 27  1  0  0  0  0
 16 28  1  0  0  0  0
 17 30  2  0  0  0  0
 17 32  1  0  0  0  0
 18 28  1  0  0  0  0
 18 29  2  0  0  0  0
 18 33  1  0  0  0  0
 19 21  2  0  0  0  0
 19 38  1  0  0  0  0
 20 22  2  0  0  0  0
 20 39  1  0  0  0  0
 21 51  1  0  0  0  0
 22 40  1  0  0  0  0
 23 83  1  0  0  0  0
 24 84  1  0  0  0  0
 25 27  2  0  0  0  0
 25 83  1  0  0  0  0
 26 85  1  0  0  0  0
 27 86  1  0  0  0  0
 28 65  2  0  0  0  0
 29 66  1  0  0  0  0
 29 70  1  0  0  0  0
 30 67  1  0  0  0  0
 30 87  1  0  0  0  0
 31 73  1  0  0  0  0
 31 87  1  0  0  0  0
 32 71  1  0  0  0  0
 32 76  2  0  0  0  0
 33 72  1  0  0  0  0
 33 78  2  0  0  0  0
 34 52  1  0  0  0  0
 34 74  1  0  0  0  0
 34 79  2  0  0  0  0
 35 62  1  0  0  0  0
 35 68  1  0  0  0  0
 35 80  2  0  0  0  0
 36 63  1  0  0  0  0
 36 75  1  0  0  0  0
 36 81  2  0  0  0  0
 37 69  1  0  0  0  0
 37 73  1  0  0  0  0
 37 82  2  0  0  0  0
 38 41  1  0  0  0  0
 39 52  1  0  0  0  0
 40 68  1  0  0  0  0
 41 43  1  0  0  0  0
 42 44  1  0  0  0  0
 42 47  1  0  0  0  0
 43 51  1  0  0  0  0
 44 53  1  0  0  0  0
 45 48  1  0  0  0  0
 45 54  1  0  0  0  0
 46 49  1  0  0  0  0
 46 54  1  0  0  0  0
 47 69  1  0  0  0  0
 48 67  1  0  0  0  0
 49 67  1  0  0  0  0
 50 53  1  0  0  0  0
 50 69  1  0  0  0  0
 51 74  1  0  0  0  0
 52 68  1  0  0  0  0
 53 66  1  0  0  0  0
 54 55  1  0  0  0  0
 54 61  1  0  0  0  0
 56 63  1  0  0  0  0
 57 64  1  0  0  0  0
 58 64  1  0  0  0  0
 59 64  1  0  0  0  0
 60 77  1  0  0  0  0
 61 84  1  0  0  0  0
 62 64  1  0  0  0  0
 62 75  1  0  0  0  0
 63 77  1  0  0  0  0
 65 66  1  0  0  0  0
M  CHG  2  76   1  77   1
M  ISO  4  37 100  61 101  73 100  84 101
M  END
> <Batch ID>
0153

> <Smiles>
CNC(C)C(=O)NC(C(=O)N1Cc2cc([101O:1][101CH2:1]C3(C)CCN(c4sc([100NH:0][100C:0](=O)N5CCCC(n6nc(-c7ccc(Oc8ccc(F)cc8F)cc7)c(C(N)=O)c6N)C5)cc4C(=N)N)CC3)ccc2CC1C(=O)NC1CCCc2ccccc21)C(C)(C)C

> <Shape>
0.235

> <Color>
0.047

> <Negative vol penalty>
0.000

$$$$

  -OEChem-04052303303D

 84 92  0     1  0  0  0  0  0999 V2000
  -19.7139  -28.8258   22.6767 C   0  0  0  0  0  0  0  0  0  0  0  0
  -20.3439  -27.9571   23.5622 C   0  0  0  0  0  0  0  0  0  0  0  0
  -24.4140   -9.5248   21.2479 C   0  0  0  0  0  0  0  0  0  0  0  0
  -25.0004  -10.4640   23.3952 C   0  0  0  0  0  0  0  0  0  0  0  0
  -19.1042  -28.3260   21.5268 C   0  0  0  0  0  0  0  0  0  0  0  0
  -20.3635  -26.5880   23.2987 C   0  0  0  0  0  0  0  0  0  0  0  0
  -24.8673  -22.6508   24.6102 C   0  0  0  0  0  0  0  0  0  0  0  0
  -24.1478   -8.2986   21.8569 C   0  0  0  0  0  0  0  0  0  0  0  0
  -24.7341   -9.2377   24.0043 C   0  0  0  0  0  0  0  0  0  0  0  0
  -25.0512  -21.7518   25.6598 C   0  0  0  0  0  0  0  0  0  0  0  0
  -21.6485   -6.9007   23.6548 C   0  0  0  0  0  0  0  0  0  0  0  0
  -20.4811   -6.2330   23.2847 C   0  0  0  0  0  0  0  0  0  0  0  0
  -30.5676  -20.4540   23.3065 C   0  0  0  0  0  0  0  0  0  0  0  0
  -24.1474  -19.9810   24.2934 C   0  0  0  0  0  0  0  0  0  0  0  0
  -29.1916  -18.4824   23.2447 C   0  0  0  0  0  0  0  0  0  0  0  0
  -21.7964   -4.3532   22.5273 C   0  0  0  0  0  0  0  0  0  0  0  0
  -31.2801  -19.9246   22.2426 C   0  0  0  0  0  0  0  0  0  0  0  0
  -24.8404  -10.6076   22.0170 C   0  0  0  0  0  0  0  0  0  0  0  0
  -24.2115  -12.9315   21.1734 C   0  0  0  0  0  0  0  0  0  0  0  0
  -19.1247  -26.9512   21.2441 C   0  0  0  0  0  0  0  0  0  0  0  0
  -24.3111  -22.2233   23.3960 C   0  0  0  0  0  0  0  0  0  0  0  0
  -19.7523  -26.0692   22.1445 C   0  0  0  0  0  0  0  0  0  0  0  0
  -23.9599  -20.8761   23.2291 C   0  0  0  0  0  0  0  0  0  0  0  0
  -29.5049  -19.7129   23.8112 C   0  0  0  0  0  0  0  0  0  0  0  0
  -24.3078   -8.1550   23.2351 C   0  0  0  0  0  0  0  0  0  0  0  0
  -24.6886  -20.4173   25.5025 C   0  0  0  0  0  0  0  0  0  0  0  0
  -22.8899   -6.2947   23.4611 C   0  0  0  0  0  0  0  0  0  0  0  0
  -20.5550   -4.9593   22.7210 C   0  0  0  0  0  0  0  0  0  0  0  0
  -22.9638   -5.0210   22.8974 C   0  0  0  0  0  0  0  0  0  0  0  0
  -25.1161  -11.8745   21.3884 C   0  0  0  0  0  0  0  0  0  0  0  0
  -29.9656  -18.0413   22.1835 C   0  0  0  0  0  0  0  0  0  0  0  0
  -24.9575  -13.8998   20.5471 C   0  0  0  0  0  0  0  0  0  0  0  0
  -22.8212  -13.0293   21.5097 C   0  0  0  0  0  0  0  0  0  0  0  0
  -21.6885  -22.9467   21.7521 C   0  0  0  0  0  0  0  0  0  0  0  0
  -23.0187  -21.0002   19.5241 C   0  0  0  0  0  0  0  0  0  0  0  0
  -27.6657  -19.6033   25.5231 C   0  0  0  0  0  0  0  0  0  0  0  0
  -25.1546  -18.4320   18.8249 C   0  0  0  0  0  0  0  0  0  0  0  0
  -30.2769  -16.1504   20.5483 C   0  0  0  0  0  0  0  0  0  0  0  0
  -18.4111  -26.4525   20.0126 C   0  0  0  0  0  0  0  0  0  0  0  0
  -24.1440  -23.1998   22.2643 C   0  0  0  0  0  0  0  0  0  0  0  0
  -23.3776  -20.3624   21.9385 C   0  0  0  0  0  0  0  0  0  0  0  0
  -18.8011  -25.0308   19.6163 C   0  0  0  0  0  0  0  0  0  0  0  0
  -29.1929  -13.9251   17.9889 C   0  0  0  0  0  0  0  0  0  0  0  0
  -18.7940  -24.1155   20.8366 C   0  0  0  0  0  0  0  0  0  0  0  0
  -27.9424  -13.2719   18.5820 C   0  0  0  0  0  0  0  0  0  0  0  0
  -30.2641  -14.1674   19.0507 C   0  0  0  0  0  0  0  0  0  0  0  0
  -28.5589  -14.2565   20.8265 C   0  0  0  0  0  0  0  0  0  0  0  0
  -19.8163  -24.5804   21.8809 C   0  0  1  0  0  0  0  0  0  0  0  0
  -23.0923  -22.7635   21.2489 C   0  0  1  0  0  0  0  0  0  0  0  0
  -27.4264  -14.0520   19.8071 C   0  0  2  0  0  0  0  0  0  0  0  0
  -26.0017  -17.0380   16.9179 C   0  0  0  0  0  0  0  0  0  0  0  0
  -20.3965  -19.4403   19.5027 C   0  0  0  0  0  0  0  0  0  0  0  0
  -21.5983  -17.5715   18.3489 C   0  0  0  0  0  0  0  0  0  0  0  0
  -21.4137  -19.8018   17.2468 C   0  0  0  0  0  0  0  0  0  0  0  0
  -25.4174  -20.6744   28.5520 C   0  0  0  0  0  0  0  0  0  0  0  0
  -26.4051  -18.4445   27.9888 C   0  0  0  0  0  0  0  0  0  0  0  0
  -27.9418  -19.3294   19.2549 C   0  0  0  0  0  0  0  0  0  0  0  0
  -27.1110  -20.4540   26.6585 C   0  0  0  0  0  0  0  0  0  0  0  0
  -22.9621  -19.5215   19.2257 C   0  0  1  0  0  0  0  0  0  0  0  0
  -26.2328  -18.2780   17.7674 C   0  0  2  0  0  0  0  0  0  0  0  0
  -21.6018  -19.0935   18.6061 C   0  0  0  0  0  0  0  0  0  0  0  0
  -25.9483  -19.7926   27.4206 C   0  0  0  0  0  0  0  0  0  1  0  0
  -31.0055  -18.7330   21.6660 N   0  0  0  0  0  0  0  0  0  0  0  0
  -26.3430  -12.1455   20.9354 N   0  0  0  0  0  0  0  0  0  0  0  0
  -26.2146  -13.3839   20.4294 N   0  0  0  0  0  0  0  0  0  0  0  0
  -23.2278  -21.3573   20.8637 N   0  0  0  0  0  0  0  0  0  0  0  0
  -29.7040  -14.9151   20.1785 N   0  0  0  0  0  0  0  0  0  0  0  0
  -24.6543  -15.1337   20.0910 N   0  0  0  0  0  0  0  0  0  0  0  0
  -22.2108  -11.9427   22.1508 N   0  0  0  0  0  0  0  0  0  0  0  0
  -28.7463  -20.2098   24.8971 N   0  0  0  0  0  0  0  0  0  0  0  0
  -29.6397  -16.7855   21.6137 N   0  0  0  0  0  0  0  0  0  0  0  0
  -21.1536  -24.1928   21.4864 N   0  0  0  0  0  0  0  0  0  0  0  0
  -24.1191  -19.2299   18.3862 N   0  0  0  0  0  0  0  0  0  0  0  0
  -27.5739  -18.1659   18.4075 N   0  3  0  0  0  0  0  0  0  0  0  0
  -22.1363  -14.0436   21.2348 O   0  0  0  0  0  0  0  0  0  0  0  0
  -21.1312  -22.0251   22.3368 O   0  0  0  0  0  0  0  0  0  0  0  0
  -22.8895  -21.8087   18.6014 O   0  0  0  0  0  0  0  0  0  0  0  0
  -27.1605  -18.5153   25.2602 O   0  0  0  0  0  0  0  0  0  0  0  0
  -25.2222  -17.8948   19.9283 O   0  0  0  0  0  0  0  0  0  0  0  0
  -31.2434  -16.6238   19.9453 O   0  0  0  0  0  0  0  0  0  0  0  0
  -24.0479   -6.9586   23.8297 O   0  0  0  0  0  0  0  0  0  0  0  0
  -24.8664  -19.5378   26.5256 O   0  0  0  0  0  0  0  0  0  1  0  0
  -19.4338   -4.3176   22.3671 F   0  0  0  0  0  0  0  0  0  0  0  0
  -24.1534   -4.4332   22.7099 F   0  0  0  0  0  0  0  0  0  0  0  0
  1  2  1  0  0  0  0
  1  5  2  0  0  0  0
  2  6  2  0  0  0  0
  3  8  2  0  0  0  0
  3 18  1  0  0  0  0
  4  9  1  0  0  0  0
  4 18  2  0  0  0  0
  5 20  1  0  0  0  0
  6 22  1  0  0  0  0
  7 10  2  0  0  0  0
  7 21  1  0  0  0  0
  8 25  1  0  0  0  0
  9 25  2  0  0  0  0
 10 26  1  0  0  0  0
 11 12  2  0  0  0  0
 11 27  1  0  0  0  0
 12 28  1  0  0  0  0
 13 17  2  0  0  0  0
 13 24  1  0  0  0  0
 14 23  1  0  0  0  0
 14 26  2  0  0  0  0
 15 24  2  0  0  0  0
 15 31  1  0  0  0  0
 16 28  2  0  0  0  0
 16 29  1  0  0  0  0
 17 63  1  0  0  0  0
 18 30  1  0  0  0  0
 19 30  1  0  0  0  0
 19 32  2  0  0  0  0
 19 33  1  0  0  0  0
 20 22  2  0  0  0  0
 20 39  1  0  0  0  0
 21 23  2  0  0  0  0
 21 40  1  0  0  0  0
 22 48  1  0  0  0  0
 23 41  1  0  0  0  0
 24 70  1  0  0  0  0
 25 81  1  0  0  0  0
 26 82  1  0  0  0  0
 27 29  2  0  0  0  0
 27 81  1  0  0  0  0
 28 83  1  0  0  0  0
 29 84  1  0  0  0  0
 30 64  2  0  0  0  0
 31 63  2  0  0  0  0
 31 71  1  0  0  0  0
 32 65  1  0  0  0  0
 32 68  1  0  0  0  0
 33 69  1  0  0  0  0
 33 75  2  0  0  0  0
 34 49  1  0  0  0  0
 34 72  1  0  0  0  0
 34 76  2  0  0  0  0
 35 59  1  0  0  0  0
 35 66  1  0  0  0  0
 35 77  2  0  0  0  0
 36 58  1  0  0  0  0
 36 70  1  0  0  0  0
 36 78  2  0  0  0  0
 37 60  1  0  0  0  0
 37 73  1  0  0  0  0
 37 79  2  0  0  0  0
 38 67  1  0  0  0  0
 38 71  1  0  0  0  0
 38 80  2  0  0  0  0
 39 42  1  0  0  0  0
 40 49  1  0  0  0  0
 41 66  1  0  0  0  0
 42 44  1  0  0  0  0
 43 45  1  0  0  0  0
 43 46  1  0  0  0  0
 44 48  1  0  0  0  0
 45 50  1  0  0  0  0
 46 67  1  0  0  0  0
 47 50  1  0  0  0  0
 47 67  1  0  0  0  0
 48 72  1  0  0  0  0
 49 66  1  0  0  0  0
 50 65  1  0  0  0  0
 51 60  1  0  0  0  0
 52 61  1  0  0  0  0
 53 61  1  0  0  0  0
 54 61  1  0  0  0  0
 55 62  1  0  0  0  0
 56 62  1  0  0  0  0
 57 74  1  0  0  0  0
 58 62  1  0  0  0  0
 59 61  1  0  0  0  0
 59 73  1  0  0  0  0
 60 74  1  0  0  0  0
 62 82  1  0  0  0  0
 64 65  1  0  0  0  0
M  CHG  1  74   1
M  ISO  4  38 100  62 101  71 100  82 101
M  END
> <Batch ID>
0153

> <Smiles>
CNC(C)C(=O)NC(C(=O)N1Cc2cc([101O:1][101C:1](C)(C)CC(=O)Nc3ccnc([100NH:0][100C:0](=O)N4CCCC(n5nc(-c6ccc(Oc7ccc(F)cc7F)cc6)c(C(N)=O)c5N)C4)c3)ccc2CC1C(=O)NC1CCCc2ccccc21)C(C)(C)C

> <Shape>
0.193

> <Color>
0.100

> <Negative vol penalty>
0.000

$$$$

  -OEChem-04052303303D

 86 95  0     1  0  0  0  0  0999 V2000
  -24.5719  -18.1830   22.4423 C   0  0  0  0  0  0  0  0  0  0  0  0
  -25.1493  -19.2788   21.8088 C   0  0  0  0  0  0  0  0  0  0  0  0
  -26.7350  -10.7554   20.3988 C   0  0  0  0  0  0  0  0  0  0  0  0
  -25.7676  -12.3713   18.8855 C   0  0  0  0  0  0  0  0  0  0  0  0
  -23.1987  -18.1623   22.6830 C   0  0  0  0  0  0  0  0  0  0  0  0
  -24.3537  -20.3541   21.4148 C   0  0  0  0  0  0  0  0  0  0  0  0
  -26.4178  -24.8286   22.5823 C   0  0  0  0  0  0  0  0  0  0  0  0
  -25.5486  -10.0224   20.3745 C   0  0  0  0  0  0  0  0  0  0  0  0
  -24.5812  -11.6382   18.8611 C   0  0  0  0  0  0  0  0  0  0  0  0
  -27.4410  -25.2926   21.7568 C   0  0  0  0  0  0  0  0  0  0  0  0
  -21.8771  -11.2084   20.8446 C   0  0  0  0  0  0  0  0  0  0  0  0
  -20.6785  -11.9110   20.9686 C   0  0  0  0  0  0  0  0  0  0  0  0
  -29.1452  -21.2442   17.5011 C   0  0  0  0  0  0  0  0  0  0  0  0
  -25.8684  -26.7302   20.6256 C   0  0  0  0  0  0  0  0  0  0  0  0
  -19.9732  -11.0889   18.8090 C   0  0  0  0  0  0  0  0  0  0  0  0
  -28.4097  -19.5359   16.0188 C   0  0  0  0  0  0  0  0  0  0  0  0
  -26.8445  -11.9299   19.6543 C   0  0  0  0  0  0  0  0  0  0  0  0
  -29.3489  -12.2492   19.2886 C   0  0  0  0  0  0  0  0  0  0  0  0
  -22.3873  -19.2420   22.3004 C   0  0  0  0  0  0  0  0  0  0  0  0
  -25.1078  -25.3047   22.4282 C   0  0  0  0  0  0  0  0  0  0  0  0
  -22.9682  -20.3471   21.6495 C   0  0  0  0  0  0  0  0  0  0  0  0
  -29.1170  -22.1381   16.4365 C   0  0  0  0  0  0  0  0  0  0  0  0
  -24.8308  -26.2725   21.4521 C   0  0  0  0  0  0  0  0  0  0  0  0
  -28.7863  -19.9166   17.2967 C   0  0  0  0  0  0  0  0  0  0  0  0
  -24.4717  -10.4637   19.6056 C   0  0  0  0  0  0  0  0  0  0  0  0
  -27.1659  -26.2414   20.7763 C   0  0  0  0  0  0  0  0  0  0  0  0
  -22.1238  -10.4461   19.7028 C   0  0  0  0  0  0  0  0  0  0  0  0
  -19.7266  -11.8513   19.9509 C   0  0  0  0  0  0  0  0  0  0  0  0
  -21.1718  -10.3864   18.6850 C   0  0  0  0  0  0  0  0  0  0  0  0
  -28.0696  -12.6879   19.6795 C   0  0  0  0  0  0  0  0  0  0  0  0
  -28.7258  -21.6580   15.1970 C   0  0  0  0  0  0  0  0  0  0  0  0
  -30.1639  -13.3339   19.5020 C   0  0  0  0  0  0  0  0  0  0  0  0
  -29.7634  -10.9751   18.7782 C   0  0  0  0  0  0  0  0  0  0  0  0
  -22.3139  -23.9836   21.6847 C   0  0  0  0  0  0  0  0  0  0  0  0
  -21.1761  -26.9461   22.3562 C   0  0  0  0  0  0  0  0  0  0  0  0
  -22.1760  -30.3556   21.7293 C   0  0  0  0  0  0  0  0  0  0  0  0
  -29.1588  -19.2212   19.6892 C   0  0  0  0  0  0  0  0  0  0  0  0
  -20.9008  -19.1534   22.5394 C   0  0  0  0  0  0  0  0  0  0  0  0
  -24.0205  -24.8139   23.3443 C   0  0  0  0  0  0  0  0  0  0  0  0
  -23.4452  -26.8306   21.2594 C   0  0  0  0  0  0  0  0  0  0  0  0
  -20.1847  -20.4968   22.4270 C   0  0  0  0  0  0  0  0  0  0  0  0
  -30.5778  -17.2201   22.2698 C   0  0  0  0  0  0  0  0  0  0  0  0
  -28.2909  -24.4655   16.9862 C   0  0  0  0  0  0  0  0  0  0  0  0
  -30.5974  -23.7209   17.7414 C   0  0  0  0  0  0  0  0  0  0  0  0
  -20.6397  -21.2413   21.1758 C   0  0  0  0  0  0  0  0  0  0  0  0
  -30.2173  -15.7905   21.8596 C   0  0  0  0  0  0  0  0  0  0  0  0
  -28.6936  -25.9244   17.2105 C   0  0  0  0  0  0  0  0  0  0  0  0
  -30.9914  -25.1825   17.9637 C   0  0  0  0  0  0  0  0  0  0  0  0
  -29.4584  -18.2050   21.9370 C   0  0  0  0  0  0  0  0  0  0  0  0
  -28.6359  -16.7423   20.1333 C   0  0  0  0  0  0  0  0  0  0  0  0
  -29.5101  -23.5868   16.6631 C   0  0  0  0  0  0  0  0  0  0  0  0
  -22.1421  -21.5435   21.2294 C   0  0  1  0  0  0  0  0  0  0  0  0
  -22.6224  -24.9877   22.7591 C   0  0  1  0  0  0  0  0  0  0  0  0
  -29.7593  -15.7245   20.3894 C   0  0  2  0  0  0  0  0  0  0  0  0
  -29.7910  -26.1012   18.2838 C   0  0  0  0  0  0  0  0  0  0  0  0
  -30.2669  -27.5663   18.2754 C   0  0  0  0  0  0  0  0  0  0  0  0
  -21.6952  -32.4588   23.0110 C   0  0  0  0  0  0  0  0  0  0  0  0
  -18.8380  -27.2477   20.4191 C   0  0  0  0  0  0  0  0  0  0  0  0
  -19.2796  -29.7118   20.3791 C   0  0  0  0  0  0  0  0  0  0  0  0
  -18.6364  -28.5963   22.5156 C   0  0  0  0  0  0  0  0  0  0  0  0
  -25.0541  -30.9959   21.9845 C   0  0  0  0  0  0  0  0  0  0  0  0
  -29.2315  -25.7932   19.6863 C   0  0  0  0  0  0  0  0  0  1  0  0
  -20.9451  -28.2083   21.5609 C   0  0  1  0  0  0  0  0  0  0  0  0
  -22.7025  -31.3502   22.7481 C   0  0  2  0  0  0  0  0  0  0  0  0
  -19.4452  -28.4225   21.2116 C   0  0  0  0  0  0  0  0  0  0  0  0
  -28.3701  -20.3754   14.9598 N   0  0  0  0  0  0  0  0  0  0  0  0
  -28.0671  -13.9527   20.1088 N   0  0  0  0  0  0  0  0  0  0  0  0
  -29.3549  -14.3180   19.9891 N   0  0  0  0  0  0  0  0  0  0  0  0
  -22.4148  -26.3146   22.1757 N   0  0  0  0  0  0  0  0  0  0  0  0
  -29.0797  -18.0887   20.5270 N   0  0  0  0  0  0  0  0  0  0  0  0
  -28.6958  -22.5651   14.1086 N   0  0  0  0  0  0  0  0  0  0  0  0
  -31.4866  -13.5324   19.3188 N   0  0  0  0  0  0  0  0  0  0  0  0
  -28.7973   -9.9719   18.6210 N   0  0  0  0  0  0  0  0  0  0  0  0
  -28.8048  -18.9822   18.3617 N   0  0  0  0  0  0  0  0  0  0  0  0
  -22.4005  -22.6690   22.1017 N   0  0  0  0  0  0  0  0  0  0  0  0
  -21.5393  -29.2929   22.3347 N   0  0  0  0  0  0  0  0  0  0  0  0
  -23.9672  -31.9701   22.2611 N   0  3  0  0  0  0  0  0  0  0  0  0
  -30.9581  -10.7281   18.4862 O   0  0  0  0  0  0  0  0  0  0  0  0
  -22.0178  -24.3727   20.5611 O   0  0  0  0  0  0  0  0  0  0  0  0
  -20.2928  -26.5395   23.1153 O   0  0  0  0  0  0  0  0  0  0  0  0
  -22.3124  -30.5081   20.5174 O   0  0  0  0  0  0  0  0  0  0  0  0
  -29.5406  -20.3156   20.1117 O   0  0  0  0  0  0  0  0  0  0  0  0
  -23.3139   -9.7485   19.5815 O   0  0  0  0  0  0  0  0  0  0  0  0
  -28.1626  -26.6954   19.9688 O   0  0  0  0  0  0  0  0  0  1  0  0
  -18.5750  -12.5248   20.0708 F   0  0  0  0  0  0  0  0  0  0  0  0
  -21.4026   -9.6548   17.5862 F   0  0  0  0  0  0  0  0  0  0  0  0
  1  2  1  0  0  0  0
  1  5  2  0  0  0  0
  2  6  2  0  0  0  0
  3  8  2  0  0  0  0
  3 17  1  0  0  0  0
  4  9  1  0  0  0  0
  4 17  2  0  0  0  0
  5 19  1  0  0  0  0
  6 21  1  0  0  0  0
  7 10  2  0  0  0  0
  7 20  1  0  0  0  0
  8 25  1  0  0  0  0
  9 25  2  0  0  0  0
 10 26  1  0  0  0  0
 11 12  2  0  0  0  0
 11 27  1  0  0  0  0
 12 28  1  0  0  0  0
 13 22  1  0  0  0  0
 13 24  2  0  0  0  0
 14 23  1  0  0  0  0
 14 26  2  0  0  0  0
 15 28  2  0  0  0  0
 15 29  1  0  0  0  0
 16 24  1  0  0  0  0
 16 66  2  0  0  0  0
 17 30  1  0  0  0  0
 18 30  1  0  0  0  0
 18 32  2  0  0  0  0
 18 33  1  0  0  0  0
 19 21  2  0  0  0  0
 19 38  1  0  0  0  0
 20 23  2  0  0  0  0
 20 39  1  0  0  0  0
 21 52  1  0  0  0  0
 22 31  2  0  0  0  0
 22 51  1  0  0  0  0
 23 40  1  0  0  0  0
 24 74  1  0  0  0  0
 25 83  1  0  0  0  0
 26 84  1  0  0  0  0
 27 29  2  0  0  0  0
 27 83  1  0  0  0  0
 28 85  1  0  0  0  0
 29 86  1  0  0  0  0
 30 67  2  0  0  0  0
 31 66  1  0  0  0  0
 31 71  1  0  0  0  0
 32 68  1  0  0  0  0
 32 72  1  0  0  0  0
 33 73  1  0  0  0  0
 33 78  2  0  0  0  0
 34 53  1  0  0  0  0
 34 75  1  0  0  0  0
 34 79  2  0  0  0  0
 35 63  1  0  0  0  0
 35 69  1  0  0  0  0
 35 80  2  0  0  0  0
 36 64  1  0  0  0  0
 36 76  1  0  0  0  0
 36 81  2  0  0  0  0
 37 70  1  0  0  0  0
 37 74  1  0  0  0  0
 37 82  2  0  0  0  0
 38 41  1  0  0  0  0
 39 53  1  0  0  0  0
 40 69  1  0  0  0  0
 41 45  1  0  0  0  0
 42 46  1  0  0  0  0
 42 49  1  0  0  0  0
 43 47  1  0  0  0  0
 43 51  1  0  0  0  0
 44 48  1  0  0  0  0
 44 51  1  0  0  0  0
 45 52  1  0  0  0  0
 46 54  1  0  0  0  0
 47 55  1  0  0  0  0
 48 55  1  0  0  0  0
 49 70  1  0  0  0  0
 50 54  1  0  0  0  0
 50 70  1  0  0  0  0
 52 75  1  0  0  0  0
 53 69  1  0  0  0  0
 54 68  1  0  0  0  0
 55 56  1  0  0  0  0
 55 62  1  0  0  0  0
 57 64  1  0  0  0  0
 58 65  1  0  0  0  0
 59 65  1  0  0  0  0
 60 65  1  0  0  0  0
 61 77  1  0  0  0  0
 62 84  1  0  0  0  0
 63 65  1  0  0  0  0
 63 76  1  0  0  0  0
 64 77  1  0  0  0  0
 67 68  1  0  0  0  0
M  CHG  1  77   1
M  ISO  4  37 100  62 101  74 100  84 101
M  END
> <Batch ID>
0153

> <Smiles>
CNC(C)C(=O)NC(C(=O)N1Cc2cc([101O:1][101CH2:1]C3(C)CCC(c4cc([100NH:0][100C:0](=O)N5CCCC(n6nc(-c7ccc(Oc8ccc(F)cc8F)cc7)c(C(N)=O)c6N)C5)cnc4N)CC3)ccc2CC1C(=O)NC1CCCc2ccccc21)C(C)(C)C

> <Shape>
0.240

> <Color>
0.069

> <Negative vol penalty>
0.000

$$$$

  -OEChem-04052303303D

 84 93  0     1  0  0  0  0  0999 V2000
  -18.5965  -23.9684   22.1557 C   0  0  0  0  0  0  0  0  0  0  0  0
  -19.9270  -24.0320   21.7542 C   0  0  0  0  0  0  0  0  0  0  0  0
  -26.1492  -15.1695   20.3799 C   0  0  0  0  0  0  0  0  0  0  0  0
  -27.8083  -14.2040   18.9128 C   0  0  0  0  0  0  0  0  0  0  0  0
  -17.9700  -25.1024   22.6708 C   0  0  0  0  0  0  0  0  0  0  0  0
  -20.6314  -25.2301   21.8666 C   0  0  0  0  0  0  0  0  0  0  0  0
  -25.2694  -24.5833   23.7942 C   0  0  0  0  0  0  0  0  0  0  0  0
  -25.7060  -13.8915   20.7199 C   0  0  0  0  0  0  0  0  0  0  0  0
  -27.3650  -12.9259   19.2528 C   0  0  0  0  0  0  0  0  0  0  0  0
  -26.2531  -24.0938   22.9359 C   0  0  0  0  0  0  0  0  0  0  0  0
  -23.7559  -11.4884   19.3608 C   0  0  0  0  0  0  0  0  0  0  0  0
  -22.3791  -11.2665   19.3875 C   0  0  0  0  0  0  0  0  0  0  0  0
  -27.0942  -26.3342   22.6319 C   0  0  0  0  0  0  0  0  0  0  0  0
  -30.1762  -23.7237   16.5349 C   0  0  0  0  0  0  0  0  0  0  0  0
  -22.5206  -10.6696   21.7243 C   0  0  0  0  0  0  0  0  0  0  0  0
  -30.4574  -25.9866   16.0852 C   0  0  0  0  0  0  0  0  0  0  0  0
  -27.2004  -15.3258   19.4763 C   0  0  0  0  0  0  0  0  0  0  0  0
  -28.6621  -17.3964   19.7651 C   0  0  0  0  0  0  0  0  0  0  0  0
  -18.6700  -26.3125   22.7986 C   0  0  0  0  0  0  0  0  0  0  0  0
  -25.1838  -25.9556   24.0696 C   0  0  0  0  0  0  0  0  0  0  0  0
  -20.0133  -26.3818   22.3826 C   0  0  0  0  0  0  0  0  0  0  0  0
  -26.1101  -26.8383   23.4960 C   0  0  0  0  0  0  0  0  0  0  0  0
  -30.0307  -25.0591   17.0099 C   0  0  0  0  0  0  0  0  0  0  0  0
  -26.3139  -12.7696   20.1563 C   0  0  0  0  0  0  0  0  0  0  0  0
  -27.1638  -24.9697   22.3524 C   0  0  0  0  0  0  0  0  0  0  0  0
  -24.5151  -11.3008   20.5159 C   0  0  0  0  0  0  0  0  0  0  0  0
  -21.7614  -10.8571   20.5692 C   0  0  0  0  0  0  0  0  0  0  0  0
  -23.8974  -10.8914   21.6976 C   0  0  0  0  0  0  0  0  0  0  0  0
  -27.6583  -16.6459   19.1243 C   0  0  0  0  0  0  0  0  0  0  0  0
  -30.7085  -23.6815   15.2650 C   0  0  0  0  0  0  0  0  0  0  0  0
  -28.7189  -18.5708   19.0551 C   0  0  0  0  0  0  0  0  0  0  0  0
  -29.4711  -17.0620   20.9007 C   0  0  0  0  0  0  0  0  0  0  0  0
  -22.9877  -28.2051   23.5998 C   0  0  0  0  0  0  0  0  0  0  0  0
  -25.0468  -30.0264   25.3219 C   0  0  0  0  0  0  0  0  0  0  0  0
  -29.0557  -24.5619   19.2763 C   0  0  0  0  0  0  0  0  0  0  0  0
  -28.2442  -30.5651   26.3863 C   0  0  0  0  0  0  0  0  0  0  0  0
  -28.7821  -21.3576   14.2882 C   0  0  0  0  0  0  0  0  0  0  0  0
  -17.9366  -27.5242   23.3171 C   0  0  0  0  0  0  0  0  0  0  0  0
  -24.1336  -26.4644   25.0186 C   0  0  0  0  0  0  0  0  0  0  0  0
  -26.0736  -28.3179   23.7753 C   0  0  0  0  0  0  0  0  0  0  0  0
  -18.8629  -28.6569   23.7520 C   0  0  0  0  0  0  0  0  0  0  0  0
  -32.2884  -20.4373   14.3811 C   0  0  0  0  0  0  0  0  0  0  0  0
  -25.6395  -20.4644   15.5352 C   0  0  0  0  0  0  0  0  0  0  0  0
  -19.9399  -28.8997   22.6995 C   0  0  0  0  0  0  0  0  0  0  0  0
  -32.4321  -21.9288   14.6558 C   0  0  0  0  0  0  0  0  0  0  0  0
  -25.9506  -19.4377   16.6224 C   0  0  0  0  0  0  0  0  0  0  0  0
  -26.5575  -20.2775   14.3338 C   0  0  0  0  0  0  0  0  0  0  0  0
  -30.9106  -20.1220   14.9425 C   0  0  0  0  0  0  0  0  0  0  0  0
  -28.3469  -19.3418   15.7674 C   0  0  0  0  0  0  0  0  0  0  0  0
  -20.8182  -27.6568   22.5120 C   0  0  1  0  0  0  0  0  0  0  0  0
  -31.0172  -22.4707   14.4137 C   0  0  1  0  0  0  0  0  0  0  0  0
  -23.8190  -27.9445   24.8240 C   0  0  1  0  0  0  0  0  0  0  0  0
  -27.4389  -19.4829   17.0063 C   0  0  2  0  0  0  0  0  0  0  0  0
  -29.6243  -32.1553   27.7516 C   0  0  0  0  0  0  0  0  0  0  0  0
  -24.9726  -32.0480   23.0377 C   0  0  0  0  0  0  0  0  0  0  0  0
  -27.0329  -33.1003   23.9948 C   0  0  0  0  0  0  0  0  0  0  0  0
  -24.9234  -33.0567   25.3256 C   0  0  0  0  0  0  0  0  0  0  0  0
  -29.0133  -28.4398   28.2969 C   0  0  0  0  0  0  0  0  0  0  0  0
  -28.5801  -25.3530   20.4807 C   0  0  0  0  0  0  0  0  0  1  0  0
  -26.2226  -30.9137   24.9914 C   0  0  1  0  0  0  0  0  0  0  0  0
  -28.8100  -30.8710   27.7614 C   0  0  2  0  0  0  0  0  0  0  0  0
  -25.7876  -32.2521   24.3304 C   0  0  0  0  0  0  0  0  0  0  0  0
  -27.1162  -17.2894   18.0870 N   0  0  0  0  0  0  0  0  0  0  0  0
  -27.7819  -18.4568   18.0706 N   0  0  0  0  0  0  0  0  0  0  0  0
  -25.0243  -28.7676   24.7048 N   0  0  0  0  0  0  0  0  0  0  0  0
  -27.9668  -20.3067   14.7268 N   0  0  0  0  0  0  0  0  0  0  0  0
  -30.1267  -21.3281   14.6698 N   0  0  0  0  0  0  0  0  0  0  0  0
  -29.4784  -19.6795   19.1831 N   0  0  0  0  0  0  0  0  0  0  0  0
  -29.2831  -15.8142   21.5106 N   0  0  0  0  0  0  0  0  0  0  0  0
  -29.5240  -25.4065   18.2456 N   0  0  0  0  0  0  0  0  0  0  0  0
  -21.7737  -27.5452   23.5932 N   0  0  0  0  0  0  0  0  0  0  0  0
  -26.9728  -31.0761   26.2320 N   0  0  0  0  0  0  0  0  0  0  0  0
  -29.6913  -29.7593   28.2179 N   0  3  0  0  0  0  0  0  0  0  0  0
  -30.3235  -17.8530   21.3709 O   0  0  0  0  0  0  0  0  0  0  0  0
  -23.4154  -28.9509   22.7265 O   0  0  0  0  0  0  0  0  0  0  0  0
  -24.1839  -30.4323   26.1044 O   0  0  0  0  0  0  0  0  0  0  0  0
  -29.0146  -23.3362   19.2556 O   0  0  0  0  0  0  0  0  0  0  0  0
  -28.8691  -29.9391   25.5331 O   0  0  0  0  0  0  0  0  0  0  0  0
  -28.3381  -22.2655   13.5737 O   0  0  0  0  0  0  0  0  0  0  0  0
  -25.8818  -11.5223   20.4880 O   0  0  0  0  0  0  0  0  0  0  0  0
  -28.1345  -24.4897   21.5051 O   0  0  0  0  0  0  0  0  0  1  0  0
  -20.4390  -10.6456   20.5950 F   0  0  0  0  0  0  0  0  0  0  0  0
  -24.6213  -10.7107   22.8108 F   0  0  0  0  0  0  0  0  0  0  0  0
  -31.0305  -25.2472   14.6510 S   0  0  0  0  0  0  0  0  0  0  0  0
  1  2  1  0  0  0  0
  1  5  2  0  0  0  0
  2  6  2  0  0  0  0
  3  8  2  0  0  0  0
  3 17  1  0  0  0  0
  4  9  1  0  0  0  0
  4 17  2  0  0  0  0
  5 19  1  0  0  0  0
  6 21  1  0  0  0  0
  7 10  2  0  0  0  0
  7 20  1  0  0  0  0
  8 24  1  0  0  0  0
  9 24  2  0  0  0  0
 10 25  1  0  0  0  0
 11 12  2  0  0  0  0
 11 26  1  0  0  0  0
 12 27  1  0  0  0  0
 13 22  1  0  0  0  0
 13 25  2  0  0  0  0
 14 23  1  0  0  0  0
 14 30  2  0  0  0  0
 15 27  2  0  0  0  0
 15 28  1  0  0  0  0
 16 23  2  0  0  0  0
 16 84  1  0  0  0  0
 17 29  1  0  0  0  0
 18 29  1  0  0  0  0
 18 31  2  0  0  0  0
 18 32  1  0  0  0  0
 19 21  2  0  0  0  0
 19 38  1  0  0  0  0
 20 22  2  0  0  0  0
 20 39  1  0  0  0  0
 21 50  1  0  0  0  0
 22 40  1  0  0  0  0
 23 70  1  0  0  0  0
 24 80  1  0  0  0  0
 25 81  1  0  0  0  0
 26 28  2  0  0  0  0
 26 80  1  0  0  0  0
 27 82  1  0  0  0  0
 28 83  1  0  0  0  0
 29 63  2  0  0  0  0
 30 51  1  0  0  0  0
 30 84  1  0  0  0  0
 31 64  1  0  0  0  0
 31 68  1  0  0  0  0
 32 69  1  0  0  0  0
 32 74  2  0  0  0  0
 33 52  1  0  0  0  0
 33 71  1  0  0  0  0
 33 75  2  0  0  0  0
 34 60  1  0  0  0  0
 34 65  1  0  0  0  0
 34 76  2  0  0  0  0
 35 59  1  0  0  0  0
 35 70  1  0  0  0  0
 35 77  2  0  0  0  0
 36 61  1  0  0  0  0
 36 72  1  0  0  0  0
 36 78  2  0  0  0  0
 37 66  1  0  0  0  0
 37 67  1  0  0  0  0
 37 79  2  0  0  0  0
 38 41  1  0  0  0  0
 39 52  1  0  0  0  0
 40 65  1  0  0  0  0
 41 44  1  0  0  0  0
 42 45  1  0  0  0  0
 42 48  1  0  0  0  0
 43 46  1  0  0  0  0
 43 47  1  0  0  0  0
 44 50  1  0  0  0  0
 45 51  1  0  0  0  0
 46 53  1  0  0  0  0
 47 66  1  0  0  0  0
 48 67  1  0  0  0  0
 49 53  1  0  0  0  0
 49 66  1  0  0  0  0
 50 71  1  0  0  0  0
 51 67  1  0  0  0  0
 52 65  1  0  0  0  0
 53 64  1  0  0  0  0
 54 61  1  0  0  0  0
 55 62  1  0  0  0  0
 56 62  1  0  0  0  0
 57 62  1  0  0  0  0
 58 73  1  0  0  0  0
 59 81  1  0  0  0  0
 60 62  1  0  0  0  0
 60 72  1  0  0  0  0
 61 73  1  0  0  0  0
 63 64  1  0  0  0  0
M  CHG  1  73   1
M  ISO  4  37 100  59 101  67 100  81 101
M  END
> <Batch ID>
0153

> <Smiles>
CNC(C)C(=O)NC(C(=O)N1Cc2cc([101O:1][101CH2:1]C(=O)Nc3csc(C4CCC[100N:0]4[100C:0](=O)N4CCCC(n5nc(-c6ccc(Oc7ccc(F)cc7F)cc6)c(C(N)=O)c5N)C4)c3)ccc2CC1C(=O)NC1CCCc2ccccc21)C(C)(C)C

> <Shape>
0.247

> <Color>
0.074

> <Negative vol penalty>
0.000

$$$$

  -OEChem-04052303303D

 86 94  0     1  0  0  0  0  0999 V2000
  -32.0499  -26.0712   28.8265 C   0  0  0  0  0  0  0  0  0  0  0  0
  -32.4181  -25.5058   27.6098 C   0  0  0  0  0  0  0  0  0  0  0  0
  -23.1807   -9.7248   20.2197 C   0  0  0  0  0  0  0  0  0  0  0  0
  -23.8559  -10.0375   22.5183 C   0  0  0  0  0  0  0  0  0  0  0  0
  -30.7269  -26.4535   29.0442 C   0  0  0  0  0  0  0  0  0  0  0  0
  -31.4632  -25.3214   26.6105 C   0  0  0  0  0  0  0  0  0  0  0  0
  -33.1259  -26.7531   22.0465 C   0  0  0  0  0  0  0  0  0  0  0  0
  -22.4642   -8.5852   20.5852 C   0  0  0  0  0  0  0  0  0  0  0  0
  -23.1393   -8.8980   22.8838 C   0  0  0  0  0  0  0  0  0  0  0  0
  -33.9831  -25.8799   21.3784 C   0  0  0  0  0  0  0  0  0  0  0  0
  -19.9175   -8.0665   23.4748 C   0  0  0  0  0  0  0  0  0  0  0  0
  -19.1200   -8.1428   24.6165 C   0  0  0  0  0  0  0  0  0  0  0  0
  -30.3161  -20.0987   20.7749 C   0  0  0  0  0  0  0  0  0  0  0  0
  -29.2805  -18.2006   21.8528 C   0  0  0  0  0  0  0  0  0  0  0  0
  -32.1323  -25.0906   20.0477 C   0  0  0  0  0  0  0  0  0  0  0  0
  -30.9797  -17.8557   20.1703 C   0  0  0  0  0  0  0  0  0  0  0  0
  -20.3930   -6.3542   25.6253 C   0  0  0  0  0  0  0  0  0  0  0  0
  -23.8766  -10.4509   21.1862 C   0  0  0  0  0  0  0  0  0  0  0  0
  -29.4045  -19.5810   21.6950 C   0  0  0  0  0  0  0  0  0  0  0  0
  -24.1443  -12.9531   20.7680 C   0  0  0  0  0  0  0  0  0  0  0  0
  -29.7573  -26.2826   28.0436 C   0  0  0  0  0  0  0  0  0  0  0  0
  -31.7610  -26.7939   21.7272 C   0  0  0  0  0  0  0  0  0  0  0  0
  -30.1257  -25.7006   26.8156 C   0  0  0  0  0  0  0  0  0  0  0  0
  -31.2603  -25.9671   20.7115 C   0  0  0  0  0  0  0  0  0  0  0  0
  -31.1036  -19.2360   20.0125 C   0  0  0  0  0  0  0  0  0  0  0  0
  -30.0681  -17.3380   21.0904 C   0  0  0  0  0  0  0  0  0  0  0  0
  -22.4435   -8.1718   21.9172 C   0  0  0  0  0  0  0  0  0  0  0  0
  -33.4858  -25.0464   20.3808 C   0  0  0  0  0  0  0  0  0  0  0  0
  -20.9528   -7.1340   23.4082 C   0  0  0  0  0  0  0  0  0  0  0  0
  -19.3577   -7.2867   25.6918 C   0  0  0  0  0  0  0  0  0  0  0  0
  -21.1905   -6.2779   24.4835 C   0  0  0  0  0  0  0  0  0  0  0  0
  -24.6174  -11.6279   20.8092 C   0  0  0  0  0  0  0  0  0  0  0  0
  -25.2253  -13.6907   20.3510 C   0  0  0  0  0  0  0  0  0  0  0  0
  -33.2107  -19.9867   19.5409 C   0  0  0  0  0  0  0  0  0  0  0  0
  -28.5872  -20.4751   22.4849 C   0  0  0  0  0  0  0  0  0  0  0  0
  -22.8441  -13.4711   21.0790 C   0  0  0  0  0  0  0  0  0  0  0  0
  -29.0682  -26.2107   23.3121 C   0  0  0  0  0  0  0  0  0  0  0  0
  -27.6870  -27.3260   20.5972 C   0  0  0  0  0  0  0  0  0  0  0  0
  -27.9332  -27.8833   17.2393 C   0  0  0  0  0  0  0  0  0  0  0  0
  -30.6466  -14.9413   20.5731 C   0  0  0  0  0  0  0  0  0  0  0  0
  -28.3300  -26.6677   28.3424 C   0  0  0  0  0  0  0  0  0  0  0  0
  -30.8545  -27.7606   22.4387 C   0  0  0  0  0  0  0  0  0  0  0  0
  -29.8069  -25.9870   20.3170 C   0  0  0  0  0  0  0  0  0  0  0  0
  -27.4565  -26.7829   27.0959 C   0  0  0  0  0  0  0  0  0  0  0  0
  -29.6945  -12.2195   18.4844 C   0  0  0  0  0  0  0  0  0  0  0  0
  -27.6703  -25.5811   26.1812 C   0  0  0  0  0  0  0  0  0  0  0  0
  -28.2498  -11.9320   18.8997 C   0  0  0  0  0  0  0  0  0  0  0  0
  -30.5576  -12.6249   19.6779 C   0  0  0  0  0  0  0  0  0  0  0  0
  -28.5801  -13.4446   20.8971 C   0  0  0  0  0  0  0  0  0  0  0  0
  -29.1238  -25.5072   25.6981 C   0  0  1  0  0  0  0  0  0  0  0  0
  -29.3858  -27.3512   22.3869 C   0  0  1  0  0  0  0  0  0  0  0  0
  -27.6567  -13.0952   19.7186 C   0  0  2  0  0  0  0  0  0  0  0  0
  -35.4045  -19.5100   18.5520 C   0  0  0  0  0  0  0  0  0  0  0  0
  -26.6281  -28.7728   15.2892 C   0  0  0  0  0  0  0  0  0  0  0  0
  -26.0516  -24.7513   20.5204 C   0  0  0  0  0  0  0  0  0  0  0  0
  -25.5040  -25.2527   18.1294 C   0  0  0  0  0  0  0  0  0  0  0  0
  -24.7727  -26.8175   19.9292 C   0  0  0  0  0  0  0  0  0  0  0  0
  -29.9129  -30.0266   16.7432 C   0  0  0  0  0  0  0  0  0  0  0  0
  -34.8183  -21.8804   19.1741 C   0  0  0  0  0  0  0  0  0  0  0  0
  -33.7550  -22.9748   19.2442 C   0  0  0  0  0  0  0  0  0  1  0  0
  -34.2838  -20.5443   18.6343 C   0  0  2  0  0  0  0  0  0  0  0  0
  -27.2195  -26.7056   19.3028 C   0  0  1  0  0  0  0  0  0  0  0  0
  -27.6177  -29.1050   16.3952 C   0  0  2  0  0  0  0  0  0  0  0  0
  -25.9140  -25.8798   19.4790 C   0  0  0  0  0  0  0  0  0  0  0  0
  -25.8990  -11.5263   20.4471 N   0  0  0  0  0  0  0  0  0  0  0  0
  -32.0218  -19.7577   19.0859 N   0  0  0  0  0  0  0  0  0  0  0  0
  -26.2405  -12.7972   20.1743 N   0  0  0  0  0  0  0  0  0  0  0  0
  -28.9594  -26.9449   21.0462 N   0  0  0  0  0  0  0  0  0  0  0  0
  -29.9354  -13.7345   20.4034 N   0  0  0  0  0  0  0  0  0  0  0  0
  -25.3970  -15.0100   20.1218 N   0  0  0  0  0  0  0  0  0  0  0  0
  -28.6984  -21.8062   22.3399 N   0  0  0  0  0  0  0  0  0  0  0  0
  -21.8491  -12.5748   21.4924 N   0  0  0  0  0  0  0  0  0  0  0  0
  -29.9415  -15.9357   21.2502 N   0  0  0  0  0  0  0  0  0  0  0  0
  -29.3540  -26.4669   24.6396 N   0  0  0  0  0  0  0  0  0  0  0  0
  -27.1103  -27.7984   18.3424 N   0  0  0  0  0  0  0  0  0  0  0  0
  -27.7049  -19.9861   23.3724 N   0  3  0  0  0  0  0  0  0  0  0  0
  -28.8610  -29.6372   15.7692 N   0  3  0  0  0  0  0  0  0  0  0  0
  -22.5680  -14.6905   20.9770 O   0  0  0  0  0  0  0  0  0  0  0  0
  -28.5972  -25.1756   22.8557 O   0  0  0  0  0  0  0  0  0  0  0  0
  -26.9533  -28.1251   21.1845 O   0  0  0  0  0  0  0  0  0  0  0  0
  -28.8184  -27.0824   16.9472 O   0  0  0  0  0  0  0  0  0  0  0  0
  -31.7862  -15.0914   20.1251 O   0  0  0  0  0  0  0  0  0  0  0  0
  -21.7442   -7.0600   22.2743 O   0  0  0  0  0  0  0  0  0  0  0  0
  -34.3203  -24.1926   19.7276 O   0  0  0  0  0  0  0  0  0  1  0  0
  -18.5927   -7.3611   26.7888 F   0  0  0  0  0  0  0  0  0  0  0  0
  -22.1844   -5.3808   24.4258 F   0  0  0  0  0  0  0  0  0  0  0  0
  1  2  1  0  0  0  0
  1  5  2  0  0  0  0
  2  6  2  0  0  0  0
  3  8  2  0  0  0  0
  3 18  1  0  0  0  0
  4  9  1  0  0  0  0
  4 18  2  0  0  0  0
  5 21  1  0  0  0  0
  6 23  1  0  0  0  0
  7 10  2  0  0  0  0
  7 22  1  0  0  0  0
  8 27  1  0  0  0  0
  9 27  2  0  0  0  0
 10 28  1  0  0  0  0
 11 12  2  0  0  0  0
 11 29  1  0  0  0  0
 12 30  1  0  0  0  0
 13 19  1  0  0  0  0
 13 25  2  0  0  0  0
 14 19  2  0  0  0  0
 14 26  1  0  0  0  0
 15 24  1  0  0  0  0
 15 28  2  0  0  0  0
 16 25  1  0  0  0  0
 16 26  2  0  0  0  0
 17 30  2  0  0  0  0
 17 31  1  0  0  0  0
 18 32  1  0  0  0  0
 19 35  1  0  0  0  0
 20 32  1  0  0  0  0
 20 33  2  0  0  0  0
 20 36  1  0  0  0  0
 21 23  2  0  0  0  0
 21 41  1  0  0  0  0
 22 24  2  0  0  0  0
 22 42  1  0  0  0  0
 23 50  1  0  0  0  0
 24 43  1  0  0  0  0
 25 66  1  0  0  0  0
 26 73  1  0  0  0  0
 27 83  1  0  0  0  0
 28 84  1  0  0  0  0
 29 31  2  0  0  0  0
 29 83  1  0  0  0  0
 30 85  1  0  0  0  0
 31 86  1  0  0  0  0
 32 65  2  0  0  0  0
 33 67  1  0  0  0  0
 33 70  1  0  0  0  0
 34 61  1  0  0  0  0
 34 66  2  0  0  0  0
 35 71  1  0  0  0  0
 35 76  2  0  0  0  0
 36 72  1  0  0  0  0
 36 78  2  0  0  0  0
 37 51  1  0  0  0  0
 37 74  1  0  0  0  0
 37 79  2  0  0  0  0
 38 62  1  0  0  0  0
 38 68  1  0  0  0  0
 38 80  2  0  0  0  0
 39 63  1  0  0  0  0
 39 75  1  0  0  0  0
 39 81  2  0  0  0  0
 40 69  1  0  0  0  0
 40 73  1  0  0  0  0
 40 82  2  0  0  0  0
 41 44  1  0  0  0  0
 42 51  1  0  0  0  0
 43 68  1  0  0  0  0
 44 46  1  0  0  0  0
 45 47  1  0  0  0  0
 45 48  1  0  0  0  0
 46 50  1  0  0  0  0
 47 52  1  0  0  0  0
 48 69  1  0  0  0  0
 49 52  1  0  0  0  0
 49 69  1  0  0  0  0
 50 74  1  0  0  0  0
 51 68  1  0  0  0  0
 52 67  1  0  0  0  0
 53 61  1  0  0  0  0
 54 63  1  0  0  0  0
 55 64  1  0  0  0  0
 56 64  1  0  0  0  0
 57 64  1  0  0  0  0
 58 77  1  0  0  0  0
 59 60  1  0  0  0  0
 59 61  1  0  0  0  0
 60 84  1  0  0  0  0
 62 64  1  0  0  0  0
 62 75  1  0  0  0  0
 63 77  1  0  0  0  0
 65 67  1  0  0  0  0
M  CHG  2  76   1  77   1
M  ISO  4  40 100  60 101  73 100  84 101
M  END
> <Batch ID>
0153

> <Smiles>
CNC(C)C(=O)NC(C(=O)N1Cc2cc([101O:1][101CH2:1]CC(C)=CNc3cc([100NH:0][100C:0](=O)N4CCCC(n5nc(-c6ccc(Oc7ccc(F)cc7F)cc6)c(C(N)=O)c5N)C4)cc(C(=N)N)c3)ccc2CC1C(=O)NC1CCCc2ccccc21)C(C)(C)C

> <Shape>
0.238

> <Color>
0.167

> <Negative vol penalty>
0.000

$$$$

  -OEChem-04052303303D

 82 91  0     1  0  0  0  0  0999 V2000
  -26.0671  -32.2666   30.7487 C   0  0  0  0  0  0  0  0  0  0  0  0
  -26.6395  -31.0352   30.4464 C   0  0  0  0  0  0  0  0  0  0  0  0
  -23.0798   -9.8607   19.9431 C   0  0  0  0  0  0  0  0  0  0  0  0
  -23.8341   -9.8767   22.2382 C   0  0  0  0  0  0  0  0  0  0  0  0
  -25.4319  -33.0029   29.7496 C   0  0  0  0  0  0  0  0  0  0  0  0
  -26.5760  -30.5388   29.1448 C   0  0  0  0  0  0  0  0  0  0  0  0
  -30.8251  -27.1957   26.2683 C   0  0  0  0  0  0  0  0  0  0  0  0
  -22.3370   -8.7074   20.1952 C   0  0  0  0  0  0  0  0  0  0  0  0
  -23.0912   -8.7234   22.4904 C   0  0  0  0  0  0  0  0  0  0  0  0
  -30.9498  -25.8245   26.0491 C   0  0  0  0  0  0  0  0  0  0  0  0
  -19.8627   -7.9232   23.0878 C   0  0  0  0  0  0  0  0  0  0  0  0
  -19.1029   -7.8863   24.2570 C   0  0  0  0  0  0  0  0  0  0  0  0
  -29.9439  -26.0872   23.8724 C   0  0  0  0  0  0  0  0  0  0  0  0
  -20.3452   -5.9531   25.0032 C   0  0  0  0  0  0  0  0  0  0  0  0
  -31.7643  -17.6042   21.7366 C   0  0  0  0  0  0  0  0  0  0  0  0
  -23.8285  -10.4453   20.9646 C   0  0  0  0  0  0  0  0  0  0  0  0
  -24.1671  -12.9705   20.8366 C   0  0  0  0  0  0  0  0  0  0  0  0
  -25.3691  -32.5198   28.4331 C   0  0  0  0  0  0  0  0  0  0  0  0
  -30.2479  -28.0227   25.2940 C   0  0  0  0  0  0  0  0  0  0  0  0
  -25.9382  -31.2688   28.1274 C   0  0  0  0  0  0  0  0  0  0  0  0
  -29.8154  -27.4689   24.0806 C   0  0  0  0  0  0  0  0  0  0  0  0
  -22.3426   -8.1387   21.4689 C   0  0  0  0  0  0  0  0  0  0  0  0
  -30.5065  -25.2696   24.8522 C   0  0  0  0  0  0  0  0  0  0  0  0
  -20.8636   -6.9750   22.8763 C   0  0  0  0  0  0  0  0  0  0  0  0
  -19.3442   -6.9013   25.2147 C   0  0  0  0  0  0  0  0  0  0  0  0
  -21.1049   -5.9900   23.8340 C   0  0  0  0  0  0  0  0  0  0  0  0
  -24.5965  -11.6364   20.7046 C   0  0  0  0  0  0  0  0  0  0  0  0
  -25.2591  -13.7203   20.4734 C   0  0  0  0  0  0  0  0  0  0  0  0
  -30.5746  -16.9458   21.9256 C   0  0  0  0  0  0  0  0  0  0  0  0
  -30.5612  -18.8156   22.9646 C   0  0  0  0  0  0  0  0  0  0  0  0
  -29.6032  -21.7955   24.8551 C   0  0  0  0  0  0  0  0  0  0  0  0
  -29.5934  -23.1227   25.0189 C   0  0  0  0  0  0  0  0  0  1  0  0
  -22.8949  -13.4860   21.2506 C   0  0  0  0  0  0  0  0  0  0  0  0
  -27.6805  -29.8928   25.1738 C   0  0  0  0  0  0  0  0  0  0  0  0
  -28.8966  -30.7167   22.2816 C   0  0  0  0  0  0  0  0  0  0  0  0
  -30.8733  -29.8857   19.6266 C   0  0  0  0  0  0  0  0  0  0  0  0
  -30.7234  -14.7739   20.6578 C   0  0  0  0  0  0  0  0  0  0  0  0
  -24.6305  -33.3297   27.3971 C   0  0  0  0  0  0  0  0  0  0  0  0
  -30.1451  -29.5038   25.5349 C   0  0  0  0  0  0  0  0  0  0  0  0
  -29.2072  -28.3164   22.9942 C   0  0  0  0  0  0  0  0  0  0  0  0
  -28.4982  -20.8708   25.2576 C   0  0  0  0  0  0  0  0  0  0  0  0
  -30.6691  -21.0257   24.1348 C   0  0  0  0  0  0  0  0  0  0  0  0
  -24.9340  -32.9055   25.9624 C   0  0  0  0  0  0  0  0  0  0  0  0
  -29.6181  -12.3505   18.2951 C   0  0  0  0  0  0  0  0  0  0  0  0
  -24.8664  -31.3875   25.8290 C   0  0  0  0  0  0  0  0  0  0  0  0
  -28.1778  -12.0584   18.7222 C   0  0  0  0  0  0  0  0  0  0  0  0
  -28.6075  -19.7450   24.2331 C   0  0  0  0  0  0  0  0  0  0  0  0
  -30.5300  -12.5847   19.4982 C   0  0  0  0  0  0  0  0  0  0  0  0
  -28.6187  -13.3112   20.8723 C   0  0  0  0  0  0  0  0  0  0  0  0
  -25.9116  -30.7081   26.7221 C   0  0  1  0  0  0  0  0  0  0  0  0
  -29.0722  -30.1747   24.6827 C   0  0  1  0  0  0  0  0  0  0  0  0
  -27.6489  -13.1326   19.6928 C   0  0  2  0  0  0  0  0  0  0  0  0
  -31.6400  -30.7441   17.3967 C   0  0  0  0  0  0  0  0  0  0  0  0
  -26.1837  -30.0075   21.0787 C   0  0  0  0  0  0  0  0  0  0  0  0
  -27.2727  -29.9636   18.8247 C   0  0  0  0  0  0  0  0  0  0  0  0
  -27.2291  -32.0791   20.1459 C   0  0  0  0  0  0  0  0  0  0  0  0
  -33.7088  -29.8935   20.4744 C   0  0  0  0  0  0  0  0  0  0  0  0
  -28.7505  -30.1951   20.8725 C   0  0  1  0  0  0  0  0  0  0  0  0
  -31.9437  -30.6656   18.8847 C   0  0  2  0  0  0  0  0  0  0  0  0
  -27.3686  -30.5448   20.2515 C   0  0  0  0  0  0  0  0  0  0  0  0
  -31.7497  -18.8019   22.4046 N   0  0  0  0  0  0  0  0  0  0  0  0
  -25.8625  -11.5408   20.2897 N   0  0  0  0  0  0  0  0  0  0  0  0
  -26.2380  -12.8245   20.1578 N   0  0  0  0  0  0  0  0  0  0  0  0
  -29.9909  -19.7858   23.7653 N   0  0  3  0  0  0  0  0  0  0  0  0
  -29.1225  -29.7582   23.2797 N   0  0  0  0  0  0  0  0  0  0  0  0
  -29.9674  -13.6177   20.3707 N   0  0  0  0  0  0  0  0  0  0  0  0
  -25.4678  -15.0517   20.3962 N   0  0  0  0  0  0  0  0  0  0  0  0
  -21.8834  -12.5766   21.5886 N   0  0  0  0  0  0  0  0  0  0  0  0
  -30.0728  -15.7009   21.4715 N   0  0  0  0  0  0  0  0  0  0  0  0
  -27.2241  -30.7925   26.1181 N   0  0  0  0  0  0  0  0  0  0  0  0
  -29.8904  -30.7146   20.1247 N   0  0  0  0  0  0  0  0  0  0  0  0
  -33.2732  -30.0152   19.0593 N   0  3  0  0  0  0  0  0  0  0  0  0
  -22.6568  -14.7165   21.3031 O   0  0  0  0  0  0  0  0  0  0  0  0
  -27.0656  -28.9311   24.7279 O   0  0  0  0  0  0  0  0  0  0  0  0
  -28.8205  -31.9304   22.4881 O   0  0  0  0  0  0  0  0  0  0  0  0
  -30.9040  -28.6631   19.7487 O   0  0  0  0  0  0  0  0  0  0  0  0
  -31.8534  -14.9426   20.1924 O   0  0  0  0  0  0  0  0  0  0  0  0
  -29.7873  -17.7228   22.7205 O   0  0  0  0  0  0  0  0  0  0  0  0
  -21.6176   -7.0135   21.7154 O   0  0  0  0  0  0  0  0  0  0  0  0
  -30.6264  -23.9314   24.6359 O   0  0  0  0  0  0  0  0  0  1  0  0
  -18.6155   -6.8669   26.3381 F   0  0  0  0  0  0  0  0  0  0  0  0
  -22.0660   -5.0772   23.6369 F   0  0  0  0  0  0  0  0  0  0  0  0
  1  2  1  0  0  0  0
  1  5  2  0  0  0  0
  2  6  2  0  0  0  0
  3  8  2  0  0  0  0
  3 16  1  0  0  0  0
  4  9  1  0  0  0  0
  4 16  2  0  0  0  0
  5 18  1  0  0  0  0
  6 20  1  0  0  0  0
  7 10  2  0  0  0  0
  7 19  1  0  0  0  0
  8 22  1  0  0  0  0
  9 22  2  0  0  0  0
 10 23  1  0  0  0  0
 11 12  2  0  0  0  0
 11 24  1  0  0  0  0
 12 25  1  0  0  0  0
 13 21  1  0  0  0  0
 13 23  2  0  0  0  0
 14 25  2  0  0  0  0
 14 26  1  0  0  0  0
 15 29  2  0  0  0  0
 15 61  1  0  0  0  0
 16 27  1  0  0  0  0
 17 27  1  0  0  0  0
 17 28  2  0  0  0  0
 17 33  1  0  0  0  0
 18 20  2  0  0  0  0
 18 38  1  0  0  0  0
 19 21  2  0  0  0  0
 19 39  1  0  0  0  0
 20 50  1  0  0  0  0
 21 40  1  0  0  0  0
 22 79  1  0  0  0  0
 23 80  1  0  0  0  0
 24 26  2  0  0  0  0
 24 79  1  0  0  0  0
 25 81  1  0  0  0  0
 26 82  1  0  0  0  0
 27 62  2  0  0  0  0
 28 63  1  0  0  0  0
 28 67  1  0  0  0  0
 29 69  1  0  0  0  0
 29 78  1  0  0  0  0
 30 61  2  0  0  0  0
 30 64  1  0  0  0  0
 30 78  1  0  0  0  0
 31 32  2  0  0  0  0
 31 41  1  0  0  0  0
 31 42  1  0  0  0  0
 32 80  1  0  0  0  0
 33 68  1  0  0  0  0
 33 73  2  0  0  0  0
 34 51  1  0  0  0  0
 34 70  1  0  0  0  0
 34 74  2  0  0  0  0
 35 58  1  0  0  0  0
 35 65  1  0  0  0  0
 35 75  2  0  0  0  0
 36 59  1  0  0  0  0
 36 71  1  0  0  0  0
 36 76  2  0  0  0  0
 37 66  1  0  0  0  0
 37 69  1  0  0  0  0
 37 77  2  0  0  0  0
 38 43  1  0  0  0  0
 39 51  1  0  0  0  0
 40 65  1  0  0  0  0
 41 47  1  0  0  0  0
 42 64  1  0  0  0  0
 43 45  1  0  0  0  0
 44 46  1  0  0  0  0
 44 48  1  0  0  0  0
 45 50  1  0  0  0  0
 46 52  1  0  0  0  0
 47 64  1  0  0  0  0
 48 66  1  0  0  0  0
 49 52  1  0  0  0  0
 49 66  1  0  0  0  0
 50 70  1  0  0  0  0
 51 65  1  0  0  0  0
 52 63  1  0  0  0  0
 53 59  1  0  0  0  0
 54 60  1  0  0  0  0
 55 60  1  0  0  0  0
 56 60  1  0  0  0  0
 57 72  1  0  0  0  0
 58 60  1  0  0  0  0
 58 71  1  0  0  0  0
 59 72  1  0  0  0  0
 62 63  1  0  0  0  0
M  CHG  1  72   1
M  ISO  4  32 101  37 100  69 100  80 101
M  END
> <Batch ID>
0153

> <Smiles>
CNC(C)C(=O)NC(C(=O)N1Cc2cc([101O:1][101CH:1]=C3CCN(c4ncc([100NH:0][100C:0](=O)N5CCCC(n6nc(-c7ccc(Oc8ccc(F)cc8F)cc7)c(C(N)=O)c6N)C5)o4)C3)ccc2CC1C(=O)NC1CCCc2ccccc21)C(C)(C)C

> <Shape>
0.239

> <Color>
0.191

> <Negative vol penalty>
0.000

$$$$

  -OEChem-04052303303D

 85 93  0     1  0  0  0  0  0999 V2000
  -23.1402   -7.9783   22.1024 C   0  0  0  0  0  0  0  0  0  0  0  0
  -23.9938   -8.8503   21.4343 C   0  0  0  0  0  0  0  0  0  0  0  0
  -22.2393  -28.6104   19.4747 C   0  0  0  0  0  0  0  0  0  0  0  0
  -22.7365  -28.0461   21.7707 C   0  0  0  0  0  0  0  0  0  0  0  0
  -21.8353   -8.3711   22.3969 C   0  0  0  0  0  0  0  0  0  0  0  0
  -23.5426  -10.1153   21.0594 C   0  0  0  0  0  0  0  0  0  0  0  0
  -26.9015  -13.7613   22.0937 C   0  0  0  0  0  0  0  0  0  0  0  0
  -33.6983  -21.0142   18.0717 C   0  0  0  0  0  0  0  0  0  0  0  0
  -33.4961  -19.6341   18.0765 C   0  0  0  0  0  0  0  0  0  0  0  0
  -20.8780  -28.4425   19.7283 C   0  0  0  0  0  0  0  0  0  0  0  0
  -21.3752  -27.8783   22.0243 C   0  0  0  0  0  0  0  0  0  0  0  0
  -27.9823  -13.8969   21.2235 C   0  0  0  0  0  0  0  0  0  0  0  0
  -18.6931  -29.8461   22.6198 C   0  0  0  0  0  0  0  0  0  0  0  0
  -18.1789  -30.4082   23.7882 C   0  0  0  0  0  0  0  0  0  0  0  0
  -31.5718  -19.9210   19.5090 C   0  0  0  0  0  0  0  0  0  0  0  0
  -26.8695  -15.7416   20.1384 C   0  0  0  0  0  0  0  0  0  0  0  0
  -17.4909  -28.2174   24.5394 C   0  0  0  0  0  0  0  0  0  0  0  0
  -23.1686  -28.4121   20.4959 C   0  0  0  0  0  0  0  0  0  0  0  0
  -31.7741  -21.3012   19.5042 C   0  0  0  0  0  0  0  0  0  0  0  0
  -25.3244  -29.7694   20.3635 C   0  0  0  0  0  0  0  0  0  0  0  0
  -21.3709   -9.6452   22.0340 C   0  0  0  0  0  0  0  0  0  0  0  0
  -25.7899  -14.6093   21.9856 C   0  0  0  0  0  0  0  0  0  0  0  0
  -22.2298  -10.5250   21.3482 C   0  0  0  0  0  0  0  0  0  0  0  0
  -25.7770  -15.6164   21.0101 C   0  0  0  0  0  0  0  0  0  0  0  0
  -32.8373  -21.8477   18.7856 C   0  0  0  0  0  0  0  0  0  0  0  0
  -32.4328  -19.0875   18.7951 C   0  0  0  0  0  0  0  0  0  0  0  0
  -20.4459  -28.0765   21.0030 C   0  0  0  0  0  0  0  0  0  0  0  0
  -27.9652  -14.8853   20.2438 C   0  0  0  0  0  0  0  0  0  0  0  0
  -18.6060  -28.4696   22.4111 C   0  0  0  0  0  0  0  0  0  0  0  0
  -17.5779  -29.5939   24.7480 C   0  0  0  0  0  0  0  0  0  0  0  0
  -18.0050  -27.6553   23.3709 C   0  0  0  0  0  0  0  0  0  0  0  0
  -24.5750  -28.5848   20.2345 C   0  0  0  0  0  0  0  0  0  0  0  0
  -26.5994  -29.4104   20.0001 C   0  0  0  0  0  0  0  0  0  0  0  0
  -30.8505  -22.1670   20.2668 C   0  0  0  0  0  0  0  0  0  0  0  0
  -24.9056  -31.0774   20.7752 C   0  0  0  0  0  0  0  0  0  0  0  0
  -22.7003  -14.1899   21.3673 C   0  0  0  0  0  0  0  0  0  0  0  0
  -22.5335  -17.3569   22.0488 C   0  0  0  0  0  0  0  0  0  0  0  0
  -31.2262  -16.9779   19.4567 C   0  0  0  0  0  0  0  0  0  0  0  0
  -24.1292  -20.3677   22.2383 C   0  0  0  0  0  0  0  0  0  0  0  0
  -29.2137  -24.0342   20.1622 C   0  0  0  0  0  0  0  0  0  0  0  0
  -19.9374  -10.0074   22.3320 C   0  0  0  0  0  0  0  0  0  0  0  0
  -24.6437  -14.4674   22.9492 C   0  0  0  0  0  0  0  0  0  0  0  0
  -24.6164  -16.5654   20.8654 C   0  0  0  0  0  0  0  0  0  0  0  0
  -19.6541  -11.5041   22.2323 C   0  0  0  0  0  0  0  0  0  0  0  0
  -29.0082  -26.3447   17.2678 C   0  0  0  0  0  0  0  0  0  0  0  0
  -20.2603  -12.0783   20.9558 C   0  0  0  0  0  0  0  0  0  0  0  0
  -27.8498  -27.2380   17.6977 C   0  0  0  0  0  0  0  0  0  0  0  0
  -28.8625  -24.9171   17.7931 C   0  0  0  0  0  0  0  0  0  0  0  0
  -27.5092  -25.7488   19.7043 C   0  0  0  0  0  0  0  0  0  0  0  0
  -21.7850  -11.9148   20.9470 C   0  0  1  0  0  0  0  0  0  0  0  0
  -23.3397  -15.0540   22.4172 C   0  0  1  0  0  0  0  0  0  0  0  0
  -27.6789  -27.1970   19.2230 C   0  0  2  0  0  0  0  0  0  0  0  0
  -33.0741  -23.3223   18.7643 C   0  0  0  0  0  0  0  0  0  0  0  0
  -23.7220  -22.7817   22.7895 C   0  0  0  0  0  0  0  0  0  0  0  0
  -21.1489  -17.7357   19.3563 C   0  0  0  0  0  0  0  0  0  0  0  0
  -21.6241  -20.1873   19.5354 C   0  0  0  0  0  0  0  0  0  0  0  0
  -20.1710  -19.0733   21.2295 C   0  0  0  0  0  0  0  0  0  0  0  0
  -26.0761  -20.3075   24.4665 C   0  0  0  0  0  0  0  0  0  0  0  0
  -31.3720  -15.4831   19.1958 C   0  0  0  0  0  0  0  0  0  0  0  0
  -30.3046  -14.6488   19.8876 C   0  0  0  0  0  0  0  0  0  1  0  0
  -22.6601  -18.6308   21.2486 C   0  0  1  0  0  0  0  0  0  0  0  0
  -24.1565  -21.4266   23.3257 C   0  0  2  0  0  0  0  0  0  0  0  0
  -21.4222  -18.8878   20.3437 C   0  0  0  0  0  0  0  0  0  0  0  0
  -25.3123  -27.5506   19.8212 N   0  0  0  0  0  0  0  0  0  0  0  0
  -26.5384  -28.0843   19.6873 N   0  0  0  0  0  0  0  0  0  0  0  0
  -23.5168  -16.3824   21.8271 N   0  0  0  0  0  0  0  0  0  0  0  0
  -28.5988  -24.8843   19.2382 N   0  0  0  0  0  0  0  0  0  0  0  0
  -27.7555  -30.1029   19.9206 N   0  0  0  0  0  0  0  0  0  0  0  0
  -23.5596  -31.2722   21.1138 N   0  0  0  0  0  0  0  0  0  0  0  0
  -32.2280  -17.6872   18.7996 N   0  0  0  0  0  0  0  0  0  0  0  0
  -30.1596  -23.0991   19.5923 N   0  0  0  0  0  0  0  0  0  0  0  0
  -22.4049  -12.9098   21.7956 N   0  0  0  0  0  0  0  0  0  0  0  0
  -22.9268  -19.6933   22.2122 N   0  0  0  0  0  0  0  0  0  0  0  0
  -30.7659  -21.9706   21.5824 N   0  3  0  0  0  0  0  0  0  0  0  0
  -25.5318  -21.5609   23.8836 N   0  3  0  0  0  0  0  0  0  0  0  0
  -25.6980  -32.0486   20.8251 O   0  0  0  0  0  0  0  0  0  0  0  0
  -22.4892  -14.6510   20.2517 O   0  0  0  0  0  0  0  0  0  0  0  0
  -21.6006  -17.2341   22.8465 O   0  0  0  0  0  0  0  0  0  0  0  0
  -30.3294  -17.4337   20.1583 O   0  0  0  0  0  0  0  0  0  0  0  0
  -25.0782  -20.1621   21.4848 O   0  0  0  0  0  0  0  0  0  0  0  0
  -28.9906  -24.0101   21.3679 O   0  0  0  0  0  0  0  0  0  0  0  0
  -19.1176  -27.9129   21.2509 O   0  0  0  0  0  0  0  0  0  0  0  0
  -29.0185  -15.0193   19.3927 O   0  0  0  0  0  0  0  0  0  1  0  0
  -17.0856  -30.1337   25.8707 F   0  0  0  0  0  0  0  0  0  0  0  0
  -17.9195  -26.3321   23.1766 F   0  0  0  0  0  0  0  0  0  0  0  0
  1  2  1  0  0  0  0
  1  5  2  0  0  0  0
  2  6  2  0  0  0  0
  3 10  2  0  0  0  0
  3 18  1  0  0  0  0
  4 11  1  0  0  0  0
  4 18  2  0  0  0  0
  5 21  1  0  0  0  0
  6 23  1  0  0  0  0
  7 12  2  0  0  0  0
  7 22  1  0  0  0  0
  8  9  2  0  0  0  0
  8 25  1  0  0  0  0
  9 26  1  0  0  0  0
 10 27  1  0  0  0  0
 11 27  2  0  0  0  0
 12 28  1  0  0  0  0
 13 14  2  0  0  0  0
 13 29  1  0  0  0  0
 14 30  1  0  0  0  0
 15 19  1  0  0  0  0
 15 26  2  0  0  0  0
 16 24  1  0  0  0  0
 16 28  2  0  0  0  0
 17 30  2  0  0  0  0
 17 31  1  0  0  0  0
 18 32  1  0  0  0  0
 19 25  2  0  0  0  0
 19 34  1  0  0  0  0
 20 32  1  0  0  0  0
 20 33  2  0  0  0  0
 20 35  1  0  0  0  0
 21 23  2  0  0  0  0
 21 41  1  0  0  0  0
 22 24  2  0  0  0  0
 22 42  1  0  0  0  0
 23 50  1  0  0  0  0
 24 43  1  0  0  0  0
 25 53  1  0  0  0  0
 26 70  1  0  0  0  0
 27 82  1  0  0  0  0
 28 83  1  0  0  0  0
 29 31  2  0  0  0  0
 29 82  1  0  0  0  0
 30 84  1  0  0  0  0
 31 85  1  0  0  0  0
 32 64  2  0  0  0  0
 33 65  1  0  0  0  0
 33 68  1  0  0  0  0
 34 71  1  0  0  0  0
 34 74  2  0  0  0  0
 35 69  1  0  0  0  0
 35 76  2  0  0  0  0
 36 51  1  0  0  0  0
 36 72  1  0  0  0  0
 36 77  2  0  0  0  0
 37 61  1  0  0  0  0
 37 66  1  0  0  0  0
 37 78  2  0  0  0  0
 38 59  1  0  0  0  0
 38 70  1  0  0  0  0
 38 79  2  0  0  0  0
 39 62  1  0  0  0  0
 39 73  1  0  0  0  0
 39 80  2  0  0  0  0
 40 67  1  0  0  0  0
 40 71  1  0  0  0  0
 40 81  2  0  0  0  0
 41 44  1  0  0  0  0
 42 51  1  0  0  0  0
 43 66  1  0  0  0  0
 44 46  1  0  0  0  0
 45 47  1  0  0  0  0
 45 48  1  0  0  0  0
 46 50  1  0  0  0  0
 47 52  1  0  0  0  0
 48 67  1  0  0  0  0
 49 52  1  0  0  0  0
 49 67  1  0  0  0  0
 50 72  1  0  0  0  0
 51 66  1  0  0  0  0
 52 65  1  0  0  0  0
 54 62  1  0  0  0  0
 55 63  1  0  0  0  0
 56 63  1  0  0  0  0
 57 63  1  0  0  0  0
 58 75  1  0  0  0  0
 59 60  1  0  0  0  0
 60 83  1  0  0  0  0
 61 63  1  0  0  0  0
 61 73  1  0  0  0  0
 62 75  1  0  0  0  0
 64 65  1  0  0  0  0
M  CHG  2  74   1  75   1
M  ISO  4  40 100  60 101  71 100  83 101
M  END
> <Batch ID>
0153

> <Smiles>
CNC(C)C(=O)NC(C(=O)N1Cc2cc([101O:1][101CH2:1]CC(=O)Nc3ccc(C)c(C(=N)[100NH:0][100C:0](=O)N4CCCC(n5nc(-c6ccc(Oc7ccc(F)cc7F)cc6)c(C(N)=O)c5N)C4)c3)ccc2CC1C(=O)NC1CCCc2ccccc21)C(C)(C)C

> <Shape>
0.230

> <Color>
0.090

> <Negative vol penalty>
0.000

$$$$

  -OEChem-04052303303D

 81 89  0     1  0  0  0  0  0999 V2000
  -26.7801  -34.2424   24.8115 C   0  0  0  0  0  0  0  0  0  0  0  0
  -27.6266  -33.5924   23.9192 C   0  0  0  0  0  0  0  0  0  0  0  0
  -22.8999  -10.1682   19.9057 C   0  0  0  0  0  0  0  0  0  0  0  0
  -23.8252   -9.7900   22.1053 C   0  0  0  0  0  0  0  0  0  0  0  0
  -25.7573  -33.5348   25.4417 C   0  0  0  0  0  0  0  0  0  0  0  0
  -27.4515  -32.2340   23.6574 C   0  0  0  0  0  0  0  0  0  0  0  0
  -28.1532  -27.4274   18.3923 C   0  0  0  0  0  0  0  0  0  0  0  0
  -22.0998   -9.0345   20.0474 C   0  0  0  0  0  0  0  0  0  0  0  0
  -23.0250   -8.6563   22.2469 C   0  0  0  0  0  0  0  0  0  0  0  0
  -28.7431  -26.1908   18.1345 C   0  0  0  0  0  0  0  0  0  0  0  0
  -23.0475   -5.4436   21.1939 C   0  0  0  0  0  0  0  0  0  0  0  0
  -23.6430   -4.2896   21.7029 C   0  0  0  0  0  0  0  0  0  0  0  0
  -26.8930  -25.0884   19.2212 C   0  0  0  0  0  0  0  0  0  0  0  0
  -22.0875   -4.3024   23.5515 C   0  0  0  0  0  0  0  0  0  0  0  0
  -31.3895  -19.2642   20.0365 C   0  0  0  0  0  0  0  0  0  0  0  0
  -23.7627  -10.5460   20.9347 C   0  0  0  0  0  0  0  0  0  0  0  0
  -24.2657  -13.0374   21.1524 C   0  0  0  0  0  0  0  0  0  0  0  0
  -25.5636  -32.1692   25.1802 C   0  0  0  0  0  0  0  0  0  0  0  0
  -26.9320  -27.5045   19.0774 C   0  0  0  0  0  0  0  0  0  0  0  0
  -26.4261  -31.5071   24.2857 C   0  0  0  0  0  0  0  0  0  0  0  0
  -26.2884  -26.3271   19.4843 C   0  0  0  0  0  0  0  0  0  0  0  0
  -22.1622   -8.2786   21.2180 C   0  0  0  0  0  0  0  0  0  0  0  0
  -28.1144  -25.0211   18.5515 C   0  0  0  0  0  0  0  0  0  0  0  0
  -21.9720   -6.0271   21.8637 C   0  0  0  0  0  0  0  0  0  0  0  0
  -23.1630   -3.7189   22.8817 C   0  0  0  0  0  0  0  0  0  0  0  0
  -21.4920   -5.4565   23.0425 C   0  0  0  0  0  0  0  0  0  0  0  0
  -24.5899  -11.7166   20.7887 C   0  0  0  0  0  0  0  0  0  0  0  0
  -25.3766  -13.7698   20.8120 C   0  0  0  0  0  0  0  0  0  0  0  0
  -30.1425  -19.6453   20.4859 C   0  0  0  0  0  0  0  0  0  0  0  0
  -31.0244  -17.6143   21.4346 C   0  0  0  0  0  0  0  0  0  0  0  0
  -23.0675  -13.5558   21.7451 C   0  0  0  0  0  0  0  0  0  0  0  0
  -25.9782  -28.7877   21.8246 C   0  0  0  0  0  0  0  0  0  0  0  0
  -23.0436  -27.8842   20.7785 C   0  0  0  0  0  0  0  0  0  0  0  0
  -29.5809  -21.7789   19.2749 C   0  0  0  0  0  0  0  0  0  0  0  0
  -21.1824  -25.8174   18.8009 C   0  0  0  0  0  0  0  0  0  0  0  0
  -30.9159  -14.4382   20.6908 C   0  0  0  0  0  0  0  0  0  0  0  0
  -24.4740  -31.4356   25.9214 C   0  0  0  0  0  0  0  0  0  0  0  0
  -26.2956  -28.8448   19.3242 C   0  0  0  0  0  0  0  0  0  0  0  0
  -24.9663  -26.3545   20.2053 C   0  0  0  0  0  0  0  0  0  0  0  0
  -24.1212  -30.0844   25.3048 C   0  0  0  0  0  0  0  0  0  0  0  0
  -29.4463  -12.5046   18.0874 C   0  0  0  0  0  0  0  0  0  0  0  0
  -25.3877  -29.2976   24.9826 C   0  0  0  0  0  0  0  0  0  0  0  0
  -28.0279  -12.2312   18.5909 C   0  0  0  0  0  0  0  0  0  0  0  0
  -30.4621  -12.4916   19.2275 C   0  0  0  0  0  0  0  0  0  0  0  0
  -28.7217  -13.1138   20.8577 C   0  0  0  0  0  0  0  0  0  0  0  0
  -26.2526  -30.0402   23.9569 C   0  0  1  0  0  0  0  0  0  0  0  0
  -25.3033  -28.8308   20.4828 C   0  0  1  0  0  0  0  0  0  0  0  0
  -27.6539  -13.1721   19.7519 C   0  0  2  0  0  0  0  0  0  0  0  0
  -18.8067  -25.2913   18.1871 C   0  0  0  0  0  0  0  0  0  0  0  0
  -22.6813  -26.4310   23.4369 C   0  0  0  0  0  0  0  0  0  0  0  0
  -20.7728  -25.1764   22.4113 C   0  0  0  0  0  0  0  0  0  0  0  0
  -20.6554  -27.6582   22.6342 C   0  0  0  0  0  0  0  0  0  0  0  0
  -21.6427  -26.5027   15.9588 C   0  0  0  0  0  0  0  0  0  0  0  0
  -31.2187  -16.3729   22.2154 C   0  0  0  0  0  0  0  0  0  0  0  0
  -28.4282  -22.7648   19.2346 C   0  0  0  0  0  0  0  0  0  1  0  0
  -22.1983  -26.6403   20.9092 C   0  0  1  0  0  0  0  0  0  0  0  0
  -20.0451  -26.1013   17.8363 C   0  0  2  0  0  0  0  0  0  0  0  0
  -21.6028  -26.4757   22.3360 C   0  0  0  0  0  0  0  0  0  0  0  0
  -31.8970  -18.1000   20.5797 N   0  0  0  0  0  0  0  0  0  0  0  0
  -25.8111  -11.6131   20.2577 N   0  0  0  0  0  0  0  0  0  0  0  0
  -26.2640  -12.8781   20.2852 N   0  0  0  0  0  0  0  0  0  0  0  0
  -24.3873  -27.6896   20.4288 N   0  0  0  0  0  0  0  0  0  0  0  0
  -30.0495  -13.4059   20.2951 N   0  0  0  0  0  0  0  0  0  0  0  0
  -25.6711  -15.0833   20.9147 N   0  0  0  0  0  0  0  0  0  0  0  0
  -22.0236  -12.6650   22.0303 N   0  0  0  0  0  0  0  0  0  0  0  0
  -29.3151  -20.7493   20.1713 N   0  0  0  0  0  0  0  0  0  0  0  0
  -25.7073  -29.8804   22.6259 N   0  0  0  0  0  0  0  0  0  0  0  0
  -21.1985  -26.7129   19.8492 N   0  0  0  0  0  0  0  0  0  0  0  0
  -30.4449  -15.2633   21.7048 N   0  0  0  0  0  0  0  0  0  0  0  0
  -20.4502  -25.7609   16.4432 N   0  3  0  0  0  0  0  0  0  0  0  0
  -22.9203  -14.7754   21.9988 O   0  0  0  0  0  0  0  0  0  0  0  0
  -26.6907  -27.8331   22.1121 O   0  0  0  0  0  0  0  0  0  0  0  0
  -22.5289  -28.9883   20.9724 O   0  0  0  0  0  0  0  0  0  0  0  0
  -30.5820  -21.9321   18.5829 O   0  0  0  0  0  0  0  0  0  0  0  0
  -21.9748  -24.8915   18.6423 O   0  0  0  0  0  0  0  0  0  0  0  0
  -32.0247  -14.6150   20.1748 O   0  0  0  0  0  0  0  0  0  0  0  0
  -21.3814   -7.1724   21.3566 O   0  0  0  0  0  0  0  0  0  0  0  0
  -28.6884  -23.8128   18.3016 O   0  0  0  0  0  0  0  0  0  1  0  0
  -23.7340   -2.6098   23.3696 F   0  0  0  0  0  0  0  0  0  0  0  0
  -20.4584   -6.0118   23.6898 F   0  0  0  0  0  0  0  0  0  0  0  0
  -29.5719  -18.5062   21.6340 S   0  0  0  0  0  0  0  0  0  0  0  0
  1  2  1  0  0  0  0
  1  5  2  0  0  0  0
  2  6  2  0  0  0  0
  3  8  2  0  0  0  0
  3 16  1  0  0  0  0
  4  9  1  0  0  0  0
  4 16  2  0  0  0  0
  5 18  1  0  0  0  0
  6 20  1  0  0  0  0
  7 10  2  0  0  0  0
  7 19  1  0  0  0  0
  8 22  1  0  0  0  0
  9 22  2  0  0  0  0
 10 23  1  0  0  0  0
 11 12  2  0  0  0  0
 11 24  1  0  0  0  0
 12 25  1  0  0  0  0
 13 21  1  0  0  0  0
 13 23  2  0  0  0  0
 14 25  2  0  0  0  0
 14 26  1  0  0  0  0
 15 29  2  0  0  0  0
 15 59  1  0  0  0  0
 16 27  1  0  0  0  0
 17 27  1  0  0  0  0
 17 28  2  0  0  0  0
 17 31  1  0  0  0  0
 18 20  2  0  0  0  0
 18 37  1  0  0  0  0
 19 21  2  0  0  0  0
 19 38  1  0  0  0  0
 20 46  1  0  0  0  0
 21 39  1  0  0  0  0
 22 77  1  0  0  0  0
 23 78  1  0  0  0  0
 24 26  2  0  0  0  0
 24 77  1  0  0  0  0
 25 79  1  0  0  0  0
 26 80  1  0  0  0  0
 27 60  2  0  0  0  0
 28 61  1  0  0  0  0
 28 64  1  0  0  0  0
 29 66  1  0  0  0  0
 29 81  1  0  0  0  0
 30 54  1  0  0  0  0
 30 59  2  0  0  0  0
 30 81  1  0  0  0  0
 31 65  1  0  0  0  0
 31 71  2  0  0  0  0
 32 47  1  0  0  0  0
 32 67  1  0  0  0  0
 32 72  2  0  0  0  0
 33 56  1  0  0  0  0
 33 62  1  0  0  0  0
 33 73  2  0  0  0  0
 34 55  1  0  0  0  0
 34 66  1  0  0  0  0
 34 74  2  0  0  0  0
 35 57  1  0  0  0  0
 35 68  1  0  0  0  0
 35 75  2  0  0  0  0
 36 63  1  0  0  0  0
 36 69  1  0  0  0  0
 36 76  2  0  0  0  0
 37 40  1  0  0  0  0
 38 47  1  0  0  0  0
 39 62  1  0  0  0  0
 40 42  1  0  0  0  0
 41 43  1  0  0  0  0
 41 44  1  0  0  0  0
 42 46  1  0  0  0  0
 43 48  1  0  0  0  0
 44 63  1  0  0  0  0
 45 48  1  0  0  0  0
 45 63  1  0  0  0  0
 46 67  1  0  0  0  0
 47 62  1  0  0  0  0
 48 61  1  0  0  0  0
 49 57  1  0  0  0  0
 50 58  1  0  0  0  0
 51 58  1  0  0  0  0
 52 58  1  0  0  0  0
 53 70  1  0  0  0  0
 54 69  1  0  0  0  0
 55 78  1  0  0  0  0
 56 58  1  0  0  0  0
 56 68  1  0  0  0  0
 57 70  1  0  0  0  0
 60 61  1  0  0  0  0
M  CHG  1  70   1
M  ISO  4  36 100  55 101  69 100  78 101
M  END
> <Batch ID>
0153

> <Smiles>
CNC(C)C(=O)NC(C(=O)N1Cc2cc([101O:1][101CH2:1]C(=O)Nc3cnc(C[100NH:0][100C:0](=O)N4CCCC(n5nc(-c6ccc(Oc7ccc(F)cc7F)cc6)c(C(N)=O)c5N)C4)s3)ccc2CC1C(=O)NC1CCCc2ccccc21)C(C)(C)C

> <Shape>
0.372

> <Color>
0.191

> <Negative vol penalty>
0.000

$$$$

  -OEChem-04052303303D

 82 91  0     1  0  0  0  0  0999 V2000
  -13.5666  -21.1238   22.2255 C   0  0  0  0  0  0  0  0  0  0  0  0
  -14.8269  -20.8025   22.7192 C   0  0  0  0  0  0  0  0  0  0  0  0
  -23.2104   -9.7065   20.1809 C   0  0  0  0  0  0  0  0  0  0  0  0
  -23.4931  -10.2837   22.5099 C   0  0  0  0  0  0  0  0  0  0  0  0
  -13.4298  -22.1262   21.2660 C   0  0  0  0  0  0  0  0  0  0  0  0
  -15.9514  -21.4826   22.2529 C   0  0  0  0  0  0  0  0  0  0  0  0
  -20.9565  -22.9548   25.4603 C   0  0  0  0  0  0  0  0  0  0  0  0
  -22.4172   -8.6191   20.5467 C   0  0  0  0  0  0  0  0  0  0  0  0
  -22.6998   -9.1962   22.8757 C   0  0  0  0  0  0  0  0  0  0  0  0
  -22.2124  -22.3586   25.5650 C   0  0  0  0  0  0  0  0  0  0  0  0
  -19.4068   -8.4470   22.9987 C   0  0  0  0  0  0  0  0  0  0  0  0
  -18.4292   -8.6579   23.9710 C   0  0  0  0  0  0  0  0  0  0  0  0
  -23.0633  -23.8708   23.8891 C   0  0  0  0  0  0  0  0  0  0  0  0
  -28.4872  -18.9521   22.8540 C   0  0  0  0  0  0  0  0  0  0  0  0
  -19.4728   -6.9962   25.3806 C   0  0  0  0  0  0  0  0  0  0  0  0
  -23.7485  -10.5388   21.1626 C   0  0  0  0  0  0  0  0  0  0  0  0
  -24.1389  -12.9745   20.5125 C   0  0  0  0  0  0  0  0  0  0  0  0
  -14.5521  -22.8255   20.7948 C   0  0  0  0  0  0  0  0  0  0  0  0
  -20.7414  -24.0080   24.5598 C   0  0  0  0  0  0  0  0  0  0  0  0
  -15.8296  -22.4943   21.2852 C   0  0  0  0  0  0  0  0  0  0  0  0
  -21.8043  -24.4803   23.7767 C   0  0  0  0  0  0  0  0  0  0  0  0
  -29.4827  -18.3883   22.0815 C   0  0  0  0  0  0  0  0  0  0  0  0
  -22.1619   -8.3639   21.8940 C   0  0  0  0  0  0  0  0  0  0  0  0
  -23.2653  -22.8147   24.7773 C   0  0  0  0  0  0  0  0  0  0  0  0
  -20.4174   -7.5107   23.2173 C   0  0  0  0  0  0  0  0  0  0  0  0
  -18.4622   -7.9325   25.1620 C   0  0  0  0  0  0  0  0  0  0  0  0
  -20.4503   -6.7853   24.4082 C   0  0  0  0  0  0  0  0  0  0  0  0
  -24.5685  -11.6620   20.7854 C   0  0  0  0  0  0  0  0  0  0  0  0
  -29.7703  -19.0566   20.9582 C   0  0  0  0  0  0  0  0  0  0  0  0
  -25.2910  -13.6559   20.2046 C   0  0  0  0  0  0  0  0  0  0  0  0
  -28.0431  -20.1074   22.2085 C   0  0  0  0  0  0  0  0  0  0  0  0
  -22.8166  -13.5284   20.5353 C   0  0  0  0  0  0  0  0  0  0  0  0
  -18.8835  -24.4414   22.0174 C   0  0  0  0  0  0  0  0  0  0  0  0
  -20.0337  -27.4701   22.1785 C   0  0  0  0  0  0  0  0  0  0  0  0
  -26.2439  -21.0372   23.7026 C   0  0  0  0  0  0  0  0  0  0  0  0
  -22.5145  -29.5762   23.2065 C   0  0  0  0  0  0  0  0  0  0  0  0
  -30.6334  -14.8945   21.2074 C   0  0  0  0  0  0  0  0  0  0  0  0
  -14.3598  -23.8686   19.7225 C   0  0  0  0  0  0  0  0  0  0  0  0
  -19.3874  -24.6581   24.4781 C   0  0  0  0  0  0  0  0  0  0  0  0
  -21.6306  -25.6215   22.8093 C   0  0  0  0  0  0  0  0  0  0  0  0
  -30.8273  -18.0865   20.5297 C   0  0  0  0  0  0  0  0  0  0  0  0
  -15.5588  -24.7986   19.5555 C   0  0  0  0  0  0  0  0  0  0  0  0
  -29.9751  -11.9677   19.3068 C   0  0  0  0  0  0  0  0  0  0  0  0
  -16.8552  -23.9959   19.5134 C   0  0  0  0  0  0  0  0  0  0  0  0
  -28.4759  -11.7332   19.5002 C   0  0  0  0  0  0  0  0  0  0  0  0
  -30.6314  -12.5006   20.5786 C   0  0  0  0  0  0  0  0  0  0  0  0
  -28.4989  -13.4686   21.3410 C   0  0  0  0  0  0  0  0  0  0  0  0
  -17.0705  -23.2265   20.8223 C   0  0  1  0  0  0  0  0  0  0  0  0
  -30.4989  -17.3172   21.8561 C   0  0  2  0  0  0  0  0  0  0  0  0
  -19.1517  -25.3834   23.1568 C   0  0  1  0  0  0  0  0  0  0  0  0
  -27.7807  -12.9849   20.0694 C   0  0  2  0  0  0  0  0  0  0  0  0
  -23.1931  -31.9917   23.1598 C   0  0  0  0  0  0  0  0  0  0  0  0
  -20.8548  -27.1803   19.2542 C   0  0  0  0  0  0  0  0  0  0  0  0
  -22.3305  -29.1822   19.5426 C   0  0  0  0  0  0  0  0  0  0  0  0
  -19.8638  -29.3993   19.8445 C   0  0  0  0  0  0  0  0  0  0  0  0
  -22.4817  -29.7626   26.1600 C   0  0  0  0  0  0  0  0  0  0  0  0
  -25.3059  -22.2300   23.7049 C   0  0  0  0  0  0  0  0  0  1  0  0
  -21.2260  -28.1931   21.5999 C   0  0  1  0  0  0  0  0  0  0  0  0
  -22.4685  -30.9051   23.9389 C   0  0  2  0  0  0  0  0  0  0  0  0
  -21.0719  -28.4659   20.0770 C   0  0  0  0  0  0  0  0  0  0  0  0
  -25.8903  -11.5159   20.6617 N   0  0  0  0  0  0  0  0  0  0  0  0
  -26.3013  -12.7454   20.3075 N   0  0  0  0  0  0  0  0  0  0  0  0
  -20.2864  -26.2201   22.7610 N   0  0  0  0  0  0  0  0  0  0  0  0
  -29.9262  -13.6908   21.0610 N   0  0  0  0  0  0  0  0  0  0  0  0
  -25.5284  -14.9390   19.8586 N   0  0  0  0  0  0  0  0  0  0  0  0
  -21.7463  -12.6887   20.8725 N   0  0  0  0  0  0  0  0  0  0  0  0
  -27.0481  -21.0472   22.5681 N   0  0  0  0  0  0  0  0  0  0  0  0
  -17.5499  -24.1160   21.8584 N   0  0  0  0  0  0  0  0  0  0  0  0
  -21.4057  -29.3950   22.4071 N   0  0  0  0  0  0  0  0  0  0  0  0
  -29.8955  -15.9829   21.6612 N   0  0  0  0  0  0  0  0  0  0  0  0
  -23.1093  -30.7806   25.2786 N   0  3  0  0  0  0  0  0  0  0  0  0
  -22.5890  -14.7282   20.2486 O   0  0  0  0  0  0  0  0  0  0  0  0
  -19.8171  -24.0406   21.3322 O   0  0  0  0  0  0  0  0  0  0  0  0
  -18.9204  -27.9983   22.1222 O   0  0  0  0  0  0  0  0  0  0  0  0
  -26.2388  -20.2141   24.6121 O   0  0  0  0  0  0  0  0  0  0  0  0
  -23.4431  -28.7803   23.3283 O   0  0  0  0  0  0  0  0  0  0  0  0
  -31.8366  -15.0016   20.9462 O   0  0  0  0  0  0  0  0  0  0  0  0
  -21.3876   -7.3030   22.2513 O   0  0  0  0  0  0  0  0  0  0  0  0
  -24.4921  -22.2341   24.8771 O   0  0  0  0  0  0  0  0  0  1  0  0
  -17.5242   -8.1362   26.0963 F   0  0  0  0  0  0  0  0  0  0  0  0
  -21.4194   -5.8853   24.6244 F   0  0  0  0  0  0  0  0  0  0  0  0
  -28.8921  -20.4095   20.6984 S   0  0  0  0  0  0  0  0  0  0  0  0
  1  2  1  0  0  0  0
  1  5  2  0  0  0  0
  2  6  2  0  0  0  0
  3  8  2  0  0  0  0
  3 16  1  0  0  0  0
  4  9  1  0  0  0  0
  4 16  2  0  0  0  0
  5 18  1  0  0  0  0
  6 20  1  0  0  0  0
  7 10  2  0  0  0  0
  7 19  1  0  0  0  0
  8 23  1  0  0  0  0
  9 23  2  0  0  0  0
 10 24  1  0  0  0  0
 11 12  2  0  0  0  0
 11 25  1  0  0  0  0
 12 26  1  0  0  0  0
 13 21  1  0  0  0  0
 13 24  2  0  0  0  0
 14 22  1  0  0  0  0
 14 31  2  0  0  0  0
 15 26  2  0  0  0  0
 15 27  1  0  0  0  0
 16 28  1  0  0  0  0
 17 28  1  0  0  0  0
 17 30  2  0  0  0  0
 17 32  1  0  0  0  0
 18 20  2  0  0  0  0
 18 38  1  0  0  0  0
 19 21  2  0  0  0  0
 19 39  1  0  0  0  0
 20 48  1  0  0  0  0
 21 40  1  0  0  0  0
 22 29  2  0  0  0  0
 22 49  1  0  0  0  0
 23 78  1  0  0  0  0
 24 79  1  0  0  0  0
 25 27  2  0  0  0  0
 25 78  1  0  0  0  0
 26 80  1  0  0  0  0
 27 81  1  0  0  0  0
 28 61  2  0  0  0  0
 29 41  1  0  0  0  0
 29 82  1  0  0  0  0
 30 62  1  0  0  0  0
 30 65  1  0  0  0  0
 31 67  1  0  0  0  0
 31 82  1  0  0  0  0
 32 66  1  0  0  0  0
 32 72  2  0  0  0  0
 33 50  1  0  0  0  0
 33 68  1  0  0  0  0
 33 73  2  0  0  0  0
 34 58  1  0  0  0  0
 34 63  1  0  0  0  0
 34 74  2  0  0  0  0
 35 57  1  0  0  0  0
 35 67  1  0  0  0  0
 35 75  2  0  0  0  0
 36 59  1  0  0  0  0
 36 69  1  0  0  0  0
 36 76  2  0  0  0  0
 37 64  1  0  0  0  0
 37 70  1  0  0  0  0
 37 77  2  0  0  0  0
 38 42  1  0  0  0  0
 39 50  1  0  0  0  0
 40 63  1  0  0  0  0
 41 49  1  0  0  0  0
 42 44  1  0  0  0  0
 43 45  1  0  0  0  0
 43 46  1  0  0  0  0
 44 48  1  0  0  0  0
 45 51  1  0  0  0  0
 46 64  1  0  0  0  0
 47 51  1  0  0  0  0
 47 64  1  0  0  0  0
 48 68  1  0  0  0  0
 49 70  1  0  0  0  0
 50 63  1  0  0  0  0
 51 62  1  0  0  0  0
 52 59  1  0  0  0  0
 53 60  1  0  0  0  0
 54 60  1  0  0  0  0
 55 60  1  0  0  0  0
 56 71  1  0  0  0  0
 57 79  1  0  0  0  0
 58 60  1  0  0  0  0
 58 69  1  0  0  0  0
 59 71  1  0  0  0  0
 61 62  1  0  0  0  0
M  CHG  1  71   1
M  ISO  4  37 100  57 101  70 100  79 101
M  END
> <Batch ID>
0153

> <Smiles>
CNC(C)C(=O)NC(C(=O)N1Cc2cc([101O:1][101CH2:1]C(=O)Nc3cc4c(s3)CC4[100NH:0][100C:0](=O)N3CCCC(n4nc(-c5ccc(Oc6ccc(F)cc6F)cc5)c(C(N)=O)c4N)C3)ccc2CC1C(=O)NC1CCCc2ccccc21)C(C)(C)C

> <Shape>
0.237

> <Color>
0.166

> <Negative vol penalty>
0.000

$$$$

  -OEChem-04052303303D

 86 95  0     1  0  0  0  0  0999 V2000
  -18.0485  -26.9606   22.3706 C   0  0  0  0  0  0  0  0  0  0  0  0
  -19.1270  -26.1390   22.6824 C   0  0  0  0  0  0  0  0  0  0  0  0
  -23.0310   -9.8241   19.9694 C   0  0  0  0  0  0  0  0  0  0  0  0
  -23.7156   -9.9330   22.2839 C   0  0  0  0  0  0  0  0  0  0  0  0
  -18.2425  -28.3316   22.2071 C   0  0  0  0  0  0  0  0  0  0  0  0
  -20.4004  -26.6878   22.8298 C   0  0  0  0  0  0  0  0  0  0  0  0
  -24.7670  -24.8660   26.7182 C   0  0  0  0  0  0  0  0  0  0  0  0
  -22.2772   -8.6835   20.2460 C   0  0  0  0  0  0  0  0  0  0  0  0
  -22.9617   -8.7925   22.5605 C   0  0  0  0  0  0  0  0  0  0  0  0
  -25.8883  -24.0535   26.5557 C   0  0  0  0  0  0  0  0  0  0  0  0
  -23.2645   -5.4488   22.1616 C   0  0  0  0  0  0  0  0  0  0  0  0
  -23.8542   -4.4563   22.9442 C   0  0  0  0  0  0  0  0  0  0  0  0
  -27.2540  -26.0145   26.2261 C   0  0  0  0  0  0  0  0  0  0  0  0
  -22.0983   -4.7065   24.5847 C   0  0  0  0  0  0  0  0  0  0  0  0
  -23.7503  -10.4488   20.9884 C   0  0  0  0  0  0  0  0  0  0  0  0
  -24.1006  -12.9660   20.7672 C   0  0  0  0  0  0  0  0  0  0  0  0
  -19.5172  -28.8989   22.3620 C   0  0  0  0  0  0  0  0  0  0  0  0
  -24.8791  -26.2607   26.6249 C   0  0  0  0  0  0  0  0  0  0  0  0
  -20.6119  -28.0675   22.6668 C   0  0  0  0  0  0  0  0  0  0  0  0
  -26.1331  -26.8426   26.3903 C   0  0  0  0  0  0  0  0  0  0  0  0
  -22.2425   -8.1677   21.5416 C   0  0  0  0  0  0  0  0  0  0  0  0
  -27.1315  -24.6276   26.3067 C   0  0  0  0  0  0  0  0  0  0  0  0
  -22.0916   -6.0703   22.5905 C   0  0  0  0  0  0  0  0  0  0  0  0
  -23.2711   -4.0851   24.1558 C   0  0  0  0  0  0  0  0  0  0  0  0
  -21.5085   -5.6991   23.8020 C   0  0  0  0  0  0  0  0  0  0  0  0
  -24.5296  -11.6267   20.7031 C   0  0  0  0  0  0  0  0  0  0  0  0
  -31.7027  -18.7731   22.1677 C   0  0  0  0  0  0  0  0  0  0  0  0
  -25.2054  -13.6980   20.4069 C   0  0  0  0  0  0  0  0  0  0  0  0
  -30.5778  -19.1729   22.8582 C   0  0  0  0  0  0  0  0  0  0  0  0
  -30.4737  -16.9827   21.8609 C   0  0  0  0  0  0  0  0  0  0  0  0
  -22.8180  -13.5005   21.1209 C   0  0  0  0  0  0  0  0  0  0  0  0
  -32.8911  -19.5685   22.0190 C   0  0  0  0  0  0  0  0  0  0  0  0
  -23.6642  -28.4854   24.7069 C   0  0  0  0  0  0  0  0  0  0  0  0
  -29.2404  -22.0667   24.8380 C   0  0  0  0  0  0  0  0  0  0  0  0
  -25.1257  -30.5121   26.7753 C   0  0  0  0  0  0  0  0  0  0  0  0
  -27.5803  -31.0140   29.0927 C   0  0  0  0  0  0  0  0  0  0  0  0
  -30.6650  -14.7480   20.7138 C   0  0  0  0  0  0  0  0  0  0  0  0
  -19.6861  -30.3793   22.1289 C   0  0  0  0  0  0  0  0  0  0  0  0
  -23.6647  -27.1245   26.8291 C   0  0  0  0  0  0  0  0  0  0  0  0
  -26.3103  -28.3356   26.3011 C   0  0  0  0  0  0  0  0  0  0  0  0
  -21.0004  -30.9352   22.6710 C   0  0  0  0  0  0  0  0  0  0  0  0
  -29.6240  -12.2316   18.4200 C   0  0  0  0  0  0  0  0  0  0  0  0
  -22.1658  -30.0359   22.2711 C   0  0  0  0  0  0  0  0  0  0  0  0
  -33.8669  -18.6163   19.8454 C   0  0  0  0  0  0  0  0  0  0  0  0
  -34.5978  -19.8932   20.1323 C   0  0  0  0  0  0  0  0  0  0  0  0
  -28.1705  -11.9601   18.8148 C   0  0  0  0  0  0  0  0  0  0  0  0
  -30.4998  -12.5133   19.6396 C   0  0  0  0  0  0  0  0  0  0  0  0
  -28.5501  -13.2994   20.9241 C   0  0  0  0  0  0  0  0  0  0  0  0
  -22.0040  -28.6289   22.8592 C   0  0  1  0  0  0  0  0  0  0  0  0
  -34.1046  -19.0485   21.2319 C   0  0  0  0  0  0  0  0  0  0  0  0
  -23.8038  -28.5086   26.2028 C   0  0  1  0  0  0  0  0  0  0  0  0
  -27.6159  -13.0743   19.7240 C   0  0  2  0  0  0  0  0  0  0  0  0
  -28.5510  -32.7853   30.5818 C   0  0  0  0  0  0  0  0  0  0  0  0
  -26.4981  -31.7832   24.3648 C   0  0  0  0  0  0  0  0  0  0  0  0
  -28.1197  -32.8564   25.9417 C   0  0  0  0  0  0  0  0  0  0  0  0
  -25.6917  -33.4104   26.0841 C   0  0  0  0  0  0  0  0  0  0  0  0
  -26.9533  -29.4668   31.5364 C   0  0  0  0  0  0  0  0  0  0  0  0
  -29.1379  -20.6881   24.2209 C   0  0  0  0  0  0  0  0  0  0  0  0
  -28.0158  -22.5365   25.5988 C   0  0  0  0  0  0  0  0  0  1  0  0
  -26.4937  -31.1439   26.8662 C   0  0  1  0  0  0  0  0  0  0  0  0
  -27.5489  -31.6466   30.4723 C   0  0  2  0  0  0  0  0  0  0  0  0
  -26.6974  -32.2702   25.8139 C   0  0  0  0  0  0  0  0  0  0  0  0
  -25.8073  -11.5118   20.3312 N   0  0  0  0  0  0  0  0  0  0  0  0
  -31.6450  -17.5173   21.5955 N   0  0  0  0  0  0  0  0  0  0  0  0
  -33.0119  -20.7699   22.5566 N   0  0  0  0  0  0  0  0  0  0  0  0
  -26.1906  -12.7882   20.1582 N   0  0  0  0  0  0  0  0  0  0  0  0
  -25.0920  -29.1374   26.5016 N   0  0  0  0  0  0  0  0  0  0  0  0
  -29.9144  -13.5824   20.4515 N   0  0  0  0  0  0  0  0  0  0  0  0
  -25.4206  -15.0248   20.2815 N   0  0  0  0  0  0  0  0  0  0  0  0
  -21.7939  -12.6077   21.4650 N   0  0  0  0  0  0  0  0  0  0  0  0
  -30.3590  -20.3692   23.5263 N   0  0  0  0  0  0  0  0  0  0  0  0
  -29.9930  -15.7088   21.4686 N   0  0  0  0  0  0  0  0  0  0  0  0
  -22.3634  -28.6227   24.2610 N   0  0  0  0  0  0  0  0  0  0  0  0
  -26.6497  -31.5826   28.2488 N   0  0  0  0  0  0  0  0  0  0  0  0
  -27.8742  -30.6324   31.5147 N   0  3  0  0  0  0  0  0  0  0  0  0
  -22.5824  -14.7325   21.1156 O   0  0  0  0  0  0  0  0  0  0  0  0
  -24.6628  -28.3542   24.0088 O   0  0  0  0  0  0  0  0  0  0  0  0
  -30.2458  -22.7685   24.7353 O   0  0  0  0  0  0  0  0  0  0  0  0
  -24.1241  -31.2111   26.9481 O   0  0  0  0  0  0  0  0  0  0  0  0
  -28.3554  -30.1088   28.7924 O   0  0  0  0  0  0  0  0  0  0  0  0
  -31.8091  -14.8952   20.2763 O   0  0  0  0  0  0  0  0  0  0  0  0
  -21.5069   -7.0550   21.8119 O   0  0  0  0  0  0  0  0  0  0  0  0
  -28.2274  -23.8368   26.1470 O   0  0  0  0  0  0  0  0  0  1  0  0
  -23.8368   -3.1309   24.9066 F   0  0  0  0  0  0  0  0  0  0  0  0
  -20.3811   -6.2917   24.2187 F   0  0  0  0  0  0  0  0  0  0  0  0
  -29.3927  -17.9349   22.7934 S   0  0  0  0  0  0  0  0  0  0  0  0
  1  2  1  0  0  0  0
  1  5  2  0  0  0  0
  2  6  2  0  0  0  0
  3  8  2  0  0  0  0
  3 15  1  0  0  0  0
  4  9  1  0  0  0  0
  4 15  2  0  0  0  0
  5 17  1  0  0  0  0
  6 19  1  0  0  0  0
  7 10  2  0  0  0  0
  7 18  1  0  0  0  0
  8 21  1  0  0  0  0
  9 21  2  0  0  0  0
 10 22  1  0  0  0  0
 11 12  2  0  0  0  0
 11 23  1  0  0  0  0
 12 24  1  0  0  0  0
 13 20  1  0  0  0  0
 13 22  2  0  0  0  0
 14 24  2  0  0  0  0
 14 25  1  0  0  0  0
 15 26  1  0  0  0  0
 16 26  1  0  0  0  0
 16 28  2  0  0  0  0
 16 31  1  0  0  0  0
 17 19  2  0  0  0  0
 17 38  1  0  0  0  0
 18 20  2  0  0  0  0
 18 39  1  0  0  0  0
 19 49  1  0  0  0  0
 20 40  1  0  0  0  0
 21 82  1  0  0  0  0
 22 83  1  0  0  0  0
 23 25  2  0  0  0  0
 23 82  1  0  0  0  0
 24 84  1  0  0  0  0
 25 85  1  0  0  0  0
 26 63  2  0  0  0  0
 27 29  2  0  0  0  0
 27 32  1  0  0  0  0
 27 64  1  0  0  0  0
 28 66  1  0  0  0  0
 28 69  1  0  0  0  0
 29 71  1  0  0  0  0
 29 86  1  0  0  0  0
 30 64  2  0  0  0  0
 30 72  1  0  0  0  0
 30 86  1  0  0  0  0
 31 70  1  0  0  0  0
 31 76  2  0  0  0  0
 32 50  1  0  0  0  0
 32 65  2  0  0  0  0
 33 51  1  0  0  0  0
 33 73  1  0  0  0  0
 33 77  2  0  0  0  0
 34 58  1  0  0  0  0
 34 59  1  0  0  0  0
 34 78  2  0  0  0  0
 35 60  1  0  0  0  0
 35 67  1  0  0  0  0
 35 79  2  0  0  0  0
 36 61  1  0  0  0  0
 36 74  1  0  0  0  0
 36 80  2  0  0  0  0
 37 68  1  0  0  0  0
 37 72  1  0  0  0  0
 37 81  2  0  0  0  0
 38 41  1  0  0  0  0
 39 51  1  0  0  0  0
 40 67  1  0  0  0  0
 41 43  1  0  0  0  0
 42 46  1  0  0  0  0
 42 47  1  0  0  0  0
 43 49  1  0  0  0  0
 44 45  1  0  0  0  0
 44 50  1  0  0  0  0
 45 50  1  0  0  0  0
 46 52  1  0  0  0  0
 47 68  1  0  0  0  0
 48 52  1  0  0  0  0
 48 68  1  0  0  0  0
 49 73  1  0  0  0  0
 51 67  1  0  0  0  0
 52 66  1  0  0  0  0
 53 61  1  0  0  0  0
 54 62  1  0  0  0  0
 55 62  1  0  0  0  0
 56 62  1  0  0  0  0
 57 75  1  0  0  0  0
 58 71  1  0  0  0  0
 59 83  1  0  0  0  0
 60 62  1  0  0  0  0
 60 74  1  0  0  0  0
 61 75  1  0  0  0  0
 63 66  1  0  0  0  0
M  CHG  1  75   1
M  ISO  4  37 100  59 101  72 100  83 101
M  END
> <Batch ID>
0153

> <Smiles>
CNC(C)C(=O)NC(C(=O)N1Cc2cc([101O:1][101CH2:1]C(=O)CNc3sc([100NH:0][100C:0](=O)N4CCCC(n5nc(-c6ccc(Oc7ccc(F)cc7F)cc6)c(C(N)=O)c5N)C4)nc3C(=N)C3CC3)ccc2CC1C(=O)NC1CCCc2ccccc21)C(C)(C)C

> <Shape>
0.294

> <Color>
0.218

> <Negative vol penalty>
0.000

$$$$

  -OEChem-04052303303D

 80 89  0     1  0  0  0  0  0999 V2000
  -29.0105  -33.8611   26.0093 C   0  0  0  0  0  0  0  0  0  0  0  0
  -29.0302  -32.6714   25.2884 C   0  0  0  0  0  0  0  0  0  0  0  0
  -26.4563  -12.7790   20.1328 C   0  0  0  0  0  0  0  0  0  0  0  0
  -27.3721  -11.8400   18.1039 C   0  0  0  0  0  0  0  0  0  0  0  0
  -27.8110  -34.3334   26.5402 C   0  0  0  0  0  0  0  0  0  0  0  0
  -27.8503  -31.9527   25.0991 C   0  0  0  0  0  0  0  0  0  0  0  0
  -27.3078  -30.3300   20.3328 C   0  0  0  0  0  0  0  0  0  0  0  0
  -25.3216  -11.9804   19.9903 C   0  0  0  0  0  0  0  0  0  0  0  0
  -26.2375  -11.0413   17.9613 C   0  0  0  0  0  0  0  0  0  0  0  0
  -28.0436  -29.2078   19.9546 C   0  0  0  0  0  0  0  0  0  0  0  0
  -24.4543   -8.7614   20.5550 C   0  0  0  0  0  0  0  0  0  0  0  0
  -23.9824   -8.0976   21.6873 C   0  0  0  0  0  0  0  0  0  0  0  0
  -26.0860  -27.8306   20.2548 C   0  0  0  0  0  0  0  0  0  0  0  0
  -21.8732   -9.2591   21.4894 C   0  0  0  0  0  0  0  0  0  0  0  0
  -27.4815  -12.7089   19.1896 C   0  0  0  0  0  0  0  0  0  0  0  0
  -29.8404  -13.2111   20.0208 C   0  0  0  0  0  0  0  0  0  0  0  0
  -26.6141  -33.6251   26.3490 C   0  0  0  0  0  0  0  0  0  0  0  0
  -25.9561  -30.2090   20.6860 C   0  0  0  0  0  0  0  0  0  0  0  0
  -26.6339  -32.4153   25.6291 C   0  0  0  0  0  0  0  0  0  0  0  0
  -25.3346  -28.9531   20.6347 C   0  0  0  0  0  0  0  0  0  0  0  0
  -25.2122  -11.1115   18.9046 C   0  0  0  0  0  0  0  0  0  0  0  0
  -27.4334  -27.9574   19.9183 C   0  0  0  0  0  0  0  0  0  0  0  0
  -23.6356   -9.6742   19.8898 C   0  0  0  0  0  0  0  0  0  0  0  0
  -22.6919   -8.3464   22.1545 C   0  0  0  0  0  0  0  0  0  0  0  0
  -22.3451   -9.9230   20.3570 C   0  0  0  0  0  0  0  0  0  0  0  0
  -28.6536  -13.5340   19.3359 C   0  0  0  0  0  0  0  0  0  0  0  0
  -30.6378  -14.3189   19.8671 C   0  0  0  0  0  0  0  0  0  0  0  0
  -29.4085  -23.5217   18.5348 C   0  0  0  0  0  0  0  0  0  0  0  0
  -30.1908  -12.0167   20.7323 C   0  0  0  0  0  0  0  0  0  0  0  0
  -24.2685  -30.7608   23.3225 C   0  0  0  0  0  0  0  0  0  0  0  0
  -21.7558  -30.0710   21.3904 C   0  0  0  0  0  0  0  0  0  0  0  0
  -20.6017  -28.5059   18.5859 C   0  0  0  0  0  0  0  0  0  0  0  0
  -29.4605  -19.9605   19.0506 C   0  0  0  0  0  0  0  0  0  0  0  0
  -25.3503  -34.1509   26.9823 C   0  0  0  0  0  0  0  0  0  0  0  0
  -25.1693  -31.4334   21.0659 C   0  0  0  0  0  0  0  0  0  0  0  0
  -23.8808  -28.7729   20.9849 C   0  0  0  0  0  0  0  0  0  0  0  0
  -29.9574  -22.3667   19.3175 C   0  0  0  0  0  0  0  0  0  0  0  0
  -24.0790  -33.5226   26.4174 C   0  0  0  0  0  0  0  0  0  0  0  0
  -31.4766  -17.9587   16.8964 C   0  0  0  0  0  0  0  0  0  0  0  0
  -24.2272  -32.0071   26.3270 C   0  0  0  0  0  0  0  0  0  0  0  0
  -28.1824  -24.0594   16.4429 C   0  0  0  0  0  0  0  0  0  0  0  0
  -31.0729  -16.5519   17.3310 C   0  0  0  0  0  0  0  0  0  0  0  0
  -28.1043  -25.4626   17.0294 C   0  0  0  0  0  0  0  0  0  0  0  0
  -30.2910  -18.9262   16.8865 C   0  0  0  0  0  0  0  0  0  0  0  0
  -28.7746  -21.6992   17.2915 C   0  0  0  0  0  0  0  0  0  0  0  0
  -29.1377  -17.5530   18.5946 C   0  0  0  0  0  0  0  0  0  0  0  0
  -25.3705  -31.6200   25.3812 C   0  0  1  0  0  0  0  0  0  0  0  0
  -28.3113  -23.1072   17.6071 C   0  0  1  0  0  0  0  0  0  0  0  0
  -23.9332  -31.1139   21.9010 C   0  0  1  0  0  0  0  0  0  0  0  0
  -30.3302  -16.5893   18.6767 C   0  0  1  0  0  0  0  0  0  0  0  0
  -29.3892  -25.7876   17.7987 C   0  0  1  0  0  0  0  0  0  0  0  0
  -18.4945  -28.0898   17.2881 C   0  0  0  0  0  0  0  0  0  0  0  0
  -20.8904  -28.0052   23.4625 C   0  0  0  0  0  0  0  0  0  0  0  0
  -19.3948  -26.9943   21.7278 C   0  0  0  0  0  0  0  0  0  0  0  0
  -19.0203  -29.3433   22.4793 C   0  0  0  0  0  0  0  0  0  0  0  0
  -21.6700  -29.8743   16.1890 C   0  0  0  0  0  0  0  0  0  0  0  0
  -29.2182  -27.0530   18.6328 C   0  0  0  0  0  0  0  0  0  1  0  0
  -21.0108  -28.8133   21.0133 C   0  0  1  0  0  0  0  0  0  0  0  0
  -19.7087  -28.9897   17.4576 C   0  0  2  0  0  0  0  0  0  0  0  0
  -20.1070  -28.2918   22.1660 C   0  0  0  0  0  0  0  0  0  0  0  0
  -28.6894  -14.7516   18.7880 N   0  0  0  0  0  0  0  0  0  0  0  0
  -29.8605  -24.7140   18.6888 N   0  0  0  0  0  0  0  0  0  0  0  0
  -29.9084  -15.2036   19.1285 N   0  0  0  0  0  0  0  0  0  0  0  0
  -23.1556  -29.9992   21.3562 N   0  0  0  0  0  0  0  0  0  0  0  0
  -29.4536  -21.2514   18.5172 N   0  0  0  0  0  0  0  0  0  0  0  0
  -29.5602  -18.8865   18.1585 N   0  0  0  0  0  0  0  0  0  0  0  0
  -31.8846  -14.6127   20.2930 N   0  0  0  0  0  0  0  0  0  0  0  0
  -29.2543  -10.9757   20.7922 N   0  0  0  0  0  0  0  0  0  0  0  0
  -24.9518  -31.7511   24.0021 N   0  0  0  0  0  0  0  0  0  0  0  0
  -20.2914  -29.1188   19.7814 N   0  0  0  0  0  0  0  0  0  0  0  0
  -20.4625  -29.0090   16.1722 N   0  3  0  0  0  0  0  0  0  0  0  0
  -31.2952  -11.8831   21.3120 O   0  0  0  0  0  0  0  0  0  0  0  0
  -23.9308  -29.6711   23.7701 O   0  0  0  0  0  0  0  0  0  0  0  0
  -21.1191  -31.0821   21.6969 O   0  0  0  0  0  0  0  0  0  0  0  0
  -21.4836  -27.6655   18.4237 O   0  0  0  0  0  0  0  0  0  0  0  0
  -29.3439  -19.7736   20.2692 O   0  0  0  0  0  0  0  0  0  0  0  0
  -24.1053  -10.3319   18.7653 O   0  0  0  0  0  0  0  0  0  0  0  0
  -28.1559  -26.8505   19.5469 O   0  0  0  0  0  0  0  0  0  1  0  0
  -22.2383   -7.7077   23.2410 F   0  0  0  0  0  0  0  0  0  0  0  0
  -21.5536  -10.7979   19.7215 F   0  0  0  0  0  0  0  0  0  0  0  0
  1  2  1  0  0  0  0
  1  5  2  0  0  0  0
  2  6  2  0  0  0  0
  3  8  2  0  0  0  0
  3 15  1  0  0  0  0
  4  9  1  0  0  0  0
  4 15  2  0  0  0  0
  5 17  1  0  0  0  0
  6 19  1  0  0  0  0
  7 10  2  0  0  0  0
  7 18  1  0  0  0  0
  8 21  1  0  0  0  0
  9 21  2  0  0  0  0
 10 22  1  0  0  0  0
 11 12  2  0  0  0  0
 11 23  1  0  0  0  0
 12 24  1  0  0  0  0
 13 20  1  0  0  0  0
 13 22  2  0  0  0  0
 14 24  2  0  0  0  0
 14 25  1  0  0  0  0
 15 26  1  0  0  0  0
 16 26  1  0  0  0  0
 16 27  2  0  0  0  0
 16 29  1  0  0  0  0
 17 19  2  0  0  0  0
 17 34  1  0  0  0  0
 18 20  2  0  0  0  0
 18 35  1  0  0  0  0
 19 47  1  0  0  0  0
 20 36  1  0  0  0  0
 21 77  1  0  0  0  0
 22 78  1  0  0  0  0
 23 25  2  0  0  0  0
 23 77  1  0  0  0  0
 24 79  1  0  0  0  0
 25 80  1  0  0  0  0
 26 61  2  0  0  0  0
 27 63  1  0  0  0  0
 27 67  1  0  0  0  0
 28 37  1  0  0  0  0
 28 48  1  0  0  0  0
 28 62  2  0  0  0  0
 29 68  1  0  0  0  0
 29 72  2  0  0  0  0
 30 49  1  0  0  0  0
 30 69  1  0  0  0  0
 30 73  2  0  0  0  0
 31 58  1  0  0  0  0
 31 64  1  0  0  0  0
 31 74  2  0  0  0  0
 32 59  1  0  0  0  0
 32 70  1  0  0  0  0
 32 75  2  0  0  0  0
 33 65  1  0  0  0  0
 33 66  1  0  0  0  0
 33 76  2  0  0  0  0
 34 38  1  0  0  0  0
 35 49  1  0  0  0  0
 36 64  1  0  0  0  0
 37 65  1  0  0  0  0
 38 40  1  0  0  0  0
 39 42  1  0  0  0  0
 39 44  1  0  0  0  0
 40 47  1  0  0  0  0
 41 43  1  0  0  0  0
 41 48  1  0  0  0  0
 42 50  1  0  0  0  0
 43 51  1  0  0  0  0
 44 66  1  0  0  0  0
 45 48  1  0  0  0  0
 45 65  1  0  0  0  0
 46 50  1  0  0  0  0
 46 66  1  0  0  0  0
 47 69  1  0  0  0  0
 49 64  1  0  0  0  0
 50 63  1  0  0  0  0
 51 57  1  0  0  0  0
 51 62  1  0  0  0  0
 52 59  1  0  0  0  0
 53 60  1  0  0  0  0
 54 60  1  0  0  0  0
 55 60  1  0  0  0  0
 56 71  1  0  0  0  0
 57 78  1  0  0  0  0
 58 60  1  0  0  0  0
 58 70  1  0  0  0  0
 59 71  1  0  0  0  0
 61 63  1  0  0  0  0
M  CHG  1  71   1
M  ISO  4  33 100  57 101  65 100  78 101
M  END
> <Batch ID>
0153

> <Smiles>
CNC(C)C(=O)NC(C(=O)N1Cc2cc([101O:1][101CH2:1]C3CCC4=C(C[100N:0]([100C:0](=O)N5CCCC(n6nc(-c7ccc(Oc8ccc(F)cc8F)cc7)c(C(N)=O)c6N)C5)C4)N3)ccc2CC1C(=O)NC1CCCc2ccccc21)C(C)(C)C

> <Shape>
0.330

> <Color>
0.102

> <Negative vol penalty>
0.000

$$$$

  -OEChem-04052303303D

 85 94  0     1  0  0  0  0  0999 V2000
  -26.9295  -34.5678   25.0052 C   0  0  0  0  0  0  0  0  0  0  0  0
  -27.3048  -33.3191   24.5200 C   0  0  0  0  0  0  0  0  0  0  0  0
  -26.0316  -10.5782   18.6586 C   0  0  0  0  0  0  0  0  0  0  0  0
  -27.4803  -11.8139   20.1457 C   0  0  0  0  0  0  0  0  0  0  0  0
  -28.2971  -21.9481   18.1294 C   0  0  0  0  0  0  0  0  0  0  0  0
  -25.6082  -34.7981   25.3859 C   0  0  0  0  0  0  0  0  0  0  0  0
  -26.3591  -32.2997   24.4161 C   0  0  0  0  0  0  0  0  0  0  0  0
  -26.6603  -29.8111   20.0160 C   0  0  0  0  0  0  0  0  0  0  0  0
  -27.2817  -21.0184   17.9053 C   0  0  0  0  0  0  0  0  0  0  0  0
  -27.0053   -9.5873   18.5334 C   0  0  0  0  0  0  0  0  0  0  0  0
  -28.4540  -10.8230   20.0206 C   0  0  0  0  0  0  0  0  0  0  0  0
  -27.6796  -28.8689   19.8859 C   0  0  0  0  0  0  0  0  0  0  0  0
  -28.1352   -6.9629   20.3413 C   0  0  0  0  0  0  0  0  0  0  0  0
  -27.7226   -5.6335   20.4315 C   0  0  0  0  0  0  0  0  0  0  0  0
  -26.1007  -27.1054   20.3511 C   0  0  0  0  0  0  0  0  0  0  0  0
  -27.8051  -19.9408   20.0033 C   0  0  0  0  0  0  0  0  0  0  0  0
  -28.5533   -5.2242   18.2000 C   0  0  0  0  0  0  0  0  0  0  0  0
  -26.2692  -11.6916   19.4647 C   0  0  0  0  0  0  0  0  0  0  0  0
  -29.0666  -21.8741   19.2905 C   0  0  0  0  0  0  0  0  0  0  0  0
  -24.2313  -12.7778   20.5488 C   0  0  0  0  0  0  0  0  0  0  0  0
  -24.6437  -33.7839   25.2776 C   0  0  0  0  0  0  0  0  0  0  0  0
  -25.3535  -29.4078   20.3259 C   0  0  0  0  0  0  0  0  0  0  0  0
  -25.0239  -32.5163   24.7969 C   0  0  0  0  0  0  0  0  0  0  0  0
  -25.0661  -28.0443   20.4821 C   0  0  0  0  0  0  0  0  0  0  0  0
  -27.0357  -20.0148   18.8422 C   0  0  0  0  0  0  0  0  0  0  0  0
  -28.2165   -9.7097   19.2144 C   0  0  0  0  0  0  0  0  0  0  0  0
  -27.4005  -27.5161   20.0563 C   0  0  0  0  0  0  0  0  0  0  0  0
  -28.7569   -7.4230   19.1804 C   0  0  0  0  0  0  0  0  0  0  0  0
  -27.9317   -4.7642   19.3609 C   0  0  0  0  0  0  0  0  0  0  0  0
  -28.8206  -20.8705   20.2275 C   0  0  0  0  0  0  0  0  0  0  0  0
  -28.9660   -6.5536   18.1098 C   0  0  0  0  0  0  0  0  0  0  0  0
  -25.2640  -12.7158   19.5940 C   0  0  0  0  0  0  0  0  0  0  0  0
  -23.5547  -13.9346   20.2481 C   0  0  0  0  0  0  0  0  0  0  0  0
  -30.1391  -22.8576   19.5242 C   0  0  0  0  0  0  0  0  0  0  0  0
  -23.9124  -11.8708   21.6124 C   0  0  0  0  0  0  0  0  0  0  0  0
  -23.3529  -29.9438   22.7371 C   0  0  0  0  0  0  0  0  0  0  0  0
  -21.2696  -28.3146   20.8589 C   0  0  0  0  0  0  0  0  0  0  0  0
  -20.7905  -26.0547   18.3468 C   0  0  0  0  0  0  0  0  0  0  0  0
  -25.1488  -19.0033   17.5146 C   0  0  0  0  0  0  0  0  0  0  0  0
  -23.2380  -34.0659   25.7458 C   0  0  0  0  0  0  0  0  0  0  0  0
  -24.2597  -30.4344   20.4365 C   0  0  0  0  0  0  0  0  0  0  0  0
  -23.6755  -27.5578   20.7956 C   0  0  0  0  0  0  0  0  0  0  0  0
  -22.2154  -33.0455   25.2526 C   0  0  0  0  0  0  0  0  0  0  0  0
  -22.5083  -16.8115   16.5653 C   0  0  0  0  0  0  0  0  0  0  0  0
  -22.7382  -31.6265   25.4524 C   0  0  0  0  0  0  0  0  0  0  0  0
  -22.8180  -15.5201   17.3259 C   0  0  0  0  0  0  0  0  0  0  0  0
  -30.1409  -25.9105   21.4553 C   0  0  0  0  0  0  0  0  0  0  0  0
  -23.7812  -17.5035   16.0809 C   0  0  0  0  0  0  0  0  0  0  0  0
  -30.8630  -25.0195   20.4483 C   0  0  0  0  0  0  0  0  0  0  0  0
  -25.0980  -16.4580   17.8815 C   0  0  0  0  0  0  0  0  0  0  0  0
  -28.5202  -24.3148   20.6752 C   0  0  0  0  0  0  0  0  0  0  0  0
  -24.0215  -31.3926   24.6462 C   0  0  1  0  0  0  0  0  0  0  0  0
  -23.0700  -29.9534   21.2615 C   0  0  1  0  0  0  0  0  0  0  0  0
  -23.8502  -15.7590   18.4453 C   0  0  2  0  0  0  0  0  0  0  0  0
  -28.6713  -25.7820   21.0659 C   0  0  2  0  0  0  0  0  0  1  0  0
  -18.9748  -24.8974   17.0581 C   0  0  0  0  0  0  0  0  0  0  0  0
  -20.7551  -26.4764   23.2393 C   0  0  0  0  0  0  0  0  0  0  0  0
  -19.7146  -24.8366   21.6592 C   0  0  0  0  0  0  0  0  0  0  0  0
  -18.7098  -27.1021   21.9432 C   0  0  0  0  0  0  0  0  0  0  0  0
  -21.7011  -27.2267   15.7863 C   0  0  0  0  0  0  0  0  0  0  0  0
  -20.8926  -26.8625   20.6902 C   0  0  1  0  0  0  0  0  0  0  0  0
  -19.9110  -26.0947   17.1102 C   0  0  2  0  0  0  0  0  0  0  0  0
  -20.0447  -26.3284   21.8790 C   0  0  0  0  0  0  0  0  0  0  0  0
  -25.2486  -13.7508   18.7498 N   0  0  0  0  0  0  0  0  0  0  0  0
  -24.1979  -14.4740   19.1731 N   0  0  0  0  0  0  0  0  0  0  0  0
  -29.8633  -23.9779   20.1666 N   0  0  0  0  0  0  0  0  0  0  0  0
  -22.6415  -28.6006   20.9000 N   0  0  0  0  0  0  0  0  0  0  0  0
  -24.7100  -17.7007   17.1959 N   0  0  0  0  0  0  0  0  0  0  0  0
  -22.4782  -14.5328   20.8009 N   0  0  0  0  0  0  0  0  0  0  0  0
  -24.7106  -10.7311   21.7806 N   0  0  0  0  0  0  0  0  0  0  0  0
  -26.0039  -19.0708   18.6140 N   0  0  0  0  0  0  0  0  0  0  0  0
  -23.7088  -31.1767   23.2498 N   0  0  0  0  0  0  0  0  0  0  0  0
  -20.2336  -26.7600   19.3926 N   0  0  0  0  0  0  0  0  0  0  0  0
  -31.3681  -22.6005   19.0862 N   0  3  0  0  0  0  0  0  0  0  0  0
  -20.7492  -26.0899   15.8780 N   0  3  0  0  0  0  0  0  0  0  0  0
  -22.9381  -12.0568   22.3804 O   0  0  0  0  0  0  0  0  0  0  0  0
  -23.2540  -28.8957   23.3644 O   0  0  0  0  0  0  0  0  0  0  0  0
  -20.3796  -29.1645   20.9436 O   0  0  0  0  0  0  0  0  0  0  0  0
  -21.8625  -25.4546   18.3827 O   0  0  0  0  0  0  0  0  0  0  0  0
  -24.7706  -19.9895   16.8772 O   0  0  0  0  0  0  0  0  0  0  0  0
  -29.1667   -8.7428   19.0927 O   0  0  0  0  0  0  0  0  0  0  0  0
  -28.3937  -26.5943   19.9305 O   0  0  0  0  0  0  0  0  0  1  0  0
  -27.5367   -3.4873   19.4482 F   0  0  0  0  0  0  0  0  0  0  0  0
  -29.5559  -20.7901   21.3453 F   0  0  0  0  0  0  0  0  0  0  0  0
  -29.5637   -6.9895   16.9924 F   0  0  0  0  0  0  0  0  0  0  0  0
  1  2  1  0  0  0  0
  1  6  2  0  0  0  0
  2  7  2  0  0  0  0
  3 10  2  0  0  0  0
  3 18  1  0  0  0  0
  4 11  1  0  0  0  0
  4 18  2  0  0  0  0
  5  9  2  0  0  0  0
  5 19  1  0  0  0  0
  6 21  1  0  0  0  0
  7 23  1  0  0  0  0
  8 12  2  0  0  0  0
  8 22  1  0  0  0  0
  9 25  1  0  0  0  0
 10 26  1  0  0  0  0
 11 26  2  0  0  0  0
 12 27  1  0  0  0  0
 13 14  2  0  0  0  0
 13 28  1  0  0  0  0
 14 29  1  0  0  0  0
 15 24  1  0  0  0  0
 15 27  2  0  0  0  0
 16 25  2  0  0  0  0
 16 30  1  0  0  0  0
 17 29  2  0  0  0  0
 17 31  1  0  0  0  0
 18 32  1  0  0  0  0
 19 30  2  0  0  0  0
 19 34  1  0  0  0  0
 20 32  1  0  0  0  0
 20 33  2  0  0  0  0
 20 35  1  0  0  0  0
 21 23  2  0  0  0  0
 21 40  1  0  0  0  0
 22 24  2  0  0  0  0
 22 41  1  0  0  0  0
 23 52  1  0  0  0  0
 24 42  1  0  0  0  0
 25 71  1  0  0  0  0
 26 81  1  0  0  0  0
 27 82  1  0  0  0  0
 28 31  2  0  0  0  0
 28 81  1  0  0  0  0
 29 83  1  0  0  0  0
 30 84  1  0  0  0  0
 31 85  1  0  0  0  0
 32 64  2  0  0  0  0
 33 65  1  0  0  0  0
 33 69  1  0  0  0  0
 34 66  1  0  0  0  0
 34 74  2  0  0  0  0
 35 70  1  0  0  0  0
 35 76  2  0  0  0  0
 36 53  1  0  0  0  0
 36 72  1  0  0  0  0
 36 77  2  0  0  0  0
 37 61  1  0  0  0  0
 37 67  1  0  0  0  0
 37 78  2  0  0  0  0
 38 62  1  0  0  0  0
 38 73  1  0  0  0  0
 38 79  2  0  0  0  0
 39 68  1  0  0  0  0
 39 71  1  0  0  0  0
 39 80  2  0  0  0  0
 40 43  1  0  0  0  0
 41 53  1  0  0  0  0
 42 67  1  0  0  0  0
 43 45  1  0  0  0  0
 44 46  1  0  0  0  0
 44 48  1  0  0  0  0
 45 52  1  0  0  0  0
 46 54  1  0  0  0  0
 47 49  1  0  0  0  0
 47 55  1  0  0  0  0
 48 68  1  0  0  0  0
 49 66  1  0  0  0  0
 50 54  1  0  0  0  0
 50 68  1  0  0  0  0
 51 55  1  0  0  0  0
 51 66  1  0  0  0  0
 52 72  1  0  0  0  0
 53 67  1  0  0  0  0
 54 65  1  0  0  0  0
 55 82  1  0  0  0  0
 56 62  1  0  0  0  0
 57 63  1  0  0  0  0
 58 63  1  0  0  0  0
 59 63  1  0  0  0  0
 60 75  1  0  0  0  0
 61 63  1  0  0  0  0
 61 73  1  0  0  0  0
 62 75  1  0  0  0  0
 64 65  1  0  0  0  0
M  CHG  2  74   1  75   1
M  ISO  4  39 100  55 101  71 100  82 101
M  END
> <Batch ID>
0153

> <Smiles>
CNC(C)C(=O)NC(C(=O)N1Cc2cc([101O:1][101CH:1]3CCN(C(=N)c4ccc([100NH:0][100C:0](=O)N5CCCC(n6nc(-c7ccc(Oc8ccc(F)cc8F)cc7)c(C(N)=O)c6N)C5)cc4F)C3)ccc2CC1C(=O)NC1CCCc2ccccc21)C(C)(C)C

> <Shape>
0.245

> <Color>
0.076

> <Negative vol penalty>
0.000

$$$$

  -OEChem-04052303303D

 83 92  0     1  0  0  0  0  0999 V2000
  -24.8174  -32.1106   29.4106 C   0  0  0  0  0  0  0  0  0  0  0  0
  -25.1471  -30.8265   28.9887 C   0  0  0  0  0  0  0  0  0  0  0  0
  -23.0112   -9.8411   20.0752 C   0  0  0  0  0  0  0  0  0  0  0  0
  -23.6095  -10.1346   22.3975 C   0  0  0  0  0  0  0  0  0  0  0  0
  -23.9287  -32.8821   28.6630 C   0  0  0  0  0  0  0  0  0  0  0  0
  -24.5873  -30.3129   27.8194 C   0  0  0  0  0  0  0  0  0  0  0  0
  -27.9994  -27.9790   24.8944 C   0  0  0  0  0  0  0  0  0  0  0  0
  -22.2266   -8.7395   20.4166 C   0  0  0  0  0  0  0  0  0  0  0  0
  -22.8248   -9.0331   22.7389 C   0  0  0  0  0  0  0  0  0  0  0  0
  -28.3837  -26.6918   25.2674 C   0  0  0  0  0  0  0  0  0  0  0  0
  -23.0808   -5.6635   22.6337 C   0  0  0  0  0  0  0  0  0  0  0  0
  -23.6222   -4.7318   23.5194 C   0  0  0  0  0  0  0  0  0  0  0  0
  -31.8242  -18.9102   21.9656 C   0  0  0  0  0  0  0  0  0  0  0  0
  -31.7545  -17.5776   21.4664 C   0  0  0  0  0  0  0  0  0  0  0  0
  -26.8855  -25.7724   23.6153 C   0  0  0  0  0  0  0  0  0  0  0  0
  -21.8102   -5.1462   25.0628 C   0  0  0  0  0  0  0  0  0  0  0  0
  -23.7027  -10.5386   21.0657 C   0  0  0  0  0  0  0  0  0  0  0  0
  -24.1074  -13.0225   20.6483 C   0  0  0  0  0  0  0  0  0  0  0  0
  -23.3653  -32.3812   27.4789 C   0  0  0  0  0  0  0  0  0  0  0  0
  -27.0456  -28.1727   23.8849 C   0  0  0  0  0  0  0  0  0  0  0  0
  -23.6892  -31.0779   27.0560 C   0  0  0  0  0  0  0  0  0  0  0  0
  -26.4927  -27.0632   23.2296 C   0  0  0  0  0  0  0  0  0  0  0  0
  -22.1334   -8.3355   21.7484 C   0  0  0  0  0  0  0  0  0  0  0  0
  -27.8245  -25.5882   24.6298 C   0  0  0  0  0  0  0  0  0  0  0  0
  -21.9042   -6.3367   22.9626 C   0  0  0  0  0  0  0  0  0  0  0  0
  -22.9869   -4.4731   24.7339 C   0  0  0  0  0  0  0  0  0  0  0  0
  -21.2689   -6.0780   24.1771 C   0  0  0  0  0  0  0  0  0  0  0  0
  -24.5138  -11.6763   20.7136 C   0  0  0  0  0  0  0  0  0  0  0  0
  -25.2384  -13.7047   20.2716 C   0  0  0  0  0  0  0  0  0  0  0  0
  -30.6376  -19.3106   22.5394 C   0  0  0  0  0  0  0  0  0  0  0  0
  -30.5172  -17.0099   21.6779 C   0  0  0  0  0  0  0  0  0  0  0  0
  -30.5987  -22.7344   23.8113 C   0  0  0  0  0  0  0  0  0  0  0  0
  -22.8225  -13.6044   20.9053 C   0  0  0  0  0  0  0  0  0  0  0  0
  -24.1568  -29.4920   23.7516 C   0  0  0  0  0  0  0  0  0  0  0  0
  -24.4755  -28.9333   20.5722 C   0  0  0  0  0  0  0  0  0  0  0  0
  -25.9478  -27.1226   18.0821 C   0  0  0  0  0  0  0  0  0  0  0  0
  -30.7008  -14.6940   20.7038 C   0  0  0  0  0  0  0  0  0  0  0  0
  -22.3730  -33.2347   26.7295 C   0  0  0  0  0  0  0  0  0  0  0  0
  -26.6616  -29.5683   23.4758 C   0  0  0  0  0  0  0  0  0  0  0  0
  -25.4798  -27.2177   22.1257 C   0  0  0  0  0  0  0  0  0  0  0  0
  -31.3691  -21.6045   23.1836 C   0  0  0  0  0  0  0  0  0  0  0  0
  -22.1135  -32.7569   25.3031 C   0  0  0  0  0  0  0  0  0  0  0  0
  -29.7013  -12.0089   18.5898 C   0  0  0  0  0  0  0  0  0  0  0  0
  -21.8845  -31.2490   25.2785 C   0  0  0  0  0  0  0  0  0  0  0  0
  -28.2292  -11.7938   18.9485 C   0  0  0  0  0  0  0  0  0  0  0  0
  -30.5353  -12.3793   19.8150 C   0  0  0  0  0  0  0  0  0  0  0  0
  -29.0355  -20.9902   23.4849 C   0  0  0  0  0  0  0  0  0  0  0  0
  -28.5532  -13.3005   20.9515 C   0  0  0  0  0  0  0  0  0  0  0  0
  -23.1219  -30.4949   25.7799 C   0  0  1  0  0  0  0  0  0  0  0  0
  -29.2304  -22.2932   24.2671 C   0  0  2  0  0  0  0  0  0  0  0  0
  -25.3012  -29.6366   22.7887 C   0  0  1  0  0  0  0  0  0  0  0  0
  -27.6612  -12.9890   19.7386 C   0  0  2  0  0  0  0  0  0  0  0  0
  -25.9803  -26.8694   15.5856 C   0  0  0  0  0  0  0  0  0  0  0  0
  -21.8002  -27.4708   20.6881 C   0  0  0  0  0  0  0  0  0  0  0  0
  -22.3400  -26.4520   18.4658 C   0  0  0  0  0  0  0  0  0  0  0  0
  -22.1070  -28.9265   18.6779 C   0  0  0  0  0  0  0  0  0  0  0  0
  -28.8213  -27.8152   17.9330 C   0  0  0  0  0  0  0  0  0  0  0  0
  -28.1560  -23.3241   23.9816 C   0  0  0  0  0  0  0  0  0  1  0  0
  -24.1430  -27.7854   19.6498 C   0  0  1  0  0  0  0  0  0  0  0  0
  -26.6176  -27.5483   16.7880 C   0  0  2  0  0  0  0  0  0  0  0  0
  -22.6152  -27.6554   19.3925 C   0  0  0  0  0  0  0  0  0  0  0  0
  -25.8024  -11.5110   20.4031 N   0  0  0  0  0  0  0  0  0  0  0  0
  -26.2154  -12.7623   20.1390 N   0  0  0  0  0  0  0  0  0  0  0  0
  -30.3762  -20.5412   23.1145 N   0  0  3  0  0  0  0  0  0  0  0  0
  -25.1320  -28.6023   21.7660 N   0  0  0  0  0  0  0  0  0  0  0  0
  -29.9394  -13.5219   20.5108 N   0  0  0  0  0  0  0  0  0  0  0  0
  -25.4826  -15.0128   20.0441 N   0  0  0  0  0  0  0  0  0  0  0  0
  -21.7698  -12.7594   21.2826 N   0  0  0  0  0  0  0  0  0  0  0  0
  -30.0185  -15.7252   21.3484 N   0  0  0  0  0  0  0  0  0  0  0  0
  -24.1370  -30.4477   24.7495 N   0  0  0  0  0  0  0  0  0  0  0  0
  -24.9371  -27.9883   18.4429 N   0  0  0  0  0  0  0  0  0  0  0  0
  -28.0654  -27.1962   16.8139 N   0  3  0  0  0  0  0  0  0  0  0  0
  -31.0552  -23.8593   23.9710 O   0  0  0  0  0  0  0  0  0  0  0  0
  -22.6099  -14.8350   20.7876 O   0  0  0  0  0  0  0  0  0  0  0  0
  -23.3505  -28.5818   23.5994 O   0  0  0  0  0  0  0  0  0  0  0  0
  -24.1707  -30.0821   20.2422 O   0  0  0  0  0  0  0  0  0  0  0  0
  -26.2849  -26.1201   18.7081 O   0  0  0  0  0  0  0  0  0  0  0  0
  -31.8632  -14.7864   20.3008 O   0  0  0  0  0  0  0  0  0  0  0  0
  -21.3676   -7.2608   22.0819 O   0  0  0  0  0  0  0  0  0  0  0  0
  -28.1973  -24.3306   24.9924 O   0  0  0  0  0  0  0  0  0  1  0  0
  -23.5060   -3.5772   25.5836 F   0  0  0  0  0  0  0  0  0  0  0  0
  -20.1377   -6.7207   24.4981 F   0  0  0  0  0  0  0  0  0  0  0  0
  -29.4462  -18.0822   22.4751 S   0  0  0  0  0  0  0  0  0  0  0  0
  1  2  1  0  0  0  0
  1  5  2  0  0  0  0
  2  6  2  0  0  0  0
  3  8  2  0  0  0  0
  3 17  1  0  0  0  0
  4  9  1  0  0  0  0
  4 17  2  0  0  0  0
  5 19  1  0  0  0  0
  6 21  1  0  0  0  0
  7 10  2  0  0  0  0
  7 20  1  0  0  0  0
  8 23  1  0  0  0  0
  9 23  2  0  0  0  0
 10 24  1  0  0  0  0
 11 12  2  0  0  0  0
 11 25  1  0  0  0  0
 12 26  1  0  0  0  0
 13 14  1  0  0  0  0
 13 30  2  0  0  0  0
 14 31  2  0  0  0  0
 15 22  1  0  0  0  0
 15 24  2  0  0  0  0
 16 26  2  0  0  0  0
 16 27  1  0  0  0  0
 17 28  1  0  0  0  0
 18 28  1  0  0  0  0
 18 29  2  0  0  0  0
 18 33  1  0  0  0  0
 19 21  2  0  0  0  0
 19 38  1  0  0  0  0
 20 22  2  0  0  0  0
 20 39  1  0  0  0  0
 21 49  1  0  0  0  0
 22 40  1  0  0  0  0
 23 79  1  0  0  0  0
 24 80  1  0  0  0  0
 25 27  2  0  0  0  0
 25 79  1  0  0  0  0
 26 81  1  0  0  0  0
 27 82  1  0  0  0  0
 28 62  2  0  0  0  0
 29 63  1  0  0  0  0
 29 67  1  0  0  0  0
 30 64  1  0  0  0  0
 30 83  1  0  0  0  0
 31 69  1  0  0  0  0
 31 83  1  0  0  0  0
 32 41  1  0  0  0  0
 32 50  1  0  0  0  0
 32 73  2  0  0  0  0
 33 68  1  0  0  0  0
 33 74  2  0  0  0  0
 34 51  1  0  0  0  0
 34 70  1  0  0  0  0
 34 75  2  0  0  0  0
 35 59  1  0  0  0  0
 35 65  1  0  0  0  0
 35 76  2  0  0  0  0
 36 60  1  0  0  0  0
 36 71  1  0  0  0  0
 36 77  2  0  0  0  0
 37 66  1  0  0  0  0
 37 69  1  0  0  0  0
 37 78  2  0  0  0  0
 38 42  1  0  0  0  0
 39 51  1  0  0  0  0
 40 65  1  0  0  0  0
 41 64  1  0  0  0  0
 42 44  1  0  0  0  0
 43 45  1  0  0  0  0
 43 46  1  0  0  0  0
 44 49  1  0  0  0  0
 45 52  1  0  0  0  0
 46 66  1  0  0  0  0
 47 50  1  0  0  0  0
 47 64  1  0  0  0  0
 48 52  1  0  0  0  0
 48 66  1  0  0  0  0
 49 70  1  0  0  0  0
 50 58  1  0  0  0  0
 51 65  1  0  0  0  0
 52 63  1  0  0  0  0
 53 60  1  0  0  0  0
 54 61  1  0  0  0  0
 55 61  1  0  0  0  0
 56 61  1  0  0  0  0
 57 72  1  0  0  0  0
 58 80  1  0  0  0  0
 59 61  1  0  0  0  0
 59 71  1  0  0  0  0
 60 72  1  0  0  0  0
 62 63  1  0  0  0  0
M  CHG  1  72   1
M  ISO  4  37 100  58 101  69 100  80 101
M  END
> <Batch ID>
0153

> <Smiles>
CNC(C)C(=O)NC(C(=O)N1Cc2cc([101O:1][101CH2:1]C3CN(c4ccc([100NH:0][100C:0](=O)N5CCCC(n6nc(-c7ccc(Oc8ccc(F)cc8F)cc7)c(C(N)=O)c6N)C5)s4)CC3=O)ccc2CC1C(=O)NC1CCCc2ccccc21)C(C)(C)C

> <Shape>
0.250

> <Color>
0.206

> <Negative vol penalty>
0.000

$$$$

  -OEChem-04052303303D

 85 94  0     1  0  0  0  0  0999 V2000
  -28.0599  -24.7489   16.3944 C   0  0  0  0  0  0  0  0  0  0  0  0
  -26.9295  -24.8456   17.1995 C   0  0  0  0  0  0  0  0  0  0  0  0
  -19.3654  -20.7029   24.8996 C   0  0  0  0  0  0  0  0  0  0  0  0
  -25.0199  -12.9654   19.9713 C   0  0  0  0  0  0  0  0  0  0  0  0
  -24.8932  -13.9322   22.1818 C   0  0  0  0  0  0  0  0  0  0  0  0
  -18.9732  -21.9540   24.4236 C   0  0  0  0  0  0  0  0  0  0  0  0
  -29.2536  -25.3468   16.7960 C   0  0  0  0  0  0  0  0  0  0  0  0
  -26.9925  -25.5394   18.4074 C   0  0  0  0  0  0  0  0  0  0  0  0
  -23.0123  -28.5918   19.1044 C   0  0  0  0  0  0  0  0  0  0  0  0
  -19.3660  -19.6004   24.0451 C   0  0  0  0  0  0  0  0  0  0  0  0
  -26.4110  -12.9287   20.0670 C   0  0  0  0  0  0  0  0  0  0  0  0
  -26.2843  -13.8955   22.2776 C   0  0  0  0  0  0  0  0  0  0  0  0
  -21.8194  -27.9987   19.5156 C   0  0  0  0  0  0  0  0  0  0  0  0
  -28.7561  -10.9885   21.5396 C   0  0  0  0  0  0  0  0  0  0  0  0
  -29.4032   -9.8212   21.1344 C   0  0  0  0  0  0  0  0  0  0  0  0
  -18.5821  -21.0000   22.2386 C   0  0  0  0  0  0  0  0  0  0  0  0
  -22.2703  -28.6797   21.7854 C   0  0  0  0  0  0  0  0  0  0  0  0
  -30.6247  -11.0761   19.4700 C   0  0  0  0  0  0  0  0  0  0  0  0
  -24.2610  -13.4672   21.0287 C   0  0  0  0  0  0  0  0  0  0  0  0
  -18.5815  -22.1025   23.0932 C   0  0  0  0  0  0  0  0  0  0  0  0
  -21.9180  -12.5008   21.3180 C   0  0  0  0  0  0  0  0  0  0  0  0
  -29.3287  -26.0566   18.0048 C   0  0  0  0  0  0  0  0  0  0  0  0
  -23.8499  -29.2248   20.0340 C   0  0  0  0  0  0  0  0  0  0  0  0
  -28.1887  -26.1463   18.8262 C   0  0  0  0  0  0  0  0  0  0  0  0
  -23.4721  -29.2823   21.3831 C   0  0  0  0  0  0  0  0  0  0  0  0
  -18.9743  -19.7489   22.7146 C   0  0  0  0  0  0  0  0  0  0  0  0
  -27.0432  -13.3937   21.2202 C   0  0  0  0  0  0  0  0  0  0  0  0
  -21.4497  -28.0401   20.8568 C   0  0  0  0  0  0  0  0  0  0  0  0
  -29.0433  -12.1996   20.9100 C   0  0  0  0  0  0  0  0  0  0  0  0
  -30.3375   -9.8650   20.0996 C   0  0  0  0  0  0  0  0  0  0  0  0
  -29.9776  -12.2434   19.8753 C   0  0  0  0  0  0  0  0  0  0  0  0
  -22.8240  -13.5059   20.9301 C   0  0  0  0  0  0  0  0  0  0  0  0
  -20.6815  -13.0199   21.0211 C   0  0  0  0  0  0  0  0  0  0  0  0
  -18.8301  -25.5489   21.5409 C   0  0  0  0  0  0  0  0  0  0  0  0
  -18.1674  -23.4242   22.5891 C   0  0  0  0  0  0  0  0  0  0  0  0
  -22.1713  -11.2130   21.8952 C   0  0  0  0  0  0  0  0  0  0  0  0
  -26.8259  -28.7630   21.0507 C   0  0  0  0  0  0  0  0  0  0  0  0
  -26.2920  -31.5305   22.6565 C   0  0  0  0  0  0  0  0  0  0  0  0
  -24.0389  -33.6957   24.0285 C   0  0  0  0  0  0  0  0  0  0  0  0
  -18.6158  -18.6026   20.5002 C   0  0  0  0  0  0  0  0  0  0  0  0
  -30.6537  -26.6459   18.4195 C   0  0  0  0  0  0  0  0  0  0  0  0
  -25.1203  -29.8831   19.5700 C   0  0  0  0  0  0  0  0  0  0  0  0
  -24.3262  -29.9673   22.4173 C   0  0  0  0  0  0  0  0  0  0  0  0
  -30.5373  -27.6816   19.5349 C   0  0  0  0  0  0  0  0  0  0  0  0
  -18.5182  -16.0554   18.0144 C   0  0  0  0  0  0  0  0  0  0  0  0
  -29.6316  -27.1666   20.6491 C   0  0  0  0  0  0  0  0  0  0  0  0
  -19.5244  -15.0182   18.5184 C   0  0  0  0  0  0  0  0  0  0  0  0
  -21.1582  -25.2503   21.8209 C   0  0  0  0  0  0  0  0  0  0  0  0
  -18.9769  -17.4818   18.3120 C   0  0  0  0  0  0  0  0  0  0  0  0
  -20.5003  -23.8841   21.9756 C   0  0  0  0  0  0  0  0  0  0  0  0
  -20.3296  -16.7054   20.2190 C   0  0  0  0  0  0  0  0  0  0  0  0
  -28.2108  -26.9115   20.1316 C   0  0  1  0  0  0  0  0  0  0  0  0
  -20.1461  -26.0834   21.0354 C   0  0  2  0  0  0  0  0  0  1  0  0
  -26.1471  -30.0528   20.6855 C   0  0  1  0  0  0  0  0  0  0  0  0
  -19.8801  -15.2516   19.9998 C   0  0  2  0  0  0  0  0  0  0  0  0
  -23.9048  -35.8511   25.3066 C   0  0  0  0  0  0  0  0  0  0  0  0
  -27.1406  -30.0728   25.1991 C   0  0  0  0  0  0  0  0  0  0  0  0
  -26.0989  -31.9237   26.5247 C   0  0  0  0  0  0  0  0  0  0  0  0
  -28.0099  -32.4090   24.9965 C   0  0  0  0  0  0  0  0  0  0  0  0
  -22.5063  -35.0159   21.8682 C   0  0  0  0  0  0  0  0  0  0  0  0
  -25.7389  -31.8889   24.0146 C   0  0  1  0  0  0  0  0  0  0  0  0
  -23.9032  -35.2044   23.9302 C   0  0  2  0  0  0  0  0  0  0  0  0
  -26.7317  -31.5589   25.1648 C   0  0  0  0  0  0  0  0  0  0  0  0
  -22.2151  -14.5821   20.4251 N   0  0  0  0  0  0  0  0  0  0  0  0
  -20.9131  -14.2561   20.4936 N   0  0  0  0  0  0  0  0  0  0  0  0
  -19.0736  -24.2347   22.0723 N   0  0  0  0  0  0  0  0  0  0  0  0
  -25.5619  -30.5906   21.9153 N   0  0  0  0  0  0  0  0  0  0  0  0
  -19.2923  -17.6295   19.7345 N   0  0  0  0  0  0  0  0  0  0  0  0
  -19.4296  -12.5348   21.1622 N   0  0  0  0  0  0  0  0  0  0  0  0
  -23.5004  -10.8379   22.1346 N   0  0  0  0  0  0  0  0  0  0  0  0
  -18.9753  -18.6284   21.8474 N   0  0  0  0  0  0  0  0  0  0  0  0
  -27.4894  -28.1592   19.9998 N   0  0  0  0  0  0  0  0  0  0  0  0
  -25.3553  -33.2945   23.9412 N   0  0  0  0  0  0  0  0  0  0  0  0
  -16.8879  -23.7793   22.6609 N   0  3  0  0  0  0  0  0  0  0  0  0
  -22.6317  -35.5664   23.2423 N   0  3  0  0  0  0  0  0  0  0  0  0
  -17.7358  -26.0821   21.5233 O   0  0  0  0  0  0  0  0  0  0  0  0
  -21.2475  -10.4119   22.1748 O   0  0  0  0  0  0  0  0  0  0  0  0
  -26.7543  -28.3473   22.2013 O   0  0  0  0  0  0  0  0  0  0  0  0
  -27.3297  -32.0702   22.2646 O   0  0  0  0  0  0  0  0  0  0  0  0
  -23.0741  -32.9480   24.1724 O   0  0  0  0  0  0  0  0  0  0  0  0
  -17.7595  -19.3390   20.0038 O   0  0  0  0  0  0  0  0  0  0  0  0
  -28.4006  -13.3578   21.3140 O   0  0  0  0  0  0  0  0  0  0  0  0
  -20.2862  -27.4615   21.2609 O   0  0  0  0  0  0  0  0  0  1  0  0
  -30.9600   -8.7442   19.7116 F   0  0  0  0  0  0  0  0  0  0  0  0
  -30.2585  -13.4042   19.2674 F   0  0  0  0  0  0  0  0  0  0  0  0
  1  2  1  0  0  0  0
  1  7  2  0  0  0  0
  2  8  2  0  0  0  0
  3  6  2  0  0  0  0
  3 10  1  0  0  0  0
  4 11  2  0  0  0  0
  4 19  1  0  0  0  0
  5 12  1  0  0  0  0
  5 19  2  0  0  0  0
  6 20  1  0  0  0  0
  7 22  1  0  0  0  0
  8 24  1  0  0  0  0
  9 13  2  0  0  0  0
  9 23  1  0  0  0  0
 10 26  2  0  0  0  0
 11 27  1  0  0  0  0
 12 27  2  0  0  0  0
 13 28  1  0  0  0  0
 14 15  2  0  0  0  0
 14 29  1  0  0  0  0
 15 30  1  0  0  0  0
 16 20  2  0  0  0  0
 16 26  1  0  0  0  0
 17 25  1  0  0  0  0
 17 28  2  0  0  0  0
 18 30  2  0  0  0  0
 18 31  1  0  0  0  0
 19 32  1  0  0  0  0
 20 35  1  0  0  0  0
 21 32  1  0  0  0  0
 21 33  2  0  0  0  0
 21 36  1  0  0  0  0
 22 24  2  0  0  0  0
 22 41  1  0  0  0  0
 23 25  2  0  0  0  0
 23 42  1  0  0  0  0
 24 52  1  0  0  0  0
 25 43  1  0  0  0  0
 26 71  1  0  0  0  0
 27 82  1  0  0  0  0
 28 83  1  0  0  0  0
 29 31  2  0  0  0  0
 29 82  1  0  0  0  0
 30 84  1  0  0  0  0
 31 85  1  0  0  0  0
 32 64  2  0  0  0  0
 33 65  1  0  0  0  0
 33 69  1  0  0  0  0
 34 53  1  0  0  0  0
 34 66  1  0  0  0  0
 34 76  2  0  0  0  0
 35 66  1  0  0  0  0
 35 74  2  0  0  0  0
 36 70  1  0  0  0  0
 36 77  2  0  0  0  0
 37 54  1  0  0  0  0
 37 72  1  0  0  0  0
 37 78  2  0  0  0  0
 38 61  1  0  0  0  0
 38 67  1  0  0  0  0
 38 79  2  0  0  0  0
 39 62  1  0  0  0  0
 39 73  1  0  0  0  0
 39 80  2  0  0  0  0
 40 68  1  0  0  0  0
 40 71  1  0  0  0  0
 40 81  2  0  0  0  0
 41 44  1  0  0  0  0
 42 54  1  0  0  0  0
 43 67  1  0  0  0  0
 44 46  1  0  0  0  0
 45 47  1  0  0  0  0
 45 49  1  0  0  0  0
 46 52  1  0  0  0  0
 47 55  1  0  0  0  0
 48 50  1  0  0  0  0
 48 53  1  0  0  0  0
 49 68  1  0  0  0  0
 50 66  1  0  0  0  0
 51 55  1  0  0  0  0
 51 68  1  0  0  0  0
 52 72  1  0  0  0  0
 53 83  1  0  0  0  0
 54 67  1  0  0  0  0
 55 65  1  0  0  0  0
 56 62  1  0  0  0  0
 57 63  1  0  0  0  0
 58 63  1  0  0  0  0
 59 63  1  0  0  0  0
 60 75  1  0  0  0  0
 61 63  1  0  0  0  0
 61 73  1  0  0  0  0
 62 75  1  0  0  0  0
 64 65  1  0  0  0  0
M  CHG  2  74   1  75   1
M  ISO  4  40 100  53 101  71 100  83 101
M  END
> <Batch ID>
0153

> <Smiles>
CNC(C)C(=O)NC(C(=O)N1Cc2cc([101O:1][101CH:1]3CCN(C(=N)c4cccc([100NH:0][100C:0](=O)N5CCCC(n6nc(-c7ccc(Oc8ccc(F)cc8F)cc7)c(C(N)=O)c6N)C5)c4)C3=O)ccc2CC1C(=O)NC1CCCc2ccccc21)C(C)(C)C

> <Shape>
0.278

> <Color>
0.077

> <Negative vol penalty>
0.000

$$$$

  -OEChem-04052303303D

 87 96  0     1  0  0  0  0  0999 V2000
  -18.3977  -27.3120   22.7148 C   0  0  0  0  0  0  0  0  0  0  0  0
  -19.2120  -26.2209   23.0009 C   0  0  0  0  0  0  0  0  0  0  0  0
  -24.2440   -9.5555   20.8442 C   0  0  0  0  0  0  0  0  0  0  0  0
  -24.5751  -10.4206   23.0756 C   0  0  0  0  0  0  0  0  0  0  0  0
  -18.9677  -28.5608   22.4711 C   0  0  0  0  0  0  0  0  0  0  0  0
  -20.5970  -26.3779   23.0424 C   0  0  0  0  0  0  0  0  0  0  0  0
  -26.3997  -23.8805   26.4199 C   0  0  0  0  0  0  0  0  0  0  0  0
  -23.8808   -8.3189   21.3776 C   0  0  0  0  0  0  0  0  0  0  0  0
  -24.2118   -9.1840   23.6090 C   0  0  0  0  0  0  0  0  0  0  0  0
  -27.6561  -23.3413   26.1470 C   0  0  0  0  0  0  0  0  0  0  0  0
  -21.3599   -7.4743   24.2123 C   0  0  0  0  0  0  0  0  0  0  0  0
  -20.4753   -7.4700   25.2907 C   0  0  0  0  0  0  0  0  0  0  0  0
  -29.6121  -20.0159   20.8023 C   0  0  0  0  0  0  0  0  0  0  0  0
  -28.5249  -25.5628   25.7876 C   0  0  0  0  0  0  0  0  0  0  0  0
  -22.1362   -6.3589   26.6487 C   0  0  0  0  0  0  0  0  0  0  0  0
  -27.8996  -21.3876   21.5692 C   0  0  0  0  0  0  0  0  0  0  0  0
  -24.5912  -10.6063   21.6933 C   0  0  0  0  0  0  0  0  0  0  0  0
  -29.1802  -21.3484   21.0631 C   0  0  0  0  0  0  0  0  0  0  0  0
  -24.1165  -12.9665   20.8496 C   0  0  0  0  0  0  0  0  0  0  0  0
  -20.3598  -28.7353   22.5191 C   0  0  0  0  0  0  0  0  0  0  0  0
  -26.1935  -25.2666   26.3679 C   0  0  0  0  0  0  0  0  0  0  0  0
  -21.1862  -27.6299   22.7978 C   0  0  0  0  0  0  0  0  0  0  0  0
  -27.2655  -26.1173   26.0628 C   0  0  0  0  0  0  0  0  0  0  0  0
  -23.8647   -8.1331   22.7599 C   0  0  0  0  0  0  0  0  0  0  0  0
  -28.7182  -24.1822   25.8280 C   0  0  0  0  0  0  0  0  0  0  0  0
  -22.6327   -6.9209   24.3520 C   0  0  0  0  0  0  0  0  0  0  0  0
  -20.8634   -6.9123   26.5090 C   0  0  0  0  0  0  0  0  0  0  0  0
  -23.0208   -6.3632   25.5702 C   0  0  0  0  0  0  0  0  0  0  0  0
  -24.9671  -11.8838   21.1430 C   0  0  0  0  0  0  0  0  0  0  0  0
  -24.9530  -13.9350   20.3509 C   0  0  0  0  0  0  0  0  0  0  0  0
  -28.6451  -19.0873   21.1193 C   0  0  0  0  0  0  0  0  0  0  0  0
  -30.0077  -22.5434   20.8194 C   0  0  0  0  0  0  0  0  0  0  0  0
  -22.6971  -13.0861   21.0133 C   0  0  0  0  0  0  0  0  0  0  0  0
  -32.5552  -22.6811   24.9270 C   0  0  0  0  0  0  0  0  0  0  0  0
  -24.3693  -27.1991   24.6240 C   0  0  0  0  0  0  0  0  0  0  0  0
  -25.5070  -29.4626   26.6499 C   0  0  0  0  0  0  0  0  0  0  0  0
  -27.9662  -30.4566   28.7973 C   0  0  0  0  0  0  0  0  0  0  0  0
  -29.6850  -16.8623   20.5584 C   0  0  0  0  0  0  0  0  0  0  0  0
  -20.9325  -30.0940   22.2021 C   0  0  0  0  0  0  0  0  0  0  0  0
  -24.8386  -25.8343   26.6911 C   0  0  0  0  0  0  0  0  0  0  0  0
  -27.1013  -27.6137   26.0136 C   0  0  0  0  0  0  0  0  0  0  0  0
  -22.3874  -30.2577   22.6343 C   0  0  0  0  0  0  0  0  0  0  0  0
  -29.8105  -13.6889   18.9488 C   0  0  0  0  0  0  0  0  0  0  0  0
  -23.2101  -29.0454   22.2096 C   0  0  0  0  0  0  0  0  0  0  0  0
  -28.4917  -13.0254   19.3520 C   0  0  0  0  0  0  0  0  0  0  0  0
  -32.5520  -24.0937   22.8596 C   0  0  0  0  0  0  0  0  0  0  0  0
  -30.3936  -14.5282   20.0843 C   0  0  0  0  0  0  0  0  0  0  0  0
  -31.6519  -24.1783   21.6323 C   0  0  0  0  0  0  0  0  0  0  0  0
  -28.1561  -14.8562   21.0617 C   0  0  0  0  0  0  0  0  0  0  0  0
  -30.8910  -22.3680   23.1095 C   0  0  0  0  0  0  0  0  0  0  0  0
  -22.6914  -27.7656   22.8763 C   0  0  1  0  0  0  0  0  0  0  0  0
  -24.6186  -27.2257   26.1054 C   0  0  1  0  0  0  0  0  0  0  0  0
  -27.4974  -14.0524   19.9286 C   0  0  2  0  0  0  0  0  0  0  0  0
  -31.6927  -23.3941   23.9242 C   0  0  1  0  0  0  0  0  0  0  0  0
  -33.5229  -23.5266   25.7099 C   0  0  0  0  0  0  0  0  0  0  0  0
  -28.6372  -32.3723   30.2728 C   0  0  0  0  0  0  0  0  0  0  0  0
  -26.3693  -31.0509   24.1916 C   0  0  0  0  0  0  0  0  0  0  0  0
  -27.8341  -32.4296   25.6822 C   0  0  0  0  0  0  0  0  0  0  0  0
  -25.3627  -32.4262   26.0218 C   0  0  0  0  0  0  0  0  0  0  0  0
  -27.8921  -28.7646   31.2243 C   0  0  0  0  0  0  0  0  0  0  0  0
  -30.7754  -24.3799   24.6511 C   0  0  0  0  0  0  0  0  0  1  0  0
  -26.7047  -30.3815   26.6625 C   0  0  1  0  0  0  0  0  0  0  0  0
  -27.9057  -31.0412   30.1969 C   0  0  2  0  0  0  0  0  0  0  0  0
  -26.5707  -31.5438   25.6385 C   0  0  0  0  0  0  0  0  0  0  0  0
  -26.2459  -12.1399   20.8545 N   0  0  0  0  0  0  0  0  0  0  0  0
  -26.2050  -13.3945   20.3746 N   0  0  0  0  0  0  0  0  0  0  0  0
  -30.7921  -22.9965   21.7805 N   0  0  0  0  0  0  0  0  0  0  0  0
  -25.7558  -28.1202   26.3311 N   0  0  0  0  0  0  0  0  0  0  0  0
  -29.3968  -15.4812   20.5774 N   0  0  0  0  0  0  0  0  0  0  0  0
  -24.7324  -15.1877   19.8987 N   0  0  0  0  0  0  0  0  0  0  0  0
  -21.9911  -11.9959   21.5399 N   0  0  0  0  0  0  0  0  0  0  0  0
  -28.6495  -17.6737   21.0210 N   0  0  0  0  0  0  0  0  0  0  0  0
  -23.1351  -27.6970   24.2521 N   0  0  0  0  0  0  0  0  0  0  0  0
  -26.8692  -30.8188   28.0445 N   0  0  0  0  0  0  0  0  0  0  0  0
  -29.9530  -23.1456   19.6350 N   0  3  0  0  0  0  0  0  0  0  0  0
  -28.5283  -30.1062   31.1762 N   0  3  0  0  0  0  0  0  0  0  0  0
  -22.0712  -14.1229   20.6865 O   0  0  0  0  0  0  0  0  0  0  0  0
  -32.4728  -21.4662   25.1009 O   0  0  0  0  0  0  0  0  0  0  0  0
  -25.2334  -26.7608   23.8736 O   0  0  0  0  0  0  0  0  0  0  0  0
  -24.3928  -29.9177   26.9203 O   0  0  0  0  0  0  0  0  0  0  0  0
  -28.8957  -29.7523   28.4092 O   0  0  0  0  0  0  0  0  0  0  0  0
  -30.7600  -17.2952   20.1355 O   0  0  0  0  0  0  0  0  0  0  0  0
  -23.5100   -6.9266   23.2807 O   0  0  0  0  0  0  0  0  0  0  0  0
  -29.9454  -23.6585   25.5606 O   0  0  0  0  0  0  0  0  0  1  0  0
  -20.0144   -6.9096   27.5449 F   0  0  0  0  0  0  0  0  0  0  0  0
  -24.2427   -5.8312   25.7109 F   0  0  0  0  0  0  0  0  0  0  0  0
  -27.2235  -19.8224   21.7282 S   0  0  0  0  0  0  0  0  0  0  0  0
  1  2  1  0  0  0  0
  1  5  2  0  0  0  0
  2  6  2  0  0  0  0
  3  8  2  0  0  0  0
  3 17  1  0  0  0  0
  4  9  1  0  0  0  0
  4 17  2  0  0  0  0
  5 20  1  0  0  0  0
  6 22  1  0  0  0  0
  7 10  2  0  0  0  0
  7 21  1  0  0  0  0
  8 24  1  0  0  0  0
  9 24  2  0  0  0  0
 10 25  1  0  0  0  0
 11 12  2  0  0  0  0
 11 26  1  0  0  0  0
 12 27  1  0  0  0  0
 13 18  1  0  0  0  0
 13 31  2  0  0  0  0
 14 23  1  0  0  0  0
 14 25  2  0  0  0  0
 15 27  2  0  0  0  0
 15 28  1  0  0  0  0
 16 18  2  0  0  0  0
 16 87  1  0  0  0  0
 17 29  1  0  0  0  0
 18 32  1  0  0  0  0
 19 29  1  0  0  0  0
 19 30  2  0  0  0  0
 19 33  1  0  0  0  0
 20 22  2  0  0  0  0
 20 39  1  0  0  0  0
 21 23  2  0  0  0  0
 21 40  1  0  0  0  0
 22 51  1  0  0  0  0
 23 41  1  0  0  0  0
 24 83  1  0  0  0  0
 25 84  1  0  0  0  0
 26 28  2  0  0  0  0
 26 83  1  0  0  0  0
 27 85  1  0  0  0  0
 28 86  1  0  0  0  0
 29 65  2  0  0  0  0
 30 66  1  0  0  0  0
 30 70  1  0  0  0  0
 31 72  1  0  0  0  0
 31 87  1  0  0  0  0
 32 67  1  0  0  0  0
 32 75  2  0  0  0  0
 33 71  1  0  0  0  0
 33 77  2  0  0  0  0
 34 54  1  0  0  0  0
 34 55  1  0  0  0  0
 34 78  2  0  0  0  0
 35 52  1  0  0  0  0
 35 73  1  0  0  0  0
 35 79  2  0  0  0  0
 36 62  1  0  0  0  0
 36 68  1  0  0  0  0
 36 80  2  0  0  0  0
 37 63  1  0  0  0  0
 37 74  1  0  0  0  0
 37 81  2  0  0  0  0
 38 69  1  0  0  0  0
 38 72  1  0  0  0  0
 38 82  2  0  0  0  0
 39 42  1  0  0  0  0
 40 52  1  0  0  0  0
 41 68  1  0  0  0  0
 42 44  1  0  0  0  0
 43 45  1  0  0  0  0
 43 47  1  0  0  0  0
 44 51  1  0  0  0  0
 45 53  1  0  0  0  0
 46 48  1  0  0  0  0
 46 54  1  0  0  0  0
 47 69  1  0  0  0  0
 48 67  1  0  0  0  0
 49 53  1  0  0  0  0
 49 69  1  0  0  0  0
 50 54  1  0  0  0  0
 50 67  1  0  0  0  0
 51 73  1  0  0  0  0
 52 68  1  0  0  0  0
 53 66  1  0  0  0  0
 54 61  1  0  0  0  0
 56 63  1  0  0  0  0
 57 64  1  0  0  0  0
 58 64  1  0  0  0  0
 59 64  1  0  0  0  0
 60 76  1  0  0  0  0
 61 84  1  0  0  0  0
 62 64  1  0  0  0  0
 62 74  1  0  0  0  0
 63 76  1  0  0  0  0
 65 66  1  0  0  0  0
M  CHG  2  75   1  76   1
M  ISO  4  38 100  61 101  72 100  84 101
M  END
> <Batch ID>
0153

> <Smiles>
CNC(C)C(=O)NC(C(=O)N1Cc2cc([101O:1][101CH2:1]C3(C(C)=O)CCN(C(=N)c4csc([100NH:0][100C:0](=O)N5CCCC(n6nc(-c7ccc(Oc8ccc(F)cc8F)cc7)c(C(N)=O)c6N)C5)c4)C3)ccc2CC1C(=O)NC1CCCc2ccccc21)C(C)(C)C

> <Shape>
0.266

> <Color>
0.121

> <Negative vol penalty>
0.000

$$$$

  -OEChem-04052303303D

 83 92  0     1  0  0  0  0  0999 V2000
  -29.2405  -32.6315   26.3044 C   0  0  0  0  0  0  0  0  0  0  0  0
  -29.0242  -31.4599   25.5860 C   0  0  0  0  0  0  0  0  0  0  0  0
  -24.7057   -8.1818   21.1407 C   0  0  0  0  0  0  0  0  0  0  0  0
  -24.2434  -10.1487   22.4652 C   0  0  0  0  0  0  0  0  0  0  0  0
  -28.1589  -33.4258   26.6824 C   0  0  0  0  0  0  0  0  0  0  0  0
  -27.7258  -31.0815   25.2461 C   0  0  0  0  0  0  0  0  0  0  0  0
  -27.3505  -29.5257   20.4416 C   0  0  0  0  0  0  0  0  0  0  0  0
  -24.2082   -7.3755   22.1644 C   0  0  0  0  0  0  0  0  0  0  0  0
  -23.7458   -9.3425   23.4889 C   0  0  0  0  0  0  0  0  0  0  0  0
  -27.7941  -28.2357   20.1535 C   0  0  0  0  0  0  0  0  0  0  0  0
  -21.1838   -6.4239   23.3391 C   0  0  0  0  0  0  0  0  0  0  0  0
  -20.3194   -5.3876   22.9861 C   0  0  0  0  0  0  0  0  0  0  0  0
  -25.5144  -27.4482   20.1983 C   0  0  0  0  0  0  0  0  0  0  0  0
  -21.8591   -3.7822   23.9291 C   0  0  0  0  0  0  0  0  0  0  0  0
  -27.8787  -18.9452   20.9885 C   0  0  0  0  0  0  0  0  0  0  0  0
  -24.7234   -9.5684   21.2911 C   0  0  0  0  0  0  0  0  0  0  0  0
  -24.7602  -10.4905   18.9128 C   0  0  0  0  0  0  0  0  0  0  0  0
  -26.8474  -33.0620   26.3386 C   0  0  0  0  0  0  0  0  0  0  0  0
  -25.9841  -29.7849   20.6212 C   0  0  0  0  0  0  0  0  0  0  0  0
  -26.6255  -31.8711   25.6210 C   0  0  0  0  0  0  0  0  0  0  0  0
  -25.0558  -28.7428   20.4860 C   0  0  0  0  0  0  0  0  0  0  0  0
  -23.7283   -7.9558   23.3385 C   0  0  0  0  0  0  0  0  0  0  0  0
  -26.8763  -27.1962   20.0347 C   0  0  0  0  0  0  0  0  0  0  0  0
  -22.3858   -6.1393   23.9870 C   0  0  0  0  0  0  0  0  0  0  0  0
  -20.6571   -4.0668   23.2811 C   0  0  0  0  0  0  0  0  0  0  0  0
  -22.7235   -4.8185   24.2820 C   0  0  0  0  0  0  0  0  0  0  0  0
  -25.2377  -10.4018   20.2342 C   0  0  0  0  0  0  0  0  0  0  0  0
  -27.0038  -20.0201   21.3165 C   0  0  0  0  0  0  0  0  0  0  0  0
  -25.5809  -11.4138   18.3124 C   0  0  0  0  0  0  0  0  0  0  0  0
  -27.1936  -17.7501   21.0223 C   0  0  0  0  0  0  0  0  0  0  0  0
  -23.6721   -9.8001   18.2843 C   0  0  0  0  0  0  0  0  0  0  0  0
  -24.2004  -30.8499   23.0270 C   0  0  0  0  0  0  0  0  0  0  0  0
  -21.8511  -30.8080   20.7907 C   0  0  0  0  0  0  0  0  0  0  0  0
  -20.7853  -28.6145   18.1317 C   0  0  0  0  0  0  0  0  0  0  0  0
  -28.8499  -15.9504   20.4190 C   0  0  0  0  0  0  0  0  0  0  0  0
  -25.7064  -33.9282   26.8103 C   0  0  0  0  0  0  0  0  0  0  0  0
  -25.5194  -31.1870   20.9051 C   0  0  0  0  0  0  0  0  0  0  0  0
  -23.5763  -28.9725   20.6495 C   0  0  0  0  0  0  0  0  0  0  0  0
  -24.3912  -33.6504   26.0868 C   0  0  0  0  0  0  0  0  0  0  0  0
  -29.4238  -22.8080   21.7982 C   0  0  0  0  0  0  0  0  0  0  0  0
  -30.0301  -13.1719   18.5311 C   0  0  0  0  0  0  0  0  0  0  0  0
  -24.1318  -32.1493   26.0085 C   0  0  0  0  0  0  0  0  0  0  0  0
  -28.5384  -24.0161   21.5203 C   0  0  0  0  0  0  0  0  0  0  0  0
  -28.8891  -12.1567   18.6282 C   0  0  0  0  0  0  0  0  0  0  0  0
  -28.6079  -21.6086   22.2713 C   0  0  0  0  0  0  0  0  0  0  0  0
  -30.2066  -13.9529   19.8321 C   0  0  0  0  0  0  0  0  0  0  0  0
  -26.6273  -22.4461   20.9944 C   0  0  0  0  0  0  0  0  0  0  0  0
  -27.8475  -13.5818   20.4368 C   0  0  0  0  0  0  0  0  0  0  0  0
  -25.2337  -31.4398   25.2122 C   0  0  1  0  0  0  0  0  0  0  0  0
  -24.1504  -31.2383   21.5764 C   0  0  1  0  0  0  0  0  0  0  0  0
  -27.4422  -23.6565   20.5142 C   0  0  1  0  0  0  0  0  0  0  0  0
  -27.5891  -12.8162   19.1289 C   0  0  2  0  0  0  0  0  0  0  0  0
  -19.5504  -29.1101   16.0041 C   0  0  0  0  0  0  0  0  0  0  0  0
  -19.3639  -30.0977   22.4092 C   0  0  0  0  0  0  0  0  0  0  0  0
  -18.4430  -28.9742   20.3702 C   0  0  0  0  0  0  0  0  0  0  0  0
  -18.9162  -31.4232   20.3363 C   0  0  0  0  0  0  0  0  0  0  0  0
  -22.8948  -27.3591   16.4786 C   0  0  0  0  0  0  0  0  0  0  0  0
  -26.5275  -24.8550   20.2646 C   0  0  0  0  0  0  0  0  0  1  0  0
  -20.8443  -29.7879   20.3167 C   0  0  1  0  0  0  0  0  0  0  0  0
  -20.9103  -28.8672   16.6401 C   0  0  2  0  0  0  0  0  0  0  0  0
  -19.4170  -30.0629   20.8688 C   0  0  0  0  0  0  0  0  0  0  0  0
  -26.2809  -11.2046   20.4604 N   0  0  0  0  0  0  0  0  0  0  0  0
  -25.7371  -19.7139   21.5866 N   0  0  0  0  0  0  0  0  0  0  0  0
  -26.4658  -11.8064   19.2731 N   0  0  0  0  0  0  0  0  0  0  0  0
  -27.5115  -21.3254   21.3361 N   0  0  2  0  0  0  0  0  0  0  0  0
  -23.1719  -30.3596   20.9326 N   0  0  0  0  0  0  0  0  0  0  0  0
  -28.9354  -14.5531   20.2427 N   0  0  0  0  0  0  0  0  0  0  0  0
  -25.6248  -11.9199   17.0617 N   0  0  0  0  0  0  0  0  0  0  0  0
  -22.9322   -8.8853   19.0460 N   0  0  0  0  0  0  0  0  0  0  0  0
  -27.5833  -16.4098   20.7783 N   0  0  0  0  0  0  0  0  0  0  0  0
  -25.0386  -31.6384   23.7920 N   0  0  0  0  0  0  0  0  0  0  0  0
  -20.9296  -29.7762   18.8604 N   0  0  0  0  0  0  0  0  0  0  0  0
  -21.5413  -27.6965   15.9675 N   0  3  0  0  0  0  0  0  0  0  0  0
  -23.3753   -9.9766   17.0784 O   0  0  0  0  0  0  0  0  0  0  0  0
  -23.5271  -29.9057   23.4232 O   0  0  0  0  0  0  0  0  0  0  0  0
  -21.4806  -31.9622   21.0195 O   0  0  0  0  0  0  0  0  0  0  0  0
  -20.5765  -27.4989   18.6032 O   0  0  0  0  0  0  0  0  0  0  0  0
  -29.8216  -16.6882   20.2362 O   0  0  0  0  0  0  0  0  0  0  0  0
  -23.2425   -7.1693   24.3375 O   0  0  0  0  0  0  0  0  0  0  0  0
  -27.3067  -25.9360   19.7543 O   0  0  0  0  0  0  0  0  0  1  0  0
  -19.8262   -3.0718   22.9434 F   0  0  0  0  0  0  0  0  0  0  0  0
  -23.8763   -4.5391   24.9054 F   0  0  0  0  0  0  0  0  0  0  0  0
  -25.5649  -18.0667   21.4476 S   0  0  0  0  0  0  0  0  0  0  0  0
  1  2  1  0  0  0  0
  1  5  2  0  0  0  0
  2  6  2  0  0  0  0
  3  8  2  0  0  0  0
  3 16  1  0  0  0  0
  4  9  1  0  0  0  0
  4 16  2  0  0  0  0
  5 18  1  0  0  0  0
  6 20  1  0  0  0  0
  7 10  2  0  0  0  0
  7 19  1  0  0  0  0
  8 22  1  0  0  0  0
  9 22  2  0  0  0  0
 10 23  1  0  0  0  0
 11 12  2  0  0  0  0
 11 24  1  0  0  0  0
 12 25  1  0  0  0  0
 13 21  1  0  0  0  0
 13 23  2  0  0  0  0
 14 25  2  0  0  0  0
 14 26  1  0  0  0  0
 15 28  1  0  0  0  0
 15 30  2  0  0  0  0
 16 27  1  0  0  0  0
 17 27  1  0  0  0  0
 17 29  2  0  0  0  0
 17 31  1  0  0  0  0
 18 20  2  0  0  0  0
 18 36  1  0  0  0  0
 19 21  2  0  0  0  0
 19 37  1  0  0  0  0
 20 49  1  0  0  0  0
 21 38  1  0  0  0  0
 22 79  1  0  0  0  0
 23 80  1  0  0  0  0
 24 26  2  0  0  0  0
 24 79  1  0  0  0  0
 25 81  1  0  0  0  0
 26 82  1  0  0  0  0
 27 62  2  0  0  0  0
 28 63  2  0  0  0  0
 28 65  1  0  0  0  0
 29 64  1  0  0  0  0
 29 68  1  0  0  0  0
 30 70  1  0  0  0  0
 30 83  1  0  0  0  0
 31 69  1  0  0  0  0
 31 74  2  0  0  0  0
 32 50  1  0  0  0  0
 32 71  1  0  0  0  0
 32 75  2  0  0  0  0
 33 59  1  0  0  0  0
 33 66  1  0  0  0  0
 33 76  2  0  0  0  0
 34 60  1  0  0  0  0
 34 72  1  0  0  0  0
 34 77  2  0  0  0  0
 35 67  1  0  0  0  0
 35 70  1  0  0  0  0
 35 78  2  0  0  0  0
 36 39  1  0  0  0  0
 37 50  1  0  0  0  0
 38 66  1  0  0  0  0
 39 42  1  0  0  0  0
 40 43  1  0  0  0  0
 40 45  1  0  0  0  0
 41 44  1  0  0  0  0
 41 46  1  0  0  0  0
 42 49  1  0  0  0  0
 43 51  1  0  0  0  0
 44 52  1  0  0  0  0
 45 65  1  0  0  0  0
 46 67  1  0  0  0  0
 47 51  1  0  0  0  0
 47 65  1  0  0  0  0
 48 52  1  0  0  0  0
 48 67  1  0  0  0  0
 49 71  1  0  0  0  0
 50 66  1  0  0  0  0
 51 58  1  0  0  0  0
 52 64  1  0  0  0  0
 53 60  1  0  0  0  0
 54 61  1  0  0  0  0
 55 61  1  0  0  0  0
 56 61  1  0  0  0  0
 57 73  1  0  0  0  0
 58 80  1  0  0  0  0
 59 61  1  0  0  0  0
 59 72  1  0  0  0  0
 60 73  1  0  0  0  0
 62 64  1  0  0  0  0
 63 83  1  0  0  0  0
M  CHG  1  73   1
M  ISO  4  35 100  58 101  70 100  80 101
M  END
> <Batch ID>
0153

> <Smiles>
CNC(C)C(=O)NC(C(=O)N1Cc2cc([101O:1][101CH2:1]C3CCCN(c4cc([100NH:0][100C:0](=O)N5CCCC(n6nc(-c7ccc(Oc8ccc(F)cc8F)cc7)c(C(N)=O)c6N)C5)sn4)C3)ccc2CC1C(=O)NC1CCCc2ccccc21)C(C)(C)C

> <Shape>
0.280

> <Color>
0.096

> <Negative vol penalty>
0.000

$$$$

  -OEChem-04052303303D

 83 92  0     1  0  0  0  0  0999 V2000
  -17.9514  -30.9934   24.2417 C   0  0  0  0  0  0  0  0  0  0  0  0
  -19.3392  -30.9875   24.3386 C   0  0  0  0  0  0  0  0  0  0  0  0
  -23.0704  -10.1862   20.0027 C   0  0  0  0  0  0  0  0  0  0  0  0
  -24.0889   -9.5345   22.0943 C   0  0  0  0  0  0  0  0  0  0  0  0
  -17.2965  -29.9643   23.5665 C   0  0  0  0  0  0  0  0  0  0  0  0
  -20.0729  -29.9517   23.7612 C   0  0  0  0  0  0  0  0  0  0  0  0
  -26.3550  -28.6659   20.5676 C   0  0  0  0  0  0  0  0  0  0  0  0
  -22.3179   -9.0117   20.0031 C   0  0  0  0  0  0  0  0  0  0  0  0
  -23.3363   -8.3601   22.0948 C   0  0  0  0  0  0  0  0  0  0  0  0
  -27.4503  -27.8075   20.6519 C   0  0  0  0  0  0  0  0  0  0  0  0
  -20.1716   -7.4318   22.8319 C   0  0  0  0  0  0  0  0  0  0  0  0
  -19.5534   -7.0605   24.0258 C   0  0  0  0  0  0  0  0  0  0  0  0
  -26.2167  -26.1244   19.4417 C   0  0  0  0  0  0  0  0  0  0  0  0
  -28.7020  -20.4189   18.5750 C   0  0  0  0  0  0  0  0  0  0  0  0
  -20.7985   -4.9900   24.0265 C   0  0  0  0  0  0  0  0  0  0  0  0
  -23.9559  -10.4476   21.0482 C   0  0  0  0  0  0  0  0  0  0  0  0
  -24.3752  -12.9005   21.6093 C   0  0  0  0  0  0  0  0  0  0  0  0
  -18.0231  -28.9205   22.9722 C   0  0  0  0  0  0  0  0  0  0  0  0
  -25.1764  -28.2554   19.9282 C   0  0  0  0  0  0  0  0  0  0  0  0
  -19.4270  -28.9070   23.0785 C   0  0  0  0  0  0  0  0  0  0  0  0
  -25.1087  -26.9804   19.3485 C   0  0  0  0  0  0  0  0  0  0  0  0
  -28.6466  -19.0177   18.4341 C   0  0  0  0  0  0  0  0  0  0  0  0
  -22.4508   -8.0987   21.0492 C   0  0  0  0  0  0  0  0  0  0  0  0
  -27.3802  -26.5355   20.0914 C   0  0  0  0  0  0  0  0  0  0  0  0
  -21.1031   -6.5822   22.2351 C   0  0  0  0  0  0  0  0  0  0  0  0
  -19.8669   -5.8396   24.6232 C   0  0  0  0  0  0  0  0  0  0  0  0
  -21.4166   -5.3614   22.8325 C   0  0  0  0  0  0  0  0  0  0  0  0
  -24.7339  -11.6603   21.0480 C   0  0  0  0  0  0  0  0  0  0  0  0
  -28.2337  -18.3990   19.5781 C   0  0  0  0  0  0  0  0  0  0  0  0
  -25.4454  -13.7197   21.3444 C   0  0  0  0  0  0  0  0  0  0  0  0
  -28.3153  -20.7952   19.8518 C   0  0  0  0  0  0  0  0  0  0  0  0
  -23.1815  -13.2783   22.3078 C   0  0  0  0  0  0  0  0  0  0  0  0
  -22.1616  -27.8275   20.8403 C   0  0  0  0  0  0  0  0  0  0  0  0
  -21.6862  -27.3108   17.6734 C   0  0  0  0  0  0  0  0  0  0  0  0
  -22.9971  -26.3951   14.6584 C   0  0  0  0  0  0  0  0  0  0  0  0
  -28.4842  -23.3073   19.8622 C   0  0  0  0  0  0  0  0  0  0  0  0
  -29.1578  -15.5551   17.5273 C   0  0  0  0  0  0  0  0  0  0  0  0
  -17.2682  -27.8051   22.2934 C   0  0  0  0  0  0  0  0  0  0  0  0
  -24.0131  -29.2030   19.8224 C   0  0  0  0  0  0  0  0  0  0  0  0
  -23.8736  -26.4990   18.6334 C   0  0  0  0  0  0  0  0  0  0  0  0
  -28.9288  -18.0387   17.3691 C   0  0  0  0  0  0  0  0  0  0  0  0
  -28.1519  -16.9324   19.4640 C   0  0  0  0  0  0  0  0  0  0  0  0
  -18.1419  -26.9418   21.3870 C   0  0  0  0  0  0  0  0  0  0  0  0
  -30.0694  -12.6561   19.5888 C   0  0  0  0  0  0  0  0  0  0  0  0
  -19.4390  -26.5659   22.0963 C   0  0  0  0  0  0  0  0  0  0  0  0
  -28.7188  -12.2176   20.1593 C   0  0  0  0  0  0  0  0  0  0  0  0
  -29.9267  -13.3122   18.2170 C   0  0  0  0  0  0  0  0  0  0  0  0
  -27.6076  -13.9676   18.7268 C   0  0  0  0  0  0  0  0  0  0  0  0
  -20.2593  -27.8139   22.4440 C   0  0  1  0  0  0  0  0  0  0  0  0
  -22.6821  -28.4924   19.5974 C   0  0  1  0  0  0  0  0  0  0  0  0
  -27.7019  -13.3751   20.1390 C   0  0  1  0  0  0  0  0  0  0  0  0
  -22.3548  -26.0305   12.2601 C   0  0  0  0  0  0  0  0  0  0  0  0
  -29.1892  -24.3691   22.0382 C   0  0  0  0  0  0  0  0  0  0  0  0
  -20.3725  -24.6630   18.4303 C   0  0  0  0  0  0  0  0  0  0  0  0
  -20.6187  -23.9393   16.0462 C   0  0  0  0  0  0  0  0  0  0  0  0
  -19.2106  -25.9204   16.6073 C   0  0  0  0  0  0  0  0  0  0  0  0
  -24.8588  -28.4955   13.7196 C   0  0  0  0  0  0  0  0  0  0  0  0
  -21.7271  -26.1025   16.7694 C   0  0  1  0  0  0  0  0  0  0  0  0
  -22.8894  -27.0232   13.2806 C   0  0  2  0  0  0  0  0  0  0  0  0
  -28.2522  -24.4542   20.8425 C   0  0  1  0  0  0  0  0  0  1  0  0
  -20.5050  -25.1644   16.9784 C   0  0  0  0  0  0  0  0  0  0  0  0
  -25.9378  -11.6848   20.4700 N   0  0  0  0  0  0  0  0  0  0  0  0
  -26.3449  -12.9504   20.6666 N   0  0  0  0  0  0  0  0  0  0  0  0
  -22.7605  -27.4600   18.5619 N   0  0  0  0  0  0  0  0  0  0  0  0
  -28.6610  -16.7464   18.0676 N   0  0  0  0  0  0  0  0  0  0  0  0
  -28.9314  -14.3823   18.2542 N   0  0  0  0  0  0  0  0  0  0  0  0
  -25.6953  -15.0158   21.6273 N   0  0  0  0  0  0  0  0  0  0  0  0
  -22.1820  -12.3133   22.4929 N   0  0  0  0  0  0  0  0  0  0  0  0
  -28.2175  -22.0318   20.4279 N   0  0  0  0  0  0  0  0  0  0  0  0
  -20.9415  -28.3137   21.2696 N   0  0  0  0  0  0  0  0  0  0  0  0
  -21.8619  -26.6143   15.4098 N   0  0  0  0  0  0  0  0  0  0  0  0
  -24.2258  -27.4960   12.8210 N   0  3  0  0  0  0  0  0  0  0  0  0
  -22.9993  -14.4417   22.7401 O   0  0  0  0  0  0  0  0  0  0  0  0
  -22.8178  -26.9383   21.3698 O   0  0  0  0  0  0  0  0  0  0  0  0
  -20.7396  -28.0973   17.5892 O   0  0  0  0  0  0  0  0  0  0  0  0
  -23.9875  -25.7692   15.0296 O   0  0  0  0  0  0  0  0  0  0  0  0
  -28.8483  -23.5195   18.7091 O   0  0  0  0  0  0  0  0  0  0  0  0
  -29.8166  -15.5472   16.4798 O   0  0  0  0  0  0  0  0  0  0  0  0
  -21.7165   -6.9527   21.0501 O   0  0  0  0  0  0  0  0  0  0  0  0
  -28.4563  -25.6885   20.1735 O   0  0  0  0  0  0  0  0  0  1  0  0
  -19.2744   -5.4839   25.7706 F   0  0  0  0  0  0  0  0  0  0  0  0
  -22.3116   -4.5415   22.2645 F   0  0  0  0  0  0  0  0  0  0  0  0
  -27.8991  -19.4385   20.8432 S   0  0  0  0  0  0  0  0  0  0  0  0
  1  2  1  0  0  0  0
  1  5  2  0  0  0  0
  2  6  2  0  0  0  0
  3  8  2  0  0  0  0
  3 16  1  0  0  0  0
  4  9  1  0  0  0  0
  4 16  2  0  0  0  0
  5 18  1  0  0  0  0
  6 20  1  0  0  0  0
  7 10  2  0  0  0  0
  7 19  1  0  0  0  0
  8 23  1  0  0  0  0
  9 23  2  0  0  0  0
 10 24  1  0  0  0  0
 11 12  2  0  0  0  0
 11 25  1  0  0  0  0
 12 26  1  0  0  0  0
 13 21  1  0  0  0  0
 13 24  2  0  0  0  0
 14 22  1  0  0  0  0
 14 31  2  0  0  0  0
 15 26  2  0  0  0  0
 15 27  1  0  0  0  0
 16 28  1  0  0  0  0
 17 28  1  0  0  0  0
 17 30  2  0  0  0  0
 17 32  1  0  0  0  0
 18 20  2  0  0  0  0
 18 38  1  0  0  0  0
 19 21  2  0  0  0  0
 19 39  1  0  0  0  0
 20 49  1  0  0  0  0
 21 40  1  0  0  0  0
 22 29  2  0  0  0  0
 22 41  1  0  0  0  0
 23 79  1  0  0  0  0
 24 80  1  0  0  0  0
 25 27  2  0  0  0  0
 25 79  1  0  0  0  0
 26 81  1  0  0  0  0
 27 82  1  0  0  0  0
 28 62  2  0  0  0  0
 29 42  1  0  0  0  0
 29 83  1  0  0  0  0
 30 63  1  0  0  0  0
 30 67  1  0  0  0  0
 31 69  1  0  0  0  0
 31 83  1  0  0  0  0
 32 68  1  0  0  0  0
 32 73  2  0  0  0  0
 33 50  1  0  0  0  0
 33 70  1  0  0  0  0
 33 74  2  0  0  0  0
 34 58  1  0  0  0  0
 34 64  1  0  0  0  0
 34 75  2  0  0  0  0
 35 59  1  0  0  0  0
 35 71  1  0  0  0  0
 35 76  2  0  0  0  0
 36 60  1  0  0  0  0
 36 69  1  0  0  0  0
 36 77  2  0  0  0  0
 37 65  1  0  0  0  0
 37 66  1  0  0  0  0
 37 78  2  0  0  0  0
 38 43  1  0  0  0  0
 39 50  1  0  0  0  0
 40 64  1  0  0  0  0
 41 65  1  0  0  0  0
 42 65  1  0  0  0  0
 43 45  1  0  0  0  0
 44 46  1  0  0  0  0
 44 47  1  0  0  0  0
 45 49  1  0  0  0  0
 46 51  1  0  0  0  0
 47 66  1  0  0  0  0
 48 51  1  0  0  0  0
 48 66  1  0  0  0  0
 49 70  1  0  0  0  0
 50 64  1  0  0  0  0
 51 63  1  0  0  0  0
 52 59  1  0  0  0  0
 53 60  1  0  0  0  0
 54 61  1  0  0  0  0
 55 61  1  0  0  0  0
 56 61  1  0  0  0  0
 57 72  1  0  0  0  0
 58 61  1  0  0  0  0
 58 71  1  0  0  0  0
 59 72  1  0  0  0  0
 60 80  1  0  0  0  0
 62 63  1  0  0  0  0
M  CHG  1  72   1
M  ISO  4  37 100  60 101  65 100  80 101
M  END
> <Batch ID>
0153

> <Smiles>
CNC(C)C(=O)NC(C(=O)N1Cc2cc([101O:1][101CH:1](C)C(=O)Nc3cc4c(s3)C[100N:0]([100C:0](=O)N3CCCC(n5nc(-c6ccc(Oc7ccc(F)cc7F)cc6)c(C(N)=O)c5N)C3)C4)ccc2CC1C(=O)NC1CCCc2ccccc21)C(C)(C)C

> <Shape>
0.329

> <Color>
0.166

> <Negative vol penalty>
0.000

$$$$

  -OEChem-04052303303D

 81 89  0     1  0  0  0  0  0999 V2000
  -23.3309  -24.3623   28.9431 C   0  0  0  0  0  0  0  0  0  0  0  0
  -23.6200  -24.1475   27.5993 C   0  0  0  0  0  0  0  0  0  0  0  0
  -23.1329   -9.5786   21.3156 C   0  0  0  0  0  0  0  0  0  0  0  0
  -23.4164  -10.9099   23.3116 C   0  0  0  0  0  0  0  0  0  0  0  0
  -22.9460  -25.6297   29.3782 C   0  0  0  0  0  0  0  0  0  0  0  0
  -23.5232  -25.1999   26.6897 C   0  0  0  0  0  0  0  0  0  0  0  0
  -27.4686  -25.3982   23.5212 C   0  0  0  0  0  0  0  0  0  0  0  0
  -22.4218   -8.6294   22.0497 C   0  0  0  0  0  0  0  0  0  0  0  0
  -22.7052   -9.9607   24.0458 C   0  0  0  0  0  0  0  0  0  0  0  0
  -27.4801  -24.4926   22.4612 C   0  0  0  0  0  0  0  0  0  0  0  0
  -23.1147   -6.0984   24.1801 C   0  0  0  0  0  0  0  0  0  0  0  0
  -23.4274   -4.7545   23.9754 C   0  0  0  0  0  0  0  0  0  0  0  0
  -26.6788  -26.2221   20.9828 C   0  0  0  0  0  0  0  0  0  0  0  0
  -28.9122  -18.8570   20.1868 C   0  0  0  0  0  0  0  0  0  0  0  0
  -21.1561   -4.3338   23.2674 C   0  0  0  0  0  0  0  0  0  0  0  0
  -31.0131  -19.3521   19.6232 C   0  0  0  0  0  0  0  0  0  0  0  0
  -23.6302  -10.7189   21.9466 C   0  0  0  0  0  0  0  0  0  0  0  0
  -23.8430  -12.8201   20.5158 C   0  0  0  0  0  0  0  0  0  0  0  0
  -22.8537  -26.7005   28.4751 C   0  0  0  0  0  0  0  0  0  0  0  0
  -27.0510  -26.7220   23.3219 C   0  0  0  0  0  0  0  0  0  0  0  0
  -23.1353  -26.4826   27.1129 C   0  0  0  0  0  0  0  0  0  0  0  0
  -26.6653  -27.1432   22.0413 C   0  0  0  0  0  0  0  0  0  0  0  0
  -29.7835  -19.9225   19.8570 C   0  0  0  0  0  0  0  0  0  0  0  0
  -22.2079   -8.8204   23.4148 C   0  0  0  0  0  0  0  0  0  0  0  0
  -27.0824  -24.9037   21.1924 C   0  0  0  0  0  0  0  0  0  0  0  0
  -21.8226   -6.5599   23.9285 C   0  0  0  0  0  0  0  0  0  0  0  0
  -22.4482   -3.8722   23.5190 C   0  0  0  0  0  0  0  0  0  0  0  0
  -20.8434   -5.6776   23.4721 C   0  0  0  0  0  0  0  0  0  0  0  0
  -24.3654  -11.6995   21.1889 C   0  0  0  0  0  0  0  0  0  0  0  0
  -24.9407  -13.4270   19.9562 C   0  0  0  0  0  0  0  0  0  0  0  0
  -29.6715  -17.7114   20.1308 C   0  0  0  0  0  0  0  0  0  0  0  0
  -22.4867  -13.2722   20.4064 C   0  0  0  0  0  0  0  0  0  0  0  0
  -24.6892  -28.5235   24.4534 C   0  0  0  0  0  0  0  0  0  0  0  0
  -26.2026  -30.8644   22.7944 C   0  0  0  0  0  0  0  0  0  0  0  0
  -28.2956  -31.7127   20.2359 C   0  0  0  0  0  0  0  0  0  0  0  0
  -28.2572  -21.9189   20.0116 C   0  0  0  0  0  0  0  0  0  0  0  0
  -30.1916  -15.2509   20.2792 C   0  0  0  0  0  0  0  0  0  0  0  0
  -22.3878  -28.0415   28.9842 C   0  0  0  0  0  0  0  0  0  0  0  0
  -27.0698  -27.6936   24.4699 C   0  0  0  0  0  0  0  0  0  0  0  0
  -26.2277  -28.5587   21.7704 C   0  0  0  0  0  0  0  0  0  0  0  0
  -22.6720  -29.1910   28.0209 C   0  0  0  0  0  0  0  0  0  0  0  0
  -29.7151  -11.8127   19.4862 C   0  0  0  0  0  0  0  0  0  0  0  0
  -22.2631  -28.8114   26.6012 C   0  0  0  0  0  0  0  0  0  0  0  0
  -28.2378  -11.5689   19.8031 C   0  0  0  0  0  0  0  0  0  0  0  0
  -30.3563  -12.7796   20.4801 C   0  0  0  0  0  0  0  0  0  0  0  0
  -28.1728  -13.8123   20.9651 C   0  0  0  0  0  0  0  0  0  0  0  0
  -23.0658  -27.6047   26.0999 C   0  0  1  0  0  0  0  0  0  0  0  0
  -26.1358  -28.8819   24.2623 C   0  0  1  0  0  0  0  0  0  0  0  0
  -27.4672  -12.8953   19.9527 C   0  0  2  0  0  0  0  0  0  0  0  0
  -29.3139  -33.7067   19.1024 C   0  0  0  0  0  0  0  0  0  0  0  0
  -28.7030  -23.7930   18.3842 C   0  0  0  0  0  0  0  0  0  0  0  0
  -23.5384  -31.4429   21.4241 C   0  0  0  0  0  0  0  0  0  0  0  0
  -24.7932  -32.7336   19.6840 C   0  0  0  0  0  0  0  0  0  0  0  0
  -24.8453  -33.4766   22.0647 C   0  0  0  0  0  0  0  0  0  0  0  0
  -31.0433  -30.8210   20.8795 C   0  0  0  0  0  0  0  0  0  0  0  0
  -26.1197  -31.4012   21.3859 C   0  0  1  0  0  0  0  0  0  0  0  0
  -29.4902  -32.6477   20.1796 C   0  0  2  0  0  0  0  0  0  0  0  0
  -28.3462  -23.4305   19.8182 C   0  0  1  0  0  0  0  0  0  1  0  0
  -24.8305  -32.2363   21.1449 C   0  0  0  0  0  0  0  0  0  0  0  0
  -25.6917  -11.5979   21.0688 N   0  0  0  0  0  0  0  0  0  0  0  0
  -26.0120  -12.6625   20.3138 N   0  0  0  0  0  0  0  0  0  0  0  0
  -26.2573  -29.4697   22.9266 N   0  0  0  0  0  0  0  0  0  0  0  0
  -29.5744  -14.0150   20.5661 N   0  0  0  0  0  0  0  0  0  0  0  0
  -25.0843  -14.5346   19.1978 N   0  0  0  0  0  0  0  0  0  0  0  0
  -21.4819  -12.5307   21.0428 N   0  0  0  0  0  0  0  0  0  0  0  0
  -29.4819  -21.3029   19.7758 N   0  0  0  0  0  0  0  0  0  0  0  0
  -29.3412  -16.3530   20.3620 N   0  0  0  0  0  0  0  0  0  0  0  0
  -24.3966  -28.0124   25.7034 N   0  0  0  0  0  0  0  0  0  0  0  0
  -27.3591  -32.1355   21.1553 N   0  0  0  0  0  0  0  0  0  0  0  0
  -30.7343  -31.8815   19.8861 N   0  3  0  0  0  0  0  0  0  0  0  0
  -22.1732  -14.2939   19.7497 O   0  0  0  0  0  0  0  0  0  0  0  0
  -23.8969  -28.6991   23.5352 O   0  0  0  0  0  0  0  0  0  0  0  0
  -26.2254  -31.6538   23.7421 O   0  0  0  0  0  0  0  0  0  0  0  0
  -28.2009  -30.7099   19.5317 O   0  0  0  0  0  0  0  0  0  0  0  0
  -27.2068  -21.3814   20.3505 O   0  0  0  0  0  0  0  0  0  0  0  0
  -31.3798  -15.3233   19.9553 O   0  0  0  0  0  0  0  0  0  0  0  0
  -30.9533  -18.0046   19.7879 O   0  0  0  0  0  0  0  0  0  0  0  0
  -21.5139   -7.8945   24.1314 O   0  0  0  0  0  0  0  0  0  0  0  0
  -27.0921  -24.0217   20.1562 O   0  0  0  0  0  0  0  0  0  1  0  0
  -22.7490   -2.5821   23.3210 F   0  0  0  0  0  0  0  0  0  0  0  0
  -19.6007   -6.1154   23.2275 F   0  0  0  0  0  0  0  0  0  0  0  0
  1  2  1  0  0  0  0
  1  5  2  0  0  0  0
  2  6  2  0  0  0  0
  3  8  2  0  0  0  0
  3 17  1  0  0  0  0
  4  9  1  0  0  0  0
  4 17  2  0  0  0  0
  5 19  1  0  0  0  0
  6 21  1  0  0  0  0
  7 10  2  0  0  0  0
  7 20  1  0  0  0  0
  8 24  1  0  0  0  0
  9 24  2  0  0  0  0
 10 25  1  0  0  0  0
 11 12  2  0  0  0  0
 11 26  1  0  0  0  0
 12 27  1  0  0  0  0
 13 22  1  0  0  0  0
 13 25  2  0  0  0  0
 14 23  1  0  0  0  0
 14 31  2  0  0  0  0
 15 27  2  0  0  0  0
 15 28  1  0  0  0  0
 16 23  2  0  0  0  0
 16 77  1  0  0  0  0
 17 29  1  0  0  0  0
 18 29  1  0  0  0  0
 18 30  2  0  0  0  0
 18 32  1  0  0  0  0
 19 21  2  0  0  0  0
 19 38  1  0  0  0  0
 20 22  2  0  0  0  0
 20 39  1  0  0  0  0
 21 47  1  0  0  0  0
 22 40  1  0  0  0  0
 23 66  1  0  0  0  0
 24 78  1  0  0  0  0
 25 79  1  0  0  0  0
 26 28  2  0  0  0  0
 26 78  1  0  0  0  0
 27 80  1  0  0  0  0
 28 81  1  0  0  0  0
 29 60  2  0  0  0  0
 30 61  1  0  0  0  0
 30 64  1  0  0  0  0
 31 67  1  0  0  0  0
 31 77  1  0  0  0  0
 32 65  1  0  0  0  0
 32 71  2  0  0  0  0
 33 48  1  0  0  0  0
 33 68  1  0  0  0  0
 33 72  2  0  0  0  0
 34 56  1  0  0  0  0
 34 62  1  0  0  0  0
 34 73  2  0  0  0  0
 35 57  1  0  0  0  0
 35 69  1  0  0  0  0
 35 74  2  0  0  0  0
 36 58  1  0  0  0  0
 36 66  1  0  0  0  0
 36 75  2  0  0  0  0
 37 63  1  0  0  0  0
 37 67  1  0  0  0  0
 37 76  2  0  0  0  0
 38 41  1  0  0  0  0
 39 48  1  0  0  0  0
 40 62  1  0  0  0  0
 41 43  1  0  0  0  0
 42 44  1  0  0  0  0
 42 45  1  0  0  0  0
 43 47  1  0  0  0  0
 44 49  1  0  0  0  0
 45 63  1  0  0  0  0
 46 49  1  0  0  0  0
 46 63  1  0  0  0  0
 47 68  1  0  0  0  0
 48 62  1  0  0  0  0
 49 61  1  0  0  0  0
 50 57  1  0  0  0  0
 51 58  1  0  0  0  0
 52 59  1  0  0  0  0
 53 59  1  0  0  0  0
 54 59  1  0  0  0  0
 55 70  1  0  0  0  0
 56 59  1  0  0  0  0
 56 69  1  0  0  0  0
 57 70  1  0  0  0  0
 58 79  1  0  0  0  0
 60 61  1  0  0  0  0
M  CHG  1  70   1
M  ISO  4  37 100  58 101  67 100  79 101
M  END
> <Batch ID>
0153

> <Smiles>
CNC(C)C(=O)NC(C(=O)N1Cc2cc([101O:1][101CH:1](C)C(=O)Nc3coc([100NH:0][100C:0](=O)N4CCCC(n5nc(-c6ccc(Oc7ccc(F)cc7F)cc6)c(C(N)=O)c5N)C4)c3)ccc2CC1C(=O)NC1CCCc2ccccc21)C(C)(C)C

> <Shape>
0.244

> <Color>
0.117

> <Negative vol penalty>
0.000

$$$$

  -OEChem-04052303303D

 76 84  0     1  0  0  0  0  0999 V2000
  -29.0762  -30.3164   20.7834 C   0  0  0  0  0  0  0  0  0  0  0  0
  -29.1879  -28.9397   20.9502 C   0  0  0  0  0  0  0  0  0  0  0  0
  -22.7542  -15.2346   20.3735 C   0  0  0  0  0  0  0  0  0  0  0  0
  -22.4235  -13.4129   18.8214 C   0  0  0  0  0  0  0  0  0  0  0  0
  -27.8196  -30.8979   20.6203 C   0  0  0  0  0  0  0  0  0  0  0  0
  -28.0428  -28.1440   20.9552 C   0  0  0  0  0  0  0  0  0  0  0  0
  -28.5743  -23.9574   18.1561 C   0  0  0  0  0  0  0  0  0  0  0  0
  -21.6284  -15.8775   19.8588 C   0  0  0  0  0  0  0  0  0  0  0  0
  -21.2977  -14.0558   18.3067 C   0  0  0  0  0  0  0  0  0  0  0  0
  -29.2989  -22.9056   18.7150 C   0  0  0  0  0  0  0  0  0  0  0  0
  -18.2689  -15.6384   20.1577 C   0  0  0  0  0  0  0  0  0  0  0  0
  -17.3626  -16.1851   21.0662 C   0  0  0  0  0  0  0  0  0  0  0  0
  -27.2350  -21.8043   19.3036 C   0  0  0  0  0  0  0  0  0  0  0  0
  -17.7233  -18.3738   20.1089 C   0  0  0  0  0  0  0  0  0  0  0  0
  -23.1518  -14.0023   19.8548 C   0  0  0  0  0  0  0  0  0  0  0  0
  -24.3571  -12.4208   21.4528 C   0  0  0  0  0  0  0  0  0  0  0  0
  -26.6593  -30.1078   20.6136 C   0  0  0  0  0  0  0  0  0  0  0  0
  -27.1722  -23.9458   18.1765 C   0  0  0  0  0  0  0  0  0  0  0  0
  -26.7694  -28.7157   20.7932 C   0  0  0  0  0  0  0  0  0  0  0  0
  -26.4949  -22.8560   18.7420 C   0  0  0  0  0  0  0  0  0  0  0  0
  -20.9002  -15.2881   18.8254 C   0  0  0  0  0  0  0  0  0  0  0  0
  -28.6293  -21.8302   19.2914 C   0  0  0  0  0  0  0  0  0  0  0  0
  -18.9025  -16.4594   19.2249 C   0  0  0  0  0  0  0  0  0  0  0  0
  -17.0897  -17.5528   21.0418 C   0  0  0  0  0  0  0  0  0  0  0  0
  -18.6296  -17.8271   19.2005 C   0  0  0  0  0  0  0  0  0  0  0  0
  -24.3150  -13.3380   20.3856 C   0  0  0  0  0  0  0  0  0  0  0  0
  -25.6841  -12.0842   21.5639 C   0  0  0  0  0  0  0  0  0  0  0  0
  -23.2921  -11.9181   22.2704 C   0  0  0  0  0  0  0  0  0  0  0  0
  -24.9321  -25.8009   19.4587 C   0  0  0  0  0  0  0  0  0  0  0  0
  -22.9287  -23.8650   17.7970 C   0  0  0  0  0  0  0  0  0  0  0  0
  -22.3911  -20.8373   16.3168 C   0  0  0  0  0  0  0  0  0  0  0  0
  -30.7236  -14.9096   20.0106 C   0  0  0  0  0  0  0  0  0  0  0  0
  -25.3192  -30.7871   20.4813 C   0  0  0  0  0  0  0  0  0  0  0  0
  -26.4051  -25.0753   17.5456 C   0  0  0  0  0  0  0  0  0  0  0  0
  -24.9906  -22.7858   18.7713 C   0  0  0  0  0  0  0  0  0  0  0  0
  -24.1844  -29.8309   20.1233 C   0  0  0  0  0  0  0  0  0  0  0  0
  -29.6873  -11.6853   19.0069 C   0  0  0  0  0  0  0  0  0  0  0  0
  -24.2423  -28.5825   20.9979 C   0  0  0  0  0  0  0  0  0  0  0  0
  -28.1917  -11.6591   19.3096 C   0  0  0  0  0  0  0  0  0  0  0  0
  -30.7952  -18.4994   20.9086 C   0  0  0  0  0  0  0  0  0  0  0  0
  -30.1119  -13.0561   18.4974 C   0  0  0  0  0  0  0  0  0  0  0  0
  -31.4388  -17.1224   20.8604 C   0  0  0  0  0  0  0  0  0  0  0  0
  -29.2882  -17.0266   19.7995 C   0  0  0  0  0  0  0  0  0  0  0  0
  -28.3045  -14.1594   19.7880 C   0  0  0  0  0  0  0  0  0  0  0  0
  -25.5525  -27.8162   20.7794 C   0  0  1  0  0  0  0  0  0  0  0  0
  -24.9823  -25.2036   18.0808 C   0  0  1  0  0  0  0  0  0  0  0  0
  -29.8226  -18.4571   19.7294 C   0  0  1  0  0  0  0  0  0  0  0  0
  -27.8174  -12.7835   20.2877 C   0  0  1  0  0  0  0  0  0  0  0  0
  -20.6434  -19.5355   15.0725 C   0  0  0  0  0  0  0  0  0  0  0  0
  -21.4364  -23.3730   20.4125 C   0  0  0  0  0  0  0  0  0  0  0  0
  -20.3450  -21.3933   19.3365 C   0  0  0  0  0  0  0  0  0  0  0  0
  -19.9650  -23.6795   18.4136 C   0  0  0  0  0  0  0  0  0  0  0  0
  -24.1099  -20.5984   13.9194 C   0  0  0  0  0  0  0  0  0  0  0  0
  -28.7340  -19.5121   19.8124 C   0  0  0  0  0  0  0  0  0  1  0  0
  -22.2119  -22.5680   18.0851 C   0  0  1  0  0  0  0  0  0  0  0  0
  -21.8393  -20.4671   14.9519 C   0  0  2  0  0  0  0  0  0  0  0  0
  -21.0180  -22.7554   19.0633 C   0  0  0  0  0  0  0  0  0  0  0  0
  -25.5194  -13.5694   19.8567 N   0  0  0  0  0  0  0  0  0  0  0  0
  -26.3309  -12.7928   20.5946 N   0  0  0  0  0  0  0  0  0  0  0  0
  -24.2853  -23.9175   18.1473 N   0  0  0  0  0  0  0  0  0  0  0  0
  -29.7266  -14.1234   19.4225 N   0  0  0  0  0  0  0  0  0  0  0  0
  -30.4230  -16.2417   20.2920 N   0  0  0  0  0  0  0  0  0  0  0  0
  -26.3490  -11.2541   22.3954 N   0  0  0  0  0  0  0  0  0  0  0  0
  -21.9885  -12.3683   22.0208 N   0  0  0  0  0  0  0  0  0  0  0  0
  -25.4959  -27.0593   19.5472 N   0  0  0  0  0  0  0  0  0  0  0  0
  -21.8409  -22.0100   16.7892 N   0  0  0  0  0  0  0  0  0  0  0  0
  -22.8853  -19.7861   14.1377 N   0  3  0  0  0  0  0  0  0  0  0  0
  -23.4927  -11.1065   23.2056 O   0  0  0  0  0  0  0  0  0  0  0  0
  -24.4184  -25.1676   20.3734 O   0  0  0  0  0  0  0  0  0  0  0  0
  -22.3097  -24.7947   17.2735 O   0  0  0  0  0  0  0  0  0  0  0  0
  -23.2239  -20.1525   16.9067 O   0  0  0  0  0  0  0  0  0  0  0  0
  -31.8523  -14.4529   20.2369 O   0  0  0  0  0  0  0  0  0  0  0  0
  -19.8014  -15.9151   18.3231 O   0  0  0  0  0  0  0  0  0  0  0  0
  -29.3400  -20.7941   19.8427 O   0  0  0  0  0  0  0  0  0  1  0  0
  -16.2182  -18.0774   21.9132 F   0  0  0  0  0  0  0  0  0  0  0  0
  -19.2343  -18.6207   18.3058 F   0  0  0  0  0  0  0  0  0  0  0  0
  1  2  1  0  0  0  0
  1  5  2  0  0  0  0
  2  6  2  0  0  0  0
  3  8  2  0  0  0  0
  3 15  1  0  0  0  0
  4  9  1  0  0  0  0
  4 15  2  0  0  0  0
  5 17  1  0  0  0  0
  6 19  1  0  0  0  0
  7 10  2  0  0  0  0
  7 18  1  0  0  0  0
  8 21  1  0  0  0  0
  9 21  2  0  0  0  0
 10 22  1  0  0  0  0
 11 12  2  0  0  0  0
 11 23  1  0  0  0  0
 12 24  1  0  0  0  0
 13 20  1  0  0  0  0
 13 22  2  0  0  0  0
 14 24  2  0  0  0  0
 14 25  1  0  0  0  0
 15 26  1  0  0  0  0
 16 26  1  0  0  0  0
 16 27  2  0  0  0  0
 16 28  1  0  0  0  0
 17 19  2  0  0  0  0
 17 33  1  0  0  0  0
 18 20  2  0  0  0  0
 18 34  1  0  0  0  0
 19 45  1  0  0  0  0
 20 35  1  0  0  0  0
 21 73  1  0  0  0  0
 22 74  1  0  0  0  0
 23 25  2  0  0  0  0
 23 73  1  0  0  0  0
 24 75  1  0  0  0  0
 25 76  1  0  0  0  0
 26 58  2  0  0  0  0
 27 59  1  0  0  0  0
 27 63  1  0  0  0  0
 28 64  1  0  0  0  0
 28 68  2  0  0  0  0
 29 46  1  0  0  0  0
 29 65  1  0  0  0  0
 29 69  2  0  0  0  0
 30 55  1  0  0  0  0
 30 60  1  0  0  0  0
 30 70  2  0  0  0  0
 31 56  1  0  0  0  0
 31 66  1  0  0  0  0
 31 71  2  0  0  0  0
 32 61  1  0  0  0  0
 32 62  1  0  0  0  0
 32 72  2  0  0  0  0
 33 36  1  0  0  0  0
 34 46  1  0  0  0  0
 35 60  1  0  0  0  0
 36 38  1  0  0  0  0
 37 39  1  0  0  0  0
 37 41  1  0  0  0  0
 38 45  1  0  0  0  0
 39 48  1  0  0  0  0
 40 42  1  0  0  0  0
 40 47  1  0  0  0  0
 41 61  1  0  0  0  0
 42 62  1  0  0  0  0
 43 47  1  0  0  0  0
 43 62  1  0  0  0  0
 44 48  1  0  0  0  0
 44 61  1  0  0  0  0
 45 65  1  0  0  0  0
 46 60  1  0  0  0  0
 47 54  1  0  0  0  0
 48 59  1  0  0  0  0
 49 56  1  0  0  0  0
 50 57  1  0  0  0  0
 51 57  1  0  0  0  0
 52 57  1  0  0  0  0
 53 67  1  0  0  0  0
 54 74  1  0  0  0  0
 55 57  1  0  0  0  0
 55 66  1  0  0  0  0
 56 67  1  0  0  0  0
 58 59  1  0  0  0  0
M  CHG  1  67   1
M  ISO  4  32 100  54 101  62 100  74 101
M  END
> <Batch ID>
0153

> <Smiles>
CNC(C)C(=O)NC(C(=O)N1Cc2cc([101O:1][101CH2:1]C3CC[100N:0]([100C:0](=O)N4CCCC(n5nc(-c6ccc(Oc7ccc(F)cc7F)cc6)c(C(N)=O)c5N)C4)C3)ccc2CC1C(=O)NC1CCCc2ccccc21)C(C)(C)C

> <Shape>
0.198

> <Color>
0.105

> <Negative vol penalty>
0.000

$$$$

  -OEChem-04052303303D

 83 92  0     1  0  0  0  0  0999 V2000
  -27.1862  -33.7494   26.1158 C   0  0  0  0  0  0  0  0  0  0  0  0
  -27.5354  -32.6632   25.3198 C   0  0  0  0  0  0  0  0  0  0  0  0
  -23.6265  -13.9383   21.2075 C   0  0  0  0  0  0  0  0  0  0  0  0
  -26.0398  -14.0043   21.3003 C   0  0  0  0  0  0  0  0  0  0  0  0
  -25.8999  -33.8383   26.6464 C   0  0  0  0  0  0  0  0  0  0  0  0
  -26.5989  -31.6646   25.0549 C   0  0  0  0  0  0  0  0  0  0  0  0
  -26.5505  -30.2900   20.1812 C   0  0  0  0  0  0  0  0  0  0  0  0
  -23.6810  -12.6332   20.7182 C   0  0  0  0  0  0  0  0  0  0  0  0
  -26.0943  -12.6992   20.8111 C   0  0  0  0  0  0  0  0  0  0  0  0
  -27.5679  -29.4403   19.7491 C   0  0  0  0  0  0  0  0  0  0  0  0
  -24.1668   -9.5258   21.9597 C   0  0  0  0  0  0  0  0  0  0  0  0
  -23.2983   -8.5877   22.5174 C   0  0  0  0  0  0  0  0  0  0  0  0
  -26.0609  -27.5636   19.9106 C   0  0  0  0  0  0  0  0  0  0  0  0
  -22.3061   -8.2155   20.3462 C   0  0  0  0  0  0  0  0  0  0  0  0
  -24.8059  -14.6239   21.4985 C   0  0  0  0  0  0  0  0  0  0  0  0
  -24.6876  -16.3734   23.3513 C   0  0  0  0  0  0  0  0  0  0  0  0
  -24.9442  -32.8452   26.3799 C   0  0  0  0  0  0  0  0  0  0  0  0
  -25.2816  -29.7804   20.4921 C   0  0  0  0  0  0  0  0  0  0  0  0
  -25.2990  -31.7397   25.5835 C   0  0  0  0  0  0  0  0  0  0  0  0
  -25.0284  -28.4093   20.3439 C   0  0  0  0  0  0  0  0  0  0  0  0
  -24.9149  -12.0136   20.5201 C   0  0  0  0  0  0  0  0  0  0  0  0
  -27.3241  -28.0765   19.6165 C   0  0  0  0  0  0  0  0  0  0  0  0
  -24.1050   -9.8090   20.5953 C   0  0  0  0  0  0  0  0  0  0  0  0
  -22.3679   -7.9325   21.7107 C   0  0  0  0  0  0  0  0  0  0  0  0
  -23.1746   -9.1538   19.7885 C   0  0  0  0  0  0  0  0  0  0  0  0
  -24.7502  -15.9723   22.0033 C   0  0  0  0  0  0  0  0  0  0  0  0
  -30.7307  -23.1560   19.1577 C   0  0  0  0  0  0  0  0  0  0  0  0
  -24.6528  -17.7455   23.3000 C   0  0  0  0  0  0  0  0  0  0  0  0
  -31.4565  -22.0922   19.6513 C   0  0  0  0  0  0  0  0  0  0  0  0
  -29.0726  -21.7693   19.5286 C   0  0  0  0  0  0  0  0  0  0  0  0
  -24.6631  -15.5769   24.5432 C   0  0  0  0  0  0  0  0  0  0  0  0
  -23.4915  -29.6664   23.1163 C   0  0  0  0  0  0  0  0  0  0  0  0
  -21.2758  -28.4527   21.0817 C   0  0  0  0  0  0  0  0  0  0  0  0
  -20.6117  -26.8304   18.1536 C   0  0  0  0  0  0  0  0  0  0  0  0
  -26.5661  -21.7298   19.2788 C   0  0  0  0  0  0  0  0  0  0  0  0
  -23.5809  -32.9609   27.0145 C   0  0  0  0  0  0  0  0  0  0  0  0
  -24.1872  -30.7141   20.9312 C   0  0  0  0  0  0  0  0  0  0  0  0
  -23.6776  -27.8153   20.6454 C   0  0  0  0  0  0  0  0  0  0  0  0
  -22.5338  -32.0501   26.3786 C   0  0  0  0  0  0  0  0  0  0  0  0
  -23.2378  -21.3530   20.4861 C   0  0  0  0  0  0  0  0  0  0  0  0
  -23.0922  -30.6427   26.1935 C   0  0  0  0  0  0  0  0  0  0  0  0
  -30.9546  -24.7491   17.2257 C   0  0  0  0  0  0  0  0  0  0  0  0
  -30.0792  -25.9982   17.2336 C   0  0  0  0  0  0  0  0  0  0  0  0
  -23.2439  -19.9694   21.1403 C   0  0  0  0  0  0  0  0  0  0  0  0
  -30.6991  -25.6363   19.5034 C   0  0  0  0  0  0  0  0  0  0  0  0
  -24.1050  -21.3898   19.2290 C   0  0  0  0  0  0  0  0  0  0  0  0
  -25.4885  -19.5306   20.0649 C   0  0  0  0  0  0  0  0  0  0  0  0
  -24.3034  -30.6489   25.2532 C   0  0  1  0  0  0  0  0  0  0  0  0
  -31.2786  -24.4535   18.7052 C   0  0  1  0  0  0  0  0  0  0  0  0
  -23.0809  -30.0123   21.7129 C   0  0  1  0  0  0  0  0  0  0  0  0
  -30.5453  -26.7536   18.4733 C   0  0  2  0  0  0  0  0  0  0  0  0
  -24.6807  -19.4616   21.3712 C   0  0  2  0  0  0  0  0  0  0  0  0
  -18.7071  -25.9459   16.7796 C   0  0  0  0  0  0  0  0  0  0  0  0
  -20.9971  -26.0906   22.9930 C   0  0  0  0  0  0  0  0  0  0  0  0
  -19.8462  -24.8326   21.1597 C   0  0  0  0  0  0  0  0  0  0  0  0
  -18.8379  -26.9321   22.0528 C   0  0  0  0  0  0  0  0  0  0  0  0
  -21.2786  -28.6011   15.8779 C   0  0  0  0  0  0  0  0  0  0  0  0
  -29.5814  -27.8371   18.9074 C   0  0  0  0  0  0  0  0  0  1  0  0
  -20.9062  -27.0687   20.6053 C   0  0  1  0  0  0  0  0  0  0  0  0
  -19.6271  -27.1290   17.0374 C   0  0  2  0  0  0  0  0  0  0  0  0
  -20.1730  -26.2416   21.6988 C   0  0  0  0  0  0  0  0  0  0  0  0
  -24.7549  -17.0059   21.1575 N   0  0  0  0  0  0  0  0  0  0  0  0
  -29.3636  -22.9725   19.0862 N   0  0  0  0  0  0  0  0  0  0  0  0
  -24.6948  -18.0701   21.9760 N   0  0  0  0  0  0  0  0  0  0  0  0
  -22.6419  -28.7682   21.0776 N   0  0  0  0  0  0  0  0  0  0  0  0
  -25.4527  -20.8988   19.5249 N   0  0  0  0  0  0  0  0  0  0  0  0
  -24.5907  -18.6938   24.2587 N   0  0  0  0  0  0  0  0  0  0  0  0
  -32.7976  -22.0042   19.8255 N   0  0  0  0  0  0  0  0  0  0  0  0
  -24.7055  -14.1818   24.4156 N   0  0  0  0  0  0  0  0  0  0  0  0
  -27.7934  -21.1683   19.6295 N   0  0  0  0  0  0  0  0  0  0  0  0
  -23.8732  -30.7560   23.8755 N   0  0  0  0  0  0  0  0  0  0  0  0
  -20.1381  -27.2508   19.3784 N   0  0  0  0  0  0  0  0  0  0  0  0
  -20.3546  -27.4424   15.7750 N   0  3  0  0  0  0  0  0  0  0  0  0
  -24.5888  -16.0868   25.6869 O   0  0  0  0  0  0  0  0  0  0  0  0
  -23.4627  -28.4976   23.4835 O   0  0  0  0  0  0  0  0  0  0  0  0
  -20.3845  -29.2278   21.4374 O   0  0  0  0  0  0  0  0  0  0  0  0
  -21.6911  -26.2759   17.9590 O   0  0  0  0  0  0  0  0  0  0  0  0
  -26.4379  -22.8670   18.8180 O   0  0  0  0  0  0  0  0  0  0  0  0
  -24.9685  -10.7401   20.0429 O   0  0  0  0  0  0  0  0  0  0  0  0
  -28.3155  -27.2448   19.1957 O   0  0  0  0  0  0  0  0  0  1  0  0
  -21.5350   -7.0305   22.2461 F   0  0  0  0  0  0  0  0  0  0  0  0
  -23.1113   -9.4207   18.4768 F   0  0  0  0  0  0  0  0  0  0  0  0
  -30.3942  -20.8052   20.0469 S   0  0  0  0  0  0  0  0  0  0  0  0
  1  2  1  0  0  0  0
  1  5  2  0  0  0  0
  2  6  2  0  0  0  0
  3  8  2  0  0  0  0
  3 15  1  0  0  0  0
  4  9  1  0  0  0  0
  4 15  2  0  0  0  0
  5 17  1  0  0  0  0
  6 19  1  0  0  0  0
  7 10  2  0  0  0  0
  7 18  1  0  0  0  0
  8 21  1  0  0  0  0
  9 21  2  0  0  0  0
 10 22  1  0  0  0  0
 11 12  2  0  0  0  0
 11 23  1  0  0  0  0
 12 24  1  0  0  0  0
 13 20  1  0  0  0  0
 13 22  2  0  0  0  0
 14 24  2  0  0  0  0
 14 25  1  0  0  0  0
 15 26  1  0  0  0  0
 16 26  1  0  0  0  0
 16 28  2  0  0  0  0
 16 31  1  0  0  0  0
 17 19  2  0  0  0  0
 17 36  1  0  0  0  0
 18 20  2  0  0  0  0
 18 37  1  0  0  0  0
 19 48  1  0  0  0  0
 20 38  1  0  0  0  0
 21 79  1  0  0  0  0
 22 80  1  0  0  0  0
 23 25  2  0  0  0  0
 23 79  1  0  0  0  0
 24 81  1  0  0  0  0
 25 82  1  0  0  0  0
 26 62  2  0  0  0  0
 27 29  2  0  0  0  0
 27 49  1  0  0  0  0
 27 63  1  0  0  0  0
 28 64  1  0  0  0  0
 28 67  1  0  0  0  0
 29 68  1  0  0  0  0
 29 83  1  0  0  0  0
 30 63  2  0  0  0  0
 30 70  1  0  0  0  0
 30 83  1  0  0  0  0
 31 69  1  0  0  0  0
 31 74  2  0  0  0  0
 32 50  1  0  0  0  0
 32 71  1  0  0  0  0
 32 75  2  0  0  0  0
 33 59  1  0  0  0  0
 33 65  1  0  0  0  0
 33 76  2  0  0  0  0
 34 60  1  0  0  0  0
 34 72  1  0  0  0  0
 34 77  2  0  0  0  0
 35 66  1  0  0  0  0
 35 70  1  0  0  0  0
 35 78  2  0  0  0  0
 36 39  1  0  0  0  0
 37 50  1  0  0  0  0
 38 65  1  0  0  0  0
 39 41  1  0  0  0  0
 40 44  1  0  0  0  0
 40 46  1  0  0  0  0
 41 48  1  0  0  0  0
 42 43  1  0  0  0  0
 42 49  1  0  0  0  0
 43 51  1  0  0  0  0
 44 52  1  0  0  0  0
 45 49  1  0  0  0  0
 45 51  1  0  0  0  0
 46 66  1  0  0  0  0
 47 52  1  0  0  0  0
 47 66  1  0  0  0  0
 48 71  1  0  0  0  0
 50 65  1  0  0  0  0
 51 58  1  0  0  0  0
 52 64  1  0  0  0  0
 53 60  1  0  0  0  0
 54 61  1  0  0  0  0
 55 61  1  0  0  0  0
 56 61  1  0  0  0  0
 57 73  1  0  0  0  0
 58 80  1  0  0  0  0
 59 61  1  0  0  0  0
 59 72  1  0  0  0  0
 60 73  1  0  0  0  0
 62 64  1  0  0  0  0
M  CHG  1  73   1
M  ISO  4  35 100  58 101  70 100  80 101
M  END
> <Batch ID>
0153

> <Smiles>
CNC(C)C(=O)NC(C(=O)N1Cc2cc([101O:1][101CH2:1]C3CCC(c4nc([100NH:0][100C:0](=O)N5CCCC(n6nc(-c7ccc(Oc8ccc(F)cc8F)cc7)c(C(N)=O)c6N)C5)sc4N)C3)ccc2CC1C(=O)NC1CCCc2ccccc21)C(C)(C)C

> <Shape>
0.276

> <Color>
0.083

> <Negative vol penalty>
0.000

$$$$

  -OEChem-04052303303D

 85 94  0     1  0  0  0  0  0999 V2000
  -22.0223  -11.9136   19.1664 C   0  0  0  0  0  0  0  0  0  0  0  0
  -21.8388  -13.2216   19.6032 C   0  0  0  0  0  0  0  0  0  0  0  0
  -30.8663  -29.5348   18.2819 C   0  0  0  0  0  0  0  0  0  0  0  0
  -30.2450  -27.2524   18.7736 C   0  0  0  0  0  0  0  0  0  0  0  0
  -23.2460  -11.2771   19.3698 C   0  0  0  0  0  0  0  0  0  0  0  0
  -22.8786  -13.8935   20.2448 C   0  0  0  0  0  0  0  0  0  0  0  0
  -23.4615  -18.6329   18.5586 C   0  0  0  0  0  0  0  0  0  0  0  0
  -32.2129  -29.1979   18.4191 C   0  0  0  0  0  0  0  0  0  0  0  0
  -31.5916  -26.9154   18.9108 C   0  0  0  0  0  0  0  0  0  0  0  0
  -22.5632  -19.5905   19.0273 C   0  0  0  0  0  0  0  0  0  0  0  0
  -34.0136  -27.2331   21.2483 C   0  0  0  0  0  0  0  0  0  0  0  0
  -34.3767  -26.4465   22.3415 C   0  0  0  0  0  0  0  0  0  0  0  0
  -19.7902  -26.1696   22.0670 C   0  0  0  0  0  0  0  0  0  0  0  0
  -24.2102  -20.3479   20.6188 C   0  0  0  0  0  0  0  0  0  0  0  0
  -18.4419  -25.6062   24.0187 C   0  0  0  0  0  0  0  0  0  0  0  0
  -35.2123  -24.7471   20.8412 C   0  0  0  0  0  0  0  0  0  0  0  0
  -29.8824  -28.5621   18.4592 C   0  0  0  0  0  0  0  0  0  0  0  0
  -27.7191  -28.8663   17.1418 C   0  0  0  0  0  0  0  0  0  0  0  0
  -24.3045  -11.9449   20.0056 C   0  0  0  0  0  0  0  0  0  0  0  0
  -24.7393  -18.5182   19.1248 C   0  0  0  0  0  0  0  0  0  0  0  0
  -24.1172  -13.2649   20.4581 C   0  0  0  0  0  0  0  0  0  0  0  0
  -19.6189  -27.4912   22.4068 C   0  0  0  0  0  0  0  0  0  0  0  0
  -25.1238  -19.3897   20.1538 C   0  0  0  0  0  0  0  0  0  0  0  0
  -18.8889  -27.8729   23.5067 C   0  0  0  0  0  0  0  0  0  0  0  0
  -19.1896  -25.2146   22.8913 C   0  0  0  0  0  0  0  0  0  0  0  0
  -18.2857  -26.9577   24.3368 C   0  0  0  0  0  0  0  0  0  0  0  0
  -32.5755  -27.8882   18.7335 C   0  0  0  0  0  0  0  0  0  0  0  0
  -22.9364  -20.4463   20.0595 C   0  0  0  0  0  0  0  0  0  0  0  0
  -34.2498  -26.7766   19.9515 C   0  0  0  0  0  0  0  0  0  0  0  0
  -34.9761  -25.2036   22.1380 C   0  0  0  0  0  0  0  0  0  0  0  0
  -34.8491  -25.5336   19.7480 C   0  0  0  0  0  0  0  0  0  0  0  0
  -28.4912  -28.9097   18.3182 C   0  0  0  0  0  0  0  0  0  0  0  0
  -26.4725  -29.2891   17.5335 C   0  0  0  0  0  0  0  0  0  0  0  0
  -28.0953  -28.4782   15.8138 C   0  0  0  0  0  0  0  0  0  0  0  0
  -26.3030  -16.2351   20.6887 C   0  0  0  0  0  0  0  0  0  0  0  0
  -28.7818  -18.3147   20.4570 C   0  0  0  0  0  0  0  0  0  0  0  0
  -20.0295  -23.2713   21.5266 C   0  0  0  0  0  0  0  0  0  0  0  0
  -29.8323  -21.5397   20.0800 C   0  0  0  0  0  0  0  0  0  0  0  0
  -22.2886  -28.9029   21.1072 C   0  0  0  0  0  0  0  0  0  0  0  0
  -25.5935  -11.1995   20.2453 C   0  0  0  0  0  0  0  0  0  0  0  0
  -25.7061  -17.4977   18.5898 C   0  0  0  0  0  0  0  0  0  0  0  0
  -19.1207  -29.3372   23.2739 C   0  0  0  0  0  0  0  0  0  0  0  0
  -26.4911  -19.3209   20.7817 C   0  0  0  0  0  0  0  0  0  0  0  0
  -26.7668  -12.1098   20.5989 C   0  0  0  0  0  0  0  0  0  0  0  0
  -24.9000  -31.4236   21.8181 C   0  0  0  0  0  0  0  0  0  0  0  0
  -26.3521  -13.1293   21.6550 C   0  0  0  0  0  0  0  0  0  0  0  0
  -26.0253  -30.9419   20.9081 C   0  0  0  0  0  0  0  0  0  0  0  0
  -24.0633  -30.2657   22.3612 C   0  0  0  0  0  0  0  0  0  0  0  0
  -24.6533  -28.8898   20.3830 C   0  0  0  0  0  0  0  0  0  0  0  0
  -25.2293  -14.0356   21.1360 C   0  0  1  0  0  0  0  0  0  0  0  0
  -19.9428  -28.9048   22.0057 C   0  0  1  0  0  0  0  0  0  0  0  0
  -26.7994  -17.1295   19.5881 C   0  0  1  0  0  0  0  0  0  0  0  0
  -25.4705  -30.0472   19.7896 C   0  0  2  0  0  0  0  0  0  0  0  0
  -31.9171  -22.9320   19.9670 C   0  0  0  0  0  0  0  0  0  0  0  0
  -29.1036  -18.0737   23.4816 C   0  0  0  0  0  0  0  0  0  0  0  0
  -30.5122  -20.1427   23.4266 C   0  0  0  0  0  0  0  0  0  0  0  0
  -31.2525  -18.0991   22.2026 C   0  0  0  0  0  0  0  0  0  0  0  0
  -29.2080  -22.4604   17.3374 C   0  0  0  0  0  0  0  0  0  0  0  0
  -19.9301  -21.7509   21.5750 C   0  0  0  0  0  0  0  0  0  0  0  0
  -20.6718  -21.0669   20.4366 C   0  0  0  0  0  0  0  0  0  1  0  0
  -29.3107  -19.4463   21.3047 C   0  0  1  0  0  0  0  0  0  0  0  0
  -30.8780  -22.1586   19.1701 C   0  0  2  0  0  0  0  0  0  0  0  0
  -30.0182  -18.9407   22.5936 C   0  0  0  0  0  0  0  0  0  0  0  0
  -27.7935  -29.3274   19.3778 N   0  0  0  0  0  0  0  0  0  0  0  0
  -26.5699  -29.5503   18.8686 N   0  0  0  0  0  0  0  0  0  0  0  0
  -27.3985  -18.3022   20.2283 N   0  0  0  0  0  0  0  0  0  0  0  0
  -23.6014  -29.3752   21.2846 N   0  0  0  0  0  0  0  0  0  0  0  0
  -17.5458  -27.3641   25.4562 N   0  0  0  0  0  0  0  0  0  0  0  0
  -25.3134  -29.4594   16.8627 N   0  0  0  0  0  0  0  0  0  0  0  0
  -29.4166  -28.0702   15.5859 N   0  0  0  0  0  0  0  0  0  0  0  0
  -19.3334  -23.8393   22.5903 N   0  0  0  0  0  0  0  0  0  0  0  0
  -25.7639  -15.0428   20.2448 N   0  0  0  0  0  0  0  0  0  0  0  0
  -30.1613  -20.2476   20.4313 N   0  0  0  0  0  0  0  0  0  0  0  0
  -21.3587  -29.3231   22.0531 N   0  0  0  0  0  0  0  0  0  0  0  0
  -30.2357  -23.0935   18.2035 N   0  3  0  0  0  0  0  0  0  0  0  0
  -27.2879  -28.5086   14.8542 O   0  0  0  0  0  0  0  0  0  0  0  0
  -26.4032  -16.5992   21.8546 O   0  0  0  0  0  0  0  0  0  0  0  0
  -29.5679  -17.4767   20.0082 O   0  0  0  0  0  0  0  0  0  0  0  0
  -20.6510  -23.8572   20.6464 O   0  0  0  0  0  0  0  0  0  0  0  0
  -28.8262  -22.1435   20.4457 O   0  0  0  0  0  0  0  0  0  0  0  0
  -21.9633  -28.1545   20.1792 O   0  0  0  0  0  0  0  0  0  0  0  0
  -33.8894  -27.5590   18.8672 O   0  0  0  0  0  0  0  0  0  0  0  0
  -22.0612  -21.3814   20.5194 O   0  0  0  0  0  0  0  0  0  1  0  0
  -35.3261  -24.4490   23.1879 F   0  0  0  0  0  0  0  0  0  0  0  0
  -35.0796  -25.0902   18.5046 F   0  0  0  0  0  0  0  0  0  0  0  0
  1  2  1  0  0  0  0
  1  5  2  0  0  0  0
  2  6  2  0  0  0  0
  3  8  2  0  0  0  0
  3 17  1  0  0  0  0
  4  9  1  0  0  0  0
  4 17  2  0  0  0  0
  5 19  1  0  0  0  0
  6 21  1  0  0  0  0
  7 10  2  0  0  0  0
  7 20  1  0  0  0  0
  8 27  1  0  0  0  0
  9 27  2  0  0  0  0
 10 28  1  0  0  0  0
 11 12  2  0  0  0  0
 11 29  1  0  0  0  0
 12 30  1  0  0  0  0
 13 22  1  0  0  0  0
 13 25  2  0  0  0  0
 14 23  1  0  0  0  0
 14 28  2  0  0  0  0
 15 25  1  0  0  0  0
 15 26  2  0  0  0  0
 16 30  2  0  0  0  0
 16 31  1  0  0  0  0
 17 32  1  0  0  0  0
 18 32  1  0  0  0  0
 18 33  2  0  0  0  0
 18 34  1  0  0  0  0
 19 21  2  0  0  0  0
 19 40  1  0  0  0  0
 20 23  2  0  0  0  0
 20 41  1  0  0  0  0
 21 50  1  0  0  0  0
 22 24  2  0  0  0  0
 22 51  1  0  0  0  0
 23 43  1  0  0  0  0
 24 26  1  0  0  0  0
 24 42  1  0  0  0  0
 25 71  1  0  0  0  0
 26 68  1  0  0  0  0
 27 82  1  0  0  0  0
 28 83  1  0  0  0  0
 29 31  2  0  0  0  0
 29 82  1  0  0  0  0
 30 84  1  0  0  0  0
 31 85  1  0  0  0  0
 32 64  2  0  0  0  0
 33 65  1  0  0  0  0
 33 69  1  0  0  0  0
 34 70  1  0  0  0  0
 34 76  2  0  0  0  0
 35 52  1  0  0  0  0
 35 72  1  0  0  0  0
 35 77  2  0  0  0  0
 36 61  1  0  0  0  0
 36 66  1  0  0  0  0
 36 78  2  0  0  0  0
 37 59  1  0  0  0  0
 37 71  1  0  0  0  0
 37 79  2  0  0  0  0
 38 62  1  0  0  0  0
 38 73  1  0  0  0  0
 38 80  2  0  0  0  0
 39 67  1  0  0  0  0
 39 74  1  0  0  0  0
 39 81  2  0  0  0  0
 40 44  1  0  0  0  0
 41 52  1  0  0  0  0
 42 51  1  0  0  0  0
 43 66  1  0  0  0  0
 44 46  1  0  0  0  0
 45 47  1  0  0  0  0
 45 48  1  0  0  0  0
 46 50  1  0  0  0  0
 47 53  1  0  0  0  0
 48 67  1  0  0  0  0
 49 53  1  0  0  0  0
 49 67  1  0  0  0  0
 50 72  1  0  0  0  0
 51 74  1  0  0  0  0
 52 66  1  0  0  0  0
 53 65  1  0  0  0  0
 54 62  1  0  0  0  0
 55 63  1  0  0  0  0
 56 63  1  0  0  0  0
 57 63  1  0  0  0  0
 58 75  1  0  0  0  0
 59 60  1  0  0  0  0
 60 83  1  0  0  0  0
 61 63  1  0  0  0  0
 61 73  1  0  0  0  0
 62 75  1  0  0  0  0
 64 65  1  0  0  0  0
M  CHG  1  75   1
M  ISO  4  39 100  60 101  74 100  83 101
M  END
> <Batch ID>
0153

> <Smiles>
CNC(C)C(=O)NC(C(=O)N1Cc2cc([101O:1][101CH2:1]CC(=O)Nc3cc(N)c4c(c3)C([100NH:0][100C:0](=O)N3CCCC(n5nc(-c6ccc(Oc7ccc(F)cc7F)cc6)c(C(N)=O)c5N)C3)C4)ccc2CC1C(=O)NC1CCCc2ccccc21)C(C)(C)C

> <Shape>
0.206

> <Color>
0.093

> <Negative vol penalty>
0.000

$$$$

  -OEChem-04052303303D

 84 92  0     1  0  0  0  0  0999 V2000
  -30.2502  -31.9136   25.8042 C   0  0  0  0  0  0  0  0  0  0  0  0
  -29.5638  -31.0122   24.9970 C   0  0  0  0  0  0  0  0  0  0  0  0
  -24.7217   -8.9207   21.4775 C   0  0  0  0  0  0  0  0  0  0  0  0
  -23.0781  -10.6897   21.3965 C   0  0  0  0  0  0  0  0  0  0  0  0
  -29.5434  -32.8346   26.5762 C   0  0  0  0  0  0  0  0  0  0  0  0
  -28.1699  -31.0306   24.9622 C   0  0  0  0  0  0  0  0  0  0  0  0
  -26.3398  -30.7013   20.2518 C   0  0  0  0  0  0  0  0  0  0  0  0
  -23.9534   -8.2505   22.4295 C   0  0  0  0  0  0  0  0  0  0  0  0
  -22.3098  -10.0194   22.3484 C   0  0  0  0  0  0  0  0  0  0  0  0
  -26.3307  -29.4394   19.6590 C   0  0  0  0  0  0  0  0  0  0  0  0
  -22.2489   -5.8979   24.6146 C   0  0  0  0  0  0  0  0  0  0  0  0
  -22.0647   -4.5252   24.4498 C   0  0  0  0  0  0  0  0  0  0  0  0
  -23.9881  -29.2139   20.1889 C   0  0  0  0  0  0  0  0  0  0  0  0
  -27.5192  -19.4549   20.1199 C   0  0  0  0  0  0  0  0  0  0  0  0
  -21.0094   -4.9233   22.3132 C   0  0  0  0  0  0  0  0  0  0  0  0
  -25.3411  -18.6476   20.0400 C   0  0  0  0  0  0  0  0  0  0  0  0
  -24.2841  -10.1403   20.9611 C   0  0  0  0  0  0  0  0  0  0  0  0
  -25.0034  -10.7007   18.5786 C   0  0  0  0  0  0  0  0  0  0  0  0
  -28.1405  -32.8707   26.5435 C   0  0  0  0  0  0  0  0  0  0  0  0
  -25.1737  -31.2252   20.8282 C   0  0  0  0  0  0  0  0  0  0  0  0
  -27.4436  -31.9521   25.7355 C   0  0  0  0  0  0  0  0  0  0  0  0
  -23.9844  -30.4837   20.7861 C   0  0  0  0  0  0  0  0  0  0  0  0
  -26.6732  -18.3084   20.1299 C   0  0  0  0  0  0  0  0  0  0  0  0
  -22.7475   -8.7998   22.8649 C   0  0  0  0  0  0  0  0  0  0  0  0
  -25.1555  -28.6943   19.6300 C   0  0  0  0  0  0  0  0  0  0  0  0
  -21.8132   -6.7834   23.6288 C   0  0  0  0  0  0  0  0  0  0  0  0
  -21.4450   -4.0378   23.2990 C   0  0  0  0  0  0  0  0  0  0  0  0
  -21.1935   -6.2961   22.4781 C   0  0  0  0  0  0  0  0  0  0  0  0
  -25.0775  -10.8334   19.9781 C   0  0  0  0  0  0  0  0  0  0  0  0
  -26.8014  -20.6267   20.0224 C   0  0  0  0  0  0  0  0  0  0  0  0
  -25.9570  -11.5660   18.1007 C   0  0  0  0  0  0  0  0  0  0  0  0
  -24.1488   -9.8697   17.7818 C   0  0  0  0  0  0  0  0  0  0  0  0
  -27.4092  -21.9720   19.9853 C   0  0  0  0  0  0  0  0  0  0  0  0
  -24.3265  -32.1197   23.7584 C   0  0  0  0  0  0  0  0  0  0  0  0
  -26.0714  -25.2264   19.1351 C   0  0  0  0  0  0  0  0  0  0  0  0
  -21.6323  -33.1188   22.2533 C   0  0  0  0  0  0  0  0  0  0  0  0
  -19.5304  -32.8301   19.5802 C   0  0  0  0  0  0  0  0  0  0  0  0
  -28.4449  -16.5271   20.3149 C   0  0  0  0  0  0  0  0  0  0  0  0
  -27.4186  -33.8530   27.4316 C   0  0  0  0  0  0  0  0  0  0  0  0
  -25.1935  -32.5992   21.4401 C   0  0  0  0  0  0  0  0  0  0  0  0
  -22.7008  -31.0096   21.3728 C   0  0  0  0  0  0  0  0  0  0  0  0
  -25.9539  -34.0550   27.0521 C   0  0  0  0  0  0  0  0  0  0  0  0
  -30.1399  -13.5641   19.3027 C   0  0  0  0  0  0  0  0  0  0  0  0
  -25.2739  -32.7105   26.8138 C   0  0  0  0  0  0  0  0  0  0  0  0
  -29.0264  -12.5170   19.2278 C   0  0  0  0  0  0  0  0  0  0  0  0
  -29.9263  -14.5373   20.4607 C   0  0  0  0  0  0  0  0  0  0  0  0
  -27.4956  -14.1388   20.4167 C   0  0  0  0  0  0  0  0  0  0  0  0
  -25.9326  -31.9573   25.6518 C   0  0  1  0  0  0  0  0  0  0  0  0
  -24.0736  -32.8185   22.4525 C   0  0  1  0  0  0  0  0  0  0  0  0
  -27.6328  -13.1754   19.2264 C   0  0  2  0  0  0  0  0  0  0  0  0
  -28.1327  -24.4076   17.9556 C   0  0  0  0  0  0  0  0  0  0  0  0
  -17.3914  -33.7533   18.6475 C   0  0  0  0  0  0  0  0  0  0  0  0
  -20.0441  -31.4708   24.2710 C   0  0  0  0  0  0  0  0  0  0  0  0
  -18.0614  -31.6513   22.7529 C   0  0  0  0  0  0  0  0  0  0  0  0
  -19.0600  -33.7095   23.7475 C   0  0  0  0  0  0  0  0  0  0  0  0
  -20.8886  -33.8371   17.1511 C   0  0  0  0  0  0  0  0  0  0  0  0
  -26.3595  -26.7154   19.0913 C   0  0  0  0  0  0  0  0  0  1  0  0
  -27.2767  -24.3100   19.2025 C   0  0  2  0  0  0  0  0  0  0  0  0
  -20.3022  -32.4909   21.9133 C   0  0  1  0  0  0  0  0  0  0  0  0
  -18.9072  -33.8743   18.6715 C   0  0  2  0  0  0  0  0  0  0  0  0
  -19.3914  -32.3196   23.1618 C   0  0  0  0  0  0  0  0  0  0  0  0
  -26.0050  -11.7136   20.3642 N   0  0  0  0  0  0  0  0  0  0  0  0
  -26.5225  -12.1417   19.2002 N   0  0  0  0  0  0  0  0  0  0  0  0
  -22.7726  -32.3554   21.9654 N   0  0  0  0  0  0  0  0  0  0  0  0
  -28.5868  -15.1254   20.3917 N   0  0  0  0  0  0  0  0  0  0  0  0
  -26.3586  -11.8829   16.8514 N   0  0  0  0  0  0  0  0  0  0  0  0
  -23.2257   -9.0409   18.4340 N   0  0  0  0  0  0  0  0  0  0  0  0
  -28.5635  -22.1576   20.6257 N   0  0  0  0  0  0  0  0  0  0  0  0
  -27.1255  -16.9687   20.2207 N   0  0  0  0  0  0  0  0  0  0  0  0
  -25.4973  -32.5033   24.3842 N   0  0  0  0  0  0  0  0  0  0  0  0
  -19.7207  -33.3129   20.8577 N   0  0  0  0  0  0  0  0  0  0  0  0
  -26.7730  -22.9406   19.3140 N   0  3  0  0  0  0  0  0  0  0  0  0
  -19.4133  -33.7173   17.2786 N   0  3  0  0  0  0  0  0  0  0  0  0
  -24.2136   -9.8502   16.5292 O   0  0  0  0  0  0  0  0  0  0  0  0
  -23.5186  -31.2948   24.1686 O   0  0  0  0  0  0  0  0  0  0  0  0
  -24.9188  -24.7940   19.1170 O   0  0  0  0  0  0  0  0  0  0  0  0
  -21.6589  -34.2480   22.7491 O   0  0  0  0  0  0  0  0  0  0  0  0
  -19.8162  -31.6981   19.1962 O   0  0  0  0  0  0  0  0  0  0  0  0
  -29.4230  -17.2788   20.3039 O   0  0  0  0  0  0  0  0  0  0  0  0
  -21.9975   -8.1460   23.7936 O   0  0  0  0  0  0  0  0  0  0  0  0
  -25.1441  -27.4621   19.0526 O   0  0  0  0  0  0  0  0  0  1  0  0
  -21.2697   -2.7195   23.1402 F   0  0  0  0  0  0  0  0  0  0  0  0
  -20.7740   -7.1419   21.5270 F   0  0  0  0  0  0  0  0  0  0  0  0
  -25.1147  -20.3423   19.9438 S   0  0  0  0  0  0  0  0  0  0  0  0
  1  2  1  0  0  0  0
  1  5  2  0  0  0  0
  2  6  2  0  0  0  0
  3  8  2  0  0  0  0
  3 17  1  0  0  0  0
  4  9  1  0  0  0  0
  4 17  2  0  0  0  0
  5 19  1  0  0  0  0
  6 21  1  0  0  0  0
  7 10  2  0  0  0  0
  7 20  1  0  0  0  0
  8 24  1  0  0  0  0
  9 24  2  0  0  0  0
 10 25  1  0  0  0  0
 11 12  2  0  0  0  0
 11 26  1  0  0  0  0
 12 27  1  0  0  0  0
 13 22  1  0  0  0  0
 13 25  2  0  0  0  0
 14 23  1  0  0  0  0
 14 30  2  0  0  0  0
 15 27  2  0  0  0  0
 15 28  1  0  0  0  0
 16 23  2  0  0  0  0
 16 84  1  0  0  0  0
 17 29  1  0  0  0  0
 18 29  1  0  0  0  0
 18 31  2  0  0  0  0
 18 32  1  0  0  0  0
 19 21  2  0  0  0  0
 19 39  1  0  0  0  0
 20 22  2  0  0  0  0
 20 40  1  0  0  0  0
 21 48  1  0  0  0  0
 22 41  1  0  0  0  0
 23 69  1  0  0  0  0
 24 80  1  0  0  0  0
 25 81  1  0  0  0  0
 26 28  2  0  0  0  0
 26 80  1  0  0  0  0
 27 82  1  0  0  0  0
 28 83  1  0  0  0  0
 29 62  2  0  0  0  0
 30 33  1  0  0  0  0
 30 84  1  0  0  0  0
 31 63  1  0  0  0  0
 31 66  1  0  0  0  0
 32 67  1  0  0  0  0
 32 74  2  0  0  0  0
 33 68  1  0  0  0  0
 33 72  2  0  0  0  0
 34 49  1  0  0  0  0
 34 70  1  0  0  0  0
 34 75  2  0  0  0  0
 35 57  1  0  0  0  0
 35 58  1  0  0  0  0
 35 76  2  0  0  0  0
 36 59  1  0  0  0  0
 36 64  1  0  0  0  0
 36 77  2  0  0  0  0
 37 60  1  0  0  0  0
 37 71  1  0  0  0  0
 37 78  2  0  0  0  0
 38 65  1  0  0  0  0
 38 69  1  0  0  0  0
 38 79  2  0  0  0  0
 39 42  1  0  0  0  0
 40 49  1  0  0  0  0
 41 64  1  0  0  0  0
 42 44  1  0  0  0  0
 43 45  1  0  0  0  0
 43 46  1  0  0  0  0
 44 48  1  0  0  0  0
 45 50  1  0  0  0  0
 46 65  1  0  0  0  0
 47 50  1  0  0  0  0
 47 65  1  0  0  0  0
 48 70  1  0  0  0  0
 49 64  1  0  0  0  0
 50 63  1  0  0  0  0
 51 58  1  0  0  0  0
 52 60  1  0  0  0  0
 53 61  1  0  0  0  0
 54 61  1  0  0  0  0
 55 61  1  0  0  0  0
 56 73  1  0  0  0  0
 57 81  1  0  0  0  0
 58 72  1  0  0  0  0
 59 61  1  0  0  0  0
 59 71  1  0  0  0  0
 60 73  1  0  0  0  0
 62 63  1  0  0  0  0
M  CHG  2  72   1  73   1
M  ISO  4  38 100  57 101  69 100  81 101
M  END
> <Batch ID>
0153

> <Smiles>
CNC(C)C(=O)NC(C(=O)N1Cc2cc([101O:1][101CH2:1]C(=O)C(C)NC(=N)c3cc([100NH:0][100C:0](=O)N4CCCC(n5nc(-c6ccc(Oc7ccc(F)cc7F)cc6)c(C(N)=O)c5N)C4)cs3)ccc2CC1C(=O)NC1CCCc2ccccc21)C(C)(C)C

> <Shape>
0.275

> <Color>
0.075

> <Negative vol penalty>
0.000

$$$$

  -OEChem-04052303303D

 87 96  0     1  0  0  0  0  0999 V2000
  -26.4973  -34.6534   27.1319 C   0  0  0  0  0  0  0  0  0  0  0  0
  -27.2180  -34.1056   26.0755 C   0  0  0  0  0  0  0  0  0  0  0  0
  -21.3850  -10.4976   20.6102 C   0  0  0  0  0  0  0  0  0  0  0  0
  -23.2172  -10.1783   22.1524 C   0  0  0  0  0  0  0  0  0  0  0  0
  -25.5007  -33.9048   27.7566 C   0  0  0  0  0  0  0  0  0  0  0  0
  -26.9432  -32.8085   25.6439 C   0  0  0  0  0  0  0  0  0  0  0  0
  -26.8738  -28.7964   19.7096 C   0  0  0  0  0  0  0  0  0  0  0  0
  -21.1791   -9.1187   20.5693 C   0  0  0  0  0  0  0  0  0  0  0  0
  -23.0112   -8.7993   22.1115 C   0  0  0  0  0  0  0  0  0  0  0  0
  -27.3665  -27.5871   19.2213 C   0  0  0  0  0  0  0  0  0  0  0  0
  -20.8824   -6.5588   23.4784 C   0  0  0  0  0  0  0  0  0  0  0  0
  -20.8938   -5.8671   24.6897 C   0  0  0  0  0  0  0  0  0  0  0  0
  -30.2446  -19.0829   20.2004 C   0  0  0  0  0  0  0  0  0  0  0  0
  -29.7875  -20.3817   19.8338 C   0  0  0  0  0  0  0  0  0  0  0  0
  -25.5685  -26.4163   20.3239 C   0  0  0  0  0  0  0  0  0  0  0  0
  -22.7478   -4.5295   23.9082 C   0  0  0  0  0  0  0  0  0  0  0  0
  -22.4041  -11.0274   21.4018 C   0  0  0  0  0  0  0  0  0  0  0  0
  -22.0311  -13.3733   22.3320 C   0  0  0  0  0  0  0  0  0  0  0  0
  -25.2069  -32.6013   27.3261 C   0  0  0  0  0  0  0  0  0  0  0  0
  -25.7291  -28.8238   20.5191 C   0  0  0  0  0  0  0  0  0  0  0  0
  -25.9425  -32.0413   26.2642 C   0  0  0  0  0  0  0  0  0  0  0  0
  -25.0618  -27.6276   20.8191 C   0  0  0  0  0  0  0  0  0  0  0  0
  -21.9922   -8.2695   21.3199 C   0  0  0  0  0  0  0  0  0  0  0  0
  -26.7155  -26.3965   19.5308 C   0  0  0  0  0  0  0  0  0  0  0  0
  -21.8036   -6.2357   22.4820 C   0  0  0  0  0  0  0  0  0  0  0  0
  -21.8266   -4.8525   24.9046 C   0  0  0  0  0  0  0  0  0  0  0  0
  -22.7363   -5.2211   22.6970 C   0  0  0  0  0  0  0  0  0  0  0  0
  -22.6177  -12.4517   21.4440 C   0  0  0  0  0  0  0  0  0  0  0  0
  -29.4023  -18.4739   21.1044 C   0  0  0  0  0  0  0  0  0  0  0  0
  -22.5553  -14.5878   21.9621 C   0  0  0  0  0  0  0  0  0  0  0  0
  -28.6129  -20.7158   20.4715 C   0  0  0  0  0  0  0  0  0  0  0  0
  -21.0962  -13.1514   23.3961 C   0  0  0  0  0  0  0  0  0  0  0  0
  -25.1125  -29.7313   23.5024 C   0  0  0  0  0  0  0  0  0  0  0  0
  -22.0462  -29.1136   22.6429 C   0  0  0  0  0  0  0  0  0  0  0  0
  -28.0598  -23.0248   19.6370 C   0  0  0  0  0  0  0  0  0  0  0  0
  -19.8936  -27.4373   20.5928 C   0  0  0  0  0  0  0  0  0  0  0  0
  -27.6148  -16.1673   19.1769 C   0  0  0  0  0  0  0  0  0  0  0  0
  -24.1529  -31.8137   28.0631 C   0  0  0  0  0  0  0  0  0  0  0  0
  -25.1949  -30.1392   21.0159 C   0  0  0  0  0  0  0  0  0  0  0  0
  -23.8174  -27.6049   21.6673 C   0  0  0  0  0  0  0  0  0  0  0  0
  -23.6682  -30.5829   27.3011 C   0  0  0  0  0  0  0  0  0  0  0  0
  -24.2865  -16.9169   18.1583 C   0  0  0  0  0  0  0  0  0  0  0  0
  -24.8525  -29.7992   26.7443 C   0  0  0  0  0  0  0  0  0  0  0  0
  -23.4285  -15.9407   18.9650 C   0  0  0  0  0  0  0  0  0  0  0  0
  -30.8641  -18.0744   23.7303 C   0  0  0  0  0  0  0  0  0  0  0  0
  -25.6084  -16.2843   17.7287 C   0  0  0  0  0  0  0  0  0  0  0  0
  -25.5417  -14.7213   19.6330 C   0  0  0  0  0  0  0  0  0  0  0  0
  -31.2156  -16.8832   24.6259 C   0  0  0  0  0  0  0  0  0  0  0  0
  -25.6568  -30.6466   25.7511 C   0  0  1  0  0  0  0  0  0  0  0  0
  -24.3173  -29.9978   22.2557 C   0  0  1  0  0  0  0  0  0  0  0  0
  -24.2226  -15.3320   20.1364 C   0  0  2  0  0  0  0  0  0  0  0  0
  -30.7902  -17.0583   22.5701 C   0  0  2  0  0  0  0  0  0  0  0  0
  -32.0554  -16.9357   21.7260 C   0  0  0  0  0  0  0  0  0  0  0  0
  -17.4448  -27.1062   20.1555 C   0  0  0  0  0  0  0  0  0  0  0  0
  -21.8558  -27.3046   25.0926 C   0  0  0  0  0  0  0  0  0  0  0  0
  -19.7916  -26.2940   24.0994 C   0  0  0  0  0  0  0  0  0  0  0  0
  -19.8351  -28.7194   24.6810 C   0  0  0  0  0  0  0  0  0  0  0  0
  -20.1210  -28.5100   17.8439 C   0  0  0  0  0  0  0  0  0  0  0  0
  -26.9655  -24.0535   19.8534 C   0  0  0  0  0  0  0  0  0  1  0  0
  -29.5419  -15.9485   20.7253 C   0  0  0  0  0  0  0  0  0  0  0  0
  -29.5276  -17.1365   21.7233 C   0  0  2  0  0  0  0  0  0  0  0  0
  -21.1486  -27.9005   22.6820 C   0  0  1  0  0  0  0  0  0  0  0  0
  -18.6879  -27.9062   19.7985 C   0  0  2  0  0  0  0  0  0  0  0  0
  -20.6823  -27.5545   24.1243 C   0  0  0  0  0  0  0  0  0  0  0  0
  -23.4505  -13.0312   20.5754 N   0  0  0  0  0  0  0  0  0  0  0  0
  -23.3911  -14.3299   20.9157 N   0  0  0  0  0  0  0  0  0  0  0  0
  -23.3379  -28.9161   22.1345 N   0  0  0  0  0  0  0  0  0  0  0  0
  -26.3128  -15.7275   18.8862 N   0  0  0  0  0  0  0  0  0  0  0  0
  -22.3781  -15.8404   22.4332 N   0  0  0  0  0  0  0  0  0  0  0  0
  -20.6609  -11.8418   23.6408 N   0  0  0  0  0  0  0  0  0  0  0  0
  -27.8226  -21.8876   20.4015 N   0  0  0  0  0  0  0  0  0  0  0  0
  -24.9802  -30.7057   24.4732 N   0  0  0  0  0  0  0  0  0  0  0  0
  -20.0588  -28.1687   21.7499 N   0  0  0  0  0  0  0  0  0  0  0  0
  -28.2079  -15.5935   20.2948 N   0  0  0  0  0  0  0  0  0  0  0  0
  -30.7000  -15.9793   23.5838 N   0  3  0  0  0  0  0  0  0  0  0  0
  -18.9399  -27.7560   18.3374 N   0  3  0  0  0  0  0  0  0  0  0  0
  -20.6471  -14.0888   24.0982 O   0  0  0  0  0  0  0  0  0  0  0  0
  -25.7944  -28.7160   23.5785 O   0  0  0  0  0  0  0  0  0  0  0  0
  -21.6147  -30.1982   23.0418 O   0  0  0  0  0  0  0  0  0  0  0  0
  -28.9980  -23.2354   18.8754 O   0  0  0  0  0  0  0  0  0  0  0  0
  -20.6144  -26.5120   20.2255 O   0  0  0  0  0  0  0  0  0  0  0  0
  -28.2029  -17.0128   18.4942 O   0  0  0  0  0  0  0  0  0  0  0  0
  -21.7914   -6.9239   21.2804 O   0  0  0  0  0  0  0  0  0  0  0  0
  -27.1947  -25.2146   19.0560 O   0  0  0  0  0  0  0  0  0  1  0  0
  -21.8385   -4.1894   26.0683 F   0  0  0  0  0  0  0  0  0  0  0  0
  -23.6245   -4.9071   21.7440 F   0  0  0  0  0  0  0  0  0  0  0  0
  -28.0664  -19.4667   21.5074 S   0  0  0  0  0  0  0  0  0  0  0  0
  1  2  1  0  0  0  0
  1  5  2  0  0  0  0
  2  6  2  0  0  0  0
  3  8  2  0  0  0  0
  3 17  1  0  0  0  0
  4  9  1  0  0  0  0
  4 17  2  0  0  0  0
  5 19  1  0  0  0  0
  6 21  1  0  0  0  0
  7 10  2  0  0  0  0
  7 20  1  0  0  0  0
  8 23  1  0  0  0  0
  9 23  2  0  0  0  0
 10 24  1  0  0  0  0
 11 12  2  0  0  0  0
 11 25  1  0  0  0  0
 12 26  1  0  0  0  0
 13 14  1  0  0  0  0
 13 29  2  0  0  0  0
 14 31  2  0  0  0  0
 15 22  1  0  0  0  0
 15 24  2  0  0  0  0
 16 26  2  0  0  0  0
 16 27  1  0  0  0  0
 17 28  1  0  0  0  0
 18 28  1  0  0  0  0
 18 30  2  0  0  0  0
 18 32  1  0  0  0  0
 19 21  2  0  0  0  0
 19 38  1  0  0  0  0
 20 22  2  0  0  0  0
 20 39  1  0  0  0  0
 21 49  1  0  0  0  0
 22 40  1  0  0  0  0
 23 83  1  0  0  0  0
 24 84  1  0  0  0  0
 25 27  2  0  0  0  0
 25 83  1  0  0  0  0
 26 85  1  0  0  0  0
 27 86  1  0  0  0  0
 28 65  2  0  0  0  0
 29 61  1  0  0  0  0
 29 87  1  0  0  0  0
 30 66  1  0  0  0  0
 30 69  1  0  0  0  0
 31 71  1  0  0  0  0
 31 87  1  0  0  0  0
 32 70  1  0  0  0  0
 32 77  2  0  0  0  0
 33 50  1  0  0  0  0
 33 72  1  0  0  0  0
 33 78  2  0  0  0  0
 34 62  1  0  0  0  0
 34 67  1  0  0  0  0
 34 79  2  0  0  0  0
 35 59  1  0  0  0  0
 35 71  1  0  0  0  0
 35 80  2  0  0  0  0
 36 63  1  0  0  0  0
 36 73  1  0  0  0  0
 36 81  2  0  0  0  0
 37 68  1  0  0  0  0
 37 74  1  0  0  0  0
 37 82  2  0  0  0  0
 38 41  1  0  0  0  0
 39 50  1  0  0  0  0
 40 67  1  0  0  0  0
 41 43  1  0  0  0  0
 42 44  1  0  0  0  0
 42 46  1  0  0  0  0
 43 49  1  0  0  0  0
 44 51  1  0  0  0  0
 45 48  1  0  0  0  0
 45 52  1  0  0  0  0
 46 68  1  0  0  0  0
 47 51  1  0  0  0  0
 47 68  1  0  0  0  0
 48 75  1  0  0  0  0
 49 72  1  0  0  0  0
 50 67  1  0  0  0  0
 51 66  1  0  0  0  0
 52 53  1  0  0  0  0
 52 61  1  0  0  0  0
 52 75  1  0  0  0  0
 54 63  1  0  0  0  0
 55 64  1  0  0  0  0
 56 64  1  0  0  0  0
 57 64  1  0  0  0  0
 58 76  1  0  0  0  0
 59 84  1  0  0  0  0
 60 61  1  0  0  0  0
 60 74  1  0  0  0  0
 62 64  1  0  0  0  0
 62 73  1  0  0  0  0
 63 76  1  0  0  0  0
 65 66  1  0  0  0  0
M  CHG  2  75   1  76   1
M  ISO  4  37 100  59 101  74 100  84 101
M  END
> <Batch ID>
0153

> <Smiles>
CNC(C)C(=O)NC(C(=O)N1Cc2cc([101O:1][101CH2:1]C(=O)Nc3ccc(C(C[100NH:0][100C:0](=O)N4CCCC(n5nc(-c6ccc(Oc7ccc(F)cc7F)cc6)c(C(N)=O)c5N)C4)C4(C)CCN4)s3)ccc2CC1C(=O)NC1CCCc2ccccc21)C(C)(C)C

> <Shape>
0.327

> <Color>
0.072

> <Negative vol penalty>
0.000

$$$$

  -OEChem-04052303303D

 83 92  0     1  0  0  0  0  0999 V2000
  -35.9897  -29.1334   18.6221 C   0  0  0  0  0  0  0  0  0  0  0  0
  -35.8180  -27.9255   19.2906 C   0  0  0  0  0  0  0  0  0  0  0  0
  -23.1856   -9.9599   19.8746 C   0  0  0  0  0  0  0  0  0  0  0  0
  -23.9275   -9.9002   22.1731 C   0  0  0  0  0  0  0  0  0  0  0  0
  -34.8955  -29.7628   18.0300 C   0  0  0  0  0  0  0  0  0  0  0  0
  -34.5517  -27.3468   19.3683 C   0  0  0  0  0  0  0  0  0  0  0  0
  -34.6263  -22.3741   18.4136 C   0  0  0  0  0  0  0  0  0  0  0  0
  -22.4823   -8.7714   20.0707 C   0  0  0  0  0  0  0  0  0  0  0  0
  -23.2242   -8.7117   22.3692 C   0  0  0  0  0  0  0  0  0  0  0  0
  -35.0644  -21.5356   19.4378 C   0  0  0  0  0  0  0  0  0  0  0  0
  -20.0228   -7.7739   22.9097 C   0  0  0  0  0  0  0  0  0  0  0  0
  -19.2590   -7.6587   24.0712 C   0  0  0  0  0  0  0  0  0  0  0  0
  -32.7729  -21.0204   19.9880 C   0  0  0  0  0  0  0  0  0  0  0  0
  -32.5724  -15.7605   23.0099 C   0  0  0  0  0  0  0  0  0  0  0  0
  -20.5646   -5.7386   24.7392 C   0  0  0  0  0  0  0  0  0  0  0  0
  -30.7210  -15.6516   24.4110 C   0  0  0  0  0  0  0  0  0  0  0  0
  -23.9082  -10.5243   20.9258 C   0  0  0  0  0  0  0  0  0  0  0  0
  -24.1588  -13.0629   20.9118 C   0  0  0  0  0  0  0  0  0  0  0  0
  -33.6169  -29.1867   18.0921 C   0  0  0  0  0  0  0  0  0  0  0  0
  -33.2557  -22.5507   18.1756 C   0  0  0  0  0  0  0  0  0  0  0  0
  -33.4391  -27.9697   18.7776 C   0  0  0  0  0  0  0  0  0  0  0  0
  -32.3200  -21.8596   18.9586 C   0  0  0  0  0  0  0  0  0  0  0  0
  -31.2483  -15.2687   23.1973 C   0  0  0  0  0  0  0  0  0  0  0  0
  -22.5016   -8.1473   21.3180 C   0  0  0  0  0  0  0  0  0  0  0  0
  -34.1376  -20.8609   20.2270 C   0  0  0  0  0  0  0  0  0  0  0  0
  -21.0574   -6.8714   22.6629 C   0  0  0  0  0  0  0  0  0  0  0  0
  -19.5299   -6.6411   24.9859 C   0  0  0  0  0  0  0  0  0  0  0  0
  -21.3283   -5.8539   23.5777 C   0  0  0  0  0  0  0  0  0  0  0  0
  -24.6353  -11.7517   20.7237 C   0  0  0  0  0  0  0  0  0  0  0  0
  -33.0066  -16.5008   24.0876 C   0  0  0  0  0  0  0  0  0  0  0  0
  -25.2256  -13.8656   20.5892 C   0  0  0  0  0  0  0  0  0  0  0  0
  -22.8672  -13.5150   21.3400 C   0  0  0  0  0  0  0  0  0  0  0  0
  -34.3328  -17.1379   24.1749 C   0  0  0  0  0  0  0  0  0  0  0  0
  -31.2646  -25.0269   18.2639 C   0  0  0  0  0  0  0  0  0  0  0  0
  -29.1536  -22.8737   17.0681 C   0  0  0  0  0  0  0  0  0  0  0  0
  -28.2419  -19.6052   16.7038 C   0  0  0  0  0  0  0  0  0  0  0  0
  -30.9831  -14.0419   21.0131 C   0  0  0  0  0  0  0  0  0  0  0  0
  -32.4560  -29.9279   17.4776 C   0  0  0  0  0  0  0  0  0  0  0  0
  -32.7998  -23.4379   17.0498 C   0  0  0  0  0  0  0  0  0  0  0  0
  -30.8378  -21.9993   18.7308 C   0  0  0  0  0  0  0  0  0  0  0  0
  -31.2144  -29.0614   17.2830 C   0  0  0  0  0  0  0  0  0  0  0  0
  -29.3614  -13.2668   17.9396 C   0  0  0  0  0  0  0  0  0  0  0  0
  -30.9268  -28.2503   18.5425 C   0  0  0  0  0  0  0  0  0  0  0  0
  -27.9303  -12.9251   18.3609 C   0  0  0  0  0  0  0  0  0  0  0  0
  -35.3574  -20.5272   23.4590 C   0  0  0  0  0  0  0  0  0  0  0  0
  -30.3859  -12.7750   18.9605 C   0  0  0  0  0  0  0  0  0  0  0  0
  -35.7718  -19.0923   23.7734 C   0  0  0  0  0  0  0  0  0  0  0  0
  -28.7101  -12.8642   20.7641 C   0  0  0  0  0  0  0  0  0  0  0  0
  -33.3995  -19.1686   23.1385 C   0  0  0  0  0  0  0  0  0  0  0  0
  -32.0856  -27.2982   18.8621 C   0  0  1  0  0  0  0  0  0  0  0  0
  -31.3716  -23.9435   17.2283 C   0  0  1  0  0  0  0  0  0  0  0  0
  -27.6384  -13.3967   19.7989 C   0  0  2  0  0  0  0  0  0  0  0  0
  -34.1433  -20.3637   22.5495 C   0  0  2  0  0  0  0  0  0  1  0  0
  -26.4479  -18.1597   15.7091 C   0  0  0  0  0  0  0  0  0  0  0  0
  -27.2828  -23.6234   19.3589 C   0  0  0  0  0  0  0  0  0  0  0  0
  -25.9793  -21.5392   18.8841 C   0  0  0  0  0  0  0  0  0  0  0  0
  -26.1550  -23.3212   17.1473 C   0  0  0  0  0  0  0  0  0  0  0  0
  -30.1685  -18.2427   14.9174 C   0  0  0  0  0  0  0  0  0  0  0  0
  -28.1748  -21.8913   17.6648 C   0  0  1  0  0  0  0  0  0  0  0  0
  -27.8038  -18.8114   15.4862 C   0  0  2  0  0  0  0  0  0  0  0  0
  -26.9258  -22.5925   18.2696 C   0  0  0  0  0  0  0  0  0  0  0  0
  -25.9059  -11.7188   20.3133 N   0  0  0  0  0  0  0  0  0  0  0  0
  -26.2368  -13.0193   20.2407 N   0  0  0  0  0  0  0  0  0  0  0  0
  -34.4904  -18.3713   23.7304 N   0  0  0  0  0  0  0  0  0  0  0  0
  -30.4416  -22.8831   17.6220 N   0  0  0  0  0  0  0  0  0  0  0  0
  -30.0473  -13.2643   20.2987 N   0  0  0  0  0  0  0  0  0  0  0  0
  -25.3879  -15.2057   20.5724 N   0  0  0  0  0  0  0  0  0  0  0  0
  -21.8866  -12.5568   21.6308 N   0  0  0  0  0  0  0  0  0  0  0  0
  -30.5378  -14.4780   22.2605 N   0  0  0  0  0  0  0  0  0  0  0  0
  -32.0404  -26.1388   17.9972 N   0  0  0  0  0  0  0  0  0  0  0  0
  -27.8687  -20.9294   16.6115 N   0  0  0  0  0  0  0  0  0  0  0  0
  -35.3492  -16.4614   24.7016 N   0  3  0  0  0  0  0  0  0  0  0  0
  -28.7952  -17.7413   15.1813 N   0  3  0  0  0  0  0  0  0  0  0  0
  -22.5859  -14.7329   21.4453 O   0  0  0  0  0  0  0  0  0  0  0  0
  -30.5312  -24.8665   19.2325 O   0  0  0  0  0  0  0  0  0  0  0  0
  -28.7909  -23.6007   16.1399 O   0  0  0  0  0  0  0  0  0  0  0  0
  -28.8508  -19.1003   17.6444 O   0  0  0  0  0  0  0  0  0  0  0  0
  -32.0872  -14.3246   20.5408 O   0  0  0  0  0  0  0  0  0  0  0  0
  -21.8153   -6.9877   21.5098 O   0  0  0  0  0  0  0  0  0  0  0  0
  -34.5625  -20.0424   21.2277 O   0  0  0  0  0  0  0  0  0  1  0  0
  -18.7974   -6.5315   26.1020 F   0  0  0  0  0  0  0  0  0  0  0  0
  -22.3218   -4.9847   23.3466 F   0  0  0  0  0  0  0  0  0  0  0  0
  -31.8205  -16.6002   25.3186 S   0  0  0  0  0  0  0  0  0  0  0  0
  1  2  1  0  0  0  0
  1  5  2  0  0  0  0
  2  6  2  0  0  0  0
  3  8  2  0  0  0  0
  3 17  1  0  0  0  0
  4  9  1  0  0  0  0
  4 17  2  0  0  0  0
  5 19  1  0  0  0  0
  6 21  1  0  0  0  0
  7 10  2  0  0  0  0
  7 20  1  0  0  0  0
  8 24  1  0  0  0  0
  9 24  2  0  0  0  0
 10 25  1  0  0  0  0
 11 12  2  0  0  0  0
 11 26  1  0  0  0  0
 12 27  1  0  0  0  0
 13 22  1  0  0  0  0
 13 25  2  0  0  0  0
 14 23  1  0  0  0  0
 14 30  2  0  0  0  0
 15 27  2  0  0  0  0
 15 28  1  0  0  0  0
 16 23  2  0  0  0  0
 16 83  1  0  0  0  0
 17 29  1  0  0  0  0
 18 29  1  0  0  0  0
 18 31  2  0  0  0  0
 18 32  1  0  0  0  0
 19 21  2  0  0  0  0
 19 38  1  0  0  0  0
 20 22  2  0  0  0  0
 20 39  1  0  0  0  0
 21 50  1  0  0  0  0
 22 40  1  0  0  0  0
 23 69  1  0  0  0  0
 24 79  1  0  0  0  0
 25 80  1  0  0  0  0
 26 28  2  0  0  0  0
 26 79  1  0  0  0  0
 27 81  1  0  0  0  0
 28 82  1  0  0  0  0
 29 62  2  0  0  0  0
 30 33  1  0  0  0  0
 30 83  1  0  0  0  0
 31 63  1  0  0  0  0
 31 67  1  0  0  0  0
 32 68  1  0  0  0  0
 32 74  2  0  0  0  0
 33 64  1  0  0  0  0
 33 72  2  0  0  0  0
 34 51  1  0  0  0  0
 34 70  1  0  0  0  0
 34 75  2  0  0  0  0
 35 59  1  0  0  0  0
 35 65  1  0  0  0  0
 35 76  2  0  0  0  0
 36 60  1  0  0  0  0
 36 71  1  0  0  0  0
 36 77  2  0  0  0  0
 37 66  1  0  0  0  0
 37 69  1  0  0  0  0
 37 78  2  0  0  0  0
 38 41  1  0  0  0  0
 39 51  1  0  0  0  0
 40 65  1  0  0  0  0
 41 43  1  0  0  0  0
 42 44  1  0  0  0  0
 42 46  1  0  0  0  0
 43 50  1  0  0  0  0
 44 52  1  0  0  0  0
 45 47  1  0  0  0  0
 45 53  1  0  0  0  0
 46 66  1  0  0  0  0
 47 64  1  0  0  0  0
 48 52  1  0  0  0  0
 48 66  1  0  0  0  0
 49 53  1  0  0  0  0
 49 64  1  0  0  0  0
 50 70  1  0  0  0  0
 51 65  1  0  0  0  0
 52 63  1  0  0  0  0
 53 80  1  0  0  0  0
 54 60  1  0  0  0  0
 55 61  1  0  0  0  0
 56 61  1  0  0  0  0
 57 61  1  0  0  0  0
 58 73  1  0  0  0  0
 59 61  1  0  0  0  0
 59 71  1  0  0  0  0
 60 73  1  0  0  0  0
 62 63  1  0  0  0  0
M  CHG  2  72   1  73   1
M  ISO  4  37 100  53 101  69 100  80 101
M  END
> <Batch ID>
0153

> <Smiles>
CNC(C)C(=O)NC(C(=O)N1Cc2cc([101O:1][101CH:1]3CCN(C(=N)c4cc([100NH:0][100C:0](=O)N5CCCC(n6nc(-c7ccc(Oc8ccc(F)cc8F)cc7)c(C(N)=O)c6N)C5)cs4)C3)ccc2CC1C(=O)NC1CCCc2ccccc21)C(C)(C)C

> <Shape>
0.203

> <Color>
0.196

> <Negative vol penalty>
0.000

$$$$

  -OEChem-04052303303D

 86 95  0     1  0  0  0  0  0999 V2000
  -31.7371  -26.9788   12.8265 C   0  0  0  0  0  0  0  0  0  0  0  0
  -32.0946  -25.7568   13.3872 C   0  0  0  0  0  0  0  0  0  0  0  0
  -23.2866   -9.8709   19.8482 C   0  0  0  0  0  0  0  0  0  0  0  0
  -23.7992   -9.8837   22.2092 C   0  0  0  0  0  0  0  0  0  0  0  0
  -31.5983  -28.1032   13.6391 C   0  0  0  0  0  0  0  0  0  0  0  0
  -32.3146  -25.6588   14.7606 C   0  0  0  0  0  0  0  0  0  0  0  0
  -31.6107  -21.0673   20.2139 C   0  0  0  0  0  0  0  0  0  0  0  0
  -22.5755   -8.6818   20.0090 C   0  0  0  0  0  0  0  0  0  0  0  0
  -23.0880   -8.6946   22.3700 C   0  0  0  0  0  0  0  0  0  0  0  0
  -32.3531  -20.5059   21.2520 C   0  0  0  0  0  0  0  0  0  0  0  0
  -21.1038   -5.8526   23.4675 C   0  0  0  0  0  0  0  0  0  0  0  0
  -20.2311   -5.7595   24.5516 C   0  0  0  0  0  0  0  0  0  0  0  0
  -32.6178  -15.7511   23.6815 C   0  0  0  0  0  0  0  0  0  0  0  0
  -32.0068  -22.4974   22.5685 C   0  0  0  0  0  0  0  0  0  0  0  0
  -32.1361  -16.4993   25.9636 C   0  0  0  0  0  0  0  0  0  0  0  0
  -18.9811   -7.6468   23.7073 C   0  0  0  0  0  0  0  0  0  0  0  0
  -23.8985  -10.4719   20.9483 C   0  0  0  0  0  0  0  0  0  0  0  0
  -24.1322  -13.0113   20.8848 C   0  0  0  0  0  0  0  0  0  0  0  0
  -31.8074  -28.0169   15.0245 C   0  0  0  0  0  0  0  0  0  0  0  0
  -31.0691  -22.3545   20.3414 C   0  0  0  0  0  0  0  0  0  0  0  0
  -32.1799  -26.7835   15.5923 C   0  0  0  0  0  0  0  0  0  0  0  0
  -32.0701  -14.5489   24.0414 C   0  0  0  0  0  0  0  0  0  0  0  0
  -31.2558  -23.0718   21.5316 C   0  0  0  0  0  0  0  0  0  0  0  0
  -31.5635  -14.3344   25.3021 C   0  0  0  0  0  0  0  0  0  0  0  0
  -32.6427  -16.7455   24.6659 C   0  0  0  0  0  0  0  0  0  0  0  0
  -22.4761   -8.0936   21.2699 C   0  0  0  0  0  0  0  0  0  0  0  0
  -32.5537  -21.2221   22.4284 C   0  0  0  0  0  0  0  0  0  0  0  0
  -20.9152   -6.8428   22.5033 C   0  0  0  0  0  0  0  0  0  0  0  0
  -19.1697   -6.6566   24.6715 C   0  0  0  0  0  0  0  0  0  0  0  0
  -31.5848  -15.2593   26.2991 C   0  0  0  0  0  0  0  0  0  0  0  0
  -19.8538   -7.7399   22.6232 C   0  0  0  0  0  0  0  0  0  0  0  0
  -24.6337  -11.6999   20.7828 C   0  0  0  0  0  0  0  0  0  0  0  0
  -25.2202  -13.8147   20.6451 C   0  0  0  0  0  0  0  0  0  0  0  0
  -22.8018  -13.4630   21.1707 C   0  0  0  0  0  0  0  0  0  0  0  0
  -31.4512  -25.1110   18.8055 C   0  0  0  0  0  0  0  0  0  0  0  0
  -29.0234  -26.0722   20.7301 C   0  0  0  0  0  0  0  0  0  0  0  0
  -27.2862  -25.6431   23.6361 C   0  0  0  0  0  0  0  0  0  0  0  0
  -31.1129  -13.0042   21.2631 C   0  0  0  0  0  0  0  0  0  0  0  0
  -31.6917  -29.2701   15.8556 C   0  0  0  0  0  0  0  0  0  0  0  0
  -30.2481  -22.9351   19.2228 C   0  0  0  0  0  0  0  0  0  0  0  0
  -30.6783  -24.4492   21.7263 C   0  0  0  0  0  0  0  0  0  0  0  0
  -31.5769  -28.9992   17.3535 C   0  0  0  0  0  0  0  0  0  0  0  0
  -29.3837  -13.8738   18.2856 C   0  0  0  0  0  0  0  0  0  0  0  0
  -32.6175  -27.9736   17.7918 C   0  0  0  0  0  0  0  0  0  0  0  0
  -27.9240  -13.5387   18.5969 C   0  0  0  0  0  0  0  0  0  0  0  0
  -30.3410  -12.8643   18.9155 C   0  0  0  0  0  0  0  0  0  0  0  0
  -28.7042  -12.3255   20.6753 C   0  0  0  0  0  0  0  0  0  0  0  0
  -32.4029  -26.6317   17.0813 C   0  0  1  0  0  0  0  0  0  0  0  0
  -31.7664  -13.1267   23.6851 C   0  0  1  0  0  0  0  0  0  0  0  0
  -30.1771  -24.4585   19.2623 C   0  0  1  0  0  0  0  0  0  0  0  0
  -27.7024  -13.3466   20.1094 C   0  0  2  0  0  0  0  0  0  0  0  0
  -25.3776  -26.6056   24.9507 C   0  0  0  0  0  0  0  0  0  0  0  0
  -30.7942  -28.4037   21.5894 C   0  0  0  0  0  0  0  0  0  0  0  0
  -29.2640  -28.7564   23.5393 C   0  0  0  0  0  0  0  0  0  0  0  0
  -28.3945  -28.9995   21.2139 C   0  0  0  0  0  0  0  0  0  0  0  0
  -35.3977  -19.8748   24.1550 C   0  0  0  0  0  0  0  0  0  0  0  0
  -34.8794  -20.1690   21.7228 C   0  0  0  0  0  0  0  0  0  0  0  0
  -31.2216  -11.9757   25.9230 C   0  0  0  0  0  0  0  0  0  0  0  0
  -25.7650  -23.1079   23.5044 C   0  0  0  0  0  0  0  0  0  0  0  0
  -33.7376  -18.3330   23.0827 C   0  0  0  0  0  0  0  0  0  0  0  0
  -28.9291  -26.6937   22.1026 C   0  0  1  0  0  0  0  0  0  0  0  0
  -25.7963  -25.5710   23.9178 C   0  0  2  0  0  0  0  0  0  0  0  0
  -29.3581  -28.1882   22.1072 C   0  0  0  0  0  0  0  0  0  0  0  0
  -34.3102  -19.7589   23.0835 C   0  0  0  0  0  0  0  0  0  1  0  0
  -25.9388  -11.6675   20.5002 N   0  0  0  0  0  0  0  0  0  0  0  0
  -26.2664  -12.9685   20.4225 N   0  0  0  0  0  0  0  0  0  0  0  0
  -31.1827  -13.0840   25.0110 N   0  0  1  0  0  0  0  0  0  0  0  0
  -29.8884  -24.9764   20.6012 N   0  0  0  0  0  0  0  0  0  0  0  0
  -30.0798  -12.7353   20.3514 N   0  0  0  0  0  0  0  0  0  0  0  0
  -25.3744  -15.1552   20.6051 N   0  0  0  0  0  0  0  0  0  0  0  0
  -21.8038  -12.5042   21.3918 N   0  0  0  0  0  0  0  0  0  0  0  0
  -33.1828  -17.9860   24.3720 N   0  0  0  0  0  0  0  0  0  0  0  0
  -31.3049  -25.9091   17.6869 N   0  0  0  0  0  0  0  0  0  0  0  0
  -27.5640  -26.4625   22.5625 N   0  0  0  0  0  0  0  0  0  0  0  0
  -30.7877  -12.8692   22.6088 N   0  0  0  0  0  0  0  0  0  0  0  0
  -25.4309  -24.2203   24.4306 N   0  3  0  0  0  0  0  0  0  0  0  0
  -22.5033  -14.6807   21.2122 O   0  0  0  0  0  0  0  0  0  0  0  0
  -32.4897  -24.9068   19.4230 O   0  0  0  0  0  0  0  0  0  0  0  0
  -28.3488  -26.5373   19.8080 O   0  0  0  0  0  0  0  0  0  0  0  0
  -28.1206  -25.0364   24.3042 O   0  0  0  0  0  0  0  0  0  0  0  0
  -32.2460  -13.3488   20.9102 O   0  0  0  0  0  0  0  0  0  0  0  0
  -21.7821   -6.9334   21.4272 O   0  0  0  0  0  0  0  0  0  0  0  0
  -33.2784  -20.6768   23.4429 O   0  0  0  0  0  0  0  0  0  1  0  0
  -18.3308   -6.5662   25.7118 F   0  0  0  0  0  0  0  0  0  0  0  0
  -31.0938  -15.0131   27.5171 F   0  0  0  0  0  0  0  0  0  0  0  0
  -19.6669   -8.6926   21.6995 F   0  0  0  0  0  0  0  0  0  0  0  0
  1  2  1  0  0  0  0
  1  5  2  0  0  0  0
  2  6  2  0  0  0  0
  3  8  2  0  0  0  0
  3 17  1  0  0  0  0
  4  9  1  0  0  0  0
  4 17  2  0  0  0  0
  5 19  1  0  0  0  0
  6 21  1  0  0  0  0
  7 10  2  0  0  0  0
  7 20  1  0  0  0  0
  8 26  1  0  0  0  0
  9 26  2  0  0  0  0
 10 27  1  0  0  0  0
 11 12  2  0  0  0  0
 11 28  1  0  0  0  0
 12 29  1  0  0  0  0
 13 22  1  0  0  0  0
 13 25  2  0  0  0  0
 14 23  1  0  0  0  0
 14 27  2  0  0  0  0
 15 25  1  0  0  0  0
 15 30  2  0  0  0  0
 16 29  2  0  0  0  0
 16 31  1  0  0  0  0
 17 32  1  0  0  0  0
 18 32  1  0  0  0  0
 18 33  2  0  0  0  0
 18 34  1  0  0  0  0
 19 21  2  0  0  0  0
 19 39  1  0  0  0  0
 20 23  2  0  0  0  0
 20 40  1  0  0  0  0
 21 48  1  0  0  0  0
 22 24  2  0  0  0  0
 22 49  1  0  0  0  0
 23 41  1  0  0  0  0
 24 30  1  0  0  0  0
 24 67  1  0  0  0  0
 25 72  1  0  0  0  0
 26 82  1  0  0  0  0
 27 83  1  0  0  0  0
 28 31  2  0  0  0  0
 28 82  1  0  0  0  0
 29 84  1  0  0  0  0
 30 85  1  0  0  0  0
 31 86  1  0  0  0  0
 32 65  2  0  0  0  0
 33 66  1  0  0  0  0
 33 70  1  0  0  0  0
 34 71  1  0  0  0  0
 34 77  2  0  0  0  0
 35 50  1  0  0  0  0
 35 73  1  0  0  0  0
 35 78  2  0  0  0  0
 36 61  1  0  0  0  0
 36 68  1  0  0  0  0
 36 79  2  0  0  0  0
 37 62  1  0  0  0  0
 37 74  1  0  0  0  0
 37 80  2  0  0  0  0
 38 69  1  0  0  0  0
 38 75  1  0  0  0  0
 38 81  2  0  0  0  0
 39 42  1  0  0  0  0
 40 50  1  0  0  0  0
 41 68  1  0  0  0  0
 42 44  1  0  0  0  0
 43 45  1  0  0  0  0
 43 46  1  0  0  0  0
 44 48  1  0  0  0  0
 45 51  1  0  0  0  0
 46 69  1  0  0  0  0
 47 51  1  0  0  0  0
 47 69  1  0  0  0  0
 48 73  1  0  0  0  0
 49 67  1  0  0  0  0
 49 75  1  0  0  0  0
 50 68  1  0  0  0  0
 51 66  1  0  0  0  0
 52 62  1  0  0  0  0
 53 63  1  0  0  0  0
 54 63  1  0  0  0  0
 55 63  1  0  0  0  0
 56 64  1  0  0  0  0
 57 64  1  0  0  0  0
 58 67  1  0  0  0  0
 59 76  1  0  0  0  0
 60 64  1  0  0  0  0
 60 72  1  0  0  0  0
 61 63  1  0  0  0  0
 61 74  1  0  0  0  0
 62 76  1  0  0  0  0
 64 83  1  0  0  0  0
 65 66  1  0  0  0  0
M  CHG  1  76   1
M  ISO  4  38 100  64 101  75 100  83 101
M  END
> <Batch ID>
0153

> <Smiles>
CNC(C)C(=O)NC(C(=O)N1Cc2cc([101O:1][101C:1](C)(C)CNc3cc(F)c4c(c3)C([100NH:0][100C:0](=O)N3CCCC(n5nc(-c6ccc(Oc7ccc(F)cc7F)cc6)c(C(N)=O)c5N)C3)N4C)ccc2CC1C(=O)NC1CCCc2ccccc21)C(C)(C)C

> <Shape>
0.190

> <Color>
0.190

> <Negative vol penalty>
0.000

$$$$

  -OEChem-04052303303D

 82 90  0     1  0  0  0  0  0999 V2000
  -34.6256  -32.4158   13.2253 C   0  0  0  0  0  0  0  0  0  0  0  0
  -34.9009  -31.0672   13.4278 C   0  0  0  0  0  0  0  0  0  0  0  0
  -23.0268   -9.9522   19.8979 C   0  0  0  0  0  0  0  0  0  0  0  0
  -23.8313   -9.8112   22.1716 C   0  0  0  0  0  0  0  0  0  0  0  0
  -34.0462  -33.1687   14.2457 C   0  0  0  0  0  0  0  0  0  0  0  0
  -34.5979  -30.4710   14.6514 C   0  0  0  0  0  0  0  0  0  0  0  0
  -32.7017  -24.7217   15.5758 C   0  0  0  0  0  0  0  0  0  0  0  0
  -22.2580   -8.8059   20.0988 C   0  0  0  0  0  0  0  0  0  0  0  0
  -23.0625   -8.6649   22.3726 C   0  0  0  0  0  0  0  0  0  0  0  0
  -33.3742  -23.5626   15.9605 C   0  0  0  0  0  0  0  0  0  0  0  0
  -19.8269   -7.9156   22.9973 C   0  0  0  0  0  0  0  0  0  0  0  0
  -19.0922   -7.8289   24.1798 C   0  0  0  0  0  0  0  0  0  0  0  0
  -32.7238  -23.9524   18.2505 C   0  0  0  0  0  0  0  0  0  0  0  0
  -31.6788  -18.3445   20.2724 C   0  0  0  0  0  0  0  0  0  0  0  0
  -20.2966   -5.8226   24.7810 C   0  0  0  0  0  0  0  0  0  0  0  0
  -23.8135  -10.4549   20.9343 C   0  0  0  0  0  0  0  0  0  0  0  0
  -24.2190  -12.9735   20.9480 C   0  0  0  0  0  0  0  0  0  0  0  0
  -33.7271  -32.5791   15.4791 C   0  0  0  0  0  0  0  0  0  0  0  0
  -32.0432  -25.5120   16.5289 C   0  0  0  0  0  0  0  0  0  0  0  0
  -34.0149  -31.2171   15.6898 C   0  0  0  0  0  0  0  0  0  0  0  0
  -32.0415  -25.1196   17.8750 C   0  0  0  0  0  0  0  0  0  0  0  0
  -31.1329  -19.4665   19.5844 C   0  0  0  0  0  0  0  0  0  0  0  0
  -22.2758   -8.1622   21.3361 C   0  0  0  0  0  0  0  0  0  0  0  0
  -33.3878  -23.1793   17.2984 C   0  0  0  0  0  0  0  0  0  0  0  0
  -20.7964   -6.9558   22.7066 C   0  0  0  0  0  0  0  0  0  0  0  0
  -19.3270   -6.7824   25.0716 C   0  0  0  0  0  0  0  0  0  0  0  0
  -21.0313   -5.9093   23.5984 C   0  0  0  0  0  0  0  0  0  0  0  0
  -24.6084  -11.6387   20.7272 C   0  0  0  0  0  0  0  0  0  0  0  0
  -30.7926  -17.8157   21.1849 C   0  0  0  0  0  0  0  0  0  0  0  0
  -25.3231  -13.7146   20.6042 C   0  0  0  0  0  0  0  0  0  0  0  0
  -29.8500  -19.7524   19.9973 C   0  0  0  0  0  0  0  0  0  0  0  0
  -22.9709  -13.4966   21.4215 C   0  0  0  0  0  0  0  0  0  0  0  0
  -32.3530  -28.5012   17.5645 C   0  0  0  0  0  0  0  0  0  0  0  0
  -29.6623  -27.7898   19.2308 C   0  0  0  0  0  0  0  0  0  0  0  0
  -27.6687  -25.4001   20.6315 C   0  0  0  0  0  0  0  0  0  0  0  0
  -30.8343  -14.5836   20.7339 C   0  0  0  0  0  0  0  0  0  0  0  0
  -33.1452  -33.4447   16.5686 C   0  0  0  0  0  0  0  0  0  0  0  0
  -31.2998  -26.7451   16.0939 C   0  0  0  0  0  0  0  0  0  0  0  0
  -31.3328  -25.9225   18.9341 C   0  0  0  0  0  0  0  0  0  0  0  0
  -32.5107  -32.6481   17.7057 C   0  0  0  0  0  0  0  0  0  0  0  0
  -29.5882  -12.3663   18.2424 C   0  0  0  0  0  0  0  0  0  0  0  0
  -33.4331  -31.5146   18.1430 C   0  0  0  0  0  0  0  0  0  0  0  0
  -28.1523  -12.0849   18.6884 C   0  0  0  0  0  0  0  0  0  0  0  0
  -30.5341  -12.4962   19.4343 C   0  0  0  0  0  0  0  0  0  0  0  0
  -28.6796  -13.1957   20.8990 C   0  0  0  0  0  0  0  0  0  0  0  0
  -33.6781  -30.5285   16.9946 C   0  0  1  0  0  0  0  0  0  0  0  0
  -31.0971  -27.7502   17.2235 C   0  0  1  0  0  0  0  0  0  0  0  0
  -27.6784  -13.1120   19.7342 C   0  0  2  0  0  0  0  0  0  0  0  0
  -25.5572  -25.1270   21.9596 C   0  0  0  0  0  0  0  0  0  0  0  0
  -34.7737  -20.2494   16.2988 C   0  0  0  0  0  0  0  0  0  0  0  0
  -31.1294  -28.7012   21.7462 C   0  0  0  0  0  0  0  0  0  0  0  0
  -29.3766  -27.5397   23.1052 C   0  0  0  0  0  0  0  0  0  0  0  0
  -28.7416  -29.4318   21.6087 C   0  0  0  0  0  0  0  0  0  0  0  0
  -26.3888  -23.8107   18.4880 C   0  0  0  0  0  0  0  0  0  0  0  0
  -30.9806  -16.6589   22.0870 C   0  0  0  0  0  0  0  0  0  0  0  0
  -33.1696  -19.8594   18.1976 C   0  0  0  0  0  0  0  0  0  0  0  0
  -29.3709  -27.2044   20.5915 C   0  0  1  0  0  0  0  0  0  0  0  0
  -26.1687  -25.1759   20.5681 C   0  0  2  0  0  0  0  0  0  0  0  0
  -33.6094  -20.8201   17.0953 C   0  0  1  0  0  0  0  0  0  1  0  0
  -29.6697  -28.2050   21.7435 C   0  0  0  0  0  0  0  0  0  0  0  0
  -25.8619  -11.5349   20.2778 N   0  0  0  0  0  0  0  0  0  0  0  0
  -26.2697  -12.8138   20.2133 N   0  0  0  0  0  0  0  0  0  0  0  0
  -30.6253  -27.1233   18.4599 N   0  0  0  0  0  0  0  0  0  0  0  0
  -30.0281  -13.4868   20.3875 N   0  0  0  0  0  0  0  0  0  0  0  0
  -25.5668  -15.0423   20.6010 N   0  0  0  0  0  0  0  0  0  0  0  0
  -29.0476  -20.7516   19.5472 N   0  0  0  0  0  0  0  0  0  0  0  0
  -21.9423  -12.5955   21.7288 N   0  0  0  0  0  0  0  0  0  0  0  0
  -31.8231  -20.1766   18.6163 N   0  0  0  0  0  0  0  0  0  0  0  0
  -32.5367  -29.6548   16.8264 N   0  0  0  0  0  0  0  0  0  0  0  0
  -27.9890  -26.7387   20.5480 N   0  0  0  0  0  0  0  0  0  0  0  0
  -30.2762  -15.4784   21.6388 N   0  0  0  0  0  0  0  0  0  0  0  0
  -25.8658  -23.8912   19.8762 N   0  3  0  0  0  0  0  0  0  0  0  0
  -22.7681  -14.7276   21.5522 O   0  0  0  0  0  0  0  0  0  0  0  0
  -33.0994  -28.0669   18.4341 O   0  0  0  0  0  0  0  0  0  0  0  0
  -29.0527  -28.7970   18.8626 O   0  0  0  0  0  0  0  0  0  0  0  0
  -28.4755  -24.4802   20.7475 O   0  0  0  0  0  0  0  0  0  0  0  0
  -31.9654  -14.7558   20.2670 O   0  0  0  0  0  0  0  0  0  0  0  0
  -21.5256   -7.0437   21.5326 O   0  0  0  0  0  0  0  0  0  0  0  0
  -34.0440  -22.0487   17.6766 O   0  0  0  0  0  0  0  0  0  1  0  0
  -18.6225   -6.7002   26.2078 F   0  0  0  0  0  0  0  0  0  0  0  0
  -21.9622   -4.9849   23.3252 F   0  0  0  0  0  0  0  0  0  0  0  0
  -29.3092  -18.6708   21.2096 S   0  0  0  0  0  0  0  0  0  0  0  0
  1  2  1  0  0  0  0
  1  5  2  0  0  0  0
  2  6  2  0  0  0  0
  3  8  2  0  0  0  0
  3 16  1  0  0  0  0
  4  9  1  0  0  0  0
  4 16  2  0  0  0  0
  5 18  1  0  0  0  0
  6 20  1  0  0  0  0
  7 10  2  0  0  0  0
  7 19  1  0  0  0  0
  8 23  1  0  0  0  0
  9 23  2  0  0  0  0
 10 24  1  0  0  0  0
 11 12  2  0  0  0  0
 11 25  1  0  0  0  0
 12 26  1  0  0  0  0
 13 21  1  0  0  0  0
 13 24  2  0  0  0  0
 14 22  1  0  0  0  0
 14 29  2  0  0  0  0
 15 26  2  0  0  0  0
 15 27  1  0  0  0  0
 16 28  1  0  0  0  0
 17 28  1  0  0  0  0
 17 30  2  0  0  0  0
 17 32  1  0  0  0  0
 18 20  2  0  0  0  0
 18 37  1  0  0  0  0
 19 21  2  0  0  0  0
 19 38  1  0  0  0  0
 20 46  1  0  0  0  0
 21 39  1  0  0  0  0
 22 31  2  0  0  0  0
 22 68  1  0  0  0  0
 23 78  1  0  0  0  0
 24 79  1  0  0  0  0
 25 27  2  0  0  0  0
 25 78  1  0  0  0  0
 26 80  1  0  0  0  0
 27 81  1  0  0  0  0
 28 61  2  0  0  0  0
 29 55  1  0  0  0  0
 29 82  1  0  0  0  0
 30 62  1  0  0  0  0
 30 65  1  0  0  0  0
 31 66  1  0  0  0  0
 31 82  1  0  0  0  0
 32 67  1  0  0  0  0
 32 73  2  0  0  0  0
 33 47  1  0  0  0  0
 33 69  1  0  0  0  0
 33 74  2  0  0  0  0
 34 57  1  0  0  0  0
 34 63  1  0  0  0  0
 34 75  2  0  0  0  0
 35 58  1  0  0  0  0
 35 70  1  0  0  0  0
 35 76  2  0  0  0  0
 36 64  1  0  0  0  0
 36 71  1  0  0  0  0
 36 77  2  0  0  0  0
 37 40  1  0  0  0  0
 38 47  1  0  0  0  0
 39 63  1  0  0  0  0
 40 42  1  0  0  0  0
 41 43  1  0  0  0  0
 41 44  1  0  0  0  0
 42 46  1  0  0  0  0
 43 48  1  0  0  0  0
 44 64  1  0  0  0  0
 45 48  1  0  0  0  0
 45 64  1  0  0  0  0
 46 69  1  0  0  0  0
 47 63  1  0  0  0  0
 48 62  1  0  0  0  0
 49 58  1  0  0  0  0
 50 59  1  0  0  0  0
 51 60  1  0  0  0  0
 52 60  1  0  0  0  0
 53 60  1  0  0  0  0
 54 72  1  0  0  0  0
 55 71  1  0  0  0  0
 56 59  1  0  0  0  0
 56 68  1  0  0  0  0
 57 60  1  0  0  0  0
 57 70  1  0  0  0  0
 58 72  1  0  0  0  0
 59 79  1  0  0  0  0
 61 62  1  0  0  0  0
M  CHG  1  72   1
M  ISO  4  36 100  59 101  71 100  79 101
M  END
> <Batch ID>
0153

> <Smiles>
CNC(C)C(=O)NC(C(=O)N1Cc2cc([101O:1][101CH:1](C)CNc3cc(C[100NH:0][100C:0](=O)N4CCCC(n5nc(-c6ccc(Oc7ccc(F)cc7F)cc6)c(C(N)=O)c5N)C4)sc3N)ccc2CC1C(=O)NC1CCCc2ccccc21)C(C)(C)C

> <Shape>
0.244

> <Color>
0.201

> <Negative vol penalty>
0.000

$$$$

  -OEChem-04052303303D

 84 93  0     1  0  0  0  0  0999 V2000
  -28.0753  -34.1369   26.5087 C   0  0  0  0  0  0  0  0  0  0  0  0
  -28.4004  -33.0610   25.6887 C   0  0  0  0  0  0  0  0  0  0  0  0
  -24.2118   -9.6350   21.5991 C   0  0  0  0  0  0  0  0  0  0  0  0
  -23.2308  -10.9982   19.8623 C   0  0  0  0  0  0  0  0  0  0  0  0
  -26.7708  -34.2846   26.9783 C   0  0  0  0  0  0  0  0  0  0  0  0
  -27.4215  -32.1317   25.3388 C   0  0  0  0  0  0  0  0  0  0  0  0
  -26.9203  -29.1388   20.0193 C   0  0  0  0  0  0  0  0  0  0  0  0
  -22.9385   -9.3361   22.0838 C   0  0  0  0  0  0  0  0  0  0  0  0
  -21.9574  -10.6992   20.3469 C   0  0  0  0  0  0  0  0  0  0  0  0
  -27.2999  -27.8565   19.6251 C   0  0  0  0  0  0  0  0  0  0  0  0
  -20.3885   -7.2673   21.2772 C   0  0  0  0  0  0  0  0  0  0  0  0
  -20.1141   -5.9390   21.6025 C   0  0  0  0  0  0  0  0  0  0  0  0
  -25.0660  -27.0640   20.0730 C   0  0  0  0  0  0  0  0  0  0  0  0
  -26.6716  -20.3255   17.4900 C   0  0  0  0  0  0  0  0  0  0  0  0
  -28.0968  -19.0821   18.9932 C   0  0  0  0  0  0  0  0  0  0  0  0
  -26.7268  -17.9125   17.3832 C   0  0  0  0  0  0  0  0  0  0  0  0
  -19.6556   -6.5921   23.8829 C   0  0  0  0  0  0  0  0  0  0  0  0
  -24.3580  -10.4661   20.4884 C   0  0  0  0  0  0  0  0  0  0  0  0
  -26.4023  -10.0637   19.0166 C   0  0  0  0  0  0  0  0  0  0  0  0
  -25.7732  -33.3620   26.6261 C   0  0  0  0  0  0  0  0  0  0  0  0
  -25.6113  -29.3914   20.4544 C   0  0  0  0  0  0  0  0  0  0  0  0
  -26.1028  -32.2665   25.8052 C   0  0  0  0  0  0  0  0  0  0  0  0
  -24.6716  -28.3509   20.4697 C   0  0  0  0  0  0  0  0  0  0  0  0
  -27.6032  -20.3009   18.5278 C   0  0  0  0  0  0  0  0  0  0  0  0
  -26.2333  -19.1313   16.9178 C   0  0  0  0  0  0  0  0  0  0  0  0
  -27.6586  -17.8879   18.4209 C   0  0  0  0  0  0  0  0  0  0  0  0
  -21.8113   -9.8682   21.4577 C   0  0  0  0  0  0  0  0  0  0  0  0
  -26.3735  -26.8182   19.6546 C   0  0  0  0  0  0  0  0  0  0  0  0
  -20.2966   -8.2581   22.2549 C   0  0  0  0  0  0  0  0  0  0  0  0
  -19.7476   -5.6014   22.9053 C   0  0  0  0  0  0  0  0  0  0  0  0
  -19.9301   -7.9205   23.5577 C   0  0  0  0  0  0  0  0  0  0  0  0
  -25.6731  -10.7757   19.9876 C   0  0  0  0  0  0  0  0  0  0  0  0
  -27.5810  -10.7582   18.8947 C   0  0  0  0  0  0  0  0  0  0  0  0
  -28.1936  -23.7243   19.6695 C   0  0  0  0  0  0  0  0  0  0  0  0
  -27.7508  -24.9525   19.9591 C   0  0  0  0  0  0  0  0  0  1  0  0
  -26.0461   -8.8803   18.2896 C   0  0  0  0  0  0  0  0  0  0  0  0
  -24.3059  -30.3983   23.1720 C   0  0  0  0  0  0  0  0  0  0  0  0
  -21.5834  -30.4027   21.4085 C   0  0  0  0  0  0  0  0  0  0  0  0
  -19.8743  -29.1901   18.7149 C   0  0  0  0  0  0  0  0  0  0  0  0
  -29.0897  -16.4494   19.9139 C   0  0  0  0  0  0  0  0  0  0  0  0
  -24.3882  -33.5373   27.1967 C   0  0  0  0  0  0  0  0  0  0  0  0
  -25.2104  -30.7858   20.8509 C   0  0  0  0  0  0  0  0  0  0  0  0
  -23.2484  -28.5741   20.9092 C   0  0  0  0  0  0  0  0  0  0  0  0
  -29.3083  -23.0223   20.3783 C   0  0  0  0  0  0  0  0  0  0  0  0
  -27.5710  -22.8000   18.6668 C   0  0  0  0  0  0  0  0  0  0  0  0
  -23.3234  -32.7157   26.4745 C   0  0  0  0  0  0  0  0  0  0  0  0
  -30.5518  -13.5608   21.3955 C   0  0  0  0  0  0  0  0  0  0  0  0
  -23.8065  -31.2845   26.2619 C   0  0  0  0  0  0  0  0  0  0  0  0
  -29.5359  -12.4527   21.1089 C   0  0  0  0  0  0  0  0  0  0  0  0
  -28.9126  -21.5530   20.2621 C   0  0  0  0  0  0  0  0  0  0  0  0
  -29.8681  -14.8949   21.6894 C   0  0  0  0  0  0  0  0  0  0  0  0
  -27.8862  -14.2263   20.3879 C   0  0  0  0  0  0  0  0  0  0  0  0
  -25.0630  -31.2512   25.3834 C   0  0  1  0  0  0  0  0  0  0  0  0
  -23.9894  -30.8194   21.7649 C   0  0  1  0  0  0  0  0  0  0  0  0
  -28.5291  -12.8785   20.0223 C   0  0  2  0  0  0  0  0  0  0  0  0
  -17.6554  -29.3523   17.5540 C   0  0  0  0  0  0  0  0  0  0  0  0
  -20.3247  -28.6634   23.5765 C   0  0  0  0  0  0  0  0  0  0  0  0
  -18.5049  -28.0841   21.9576 C   0  0  0  0  0  0  0  0  0  0  0  0
  -18.8275  -30.4517   22.6739 C   0  0  0  0  0  0  0  0  0  0  0  0
  -21.1189  -30.2009   16.2273 C   0  0  0  0  0  0  0  0  0  0  0  0
  -20.5039  -29.3917   21.1060 C   0  0  1  0  0  0  0  0  0  0  0  0
  -19.0758  -29.8903   17.6301 C   0  0  2  0  0  0  0  0  0  0  0  0
  -19.5675  -29.1428   22.3220 C   0  0  0  0  0  0  0  0  0  0  0  0
  -26.3332  -11.8408   20.4499 N   0  0  0  0  0  0  0  0  0  0  0  0
  -27.4898  -11.8031   19.7665 N   0  0  0  0  0  0  0  0  0  0  0  0
  -28.0371  -21.4833   19.0946 N   0  0  3  0  0  0  0  0  0  0  0  0
  -22.9066  -29.9536   21.2934 N   0  0  0  0  0  0  0  0  0  0  0  0
  -28.9323  -15.2356   20.6157 N   0  0  0  0  0  0  0  0  0  0  0  0
  -25.2910  -19.1562   15.8686 N   0  0  0  0  0  0  0  0  0  0  0  0
  -28.6762  -10.5709   18.1280 N   0  0  0  0  0  0  0  0  0  0  0  0
  -24.7969   -8.2949   18.5369 N   0  0  0  0  0  0  0  0  0  0  0  0
  -28.1609  -16.6501   18.8933 N   0  0  0  0  0  0  0  0  0  0  0  0
  -24.7115  -31.4343   23.9916 N   0  0  0  0  0  0  0  0  0  0  0  0
  -19.8174  -29.8724   19.9118 N   0  0  0  0  0  0  0  0  0  0  0  0
  -19.7240  -29.6954   16.3024 N   0  3  0  0  0  0  0  0  0  0  0  0
  -26.8196   -8.3481   17.4578 O   0  0  0  0  0  0  0  0  0  0  0  0
  -24.1893  -29.2209   23.4911 O   0  0  0  0  0  0  0  0  0  0  0  0
  -21.2644  -31.5507   21.7279 O   0  0  0  0  0  0  0  0  0  0  0  0
  -20.4841  -28.1409   18.5210 O   0  0  0  0  0  0  0  0  0  0  0  0
  -29.9994  -17.2393   20.1795 O   0  0  0  0  0  0  0  0  0  0  0  0
  -20.5686   -9.5765   21.9302 O   0  0  0  0  0  0  0  0  0  0  0  0
  -26.7416  -25.5656   19.2710 O   0  0  0  0  0  0  0  0  0  1  0  0
  -19.4825   -4.3260   23.2171 F   0  0  0  0  0  0  0  0  0  0  0  0
  -19.8389   -8.8680   24.5009 F   0  0  0  0  0  0  0  0  0  0  0  0
  1  2  1  0  0  0  0
  1  5  2  0  0  0  0
  2  6  2  0  0  0  0
  3  8  2  0  0  0  0
  3 18  1  0  0  0  0
  4  9  1  0  0  0  0
  4 18  2  0  0  0  0
  5 20  1  0  0  0  0
  6 22  1  0  0  0  0
  7 10  2  0  0  0  0
  7 21  1  0  0  0  0
  8 27  1  0  0  0  0
  9 27  2  0  0  0  0
 10 28  1  0  0  0  0
 11 12  2  0  0  0  0
 11 29  1  0  0  0  0
 12 30  1  0  0  0  0
 13 23  1  0  0  0  0
 13 28  2  0  0  0  0
 14 24  1  0  0  0  0
 14 25  2  0  0  0  0
 15 24  2  0  0  0  0
 15 26  1  0  0  0  0
 16 25  1  0  0  0  0
 16 26  2  0  0  0  0
 17 30  2  0  0  0  0
 17 31  1  0  0  0  0
 18 32  1  0  0  0  0
 19 32  1  0  0  0  0
 19 33  2  0  0  0  0
 19 36  1  0  0  0  0
 20 22  2  0  0  0  0
 20 41  1  0  0  0  0
 21 23  2  0  0  0  0
 21 42  1  0  0  0  0
 22 53  1  0  0  0  0
 23 43  1  0  0  0  0
 24 66  1  0  0  0  0
 25 69  1  0  0  0  0
 26 72  1  0  0  0  0
 27 81  1  0  0  0  0
 28 82  1  0  0  0  0
 29 31  2  0  0  0  0
 29 81  1  0  0  0  0
 30 83  1  0  0  0  0
 31 84  1  0  0  0  0
 32 64  2  0  0  0  0
 33 65  1  0  0  0  0
 33 70  1  0  0  0  0
 34 35  2  0  0  0  0
 34 44  1  0  0  0  0
 34 45  1  0  0  0  0
 35 82  1  0  0  0  0
 36 71  1  0  0  0  0
 36 76  2  0  0  0  0
 37 54  1  0  0  0  0
 37 73  1  0  0  0  0
 37 77  2  0  0  0  0
 38 61  1  0  0  0  0
 38 67  1  0  0  0  0
 38 78  2  0  0  0  0
 39 62  1  0  0  0  0
 39 74  1  0  0  0  0
 39 79  2  0  0  0  0
 40 68  1  0  0  0  0
 40 72  1  0  0  0  0
 40 80  2  0  0  0  0
 41 46  1  0  0  0  0
 42 54  1  0  0  0  0
 43 67  1  0  0  0  0
 44 50  1  0  0  0  0
 45 66  1  0  0  0  0
 46 48  1  0  0  0  0
 47 49  1  0  0  0  0
 47 51  1  0  0  0  0
 48 53  1  0  0  0  0
 49 55  1  0  0  0  0
 50 66  1  0  0  0  0
 51 68  1  0  0  0  0
 52 55  1  0  0  0  0
 52 68  1  0  0  0  0
 53 73  1  0  0  0  0
 54 67  1  0  0  0  0
 55 65  1  0  0  0  0
 56 62  1  0  0  0  0
 57 63  1  0  0  0  0
 58 63  1  0  0  0  0
 59 63  1  0  0  0  0
 60 75  1  0  0  0  0
 61 63  1  0  0  0  0
 61 74  1  0  0  0  0
 62 75  1  0  0  0  0
 64 65  1  0  0  0  0
M  CHG  1  75   1
M  ISO  4  35 101  40 100  72 100  82 101
M  END
> <Batch ID>
0153

> <Smiles>
CNC(C)C(=O)NC(C(=O)N1Cc2cc([101O:1][101CH:1]=C3CCN(c4cc(N)cc([100NH:0][100C:0](=O)N5CCCC(n6nc(-c7ccc(Oc8ccc(F)cc8F)cc7)c(C(N)=O)c6N)C5)c4)C3)ccc2CC1C(=O)NC1CCCc2ccccc21)C(C)(C)C

> <Shape>
0.288

> <Color>
0.076

> <Negative vol penalty>
0.000

$$$$

  -OEChem-04052303303D

 83 92  0     1  0  0  0  0  0999 V2000
  -17.3131  -26.4290   22.4836 C   0  0  0  0  0  0  0  0  0  0  0  0
  -18.5610  -26.0594   21.9921 C   0  0  0  0  0  0  0  0  0  0  0  0
  -26.4864  -11.9217   21.0429 C   0  0  0  0  0  0  0  0  0  0  0  0
  -24.6540  -13.1957   20.1176 C   0  0  0  0  0  0  0  0  0  0  0  0
  -16.9777  -27.7783   22.5874 C   0  0  0  0  0  0  0  0  0  0  0  0
  -19.4739  -27.0390   21.6030 C   0  0  0  0  0  0  0  0  0  0  0  0
  -25.5694  -26.8171   22.1523 C   0  0  0  0  0  0  0  0  0  0  0  0
  -25.5915  -10.9350   21.4566 C   0  0  0  0  0  0  0  0  0  0  0  0
  -23.7591  -12.2090   20.5312 C   0  0  0  0  0  0  0  0  0  0  0  0
  -26.5813  -26.4934   21.2496 C   0  0  0  0  0  0  0  0  0  0  0  0
  -23.9103   -8.3539   20.0622 C   0  0  0  0  0  0  0  0  0  0  0  0
  -24.2558   -7.0239   19.8229 C   0  0  0  0  0  0  0  0  0  0  0  0
  -29.6260  -22.8033   16.0336 C   0  0  0  0  0  0  0  0  0  0  0  0
  -29.0993  -21.5573   16.4499 C   0  0  0  0  0  0  0  0  0  0  0  0
  -26.8921  -28.8364   20.7670 C   0  0  0  0  0  0  0  0  0  0  0  0
  -24.1767   -6.5765   22.1959 C   0  0  0  0  0  0  0  0  0  0  0  0
  -26.0177  -13.0521   20.3735 C   0  0  0  0  0  0  0  0  0  0  0  0
  -27.6156  -14.1458   18.7127 C   0  0  0  0  0  0  0  0  0  0  0  0
  -17.8906  -28.7751   22.2084 C   0  0  0  0  0  0  0  0  0  0  0  0
  -25.2031  -28.1545   22.3614 C   0  0  0  0  0  0  0  0  0  0  0  0
  -19.1499  -28.4029   21.7005 C   0  0  0  0  0  0  0  0  0  0  0  0
  -25.8769  -29.1746   21.6749 C   0  0  0  0  0  0  0  0  0  0  0  0
  -24.2278  -11.0786   21.2007 C   0  0  0  0  0  0  0  0  0  0  0  0
  -27.2409  -27.5029   20.5546 C   0  0  0  0  0  0  0  0  0  0  0  0
  -23.6980   -8.7953   21.3682 C   0  0  0  0  0  0  0  0  0  0  0  0
  -24.3890   -6.1352   20.8898 C   0  0  0  0  0  0  0  0  0  0  0  0
  -23.8312   -7.9066   22.4351 C   0  0  0  0  0  0  0  0  0  0  0  0
  -26.9416  -14.0720   19.9464 C   0  0  0  0  0  0  0  0  0  0  0  0
  -29.9872  -23.4683   17.1822 C   0  0  0  0  0  0  0  0  0  0  0  0
  -28.3673  -15.2920   18.8002 C   0  0  0  0  0  0  0  0  0  0  0  0
  -29.1764  -21.5497   17.8232 C   0  0  0  0  0  0  0  0  0  0  0  0
  -27.5666  -13.2577   17.5882 C   0  0  0  0  0  0  0  0  0  0  0  0
  -30.5851  -24.8147   17.2268 C   0  0  0  0  0  0  0  0  0  0  0  0
  -22.5438  -29.8440   21.9405 C   0  0  0  0  0  0  0  0  0  0  0  0
  -24.2574  -32.1758   23.4063 C   0  0  0  0  0  0  0  0  0  0  0  0
  -27.3192  -33.4578   24.1991 C   0  0  0  0  0  0  0  0  0  0  0  0
  -28.9209  -20.6613   20.1667 C   0  0  0  0  0  0  0  0  0  0  0  0
  -17.4653  -30.2196   22.2943 C   0  0  0  0  0  0  0  0  0  0  0  0
  -24.1277  -28.4888   23.3585 C   0  0  0  0  0  0  0  0  0  0  0  0
  -25.5353  -30.6273   21.8785 C   0  0  0  0  0  0  0  0  0  0  0  0
  -18.6297  -31.2033   22.2123 C   0  0  0  0  0  0  0  0  0  0  0  0
  -29.3825  -18.2708   22.7647 C   0  0  0  0  0  0  0  0  0  0  0  0
  -19.5675  -30.8264   21.0697 C   0  0  0  0  0  0  0  0  0  0  0  0
  -28.8440  -16.9714   22.1616 C   0  0  0  0  0  0  0  0  0  0  0  0
  -30.6365  -27.2707   19.8753 C   0  0  0  0  0  0  0  0  0  0  0  0
  -28.5628  -19.4826   22.3248 C   0  0  0  0  0  0  0  0  0  0  0  0
  -30.9102  -26.9473   18.4091 C   0  0  0  0  0  0  0  0  0  0  0  0
  -27.8537  -18.3234   20.2699 C   0  0  0  0  0  0  0  0  0  0  0  0
  -29.5280  -25.1859   19.4209 C   0  0  0  0  0  0  0  0  0  0  0  0
  -20.1766  -29.4367   21.2915 C   0  0  1  0  0  0  0  0  0  0  0  0
  -23.4859  -29.8505   23.1110 C   0  0  1  0  0  0  0  0  0  0  0  0
  -28.6863  -17.0828   20.6325 C   0  0  2  0  0  0  0  0  0  0  0  0
  -29.3598  -26.4951   20.1862 C   0  0  2  0  0  0  0  0  0  1  0  0
  -28.4000  -35.3949   25.3725 C   0  0  0  0  0  0  0  0  0  0  0  0
  -23.6024  -33.9765   21.0318 C   0  0  0  0  0  0  0  0  0  0  0  0
  -25.4380  -35.5079   21.7759 C   0  0  0  0  0  0  0  0  0  0  0  0
  -23.4752  -35.1025   23.2612 C   0  0  0  0  0  0  0  0  0  0  0  0
  -28.6505  -31.6800   26.1551 C   0  0  0  0  0  0  0  0  0  0  0  0
  -25.1881  -33.2704   22.9430 C   0  0  1  0  0  0  0  0  0  0  0  0
  -27.8882  -33.9695   25.5102 C   0  0  2  0  0  0  0  0  0  0  0  0
  -24.4313  -34.4369   22.2475 C   0  0  0  0  0  0  0  0  0  0  0  0
  -27.2389  -15.0901   20.7582 N   0  0  0  0  0  0  0  0  0  0  0  0
  -28.1082  -15.8145   20.0331 N   0  0  0  0  0  0  0  0  0  0  0  0
  -30.3594  -25.5904   18.2714 N   0  0  0  0  0  0  0  0  0  0  0  0
  -24.4724  -30.9029   22.8593 N   0  0  0  0  0  0  0  0  0  0  0  0
  -28.4595  -19.5251   20.8645 N   0  0  0  0  0  0  0  0  0  0  0  0
  -29.2181  -15.8937   17.9420 N   0  0  0  0  0  0  0  0  0  0  0  0
  -26.7423  -12.1268   17.6654 N   0  0  0  0  0  0  0  0  0  0  0  0
  -28.8012  -20.5743   18.7801 N   0  0  0  0  0  0  0  0  0  0  0  0
  -21.2449  -29.5028   22.2656 N   0  0  0  0  0  0  0  0  0  0  0  0
  -25.9599  -33.6727   24.1139 N   0  0  0  0  0  0  0  0  0  0  0  0
  -31.3438  -25.2264   16.2154 N   0  3  0  0  0  0  0  0  0  0  0  0
  -29.0176  -33.1058   25.9568 N   0  3  0  0  0  0  0  0  0  0  0  0
  -28.2466  -13.4522   16.5522 O   0  0  0  0  0  0  0  0  0  0  0  0
  -22.9640  -30.1290   20.8252 O   0  0  0  0  0  0  0  0  0  0  0  0
  -23.3766  -32.4389   24.2290 O   0  0  0  0  0  0  0  0  0  0  0  0
  -28.0119  -32.9244   23.3353 O   0  0  0  0  0  0  0  0  0  0  0  0
  -29.4130  -21.6282   20.7541 O   0  0  0  0  0  0  0  0  0  0  0  0
  -29.7165  -22.7109   18.2775 O   0  0  0  0  0  0  0  0  0  0  0  0
  -23.3543  -10.1159   21.6040 O   0  0  0  0  0  0  0  0  0  0  0  0
  -28.2286  -27.1896   19.6725 O   0  0  0  0  0  0  0  0  0  1  0  0
  -24.7192   -4.8576   20.6598 F   0  0  0  0  0  0  0  0  0  0  0  0
  -23.6273   -8.3245   23.6919 F   0  0  0  0  0  0  0  0  0  0  0  0
  1  2  1  0  0  0  0
  1  5  2  0  0  0  0
  2  6  2  0  0  0  0
  3  8  2  0  0  0  0
  3 17  1  0  0  0  0
  4  9  1  0  0  0  0
  4 17  2  0  0  0  0
  5 19  1  0  0  0  0
  6 21  1  0  0  0  0
  7 10  2  0  0  0  0
  7 20  1  0  0  0  0
  8 23  1  0  0  0  0
  9 23  2  0  0  0  0
 10 24  1  0  0  0  0
 11 12  2  0  0  0  0
 11 25  1  0  0  0  0
 12 26  1  0  0  0  0
 13 14  1  0  0  0  0
 13 29  2  0  0  0  0
 14 31  2  0  0  0  0
 15 22  1  0  0  0  0
 15 24  2  0  0  0  0
 16 26  2  0  0  0  0
 16 27  1  0  0  0  0
 17 28  1  0  0  0  0
 18 28  1  0  0  0  0
 18 30  2  0  0  0  0
 18 32  1  0  0  0  0
 19 21  2  0  0  0  0
 19 38  1  0  0  0  0
 20 22  2  0  0  0  0
 20 39  1  0  0  0  0
 21 50  1  0  0  0  0
 22 40  1  0  0  0  0
 23 80  1  0  0  0  0
 24 81  1  0  0  0  0
 25 27  2  0  0  0  0
 25 80  1  0  0  0  0
 26 82  1  0  0  0  0
 27 83  1  0  0  0  0
 28 62  2  0  0  0  0
 29 33  1  0  0  0  0
 29 79  1  0  0  0  0
 30 63  1  0  0  0  0
 30 67  1  0  0  0  0
 31 69  1  0  0  0  0
 31 79  1  0  0  0  0
 32 68  1  0  0  0  0
 32 74  2  0  0  0  0
 33 64  1  0  0  0  0
 33 72  2  0  0  0  0
 34 51  1  0  0  0  0
 34 70  1  0  0  0  0
 34 75  2  0  0  0  0
 35 59  1  0  0  0  0
 35 65  1  0  0  0  0
 35 76  2  0  0  0  0
 36 60  1  0  0  0  0
 36 71  1  0  0  0  0
 36 77  2  0  0  0  0
 37 66  1  0  0  0  0
 37 69  1  0  0  0  0
 37 78  2  0  0  0  0
 38 41  1  0  0  0  0
 39 51  1  0  0  0  0
 40 65  1  0  0  0  0
 41 43  1  0  0  0  0
 42 44  1  0  0  0  0
 42 46  1  0  0  0  0
 43 50  1  0  0  0  0
 44 52  1  0  0  0  0
 45 47  1  0  0  0  0
 45 53  1  0  0  0  0
 46 66  1  0  0  0  0
 47 64  1  0  0  0  0
 48 52  1  0  0  0  0
 48 66  1  0  0  0  0
 49 53  1  0  0  0  0
 49 64  1  0  0  0  0
 50 70  1  0  0  0  0
 51 65  1  0  0  0  0
 52 63  1  0  0  0  0
 53 81  1  0  0  0  0
 54 60  1  0  0  0  0
 55 61  1  0  0  0  0
 56 61  1  0  0  0  0
 57 61  1  0  0  0  0
 58 73  1  0  0  0  0
 59 61  1  0  0  0  0
 59 71  1  0  0  0  0
 60 73  1  0  0  0  0
 62 63  1  0  0  0  0
M  CHG  2  72   1  73   1
M  ISO  4  37 100  53 101  69 100  81 101
M  END
> <Batch ID>
0153

> <Smiles>
CNC(C)C(=O)NC(C(=O)N1Cc2cc([101O:1][101CH:1]3CCN(C(=N)c4ccc([100NH:0][100C:0](=O)N5CCCC(n6nc(-c7ccc(Oc8ccc(F)cc8F)cc7)c(C(N)=O)c6N)C5)o4)C3)ccc2CC1C(=O)NC1CCCc2ccccc21)C(C)(C)C

> <Shape>
0.350

> <Color>
0.092

> <Negative vol penalty>
0.000

$$$$

  -OEChem-04052303303D

 82 91  0     1  0  0  0  0  0999 V2000
  -22.5486   -7.2237   24.6140 C   0  0  0  0  0  0  0  0  0  0  0  0
  -23.4101   -8.2757   24.9081 C   0  0  0  0  0  0  0  0  0  0  0  0
  -23.9084  -29.9120   20.1845 C   0  0  0  0  0  0  0  0  0  0  0  0
  -24.0911  -28.1577   21.8356 C   0  0  0  0  0  0  0  0  0  0  0  0
  -22.3020   -6.8764   23.2864 C   0  0  0  0  0  0  0  0  0  0  0  0
  -24.0266   -8.9803   23.8746 C   0  0  0  0  0  0  0  0  0  0  0  0
  -25.3749  -14.9535   23.7839 C   0  0  0  0  0  0  0  0  0  0  0  0
  -22.6324  -30.2218   20.6549 C   0  0  0  0  0  0  0  0  0  0  0  0
  -22.8151  -28.4676   22.3061 C   0  0  0  0  0  0  0  0  0  0  0  0
  -26.5541  -15.6529   24.0371 C   0  0  0  0  0  0  0  0  0  0  0  0
  -19.4627  -28.5589   23.7072 C   0  0  0  0  0  0  0  0  0  0  0  0
  -18.5899  -27.5005   23.9591 C   0  0  0  0  0  0  0  0  0  0  0  0
  -27.0296  -15.6953   21.6725 C   0  0  0  0  0  0  0  0  0  0  0  0
  -29.0619  -20.3958   18.2651 C   0  0  0  0  0  0  0  0  0  0  0  0
  -18.7389  -26.8265   21.6438 C   0  0  0  0  0  0  0  0  0  0  0  0
  -24.6378  -28.8798   20.7748 C   0  0  0  0  0  0  0  0  0  0  0  0
  -27.1789  -29.0997   20.7284 C   0  0  0  0  0  0  0  0  0  0  0  0
  -22.9083   -7.5833   22.2359 C   0  0  0  0  0  0  0  0  0  0  0  0
  -25.0190  -14.6097   22.4718 C   0  0  0  0  0  0  0  0  0  0  0  0
  -23.7890   -8.6412   22.5318 C   0  0  0  0  0  0  0  0  0  0  0  0
  -25.8441  -14.9938   21.4051 C   0  0  0  0  0  0  0  0  0  0  0  0
  -29.2769  -19.2991   19.1548 C   0  0  0  0  0  0  0  0  0  0  0  0
  -22.0857  -29.4997   21.7157 C   0  0  0  0  0  0  0  0  0  0  0  0
  -27.3831  -16.0214   22.9817 C   0  0  0  0  0  0  0  0  0  0  0  0
  -19.9736  -28.7512   22.4235 C   0  0  0  0  0  0  0  0  0  0  0  0
  -18.2280  -26.6343   22.9274 C   0  0  0  0  0  0  0  0  0  0  0  0
  -19.6117  -27.8849   21.3919 C   0  0  0  0  0  0  0  0  0  0  0  0
  -25.9557  -28.5589   20.2889 C   0  0  0  0  0  0  0  0  0  0  0  0
  -28.1279  -28.4728   19.9585 C   0  0  0  0  0  0  0  0  0  0  0  0
  -28.8605  -19.6275   20.4226 C   0  0  0  0  0  0  0  0  0  0  0  0
  -28.4998  -21.4842   18.9030 C   0  0  0  0  0  0  0  0  0  0  0  0
  -29.5043  -17.4611   21.2147 C   0  0  0  0  0  0  0  0  0  0  0  0
  -27.4343  -30.0810   21.7421 C   0  0  0  0  0  0  0  0  0  0  0  0
  -24.5499  -11.8768   20.9178 C   0  0  0  0  0  0  0  0  0  0  0  0
  -23.6007  -13.8514   18.5257 C   0  0  0  0  0  0  0  0  0  0  0  0
  -23.7395  -16.9482   17.0983 C   0  0  0  0  0  0  0  0  0  0  0  0
  -28.2518  -23.2266   17.1006 C   0  0  0  0  0  0  0  0  0  0  0  0
  -22.6480   -7.1407   20.8178 C   0  0  0  0  0  0  0  0  0  0  0  0
  -23.7303  -13.8785   22.2130 C   0  0  0  0  0  0  0  0  0  0  0  0
  -25.4972  -14.6666   19.9764 C   0  0  0  0  0  0  0  0  0  0  0  0
  -29.8639  -17.9705   18.8115 C   0  0  0  0  0  0  0  0  0  0  0  0
  -23.0491   -8.1784   19.7726 C   0  0  0  0  0  0  0  0  0  0  0  0
  -28.7226  -26.4482   15.6595 C   0  0  0  0  0  0  0  0  0  0  0  0
  -24.4356   -8.7360   20.0785 C   0  0  0  0  0  0  0  0  0  0  0  0
  -28.1834  -27.4046   16.7256 C   0  0  0  0  0  0  0  0  0  0  0  0
  -27.9008  -25.1627   15.5829 C   0  0  0  0  0  0  0  0  0  0  0  0
  -27.1866  -25.4171   17.9270 C   0  0  0  0  0  0  0  0  0  0  0  0
  -24.4574   -9.4453   21.4378 C   0  0  1  0  0  0  0  0  0  0  0  0
  -23.7240  -13.1314   20.8828 C   0  0  1  0  0  0  0  0  0  0  0  0
  -28.0211  -26.6984   18.0860 C   0  0  2  0  0  0  0  0  0  0  0  0
  -30.9376  -16.6540   23.0532 C   0  0  0  0  0  0  0  0  0  0  0  0
  -22.8884  -18.2492   15.1284 C   0  0  0  0  0  0  0  0  0  0  0  0
  -25.5996  -12.4192   16.7193 C   0  0  0  0  0  0  0  0  0  0  0  0
  -25.4013  -14.3241   15.1068 C   0  0  0  0  0  0  0  0  0  0  0  0
  -23.4016  -12.9324   15.6423 C   0  0  0  0  0  0  0  0  0  0  0  0
  -22.3449  -18.8939   18.8385 C   0  0  0  0  0  0  0  0  0  0  0  0
  -29.6171  -16.4969   22.3191 C   0  0  1  0  0  0  0  0  0  1  0  0
  -24.2895  -14.5450   17.3752 C   0  0  1  0  0  0  0  0  0  0  0  0
  -22.6488  -17.8688   16.5812 C   0  0  2  0  0  0  0  0  0  0  0  0
  -24.6808  -13.5598   16.2379 C   0  0  0  0  0  0  0  0  0  0  0  0
  -26.1106  -27.6578   19.3151 N   0  0  0  0  0  0  0  0  0  0  0  0
  -27.4422  -27.6277   19.1364 N   0  0  0  0  0  0  0  0  0  0  0  0
  -28.9850  -18.6535   21.5007 N   0  0  0  0  0  0  0  0  0  0  0  0
  -24.2298  -13.9449   19.7753 N   0  0  0  0  0  0  0  0  0  0  0  0
  -27.7932  -24.5469   16.9073 N   0  0  0  0  0  0  0  0  0  0  0  0
  -29.9273  -17.0871   20.0030 N   0  3  0  0  0  0  0  0  0  0  0  0
  -29.4737  -28.5675   19.9113 N   0  0  0  0  0  0  0  0  0  0  0  0
  -26.3446  -30.6228   22.4373 N   0  0  0  0  0  0  0  0  0  0  0  0
  -28.1281  -22.7589   18.4085 N   0  0  0  0  0  0  0  0  0  0  0  0
  -23.8549  -10.7570   21.3331 N   0  0  0  0  0  0  0  0  0  0  0  0
  -23.3978  -15.6201   16.9540 N   0  0  0  0  0  0  0  0  0  0  0  0
  -22.5980  -19.1182   17.3919 N   0  3  0  0  0  0  0  0  0  0  0  0
  -28.5933  -30.4780   22.0117 O   0  0  0  0  0  0  0  0  0  0  0  0
  -25.7301  -11.9210   20.5907 O   0  0  0  0  0  0  0  0  0  0  0  0
  -22.5399  -13.2549   18.3246 O   0  0  0  0  0  0  0  0  0  0  0  0
  -24.7911  -17.3654   17.5784 O   0  0  0  0  0  0  0  0  0  0  0  0
  -28.7448  -22.5696   16.1801 O   0  0  0  0  0  0  0  0  0  0  0  0
  -20.8407  -29.8019   22.1752 O   0  0  0  0  0  0  0  0  0  0  0  0
  -28.5350  -16.7035   23.2261 O   0  0  0  0  0  0  0  0  0  1  0  0
  -17.3909  -25.6170   23.1699 F   0  0  0  0  0  0  0  0  0  0  0  0
  -20.1002  -28.0639   20.1569 F   0  0  0  0  0  0  0  0  0  0  0  0
  -28.2317  -21.1840   20.5719 S   0  0  0  0  0  0  0  0  0  0  0  0
  1  2  1  0  0  0  0
  1  5  2  0  0  0  0
  2  6  2  0  0  0  0
  3  8  2  0  0  0  0
  3 16  1  0  0  0  0
  4  9  1  0  0  0  0
  4 16  2  0  0  0  0
  5 18  1  0  0  0  0
  6 20  1  0  0  0  0
  7 10  2  0  0  0  0
  7 19  1  0  0  0  0
  8 23  1  0  0  0  0
  9 23  2  0  0  0  0
 10 24  1  0  0  0  0
 11 12  2  0  0  0  0
 11 25  1  0  0  0  0
 12 26  1  0  0  0  0
 13 21  1  0  0  0  0
 13 24  2  0  0  0  0
 14 22  1  0  0  0  0
 14 31  2  0  0  0  0
 15 26  2  0  0  0  0
 15 27  1  0  0  0  0
 16 28  1  0  0  0  0
 17 28  1  0  0  0  0
 17 29  2  0  0  0  0
 17 33  1  0  0  0  0
 18 20  2  0  0  0  0
 18 38  1  0  0  0  0
 19 21  2  0  0  0  0
 19 39  1  0  0  0  0
 20 48  1  0  0  0  0
 21 40  1  0  0  0  0
 22 30  2  0  0  0  0
 22 41  1  0  0  0  0
 23 78  1  0  0  0  0
 24 79  1  0  0  0  0
 25 27  2  0  0  0  0
 25 78  1  0  0  0  0
 26 80  1  0  0  0  0
 27 81  1  0  0  0  0
 28 61  2  0  0  0  0
 29 62  1  0  0  0  0
 29 67  1  0  0  0  0
 30 63  1  0  0  0  0
 30 82  1  0  0  0  0
 31 69  1  0  0  0  0
 31 82  1  0  0  0  0
 32 57  1  0  0  0  0
 32 63  1  0  0  0  0
 32 66  2  0  0  0  0
 33 68  1  0  0  0  0
 33 73  2  0  0  0  0
 34 49  1  0  0  0  0
 34 70  1  0  0  0  0
 34 74  2  0  0  0  0
 35 58  1  0  0  0  0
 35 64  1  0  0  0  0
 35 75  2  0  0  0  0
 36 59  1  0  0  0  0
 36 71  1  0  0  0  0
 36 76  2  0  0  0  0
 37 65  1  0  0  0  0
 37 69  1  0  0  0  0
 37 77  2  0  0  0  0
 38 42  1  0  0  0  0
 39 49  1  0  0  0  0
 40 64  1  0  0  0  0
 41 66  1  0  0  0  0
 42 44  1  0  0  0  0
 43 45  1  0  0  0  0
 43 46  1  0  0  0  0
 44 48  1  0  0  0  0
 45 50  1  0  0  0  0
 46 65  1  0  0  0  0
 47 50  1  0  0  0  0
 47 65  1  0  0  0  0
 48 70  1  0  0  0  0
 49 64  1  0  0  0  0
 50 62  1  0  0  0  0
 51 57  1  0  0  0  0
 52 59  1  0  0  0  0
 53 60  1  0  0  0  0
 54 60  1  0  0  0  0
 55 60  1  0  0  0  0
 56 72  1  0  0  0  0
 57 79  1  0  0  0  0
 58 60  1  0  0  0  0
 58 71  1  0  0  0  0
 59 72  1  0  0  0  0
 61 62  1  0  0  0  0
M  CHG  2  66   1  72   1
M  ISO  4  37 100  57 101  69 100  79 101
M  END
> <Batch ID>
0153

> <Smiles>
CNC(C)C(=O)NC(C(=O)N1Cc2cc([101O:1][101CH:1](C)C3=NCc4cc([100NH:0][100C:0](=O)N5CCCC(n6nc(-c7ccc(Oc8ccc(F)cc8F)cc7)c(C(N)=O)c6N)C5)sc4N3)ccc2CC1C(=O)NC1CCCc2ccccc21)C(C)(C)C

> <Shape>
0.269

> <Color>
0.049

> <Negative vol penalty>
0.000

$$$$

  -OEChem-04052303303D

 82 90  0     1  0  0  0  0  0999 V2000
  -20.6904  -17.4272   17.9435 C   0  0  0  0  0  0  0  0  0  0  0  0
  -21.8502  -17.0291   18.6006 C   0  0  0  0  0  0  0  0  0  0  0  0
  -23.2883   -9.8004   19.9132 C   0  0  0  0  0  0  0  0  0  0  0  0
  -23.7417   -9.9402   22.2822 C   0  0  0  0  0  0  0  0  0  0  0  0
  -19.7936  -18.2883   18.5746 C   0  0  0  0  0  0  0  0  0  0  0  0
  -22.1144  -17.4928   19.8889 C   0  0  0  0  0  0  0  0  0  0  0  0
  -24.9039  -14.4345   24.4024 C   0  0  0  0  0  0  0  0  0  0  0  0
  -22.5627   -8.6274   20.1213 C   0  0  0  0  0  0  0  0  0  0  0  0
  -23.0160   -8.7673   22.4903 C   0  0  0  0  0  0  0  0  0  0  0  0
  -26.2164  -14.4469   24.8723 C   0  0  0  0  0  0  0  0  0  0  0  0
  -19.7697   -7.8546   22.7109 C   0  0  0  0  0  0  0  0  0  0  0  0
  -18.8685   -7.8321   23.7754 C   0  0  0  0  0  0  0  0  0  0  0  0
  -32.3493  -15.1673   25.1335 C   0  0  0  0  0  0  0  0  0  0  0  0
  -32.1687  -14.6426   23.8212 C   0  0  0  0  0  0  0  0  0  0  0  0
  -25.5835  -16.0281   26.5806 C   0  0  0  0  0  0  0  0  0  0  0  0
  -20.0763   -5.9850   24.7587 C   0  0  0  0  0  0  0  0  0  0  0  0
  -23.8778  -10.4568   20.9937 C   0  0  0  0  0  0  0  0  0  0  0  0
  -24.1358  -12.9870   20.7958 C   0  0  0  0  0  0  0  0  0  0  0  0
  -20.0423  -18.7551   19.8750 C   0  0  0  0  0  0  0  0  0  0  0  0
  -23.9220  -15.2285   25.0123 C   0  0  0  0  0  0  0  0  0  0  0  0
  -21.2208  -18.3620   20.5374 C   0  0  0  0  0  0  0  0  0  0  0  0
  -24.2587  -16.0220   26.1182 C   0  0  0  0  0  0  0  0  0  0  0  0
  -22.4265   -8.1109   21.4098 C   0  0  0  0  0  0  0  0  0  0  0  0
  -26.5571  -15.2459   25.9597 C   0  0  0  0  0  0  0  0  0  0  0  0
  -20.8241   -6.9423   22.6703 C   0  0  0  0  0  0  0  0  0  0  0  0
  -19.0218   -6.8973   24.7993 C   0  0  0  0  0  0  0  0  0  0  0  0
  -20.9774   -6.0076   23.6942 C   0  0  0  0  0  0  0  0  0  0  0  0
  -24.6280  -11.6682   20.7793 C   0  0  0  0  0  0  0  0  0  0  0  0
  -31.4932  -14.5887   26.0445 C   0  0  0  0  0  0  0  0  0  0  0  0
  -25.2366  -13.7675   20.5399 C   0  0  0  0  0  0  0  0  0  0  0  0
  -31.1816  -13.6826   23.7792 C   0  0  0  0  0  0  0  0  0  0  0  0
  -22.8028  -13.4639   21.0223 C   0  0  0  0  0  0  0  0  0  0  0  0
  -22.0634  -17.6242   24.0586 C   0  0  0  0  0  0  0  0  0  0  0  0
  -30.5575  -15.7618   27.8454 C   0  0  0  0  0  0  0  0  0  0  0  0
  -20.7506  -17.2626   27.0028 C   0  0  0  0  0  0  0  0  0  0  0  0
  -21.1075  -16.1870   30.2219 C   0  0  0  0  0  0  0  0  0  0  0  0
  -31.0983  -12.9555   21.3686 C   0  0  0  0  0  0  0  0  0  0  0  0
  -19.0668  -19.7221   20.4980 C   0  0  0  0  0  0  0  0  0  0  0  0
  -22.5049  -15.1835   24.5101 C   0  0  0  0  0  0  0  0  0  0  0  0
  -23.2373  -16.8772   26.8209 C   0  0  0  0  0  0  0  0  0  0  0  0
  -19.2365  -19.8703   22.0079 C   0  0  0  0  0  0  0  0  0  0  0  0
  -29.4610  -13.6606   18.2866 C   0  0  0  0  0  0  0  0  0  0  0  0
  -20.7088  -20.0487   22.3647 C   0  0  0  0  0  0  0  0  0  0  0  0
  -27.9901  -13.3555   18.5793 C   0  0  0  0  0  0  0  0  0  0  0  0
  -30.3954  -12.6855   19.0005 C   0  0  0  0  0  0  0  0  0  0  0  0
  -28.7044  -12.2558   20.7398 C   0  0  0  0  0  0  0  0  0  0  0  0
  -21.5304  -18.8239   21.9449 C   0  0  1  0  0  0  0  0  0  0  0  0
  -21.6986  -16.4233   24.8847 C   0  0  1  0  0  0  0  0  0  0  0  0
  -27.7269  -13.2516   20.0944 C   0  0  2  0  0  0  0  0  0  0  0  0
  -30.3541  -16.1202   29.3034 C   0  0  0  0  0  0  0  0  0  0  0  0
  -30.2458  -18.0619   26.8797 C   0  0  0  0  0  0  0  0  0  0  0  0
  -19.8757  -16.0606   32.4046 C   0  0  0  0  0  0  0  0  0  0  0  0
  -21.2457  -20.2397   27.4519 C   0  0  0  0  0  0  0  0  0  0  0  0
  -20.8981  -19.8568   29.9016 C   0  0  0  0  0  0  0  0  0  0  0  0
  -19.0425  -19.4097   28.2954 C   0  0  0  0  0  0  0  0  0  0  0  0
  -21.2416  -13.2308   30.2592 C   0  0  0  0  0  0  0  0  0  0  0  0
  -28.2974  -16.4692   27.0231 C   0  0  0  0  0  0  0  0  0  1  0  0
  -29.8050  -16.6020   26.8074 C   0  0  2  0  0  0  0  0  0  0  0  0
  -21.0213  -17.8378   28.3720 C   0  0  1  0  0  0  0  0  0  0  0  0
  -20.2095  -15.3414   31.1068 C   0  0  2  0  0  0  0  0  0  0  0  0
  -20.5718  -19.3215   28.4910 C   0  0  0  0  0  0  0  0  0  0  0  0
  -25.9393  -11.6102   20.5322 N   0  0  0  0  0  0  0  0  0  0  0  0
  -31.3771  -14.8459   27.4186 N   0  0  0  0  0  0  0  0  0  0  0  0
  -26.2805  -12.9024   20.3911 N   0  0  0  0  0  0  0  0  0  0  0  0
  -21.8666  -16.8039   26.2887 N   0  0  0  0  0  0  0  0  0  0  0  0
  -30.0903  -12.6428   20.4322 N   0  0  0  0  0  0  0  0  0  0  0  0
  -25.4038  -15.1025   20.4298 N   0  0  0  0  0  0  0  0  0  0  0  0
  -21.7909  -12.5264   21.2706 N   0  0  0  0  0  0  0  0  0  0  0  0
  -30.6826  -12.9131   22.6990 N   0  0  0  0  0  0  0  0  0  0  0  0
  -21.3410  -17.7413   22.8865 N   0  0  0  0  0  0  0  0  0  0  0  0
  -20.3787  -16.9404   29.3261 N   0  0  0  0  0  0  0  0  0  0  0  0
  -20.8781  -14.0525   31.4422 N   0  3  0  0  0  0  0  0  0  0  0  0
  -22.5143  -14.6842   20.9889 O   0  0  0  0  0  0  0  0  0  0  0  0
  -22.9346  -18.3889   24.4560 O   0  0  0  0  0  0  0  0  0  0  0  0
  -19.5908  -17.2153   26.5852 O   0  0  0  0  0  0  0  0  0  0  0  0
  -22.3327  -16.1826   30.3183 O   0  0  0  0  0  0  0  0  0  0  0  0
  -32.2386  -13.2664   21.0151 O   0  0  0  0  0  0  0  0  0  0  0  0
  -21.7184   -6.9665   21.6133 O   0  0  0  0  0  0  0  0  0  0  0  0
  -27.8376  -15.2604   26.4200 O   0  0  0  0  0  0  0  0  0  1  0  0
  -18.1573   -6.8768   25.8222 F   0  0  0  0  0  0  0  0  0  0  0  0
  -21.9891   -5.1294   23.6613 F   0  0  0  0  0  0  0  0  0  0  0  0
  -30.4772  -13.4177   25.3173 S   0  0  0  0  0  0  0  0  0  0  0  0
  1  2  1  0  0  0  0
  1  5  2  0  0  0  0
  2  6  2  0  0  0  0
  3  8  2  0  0  0  0
  3 17  1  0  0  0  0
  4  9  1  0  0  0  0
  4 17  2  0  0  0  0
  5 19  1  0  0  0  0
  6 21  1  0  0  0  0
  7 10  2  0  0  0  0
  7 20  1  0  0  0  0
  8 23  1  0  0  0  0
  9 23  2  0  0  0  0
 10 24  1  0  0  0  0
 11 12  2  0  0  0  0
 11 25  1  0  0  0  0
 12 26  1  0  0  0  0
 13 14  1  0  0  0  0
 13 29  2  0  0  0  0
 14 31  2  0  0  0  0
 15 22  1  0  0  0  0
 15 24  2  0  0  0  0
 16 26  2  0  0  0  0
 16 27  1  0  0  0  0
 17 28  1  0  0  0  0
 18 28  1  0  0  0  0
 18 30  2  0  0  0  0
 18 32  1  0  0  0  0
 19 21  2  0  0  0  0
 19 38  1  0  0  0  0
 20 22  2  0  0  0  0
 20 39  1  0  0  0  0
 21 47  1  0  0  0  0
 22 40  1  0  0  0  0
 23 78  1  0  0  0  0
 24 79  1  0  0  0  0
 25 27  2  0  0  0  0
 25 78  1  0  0  0  0
 26 80  1  0  0  0  0
 27 81  1  0  0  0  0
 28 62  2  0  0  0  0
 29 63  1  0  0  0  0
 29 82  1  0  0  0  0
 30 64  1  0  0  0  0
 30 67  1  0  0  0  0
 31 69  1  0  0  0  0
 31 82  1  0  0  0  0
 32 68  1  0  0  0  0
 32 73  2  0  0  0  0
 33 48  1  0  0  0  0
 33 70  1  0  0  0  0
 33 74  2  0  0  0  0
 34 50  1  0  0  0  0
 34 58  1  0  0  0  0
 34 63  2  0  0  0  0
 35 59  1  0  0  0  0
 35 65  1  0  0  0  0
 35 75  2  0  0  0  0
 36 60  1  0  0  0  0
 36 71  1  0  0  0  0
 36 76  2  0  0  0  0
 37 66  1  0  0  0  0
 37 69  1  0  0  0  0
 37 77  2  0  0  0  0
 38 41  1  0  0  0  0
 39 48  1  0  0  0  0
 40 65  1  0  0  0  0
 41 43  1  0  0  0  0
 42 44  1  0  0  0  0
 42 45  1  0  0  0  0
 43 47  1  0  0  0  0
 44 49  1  0  0  0  0
 45 66  1  0  0  0  0
 46 49  1  0  0  0  0
 46 66  1  0  0  0  0
 47 70  1  0  0  0  0
 48 65  1  0  0  0  0
 49 64  1  0  0  0  0
 51 58  1  0  0  0  0
 52 60  1  0  0  0  0
 53 61  1  0  0  0  0
 54 61  1  0  0  0  0
 55 61  1  0  0  0  0
 56 72  1  0  0  0  0
 57 58  1  0  0  0  0
 57 79  1  0  0  0  0
 59 61  1  0  0  0  0
 59 71  1  0  0  0  0
 60 72  1  0  0  0  0
 62 64  1  0  0  0  0
M  CHG  1  72   1
M  ISO  4  37 100  57 101  69 100  79 101
M  END
> <Batch ID>
0153

> <Smiles>
CNC(C)C(=O)NC(C(=O)N1Cc2cc([101O:1][101CH2:1]C(C)=C(C)Nc3ccc([100NH:0][100C:0](=O)N4CCCC(n5nc(-c6ccc(Oc7ccc(F)cc7F)cc6)c(C(N)=O)c5N)C4)s3)ccc2CC1C(=O)NC1CCCc2ccccc21)C(C)(C)C

> <Shape>
0.135

> <Color>
0.174

> <Negative vol penalty>
0.000

$$$$

  -OEChem-04052303303D

 84 93  0     1  0  0  0  0  0999 V2000
  -19.1983  -31.2078   24.7050 C   0  0  0  0  0  0  0  0  0  0  0  0
  -20.5526  -30.9498   24.5186 C   0  0  0  0  0  0  0  0  0  0  0  0
  -24.1847  -13.3498   21.2550 C   0  0  0  0  0  0  0  0  0  0  0  0
  -26.3785  -13.2603   20.2469 C   0  0  0  0  0  0  0  0  0  0  0  0
  -18.2456  -30.3228   24.2020 C   0  0  0  0  0  0  0  0  0  0  0  0
  -20.9550  -29.8059   23.8301 C   0  0  0  0  0  0  0  0  0  0  0  0
  -25.8196  -29.2431   20.1524 C   0  0  0  0  0  0  0  0  0  0  0  0
  -23.9105  -12.0703   20.7721 C   0  0  0  0  0  0  0  0  0  0  0  0
  -26.1043  -11.9807   19.7640 C   0  0  0  0  0  0  0  0  0  0  0  0
  -27.0990  -28.7300   20.3613 C   0  0  0  0  0  0  0  0  0  0  0  0
  -24.6572   -8.8799   21.6069 C   0  0  0  0  0  0  0  0  0  0  0  0
  -24.0618   -7.9708   22.4813 C   0  0  0  0  0  0  0  0  0  0  0  0
  -26.3919  -26.6119   19.4485 C   0  0  0  0  0  0  0  0  0  0  0  0
  -30.1182  -23.2923   20.3226 C   0  0  0  0  0  0  0  0  0  0  0  0
  -22.1730   -7.7716   20.9881 C   0  0  0  0  0  0  0  0  0  0  0  0
  -30.6787  -21.8713   22.0744 C   0  0  0  0  0  0  0  0  0  0  0  0
  -25.4186  -13.9449   20.9923 C   0  0  0  0  0  0  0  0  0  0  0  0
  -26.2845  -15.6025   22.7273 C   0  0  0  0  0  0  0  0  0  0  0  0
  -18.6363  -29.1725   23.4985 C   0  0  0  0  0  0  0  0  0  0  0  0
  -24.8121  -28.4398   19.5992 C   0  0  0  0  0  0  0  0  0  0  0  0
  -20.0067  -28.9040   23.3183 C   0  0  0  0  0  0  0  0  0  0  0  0
  -25.1013  -27.1180   19.2313 C   0  0  0  0  0  0  0  0  0  0  0  0
  -29.7138  -22.2049   21.1496 C   0  0  0  0  0  0  0  0  0  0  0  0
  -24.8703  -11.3857   20.0267 C   0  0  0  0  0  0  0  0  0  0  0  0
  -27.3845  -27.4134   20.0120 C   0  0  0  0  0  0  0  0  0  0  0  0
  -24.0105   -9.2349   20.4230 C   0  0  0  0  0  0  0  0  0  0  0  0
  -22.8197   -7.4167   22.1719 C   0  0  0  0  0  0  0  0  0  0  0  0
  -22.7684   -8.6807   20.1137 C   0  0  0  0  0  0  0  0  0  0  0  0
  -25.7022  -15.2668   21.4903 C   0  0  0  0  0  0  0  0  0  0  0  0
  -31.3770  -23.7487   20.6470 C   0  0  0  0  0  0  0  0  0  0  0  0
  -26.3383  -16.9749   22.7204 C   0  0  0  0  0  0  0  0  0  0  0  0
  -26.7365  -14.7499   23.7877 C   0  0  0  0  0  0  0  0  0  0  0  0
  -21.9885  -27.3766   20.5994 C   0  0  0  0  0  0  0  0  0  0  0  0
  -21.7687  -26.2625   17.5609 C   0  0  0  0  0  0  0  0  0  0  0  0
  -23.3713  -25.2660   14.7174 C   0  0  0  0  0  0  0  0  0  0  0  0
  -27.4358  -21.7937   20.1557 C   0  0  0  0  0  0  0  0  0  0  0  0
  -17.5711  -28.2208   23.0144 C   0  0  0  0  0  0  0  0  0  0  0  0
  -23.4444  -29.0164   19.3556 C   0  0  0  0  0  0  0  0  0  0  0  0
  -24.0604  -26.2205   18.6153 C   0  0  0  0  0  0  0  0  0  0  0  0
  -18.0722  -27.2254   21.9712 C   0  0  0  0  0  0  0  0  0  0  0  0
  -24.2393  -20.3377   19.5728 C   0  0  0  0  0  0  0  0  0  0  0  0
  -33.2993  -25.7910   18.1431 C   0  0  0  0  0  0  0  0  0  0  0  0
  -19.3975  -26.6121   22.4118 C   0  0  0  0  0  0  0  0  0  0  0  0
  -32.9951  -24.4615   18.8048 C   0  0  0  0  0  0  0  0  0  0  0  0
  -24.3828  -18.9163   20.1215 C   0  0  0  0  0  0  0  0  0  0  0  0
  -25.5245  -20.8192   18.9018 C   0  0  0  0  0  0  0  0  0  0  0  0
  -26.8783  -19.2856   20.2746 C   0  0  0  0  0  0  0  0  0  0  0  0
  -31.9819  -26.5391   18.2133 C   0  0  0  0  0  0  0  0  0  0  0  0
  -20.4820  -27.6867   22.5553 C   0  0  1  0  0  0  0  0  0  0  0  0
  -32.1592  -24.8732   20.0164 C   0  0  1  0  0  0  0  0  0  0  0  0
  -22.3554  -27.9522   19.2609 C   0  0  1  0  0  0  0  0  0  0  0  0
  -25.6300  -18.7812   21.0169 C   0  0  2  0  0  0  0  0  0  0  0  0
  -22.9257  -24.3728   12.4150 C   0  0  0  0  0  0  0  0  0  0  0  0
  -29.7318  -28.5060   18.7819 C   0  0  0  0  0  0  0  0  0  0  0  0
  -21.1747  -23.5137   18.7448 C   0  0  0  0  0  0  0  0  0  0  0  0
  -21.6799  -22.5167   16.5045 C   0  0  0  0  0  0  0  0  0  0  0  0
  -19.7824  -24.1162   16.7566 C   0  0  0  0  0  0  0  0  0  0  0  0
  -24.6436  -27.6106   13.4356 C   0  0  0  0  0  0  0  0  0  0  0  0
  -31.0135  -27.0889   20.4828 C   0  0  0  0  0  0  0  0  0  0  0  0
  -22.1555  -24.9820   16.8611 C   0  0  1  0  0  0  0  0  0  0  0  0
  -23.1467  -25.6190   13.2582 C   0  0  2  0  0  0  0  0  0  0  0  0
  -29.7225  -27.8279   20.1457 C   0  0  2  0  0  0  0  0  0  1  0  0
  -21.2175  -23.7982   17.2302 C   0  0  0  0  0  0  0  0  0  0  0  0
  -25.4070  -16.3396   20.7514 N   0  0  0  0  0  0  0  0  0  0  0  0
  -25.8054  -17.3628   21.5263 N   0  0  0  0  0  0  0  0  0  0  0  0
  -22.7365  -26.8285   18.4028 N   0  0  0  0  0  0  0  0  0  0  0  0
  -26.6625  -20.6651   19.8106 N   0  0  0  0  0  0  0  0  0  0  0  0
  -26.7889  -17.8757   23.6192 N   0  0  0  0  0  0  0  0  0  0  0  0
  -26.6072  -13.3631   23.6313 N   0  0  0  0  0  0  0  0  0  0  0  0
  -28.4711  -21.5310   21.0521 N   0  0  0  0  0  0  0  0  0  0  0  0
  -20.9890  -28.0699   21.2551 N   0  0  0  0  0  0  0  0  0  0  0  0
  -22.1948  -25.2914   15.4360 N   0  0  0  0  0  0  0  0  0  0  0  0
  -31.3036  -26.0228   19.4709 N   0  3  1  0  0  0  0  0  0  0  0  0
  -24.3257  -26.3511   12.7149 N   0  3  0  0  0  0  0  0  0  0  0  0
  -27.2251  -15.2050   24.8497 O   0  0  0  0  0  0  0  0  0  0  0  0
  -22.5681  -26.3766   21.0066 O   0  0  0  0  0  0  0  0  0  0  0  0
  -20.6517  -26.7466   17.3621 O   0  0  0  0  0  0  0  0  0  0  0  0
  -24.4791  -24.9913   15.1734 O   0  0  0  0  0  0  0  0  0  0  0  0
  -27.1802  -22.9159   19.7114 O   0  0  0  0  0  0  0  0  0  0  0  0
  -24.6032  -10.1370   19.5555 O   0  0  0  0  0  0  0  0  0  0  0  0
  -28.6323  -26.9098   20.2154 O   0  0  0  0  0  0  0  0  0  1  0  0
  -22.2488   -6.5425   23.0110 F   0  0  0  0  0  0  0  0  0  0  0  0
  -22.1428   -9.0170   18.9773 F   0  0  0  0  0  0  0  0  0  0  0  0
  -32.0655  -22.8672   21.9436 S   0  0  0  0  0  0  0  0  0  0  0  0
  1  2  1  0  0  0  0
  1  5  2  0  0  0  0
  2  6  2  0  0  0  0
  3  8  2  0  0  0  0
  3 17  1  0  0  0  0
  4  9  1  0  0  0  0
  4 17  2  0  0  0  0
  5 19  1  0  0  0  0
  6 21  1  0  0  0  0
  7 10  2  0  0  0  0
  7 20  1  0  0  0  0
  8 24  1  0  0  0  0
  9 24  2  0  0  0  0
 10 25  1  0  0  0  0
 11 12  2  0  0  0  0
 11 26  1  0  0  0  0
 12 27  1  0  0  0  0
 13 22  1  0  0  0  0
 13 25  2  0  0  0  0
 14 23  1  0  0  0  0
 14 30  2  0  0  0  0
 15 27  2  0  0  0  0
 15 28  1  0  0  0  0
 16 23  2  0  0  0  0
 16 84  1  0  0  0  0
 17 29  1  0  0  0  0
 18 29  1  0  0  0  0
 18 31  2  0  0  0  0
 18 32  1  0  0  0  0
 19 21  2  0  0  0  0
 19 37  1  0  0  0  0
 20 22  2  0  0  0  0
 20 38  1  0  0  0  0
 21 49  1  0  0  0  0
 22 39  1  0  0  0  0
 23 70  1  0  0  0  0
 24 80  1  0  0  0  0
 25 81  1  0  0  0  0
 26 28  2  0  0  0  0
 26 80  1  0  0  0  0
 27 82  1  0  0  0  0
 28 83  1  0  0  0  0
 29 64  2  0  0  0  0
 30 50  1  0  0  0  0
 30 84  1  0  0  0  0
 31 65  1  0  0  0  0
 31 68  1  0  0  0  0
 32 69  1  0  0  0  0
 32 75  2  0  0  0  0
 33 51  1  0  0  0  0
 33 71  1  0  0  0  0
 33 76  2  0  0  0  0
 34 60  1  0  0  0  0
 34 66  1  0  0  0  0
 34 77  2  0  0  0  0
 35 61  1  0  0  0  0
 35 72  1  0  0  0  0
 35 78  2  0  0  0  0
 36 67  1  0  0  0  0
 36 70  1  0  0  0  0
 36 79  2  0  0  0  0
 37 40  1  0  0  0  0
 38 51  1  0  0  0  0
 39 66  1  0  0  0  0
 40 43  1  0  0  0  0
 41 45  1  0  0  0  0
 41 46  1  0  0  0  0
 42 44  1  0  0  0  0
 42 48  1  0  0  0  0
 43 49  1  0  0  0  0
 44 50  1  0  0  0  0
 45 52  1  0  0  0  0
 46 67  1  0  0  0  0
 47 52  1  0  0  0  0
 47 67  1  0  0  0  0
 48 73  1  0  0  0  0
 49 71  1  0  0  0  0
 50 73  1  0  0  0  0
 51 66  1  0  0  0  0
 52 65  1  0  0  0  0
 53 61  1  0  0  0  0
 54 62  1  0  0  0  0
 55 63  1  0  0  0  0
 56 63  1  0  0  0  0
 57 63  1  0  0  0  0
 58 74  1  0  0  0  0
 59 62  1  0  0  0  0
 59 73  1  0  0  0  0
 60 63  1  0  0  0  0
 60 72  1  0  0  0  0
 61 74  1  0  0  0  0
 62 81  1  0  0  0  0
 64 65  1  0  0  0  0
M  CHG  2  73   1  74   1
M  ISO  4  36 100  62 101  70 100  81 101
M  END
> <Batch ID>
0153

> <Smiles>
CNC(C)C(=O)NC(C(=O)N1Cc2cc([101O:1][101CH:1](C)CN3CCCC3c3cc([100NH:0][100C:0](=O)N4CCCC(n5nc(-c6ccc(Oc7ccc(F)cc7F)cc6)c(C(N)=O)c5N)C4)cs3)ccc2CC1C(=O)NC1CCCc2ccccc21)C(C)(C)C

> <Shape>
0.248

> <Color>
0.079

> <Negative vol penalty>
0.000

$$$$

  -OEChem-04052303303D

 85 94  0     1  0  0  0  0  0999 V2000
  -19.7816  -25.8466   32.7255 C   0  0  0  0  0  0  0  0  0  0  0  0
  -20.9038  -25.3192   32.0948 C   0  0  0  0  0  0  0  0  0  0  0  0
  -23.0755   -9.8686   19.9403 C   0  0  0  0  0  0  0  0  0  0  0  0
  -23.8352   -9.8745   22.2337 C   0  0  0  0  0  0  0  0  0  0  0  0
  -19.0140  -25.0426   33.5672 C   0  0  0  0  0  0  0  0  0  0  0  0
  -21.2598  -23.9876   32.3063 C   0  0  0  0  0  0  0  0  0  0  0  0
  -22.4988  -21.6027   28.0142 C   0  0  0  0  0  0  0  0  0  0  0  0
  -22.3313   -8.7156   20.1897 C   0  0  0  0  0  0  0  0  0  0  0  0
  -23.0909   -8.7215   22.4832 C   0  0  0  0  0  0  0  0  0  0  0  0
  -23.7670  -21.8511   27.4911 C   0  0  0  0  0  0  0  0  0  0  0  0
  -21.1050   -5.9845   23.8187 C   0  0  0  0  0  0  0  0  0  0  0  0
  -20.3486   -5.9407   24.9898 C   0  0  0  0  0  0  0  0  0  0  0  0
  -32.0674  -16.6010   22.5472 C   0  0  0  0  0  0  0  0  0  0  0  0
  -24.5568  -19.7772   28.4367 C   0  0  0  0  0  0  0  0  0  0  0  0
  -29.8650  -17.4600   23.1445 C   0  0  0  0  0  0  0  0  0  0  0  0
  -19.1047   -7.8786   24.2588 C   0  0  0  0  0  0  0  0  0  0  0  0
  -23.8275  -10.4480   20.9622 C   0  0  0  0  0  0  0  0  0  0  0  0
  -24.1701  -12.9731   20.8432 C   0  0  0  0  0  0  0  0  0  0  0  0
  -19.3553  -23.6979   33.7816 C   0  0  0  0  0  0  0  0  0  0  0  0
  -22.2525  -20.4430   28.7631 C   0  0  0  0  0  0  0  0  0  0  0  0
  -20.4969  -23.1653   33.1527 C   0  0  0  0  0  0  0  0  0  0  0  0
  -32.5924  -17.4922   23.4532 C   0  0  0  0  0  0  0  0  0  0  0  0
  -23.2840  -19.5151   28.9662 C   0  0  0  0  0  0  0  0  0  0  0  0
  -31.7986  -18.3419   24.1852 C   0  0  0  0  0  0  0  0  0  0  0  0
  -30.6787  -16.5890   22.3941 C   0  0  0  0  0  0  0  0  0  0  0  0
  -30.4297  -18.3542   24.0576 C   0  0  0  0  0  0  0  0  0  0  0  0
  -22.3389   -8.1420   21.4612 C   0  0  0  0  0  0  0  0  0  0  0  0
  -24.7970  -20.9397   27.7047 C   0  0  0  0  0  0  0  0  0  0  0  0
  -20.8613   -6.9754   22.8676 C   0  0  0  0  0  0  0  0  0  0  0  0
  -19.3485   -6.8877   25.2099 C   0  0  0  0  0  0  0  0  0  0  0  0
  -19.8612   -7.9224   23.0877 C   0  0  0  0  0  0  0  0  0  0  0  0
  -24.5970  -11.6388   20.7050 C   0  0  0  0  0  0  0  0  0  0  0  0
  -25.2625  -13.7224   20.4803 C   0  0  0  0  0  0  0  0  0  0  0  0
  -26.5569  -20.2736   26.3156 C   0  0  0  0  0  0  0  0  0  1  0  0
  -22.8998  -13.4892   21.2622 C   0  0  0  0  0  0  0  0  0  0  0  0
  -27.7645  -20.4096   25.7545 C   0  0  0  0  0  0  0  0  0  0  0  0
  -28.2453  -19.3587   24.7991 C   0  0  0  0  0  0  0  0  0  0  0  0
  -21.3476  -19.8534   31.7526 C   0  0  0  0  0  0  0  0  0  0  0  0
  -21.2445  -16.7856   30.7035 C   0  0  0  0  0  0  0  0  0  0  0  0
  -22.3278  -14.4527   28.4606 C   0  0  0  0  0  0  0  0  0  0  0  0
  -30.7290  -14.7663   20.6558 C   0  0  0  0  0  0  0  0  0  0  0  0
  -18.5222  -22.8810   34.7372 C   0  0  0  0  0  0  0  0  0  0  0  0
  -20.8721  -20.1766   29.2980 C   0  0  0  0  0  0  0  0  0  0  0  0
  -33.8644  -17.9979   24.0661 C   0  0  0  0  0  0  0  0  0  0  0  0
  -32.9601  -18.9654   24.9005 C   0  0  0  0  0  0  0  0  0  0  0  0
  -23.0660  -18.2451   29.7459 C   0  0  0  0  0  0  0  0  0  0  0  0
  -18.7528  -21.3770   34.6139 C   0  0  0  0  0  0  0  0  0  0  0  0
  -29.6141  -12.3537   18.2866 C   0  0  0  0  0  0  0  0  0  0  0  0
  -20.2457  -21.0684   34.5618 C   0  0  0  0  0  0  0  0  0  0  0  0
  -28.1743  -12.0624   18.7159 C   0  0  0  0  0  0  0  0  0  0  0  0
  -30.5292  -12.5817   19.4884 C   0  0  0  0  0  0  0  0  0  0  0  0
  -28.6223  -13.3063   20.8697 C   0  0  0  0  0  0  0  0  0  0  0  0
  -20.9011  -21.7187   33.3375 C   0  0  1  0  0  0  0  0  0  0  0  0
  -20.8654  -19.2139   30.4814 C   0  0  1  0  0  0  0  0  0  0  0  0
  -27.6495  -13.1337   19.6918 C   0  0  2  0  0  0  0  0  0  0  0  0
  -22.0969  -12.0224   27.8795 C   0  0  0  0  0  0  0  0  0  0  0  0
  -23.0609  -16.0559   33.0441 C   0  0  0  0  0  0  0  0  0  0  0  0
  -23.5553  -13.8877   31.8939 C   0  0  0  0  0  0  0  0  0  0  0  0
  -21.2227  -14.4193   32.6004 C   0  0  0  0  0  0  0  0  0  0  0  0
  -21.2258  -15.0776   25.7859 C   0  0  0  0  0  0  0  0  0  0  0  0
  -22.2319  -15.6459   30.6335 C   0  0  1  0  0  0  0  0  0  0  0  0
  -21.5757  -13.4290   27.6294 C   0  0  2  0  0  0  0  0  0  0  0  0
  -22.5226  -15.0270   32.0299 C   0  0  0  0  0  0  0  0  0  0  0  0
  -25.8619  -11.5427   20.2868 N   0  0  0  0  0  0  0  0  0  0  0  0
  -26.2392  -12.8262   20.1590 N   0  0  0  0  0  0  0  0  0  0  0  0
  -21.7006  -18.0328   30.2539 N   0  0  0  0  0  0  0  0  0  0  0  0
  -29.9704  -13.6124   20.3661 N   0  0  0  0  0  0  0  0  0  0  0  0
  -25.4734  -15.0538   20.4077 N   0  0  0  0  0  0  0  0  0  0  0  0
  -21.8875  -12.5802   21.5990 N   0  0  0  0  0  0  0  0  0  0  0  0
  -29.6279  -19.2370   24.8207 N   0  0  0  0  0  0  0  0  0  0  0  0
  -30.0819  -15.6912   21.4745 N   0  0  0  0  0  0  0  0  0  0  0  0
  -20.6104  -20.9549   32.1431 N   0  0  0  0  0  0  0  0  0  0  0  0
  -21.6956  -14.7002   29.6607 N   0  0  0  0  0  0  0  0  0  0  0  0
  -21.7210  -13.7329   26.1777 N   0  3  0  0  0  0  0  0  0  0  0  0
  -22.6639  -14.7198   21.3199 O   0  0  0  0  0  0  0  0  0  0  0  0
  -27.4536  -18.7219   24.1124 O   0  0  0  0  0  0  0  0  0  0  0  0
  -22.3159  -19.3814   32.3368 O   0  0  0  0  0  0  0  0  0  0  0  0
  -20.1079  -16.5754   31.1344 O   0  0  0  0  0  0  0  0  0  0  0  0
  -23.3737  -14.9774   28.0846 O   0  0  0  0  0  0  0  0  0  0  0  0
  -31.8582  -14.9348   20.1884 O   0  0  0  0  0  0  0  0  0  0  0  0
  -28.5894  -21.4839   26.0196 O   0  0  0  0  0  0  0  0  0  0  0  0
  -21.6126   -7.0170   21.7051 O   0  0  0  0  0  0  0  0  0  0  0  0
  -26.0360  -21.1801   27.1957 O   0  0  0  0  0  0  0  0  0  1  0  0
  -18.6212   -6.8446   26.3338 F   0  0  0  0  0  0  0  0  0  0  0  0
  -19.6216   -8.8760   22.1771 F   0  0  0  0  0  0  0  0  0  0  0  0
  1  2  1  0  0  0  0
  1  5  2  0  0  0  0
  2  6  2  0  0  0  0
  3  8  2  0  0  0  0
  3 17  1  0  0  0  0
  4  9  1  0  0  0  0
  4 17  2  0  0  0  0
  5 19  1  0  0  0  0
  6 21  1  0  0  0  0
  7 10  2  0  0  0  0
  7 20  1  0  0  0  0
  8 27  1  0  0  0  0
  9 27  2  0  0  0  0
 10 28  1  0  0  0  0
 11 12  2  0  0  0  0
 11 29  1  0  0  0  0
 12 30  1  0  0  0  0
 13 22  2  0  0  0  0
 13 25  1  0  0  0  0
 14 23  1  0  0  0  0
 14 28  2  0  0  0  0
 15 25  2  0  0  0  0
 15 26  1  0  0  0  0
 16 30  2  0  0  0  0
 16 31  1  0  0  0  0
 17 32  1  0  0  0  0
 18 32  1  0  0  0  0
 18 33  2  0  0  0  0
 18 35  1  0  0  0  0
 19 21  2  0  0  0  0
 19 42  1  0  0  0  0
 20 23  2  0  0  0  0
 20 43  1  0  0  0  0
 21 53  1  0  0  0  0
 22 24  1  0  0  0  0
 22 44  1  0  0  0  0
 23 46  1  0  0  0  0
 24 26  2  0  0  0  0
 24 45  1  0  0  0  0
 25 71  1  0  0  0  0
 26 70  1  0  0  0  0
 27 82  1  0  0  0  0
 28 83  1  0  0  0  0
 29 31  2  0  0  0  0
 29 82  1  0  0  0  0
 30 84  1  0  0  0  0
 31 85  1  0  0  0  0
 32 64  2  0  0  0  0
 33 65  1  0  0  0  0
 33 68  1  0  0  0  0
 34 36  2  0  0  0  0
 34 83  1  0  0  0  0
 35 69  1  0  0  0  0
 35 75  2  0  0  0  0
 36 37  1  0  0  0  0
 36 81  1  0  0  0  0
 37 70  1  0  0  0  0
 37 76  2  0  0  0  0
 38 54  1  0  0  0  0
 38 72  1  0  0  0  0
 38 77  2  0  0  0  0
 39 61  1  0  0  0  0
 39 66  1  0  0  0  0
 39 78  2  0  0  0  0
 40 62  1  0  0  0  0
 40 73  1  0  0  0  0
 40 79  2  0  0  0  0
 41 67  1  0  0  0  0
 41 71  1  0  0  0  0
 41 80  2  0  0  0  0
 42 47  1  0  0  0  0
 43 54  1  0  0  0  0
 44 45  1  0  0  0  0
 46 66  1  0  0  0  0
 47 49  1  0  0  0  0
 48 50  1  0  0  0  0
 48 51  1  0  0  0  0
 49 53  1  0  0  0  0
 50 55  1  0  0  0  0
 51 67  1  0  0  0  0
 52 55  1  0  0  0  0
 52 67  1  0  0  0  0
 53 72  1  0  0  0  0
 54 66  1  0  0  0  0
 55 65  1  0  0  0  0
 56 62  1  0  0  0  0
 57 63  1  0  0  0  0
 58 63  1  0  0  0  0
 59 63  1  0  0  0  0
 60 74  1  0  0  0  0
 61 63  1  0  0  0  0
 61 73  1  0  0  0  0
 62 74  1  0  0  0  0
 64 65  1  0  0  0  0
M  CHG  1  74   1
M  ISO  4  34 101  41 100  71 100  83 101
M  END
> <Batch ID>
0153

> <Smiles>
CNC(C)C(=O)NC(C(=O)N1Cc2cc([101O:1][101CH2:1]C(=O)C(=O)Nc3cc([100NH:0][100C:0](=O)N4CCCC(n5nc(-c6ccc(Oc7ccc(F)cc7F)cc6)c(C(N)=O)c5N)C4)cc4c3CC4)ccc2CC1C(=O)NC1CCCc2ccccc21)C(C)(C)C

> <Shape>
0.159

> <Color>
0.184

> <Negative vol penalty>
0.000

$$$$

  -OEChem-04052303303D

 83 92  0     1  0  0  0  0  0999 V2000
  -31.2470  -36.4019   24.3695 C   0  0  0  0  0  0  0  0  0  0  0  0
  -31.4790  -35.0319   24.4385 C   0  0  0  0  0  0  0  0  0  0  0  0
  -23.2428   -9.7119   19.9772 C   0  0  0  0  0  0  0  0  0  0  0  0
  -23.7192  -10.0160   22.3262 C   0  0  0  0  0  0  0  0  0  0  0  0
  -30.0393  -36.9271   24.8274 C   0  0  0  0  0  0  0  0  0  0  0  0
  -30.5038  -34.1864   24.9663 C   0  0  0  0  0  0  0  0  0  0  0  0
  -29.2340  -28.4666   23.1838 C   0  0  0  0  0  0  0  0  0  0  0  0
  -22.5398   -8.5435   20.2710 C   0  0  0  0  0  0  0  0  0  0  0  0
  -23.0162   -8.8476   22.6200 C   0  0  0  0  0  0  0  0  0  0  0  0
  -29.6051  -27.2219   23.6907 C   0  0  0  0  0  0  0  0  0  0  0  0
  -23.5574   -5.5131   22.4820 C   0  0  0  0  0  0  0  0  0  0  0  0
  -24.1382   -4.6151   23.3774 C   0  0  0  0  0  0  0  0  0  0  0  0
  -31.1815  -19.4495   22.3537 C   0  0  0  0  0  0  0  0  0  0  0  0
  -31.2440  -18.1241   21.8347 C   0  0  0  0  0  0  0  0  0  0  0  0
  -27.5290  -27.1078   24.9138 C   0  0  0  0  0  0  0  0  0  0  0  0
  -22.2365   -4.8522   24.8487 C   0  0  0  0  0  0  0  0  0  0  0  0
  -23.8325  -10.4481   21.0048 C   0  0  0  0  0  0  0  0  0  0  0  0
  -24.0446  -12.9636   20.6371 C   0  0  0  0  0  0  0  0  0  0  0  0
  -29.0450  -36.0865   25.3521 C   0  0  0  0  0  0  0  0  0  0  0  0
  -28.0104  -29.0471   23.5473 C   0  0  0  0  0  0  0  0  0  0  0  0
  -29.2822  -34.7010   25.4328 C   0  0  0  0  0  0  0  0  0  0  0  0
  -27.1436  -28.3587   24.4081 C   0  0  0  0  0  0  0  0  0  0  0  0
  -22.4265   -8.1114   21.5924 C   0  0  0  0  0  0  0  0  0  0  0  0
  -28.7539  -26.5436   24.5581 C   0  0  0  0  0  0  0  0  0  0  0  0
  -22.3161   -6.0807   22.7699 C   0  0  0  0  0  0  0  0  0  0  0  0
  -23.4778   -4.2846   24.5608 C   0  0  0  0  0  0  0  0  0  0  0  0
  -21.6557   -5.7502   23.9532 C   0  0  0  0  0  0  0  0  0  0  0  0
  -24.5593  -11.6549   20.7020 C   0  0  0  0  0  0  0  0  0  0  0  0
  -25.1290  -13.7435   20.3171 C   0  0  0  0  0  0  0  0  0  0  0  0
  -29.9432  -19.7404   22.8823 C   0  0  0  0  0  0  0  0  0  0  0  0
  -30.0509  -17.4522   21.9867 C   0  0  0  0  0  0  0  0  0  0  0  0
  -22.7061  -13.4324   20.8475 C   0  0  0  0  0  0  0  0  0  0  0  0
  -27.1513  -31.7050   25.0643 C   0  0  0  0  0  0  0  0  0  0  0  0
  -24.1651  -30.7514   24.2304 C   0  0  0  0  0  0  0  0  0  0  0  0
  -22.0755  -28.1954   23.3660 C   0  0  0  0  0  0  0  0  0  0  0  0
  -30.4673  -15.1758   20.9911 C   0  0  0  0  0  0  0  0  0  0  0  0
  -27.7743  -36.7057   25.8782 C   0  0  0  0  0  0  0  0  0  0  0  0
  -27.6129  -30.3783   22.9708 C   0  0  0  0  0  0  0  0  0  0  0  0
  -25.8099  -28.9294   24.8133 C   0  0  0  0  0  0  0  0  0  0  0  0
  -26.6438  -35.6996   26.0780 C   0  0  0  0  0  0  0  0  0  0  0  0
  -29.7830  -12.4522   18.8024 C   0  0  0  0  0  0  0  0  0  0  0  0
  -27.1563  -34.4569   26.7990 C   0  0  0  0  0  0  0  0  0  0  0  0
  -28.3206  -12.1096   19.0961 C   0  0  0  0  0  0  0  0  0  0  0  0
  -28.2017  -22.6850   24.2617 C   0  0  0  0  0  0  0  0  0  0  0  0
  -30.5324  -12.8703   20.0662 C   0  0  0  0  0  0  0  0  0  0  0  0
  -28.2254  -21.1787   24.0040 C   0  0  0  0  0  0  0  0  0  0  0  0
  -28.4354  -13.6049   21.1303 C   0  0  0  0  0  0  0  0  0  0  0  0
  -30.4228  -22.1064   23.5725 C   0  0  0  0  0  0  0  0  0  0  0  0
  -28.2391  -33.7487   25.9759 C   0  0  1  0  0  0  0  0  0  0  0  0
  -26.5711  -31.1074   23.8137 C   0  0  1  0  0  0  0  0  0  0  0  0
  -27.6228  -13.2404   19.8771 C   0  0  2  0  0  0  0  0  0  0  0  0
  -29.6691  -23.0435   24.5385 C   0  0  2  0  0  0  0  0  0  0  0  0
  -30.0446  -22.7408   25.9991 C   0  0  0  0  0  0  0  0  0  0  0  0
  -19.6820  -27.7197   22.7812 C   0  0  0  0  0  0  0  0  0  0  0  0
  -23.3991  -31.0002   27.1734 C   0  0  0  0  0  0  0  0  0  0  0  0
  -21.3562  -29.6378   26.6850 C   0  0  0  0  0  0  0  0  0  0  0  0
  -21.6753  -31.8472   25.5716 C   0  0  0  0  0  0  0  0  0  0  0  0
  -22.8097  -27.1940   20.6795 C   0  0  0  0  0  0  0  0  0  0  0  0
  -29.9540  -24.5157   24.2366 C   0  0  0  0  0  0  0  0  0  1  0  0
  -23.1036  -29.8848   24.8638 C   0  0  1  0  0  0  0  0  0  0  0  0
  -21.0636  -28.0575   22.2429 C   0  0  2  0  0  0  0  0  0  0  0  0
  -22.4095  -30.5823   26.0675 C   0  0  0  0  0  0  0  0  0  0  0  0
  -25.8687  -11.6023   20.4437 N   0  0  0  0  0  0  0  0  0  0  0  0
  -26.1860  -12.8878   20.2134 N   0  0  0  0  0  0  0  0  0  0  0  0
  -29.5576  -20.9319   23.4601 N   0  0  3  0  0  0  0  0  0  0  0  0
  -25.4692  -30.2366   24.2280 N   0  0  0  0  0  0  0  0  0  0  0  0
  -29.8151  -13.9479   20.7511 N   0  0  0  0  0  0  0  0  0  0  0  0
  -25.2719  -15.0709   20.1171 N   0  0  0  0  0  0  0  0  0  0  0  0
  -21.7133  -12.4968   21.1691 N   0  0  0  0  0  0  0  0  0  0  0  0
  -29.6753  -16.1361   21.6199 N   0  0  0  0  0  0  0  0  0  0  0  0
  -27.6397  -32.9873   24.9009 N   0  0  0  0  0  0  0  0  0  0  0  0
  -22.1940  -29.5023   23.7891 N   0  0  0  0  0  0  0  0  0  0  0  0
  -21.4779  -26.9789   21.3017 N   0  3  0  0  0  0  0  0  0  0  0  0
  -22.3962  -14.6428   20.7368 O   0  0  0  0  0  0  0  0  0  0  0  0
  -27.1542  -31.0517   26.1011 O   0  0  0  0  0  0  0  0  0  0  0  0
  -23.8475  -31.8418   23.7488 O   0  0  0  0  0  0  0  0  0  0  0  0
  -22.6959  -27.2387   23.8247 O   0  0  0  0  0  0  0  0  0  0  0  0
  -31.6333  -15.3711   20.6386 O   0  0  0  0  0  0  0  0  0  0  0  0
  -21.7404   -6.9714   21.8794 O   0  0  0  0  0  0  0  0  0  0  0  0
  -29.1139  -25.3289   25.0548 O   0  0  0  0  0  0  0  0  0  1  0  0
  -24.0350   -3.4211   25.4199 F   0  0  0  0  0  0  0  0  0  0  0  0
  -20.4625   -6.2914   24.2347 F   0  0  0  0  0  0  0  0  0  0  0  0
  -28.8624  -18.4186   22.7520 S   0  0  0  0  0  0  0  0  0  0  0  0
  1  2  1  0  0  0  0
  1  5  2  0  0  0  0
  2  6  2  0  0  0  0
  3  8  2  0  0  0  0
  3 17  1  0  0  0  0
  4  9  1  0  0  0  0
  4 17  2  0  0  0  0
  5 19  1  0  0  0  0
  6 21  1  0  0  0  0
  7 10  2  0  0  0  0
  7 20  1  0  0  0  0
  8 23  1  0  0  0  0
  9 23  2  0  0  0  0
 10 24  1  0  0  0  0
 11 12  2  0  0  0  0
 11 25  1  0  0  0  0
 12 26  1  0  0  0  0
 13 14  1  0  0  0  0
 13 30  2  0  0  0  0
 14 31  2  0  0  0  0
 15 22  1  0  0  0  0
 15 24  2  0  0  0  0
 16 26  2  0  0  0  0
 16 27  1  0  0  0  0
 17 28  1  0  0  0  0
 18 28  1  0  0  0  0
 18 29  2  0  0  0  0
 18 32  1  0  0  0  0
 19 21  2  0  0  0  0
 19 37  1  0  0  0  0
 20 22  2  0  0  0  0
 20 38  1  0  0  0  0
 21 49  1  0  0  0  0
 22 39  1  0  0  0  0
 23 79  1  0  0  0  0
 24 80  1  0  0  0  0
 25 27  2  0  0  0  0
 25 79  1  0  0  0  0
 26 81  1  0  0  0  0
 27 82  1  0  0  0  0
 28 63  2  0  0  0  0
 29 64  1  0  0  0  0
 29 68  1  0  0  0  0
 30 65  1  0  0  0  0
 30 83  1  0  0  0  0
 31 70  1  0  0  0  0
 31 83  1  0  0  0  0
 32 69  1  0  0  0  0
 32 74  2  0  0  0  0
 33 50  1  0  0  0  0
 33 71  1  0  0  0  0
 33 75  2  0  0  0  0
 34 60  1  0  0  0  0
 34 66  1  0  0  0  0
 34 76  2  0  0  0  0
 35 61  1  0  0  0  0
 35 72  1  0  0  0  0
 35 77  2  0  0  0  0
 36 67  1  0  0  0  0
 36 70  1  0  0  0  0
 36 78  2  0  0  0  0
 37 40  1  0  0  0  0
 38 50  1  0  0  0  0
 39 66  1  0  0  0  0
 40 42  1  0  0  0  0
 41 43  1  0  0  0  0
 41 45  1  0  0  0  0
 42 49  1  0  0  0  0
 43 51  1  0  0  0  0
 44 46  1  0  0  0  0
 44 52  1  0  0  0  0
 45 67  1  0  0  0  0
 46 65  1  0  0  0  0
 47 51  1  0  0  0  0
 47 67  1  0  0  0  0
 48 52  1  0  0  0  0
 48 65  1  0  0  0  0
 49 71  1  0  0  0  0
 50 66  1  0  0  0  0
 51 64  1  0  0  0  0
 52 53  1  0  0  0  0
 52 59  1  0  0  0  0
 54 61  1  0  0  0  0
 55 62  1  0  0  0  0
 56 62  1  0  0  0  0
 57 62  1  0  0  0  0
 58 73  1  0  0  0  0
 59 80  1  0  0  0  0
 60 62  1  0  0  0  0
 60 72  1  0  0  0  0
 61 73  1  0  0  0  0
 63 64  1  0  0  0  0
M  CHG  1  73   1
M  ISO  4  36 100  59 101  70 100  80 101
M  END
> <Batch ID>
0153

> <Smiles>
CNC(C)C(=O)NC(C(=O)N1Cc2cc([101O:1][101CH2:1]C3(C)CCN(c4ccc([100NH:0][100C:0](=O)N5CCCC(n6nc(-c7ccc(Oc8ccc(F)cc8F)cc7)c(C(N)=O)c6N)C5)s4)C3)ccc2CC1C(=O)NC1CCCc2ccccc21)C(C)(C)C

> <Shape>
0.287

> <Color>
0.203

> <Negative vol penalty>
0.000

$$$$

  -OEChem-04052303303D

 83 92  0     1  0  0  0  0  0999 V2000
  -28.1525  -37.1345   21.1599 C   0  0  0  0  0  0  0  0  0  0  0  0
  -28.5944  -35.8338   20.9402 C   0  0  0  0  0  0  0  0  0  0  0  0
  -24.7697   -9.0500   21.4052 C   0  0  0  0  0  0  0  0  0  0  0  0
  -23.1883  -10.8760   21.4467 C   0  0  0  0  0  0  0  0  0  0  0  0
  -27.0777  -37.3690   22.0165 C   0  0  0  0  0  0  0  0  0  0  0  0
  -27.9624  -34.7668   21.5779 C   0  0  0  0  0  0  0  0  0  0  0  0
  -27.0710  -29.1401   19.3304 C   0  0  0  0  0  0  0  0  0  0  0  0
  -24.0470   -8.4012   22.4064 C   0  0  0  0  0  0  0  0  0  0  0  0
  -22.4655  -10.2272   22.4478 C   0  0  0  0  0  0  0  0  0  0  0  0
  -27.7586  -27.9400   19.5061 C   0  0  0  0  0  0  0  0  0  0  0  0
  -22.4178   -6.0964   24.6973 C   0  0  0  0  0  0  0  0  0  0  0  0
  -22.1740   -4.7320   24.5408 C   0  0  0  0  0  0  0  0  0  0  0  0
  -26.1941  -27.3029   21.2282 C   0  0  0  0  0  0  0  0  0  0  0  0
  -20.9861   -5.1802   22.4853 C   0  0  0  0  0  0  0  0  0  0  0  0
  -25.7038  -18.9468   19.9551 C   0  0  0  0  0  0  0  0  0  0  0  0
  -24.3404  -10.2874   20.9254 C   0  0  0  0  0  0  0  0  0  0  0  0
  -24.9100  -10.8370   18.5003 C   0  0  0  0  0  0  0  0  0  0  0  0
  -26.4261  -36.3035   22.6575 C   0  0  0  0  0  0  0  0  0  0  0  0
  -25.9443  -29.4358   20.1111 C   0  0  0  0  0  0  0  0  0  0  0  0
  -26.8788  -34.9874   22.4449 C   0  0  0  0  0  0  0  0  0  0  0  0
  -25.4925  -28.5063   21.0586 C   0  0  0  0  0  0  0  0  0  0  0  0
  -22.8948   -8.9898   22.9277 C   0  0  0  0  0  0  0  0  0  0  0  0
  -27.3219  -27.0225   20.4572 C   0  0  0  0  0  0  0  0  0  0  0  0
  -21.9456   -7.0027   23.7480 C   0  0  0  0  0  0  0  0  0  0  0  0
  -21.4582   -4.2738   23.4347 C   0  0  0  0  0  0  0  0  0  0  0  0
  -21.2298   -6.5446   22.6419 C   0  0  0  0  0  0  0  0  0  0  0  0
  -25.9149  -20.3447   19.8889 C   0  0  0  0  0  0  0  0  0  0  0  0
  -25.0869  -10.9583   19.8916 C   0  0  0  0  0  0  0  0  0  0  0  0
  -25.8578  -11.6712   17.9596 C   0  0  0  0  0  0  0  0  0  0  0  0
  -27.2783  -20.5241   19.8575 C   0  0  0  0  0  0  0  0  0  0  0  0
  -26.9532  -18.3715   19.9591 C   0  0  0  0  0  0  0  0  0  0  0  0
  -29.8312  -23.0712   19.6493 C   0  0  0  0  0  0  0  0  0  0  0  0
  -28.7277  -23.8264   19.6080 C   0  0  0  0  0  0  0  0  0  0  0  0
  -23.9728  -10.0414   17.7625 C   0  0  0  0  0  0  0  0  0  0  0  0
  -25.2045  -31.7016   22.2141 C   0  0  0  0  0  0  0  0  0  0  0  0
  -22.2817  -30.2985   22.1107 C   0  0  0  0  0  0  0  0  0  0  0  0
  -20.4304  -27.5042   21.4696 C   0  0  0  0  0  0  0  0  0  0  0  0
  -28.6693  -16.5280   20.0119 C   0  0  0  0  0  0  0  0  0  0  0  0
  -25.2989  -36.6104   23.6114 C   0  0  0  0  0  0  0  0  0  0  0  0
  -25.1980  -30.7230   19.8907 C   0  0  0  0  0  0  0  0  0  0  0  0
  -24.2764  -28.7671   21.9081 C   0  0  0  0  0  0  0  0  0  0  0  0
  -29.4963  -21.6207   19.7697 C   0  0  0  0  0  0  0  0  0  0  0  0
  -27.4909  -22.9862   19.6948 C   0  0  0  0  0  0  0  0  0  0  0  0
  -24.4447  -35.3933   23.9566 C   0  0  0  0  0  0  0  0  0  0  0  0
  -30.1830  -13.5138   18.8714 C   0  0  0  0  0  0  0  0  0  0  0  0
  -25.3302  -34.1984   24.2956 C   0  0  0  0  0  0  0  0  0  0  0  0
  -29.0305  -12.5069   18.8712 C   0  0  0  0  0  0  0  0  0  0  0  0
  -30.0859  -14.4866   20.0453 C   0  0  0  0  0  0  0  0  0  0  0  0
  -27.6455  -14.1738   20.1713 C   0  0  0  0  0  0  0  0  0  0  0  0
  -26.2033  -33.8017   23.0990 C   0  0  1  0  0  0  0  0  0  0  0  0
  -24.3663  -31.1457   21.0978 C   0  0  1  0  0  0  0  0  0  0  0  0
  -27.6645  -13.2138   18.9706 C   0  0  2  0  0  0  0  0  0  0  0  0
  -18.0704  -26.6521   21.5121 C   0  0  0  0  0  0  0  0  0  0  0  0
  -22.4198  -30.0748   25.1506 C   0  0  0  0  0  0  0  0  0  0  0  0
  -20.5503  -28.4130   25.0436 C   0  0  0  0  0  0  0  0  0  0  0  0
  -20.1850  -30.7511   24.2548 C   0  0  0  0  0  0  0  0  0  0  0  0
  -20.4517  -26.9595   18.5607 C   0  0  0  0  0  0  0  0  0  0  0  0
  -28.6532  -25.3052   19.4907 C   0  0  0  0  0  0  0  0  0  1  0  0
  -21.6038  -29.1831   22.8691 C   0  0  1  0  0  0  0  0  0  0  0  0
  -19.1567  -27.3015   20.6689 C   0  0  2  0  0  0  0  0  0  0  0  0
  -21.2138  -29.6011   24.3150 C   0  0  0  0  0  0  0  0  0  0  0  0
  -26.0699  -11.8029   20.2147 N   0  0  0  0  0  0  0  0  0  0  0  0
  -26.5192  -12.2198   19.0187 N   0  0  0  0  0  0  0  0  0  0  0  0
  -28.0333  -21.6296   19.7941 N   0  0  3  0  0  0  0  0  0  0  0  0
  -23.5843  -30.0425   21.6597 N   0  0  0  0  0  0  0  0  0  0  0  0
  -28.7666  -15.1217   20.0732 N   0  0  0  0  0  0  0  0  0  0  0  0
  -26.1816  -11.9815   16.6863 N   0  0  0  0  0  0  0  0  0  0  0  0
  -23.0690   -9.2414   18.4750 N   0  0  0  0  0  0  0  0  0  0  0  0
  -27.3631  -17.0162   20.0127 N   0  0  0  0  0  0  0  0  0  0  0  0
  -25.4247  -33.0631   22.1281 N   0  0  0  0  0  0  0  0  0  0  0  0
  -20.4774  -28.7557   22.0464 N   0  0  0  0  0  0  0  0  0  0  0  0
  -19.4197  -26.4300   19.4890 N   0  3  0  0  0  0  0  0  0  0  0  0
  -23.9486  -10.0273   16.5085 O   0  0  0  0  0  0  0  0  0  0  0  0
  -25.6194  -30.9512   23.0896 O   0  0  0  0  0  0  0  0  0  0  0  0
  -21.6750  -31.3554   21.9191 O   0  0  0  0  0  0  0  0  0  0  0  0
  -21.2953  -26.6375   21.5760 O   0  0  0  0  0  0  0  0  0  0  0  0
  -29.6703  -17.2450   19.9349 O   0  0  0  0  0  0  0  0  0  0  0  0
  -27.9185  -19.3262   19.8999 O   0  0  0  0  0  0  0  0  0  0  0  0
  -22.1892   -8.3569   23.9044 O   0  0  0  0  0  0  0  0  0  0  0  0
  -27.9915  -25.8507   20.6312 O   0  0  0  0  0  0  0  0  0  1  0  0
  -21.2255   -2.9634   23.2837 F   0  0  0  0  0  0  0  0  0  0  0  0
  -20.7747   -7.4104   21.7259 F   0  0  0  0  0  0  0  0  0  0  0  0
  -24.9820  -21.2917   19.8606 F   0  0  0  0  0  0  0  0  0  0  0  0
  1  2  1  0  0  0  0
  1  5  2  0  0  0  0
  2  6  2  0  0  0  0
  3  8  2  0  0  0  0
  3 16  1  0  0  0  0
  4  9  1  0  0  0  0
  4 16  2  0  0  0  0
  5 18  1  0  0  0  0
  6 20  1  0  0  0  0
  7 10  2  0  0  0  0
  7 19  1  0  0  0  0
  8 22  1  0  0  0  0
  9 22  2  0  0  0  0
 10 23  1  0  0  0  0
 11 12  2  0  0  0  0
 11 24  1  0  0  0  0
 12 25  1  0  0  0  0
 13 21  1  0  0  0  0
 13 23  2  0  0  0  0
 14 25  2  0  0  0  0
 14 26  1  0  0  0  0
 15 27  1  0  0  0  0
 15 31  2  0  0  0  0
 16 28  1  0  0  0  0
 17 28  1  0  0  0  0
 17 29  2  0  0  0  0
 17 34  1  0  0  0  0
 18 20  2  0  0  0  0
 18 39  1  0  0  0  0
 19 21  2  0  0  0  0
 19 40  1  0  0  0  0
 20 50  1  0  0  0  0
 21 41  1  0  0  0  0
 22 79  1  0  0  0  0
 23 80  1  0  0  0  0
 24 26  2  0  0  0  0
 24 79  1  0  0  0  0
 25 81  1  0  0  0  0
 26 82  1  0  0  0  0
 27 30  2  0  0  0  0
 27 83  1  0  0  0  0
 28 62  2  0  0  0  0
 29 63  1  0  0  0  0
 29 67  1  0  0  0  0
 30 64  1  0  0  0  0
 30 78  1  0  0  0  0
 31 69  1  0  0  0  0
 31 78  1  0  0  0  0
 32 33  2  0  0  0  0
 32 42  1  0  0  0  0
 33 43  1  0  0  0  0
 33 58  1  0  0  0  0
 34 68  1  0  0  0  0
 34 73  2  0  0  0  0
 35 51  1  0  0  0  0
 35 70  1  0  0  0  0
 35 74  2  0  0  0  0
 36 59  1  0  0  0  0
 36 65  1  0  0  0  0
 36 75  2  0  0  0  0
 37 60  1  0  0  0  0
 37 71  1  0  0  0  0
 37 76  2  0  0  0  0
 38 66  1  0  0  0  0
 38 69  1  0  0  0  0
 38 77  2  0  0  0  0
 39 44  1  0  0  0  0
 40 51  1  0  0  0  0
 41 65  1  0  0  0  0
 42 64  1  0  0  0  0
 43 64  1  0  0  0  0
 44 46  1  0  0  0  0
 45 47  1  0  0  0  0
 45 48  1  0  0  0  0
 46 50  1  0  0  0  0
 47 52  1  0  0  0  0
 48 66  1  0  0  0  0
 49 52  1  0  0  0  0
 49 66  1  0  0  0  0
 50 70  1  0  0  0  0
 51 65  1  0  0  0  0
 52 63  1  0  0  0  0
 53 60  1  0  0  0  0
 54 61  1  0  0  0  0
 55 61  1  0  0  0  0
 56 61  1  0  0  0  0
 57 72  1  0  0  0  0
 58 80  1  0  0  0  0
 59 61  1  0  0  0  0
 59 71  1  0  0  0  0
 60 72  1  0  0  0  0
 62 63  1  0  0  0  0
M  CHG  1  72   1
M  ISO  4  38 100  58 101  69 100  80 101
M  END
> <Batch ID>
0153

> <Smiles>
CNC(C)C(=O)NC(C(=O)N1Cc2cc([101O:1][101CH2:1]C3=CCN(c4oc([100NH:0][100C:0](=O)N5CCCC(n6nc(-c7ccc(Oc8ccc(F)cc8F)cc7)c(C(N)=O)c6N)C5)cc4F)C3)ccc2CC1C(=O)NC1CCCc2ccccc21)C(C)(C)C

> <Shape>
0.345

> <Color>
0.099

> <Negative vol penalty>
0.000

$$$$

  -OEChem-04052303303D

 83 91  0     1  0  0  0  0  0999 V2000
  -20.0433   -8.7933   19.5571 C   0  0  0  0  0  0  0  0  0  0  0  0
  -19.7865  -10.1249   19.8674 C   0  0  0  0  0  0  0  0  0  0  0  0
  -25.5353  -27.3275   21.4702 C   0  0  0  0  0  0  0  0  0  0  0  0
  -25.8874  -28.8894   19.6609 C   0  0  0  0  0  0  0  0  0  0  0  0
  -21.2787   -8.2305   19.8748 C   0  0  0  0  0  0  0  0  0  0  0  0
  -20.7645  -10.8942   20.4967 C   0  0  0  0  0  0  0  0  0  0  0  0
  -21.8458  -16.8657   19.6740 C   0  0  0  0  0  0  0  0  0  0  0  0
  -26.3006  -26.3752   20.7971 C   0  0  0  0  0  0  0  0  0  0  0  0
  -26.6527  -27.9371   18.9877 C   0  0  0  0  0  0  0  0  0  0  0  0
  -21.4700  -17.9956   20.3992 C   0  0  0  0  0  0  0  0  0  0  0  0
  -25.8869  -24.2004   18.2429 C   0  0  0  0  0  0  0  0  0  0  0  0
  -25.3950  -22.8964   18.1871 C   0  0  0  0  0  0  0  0  0  0  0  0
  -23.5905  -17.9558   21.5486 C   0  0  0  0  0  0  0  0  0  0  0  0
  -19.3600  -26.2562   22.8815 C   0  0  0  0  0  0  0  0  0  0  0  0
  -27.3685  -22.1029   19.3329 C   0  0  0  0  0  0  0  0  0  0  0  0
  -18.8855  -25.4132   20.7087 C   0  0  0  0  0  0  0  0  0  0  0  0
  -18.0095  -27.4452   21.3263 C   0  0  0  0  0  0  0  0  0  0  0  0
  -25.3287  -28.5846   20.9021 C   0  0  0  0  0  0  0  0  0  0  0  0
  -24.9947  -30.5313   22.5164 C   0  0  0  0  0  0  0  0  0  0  0  0
  -22.2759   -8.9959   20.4995 C   0  0  0  0  0  0  0  0  0  0  0  0
  -23.0945  -16.2649   19.8889 C   0  0  0  0  0  0  0  0  0  0  0  0
  -22.0140  -10.3407   20.8243 C   0  0  0  0  0  0  0  0  0  0  0  0
  -23.9808  -16.8199   20.8231 C   0  0  0  0  0  0  0  0  0  0  0  0
  -19.5127  -25.2506   21.9334 C   0  0  0  0  0  0  0  0  0  0  0  0
  -18.5955  -27.3778   22.5800 C   0  0  0  0  0  0  0  0  0  0  0  0
  -26.8593  -26.6800   19.5559 C   0  0  0  0  0  0  0  0  0  0  0  0
  -22.3412  -18.5392   21.3387 C   0  0  0  0  0  0  0  0  0  0  0  0
  -27.1197  -24.4557   18.8436 C   0  0  0  0  0  0  0  0  0  0  0  0
  -26.1358  -21.8477   18.7321 C   0  0  0  0  0  0  0  0  0  0  0  0
  -27.8605  -23.4070   19.3886 C   0  0  0  0  0  0  0  0  0  0  0  0
  -24.5378  -29.5685   21.5966 C   0  0  0  0  0  0  0  0  0  0  0  0
  -23.8634  -31.2165   22.8866 C   0  0  0  0  0  0  0  0  0  0  0  0
  -26.3230  -30.7838   22.9934 C   0  0  0  0  0  0  0  0  0  0  0  0
  -24.0672  -13.4118   20.8973 C   0  0  0  0  0  0  0  0  0  0  0  0
  -21.3444  -21.9757   21.8889 C   0  0  0  0  0  0  0  0  0  0  0  0
  -26.9978  -14.5730   20.1322 C   0  0  0  0  0  0  0  0  0  0  0  0
  -28.9989  -17.2939   19.6432 C   0  0  0  0  0  0  0  0  0  0  0  0
  -18.2259  -29.7756   23.1325 C   0  0  0  0  0  0  0  0  0  0  0  0
  -23.5789   -8.3306   20.8661 C   0  0  0  0  0  0  0  0  0  0  0  0
  -23.4956  -15.0623   19.0794 C   0  0  0  0  0  0  0  0  0  0  0  0
  -25.3409  -16.2246   21.0766 C   0  0  0  0  0  0  0  0  0  0  0  0
  -24.6958   -9.3181   21.1943 C   0  0  0  0  0  0  0  0  0  0  0  0
  -19.5548  -32.4977   21.2703 C   0  0  0  0  0  0  0  0  0  0  0  0
  -24.1873  -10.4058   22.1351 C   0  0  0  0  0  0  0  0  0  0  0  0
  -21.0394  -32.1378   21.2242 C   0  0  0  0  0  0  0  0  0  0  0  0
  -18.6621  -31.2662   21.1139 C   0  0  0  0  0  0  0  0  0  0  0  0
  -20.4495  -29.8187   22.0275 C   0  0  0  0  0  0  0  0  0  0  0  0
  -23.0584  -11.2144   21.4845 C   0  0  1  0  0  0  0  0  0  0  0  0
  -24.5848  -14.2287   19.7473 C   0  0  1  0  0  0  0  0  0  0  0  0
  -21.3708  -31.0301   22.2398 C   0  0  1  0  0  0  0  0  0  0  0  0
  -31.3570  -17.9262   19.0630 C   0  0  0  0  0  0  0  0  0  0  0  0
  -27.8854  -13.8479   22.9600 C   0  0  0  0  0  0  0  0  0  0  0  0
  -29.8791  -15.3279   22.6388 C   0  0  0  0  0  0  0  0  0  0  0  0
  -29.5608  -13.3323   21.1763 C   0  0  0  0  0  0  0  0  0  0  0  0
  -18.1969  -28.0791   24.9480 C   0  0  0  0  0  0  0  0  0  0  0  0
  -28.1380  -18.7175   17.1955 C   0  0  0  0  0  0  0  0  0  0  0  0
  -20.4672  -23.0429   21.2695 C   0  0  0  0  0  0  0  0  0  0  0  0
  -21.0883  -20.5592   21.4119 C   0  0  0  0  0  0  0  0  0  1  0  0
  -28.0659  -15.3475   20.8660 C   0  0  1  0  0  0  0  0  0  0  0  0
  -29.9622  -17.6478   18.5247 C   0  0  2  0  0  0  0  0  0  0  0  0
  -28.8215  -14.4742   21.9071 C   0  0  0  0  0  0  0  0  0  0  0  0
  -18.1351  -26.4884   20.3795 N   0  0  0  0  0  0  0  0  0  0  0  0
  -23.2190  -29.6330   21.3950 N   0  0  0  0  0  0  0  0  0  0  0  0
  -22.8375  -30.6445   22.1934 N   0  0  0  0  0  0  0  0  0  0  0  0
  -25.6845  -15.0456   20.2647 N   0  0  0  0  0  0  0  0  0  0  0  0
  -19.0419  -30.2218   22.0757 N   0  0  0  0  0  0  0  0  0  0  0  0
  -23.6559  -32.2465   23.7344 N   0  0  0  0  0  0  0  0  0  0  0  0
  -27.3694  -29.9866   22.5099 N   0  0  0  0  0  0  0  0  0  0  0  0
  -20.2691  -24.1197   22.2057 N   0  0  0  0  0  0  0  0  0  0  0  0
  -23.5989  -12.1633   20.5348 N   0  0  0  0  0  0  0  0  0  0  0  0
  -28.9239  -15.9314   19.8407 N   0  0  0  0  0  0  0  0  0  0  0  0
  -18.4181  -28.4390   23.5433 N   0  0  0  0  0  0  0  0  0  0  0  0
  -29.4888  -18.8593   17.7972 N   0  3  0  0  0  0  0  0  0  0  0  0
  -26.5721  -31.6788   23.8363 O   0  0  0  0  0  0  0  0  0  0  0  0
  -24.0924  -13.8789   22.0299 O   0  0  0  0  0  0  0  0  0  0  0  0
  -22.2107  -22.2291   22.7250 O   0  0  0  0  0  0  0  0  0  0  0  0
  -27.3180  -13.5893   19.4603 O   0  0  0  0  0  0  0  0  0  0  0  0
  -28.3780  -18.1417   20.2807 O   0  0  0  0  0  0  0  0  0  0  0  0
  -17.4074  -30.5212   23.6840 O   0  0  0  0  0  0  0  0  0  0  0  0
  -27.6063  -25.7510   18.8989 O   0  0  0  0  0  0  0  0  0  0  0  0
  -21.9767  -19.6416   22.0484 O   0  0  0  0  0  0  0  0  0  1  0  0
  -25.6625  -20.5957   18.6799 F   0  0  0  0  0  0  0  0  0  0  0  0
  -29.0449  -23.6462   19.9680 F   0  0  0  0  0  0  0  0  0  0  0  0
  1  2  1  0  0  0  0
  1  5  2  0  0  0  0
  2  6  2  0  0  0  0
  3  8  2  0  0  0  0
  3 18  1  0  0  0  0
  4  9  1  0  0  0  0
  4 18  2  0  0  0  0
  5 20  1  0  0  0  0
  6 22  1  0  0  0  0
  7 10  2  0  0  0  0
  7 21  1  0  0  0  0
  8 26  1  0  0  0  0
  9 26  2  0  0  0  0
 10 27  1  0  0  0  0
 11 12  2  0  0  0  0
 11 28  1  0  0  0  0
 12 29  1  0  0  0  0
 13 23  1  0  0  0  0
 13 27  2  0  0  0  0
 14 24  2  0  0  0  0
 14 25  1  0  0  0  0
 15 29  2  0  0  0  0
 15 30  1  0  0  0  0
 16 24  1  0  0  0  0
 16 62  2  0  0  0  0
 17 25  2  0  0  0  0
 17 62  1  0  0  0  0
 18 31  1  0  0  0  0
 19 31  1  0  0  0  0
 19 32  2  0  0  0  0
 19 33  1  0  0  0  0
 20 22  2  0  0  0  0
 20 39  1  0  0  0  0
 21 23  2  0  0  0  0
 21 40  1  0  0  0  0
 22 48  1  0  0  0  0
 23 41  1  0  0  0  0
 24 69  1  0  0  0  0
 25 72  1  0  0  0  0
 26 80  1  0  0  0  0
 27 81  1  0  0  0  0
 28 30  2  0  0  0  0
 28 80  1  0  0  0  0
 29 82  1  0  0  0  0
 30 83  1  0  0  0  0
 31 63  2  0  0  0  0
 32 64  1  0  0  0  0
 32 67  1  0  0  0  0
 33 68  1  0  0  0  0
 33 74  2  0  0  0  0
 34 49  1  0  0  0  0
 34 70  1  0  0  0  0
 34 75  2  0  0  0  0
 35 57  1  0  0  0  0
 35 58  1  0  0  0  0
 35 76  2  0  0  0  0
 36 59  1  0  0  0  0
 36 65  1  0  0  0  0
 36 77  2  0  0  0  0
 37 60  1  0  0  0  0
 37 71  1  0  0  0  0
 37 78  2  0  0  0  0
 38 66  1  0  0  0  0
 38 72  1  0  0  0  0
 38 79  2  0  0  0  0
 39 42  1  0  0  0  0
 40 49  1  0  0  0  0
 41 65  1  0  0  0  0
 42 44  1  0  0  0  0
 43 45  1  0  0  0  0
 43 46  1  0  0  0  0
 44 48  1  0  0  0  0
 45 50  1  0  0  0  0
 46 66  1  0  0  0  0
 47 50  1  0  0  0  0
 47 66  1  0  0  0  0
 48 70  1  0  0  0  0
 49 65  1  0  0  0  0
 50 64  1  0  0  0  0
 51 60  1  0  0  0  0
 52 61  1  0  0  0  0
 53 61  1  0  0  0  0
 54 61  1  0  0  0  0
 55 72  1  0  0  0  0
 56 73  1  0  0  0  0
 57 69  1  0  0  0  0
 58 81  1  0  0  0  0
 59 61  1  0  0  0  0
 59 71  1  0  0  0  0
 60 73  1  0  0  0  0
 63 64  1  0  0  0  0
M  CHG  1  73   1
M  ISO  4  38 100  58 101  72 100  81 101
M  END
> <Batch ID>
0153

> <Smiles>
CNC(C)C(=O)NC(C(=O)N1Cc2cc([101O:1][101CH2:1]C(=O)CNc3cncc([100N:0](C)[100C:0](=O)N4CCCC(n5nc(-c6ccc(Oc7ccc(F)cc7F)cc6)c(C(N)=O)c5N)C4)c3)ccc2CC1C(=O)NC1CCCc2ccccc21)C(C)(C)C

> <Shape>
0.276

> <Color>
0.050

> <Negative vol penalty>
0.000

$$$$

  -OEChem-04052303303D

 86 94  0     1  0  0  0  0  0999 V2000
  -22.0324  -11.4292   22.0732 C   0  0  0  0  0  0  0  0  0  0  0  0
  -22.5679  -12.3788   22.9375 C   0  0  0  0  0  0  0  0  0  0  0  0
  -19.1639  -28.8831   21.9672 C   0  0  0  0  0  0  0  0  0  0  0  0
  -20.0400  -27.6402   23.8446 C   0  0  0  0  0  0  0  0  0  0  0  0
  -22.7092  -11.0948   20.9010 C   0  0  0  0  0  0  0  0  0  0  0  0
  -23.7812  -12.9937   22.6305 C   0  0  0  0  0  0  0  0  0  0  0  0
  -23.6713  -17.9983   23.3969 C   0  0  0  0  0  0  0  0  0  0  0  0
  -17.9677  -28.1708   22.0539 C   0  0  0  0  0  0  0  0  0  0  0  0
  -18.8439  -26.9280   23.9313 C   0  0  0  0  0  0  0  0  0  0  0  0
  -23.7869  -18.4436   24.7130 C   0  0  0  0  0  0  0  0  0  0  0  0
  -16.1552  -24.5318   24.4205 C   0  0  0  0  0  0  0  0  0  0  0  0
  -16.2345  -23.1502   24.5945 C   0  0  0  0  0  0  0  0  0  0  0  0
  -26.1209  -18.9249   24.3389 C   0  0  0  0  0  0  0  0  0  0  0  0
  -27.4141  -24.6020   24.6086 C   0  0  0  0  0  0  0  0  0  0  0  0
  -17.4426  -22.9573   22.5111 C   0  0  0  0  0  0  0  0  0  0  0  0
  -20.2001  -28.6177   22.8625 C   0  0  0  0  0  0  0  0  0  0  0  0
  -21.7563  -30.5598   23.4230 C   0  0  0  0  0  0  0  0  0  0  0  0
  -23.9266  -11.7130   20.5748 C   0  0  0  0  0  0  0  0  0  0  0  0
  -24.7842  -18.0028   22.5437 C   0  0  0  0  0  0  0  0  0  0  0  0
  -24.4756  -12.6663   21.4535 C   0  0  0  0  0  0  0  0  0  0  0  0
  -26.0162  -18.4816   23.0117 C   0  0  0  0  0  0  0  0  0  0  0  0
  -28.2395  -25.7214   24.2988 C   0  0  0  0  0  0  0  0  0  0  0  0
  -17.8077  -27.1933   23.0359 C   0  0  0  0  0  0  0  0  0  0  0  0
  -25.0124  -18.9043   25.1851 C   0  0  0  0  0  0  0  0  0  0  0  0
  -16.7195  -25.1263   23.2918 C   0  0  0  0  0  0  0  0  0  0  0  0
  -16.8782  -22.3629   23.6398 C   0  0  0  0  0  0  0  0  0  0  0  0
  -17.3632  -24.3390   22.3371 C   0  0  0  0  0  0  0  0  0  0  0  0
  -21.4361  -29.3528   22.7731 C   0  0  0  0  0  0  0  0  0  0  0  0
  -23.0366  -30.8414   23.0130 C   0  0  0  0  0  0  0  0  0  0  0  0
  -27.2958  -24.4065   25.9670 C   0  0  0  0  0  0  0  0  0  0  0  0
  -28.7204  -26.3390   25.4325 C   0  0  0  0  0  0  0  0  0  0  0  0
  -20.9670  -31.3553   24.3174 C   0  0  0  0  0  0  0  0  0  0  0  0
  -26.4235  -15.7708   20.9834 C   0  0  0  0  0  0  0  0  0  0  0  0
  -23.3649  -19.9774   27.9613 C   0  0  0  0  0  0  0  0  0  0  0  0
  -27.9583  -18.3341   19.7200 C   0  0  0  0  0  0  0  0  0  0  0  0
  -25.8035  -22.3910   26.2039 C   0  0  0  0  0  0  0  0  0  0  0  0
  -28.8626  -21.6105   20.0273 C   0  0  0  0  0  0  0  0  0  0  0  0
  -27.5291  -27.4159   21.0296 C   0  0  0  0  0  0  0  0  0  0  0  0
  -24.6451  -11.2844   19.3199 C   0  0  0  0  0  0  0  0  0  0  0  0
  -24.6367  -17.5442   21.1188 C   0  0  0  0  0  0  0  0  0  0  0  0
  -27.2365  -18.5260   22.1299 C   0  0  0  0  0  0  0  0  0  0  0  0
  -25.7393  -12.2549   18.8828 C   0  0  0  0  0  0  0  0  0  0  0  0
  -26.0258  -30.1652   19.3390 C   0  0  0  0  0  0  0  0  0  0  0  0
  -26.6063  -12.6531   20.0730 C   0  0  0  0  0  0  0  0  0  0  0  0
  -24.7079  -30.3777   20.0861 C   0  0  0  0  0  0  0  0  0  0  0  0
  -26.3839  -28.6843   19.2362 C   0  0  0  0  0  0  0  0  0  0  0  0
  -25.0869  -28.1739   21.2687 C   0  0  0  0  0  0  0  0  0  0  0  0
  -25.7771  -13.3734   21.1431 C   0  0  1  0  0  0  0  0  0  0  0  0
  -25.9579  -17.1117   20.4905 C   0  0  1  0  0  0  0  0  0  0  0  0
  -24.7119  -29.6552   21.4467 C   0  0  2  0  0  0  0  0  0  0  0  0
  -21.9978  -20.6120   28.0079 C   0  0  0  0  0  0  0  0  0  0  0  0
  -30.1475  -23.4179   18.8527 C   0  0  0  0  0  0  0  0  0  0  0  0
  -30.5777  -17.0457   20.6081 C   0  0  0  0  0  0  0  0  0  0  0  0
  -31.6966  -19.2619   20.2844 C   0  0  0  0  0  0  0  0  0  0  0  0
  -30.6495  -18.0998   18.3413 C   0  0  0  0  0  0  0  0  0  0  0  0
  -26.4587  -23.3189   19.7795 C   0  0  0  0  0  0  0  0  0  0  0  0
  -28.5431  -26.1656   22.9184 C   0  0  0  0  0  0  0  0  0  0  0  0
  -25.2140  -21.5689   27.3459 C   0  0  0  0  0  0  0  0  0  0  0  0
  -24.3088  -20.4405   26.8586 C   0  0  1  0  0  0  0  0  0  1  0  0
  -29.1697  -19.1499   20.1019 C   0  0  1  0  0  0  0  0  0  0  0  0
  -28.7852  -22.7724   19.0534 C   0  0  2  0  0  0  0  0  0  0  0  0
  -30.5010  -18.3868   19.8514 C   0  0  0  0  0  0  0  0  0  0  0  0
  -22.4326  -28.8989   22.0082 N   0  0  0  0  0  0  0  0  0  0  0  0
  -23.3914  -29.8257   22.1748 N   0  0  0  0  0  0  0  0  0  0  0  0
  -27.0431  -18.0610   20.7464 N   0  0  0  0  0  0  0  0  0  0  0  0
  -26.3714  -28.0585   20.5607 N   0  0  0  0  0  0  0  0  0  0  0  0
  -23.8821  -31.8564   23.2912 N   0  0  0  0  0  0  0  0  0  0  0  0
  -19.6725  -30.9206   24.6328 N   0  0  0  0  0  0  0  0  0  0  0  0
  -26.5843  -23.4301   26.7039 N   0  0  0  0  0  0  0  0  0  0  0  0
  -25.5280  -14.7442   20.7516 N   0  0  0  0  0  0  0  0  0  0  0  0
  -29.0581  -20.4107   19.3764 N   0  0  0  0  0  0  0  0  0  0  0  0
  -27.4341  -26.8547   22.2972 N   0  0  0  0  0  0  0  0  0  0  0  0
  -27.8432  -23.8104   19.5593 N   0  3  0  0  0  0  0  0  0  0  0  0
  -21.3910  -32.4287   24.8090 O   0  0  0  0  0  0  0  0  0  0  0  0
  -27.5151  -15.6744   21.5319 O   0  0  0  0  0  0  0  0  0  0  0  0
  -23.6916  -19.1242   28.7868 O   0  0  0  0  0  0  0  0  0  0  0  0
  -27.8252  -17.9592   18.5523 O   0  0  0  0  0  0  0  0  0  0  0  0
  -25.5880  -22.1228   25.0267 O   0  0  0  0  0  0  0  0  0  0  0  0
  -28.7635  -21.7534   21.2440 O   0  0  0  0  0  0  0  0  0  0  0  0
  -28.5720  -27.3521   20.3698 O   0  0  0  0  0  0  0  0  0  0  0  0
  -16.6406  -26.4982   23.1210 O   0  0  0  0  0  0  0  0  0  0  0  0
  -25.1281  -19.3389   26.4694 O   0  0  0  0  0  0  0  0  0  1  0  0
  -16.9556  -21.0362   23.8077 F   0  0  0  0  0  0  0  0  0  0  0  0
  -17.9082  -24.9044   21.2513 F   0  0  0  0  0  0  0  0  0  0  0  0
  -29.5185  -27.4126   25.4234 F   0  0  0  0  0  0  0  0  0  0  0  0
  -28.1774  -25.5696   26.8627 S   0  0  0  0  0  0  0  0  0  0  0  0
  1  2  1  0  0  0  0
  1  5  2  0  0  0  0
  2  6  2  0  0  0  0
  3  8  2  0  0  0  0
  3 16  1  0  0  0  0
  4  9  1  0  0  0  0
  4 16  2  0  0  0  0
  5 18  1  0  0  0  0
  6 20  1  0  0  0  0
  7 10  2  0  0  0  0
  7 19  1  0  0  0  0
  8 23  1  0  0  0  0
  9 23  2  0  0  0  0
 10 24  1  0  0  0  0
 11 12  2  0  0  0  0
 11 25  1  0  0  0  0
 12 26  1  0  0  0  0
 13 21  1  0  0  0  0
 13 24  2  0  0  0  0
 14 22  1  0  0  0  0
 14 30  2  0  0  0  0
 15 26  2  0  0  0  0
 15 27  1  0  0  0  0
 16 28  1  0  0  0  0
 17 28  1  0  0  0  0
 17 29  2  0  0  0  0
 17 32  1  0  0  0  0
 18 20  2  0  0  0  0
 18 39  1  0  0  0  0
 19 21  2  0  0  0  0
 19 40  1  0  0  0  0
 20 48  1  0  0  0  0
 21 41  1  0  0  0  0
 22 31  2  0  0  0  0
 22 57  1  0  0  0  0
 23 81  1  0  0  0  0
 24 82  1  0  0  0  0
 25 27  2  0  0  0  0
 25 81  1  0  0  0  0
 26 83  1  0  0  0  0
 27 84  1  0  0  0  0
 28 63  2  0  0  0  0
 29 64  1  0  0  0  0
 29 67  1  0  0  0  0
 30 69  1  0  0  0  0
 30 86  1  0  0  0  0
 31 85  1  0  0  0  0
 31 86  1  0  0  0  0
 32 68  1  0  0  0  0
 32 74  2  0  0  0  0
 33 49  1  0  0  0  0
 33 70  1  0  0  0  0
 33 75  2  0  0  0  0
 34 51  1  0  0  0  0
 34 59  1  0  0  0  0
 34 76  2  0  0  0  0
 35 60  1  0  0  0  0
 35 65  1  0  0  0  0
 35 77  2  0  0  0  0
 36 58  1  0  0  0  0
 36 69  1  0  0  0  0
 36 78  2  0  0  0  0
 37 61  1  0  0  0  0
 37 71  1  0  0  0  0
 37 79  2  0  0  0  0
 38 66  1  0  0  0  0
 38 72  1  0  0  0  0
 38 80  2  0  0  0  0
 39 42  1  0  0  0  0
 40 49  1  0  0  0  0
 41 65  1  0  0  0  0
 42 44  1  0  0  0  0
 43 45  1  0  0  0  0
 43 46  1  0  0  0  0
 44 48  1  0  0  0  0
 45 50  1  0  0  0  0
 46 66  1  0  0  0  0
 47 50  1  0  0  0  0
 47 66  1  0  0  0  0
 48 70  1  0  0  0  0
 49 65  1  0  0  0  0
 50 64  1  0  0  0  0
 52 61  1  0  0  0  0
 53 62  1  0  0  0  0
 54 62  1  0  0  0  0
 55 62  1  0  0  0  0
 56 73  1  0  0  0  0
 57 72  1  0  0  0  0
 58 59  1  0  0  0  0
 59 82  1  0  0  0  0
 60 62  1  0  0  0  0
 60 71  1  0  0  0  0
 61 73  1  0  0  0  0
 63 64  1  0  0  0  0
M  CHG  1  73   1
M  ISO  4  38 100  59 101  72 100  82 101
M  END
> <Batch ID>
0153

> <Smiles>
CNC(C)C(=O)NC(C(=O)N1Cc2cc([101O:1][101CH:1](CC(=O)Nc3cc(C[100NH:0][100C:0](=O)N4CCCC(n5nc(-c6ccc(Oc7ccc(F)cc7F)cc6)c(C(N)=O)c5N)C4)c(F)s3)C(C)=O)ccc2CC1C(=O)NC1CCCc2ccccc21)C(C)(C)C

> <Shape>
0.229

> <Color>
0.075

> <Negative vol penalty>
0.000

$$$$

  -OEChem-04052303303D

 83 91  0     1  0  0  0  0  0999 V2000
  -29.5050  -17.0858   28.6916 C   0  0  0  0  0  0  0  0  0  0  0  0
  -30.0747  -17.7948   27.6389 C   0  0  0  0  0  0  0  0  0  0  0  0
  -23.0020   -9.8923   19.9808 C   0  0  0  0  0  0  0  0  0  0  0  0
  -23.7250   -9.9456   22.2855 C   0  0  0  0  0  0  0  0  0  0  0  0
  -28.1603  -17.2721   29.0091 C   0  0  0  0  0  0  0  0  0  0  0  0
  -29.2995  -18.6897   26.9022 C   0  0  0  0  0  0  0  0  0  0  0  0
  -31.6764  -23.0809   26.0582 C   0  0  0  0  0  0  0  0  0  0  0  0
  -22.2357   -8.7577   20.2474 C   0  0  0  0  0  0  0  0  0  0  0  0
  -22.9587   -8.8110   22.5521 C   0  0  0  0  0  0  0  0  0  0  0  0
  -32.6412  -23.0996   25.0520 C   0  0  0  0  0  0  0  0  0  0  0  0
  -23.2049   -5.4718   22.0833 C   0  0  0  0  0  0  0  0  0  0  0  0
  -23.7922   -4.4555   22.8369 C   0  0  0  0  0  0  0  0  0  0  0  0
  -31.8160  -17.4817   21.6973 C   0  0  0  0  0  0  0  0  0  0  0  0
  -31.0434  -24.1000   23.5468 C   0  0  0  0  0  0  0  0  0  0  0  0
  -22.0666   -4.6991   24.5102 C   0  0  0  0  0  0  0  0  0  0  0  0
  -23.7467  -10.4863   20.9999 C   0  0  0  0  0  0  0  0  0  0  0  0
  -31.9140  -18.7557   22.3278 C   0  0  0  0  0  0  0  0  0  0  0  0
  -24.1310  -13.0019   20.8221 C   0  0  0  0  0  0  0  0  0  0  0  0
  -27.3707  -18.1769   28.2822 C   0  0  0  0  0  0  0  0  0  0  0  0
  -30.3824  -23.5625   25.8126 C   0  0  0  0  0  0  0  0  0  0  0  0
  -27.9426  -18.8872   27.2094 C   0  0  0  0  0  0  0  0  0  0  0  0
  -30.0647  -24.0887   24.5524 C   0  0  0  0  0  0  0  0  0  0  0  0
  -22.2140   -8.2171   21.5331 C   0  0  0  0  0  0  0  0  0  0  0  0
  -32.3240  -23.6065   23.7952 C   0  0  0  0  0  0  0  0  0  0  0  0
  -22.0485   -6.1018   22.5433 C   0  0  0  0  0  0  0  0  0  0  0  0
  -23.2231   -4.0691   24.0503 C   0  0  0  0  0  0  0  0  0  0  0  0
  -21.4794   -5.7154   23.7567 C   0  0  0  0  0  0  0  0  0  0  0  0
  -24.5389  -11.6580   20.7250 C   0  0  0  0  0  0  0  0  0  0  0  0
  -25.2408  -13.7246   20.4581 C   0  0  0  0  0  0  0  0  0  0  0  0
  -30.5914  -16.8896   21.9148 C   0  0  0  0  0  0  0  0  0  0  0  0
  -30.7603  -19.0888   23.0031 C   0  0  0  0  0  0  0  0  0  0  0  0
  -33.1196  -19.6051   22.2546 C   0  0  0  0  0  0  0  0  0  0  0  0
  -22.8624  -13.5480   21.2069 C   0  0  0  0  0  0  0  0  0  0  0  0
  -27.4715  -22.2859   25.8382 C   0  0  0  0  0  0  0  0  0  0  0  0
  -26.5449  -25.3558   25.3486 C   0  0  0  0  0  0  0  0  0  0  0  0
  -27.3352  -28.4738   24.2085 C   0  0  0  0  0  0  0  0  0  0  0  0
  -30.7197  -14.6883   20.6965 C   0  0  0  0  0  0  0  0  0  0  0  0
  -25.9097  -18.3095   28.6323 C   0  0  0  0  0  0  0  0  0  0  0  0
  -29.3609  -23.5600   26.9167 C   0  0  0  0  0  0  0  0  0  0  0  0
  -28.6961  -24.6364   24.2438 C   0  0  0  0  0  0  0  0  0  0  0  0
  -25.2523  -19.5542   28.0416 C   0  0  0  0  0  0  0  0  0  0  0  0
  -29.6046  -12.2331   18.3715 C   0  0  0  0  0  0  0  0  0  0  0  0
  -25.6267  -19.7087   26.5710 C   0  0  0  0  0  0  0  0  0  0  0  0
  -28.1537  -11.9751   18.7845 C   0  0  0  0  0  0  0  0  0  0  0  0
  -30.5039  -12.4778   19.5819 C   0  0  0  0  0  0  0  0  0  0  0  0
  -28.5869  -13.2669   20.9130 C   0  0  0  0  0  0  0  0  0  0  0  0
  -27.1406  -19.8853   26.4027 C   0  0  1  0  0  0  0  0  0  0  0  0
  -27.9252  -23.6025   26.4024 C   0  0  1  0  0  0  0  0  0  0  0  0
  -27.6305  -13.0792   19.7241 C   0  0  2  0  0  0  0  0  0  0  0  0
  -26.3600  -30.7660   23.9049 C   0  0  0  0  0  0  0  0  0  0  0  0
  -35.6343  -23.2303   23.0029 C   0  0  0  0  0  0  0  0  0  0  0  0
  -24.9719  -24.3635   22.9297 C   0  0  0  0  0  0  0  0  0  0  0  0
  -24.8205  -26.7354   22.1427 C   0  0  0  0  0  0  0  0  0  0  0  0
  -23.7861  -26.0753   24.3145 C   0  0  0  0  0  0  0  0  0  0  0  0
  -29.3469  -29.6941   26.0039 C   0  0  0  0  0  0  0  0  0  0  0  0
  -34.1299  -21.7554   21.5819 C   0  0  0  0  0  0  0  0  0  0  0  0
  -26.3038  -26.2189   24.1337 C   0  0  1  0  0  0  0  0  0  0  0  0
  -27.1502  -29.8486   24.8251 C   0  0  2  0  0  0  0  0  0  0  0  0
  -34.2571  -22.6014   22.8420 C   0  0  2  0  0  0  0  0  0  1  0  0
  -24.9959  -25.8362   23.3851 C   0  0  0  0  0  0  0  0  0  0  0  0
  -25.8086  -11.5317   20.3301 N   0  0  0  0  0  0  0  0  0  0  0  0
  -26.2081  -12.8055   20.1758 N   0  0  0  0  0  0  0  0  0  0  0  0
  -27.7299  -24.6063   25.3542 N   0  0  0  0  0  0  0  0  0  0  0  0
  -29.9476  -13.5392   20.4238 N   0  0  0  0  0  0  0  0  0  0  0  0
  -25.4738  -15.0504   20.3551 N   0  0  0  0  0  0  0  0  0  0  0  0
  -30.5252  -20.2265   23.7056 N   0  0  0  0  0  0  0  0  0  0  0  0
  -34.2631  -19.1155   22.7340 N   0  0  0  0  0  0  0  0  0  0  0  0
  -21.8307  -12.6637   21.5503 N   0  0  0  0  0  0  0  0  0  0  0  0
  -30.0742  -15.6438   21.4807 N   0  0  0  0  0  0  0  0  0  0  0  0
  -27.5319  -21.2380   26.7369 N   0  0  0  0  0  0  0  0  0  0  0  0
  -26.3427  -27.6006   24.6004 N   0  0  0  0  0  0  0  0  0  0  0  0
  -33.0063  -20.8238   21.7137 N   0  3  0  0  0  0  0  0  0  0  0  0
  -28.4740  -30.4786   25.0930 N   0  3  0  0  0  0  0  0  0  0  0  0
  -22.6452  -14.7833   21.2294 O   0  0  0  0  0  0  0  0  0  0  0  0
  -27.0932  -22.2255   24.6742 O   0  0  0  0  0  0  0  0  0  0  0  0
  -25.7161  -25.3523   26.2622 O   0  0  0  0  0  0  0  0  0  0  0  0
  -28.2650  -28.2028   23.4517 O   0  0  0  0  0  0  0  0  0  0  0  0
  -31.8587  -14.8273   20.2434 O   0  0  0  0  0  0  0  0  0  0  0  0
  -21.4662   -7.1101   21.7936 O   0  0  0  0  0  0  0  0  0  0  0  0
  -33.2636  -23.6252   22.8110 O   0  0  0  0  0  0  0  0  0  1  0  0
  -23.7863   -3.0921   24.7731 F   0  0  0  0  0  0  0  0  0  0  0  0
  -20.3678   -6.3162   24.2031 F   0  0  0  0  0  0  0  0  0  0  0  0
  -29.5660  -17.8683   22.8756 S   0  0  0  0  0  0  0  0  0  0  0  0
  1  2  1  0  0  0  0
  1  5  2  0  0  0  0
  2  6  2  0  0  0  0
  3  8  2  0  0  0  0
  3 16  1  0  0  0  0
  4  9  1  0  0  0  0
  4 16  2  0  0  0  0
  5 19  1  0  0  0  0
  6 21  1  0  0  0  0
  7 10  2  0  0  0  0
  7 20  1  0  0  0  0
  8 23  1  0  0  0  0
  9 23  2  0  0  0  0
 10 24  1  0  0  0  0
 11 12  2  0  0  0  0
 11 25  1  0  0  0  0
 12 26  1  0  0  0  0
 13 17  1  0  0  0  0
 13 30  2  0  0  0  0
 14 22  1  0  0  0  0
 14 24  2  0  0  0  0
 15 26  2  0  0  0  0
 15 27  1  0  0  0  0
 16 28  1  0  0  0  0
 17 31  2  0  0  0  0
 17 32  1  0  0  0  0
 18 28  1  0  0  0  0
 18 29  2  0  0  0  0
 18 33  1  0  0  0  0
 19 21  2  0  0  0  0
 19 38  1  0  0  0  0
 20 22  2  0  0  0  0
 20 39  1  0  0  0  0
 21 47  1  0  0  0  0
 22 40  1  0  0  0  0
 23 79  1  0  0  0  0
 24 80  1  0  0  0  0
 25 27  2  0  0  0  0
 25 79  1  0  0  0  0
 26 81  1  0  0  0  0
 27 82  1  0  0  0  0
 28 61  2  0  0  0  0
 29 62  1  0  0  0  0
 29 65  1  0  0  0  0
 30 69  1  0  0  0  0
 30 83  1  0  0  0  0
 31 66  1  0  0  0  0
 31 83  1  0  0  0  0
 32 67  1  0  0  0  0
 32 72  2  0  0  0  0
 33 68  1  0  0  0  0
 33 74  2  0  0  0  0
 34 48  1  0  0  0  0
 34 70  1  0  0  0  0
 34 75  2  0  0  0  0
 35 57  1  0  0  0  0
 35 63  1  0  0  0  0
 35 76  2  0  0  0  0
 36 58  1  0  0  0  0
 36 71  1  0  0  0  0
 36 77  2  0  0  0  0
 37 64  1  0  0  0  0
 37 69  1  0  0  0  0
 37 78  2  0  0  0  0
 38 41  1  0  0  0  0
 39 48  1  0  0  0  0
 40 63  1  0  0  0  0
 41 43  1  0  0  0  0
 42 44  1  0  0  0  0
 42 45  1  0  0  0  0
 43 47  1  0  0  0  0
 44 49  1  0  0  0  0
 45 64  1  0  0  0  0
 46 49  1  0  0  0  0
 46 64  1  0  0  0  0
 47 70  1  0  0  0  0
 48 63  1  0  0  0  0
 49 62  1  0  0  0  0
 50 58  1  0  0  0  0
 51 59  1  0  0  0  0
 52 60  1  0  0  0  0
 53 60  1  0  0  0  0
 54 60  1  0  0  0  0
 55 73  1  0  0  0  0
 56 59  1  0  0  0  0
 56 72  1  0  0  0  0
 57 60  1  0  0  0  0
 57 71  1  0  0  0  0
 58 73  1  0  0  0  0
 59 80  1  0  0  0  0
 61 62  1  0  0  0  0
M  CHG  2  72   1  73   1
M  ISO  4  37 100  59 101  69 100  80 101
M  END
> <Batch ID>
0153

> <Smiles>
CNC(C)C(=O)NC(C(=O)N1Cc2cc([101O:1][101CH:1](C)CNC(=N)c3cc([100NH:0][100C:0](=O)N4CCCC(n5nc(-c6ccc(Oc7ccc(F)cc7F)cc6)c(C(N)=O)c5N)C4)sc3N)ccc2CC1C(=O)NC1CCCc2ccccc21)C(C)(C)C

> <Shape>
0.198

> <Color>
0.186

> <Negative vol penalty>
0.000

$$$$

  -OEChem-04052303303D

 85 94  0     1  0  0  0  0  0999 V2000
  -19.0721  -18.4516   23.9182 C   0  0  0  0  0  0  0  0  0  0  0  0
  -20.2943  -19.0207   23.5749 C   0  0  0  0  0  0  0  0  0  0  0  0
  -23.2275   -9.6382   21.4213 C   0  0  0  0  0  0  0  0  0  0  0  0
  -23.8209  -10.6497   23.5336 C   0  0  0  0  0  0  0  0  0  0  0  0
  -17.8846  -19.1116   23.6052 C   0  0  0  0  0  0  0  0  0  0  0  0
  -20.3294  -20.2499   22.9173 C   0  0  0  0  0  0  0  0  0  0  0  0
  -23.7931  -23.3932   24.8584 C   0  0  0  0  0  0  0  0  0  0  0  0
  -22.5386   -8.6311   22.0971 C   0  0  0  0  0  0  0  0  0  0  0  0
  -23.1320   -9.6426   24.2094 C   0  0  0  0  0  0  0  0  0  0  0  0
  -25.1230  -23.1731   24.5028 C   0  0  0  0  0  0  0  0  0  0  0  0
  -23.2878   -5.7854   23.7601 C   0  0  0  0  0  0  0  0  0  0  0  0
  -23.4831   -4.4710   23.3362 C   0  0  0  0  0  0  0  0  0  0  0  0
  -31.3220  -18.0757   20.1877 C   0  0  0  0  0  0  0  0  0  0  0  0
  -24.9726  -24.9414   22.8689 C   0  0  0  0  0  0  0  0  0  0  0  0
  -21.1238   -4.2764   22.8531 C   0  0  0  0  0  0  0  0  0  0  0  0
  -23.8687  -10.6475   22.1395 C   0  0  0  0  0  0  0  0  0  0  0  0
  -31.2872  -19.4977   20.2707 C   0  0  0  0  0  0  0  0  0  0  0  0
  -24.0654  -12.9199   20.9971 C   0  0  0  0  0  0  0  0  0  0  0  0
  -17.9055  -20.3540   22.9521 C   0  0  0  0  0  0  0  0  0  0  0  0
  -23.0384  -24.3835   24.2132 C   0  0  0  0  0  0  0  0  0  0  0  0
  -19.1410  -20.9265   22.5941 C   0  0  0  0  0  0  0  0  0  0  0  0
  -23.6340  -25.1738   23.2199 C   0  0  0  0  0  0  0  0  0  0  0  0
  -22.4909   -8.6332   23.4911 C   0  0  0  0  0  0  0  0  0  0  0  0
  -25.7122  -23.9452   23.5060 C   0  0  0  0  0  0  0  0  0  0  0  0
  -22.0106   -6.3454   23.7305 C   0  0  0  0  0  0  0  0  0  0  0  0
  -22.4011   -3.7165   22.8827 C   0  0  0  0  0  0  0  0  0  0  0  0
  -20.9286   -5.5909   23.2770 C   0  0  0  0  0  0  0  0  0  0  0  0
  -24.5809  -11.6878   21.4420 C   0  0  0  0  0  0  0  0  0  0  0  0
  -25.1334  -13.5434   20.3995 C   0  0  0  0  0  0  0  0  0  0  0  0
  -30.0772  -19.9592   20.7404 C   0  0  0  0  0  0  0  0  0  0  0  0
  -30.1372  -17.5044   20.5973 C   0  0  0  0  0  0  0  0  0  0  0  0
  -29.7245  -23.5451   20.9955 C   0  0  0  0  0  0  0  0  0  0  0  0
  -28.5111  -23.1504   21.3972 C   0  0  0  0  0  0  0  0  0  0  0  0
  -32.3952  -20.3363   19.9027 C   0  0  0  0  0  0  0  0  0  0  0  0
  -22.7396  -13.4532   21.1137 C   0  0  0  0  0  0  0  0  0  0  0  0
  -20.4121  -24.3917   22.4226 C   0  0  0  0  0  0  0  0  0  0  0  0
  -20.7443  -27.6112   22.6395 C   0  0  0  0  0  0  0  0  0  0  0  0
  -22.8039  -30.2831   23.1549 C   0  0  0  0  0  0  0  0  0  0  0  0
  -30.5004  -15.0247   20.3418 C   0  0  0  0  0  0  0  0  0  0  0  0
  -16.5945  -21.0072   22.5924 C   0  0  0  0  0  0  0  0  0  0  0  0
  -21.6128  -24.6264   24.6269 C   0  0  0  0  0  0  0  0  0  0  0  0
  -22.8730  -26.2632   22.5109 C   0  0  0  0  0  0  0  0  0  0  0  0
  -30.5976  -22.3785   20.6671 C   0  0  0  0  0  0  0  0  0  0  0  0
  -28.3973  -21.6570   21.3950 C   0  0  0  0  0  0  0  0  0  0  0  0
  -16.7292  -22.4837   22.2288 C   0  0  0  0  0  0  0  0  0  0  0  0
  -29.7043  -11.7673   19.1450 C   0  0  0  0  0  0  0  0  0  0  0  0
  -17.8921  -22.6919   21.2639 C   0  0  0  0  0  0  0  0  0  0  0  0
  -28.2580  -11.5576   19.5993 C   0  0  0  0  0  0  0  0  0  0  0  0
  -30.5164  -12.5451   20.1790 C   0  0  0  0  0  0  0  0  0  0  0  0
  -28.4761  -13.6092   21.0588 C   0  0  0  0  0  0  0  0  0  0  0  0
  -19.2210  -22.2701   21.9023 C   0  0  1  0  0  0  0  0  0  0  0  0
  -20.7863  -25.3165   23.5462 C   0  0  1  0  0  0  0  0  0  0  0  0
  -27.6015  -12.8867   20.0212 C   0  0  2  0  0  0  0  0  0  0  0  0
  -22.7945  -32.7913   23.2335 C   0  0  0  0  0  0  0  0  0  0  0  0
  -20.6200  -27.7037   19.5922 C   0  0  0  0  0  0  0  0  0  0  0  0
  -21.5505  -30.0258   19.6943 C   0  0  0  0  0  0  0  0  0  0  0  0
  -19.3446  -29.5207   20.7440 C   0  0  0  0  0  0  0  0  0  0  0  0
  -23.6825  -30.3136   25.9809 C   0  0  0  0  0  0  0  0  0  0  0  0
  -27.3736  -24.0137   21.8057 C   0  0  0  0  0  0  0  0  0  1  0  0
  -21.4604  -28.6687   21.8346 C   0  0  1  0  0  0  0  0  0  0  0  0
  -22.6618  -31.5085   24.0395 C   0  0  2  0  0  0  0  0  0  0  0  0
  -20.7579  -28.9580   20.4781 C   0  0  0  0  0  0  0  0  0  0  0  0
  -25.8758  -11.5357   21.1517 N   0  0  0  0  0  0  0  0  0  0  0  0
  -26.1828  -12.6803   20.5178 N   0  0  0  0  0  0  0  0  0  0  0  0
  -29.7223  -21.2368   20.9343 N   0  0  3  0  0  0  0  0  0  0  0  0
  -21.4803  -26.4580   22.9465 N   0  0  0  0  0  0  0  0  0  0  0  0
  -29.8355  -13.7941   20.5272 N   0  0  0  0  0  0  0  0  0  0  0  0
  -25.2678  -14.7401   19.7894 N   0  0  0  0  0  0  0  0  0  0  0  0
  -33.3277  -20.6852   20.8115 N   0  0  0  0  0  0  0  0  0  0  0  0
  -21.7629  -12.6809   21.7571 N   0  0  0  0  0  0  0  0  0  0  0  0
  -29.7421  -16.1460   20.6768 N   0  0  0  0  0  0  0  0  0  0  0  0
  -19.6851  -23.2865   22.8220 N   0  0  0  0  0  0  0  0  0  0  0  0
  -21.5805  -29.8329   22.7056 N   0  0  0  0  0  0  0  0  0  0  0  0
  -32.5269  -20.7906   18.6404 N   0  3  0  0  0  0  0  0  0  0  0  0
  -23.7110  -31.5079   25.0979 N   0  3  0  0  0  0  0  0  0  0  0  0
  -22.4261  -14.5743   20.6463 O   0  0  0  0  0  0  0  0  0  0  0  0
  -20.7561  -24.6617   21.2778 O   0  0  0  0  0  0  0  0  0  0  0  0
  -19.5772  -27.8044   22.9892 O   0  0  0  0  0  0  0  0  0  0  0  0
  -23.8917  -29.7780   22.8862 O   0  0  0  0  0  0  0  0  0  0  0  0
  -31.6476  -15.0811   19.8915 O   0  0  0  0  0  0  0  0  0  0  0  0
  -21.8185   -7.6508   24.1509 O   0  0  0  0  0  0  0  0  0  0  0  0
  -27.0100  -23.7320   23.1565 O   0  0  0  0  0  0  0  0  0  1  0  0
  -22.5890   -2.4547   22.4743 F   0  0  0  0  0  0  0  0  0  0  0  0
  -19.6995   -6.1237   23.2452 F   0  0  0  0  0  0  0  0  0  0  0  0
  -28.9896  -18.6806   21.0791 S   0  0  0  0  0  0  0  0  0  0  0  0
  1  2  1  0  0  0  0
  1  5  2  0  0  0  0
  2  6  2  0  0  0  0
  3  8  2  0  0  0  0
  3 16  1  0  0  0  0
  4  9  1  0  0  0  0
  4 16  2  0  0  0  0
  5 19  1  0  0  0  0
  6 21  1  0  0  0  0
  7 10  2  0  0  0  0
  7 20  1  0  0  0  0
  8 23  1  0  0  0  0
  9 23  2  0  0  0  0
 10 24  1  0  0  0  0
 11 12  2  0  0  0  0
 11 25  1  0  0  0  0
 12 26  1  0  0  0  0
 13 17  1  0  0  0  0
 13 31  2  0  0  0  0
 14 22  1  0  0  0  0
 14 24  2  0  0  0  0
 15 26  2  0  0  0  0
 15 27  1  0  0  0  0
 16 28  1  0  0  0  0
 17 30  2  0  0  0  0
 17 34  1  0  0  0  0
 18 28  1  0  0  0  0
 18 29  2  0  0  0  0
 18 35  1  0  0  0  0
 19 21  2  0  0  0  0
 19 40  1  0  0  0  0
 20 22  2  0  0  0  0
 20 41  1  0  0  0  0
 21 51  1  0  0  0  0
 22 42  1  0  0  0  0
 23 81  1  0  0  0  0
 24 82  1  0  0  0  0
 25 27  2  0  0  0  0
 25 81  1  0  0  0  0
 26 83  1  0  0  0  0
 27 84  1  0  0  0  0
 28 63  2  0  0  0  0
 29 64  1  0  0  0  0
 29 68  1  0  0  0  0
 30 65  1  0  0  0  0
 30 85  1  0  0  0  0
 31 71  1  0  0  0  0
 31 85  1  0  0  0  0
 32 33  2  0  0  0  0
 32 43  1  0  0  0  0
 33 44  1  0  0  0  0
 33 59  1  0  0  0  0
 34 69  1  0  0  0  0
 34 74  2  0  0  0  0
 35 70  1  0  0  0  0
 35 76  2  0  0  0  0
 36 52  1  0  0  0  0
 36 72  1  0  0  0  0
 36 77  2  0  0  0  0
 37 60  1  0  0  0  0
 37 66  1  0  0  0  0
 37 78  2  0  0  0  0
 38 61  1  0  0  0  0
 38 73  1  0  0  0  0
 38 79  2  0  0  0  0
 39 67  1  0  0  0  0
 39 71  1  0  0  0  0
 39 80  2  0  0  0  0
 40 45  1  0  0  0  0
 41 52  1  0  0  0  0
 42 66  1  0  0  0  0
 43 65  1  0  0  0  0
 44 65  1  0  0  0  0
 45 47  1  0  0  0  0
 46 48  1  0  0  0  0
 46 49  1  0  0  0  0
 47 51  1  0  0  0  0
 48 53  1  0  0  0  0
 49 67  1  0  0  0  0
 50 53  1  0  0  0  0
 50 67  1  0  0  0  0
 51 72  1  0  0  0  0
 52 66  1  0  0  0  0
 53 64  1  0  0  0  0
 54 61  1  0  0  0  0
 55 62  1  0  0  0  0
 56 62  1  0  0  0  0
 57 62  1  0  0  0  0
 58 75  1  0  0  0  0
 59 82  1  0  0  0  0
 60 62  1  0  0  0  0
 60 73  1  0  0  0  0
 61 75  1  0  0  0  0
 63 64  1  0  0  0  0
M  CHG  2  74   1  75   1
M  ISO  4  39 100  59 101  71 100  82 101
M  END
> <Batch ID>
0153

> <Smiles>
CNC(C)C(=O)NC(C(=O)N1Cc2cc([101O:1][101CH2:1]C3=CCN(c4sc([100NH:0][100C:0](=O)N5CCCC(n6nc(-c7ccc(Oc8ccc(F)cc8F)cc7)c(C(N)=O)c6N)C5)cc4C(=N)N)C3)ccc2CC1C(=O)NC1CCCc2ccccc21)C(C)(C)C

> <Shape>
0.253

> <Color>
0.155

> <Negative vol penalty>
0.000

$$$$

  -OEChem-04052303303D

 82 90  0     1  0  0  0  0  0999 V2000
  -29.9551  -36.0704   18.2689 C   0  0  0  0  0  0  0  0  0  0  0  0
  -30.0149  -34.7548   18.7172 C   0  0  0  0  0  0  0  0  0  0  0  0
  -23.9106   -9.3106   19.8056 C   0  0  0  0  0  0  0  0  0  0  0  0
  -24.5958   -9.4755   22.1165 C   0  0  0  0  0  0  0  0  0  0  0  0
  -29.0001  -36.9412   18.7920 C   0  0  0  0  0  0  0  0  0  0  0  0
  -29.1204  -34.3094   19.6898 C   0  0  0  0  0  0  0  0  0  0  0  0
  -27.1536  -29.7744   18.5896 C   0  0  0  0  0  0  0  0  0  0  0  0
  -23.5624   -7.9746   20.0041 C   0  0  0  0  0  0  0  0  0  0  0  0
  -24.2475   -8.1395   22.3151 C   0  0  0  0  0  0  0  0  0  0  0  0
  -27.9551  -28.6584   18.8262 C   0  0  0  0  0  0  0  0  0  0  0  0
  -21.4239   -6.3510   22.8140 C   0  0  0  0  0  0  0  0  0  0  0  0
  -20.7003   -6.0356   23.9640 C   0  0  0  0  0  0  0  0  0  0  0  0
  -26.7762  -28.2571   20.8921 C   0  0  0  0  0  0  0  0  0  0  0  0
  -22.4757   -4.5598   24.6762 C   0  0  0  0  0  0  0  0  0  0  0  0
  -24.4274  -10.0611   20.8617 C   0  0  0  0  0  0  0  0  0  0  0  0
  -23.9618  -12.5689   20.8217 C   0  0  0  0  0  0  0  0  0  0  0  0
  -28.0871  -36.5036   19.7645 C   0  0  0  0  0  0  0  0  0  0  0  0
  -26.1629  -30.1471   19.5095 C   0  0  0  0  0  0  0  0  0  0  0  0
  -28.1531  -35.1755   20.2274 C   0  0  0  0  0  0  0  0  0  0  0  0
  -25.9617  -29.3767   20.6637 C   0  0  0  0  0  0  0  0  0  0  0  0
  -23.7307   -7.3891   21.2589 C   0  0  0  0  0  0  0  0  0  0  0  0
  -27.7684  -27.9013   19.9789 C   0  0  0  0  0  0  0  0  0  0  0  0
  -22.6733   -5.7708   22.5950 C   0  0  0  0  0  0  0  0  0  0  0  0
  -21.2262   -5.1400   24.8951 C   0  0  0  0  0  0  0  0  0  0  0  0
  -23.1992   -4.8752   23.5261 C   0  0  0  0  0  0  0  0  0  0  0  0
  -24.7879  -11.4410   20.6571 C   0  0  0  0  0  0  0  0  0  0  0  0
  -27.5604  -19.1135   22.4924 C   0  0  0  0  0  0  0  0  0  0  0  0
  -24.7690  -13.6347   20.5072 C   0  0  0  0  0  0  0  0  0  0  0  0
  -28.4321  -18.3669   21.7275 C   0  0  0  0  0  0  0  0  0  0  0  0
  -28.4436  -20.7404   21.3164 C   0  0  0  0  0  0  0  0  0  0  0  0
  -22.5875  -12.6463   21.2232 C   0  0  0  0  0  0  0  0  0  0  0  0
  -25.6284  -32.7071   21.3162 C   0  0  0  0  0  0  0  0  0  0  0  0
  -28.5817  -24.4144   20.5649 C   0  0  0  0  0  0  0  0  0  0  0  0
  -22.8551  -31.1673   21.9944 C   0  0  0  0  0  0  0  0  0  0  0  0
  -21.1489  -28.2173   22.1771 C   0  0  0  0  0  0  0  0  0  0  0  0
  -29.6283  -16.3318   20.8480 C   0  0  0  0  0  0  0  0  0  0  0  0
  -27.1033  -37.4945   20.3346 C   0  0  0  0  0  0  0  0  0  0  0  0
  -25.2889  -31.3380   19.2266 C   0  0  0  0  0  0  0  0  0  0  0  0
  -24.8984  -29.7228   21.6726 C   0  0  0  0  0  0  0  0  0  0  0  0
  -25.9494  -36.8409   21.0906 C   0  0  0  0  0  0  0  0  0  0  0  0
  -29.3624  -13.7743   18.3852 C   0  0  0  0  0  0  0  0  0  0  0  0
  -26.4726  -35.7649   22.0368 C   0  0  0  0  0  0  0  0  0  0  0  0
  -28.0806  -13.0320   18.7702 C   0  0  0  0  0  0  0  0  0  0  0  0
  -30.1417  -14.2361   19.6153 C   0  0  0  0  0  0  0  0  0  0  0  0
  -28.0834  -14.2789   20.9685 C   0  0  0  0  0  0  0  0  0  0  0  0
  -27.1840  -34.6483   21.2632 C   0  0  1  0  0  0  0  0  0  0  0  0
  -24.6530  -31.9245   20.4833 C   0  0  1  0  0  0  0  0  0  0  0  0
  -27.2316  -13.8509   19.7623 C   0  0  2  0  0  0  0  0  0  0  0  0
  -26.6395  -18.5890   23.5218 C   0  0  0  0  0  0  0  0  0  0  0  0
  -18.9095  -27.2722   22.8010 C   0  0  0  0  0  0  0  0  0  0  0  0
  -23.5466  -31.4857   24.9491 C   0  0  0  0  0  0  0  0  0  0  0  0
  -21.8266  -29.7420   25.4679 C   0  0  0  0  0  0  0  0  0  0  0  0
  -21.1417  -31.8856   24.3916 C   0  0  0  0  0  0  0  0  0  0  0  0
  -20.6984  -27.1739   19.4445 C   0  0  0  0  0  0  0  0  0  0  0  0
  -28.0512  -23.2045   21.3043 C   0  0  0  0  0  0  0  0  0  0  0  0
  -27.9687  -25.7440   20.9597 C   0  0  0  0  0  0  0  0  0  1  0  0
  -22.4135  -30.1701   23.0383 C   0  0  1  0  0  0  0  0  0  0  0  0
  -19.7739  -27.8161   21.6742 C   0  0  2  0  0  0  0  0  0  0  0  0
  -22.2535  -30.8152   24.4439 C   0  0  0  0  0  0  0  0  0  0  0  0
  -26.0251  -11.7604   20.2680 N   0  0  0  0  0  0  0  0  0  0  0  0
  -27.5659  -20.4747   22.2583 N   0  0  0  0  0  0  0  0  0  0  0  0
  -25.9823  -13.1011   20.1854 N   0  0  0  0  0  0  0  0  0  0  0  0
  -24.0735  -30.8999   21.3543 N   0  0  0  0  0  0  0  0  0  0  0  0
  -29.2746  -15.0091   20.5073 N   0  0  0  0  0  0  0  0  0  0  0  0
  -24.5523  -14.9668   20.4771 N   0  0  0  0  0  0  0  0  0  0  0  0
  -21.9069  -11.4549   21.5092 N   0  0  0  0  0  0  0  0  0  0  0  0
  -28.7114  -16.9788   21.6758 N   0  0  0  0  0  0  0  0  0  0  0  0
  -28.7089  -22.0131   20.8316 N   0  0  0  0  0  0  0  0  0  0  0  0
  -26.2171  -33.7641   20.6486 N   0  0  0  0  0  0  0  0  0  0  0  0
  -21.1971  -29.5512   22.5229 N   0  0  0  0  0  0  0  0  0  0  0  0
  -19.8927  -26.7655   20.6239 N   0  3  0  0  0  0  0  0  0  0  0  0
  -21.9764  -13.7383   21.3094 O   0  0  0  0  0  0  0  0  0  0  0  0
  -25.8307  -32.3774   22.4790 O   0  0  0  0  0  0  0  0  0  0  0  0
  -29.4521  -24.3360   19.6988 O   0  0  0  0  0  0  0  0  0  0  0  0
  -22.1416  -32.1436   21.7507 O   0  0  0  0  0  0  0  0  0  0  0  0
  -22.0855  -27.4256   22.2588 O   0  0  0  0  0  0  0  0  0  0  0  0
  -30.6543  -16.8616   20.4137 O   0  0  0  0  0  0  0  0  0  0  0  0
  -23.3908   -6.0855   21.4531 O   0  0  0  0  0  0  0  0  0  0  0  0
  -28.5498  -26.8119   20.2126 O   0  0  0  0  0  0  0  0  0  1  0  0
  -20.5319   -4.8384   26.0002 F   0  0  0  0  0  0  0  0  0  0  0  0
  -24.3995   -4.3154   23.3218 F   0  0  0  0  0  0  0  0  0  0  0  0
  -29.2974  -19.4007   20.6674 S   0  0  0  0  0  0  0  0  0  0  0  0
  1  2  1  0  0  0  0
  1  5  2  0  0  0  0
  2  6  2  0  0  0  0
  3  8  2  0  0  0  0
  3 15  1  0  0  0  0
  4  9  1  0  0  0  0
  4 15  2  0  0  0  0
  5 17  1  0  0  0  0
  6 19  1  0  0  0  0
  7 10  2  0  0  0  0
  7 18  1  0  0  0  0
  8 21  1  0  0  0  0
  9 21  2  0  0  0  0
 10 22  1  0  0  0  0
 11 12  2  0  0  0  0
 11 23  1  0  0  0  0
 12 24  1  0  0  0  0
 13 20  1  0  0  0  0
 13 22  2  0  0  0  0
 14 24  2  0  0  0  0
 14 25  1  0  0  0  0
 15 26  1  0  0  0  0
 16 26  1  0  0  0  0
 16 28  2  0  0  0  0
 16 31  1  0  0  0  0
 17 19  2  0  0  0  0
 17 37  1  0  0  0  0
 18 20  2  0  0  0  0
 18 38  1  0  0  0  0
 19 46  1  0  0  0  0
 20 39  1  0  0  0  0
 21 78  1  0  0  0  0
 22 79  1  0  0  0  0
 23 25  2  0  0  0  0
 23 78  1  0  0  0  0
 24 80  1  0  0  0  0
 25 81  1  0  0  0  0
 26 60  2  0  0  0  0
 27 29  2  0  0  0  0
 27 49  1  0  0  0  0
 27 61  1  0  0  0  0
 28 62  1  0  0  0  0
 28 65  1  0  0  0  0
 29 67  1  0  0  0  0
 29 82  1  0  0  0  0
 30 61  2  0  0  0  0
 30 68  1  0  0  0  0
 30 82  1  0  0  0  0
 31 66  1  0  0  0  0
 31 72  2  0  0  0  0
 32 47  1  0  0  0  0
 32 69  1  0  0  0  0
 32 73  2  0  0  0  0
 33 55  1  0  0  0  0
 33 56  1  0  0  0  0
 33 74  2  0  0  0  0
 34 57  1  0  0  0  0
 34 63  1  0  0  0  0
 34 75  2  0  0  0  0
 35 58  1  0  0  0  0
 35 70  1  0  0  0  0
 35 76  2  0  0  0  0
 36 64  1  0  0  0  0
 36 67  1  0  0  0  0
 36 77  2  0  0  0  0
 37 40  1  0  0  0  0
 38 47  1  0  0  0  0
 39 63  1  0  0  0  0
 40 42  1  0  0  0  0
 41 43  1  0  0  0  0
 41 44  1  0  0  0  0
 42 46  1  0  0  0  0
 43 48  1  0  0  0  0
 44 64  1  0  0  0  0
 45 48  1  0  0  0  0
 45 64  1  0  0  0  0
 46 69  1  0  0  0  0
 47 63  1  0  0  0  0
 48 62  1  0  0  0  0
 50 58  1  0  0  0  0
 51 59  1  0  0  0  0
 52 59  1  0  0  0  0
 53 59  1  0  0  0  0
 54 71  1  0  0  0  0
 55 68  1  0  0  0  0
 56 79  1  0  0  0  0
 57 59  1  0  0  0  0
 57 70  1  0  0  0  0
 58 71  1  0  0  0  0
 60 62  1  0  0  0  0
M  CHG  1  71   1
M  ISO  4  36 100  56 101  67 100  79 101
M  END
> <Batch ID>
0153

> <Smiles>
CNC(C)C(=O)NC(C(=O)N1Cc2cc([101O:1][101CH2:1]C(=O)CNc3nc(C)c([100NH:0][100C:0](=O)N4CCCC(n5nc(-c6ccc(Oc7ccc(F)cc7F)cc6)c(C(N)=O)c5N)C4)s3)ccc2CC1C(=O)NC1CCCc2ccccc21)C(C)(C)C

> <Shape>
0.317

> <Color>
0.153

> <Negative vol penalty>
0.000

$$$$

  -OEChem-04052303303D

 83 91  0     1  0  0  0  0  0999 V2000
  -21.7621  -12.5097   19.4281 C   0  0  0  0  0  0  0  0  0  0  0  0
  -21.6972  -13.8008   19.9421 C   0  0  0  0  0  0  0  0  0  0  0  0
  -26.1426  -30.0940   24.2318 C   0  0  0  0  0  0  0  0  0  0  0  0
  -24.4285  -29.9687   25.9298 C   0  0  0  0  0  0  0  0  0  0  0  0
  -22.9527  -11.7884   19.5065 C   0  0  0  0  0  0  0  0  0  0  0  0
  -22.8227  -14.3711   20.5358 C   0  0  0  0  0  0  0  0  0  0  0  0
  -23.5932  -19.1500   19.0479 C   0  0  0  0  0  0  0  0  0  0  0  0
  -26.6710  -31.2279   24.8488 C   0  0  0  0  0  0  0  0  0  0  0  0
  -24.9569  -31.1026   26.5469 C   0  0  0  0  0  0  0  0  0  0  0  0
  -22.7962  -20.1345   19.6302 C   0  0  0  0  0  0  0  0  0  0  0  0
  -28.2550  -34.3672   25.7759 C   0  0  0  0  0  0  0  0  0  0  0  0
  -28.6028  -35.4467   24.9639 C   0  0  0  0  0  0  0  0  0  0  0  0
  -18.4812  -25.1329   22.7684 C   0  0  0  0  0  0  0  0  0  0  0  0
  -24.6002  -20.7005   21.1283 C   0  0  0  0  0  0  0  0  0  0  0  0
  -26.3155  -35.6115   24.2033 C   0  0  0  0  0  0  0  0  0  0  0  0
  -25.0213  -29.4645   24.7722 C   0  0  0  0  0  0  0  0  0  0  0  0
  -18.1651  -26.4636   23.1679 C   0  0  0  0  0  0  0  0  0  0  0  0
  -24.8190  -26.9513   24.3838 C   0  0  0  0  0  0  0  0  0  0  0  0
  -24.0961  -12.3537   20.0928 C   0  0  0  0  0  0  0  0  0  0  0  0
  -24.8982  -18.9256   19.5095 C   0  0  0  0  0  0  0  0  0  0  0  0
  -24.0294  -13.6562   20.6233 C   0  0  0  0  0  0  0  0  0  0  0  0
  -25.4127  -19.7142   20.5484 C   0  0  0  0  0  0  0  0  0  0  0  0
  -26.0781  -31.7322   26.0063 C   0  0  0  0  0  0  0  0  0  0  0  0
  -23.2986  -20.9080   20.6725 C   0  0  0  0  0  0  0  0  0  0  0  0
  -26.9374  -33.9098   25.8016 C   0  0  0  0  0  0  0  0  0  0  0  0
  -27.6330  -36.0688   24.1776 C   0  0  0  0  0  0  0  0  0  0  0  0
  -25.9677  -34.5320   25.0153 C   0  0  0  0  0  0  0  0  0  0  0  0
  -24.4747  -28.2935   24.1350 C   0  0  0  0  0  0  0  0  0  0  0  0
  -24.0235  -26.2286   23.5286 C   0  0  0  0  0  0  0  0  0  0  0  0
  -18.2705  -24.2244   23.7822 C   0  0  0  0  0  0  0  0  0  0  0  0
  -17.7244  -26.5213   24.4720 C   0  0  0  0  0  0  0  0  0  0  0  0
  -18.2856  -27.6240   22.3216 C   0  0  0  0  0  0  0  0  0  0  0  0
  -25.7726  -26.4066   25.3056 C   0  0  0  0  0  0  0  0  0  0  0  0
  -18.7632  -27.5238   20.9233 C   0  0  0  0  0  0  0  0  0  0  0  0
  -26.4171  -16.4681   20.8353 C   0  0  0  0  0  0  0  0  0  0  0  0
  -20.4661  -22.3262   22.4412 C   0  0  0  0  0  0  0  0  0  0  0  0
  -29.0042  -18.3994   20.5203 C   0  0  0  0  0  0  0  0  0  0  0  0
  -30.2349  -21.5688   20.2257 C   0  0  0  0  0  0  0  0  0  0  0  0
  -25.3471  -11.5178   20.1971 C   0  0  0  0  0  0  0  0  0  0  0  0
  -25.7545  -17.8777   18.8528 C   0  0  0  0  0  0  0  0  0  0  0  0
  -26.8143  -19.5267   21.0670 C   0  0  0  0  0  0  0  0  0  0  0  0
  -26.6004  -12.3329   20.5057 C   0  0  0  0  0  0  0  0  0  0  0  0
  -21.8054  -26.5251   19.3096 C   0  0  0  0  0  0  0  0  0  0  0  0
  -26.3312  -13.3172   21.6395 C   0  0  0  0  0  0  0  0  0  0  0  0
  -22.8707  -26.7804   20.3753 C   0  0  0  0  0  0  0  0  0  0  0  0
  -20.6846  -27.5571   19.3820 C   0  0  0  0  0  0  0  0  0  0  0  0
  -21.1048  -27.9105   21.8001 C   0  0  0  0  0  0  0  0  0  0  0  0
  -25.2359  -14.3183   21.2526 C   0  0  1  0  0  0  0  0  0  0  0  0
  -26.8904  -17.3885   19.7460 C   0  0  1  0  0  0  0  0  0  0  0  0
  -22.2396  -26.8716   21.7761 C   0  0  2  0  0  0  0  0  0  0  0  0
  -32.3933  -22.8332   20.0248 C   0  0  0  0  0  0  0  0  0  0  0  0
  -29.5273  -17.9746   23.4962 C   0  0  0  0  0  0  0  0  0  0  0  0
  -31.0615  -19.9523   23.4377 C   0  0  0  0  0  0  0  0  0  0  0  0
  -31.5751  -17.9363   22.0612 C   0  0  0  0  0  0  0  0  0  0  0  0
  -29.4761  -22.6745   17.5874 C   0  0  0  0  0  0  0  0  0  0  0  0
  -18.9639  -22.1704   22.5469 C   0  0  0  0  0  0  0  0  0  0  0  0
  -21.1130  -21.6465   21.2501 C   0  0  0  0  0  0  0  0  0  1  0  0
  -29.6664  -19.4483   21.3808 C   0  0  1  0  0  0  0  0  0  0  0  0
  -31.2507  -22.1703   19.2712 C   0  0  2  0  0  0  0  0  0  0  0  0
  -30.4305  -18.8303   22.5857 C   0  0  0  0  0  0  0  0  0  0  0  0
  -23.5339  -28.4187   23.1952 N   0  0  0  0  0  0  0  0  0  0  0  0
  -17.9872  -28.8428   22.7077 N   0  0  0  0  0  0  0  0  0  0  0  0
  -23.2803  -27.1460   22.8459 N   0  0  0  0  0  0  0  0  0  0  0  0
  -20.1326  -27.6440   20.7325 N   0  0  0  0  0  0  0  0  0  0  0  0
  -27.6102  -18.4853   20.3966 N   0  0  0  0  0  0  0  0  0  0  0  0
  -23.8943  -24.9041   23.3015 N   0  0  0  0  0  0  0  0  0  0  0  0
  -17.3433  -27.6281   25.1605 N   0  0  0  0  0  0  0  0  0  0  0  0
  -26.5052  -27.2907   26.1093 N   0  0  0  0  0  0  0  0  0  0  0  0
  -18.4806  -22.8543   23.7190 N   0  0  0  0  0  0  0  0  0  0  0  0
  -25.7699  -15.3374   20.3746 N   0  0  0  0  0  0  0  0  0  0  0  0
  -30.5026  -20.2416   20.4864 N   0  0  0  0  0  0  0  0  0  0  0  0
  -30.6031  -23.1945   18.4037 N   0  3  0  0  0  0  0  0  0  0  0  0
  -25.9809  -25.1734   25.4016 O   0  0  0  0  0  0  0  0  0  0  0  0
  -17.8936  -27.3451   20.0806 O   0  0  0  0  0  0  0  0  0  0  0  0
  -26.6250  -16.7613   22.0068 O   0  0  0  0  0  0  0  0  0  0  0  0
  -21.1285  -22.9599   23.2619 O   0  0  0  0  0  0  0  0  0  0  0  0
  -29.6989  -17.5400   19.9722 O   0  0  0  0  0  0  0  0  0  0  0  0
  -29.2999  -22.2131   20.6960 O   0  0  0  0  0  0  0  0  0  0  0  0
  -26.5936  -32.8385   26.6089 O   0  0  0  0  0  0  0  0  0  0  0  0
  -22.5225  -21.8692   21.2431 O   0  0  0  0  0  0  0  0  0  1  0  0
  -27.9669  -37.1064   23.3991 F   0  0  0  0  0  0  0  0  0  0  0  0
  -24.7001  -34.0978   25.0367 F   0  0  0  0  0  0  0  0  0  0  0  0
  -17.6936  -24.9758   25.2087 S   0  0  0  0  0  0  0  0  0  0  0  0
  1  2  1  0  0  0  0
  1  5  2  0  0  0  0
  2  6  2  0  0  0  0
  3  8  2  0  0  0  0
  3 16  1  0  0  0  0
  4  9  1  0  0  0  0
  4 16  2  0  0  0  0
  5 19  1  0  0  0  0
  6 21  1  0  0  0  0
  7 10  2  0  0  0  0
  7 20  1  0  0  0  0
  8 23  1  0  0  0  0
  9 23  2  0  0  0  0
 10 24  1  0  0  0  0
 11 12  2  0  0  0  0
 11 25  1  0  0  0  0
 12 26  1  0  0  0  0
 13 17  1  0  0  0  0
 13 30  2  0  0  0  0
 14 22  1  0  0  0  0
 14 24  2  0  0  0  0
 15 26  2  0  0  0  0
 15 27  1  0  0  0  0
 16 28  1  0  0  0  0
 17 31  2  0  0  0  0
 17 32  1  0  0  0  0
 18 28  1  0  0  0  0
 18 29  2  0  0  0  0
 18 33  1  0  0  0  0
 19 21  2  0  0  0  0
 19 39  1  0  0  0  0
 20 22  2  0  0  0  0
 20 40  1  0  0  0  0
 21 48  1  0  0  0  0
 22 41  1  0  0  0  0
 23 79  1  0  0  0  0
 24 80  1  0  0  0  0
 25 27  2  0  0  0  0
 25 79  1  0  0  0  0
 26 81  1  0  0  0  0
 27 82  1  0  0  0  0
 28 61  2  0  0  0  0
 29 63  1  0  0  0  0
 29 66  1  0  0  0  0
 30 69  1  0  0  0  0
 30 83  1  0  0  0  0
 31 67  1  0  0  0  0
 31 83  1  0  0  0  0
 32 34  1  0  0  0  0
 32 62  2  0  0  0  0
 33 68  1  0  0  0  0
 33 73  2  0  0  0  0
 34 64  1  0  0  0  0
 34 74  2  0  0  0  0
 35 49  1  0  0  0  0
 35 70  1  0  0  0  0
 35 75  2  0  0  0  0
 36 56  1  0  0  0  0
 36 57  1  0  0  0  0
 36 76  2  0  0  0  0
 37 58  1  0  0  0  0
 37 65  1  0  0  0  0
 37 77  2  0  0  0  0
 38 59  1  0  0  0  0
 38 71  1  0  0  0  0
 38 78  2  0  0  0  0
 39 42  1  0  0  0  0
 40 49  1  0  0  0  0
 41 65  1  0  0  0  0
 42 44  1  0  0  0  0
 43 45  1  0  0  0  0
 43 46  1  0  0  0  0
 44 48  1  0  0  0  0
 45 50  1  0  0  0  0
 46 64  1  0  0  0  0
 47 50  1  0  0  0  0
 47 64  1  0  0  0  0
 48 70  1  0  0  0  0
 49 65  1  0  0  0  0
 50 63  1  0  0  0  0
 51 59  1  0  0  0  0
 52 60  1  0  0  0  0
 53 60  1  0  0  0  0
 54 60  1  0  0  0  0
 55 72  1  0  0  0  0
 56 69  1  0  0  0  0
 57 80  1  0  0  0  0
 58 60  1  0  0  0  0
 58 71  1  0  0  0  0
 59 72  1  0  0  0  0
 61 63  1  0  0  0  0
M  CHG  1  72   1
M  ISO  4  32 100  34 100  57 101  80 101
M  END
> <Batch ID>
0153

> <Smiles>
CNC(C)C(=O)NC(C(=O)N1Cc2cc([101O:1][101CH2:1]C(=O)CNc3cc([100C:0](=N)[100C:0](=O)N4CCCC(n5nc(-c6ccc(Oc7ccc(F)cc7F)cc6)c(C(N)=O)c5N)C4)c(N)s3)ccc2CC1C(=O)NC1CCCc2ccccc21)C(C)(C)C

> <Shape>
0.227

> <Color>
0.059

> <Negative vol penalty>
0.000

$$$$

  -OEChem-04052303303D

 83 91  0     1  0  0  0  0  0999 V2000
  -27.4373  -38.1692   22.0940 C   0  0  0  0  0  0  0  0  0  0  0  0
  -27.8644  -37.1487   21.2505 C   0  0  0  0  0  0  0  0  0  0  0  0
  -26.3694   -7.0255   21.3965 C   0  0  0  0  0  0  0  0  0  0  0  0
  -24.3591   -8.3606   21.5104 C   0  0  0  0  0  0  0  0  0  0  0  0
  -26.8638  -37.8591   23.3265 C   0  0  0  0  0  0  0  0  0  0  0  0
  -27.7193  -35.8175   21.6394 C   0  0  0  0  0  0  0  0  0  0  0  0
  -26.4895  -29.3075   18.9146 C   0  0  0  0  0  0  0  0  0  0  0  0
  -25.8641   -6.1803   22.3844 C   0  0  0  0  0  0  0  0  0  0  0  0
  -23.8537   -7.5155   22.4982 C   0  0  0  0  0  0  0  0  0  0  0  0
  -27.0191  -28.0179   18.9252 C   0  0  0  0  0  0  0  0  0  0  0  0
  -22.3812   -4.4781   22.6609 C   0  0  0  0  0  0  0  0  0  0  0  0
  -21.0530   -4.0685   22.5439 C   0  0  0  0  0  0  0  0  0  0  0  0
  -25.9419  -27.5994   21.0427 C   0  0  0  0  0  0  0  0  0  0  0  0
  -26.4366  -17.9594   20.1781 C   0  0  0  0  0  0  0  0  0  0  0  0
  -20.5500   -5.0908   24.6744 C   0  0  0  0  0  0  0  0  0  0  0  0
  -24.5878  -16.7131   20.2462 C   0  0  0  0  0  0  0  0  0  0  0  0
  -25.6169   -8.1157   20.9595 C   0  0  0  0  0  0  0  0  0  0  0  0
  -25.9756   -8.8629   18.5469 C   0  0  0  0  0  0  0  0  0  0  0  0
  -26.7028  -36.5232   23.7265 C   0  0  0  0  0  0  0  0  0  0  0  0
  -25.6898  -29.7573   19.9751 C   0  0  0  0  0  0  0  0  0  0  0  0
  -27.1444  -35.4893   22.8789 C   0  0  0  0  0  0  0  0  0  0  0  0
  -25.4013  -28.8943   21.0420 C   0  0  0  0  0  0  0  0  0  0  0  0
  -25.9602  -16.6272   20.2165 C   0  0  0  0  0  0  0  0  0  0  0  0
  -24.6062   -6.4253   22.9353 C   0  0  0  0  0  0  0  0  0  0  0  0
  -26.7477  -27.1646   19.9907 C   0  0  0  0  0  0  0  0  0  0  0  0
  -22.7939   -5.1940   23.7847 C   0  0  0  0  0  0  0  0  0  0  0  0
  -20.1374   -4.3748   23.5506 C   0  0  0  0  0  0  0  0  0  0  0  0
  -21.8783   -5.5004   24.7914 C   0  0  0  0  0  0  0  0  0  0  0  0
  -26.1387   -8.9894   19.9395 C   0  0  0  0  0  0  0  0  0  0  0  0
  -26.6565   -9.9344   18.0228 C   0  0  0  0  0  0  0  0  0  0  0  0
  -25.3213  -18.7644   20.1868 C   0  0  0  0  0  0  0  0  0  0  0  0
  -26.3925  -24.8533   20.0418 C   0  0  0  0  0  0  0  0  0  1  0  0
  -25.2714   -7.8661   17.7945 C   0  0  0  0  0  0  0  0  0  0  0  0
  -26.7897  -23.5756   20.0577 C   0  0  0  0  0  0  0  0  0  0  0  0
  -25.7607  -22.4896   20.1006 C   0  0  0  0  0  0  0  0  0  0  0  0
  -25.9194  -32.0853   22.1271 C   0  0  0  0  0  0  0  0  0  0  0  0
  -22.9208  -31.1273   22.9100 C   0  0  0  0  0  0  0  0  0  0  0  0
  -20.5826  -28.6414   22.9166 C   0  0  0  0  0  0  0  0  0  0  0  0
  -28.1066  -15.3086   20.1953 C   0  0  0  0  0  0  0  0  0  0  0  0
  -26.1206  -36.2384   25.0884 C   0  0  0  0  0  0  0  0  0  0  0  0
  -25.1042  -31.1422   19.9358 C   0  0  0  0  0  0  0  0  0  0  0  0
  -24.5317  -29.3220   22.1950 C   0  0  0  0  0  0  0  0  0  0  0  0
  -25.6606  -34.7935   25.2641 C   0  0  0  0  0  0  0  0  0  0  0  0
  -30.3490  -12.8404   18.9476 C   0  0  0  0  0  0  0  0  0  0  0  0
  -26.7254  -33.8283   24.7528 C   0  0  0  0  0  0  0  0  0  0  0  0
  -29.5071  -11.5625   18.9279 C   0  0  0  0  0  0  0  0  0  0  0  0
  -30.0169  -13.7199   20.1517 C   0  0  0  0  0  0  0  0  0  0  0  0
  -27.7511  -12.7631   20.2924 C   0  0  0  0  0  0  0  0  0  0  0  0
  -26.9814  -34.0325   23.2547 C   0  0  1  0  0  0  0  0  0  0  0  0
  -24.7247  -31.6698   21.3160 C   0  0  1  0  0  0  0  0  0  0  0  0
  -28.0040  -11.8758   19.0626 C   0  0  2  0  0  0  0  0  0  0  0  0
  -18.2381  -28.1442   23.6604 C   0  0  0  0  0  0  0  0  0  0  0  0
  -23.8945  -30.8545   25.7888 C   0  0  0  0  0  0  0  0  0  0  0  0
  -21.8551  -29.4860   26.2753 C   0  0  0  0  0  0  0  0  0  0  0  0
  -21.6174  -31.8605   25.5486 C   0  0  0  0  0  0  0  0  0  0  0  0
  -19.6875  -28.1293   20.1425 C   0  0  0  0  0  0  0  0  0  0  0  0
  -26.2815  -21.0663   20.1166 C   0  0  0  0  0  0  0  0  0  0  0  0
  -22.3373  -30.1156   23.8665 C   0  0  1  0  0  0  0  0  0  0  0  0
  -19.1171  -28.6359   22.5209 C   0  0  2  0  0  0  0  0  0  0  0  0
  -22.4441  -30.5714   25.3492 C   0  0  0  0  0  0  0  0  0  0  0  0
  -26.8663  -10.0569   20.2786 N   0  0  0  0  0  0  0  0  0  0  0  0
  -27.1665  -10.6110   19.0916 N   0  0  0  0  0  0  0  0  0  0  0  0
  -23.9877  -30.6876   22.1137 N   0  0  0  0  0  0  0  0  0  0  0  0
  -28.5766  -13.9783   20.2123 N   0  0  0  0  0  0  0  0  0  0  0  0
  -26.8629  -10.3544   16.7565 N   0  0  0  0  0  0  0  0  0  0  0  0
  -24.6268   -6.8347   18.4910 N   0  0  0  0  0  0  0  0  0  0  0  0
  -26.7177  -15.4298   20.2242 N   0  0  0  0  0  0  0  0  0  0  0  0
  -25.1748  -20.1432   20.1613 N   0  0  0  0  0  0  0  0  0  0  0  0
  -25.9263  -33.4229   22.4740 N   0  0  0  0  0  0  0  0  0  0  0  0
  -20.9726  -29.8665   23.4148 N   0  0  0  0  0  0  0  0  0  0  0  0
  -18.9016  -27.7474   21.3440 N   0  3  0  0  0  0  0  0  0  0  0  0
  -25.2294   -7.8801   16.5409 O   0  0  0  0  0  0  0  0  0  0  0  0
  -24.5595  -22.7526   20.1212 O   0  0  0  0  0  0  0  0  0  0  0  0
  -26.7711  -31.2536   22.4180 O   0  0  0  0  0  0  0  0  0  0  0  0
  -22.4428  -32.2635   22.8658 O   0  0  0  0  0  0  0  0  0  0  0  0
  -21.3079  -27.6561   22.7992 O   0  0  0  0  0  0  0  0  0  0  0  0
  -28.8785  -16.2688   20.1305 O   0  0  0  0  0  0  0  0  0  0  0  0
  -24.1902  -18.0124   20.2282 O   0  0  0  0  0  0  0  0  0  0  0  0
  -28.1173  -23.2061   20.0368 O   0  0  0  0  0  0  0  0  0  0  0  0
  -24.1127   -5.6006   23.8991 O   0  0  0  0  0  0  0  0  0  0  0  0
  -27.2638  -25.9055   20.0039 O   0  0  0  0  0  0  0  0  0  1  0  0
  -18.8616   -3.9828   23.4374 F   0  0  0  0  0  0  0  0  0  0  0  0
  -22.2685   -6.1890   25.8728 F   0  0  0  0  0  0  0  0  0  0  0  0
  1  2  1  0  0  0  0
  1  5  2  0  0  0  0
  2  6  2  0  0  0  0
  3  8  2  0  0  0  0
  3 17  1  0  0  0  0
  4  9  1  0  0  0  0
  4 17  2  0  0  0  0
  5 19  1  0  0  0  0
  6 21  1  0  0  0  0
  7 10  2  0  0  0  0
  7 20  1  0  0  0  0
  8 24  1  0  0  0  0
  9 24  2  0  0  0  0
 10 25  1  0  0  0  0
 11 12  2  0  0  0  0
 11 26  1  0  0  0  0
 12 27  1  0  0  0  0
 13 22  1  0  0  0  0
 13 25  2  0  0  0  0
 14 23  1  0  0  0  0
 14 31  2  0  0  0  0
 15 27  2  0  0  0  0
 15 28  1  0  0  0  0
 16 23  2  0  0  0  0
 16 78  1  0  0  0  0
 17 29  1  0  0  0  0
 18 29  1  0  0  0  0
 18 30  2  0  0  0  0
 18 33  1  0  0  0  0
 19 21  2  0  0  0  0
 19 40  1  0  0  0  0
 20 22  2  0  0  0  0
 20 41  1  0  0  0  0
 21 49  1  0  0  0  0
 22 42  1  0  0  0  0
 23 67  1  0  0  0  0
 24 80  1  0  0  0  0
 25 81  1  0  0  0  0
 26 28  2  0  0  0  0
 26 80  1  0  0  0  0
 27 82  1  0  0  0  0
 28 83  1  0  0  0  0
 29 61  2  0  0  0  0
 30 62  1  0  0  0  0
 30 65  1  0  0  0  0
 31 68  1  0  0  0  0
 31 78  1  0  0  0  0
 32 34  2  0  0  0  0
 32 81  1  0  0  0  0
 33 66  1  0  0  0  0
 33 72  2  0  0  0  0
 34 35  1  0  0  0  0
 34 79  1  0  0  0  0
 35 57  1  0  0  0  0
 35 73  2  0  0  0  0
 36 50  1  0  0  0  0
 36 69  1  0  0  0  0
 36 74  2  0  0  0  0
 37 58  1  0  0  0  0
 37 63  1  0  0  0  0
 37 75  2  0  0  0  0
 38 59  1  0  0  0  0
 38 70  1  0  0  0  0
 38 76  2  0  0  0  0
 39 64  1  0  0  0  0
 39 67  1  0  0  0  0
 39 77  2  0  0  0  0
 40 43  1  0  0  0  0
 41 50  1  0  0  0  0
 42 63  1  0  0  0  0
 43 45  1  0  0  0  0
 44 46  1  0  0  0  0
 44 47  1  0  0  0  0
 45 49  1  0  0  0  0
 46 51  1  0  0  0  0
 47 64  1  0  0  0  0
 48 51  1  0  0  0  0
 48 64  1  0  0  0  0
 49 69  1  0  0  0  0
 50 63  1  0  0  0  0
 51 62  1  0  0  0  0
 52 59  1  0  0  0  0
 53 60  1  0  0  0  0
 54 60  1  0  0  0  0
 55 60  1  0  0  0  0
 56 71  1  0  0  0  0
 57 68  1  0  0  0  0
 58 60  1  0  0  0  0
 58 70  1  0  0  0  0
 59 71  1  0  0  0  0
 61 62  1  0  0  0  0
M  CHG  1  71   1
M  ISO  4  32 101  39 100  67 100  81 101
M  END
> <Batch ID>
0153

> <Smiles>
CNC(C)C(=O)NC(C(=O)N1Cc2cc([101O:1][101CH2:1]C(=O)C(=O)CNc3cc([100NH:0][100C:0](=O)N4CCCC(n5nc(-c6ccc(Oc7ccc(F)cc7F)cc6)c(C(N)=O)c5N)C4)co3)ccc2CC1C(=O)NC1CCCc2ccccc21)C(C)(C)C

> <Shape>
0.260

> <Color>
0.082

> <Negative vol penalty>
0.000

$$$$

  -OEChem-04052303303D

 85 94  0     1  0  0  0  0  0999 V2000
  -29.0563  -32.9211   24.6555 C   0  0  0  0  0  0  0  0  0  0  0  0
  -29.3335  -31.5847   24.3861 C   0  0  0  0  0  0  0  0  0  0  0  0
  -23.1362   -9.8200   20.0270 C   0  0  0  0  0  0  0  0  0  0  0  0
  -23.8250   -9.9939   22.3362 C   0  0  0  0  0  0  0  0  0  0  0  0
  -27.7339  -33.3501   24.7605 C   0  0  0  0  0  0  0  0  0  0  0  0
  -28.2883  -30.6762   24.2226 C   0  0  0  0  0  0  0  0  0  0  0  0
  -28.9803  -27.6133   20.2496 C   0  0  0  0  0  0  0  0  0  0  0  0
  -22.4063   -8.6710   20.3312 C   0  0  0  0  0  0  0  0  0  0  0  0
  -23.0951   -8.8448   22.6404 C   0  0  0  0  0  0  0  0  0  0  0  0
  -29.8687  -26.5510   20.4117 C   0  0  0  0  0  0  0  0  0  0  0  0
  -19.8652   -8.0227   23.1994 C   0  0  0  0  0  0  0  0  0  0  0  0
  -19.0735   -8.0447   24.3476 C   0  0  0  0  0  0  0  0  0  0  0  0
  -28.0083  -25.0577   20.7694 C   0  0  0  0  0  0  0  0  0  0  0  0
  -31.7374  -17.6811   21.4528 C   0  0  0  0  0  0  0  0  0  0  0  0
  -20.3271   -6.1858   25.2476 C   0  0  0  0  0  0  0  0  0  0  0  0
  -29.6894  -18.0436   22.4903 C   0  0  0  0  0  0  0  0  0  0  0  0
  -23.8455  -10.4815   21.0296 C   0  0  0  0  0  0  0  0  0  0  0  0
  -24.1443  -12.9997   20.7518 C   0  0  0  0  0  0  0  0  0  0  0  0
  -26.6718  -32.4483   24.5886 C   0  0  0  0  0  0  0  0  0  0  0  0
  -27.5974  -27.4074   20.3572 C   0  0  0  0  0  0  0  0  0  0  0  0
  -26.9505  -31.0933   24.3267 C   0  0  0  0  0  0  0  0  0  0  0  0
  -27.1044  -26.1185   20.6057 C   0  0  0  0  0  0  0  0  0  0  0  0
  -30.4492  -17.1559   21.7608 C   0  0  0  0  0  0  0  0  0  0  0  0
  -22.3857   -8.1833   21.6379 C   0  0  0  0  0  0  0  0  0  0  0  0
  -29.3828  -25.2735   20.6745 C   0  0  0  0  0  0  0  0  0  0  0  0
  -20.8878   -7.0822   23.0753 C   0  0  0  0  0  0  0  0  0  0  0  0
  -19.3044   -7.1263   25.3717 C   0  0  0  0  0  0  0  0  0  0  0  0
  -21.1188   -6.1638   24.0994 C   0  0  0  0  0  0  0  0  0  0  0  0
  -24.6001  -11.6682   20.7159 C   0  0  0  0  0  0  0  0  0  0  0  0
  -31.9131  -18.9504   21.9586 C   0  0  0  0  0  0  0  0  0  0  0  0
  -25.2332  -13.7457   20.3718 C   0  0  0  0  0  0  0  0  0  0  0  0
  -32.1903  -22.4804   18.5755 C   0  0  0  0  0  0  0  0  0  0  0  0
  -31.9785  -22.9194   19.8275 C   0  0  0  0  0  0  0  0  0  0  0  0
  -22.8523  -13.5160   21.0979 C   0  0  0  0  0  0  0  0  0  0  0  0
  -25.3131  -28.4822   22.2885 C   0  0  0  0  0  0  0  0  0  0  0  0
  -23.3714  -26.8713   20.2496 C   0  0  0  0  0  0  0  0  0  0  0  0
  -23.0163  -24.3715   17.9536 C   0  0  0  0  0  0  0  0  0  0  0  0
  -30.6711  -14.9120   20.6373 C   0  0  0  0  0  0  0  0  0  0  0  0
  -25.2594  -32.9494   24.7582 C   0  0  0  0  0  0  0  0  0  0  0  0
  -26.6512  -28.5587   20.1532 C   0  0  0  0  0  0  0  0  0  0  0  0
  -25.6278  -25.8408   20.7105 C   0  0  0  0  0  0  0  0  0  0  0  0
  -32.6610  -21.0900   18.2636 C   0  0  0  0  0  0  0  0  0  0  0  0
  -32.2402  -22.0344   21.0146 C   0  0  0  0  0  0  0  0  0  0  0  0
  -24.2044  -31.9976   24.2002 C   0  0  0  0  0  0  0  0  0  0  0  0
  -29.6748  -12.3248   18.4034 C   0  0  0  0  0  0  0  0  0  0  0  0
  -24.4875  -30.5665   24.6457 C   0  0  0  0  0  0  0  0  0  0  0  0
  -28.2283  -12.0328   18.8088 C   0  0  0  0  0  0  0  0  0  0  0  0
  -30.5482  -12.6511   19.6136 C   0  0  0  0  0  0  0  0  0  0  0  0
  -28.5866  -13.4261   20.8867 C   0  0  0  0  0  0  0  0  0  0  0  0
  -32.5389  -20.1206   19.4368 C   0  0  0  0  0  0  0  0  0  0  0  0
  -25.8436  -30.0825   24.1184 C   0  0  1  0  0  0  0  0  0  0  0  0
  -25.2856  -28.3305   20.7939 C   0  0  1  0  0  0  0  0  0  0  0  0
  -27.6538  -13.1556   19.6948 C   0  0  2  0  0  0  0  0  0  0  0  0
  -34.4295  -19.0601   21.7385 C   0  0  0  0  0  0  0  0  0  0  0  0
  -21.3015  -23.2717   16.4882 C   0  0  0  0  0  0  0  0  0  0  0  0
  -22.2190  -25.4333   22.6814 C   0  0  0  0  0  0  0  0  0  0  0  0
  -21.2441  -23.7310   21.1258 C   0  0  0  0  0  0  0  0  0  0  0  0
  -20.5249  -26.1147   20.9726 C   0  0  0  0  0  0  0  0  0  0  0  0
  -24.4947  -25.0842   15.4908 C   0  0  0  0  0  0  0  0  0  0  0  0
  -31.4819  -24.3025   20.1206 C   0  0  0  0  0  0  0  0  0  1  0  0
  -33.1257  -19.8461   21.8521 C   0  0  1  0  0  0  0  0  0  0  0  0
  -22.8334  -25.4629   20.1739 C   0  0  1  0  0  0  0  0  0  0  0  0
  -22.3704  -24.3496   16.5800 C   0  0  2  0  0  0  0  0  0  0  0  0
  -21.7333  -25.1907   21.2384 C   0  0  0  0  0  0  0  0  0  0  0  0
  -25.8788  -11.5708   20.3423 N   0  0  0  0  0  0  0  0  0  0  0  0
  -26.2358  -12.8506   20.1400 N   0  0  0  0  0  0  0  0  0  0  0  0
  -24.7431  -27.0004   20.5097 N   0  0  0  0  0  0  0  0  0  0  0  0
  -29.9435  -13.7260   20.4034 N   0  0  0  0  0  0  0  0  0  0  0  0
  -25.4211  -15.0734   20.2165 N   0  0  0  0  0  0  0  0  0  0  0  0
  -21.8474  -12.6105   21.4650 N   0  0  0  0  0  0  0  0  0  0  0  0
  -29.9820  -15.8757   21.3728 N   0  0  0  0  0  0  0  0  0  0  0  0
  -25.7430  -29.7225   22.7203 N   0  0  0  0  0  0  0  0  0  0  0  0
  -22.3935  -25.2673   18.7967 N   0  0  0  0  0  0  0  0  0  0  0  0
  -33.0477  -20.7912   20.6874 N   0  3  2  0  0  0  0  0  0  0  0  0
  -23.3947  -24.0865   15.5300 N   0  3  0  0  0  0  0  0  0  0  0  0
  -22.5918  -14.7426   21.0662 O   0  0  0  0  0  0  0  0  0  0  0  0
  -24.9682  -27.5441   22.9975 O   0  0  0  0  0  0  0  0  0  0  0  0
  -22.6044  -27.8218   20.0769 O   0  0  0  0  0  0  0  0  0  0  0  0
  -23.9750  -23.6618   18.2502 O   0  0  0  0  0  0  0  0  0  0  0  0
  -31.8108  -15.0725   20.1930 O   0  0  0  0  0  0  0  0  0  0  0  0
  -21.6735   -7.0622   21.9351 O   0  0  0  0  0  0  0  0  0  0  0  0
  -30.2478  -24.2351   20.8337 O   0  0  0  0  0  0  0  0  0  1  0  0
  -18.5451   -7.1485   26.4749 F   0  0  0  0  0  0  0  0  0  0  0  0
  -22.1006   -5.2587   23.9864 F   0  0  0  0  0  0  0  0  0  0  0  0
  -30.5287  -19.5036   22.8010 S   0  0  0  0  0  0  0  0  0  0  0  0
  1  2  1  0  0  0  0
  1  5  2  0  0  0  0
  2  6  2  0  0  0  0
  3  8  2  0  0  0  0
  3 17  1  0  0  0  0
  4  9  1  0  0  0  0
  4 17  2  0  0  0  0
  5 19  1  0  0  0  0
  6 21  1  0  0  0  0
  7 10  2  0  0  0  0
  7 20  1  0  0  0  0
  8 24  1  0  0  0  0
  9 24  2  0  0  0  0
 10 25  1  0  0  0  0
 11 12  2  0  0  0  0
 11 26  1  0  0  0  0
 12 27  1  0  0  0  0
 13 22  1  0  0  0  0
 13 25  2  0  0  0  0
 14 23  1  0  0  0  0
 14 30  2  0  0  0  0
 15 27  2  0  0  0  0
 15 28  1  0  0  0  0
 16 23  2  0  0  0  0
 16 85  1  0  0  0  0
 17 29  1  0  0  0  0
 18 29  1  0  0  0  0
 18 31  2  0  0  0  0
 18 34  1  0  0  0  0
 19 21  2  0  0  0  0
 19 39  1  0  0  0  0
 20 22  2  0  0  0  0
 20 40  1  0  0  0  0
 21 51  1  0  0  0  0
 22 41  1  0  0  0  0
 23 71  1  0  0  0  0
 24 81  1  0  0  0  0
 25 82  1  0  0  0  0
 26 28  2  0  0  0  0
 26 81  1  0  0  0  0
 27 83  1  0  0  0  0
 28 84  1  0  0  0  0
 29 65  2  0  0  0  0
 30 61  1  0  0  0  0
 30 85  1  0  0  0  0
 31 66  1  0  0  0  0
 31 69  1  0  0  0  0
 32 33  2  0  0  0  0
 32 42  1  0  0  0  0
 33 43  1  0  0  0  0
 33 60  1  0  0  0  0
 34 70  1  0  0  0  0
 34 76  2  0  0  0  0
 35 52  1  0  0  0  0
 35 72  1  0  0  0  0
 35 77  2  0  0  0  0
 36 62  1  0  0  0  0
 36 67  1  0  0  0  0
 36 78  2  0  0  0  0
 37 63  1  0  0  0  0
 37 73  1  0  0  0  0
 37 79  2  0  0  0  0
 38 68  1  0  0  0  0
 38 71  1  0  0  0  0
 38 80  2  0  0  0  0
 39 44  1  0  0  0  0
 40 52  1  0  0  0  0
 41 67  1  0  0  0  0
 42 50  1  0  0  0  0
 43 74  1  0  0  0  0
 44 46  1  0  0  0  0
 45 47  1  0  0  0  0
 45 48  1  0  0  0  0
 46 51  1  0  0  0  0
 47 53  1  0  0  0  0
 48 68  1  0  0  0  0
 49 53  1  0  0  0  0
 49 68  1  0  0  0  0
 50 74  1  0  0  0  0
 51 72  1  0  0  0  0
 52 67  1  0  0  0  0
 53 66  1  0  0  0  0
 54 61  1  0  0  0  0
 55 63  1  0  0  0  0
 56 64  1  0  0  0  0
 57 64  1  0  0  0  0
 58 64  1  0  0  0  0
 59 75  1  0  0  0  0
 60 82  1  0  0  0  0
 61 74  1  0  0  0  0
 62 64  1  0  0  0  0
 62 73  1  0  0  0  0
 63 75  1  0  0  0  0
 65 66  1  0  0  0  0
M  CHG  2  74   1  75   1
M  ISO  4  38 100  60 101  71 100  82 101
M  END
> <Batch ID>
0153

> <Smiles>
CNC(C)C(=O)NC(C(=O)N1Cc2cc([101O:1][101CH2:1]C3=CCCN(C(C)c4cc([100NH:0][100C:0](=O)N5CCCC(n6nc(-c7ccc(Oc8ccc(F)cc8F)cc7)c(C(N)=O)c6N)C5)cs4)C3)ccc2CC1C(=O)NC1CCCc2ccccc21)C(C)(C)C

> <Shape>
0.309

> <Color>
0.191

> <Negative vol penalty>
0.000

$$$$

  -OEChem-04052303303D

 82 90  0     1  0  0  0  0  0999 V2000
  -23.3096  -35.5457   18.3595 C   0  0  0  0  0  0  0  0  0  0  0  0
  -24.4578  -34.9003   17.9116 C   0  0  0  0  0  0  0  0  0  0  0  0
  -24.4084   -9.6565   20.7470 C   0  0  0  0  0  0  0  0  0  0  0  0
  -25.0434  -10.4160   22.9509 C   0  0  0  0  0  0  0  0  0  0  0  0
  -22.7372  -35.1821   19.5777 C   0  0  0  0  0  0  0  0  0  0  0  0
  -25.0348  -33.8916   18.6823 C   0  0  0  0  0  0  0  0  0  0  0  0
  -28.6545  -27.7446   18.0277 C   0  0  0  0  0  0  0  0  0  0  0  0
  -24.1718   -8.3793   21.2553 C   0  0  0  0  0  0  0  0  0  0  0  0
  -24.8067   -9.1388   23.4592 C   0  0  0  0  0  0  0  0  0  0  0  0
  -29.8197  -27.1273   18.4806 C   0  0  0  0  0  0  0  0  0  0  0  0
  -22.1379   -7.2812   24.3797 C   0  0  0  0  0  0  0  0  0  0  0  0
  -21.4270   -7.1829   25.5757 C   0  0  0  0  0  0  0  0  0  0  0  0
  -28.6984  -26.5287   20.5309 C   0  0  0  0  0  0  0  0  0  0  0  0
  -28.0624  -21.4752   21.4038 C   0  0  0  0  0  0  0  0  0  0  0  0
  -23.3105   -6.0727   26.6040 C   0  0  0  0  0  0  0  0  0  0  0  0
  -24.8443  -10.6749   21.5948 C   0  0  0  0  0  0  0  0  0  0  0  0
  -24.1683  -13.0542   20.9705 C   0  0  0  0  0  0  0  0  0  0  0  0
  -23.3020  -34.1619   20.3592 C   0  0  0  0  0  0  0  0  0  0  0  0
  -27.5039  -27.7681   18.8289 C   0  0  0  0  0  0  0  0  0  0  0  0
  -24.4702  -33.5150   19.9128 C   0  0  0  0  0  0  0  0  0  0  0  0
  -27.5191  -27.1447   20.0848 C   0  0  0  0  0  0  0  0  0  0  0  0
  -27.5668  -20.1570   21.5458 C   0  0  0  0  0  0  0  0  0  0  0  0
  -24.3709   -8.1205   22.6114 C   0  0  0  0  0  0  0  0  0  0  0  0
  -29.8426  -26.5217   19.7336 C   0  0  0  0  0  0  0  0  0  0  0  0
  -23.4351   -6.7753   24.2957 C   0  0  0  0  0  0  0  0  0  0  0  0
  -22.0132   -6.5787   26.6879 C   0  0  0  0  0  0  0  0  0  0  0  0
  -24.0213   -6.1711   25.4079 C   0  0  0  0  0  0  0  0  0  0  0  0
  -25.0895  -11.9943   21.0702 C   0  0  0  0  0  0  0  0  0  0  0  0
  -24.8868  -14.0819   20.4102 C   0  0  0  0  0  0  0  0  0  0  0  0
  -29.2401  -21.3670   20.7015 C   0  0  0  0  0  0  0  0  0  0  0  0
  -28.4769  -19.3373   20.9198 C   0  0  0  0  0  0  0  0  0  0  0  0
  -22.7868  -13.1051   21.3505 C   0  0  0  0  0  0  0  0  0  0  0  0
  -25.7449  -30.0558   20.1617 C   0  0  0  0  0  0  0  0  0  0  0  0
  -23.8211  -27.5701   20.9634 C   0  0  0  0  0  0  0  0  0  0  0  0
  -23.5066  -24.2241   21.5570 C   0  0  0  0  0  0  0  0  0  0  0  0
  -29.4945  -17.1908   20.0813 C   0  0  0  0  0  0  0  0  0  0  0  0
  -22.6746  -33.8361   21.6914 C   0  0  0  0  0  0  0  0  0  0  0  0
  -26.2469  -28.4148   18.3148 C   0  0  0  0  0  0  0  0  0  0  0  0
  -26.3044  -27.1246   20.9750 C   0  0  0  0  0  0  0  0  0  0  0  0
  -23.1337  -32.5004   22.2705 C   0  0  0  0  0  0  0  0  0  0  0  0
  -29.4823  -14.1146   18.2884 C   0  0  0  0  0  0  0  0  0  0  0  0
  -24.6501  -32.3682   22.1707 C   0  0  0  0  0  0  0  0  0  0  0  0
  -28.2626  -13.3759   18.8441 C   0  0  0  0  0  0  0  0  0  0  0  0
  -30.2016  -14.9167   19.3715 C   0  0  0  0  0  0  0  0  0  0  0  0
  -28.1276  -15.0983   20.6886 C   0  0  0  0  0  0  0  0  0  0  0  0
  -25.1115  -32.3989   20.7086 C   0  0  1  0  0  0  0  0  0  0  0  0
  -25.2884  -28.8266   19.4279 C   0  0  1  0  0  0  0  0  0  0  0  0
  -27.3328  -14.3283   19.6213 C   0  0  2  0  0  0  0  0  0  0  0  0
  -26.3244  -19.7529   22.2295 C   0  0  0  0  0  0  0  0  0  0  0  0
  -21.8192  -22.4930   22.2302 C   0  0  0  0  0  0  0  0  0  0  0  0
  -23.9825  -28.5395   23.8520 C   0  0  0  0  0  0  0  0  0  0  0  0
  -23.1105  -26.3072   24.5765 C   0  0  0  0  0  0  0  0  0  0  0  0
  -21.7107  -27.7818   23.1312 C   0  0  0  0  0  0  0  0  0  0  0  0
  -32.4833  -24.1049   20.4729 C   0  0  0  0  0  0  0  0  0  0  0  0
  -31.1897  -24.3770   18.3461 C   0  0  0  0  0  0  0  0  0  0  0  0
  -23.8428  -22.7415   19.0178 C   0  0  0  0  0  0  0  0  0  0  0  0
  -30.0046  -23.7348   20.5157 C   0  0  0  0  0  0  0  0  0  0  0  0
  -23.7277  -26.6259   22.1376 C   0  0  1  0  0  0  0  0  0  0  0  0
  -22.4932  -23.2052   21.0678 C   0  0  2  0  0  0  0  0  0  0  0  0
  -23.1565  -27.3155   23.4086 C   0  0  0  0  0  0  0  0  0  0  0  0
  -31.1446  -24.5361   19.8681 C   0  0  0  0  0  0  0  0  0  1  0  0
  -26.3006  -12.3187   20.6100 N   0  0  0  0  0  0  0  0  0  0  0  0
  -26.1455  -13.5941   20.2156 N   0  0  0  0  0  0  0  0  0  0  0  0
  -25.1015  -27.7757   20.4303 N   0  0  0  0  0  0  0  0  0  0  0  0
  -29.2592  -15.7997   20.0623 N   0  0  0  0  0  0  0  0  0  0  0  0
  -24.5584  -15.3463   20.0699 N   0  0  0  0  0  0  0  0  0  0  0  0
  -22.2055  -11.9600   21.9118 N   0  0  0  0  0  0  0  0  0  0  0  0
  -28.5141  -17.9324   20.7396 N   0  0  0  0  0  0  0  0  0  0  0  0
  -30.1513  -22.3171   20.2727 N   0  0  0  0  0  0  0  0  0  0  0  0
  -24.8686  -31.1206   20.0750 N   0  0  0  0  0  0  0  0  0  0  0  0
  -22.9502  -25.4798   21.6790 N   0  0  0  0  0  0  0  0  0  0  0  0
  -23.1588  -22.1824   20.2122 N   0  3  0  0  0  0  0  0  0  0  0  0
  -22.0841  -14.1304   21.1817 O   0  0  0  0  0  0  0  0  0  0  0  0
  -26.8124  -30.0388   20.7633 O   0  0  0  0  0  0  0  0  0  0  0  0
  -22.7948  -28.1000   20.5304 O   0  0  0  0  0  0  0  0  0  0  0  0
  -24.6740  -23.9343   21.8096 O   0  0  0  0  0  0  0  0  0  0  0  0
  -30.4781  -17.6902   19.5290 O   0  0  0  0  0  0  0  0  0  0  0  0
  -29.4999  -20.0671   20.4026 O   0  0  0  0  0  0  0  0  0  0  0  0
  -24.1398   -6.8744   23.1078 O   0  0  0  0  0  0  0  0  0  0  0  0
  -30.9788  -25.9191   20.1783 O   0  0  0  0  0  0  0  0  0  1  0  0
  -21.3310   -6.4857   27.8368 F   0  0  0  0  0  0  0  0  0  0  0  0
  -25.2677   -5.6842   25.3336 F   0  0  0  0  0  0  0  0  0  0  0  0
  1  2  1  0  0  0  0
  1  5  2  0  0  0  0
  2  6  2  0  0  0  0
  3  8  2  0  0  0  0
  3 16  1  0  0  0  0
  4  9  1  0  0  0  0
  4 16  2  0  0  0  0
  5 18  1  0  0  0  0
  6 20  1  0  0  0  0
  7 10  2  0  0  0  0
  7 19  1  0  0  0  0
  8 23  1  0  0  0  0
  9 23  2  0  0  0  0
 10 24  1  0  0  0  0
 11 12  2  0  0  0  0
 11 25  1  0  0  0  0
 12 26  1  0  0  0  0
 13 21  1  0  0  0  0
 13 24  2  0  0  0  0
 14 22  1  0  0  0  0
 14 30  2  0  0  0  0
 15 26  2  0  0  0  0
 15 27  1  0  0  0  0
 16 28  1  0  0  0  0
 17 28  1  0  0  0  0
 17 29  2  0  0  0  0
 17 32  1  0  0  0  0
 18 20  2  0  0  0  0
 18 37  1  0  0  0  0
 19 21  2  0  0  0  0
 19 38  1  0  0  0  0
 20 46  1  0  0  0  0
 21 39  1  0  0  0  0
 22 31  2  0  0  0  0
 22 49  1  0  0  0  0
 23 79  1  0  0  0  0
 24 80  1  0  0  0  0
 25 27  2  0  0  0  0
 25 79  1  0  0  0  0
 26 81  1  0  0  0  0
 27 82  1  0  0  0  0
 28 62  2  0  0  0  0
 29 63  1  0  0  0  0
 29 66  1  0  0  0  0
 30 69  1  0  0  0  0
 30 78  1  0  0  0  0
 31 68  1  0  0  0  0
 31 78  1  0  0  0  0
 32 67  1  0  0  0  0
 32 73  2  0  0  0  0
 33 47  1  0  0  0  0
 33 70  1  0  0  0  0
 33 74  2  0  0  0  0
 34 58  1  0  0  0  0
 34 64  1  0  0  0  0
 34 75  2  0  0  0  0
 35 59  1  0  0  0  0
 35 71  1  0  0  0  0
 35 76  2  0  0  0  0
 36 65  1  0  0  0  0
 36 68  1  0  0  0  0
 36 77  2  0  0  0  0
 37 40  1  0  0  0  0
 38 47  1  0  0  0  0
 39 64  1  0  0  0  0
 40 42  1  0  0  0  0
 41 43  1  0  0  0  0
 41 44  1  0  0  0  0
 42 46  1  0  0  0  0
 43 48  1  0  0  0  0
 44 65  1  0  0  0  0
 45 48  1  0  0  0  0
 45 65  1  0  0  0  0
 46 70  1  0  0  0  0
 47 64  1  0  0  0  0
 48 63  1  0  0  0  0
 50 59  1  0  0  0  0
 51 60  1  0  0  0  0
 52 60  1  0  0  0  0
 53 60  1  0  0  0  0
 54 61  1  0  0  0  0
 55 61  1  0  0  0  0
 56 72  1  0  0  0  0
 57 61  1  0  0  0  0
 57 69  1  0  0  0  0
 58 60  1  0  0  0  0
 58 71  1  0  0  0  0
 59 72  1  0  0  0  0
 61 80  1  0  0  0  0
 62 63  1  0  0  0  0
M  CHG  1  72   1
M  ISO  4  36 100  61 101  68 100  80 101
M  END
> <Batch ID>
0153

> <Smiles>
CNC(C)C(=O)NC(C(=O)N1Cc2cc([101O:1][101C:1](C)(C)CNc3cc(C)c([100NH:0][100C:0](=O)N4CCCC(n5nc(-c6ccc(Oc7ccc(F)cc7F)cc6)c(C(N)=O)c5N)C4)o3)ccc2CC1C(=O)NC1CCCc2ccccc21)C(C)(C)C

> <Shape>
0.262

> <Color>
0.117

> <Negative vol penalty>
0.000

$$$$

  -OEChem-04052303303D

 84 93  0     1  0  0  0  0  0999 V2000
  -28.1671  -29.7369   27.8982 C   0  0  0  0  0  0  0  0  0  0  0  0
  -28.0328  -28.9385   26.7669 C   0  0  0  0  0  0  0  0  0  0  0  0
  -24.7000   -8.5023   21.4132 C   0  0  0  0  0  0  0  0  0  0  0  0
  -23.0399  -10.2553   21.3227 C   0  0  0  0  0  0  0  0  0  0  0  0
  -27.1046  -30.5376   28.3151 C   0  0  0  0  0  0  0  0  0  0  0  0
  -26.8354  -28.9396   26.0523 C   0  0  0  0  0  0  0  0  0  0  0  0
  -27.5602  -29.2022   21.0472 C   0  0  0  0  0  0  0  0  0  0  0  0
  -23.9475   -7.8396   22.3828 C   0  0  0  0  0  0  0  0  0  0  0  0
  -22.2873   -9.5926   22.2923 C   0  0  0  0  0  0  0  0  0  0  0  0
  -27.9392  -28.0290   20.3963 C   0  0  0  0  0  0  0  0  0  0  0  0
  -21.2046   -5.8651   22.4879 C   0  0  0  0  0  0  0  0  0  0  0  0
  -21.0283   -4.4891   22.3431 C   0  0  0  0  0  0  0  0  0  0  0  0
  -25.6606  -27.6995   19.6763 C   0  0  0  0  0  0  0  0  0  0  0  0
  -27.2404  -19.0790   19.8621 C   0  0  0  0  0  0  0  0  0  0  0  0
  -22.1079   -4.1265   24.4739 C   0  0  0  0  0  0  0  0  0  0  0  0
  -24.2463   -9.7102   20.8832 C   0  0  0  0  0  0  0  0  0  0  0  0
  -24.9364  -10.2412   18.4854 C   0  0  0  0  0  0  0  0  0  0  0  0
  -25.8969  -30.5558   27.5997 C   0  0  0  0  0  0  0  0  0  0  0  0
  -26.2242  -29.6278   21.0267 C   0  0  0  0  0  0  0  0  0  0  0  0
  -25.7552  -29.7403   26.4607 C   0  0  0  0  0  0  0  0  0  0  0  0
  -25.2677  -28.8798   20.3255 C   0  0  0  0  0  0  0  0  0  0  0  0
  -26.3639  -20.1967   19.7491 C   0  0  0  0  0  0  0  0  0  0  0  0
  -22.7411   -8.3848   22.8224 C   0  0  0  0  0  0  0  0  0  0  0  0
  -26.9888  -27.2759   19.7132 C   0  0  0  0  0  0  0  0  0  0  0  0
  -21.8327   -6.3719   23.6257 C   0  0  0  0  0  0  0  0  0  0  0  0
  -21.4798   -3.6197   23.3361 C   0  0  0  0  0  0  0  0  0  0  0  0
  -22.2843   -5.5025   24.6186 C   0  0  0  0  0  0  0  0  0  0  0  0
  -25.0235  -10.3954   19.8820 C   0  0  0  0  0  0  0  0  0  0  0  0
  -25.0409  -19.8152   19.7117 C   0  0  0  0  0  0  0  0  0  0  0  0
  -25.8774  -11.1076   17.9849 C   0  0  0  0  0  0  0  0  0  0  0  0
  -26.5536  -17.8856   19.9070 C   0  0  0  0  0  0  0  0  0  0  0  0
  -24.0814   -9.3908   17.7099 C   0  0  0  0  0  0  0  0  0  0  0  0
  -23.9916  -30.1171   23.2357 C   0  0  0  0  0  0  0  0  0  0  0  0
  -22.3015  -31.2627   20.7152 C   0  0  0  0  0  0  0  0  0  0  0  0
  -21.7954  -31.2943   17.3403 C   0  0  0  0  0  0  0  0  0  0  0  0
  -28.3430  -16.1229   20.0999 C   0  0  0  0  0  0  0  0  0  0  0  0
  -24.7600  -31.4018   28.1160 C   0  0  0  0  0  0  0  0  0  0  0  0
  -25.8365  -30.9098   21.7113 C   0  0  0  0  0  0  0  0  0  0  0  0
  -23.8242  -29.3041   20.2562 C   0  0  0  0  0  0  0  0  0  0  0  0
  -23.6543  -31.6289   27.0883 C   0  0  0  0  0  0  0  0  0  0  0  0
  -30.0542  -13.1602   19.1141 C   0  0  0  0  0  0  0  0  0  0  0  0
  -23.2834  -30.3169   26.4044 C   0  0  0  0  0  0  0  0  0  0  0  0
  -28.9493  -12.1023   19.0662 C   0  0  0  0  0  0  0  0  0  0  0  0
  -27.9172  -23.5108   20.2074 C   0  0  0  0  0  0  0  0  0  0  0  0
  -29.8436  -14.1486   20.2597 C   0  0  0  0  0  0  0  0  0  0  0  0
  -28.0189  -21.9899   20.3175 C   0  0  0  0  0  0  0  0  0  0  0  0
  -27.4163  -13.7280   20.2468 C   0  0  0  0  0  0  0  0  0  0  0  0
  -26.0697  -22.5755   19.0011 C   0  0  0  0  0  0  0  0  0  0  0  0
  -24.4807  -29.7329   25.6449 C   0  0  1  0  0  0  0  0  0  0  0  0
  -24.3523  -30.9770   22.0576 C   0  0  1  0  0  0  0  0  0  0  0  0
  -27.5500  -12.7484   19.0694 C   0  0  2  0  0  0  0  0  0  0  0  0
  -27.0771  -23.7421   18.9428 C   0  0  2  0  0  0  0  0  0  0  0  0
  -23.8295  -20.6601   19.6008 C   0  0  0  0  0  0  0  0  0  0  0  0
  -27.9478  -23.6506   17.6781 C   0  0  0  0  0  0  0  0  0  0  0  0
  -20.3158  -32.2983   15.5796 C   0  0  0  0  0  0  0  0  0  0  0  0
  -20.0663  -29.3398   21.5004 C   0  0  0  0  0  0  0  0  0  0  0  0
  -19.0656  -29.6868   19.2318 C   0  0  0  0  0  0  0  0  0  0  0  0
  -19.2900  -31.6122   20.8019 C   0  0  0  0  0  0  0  0  0  0  0  0
  -24.0804  -32.6321   16.0183 C   0  0  0  0  0  0  0  0  0  0  0  0
  -26.3736  -25.0999   18.9766 C   0  0  0  0  0  0  0  0  0  1  0  0
  -21.3584  -30.6641   19.6996 C   0  0  1  0  0  0  0  0  0  0  0  0
  -21.6137  -32.4388   16.3597 C   0  0  2  0  0  0  0  0  0  0  0  0
  -19.9719  -30.3165   20.3112 C   0  0  0  0  0  0  0  0  0  0  0  0
  -25.9470  -11.2894   20.2454 N   0  0  0  0  0  0  0  0  0  0  0  0
  -26.4488  -11.7046   19.0699 N   0  0  0  0  0  0  0  0  0  0  0  0
  -26.7962  -21.5049   19.6843 N   0  0  3  0  0  0  0  0  0  0  0  0
  -23.4933  -30.5616   20.9468 N   0  0  0  0  0  0  0  0  0  0  0  0
  -28.4983  -14.7238   20.1959 N   0  0  0  0  0  0  0  0  0  0  0  0
  -26.2635  -11.4093   16.7270 N   0  0  0  0  0  0  0  0  0  0  0  0
  -23.1724   -8.5637   18.3837 N   0  0  0  0  0  0  0  0  0  0  0  0
  -27.0188  -16.5514   20.0129 N   0  0  0  0  0  0  0  0  0  0  0  0
  -24.6760  -30.4335   24.3937 N   0  0  0  0  0  0  0  0  0  0  0  0
  -21.3018  -31.6083   18.5889 N   0  0  0  0  0  0  0  0  0  0  0  0
  -22.7440  -32.4736   15.3891 N   0  3  0  0  0  0  0  0  0  0  0  0
  -24.1337   -9.3531   16.4571 O   0  0  0  0  0  0  0  0  0  0  0  0
  -23.1534  -29.2329   23.1043 O   0  0  0  0  0  0  0  0  0  0  0  0
  -21.9952  -32.3174   21.2769 O   0  0  0  0  0  0  0  0  0  0  0  0
  -22.3192  -30.2270   17.0288 O   0  0  0  0  0  0  0  0  0  0  0  0
  -29.3142  -16.8829   20.0678 O   0  0  0  0  0  0  0  0  0  0  0  0
  -22.0064   -7.7383   23.7683 O   0  0  0  0  0  0  0  0  0  0  0  0
  -27.3560  -26.1300   19.0775 O   0  0  0  0  0  0  0  0  0  1  0  0
  -21.3090   -2.2984   23.1976 F   0  0  0  0  0  0  0  0  0  0  0  0
  -22.8873   -5.9835   25.7144 F   0  0  0  0  0  0  0  0  0  0  0  0
  -24.8593  -18.1154   19.8128 S   0  0  0  0  0  0  0  0  0  0  0  0
  1  2  1  0  0  0  0
  1  5  2  0  0  0  0
  2  6  2  0  0  0  0
  3  8  2  0  0  0  0
  3 16  1  0  0  0  0
  4  9  1  0  0  0  0
  4 16  2  0  0  0  0
  5 18  1  0  0  0  0
  6 20  1  0  0  0  0
  7 10  2  0  0  0  0
  7 19  1  0  0  0  0
  8 23  1  0  0  0  0
  9 23  2  0  0  0  0
 10 24  1  0  0  0  0
 11 12  2  0  0  0  0
 11 25  1  0  0  0  0
 12 26  1  0  0  0  0
 13 21  1  0  0  0  0
 13 24  2  0  0  0  0
 14 22  1  0  0  0  0
 14 31  2  0  0  0  0
 15 26  2  0  0  0  0
 15 27  1  0  0  0  0
 16 28  1  0  0  0  0
 17 28  1  0  0  0  0
 17 30  2  0  0  0  0
 17 32  1  0  0  0  0
 18 20  2  0  0  0  0
 18 37  1  0  0  0  0
 19 21  2  0  0  0  0
 19 38  1  0  0  0  0
 20 49  1  0  0  0  0
 21 39  1  0  0  0  0
 22 29  2  0  0  0  0
 22 66  1  0  0  0  0
 23 80  1  0  0  0  0
 24 81  1  0  0  0  0
 25 27  2  0  0  0  0
 25 80  1  0  0  0  0
 26 82  1  0  0  0  0
 27 83  1  0  0  0  0
 28 64  2  0  0  0  0
 29 53  1  0  0  0  0
 29 84  1  0  0  0  0
 30 65  1  0  0  0  0
 30 69  1  0  0  0  0
 31 71  1  0  0  0  0
 31 84  1  0  0  0  0
 32 70  1  0  0  0  0
 32 75  2  0  0  0  0
 33 50  1  0  0  0  0
 33 72  1  0  0  0  0
 33 76  2  0  0  0  0
 34 61  1  0  0  0  0
 34 67  1  0  0  0  0
 34 77  2  0  0  0  0
 35 62  1  0  0  0  0
 35 73  1  0  0  0  0
 35 78  2  0  0  0  0
 36 68  1  0  0  0  0
 36 71  1  0  0  0  0
 36 79  2  0  0  0  0
 37 40  1  0  0  0  0
 38 50  1  0  0  0  0
 39 67  1  0  0  0  0
 40 42  1  0  0  0  0
 41 43  1  0  0  0  0
 41 45  1  0  0  0  0
 42 49  1  0  0  0  0
 43 51  1  0  0  0  0
 44 46  1  0  0  0  0
 44 52  1  0  0  0  0
 45 68  1  0  0  0  0
 46 66  1  0  0  0  0
 47 51  1  0  0  0  0
 47 68  1  0  0  0  0
 48 52  1  0  0  0  0
 48 66  1  0  0  0  0
 49 72  1  0  0  0  0
 50 67  1  0  0  0  0
 51 65  1  0  0  0  0
 52 54  1  0  0  0  0
 52 60  1  0  0  0  0
 55 62  1  0  0  0  0
 56 63  1  0  0  0  0
 57 63  1  0  0  0  0
 58 63  1  0  0  0  0
 59 74  1  0  0  0  0
 60 81  1  0  0  0  0
 61 63  1  0  0  0  0
 61 73  1  0  0  0  0
 62 74  1  0  0  0  0
 64 65  1  0  0  0  0
M  CHG  1  74   1
M  ISO  4  36 100  60 101  71 100  81 101
M  END
> <Batch ID>
0153

> <Smiles>
CNC(C)C(=O)NC(C(=O)N1Cc2cc([101O:1][101CH2:1]C3(C)CCN(c4cc([100NH:0][100C:0](=O)N5CCCC(n6nc(-c7ccc(Oc8ccc(F)cc8F)cc7)c(C(N)=O)c6N)C5)sc4C)C3)ccc2CC1C(=O)NC1CCCc2ccccc21)C(C)(C)C

> <Shape>
0.254

> <Color>
0.112

> <Negative vol penalty>
0.000

$$$$

  -OEChem-04052303303D

 88 96  0     1  0  0  0  0  0999 V2000
  -19.3105  -33.8620   22.0086 C   0  0  0  0  0  0  0  0  0  0  0  0
  -20.6168  -33.5822   21.6206 C   0  0  0  0  0  0  0  0  0  0  0  0
  -25.5296  -13.6770   22.3332 C   0  0  0  0  0  0  0  0  0  0  0  0
  -25.1787  -14.7395   20.1920 C   0  0  0  0  0  0  0  0  0  0  0  0
  -18.6526  -33.0152   22.8998 C   0  0  0  0  0  0  0  0  0  0  0  0
  -21.2665  -32.4559   22.1244 C   0  0  0  0  0  0  0  0  0  0  0  0
  -25.3167  -28.9218   19.1899 C   0  0  0  0  0  0  0  0  0  0  0  0
  -24.5035  -12.7745   22.0536 C   0  0  0  0  0  0  0  0  0  0  0  0
  -24.1526  -13.8370   19.9123 C   0  0  0  0  0  0  0  0  0  0  0  0
  -26.7103  -28.8815   19.2042 C   0  0  0  0  0  0  0  0  0  0  0  0
  -24.0895   -9.9633   20.2210 C   0  0  0  0  0  0  0  0  0  0  0  0
  -24.3181   -8.6156   20.4984 C   0  0  0  0  0  0  0  0  0  0  0  0
  -31.4754  -22.1519   19.7004 C   0  0  0  0  0  0  0  0  0  0  0  0
  -31.9155  -24.3878   18.8980 C   0  0  0  0  0  0  0  0  0  0  0  0
  -26.6363  -27.1178   20.8483 C   0  0  0  0  0  0  0  0  0  0  0  0
  -30.3257  -24.0360   20.6828 C   0  0  0  0  0  0  0  0  0  0  0  0
  -22.4476   -8.6132   22.0277 C   0  0  0  0  0  0  0  0  0  0  0  0
  -25.8672  -14.6596   21.4024 C   0  0  0  0  0  0  0  0  0  0  0  0
  -32.1520  -23.0144   18.8380 C   0  0  0  0  0  0  0  0  0  0  0  0
  -28.2945  -15.4442   21.3929 C   0  0  0  0  0  0  0  0  0  0  0  0
  -19.2912  -31.8727   23.4072 C   0  0  0  0  0  0  0  0  0  0  0  0
  -24.5714  -28.0664   20.0141 C   0  0  0  0  0  0  0  0  0  0  0  0
  -20.6171  -31.5938   23.0242 C   0  0  0  0  0  0  0  0  0  0  0  0
  -25.2334  -27.1474   20.8407 C   0  0  0  0  0  0  0  0  0  0  0  0
  -30.5621  -22.6627   20.6228 C   0  0  0  0  0  0  0  0  0  0  0  0
  -31.0023  -24.8986   19.8204 C   0  0  0  0  0  0  0  0  0  0  0  0
  -23.8150  -12.8545   20.8431 C   0  0  0  0  0  0  0  0  0  0  0  0
  -27.3703  -27.9814   20.0357 C   0  0  0  0  0  0  0  0  0  0  0  0
  -23.0400  -10.6360   20.8469 C   0  0  0  0  0  0  0  0  0  0  0  0
  -23.4972   -7.9405   21.4017 C   0  0  0  0  0  0  0  0  0  0  0  0
  -22.2191   -9.9609   21.7503 C   0  0  0  0  0  0  0  0  0  0  0  0
  -26.9266  -15.5925   21.6909 C   0  0  0  0  0  0  0  0  0  0  0  0
  -28.8759  -16.5945   21.8675 C   0  0  0  0  0  0  0  0  0  0  0  0
  -33.0979  -22.4848   17.8811 C   0  0  0  0  0  0  0  0  0  0  0  0
  -28.9783  -14.3634   20.7450 C   0  0  0  0  0  0  0  0  0  0  0  0
  -22.5080  -28.4821   22.3959 C   0  0  0  0  0  0  0  0  0  0  0  0
  -22.1707  -25.2655   22.1469 C   0  0  0  0  0  0  0  0  0  0  0  0
  -23.5064  -22.2789   21.1760 C   0  0  0  0  0  0  0  0  0  0  0  0
  -28.9381  -22.1292   22.4732 C   0  0  0  0  0  0  0  0  0  0  0  0
  -18.5560  -31.0129   24.4046 C   0  0  0  0  0  0  0  0  0  0  0  0
  -23.0685  -28.1038   19.9672 C   0  0  0  0  0  0  0  0  0  0  0  0
  -24.4793  -26.1937   21.7296 C   0  0  0  0  0  0  0  0  0  0  0  0
  -19.1844  -29.6357   24.6016 C   0  0  0  0  0  0  0  0  0  0  0  0
  -26.9991  -20.2643   24.8055 C   0  0  0  0  0  0  0  0  0  0  0  0
  -20.6948  -29.7581   24.7763 C   0  0  0  0  0  0  0  0  0  0  0  0
  -26.9199  -18.8704   24.1786 C   0  0  0  0  0  0  0  0  0  0  0  0
  -26.9464  -21.3656   23.7481 C   0  0  0  0  0  0  0  0  0  0  0  0
  -27.8498  -19.8397   22.0379 C   0  0  0  0  0  0  0  0  0  0  0  0
  -21.3468  -30.3681   23.5296 C   0  0  1  0  0  0  0  0  0  0  0  0
  -22.4172  -27.5421   21.2272 C   0  0  1  0  0  0  0  0  0  0  0  0
  -27.9645  -18.6960   23.0589 C   0  0  2  0  0  0  0  0  0  0  0  0
  -23.0105  -19.8192   21.1356 C   0  0  0  0  0  0  0  0  0  0  0  0
  -22.7793  -25.0962   25.1320 C   0  0  0  0  0  0  0  0  0  0  0  0
  -23.2068  -22.6473   24.8350 C   0  0  0  0  0  0  0  0  0  0  0  0
  -20.9455  -23.5842   24.3538 C   0  0  0  0  0  0  0  0  0  0  0  0
  -23.6467  -22.1811   18.2214 C   0  0  0  0  0  0  0  0  0  0  0  0
  -31.4237  -27.2262   19.0263 C   0  0  0  0  0  0  0  0  0  0  0  0
  -22.8515  -24.0681   22.7647 C   0  0  1  0  0  0  0  0  0  0  0  0
  -22.9266  -21.1305   20.3700 C   0  0  2  0  0  0  0  0  0  0  0  0
  -22.4603  -23.8681   24.2562 C   0  0  0  0  0  0  0  0  0  0  0  0
  -30.9519  -28.6309   19.3705 C   0  0  0  0  0  0  0  0  0  0  0  0
  -29.4583  -28.8322   19.2062 C   0  0  0  0  0  0  0  0  0  1  0  0
  -26.6553  -16.7460   22.3072 N   0  0  0  0  0  0  0  0  0  0  0  0
  -27.8606  -17.3330   22.4004 N   0  0  0  0  0  0  0  0  0  0  0  0
  -23.0112  -26.2731   21.6528 N   0  0  0  0  0  0  0  0  0  0  0  0
  -27.9667  -21.1367   22.7226 N   0  0  0  0  0  0  0  0  0  0  0  0
  -30.1516  -17.0363   21.8767 N   0  0  0  0  0  0  0  0  0  0  0  0
  -33.3322  -21.1633   17.8149 N   0  0  0  0  0  0  0  0  0  0  0  0
  -28.2291  -13.2578   20.3200 N   0  0  0  0  0  0  0  0  0  0  0  0
  -29.8758  -21.7865   21.4997 N   0  0  0  0  0  0  0  0  0  0  0  0
  -30.7678  -26.2623   19.8802 N   0  0  0  0  0  0  0  0  0  0  0  0
  -21.4583  -29.3767   22.4812 N   0  0  0  0  0  0  0  0  0  0  0  0
  -22.5359  -22.9312   21.9066 N   0  0  0  0  0  0  0  0  0  0  0  0
  -33.7535  -23.3070   17.0447 N   0  3  0  0  0  0  0  0  0  0  0  0
  -23.6667  -20.9733   19.0861 N   0  3  0  0  0  0  0  0  0  0  0  0
  -30.2195  -14.3703   20.5634 O   0  0  0  0  0  0  0  0  0  0  0  0
  -23.4591  -28.4007   23.1643 O   0  0  0  0  0  0  0  0  0  0  0  0
  -20.9386  -25.3021   22.0978 O   0  0  0  0  0  0  0  0  0  0  0  0
  -24.7014  -22.5659   21.1620 O   0  0  0  0  0  0  0  0  0  0  0  0
  -28.9543  -23.1929   23.0980 O   0  0  0  0  0  0  0  0  0  0  0  0
  -22.8139  -11.9738   20.5698 O   0  0  0  0  0  0  0  0  0  0  0  0
  -28.7305  -27.9405   20.0521 O   0  0  0  0  0  0  0  0  0  1  0  0
  -23.7158   -6.6459   21.6669 F   0  0  0  0  0  0  0  0  0  0  0  0
  -21.2086  -10.6015   22.3538 F   0  0  0  0  0  0  0  0  0  0  0  0
  -31.2862  -28.9187   20.6557 F   0  0  0  0  0  0  0  0  0  0  0  0
  -31.6031  -29.5299   18.5870 F   0  0  0  0  0  0  0  0  0  0  0  0
  -29.1405  -30.1136   19.5150 F   0  0  0  0  0  0  0  0  0  0  0  0
  -29.1223  -28.6093   17.9115 F   0  0  0  0  0  0  0  0  0  0  0  0
  1  2  1  0  0  0  0
  1  5  2  0  0  0  0
  2  6  2  0  0  0  0
  3  8  2  0  0  0  0
  3 18  1  0  0  0  0
  4  9  1  0  0  0  0
  4 18  2  0  0  0  0
  5 21  1  0  0  0  0
  6 23  1  0  0  0  0
  7 10  2  0  0  0  0
  7 22  1  0  0  0  0
  8 27  1  0  0  0  0
  9 27  2  0  0  0  0
 10 28  1  0  0  0  0
 11 12  2  0  0  0  0
 11 29  1  0  0  0  0
 12 30  1  0  0  0  0
 13 19  2  0  0  0  0
 13 25  1  0  0  0  0
 14 19  1  0  0  0  0
 14 26  2  0  0  0  0
 15 24  1  0  0  0  0
 15 28  2  0  0  0  0
 16 25  2  0  0  0  0
 16 26  1  0  0  0  0
 17 30  2  0  0  0  0
 17 31  1  0  0  0  0
 18 32  1  0  0  0  0
 19 34  1  0  0  0  0
 20 32  1  0  0  0  0
 20 33  2  0  0  0  0
 20 35  1  0  0  0  0
 21 23  2  0  0  0  0
 21 40  1  0  0  0  0
 22 24  2  0  0  0  0
 22 41  1  0  0  0  0
 23 49  1  0  0  0  0
 24 42  1  0  0  0  0
 25 70  1  0  0  0  0
 26 71  1  0  0  0  0
 27 81  1  0  0  0  0
 28 82  1  0  0  0  0
 29 31  2  0  0  0  0
 29 81  1  0  0  0  0
 30 83  1  0  0  0  0
 31 84  1  0  0  0  0
 32 63  2  0  0  0  0
 33 64  1  0  0  0  0
 33 67  1  0  0  0  0
 34 68  1  0  0  0  0
 34 74  2  0  0  0  0
 35 69  1  0  0  0  0
 35 76  2  0  0  0  0
 36 50  1  0  0  0  0
 36 72  1  0  0  0  0
 36 77  2  0  0  0  0
 37 58  1  0  0  0  0
 37 65  1  0  0  0  0
 37 78  2  0  0  0  0
 38 59  1  0  0  0  0
 38 73  1  0  0  0  0
 38 79  2  0  0  0  0
 39 66  1  0  0  0  0
 39 70  1  0  0  0  0
 39 80  2  0  0  0  0
 40 43  1  0  0  0  0
 41 50  1  0  0  0  0
 42 65  1  0  0  0  0
 43 45  1  0  0  0  0
 44 46  1  0  0  0  0
 44 47  1  0  0  0  0
 45 49  1  0  0  0  0
 46 51  1  0  0  0  0
 47 66  1  0  0  0  0
 48 51  1  0  0  0  0
 48 66  1  0  0  0  0
 49 72  1  0  0  0  0
 50 65  1  0  0  0  0
 51 64  1  0  0  0  0
 52 59  1  0  0  0  0
 53 60  1  0  0  0  0
 54 60  1  0  0  0  0
 55 60  1  0  0  0  0
 56 75  1  0  0  0  0
 57 61  1  0  0  0  0
 57 71  1  0  0  0  0
 58 60  1  0  0  0  0
 58 73  1  0  0  0  0
 59 75  1  0  0  0  0
 61 62  1  0  0  0  0
 61 85  1  0  0  0  0
 61 86  1  0  0  0  0
 62 82  1  0  0  0  0
 62 87  1  0  0  0  0
 62 88  1  0  0  0  0
 63 64  1  0  0  0  0
M  CHG  2  74   1  75   1
M  ISO  4  39 100  62 101  70 100  82 101
M  END
> <Batch ID>
0153

> <Smiles>
CNC(C)C(=O)NC(C(=O)N1Cc2cc([101O:1][101C:1](F)(F)C(F)(F)CNc3cc([100NH:0][100C:0](=O)N4CCCC(n5nc(-c6ccc(Oc7ccc(F)cc7F)cc6)c(C(N)=O)c5N)C4)cc(C(=N)N)c3)ccc2CC1C(=O)NC1CCCc2ccccc21)C(C)(C)C

> <Shape>
0.210

> <Color>
0.078

> <Negative vol penalty>
0.000

$$$$

  -OEChem-04052303303D

 82 91  0     1  0  0  0  0  0999 V2000
  -28.1154  -37.2857   22.9973 C   0  0  0  0  0  0  0  0  0  0  0  0
  -28.3252  -36.4046   21.9413 C   0  0  0  0  0  0  0  0  0  0  0  0
  -24.8096   -9.1310   21.5922 C   0  0  0  0  0  0  0  0  0  0  0  0
  -23.1905  -10.7782   20.8835 C   0  0  0  0  0  0  0  0  0  0  0  0
  -27.7844  -36.7934   24.2591 C   0  0  0  0  0  0  0  0  0  0  0  0
  -28.2053  -35.0306   22.1468 C   0  0  0  0  0  0  0  0  0  0  0  0
  -26.1953  -29.0365   18.7783 C   0  0  0  0  0  0  0  0  0  0  0  0
  -23.8689   -8.5807   22.4627 C   0  0  0  0  0  0  0  0  0  0  0  0
  -22.2497  -10.2279   21.7540 C   0  0  0  0  0  0  0  0  0  0  0  0
  -26.6632  -27.7556   18.4879 C   0  0  0  0  0  0  0  0  0  0  0  0
  -21.1940   -6.5222   22.2619 C   0  0  0  0  0  0  0  0  0  0  0  0
  -21.0700   -5.1331   22.2886 C   0  0  0  0  0  0  0  0  0  0  0  0
  -26.0092  -27.0237   20.6915 C   0  0  0  0  0  0  0  0  0  0  0  0
  -21.6553   -5.1259   24.6326 C   0  0  0  0  0  0  0  0  0  0  0  0
  -25.5616  -18.5347   18.6999 C   0  0  0  0  0  0  0  0  0  0  0  0
  -24.4704  -10.2298   20.8026 C   0  0  0  0  0  0  0  0  0  0  0  0
  -25.6680  -10.4436   18.5604 C   0  0  0  0  0  0  0  0  0  0  0  0
  -27.6509  -35.4132   24.4779 C   0  0  0  0  0  0  0  0  0  0  0  0
  -25.6400  -29.3238   20.0335 C   0  0  0  0  0  0  0  0  0  0  0  0
  -27.8735  -34.5194   23.4130 C   0  0  0  0  0  0  0  0  0  0  0  0
  -25.5327  -28.3083   20.9945 C   0  0  0  0  0  0  0  0  0  0  0  0
  -22.5889   -9.1291   22.5436 C   0  0  0  0  0  0  0  0  0  0  0  0
  -26.5728  -26.7497   19.4456 C   0  0  0  0  0  0  0  0  0  0  0  0
  -21.5487   -7.2131   23.4206 C   0  0  0  0  0  0  0  0  0  0  0  0
  -21.3007   -4.4350   23.4739 C   0  0  0  0  0  0  0  0  0  0  0  0
  -21.7793   -6.5150   24.6059 C   0  0  0  0  0  0  0  0  0  0  0  0
  -25.4420  -10.7990   19.9036 C   0  0  0  0  0  0  0  0  0  0  0  0
  -26.8493  -18.2699   19.1170 C   0  0  0  0  0  0  0  0  0  0  0  0
  -26.6862  -11.2705   18.1531 C   0  0  0  0  0  0  0  0  0  0  0  0
  -27.0820  -20.4027   18.6618 C   0  0  0  0  0  0  0  0  0  0  0  0
  -25.0158   -9.4545   17.7529 C   0  0  0  0  0  0  0  0  0  0  0  0
  -26.3855  -31.2863   22.4202 C   0  0  0  0  0  0  0  0  0  0  0  0
  -23.5638  -30.2482   23.6381 C   0  0  0  0  0  0  0  0  0  0  0  0
  -21.1730  -27.8151   23.7417 C   0  0  0  0  0  0  0  0  0  0  0  0
  -28.5640  -16.6400   19.9828 C   0  0  0  0  0  0  0  0  0  0  0  0
  -27.3379  -34.9259   25.8704 C   0  0  0  0  0  0  0  0  0  0  0  0
  -25.1155  -30.7037   20.3217 C   0  0  0  0  0  0  0  0  0  0  0  0
  -24.9263  -28.5601   22.3499 C   0  0  0  0  0  0  0  0  0  0  0  0
  -26.8628  -33.4759   25.9159 C   0  0  0  0  0  0  0  0  0  0  0  0
  -30.4853  -13.6456   19.8446 C   0  0  0  0  0  0  0  0  0  0  0  0
  -27.7651  -32.5914   25.0613 C   0  0  0  0  0  0  0  0  0  0  0  0
  -29.4308  -12.5439   19.7157 C   0  0  0  0  0  0  0  0  0  0  0  0
  -29.1172  -23.4739   18.7855 C   0  0  0  0  0  0  0  0  0  0  0  0
  -30.0148  -14.7770   20.7569 C   0  0  0  0  0  0  0  0  0  0  0  0
  -29.0502  -21.9487   18.8235 C   0  0  0  0  0  0  0  0  0  0  0  0
  -26.9363  -22.8295   18.0406 C   0  0  0  0  0  0  0  0  0  0  0  0
  -27.6556  -14.2521   20.2795 C   0  0  0  0  0  0  0  0  0  0  0  0
  -27.7283  -33.0235   23.5905 C   0  0  1  0  0  0  0  0  0  0  0  0
  -25.0381  -31.0141   21.8134 C   0  0  1  0  0  0  0  0  0  0  0  0
  -28.0501  -23.8444   17.7596 C   0  0  1  0  0  0  0  0  0  0  0  0
  -28.0581  -13.1214   19.3186 C   0  0  2  0  0  0  0  0  0  0  0  0
  -19.0031  -27.2319   24.8592 C   0  0  0  0  0  0  0  0  0  0  0  0
  -25.0749  -29.5212   26.1872 C   0  0  0  0  0  0  0  0  0  0  0  0
  -23.1174  -28.1142   26.8631 C   0  0  0  0  0  0  0  0  0  0  0  0
  -22.8385  -30.5750   26.5647 C   0  0  0  0  0  0  0  0  0  0  0  0
  -19.7273  -27.7499   21.1601 C   0  0  0  0  0  0  0  0  0  0  0  0
  -27.5889  -25.2871   17.8694 C   0  0  0  0  0  0  0  0  0  1  0  0
  -23.1397  -29.1059   24.5293 C   0  0  1  0  0  0  0  0  0  0  0  0
  -19.6592  -27.8860   23.6532 C   0  0  2  0  0  0  0  0  0  0  0  0
  -23.5559  -29.3245   26.0113 C   0  0  0  0  0  0  0  0  0  0  0  0
  -26.2516  -11.7755   20.3219 N   0  0  0  0  0  0  0  0  0  0  0  0
  -27.7226  -19.3398   19.0954 N   0  0  0  0  0  0  0  0  0  0  0  0
  -26.9964  -12.0407   19.2351 N   0  0  0  0  0  0  0  0  0  0  0  0
  -27.6543  -21.6484   18.5151 N   0  0  3  0  0  0  0  0  0  0  0  0
  -24.4335  -29.9271   22.5862 N   0  0  0  0  0  0  0  0  0  0  0  0
  -28.7103  -15.2772   20.3174 N   0  0  0  0  0  0  0  0  0  0  0  0
  -27.3377  -11.4067   16.9786 N   0  0  0  0  0  0  0  0  0  0  0  0
  -23.9899   -8.6926   18.3285 N   0  0  0  0  0  0  0  0  0  0  0  0
  -27.2871  -16.9929   19.5473 N   0  0  0  0  0  0  0  0  0  0  0  0
  -26.5157  -32.5535   22.9557 N   0  0  0  0  0  0  0  0  0  0  0  0
  -21.7036  -28.9439   24.3296 N   0  0  0  0  0  0  0  0  0  0  0  0
  -19.1792  -27.1937   22.4239 N   0  3  0  0  0  0  0  0  0  0  0  0
  -25.3445   -9.2410   16.5613 O   0  0  0  0  0  0  0  0  0  0  0  0
  -27.2429  -30.4109   22.4051 O   0  0  0  0  0  0  0  0  0  0  0  0
  -23.1335  -31.3823   23.8625 O   0  0  0  0  0  0  0  0  0  0  0  0
  -21.8198  -26.8529   23.3337 O   0  0  0  0  0  0  0  0  0  0  0  0
  -29.5093  -17.4299   20.0497 O   0  0  0  0  0  0  0  0  0  0  0  0
  -21.6706   -8.5923   23.3927 O   0  0  0  0  0  0  0  0  0  0  0  0
  -27.0292  -25.4988   19.1649 O   0  0  0  0  0  0  0  0  0  1  0  0
  -21.1801   -3.1012   23.4998 F   0  0  0  0  0  0  0  0  0  0  0  0
  -22.1192   -7.1734   25.7225 F   0  0  0  0  0  0  0  0  0  0  0  0
  -25.4270  -20.1875   18.2625 S   0  0  0  0  0  0  0  0  0  0  0  0
  1  2  1  0  0  0  0
  1  5  2  0  0  0  0
  2  6  2  0  0  0  0
  3  8  2  0  0  0  0
  3 16  1  0  0  0  0
  4  9  1  0  0  0  0
  4 16  2  0  0  0  0
  5 18  1  0  0  0  0
  6 20  1  0  0  0  0
  7 10  2  0  0  0  0
  7 19  1  0  0  0  0
  8 22  1  0  0  0  0
  9 22  2  0  0  0  0
 10 23  1  0  0  0  0
 11 12  2  0  0  0  0
 11 24  1  0  0  0  0
 12 25  1  0  0  0  0
 13 21  1  0  0  0  0
 13 23  2  0  0  0  0
 14 25  2  0  0  0  0
 14 26  1  0  0  0  0
 15 28  2  0  0  0  0
 15 82  1  0  0  0  0
 16 27  1  0  0  0  0
 17 27  1  0  0  0  0
 17 29  2  0  0  0  0
 17 31  1  0  0  0  0
 18 20  2  0  0  0  0
 18 36  1  0  0  0  0
 19 21  2  0  0  0  0
 19 37  1  0  0  0  0
 20 48  1  0  0  0  0
 21 38  1  0  0  0  0
 22 78  1  0  0  0  0
 23 79  1  0  0  0  0
 24 26  2  0  0  0  0
 24 78  1  0  0  0  0
 25 80  1  0  0  0  0
 26 81  1  0  0  0  0
 27 61  2  0  0  0  0
 28 62  1  0  0  0  0
 28 69  1  0  0  0  0
 29 63  1  0  0  0  0
 29 67  1  0  0  0  0
 30 62  2  0  0  0  0
 30 64  1  0  0  0  0
 30 82  1  0  0  0  0
 31 68  1  0  0  0  0
 31 73  2  0  0  0  0
 32 49  1  0  0  0  0
 32 70  1  0  0  0  0
 32 74  2  0  0  0  0
 33 58  1  0  0  0  0
 33 65  1  0  0  0  0
 33 75  2  0  0  0  0
 34 59  1  0  0  0  0
 34 71  1  0  0  0  0
 34 76  2  0  0  0  0
 35 66  1  0  0  0  0
 35 69  1  0  0  0  0
 35 77  2  0  0  0  0
 36 39  1  0  0  0  0
 37 49  1  0  0  0  0
 38 65  1  0  0  0  0
 39 41  1  0  0  0  0
 40 42  1  0  0  0  0
 40 44  1  0  0  0  0
 41 48  1  0  0  0  0
 42 51  1  0  0  0  0
 43 45  1  0  0  0  0
 43 50  1  0  0  0  0
 44 66  1  0  0  0  0
 45 64  1  0  0  0  0
 46 50  1  0  0  0  0
 46 64  1  0  0  0  0
 47 51  1  0  0  0  0
 47 66  1  0  0  0  0
 48 70  1  0  0  0  0
 49 65  1  0  0  0  0
 50 57  1  0  0  0  0
 51 63  1  0  0  0  0
 52 59  1  0  0  0  0
 53 60  1  0  0  0  0
 54 60  1  0  0  0  0
 55 60  1  0  0  0  0
 56 72  1  0  0  0  0
 57 79  1  0  0  0  0
 58 60  1  0  0  0  0
 58 71  1  0  0  0  0
 59 72  1  0  0  0  0
 61 63  1  0  0  0  0
M  CHG  1  72   1
M  ISO  4  35 100  57 101  69 100  79 101
M  END
> <Batch ID>
0153

> <Smiles>
CNC(C)C(=O)NC(C(=O)N1Cc2cc([101O:1][101CH2:1]C3CCN(c4nc([100NH:0][100C:0](=O)N5CCCC(n6nc(-c7ccc(Oc8ccc(F)cc8F)cc7)c(C(N)=O)c6N)C5)cs4)C3)ccc2CC1C(=O)NC1CCCc2ccccc21)C(C)(C)C

> <Shape>
0.312

> <Color>
0.091

> <Negative vol penalty>
0.000

$$$$

  -OEChem-04052303303D

 84 93  0     1  0  0  0  0  0999 V2000
  -27.6448  -30.7664   33.8296 C   0  0  0  0  0  0  0  0  0  0  0  0
  -27.7295  -29.6228   33.0419 C   0  0  0  0  0  0  0  0  0  0  0  0
  -23.1024   -9.8625   21.4184 C   0  0  0  0  0  0  0  0  0  0  0  0
  -23.8647  -10.7092   23.5489 C   0  0  0  0  0  0  0  0  0  0  0  0
  -26.7899  -31.8041   33.4605 C   0  0  0  0  0  0  0  0  0  0  0  0
  -26.9584  -29.5158   31.8850 C   0  0  0  0  0  0  0  0  0  0  0  0
  -28.5336  -26.7488   26.6536 C   0  0  0  0  0  0  0  0  0  0  0  0
  -22.3825   -8.8631   22.0731 C   0  0  0  0  0  0  0  0  0  0  0  0
  -23.1447   -9.7099   24.2036 C   0  0  0  0  0  0  0  0  0  0  0  0
  -28.2437  -25.4873   26.1355 C   0  0  0  0  0  0  0  0  0  0  0  0
  -23.0227   -5.8835   23.5346 C   0  0  0  0  0  0  0  0  0  0  0  0
  -23.1095   -4.5863   23.0292 C   0  0  0  0  0  0  0  0  0  0  0  0
  -26.4173  -26.4318   24.8739 C   0  0  0  0  0  0  0  0  0  0  0  0
  -28.0643  -19.8668   21.3616 C   0  0  0  0  0  0  0  0  0  0  0  0
  -20.7216   -4.5699   22.6615 C   0  0  0  0  0  0  0  0  0  0  0  0
  -23.8436  -10.7855   22.1563 C   0  0  0  0  0  0  0  0  0  0  0  0
  -24.1337  -13.1038   21.1321 C   0  0  0  0  0  0  0  0  0  0  0  0
  -26.0151  -31.7138   32.2933 C   0  0  0  0  0  0  0  0  0  0  0  0
  -27.7594  -27.8612   26.2936 C   0  0  0  0  0  0  0  0  0  0  0  0
  -26.0913  -30.5527   31.5006 C   0  0  0  0  0  0  0  0  0  0  0  0
  -26.7011  -27.7068   25.3869 C   0  0  0  0  0  0  0  0  0  0  0  0
  -28.5927  -18.7569   20.6410 C   0  0  0  0  0  0  0  0  0  0  0  0
  -22.4036   -8.7868   23.4657 C   0  0  0  0  0  0  0  0  0  0  0  0
  -27.1837  -25.3282   25.2477 C   0  0  0  0  0  0  0  0  0  0  0  0
  -21.7854   -6.5239   23.6036 C   0  0  0  0  0  0  0  0  0  0  0  0
  -21.9590   -3.9296   22.5926 C   0  0  0  0  0  0  0  0  0  0  0  0
  -20.6349   -5.8671   23.1670 C   0  0  0  0  0  0  0  0  0  0  0  0
  -24.5879  -11.8177   21.4806 C   0  0  0  0  0  0  0  0  0  0  0  0
  -29.8222  -18.3650   21.1230 C   0  0  0  0  0  0  0  0  0  0  0  0
  -25.2099  -13.6923   20.5142 C   0  0  0  0  0  0  0  0  0  0  0  0
  -28.9101  -20.2807   22.3672 C   0  0  0  0  0  0  0  0  0  0  0  0
  -22.8535  -13.7122   21.3479 C   0  0  0  0  0  0  0  0  0  0  0  0
  -25.9040  -29.9069   27.8673 C   0  0  0  0  0  0  0  0  0  0  0  0
  -25.7664  -31.3940   24.9878 C   0  0  0  0  0  0  0  0  0  0  0  0
  -27.7272  -22.2223   23.4465 C   0  0  0  0  0  0  0  0  0  0  0  0
  -26.0370  -31.1660   21.5934 C   0  0  0  0  0  0  0  0  0  0  0  0
  -30.6720  -14.8126   20.2768 C   0  0  0  0  0  0  0  0  0  0  0  0
  -25.0701  -32.8411   31.9603 C   0  0  0  0  0  0  0  0  0  0  0  0
  -28.1017  -29.2199   26.8406 C   0  0  0  0  0  0  0  0  0  0  0  0
  -25.8521  -28.8727   24.9529 C   0  0  0  0  0  0  0  0  0  0  0  0
  -24.5664  -32.8082   30.5197 C   0  0  0  0  0  0  0  0  0  0  0  0
  -29.5805  -11.7077   18.9185 C   0  0  0  0  0  0  0  0  0  0  0  0
  -28.5841  -17.9714   18.1401 C   0  0  0  0  0  0  0  0  0  0  0  0
  -27.4496  -18.9364   18.2883 C   0  0  0  0  0  0  0  0  0  0  0  0
  -24.1206  -31.3991   30.1421 C   0  0  0  0  0  0  0  0  0  0  0  0
  -28.1498  -11.5630   19.4402 C   0  0  0  0  0  0  0  0  0  0  0  0
  -30.4943  -12.3633   19.9515 C   0  0  0  0  0  0  0  0  0  0  0  0
  -28.5796  -13.5093   20.9978 C   0  0  0  0  0  0  0  0  0  0  0  0
  -27.8701  -18.0881   19.4716 C   0  0  0  0  0  0  0  0  0  0  0  0
  -25.2892  -30.4098   30.2253 C   0  0  1  0  0  0  0  0  0  0  0  0
  -26.9267  -30.1921   26.8041 C   0  0  1  0  0  0  0  0  0  0  0  0
  -27.6079  -12.9041   19.9703 C   0  0  2  0  0  0  0  0  0  0  0  0
  -25.8322  -32.5410   19.5042 C   0  0  0  0  0  0  0  0  0  0  0  0
  -22.7258  -31.2865   25.2180 C   0  0  0  0  0  0  0  0  0  0  0  0
  -22.5925  -31.7770   22.7665 C   0  0  0  0  0  0  0  0  0  0  0  0
  -23.6282  -33.4367   24.3142 C   0  0  0  0  0  0  0  0  0  0  0  0
  -28.8657  -30.6909   20.8646 C   0  0  0  0  0  0  0  0  0  0  0  0
  -30.6954  -17.2652   20.6557 C   0  0  0  0  0  0  0  0  0  0  0  0
  -27.9885  -23.1906   24.5853 C   0  0  0  0  0  0  0  0  0  1  0  0
  -24.8686  -31.2999   23.7778 C   0  0  1  0  0  0  0  0  0  0  0  0
  -26.7734  -32.0254   20.5817 C   0  0  2  0  0  0  0  0  0  0  0  0
  -23.4684  -31.9275   24.0286 C   0  0  0  0  0  0  0  0  0  0  0  0
  -25.8540  -11.6012   21.1142 N   0  0  0  0  0  0  0  0  0  0  0  0
  -26.2045  -12.7591   20.5291 N   0  0  0  0  0  0  0  0  0  0  0  0
  -26.2226  -30.1798   25.5202 N   0  0  0  0  0  0  0  0  0  0  0  0
  -29.9239  -13.6315   20.4123 N   0  0  0  0  0  0  0  0  0  0  0  0
  -25.3931  -14.9118   19.9648 N   0  0  0  0  0  0  0  0  0  0  0  0
  -21.8607  -12.9668   21.9984 N   0  0  0  0  0  0  0  0  0  0  0  0
  -28.7836  -21.3281   23.3103 N   0  0  0  0  0  0  0  0  0  0  0  0
  -26.1487  -30.5444   29.0687 N   0  0  0  0  0  0  0  0  0  0  0  0
  -25.6060  -31.9058   22.6743 N   0  0  0  0  0  0  0  0  0  0  0  0
  -30.0550  -15.9711   20.7329 N   0  0  0  0  0  0  0  0  0  0  0  0
  -27.8550  -31.2390   19.9238 N   0  3  0  0  0  0  0  0  0  0  0  0
  -22.5922  -14.8762   20.9602 O   0  0  0  0  0  0  0  0  0  0  0  0
  -24.9620  -29.1646   27.6159 O   0  0  0  0  0  0  0  0  0  0  0  0
  -26.0582  -32.5042   25.4395 O   0  0  0  0  0  0  0  0  0  0  0  0
  -26.7004  -22.2790   22.7778 O   0  0  0  0  0  0  0  0  0  0  0  0
  -25.8584  -29.9600   21.4385 O   0  0  0  0  0  0  0  0  0  0  0  0
  -31.8036  -14.8340   19.7809 O   0  0  0  0  0  0  0  0  0  0  0  0
  -21.7010   -7.8120   24.1049 O   0  0  0  0  0  0  0  0  0  0  0  0
  -26.8981  -24.0979   24.7410 O   0  0  0  0  0  0  0  0  0  1  0  0
  -22.0426   -2.6845   22.1058 F   0  0  0  0  0  0  0  0  0  0  0  0
  -19.4436   -6.4776   23.2296 F   0  0  0  0  0  0  0  0  0  0  0  0
  -30.3346  -19.3332   22.4392 S   0  0  0  0  0  0  0  0  0  0  0  0
  1  2  1  0  0  0  0
  1  5  2  0  0  0  0
  2  6  2  0  0  0  0
  3  8  2  0  0  0  0
  3 16  1  0  0  0  0
  4  9  1  0  0  0  0
  4 16  2  0  0  0  0
  5 18  1  0  0  0  0
  6 20  1  0  0  0  0
  7 10  2  0  0  0  0
  7 19  1  0  0  0  0
  8 23  1  0  0  0  0
  9 23  2  0  0  0  0
 10 24  1  0  0  0  0
 11 12  2  0  0  0  0
 11 25  1  0  0  0  0
 12 26  1  0  0  0  0
 13 21  1  0  0  0  0
 13 24  2  0  0  0  0
 14 22  1  0  0  0  0
 14 31  2  0  0  0  0
 15 26  2  0  0  0  0
 15 27  1  0  0  0  0
 16 28  1  0  0  0  0
 17 28  1  0  0  0  0
 17 30  2  0  0  0  0
 17 32  1  0  0  0  0
 18 20  2  0  0  0  0
 18 38  1  0  0  0  0
 19 21  2  0  0  0  0
 19 39  1  0  0  0  0
 20 50  1  0  0  0  0
 21 40  1  0  0  0  0
 22 29  2  0  0  0  0
 22 49  1  0  0  0  0
 23 80  1  0  0  0  0
 24 81  1  0  0  0  0
 25 27  2  0  0  0  0
 25 80  1  0  0  0  0
 26 82  1  0  0  0  0
 27 83  1  0  0  0  0
 28 63  2  0  0  0  0
 29 58  1  0  0  0  0
 29 84  1  0  0  0  0
 30 64  1  0  0  0  0
 30 67  1  0  0  0  0
 31 69  1  0  0  0  0
 31 84  1  0  0  0  0
 32 68  1  0  0  0  0
 32 74  2  0  0  0  0
 33 51  1  0  0  0  0
 33 70  1  0  0  0  0
 33 75  2  0  0  0  0
 34 60  1  0  0  0  0
 34 65  1  0  0  0  0
 34 76  2  0  0  0  0
 35 59  1  0  0  0  0
 35 69  1  0  0  0  0
 35 77  2  0  0  0  0
 36 61  1  0  0  0  0
 36 71  1  0  0  0  0
 36 78  2  0  0  0  0
 37 66  1  0  0  0  0
 37 72  1  0  0  0  0
 37 79  2  0  0  0  0
 38 41  1  0  0  0  0
 39 51  1  0  0  0  0
 40 65  1  0  0  0  0
 41 45  1  0  0  0  0
 42 46  1  0  0  0  0
 42 47  1  0  0  0  0
 43 44  1  0  0  0  0
 43 49  1  0  0  0  0
 44 49  1  0  0  0  0
 45 50  1  0  0  0  0
 46 52  1  0  0  0  0
 47 66  1  0  0  0  0
 48 52  1  0  0  0  0
 48 66  1  0  0  0  0
 50 70  1  0  0  0  0
 51 65  1  0  0  0  0
 52 64  1  0  0  0  0
 53 61  1  0  0  0  0
 54 62  1  0  0  0  0
 55 62  1  0  0  0  0
 56 62  1  0  0  0  0
 57 73  1  0  0  0  0
 58 72  1  0  0  0  0
 59 81  1  0  0  0  0
 60 62  1  0  0  0  0
 60 71  1  0  0  0  0
 61 73  1  0  0  0  0
 63 64  1  0  0  0  0
M  CHG  1  73   1
M  ISO  4  37 100  59 101  72 100  81 101
M  END
> <Batch ID>
0153

> <Smiles>
CNC(C)C(=O)NC(C(=O)N1Cc2cc([101O:1][101CH2:1]C(=O)Nc3cc(C4CC4)c(C[100NH:0][100C:0](=O)N4CCCC(n5nc(-c6ccc(Oc7ccc(F)cc7F)cc6)c(C(N)=O)c5N)C4)s3)ccc2CC1C(=O)NC1CCCc2ccccc21)C(C)(C)C

> <Shape>
0.262

> <Color>
0.153

> <Negative vol penalty>
0.000

$$$$

  -OEChem-04052303303D

 83 92  0     1  0  0  0  0  0999 V2000
  -26.4679  -34.7608   19.4026 C   0  0  0  0  0  0  0  0  0  0  0  0
  -26.6640  -33.5850   18.6854 C   0  0  0  0  0  0  0  0  0  0  0  0
  -22.9931   -9.9039   19.9841 C   0  0  0  0  0  0  0  0  0  0  0  0
  -23.7234   -9.9526   22.2866 C   0  0  0  0  0  0  0  0  0  0  0  0
  -26.1397  -34.7036   20.7565 C   0  0  0  0  0  0  0  0  0  0  0  0
  -26.5332  -32.3512   19.3219 C   0  0  0  0  0  0  0  0  0  0  0  0
  -24.4516  -25.6131   18.0643 C   0  0  0  0  0  0  0  0  0  0  0  0
  -22.2243   -8.7713   20.2519 C   0  0  0  0  0  0  0  0  0  0  0  0
  -22.9545   -8.8200   22.5544 C   0  0  0  0  0  0  0  0  0  0  0  0
  -24.9065  -24.3022   18.1999 C   0  0  0  0  0  0  0  0  0  0  0  0
  -23.1893   -5.4805   22.0814 C   0  0  0  0  0  0  0  0  0  0  0  0
  -23.7759   -4.4617   22.8320 C   0  0  0  0  0  0  0  0  0  0  0  0
  -24.2587  -24.3241   20.5234 C   0  0  0  0  0  0  0  0  0  0  0  0
  -28.9727  -18.7141   21.4248 C   0  0  0  0  0  0  0  0  0  0  0  0
  -22.0562   -4.7087   24.5110 C   0  0  0  0  0  0  0  0  0  0  0  0
  -23.7427  -10.4945   21.0015 C   0  0  0  0  0  0  0  0  0  0  0  0
  -24.1341  -13.0091   20.8251 C   0  0  0  0  0  0  0  0  0  0  0  0
  -25.9953  -33.4684   21.4077 C   0  0  0  0  0  0  0  0  0  0  0  0
  -23.9059  -26.2942   19.1619 C   0  0  0  0  0  0  0  0  0  0  0  0
  -26.2041  -32.2775   20.6861 C   0  0  0  0  0  0  0  0  0  0  0  0
  -23.7952  -25.6427   20.3986 C   0  0  0  0  0  0  0  0  0  0  0  0
  -29.8311  -17.8818   22.1730 C   0  0  0  0  0  0  0  0  0  0  0  0
  -22.2049   -8.2293   21.5371 C   0  0  0  0  0  0  0  0  0  0  0  0
  -24.8128  -23.6585   19.4303 C   0  0  0  0  0  0  0  0  0  0  0  0
  -22.0362   -6.1135   22.5456 C   0  0  0  0  0  0  0  0  0  0  0  0
  -23.2093   -4.0757   24.0468 C   0  0  0  0  0  0  0  0  0  0  0  0
  -21.4697   -5.7276   23.7604 C   0  0  0  0  0  0  0  0  0  0  0  0
  -24.5376  -11.6641   20.7254 C   0  0  0  0  0  0  0  0  0  0  0  0
  -29.7242  -18.1052   23.5192 C   0  0  0  0  0  0  0  0  0  0  0  0
  -25.2449  -13.7289   20.4584 C   0  0  0  0  0  0  0  0  0  0  0  0
  -28.2383  -19.5368   22.2645 C   0  0  0  0  0  0  0  0  0  0  0  0
  -22.8683  -13.5587   21.2145 C   0  0  0  0  0  0  0  0  0  0  0  0
  -24.6821  -28.9121   20.7892 C   0  0  0  0  0  0  0  0  0  0  0  0
  -21.8585  -28.3492   22.2832 C   0  0  0  0  0  0  0  0  0  0  0  0
  -26.7981  -20.9045   20.7187 C   0  0  0  0  0  0  0  0  0  0  0  0
  -19.4470  -26.1029   23.1696 C   0  0  0  0  0  0  0  0  0  0  0  0
  -30.7441  -14.6495   20.6953 C   0  0  0  0  0  0  0  0  0  0  0  0
  -25.6860  -33.4577   22.8838 C   0  0  0  0  0  0  0  0  0  0  0  0
  -23.3952  -27.6988   18.9925 C   0  0  0  0  0  0  0  0  0  0  0  0
  -23.1987  -26.3229   21.6027 C   0  0  0  0  0  0  0  0  0  0  0  0
  -30.6135  -17.2551   24.3451 C   0  0  0  0  0  0  0  0  0  0  0  0
  -25.1984  -32.1041   23.3942 C   0  0  0  0  0  0  0  0  0  0  0  0
  -31.5746  -16.6876   23.2522 C   0  0  0  0  0  0  0  0  0  0  0  0
  -29.5922  -12.2292   18.3518 C   0  0  0  0  0  0  0  0  0  0  0  0
  -26.0881  -30.9828   22.8670 C   0  0  0  0  0  0  0  0  0  0  0  0
  -28.1440  -11.9731   18.7725 C   0  0  0  0  0  0  0  0  0  0  0  0
  -30.4978  -12.4620   19.5591 C   0  0  0  0  0  0  0  0  0  0  0  0
  -28.5926  -13.2622   20.9022 C   0  0  0  0  0  0  0  0  0  0  0  0
  -26.0468  -30.9196   21.3354 C   0  0  1  0  0  0  0  0  0  0  0  0
  -30.8349  -16.8280   21.8807 C   0  0  1  0  0  0  0  0  0  0  0  0
  -23.3291  -28.4729   20.3055 C   0  0  1  0  0  0  0  0  0  0  0  0
  -27.6306  -13.0772   19.7162 C   0  0  2  0  0  0  0  0  0  0  0  0
  -17.2784  -25.9318   24.4208 C   0  0  0  0  0  0  0  0  0  0  0  0
  -23.3775  -28.4648   24.9270 C   0  0  0  0  0  0  0  0  0  0  0  0
  -21.4116  -27.3697   26.0243 C   0  0  0  0  0  0  0  0  0  0  0  0
  -21.1527  -29.6067   24.9513 C   0  0  0  0  0  0  0  0  0  0  0  0
  -17.9862  -25.2260   20.7497 C   0  0  0  0  0  0  0  0  0  0  0  0
  -25.7515  -21.9955   20.8478 C   0  0  0  0  0  0  0  0  0  1  0  0
  -21.4294  -27.5583   23.4954 C   0  0  1  0  0  0  0  0  0  0  0  0
  -17.9334  -26.1569   23.0669 C   0  0  2  0  0  0  0  0  0  0  0  0
  -21.8558  -28.2375   24.8275 C   0  0  0  0  0  0  0  0  0  0  0  0
  -25.8057  -11.5345   20.3264 N   0  0  0  0  0  0  0  0  0  0  0  0
  -26.2086  -12.8073   20.1722 N   0  0  0  0  0  0  0  0  0  0  0  0
  -22.7193  -27.6983   21.3882 N   0  0  0  0  0  0  0  0  0  0  0  0
  -29.9556  -13.5220   20.4126 N   0  0  0  0  0  0  0  0  0  0  0  0
  -25.4815  -15.0541   20.3561 N   0  0  0  0  0  0  0  0  0  0  0  0
  -21.8350  -12.6771   21.5601 N   0  0  0  0  0  0  0  0  0  0  0  0
  -27.2640  -20.5204   21.9715 N   0  0  0  0  0  0  0  0  0  0  0  0
  -24.8265  -30.2828   20.8886 N   0  0  0  0  0  0  0  0  0  0  0  0
  -19.9908  -27.3553   23.3621 N   0  0  0  0  0  0  0  0  0  0  0  0
  -30.1520  -15.6096   21.5066 N   0  0  0  0  0  0  0  0  0  0  0  0
  -17.4404  -25.1110   22.1266 N   0  3  0  0  0  0  0  0  0  0  0  0
  -22.6548  -14.7945   21.2389 O   0  0  0  0  0  0  0  0  0  0  0  0
  -25.5318  -28.0697   21.0540 O   0  0  0  0  0  0  0  0  0  0  0  0
  -21.4394  -29.4995   22.1323 O   0  0  0  0  0  0  0  0  0  0  0  0
  -27.1393  -20.4676   19.6244 O   0  0  0  0  0  0  0  0  0  0  0  0
  -20.0830  -25.0541   23.0910 O   0  0  0  0  0  0  0  0  0  0  0  0
  -31.8890  -14.7926   20.2528 O   0  0  0  0  0  0  0  0  0  0  0  0
  -21.4546   -7.1243   21.7988 O   0  0  0  0  0  0  0  0  0  0  0  0
  -25.2566  -22.3792   19.5655 O   0  0  0  0  0  0  0  0  0  1  0  0
  -23.7719   -3.0963   24.7668 F   0  0  0  0  0  0  0  0  0  0  0  0
  -20.3613   -6.3312   24.2109 F   0  0  0  0  0  0  0  0  0  0  0  0
  -28.6125  -19.2828   23.9350 S   0  0  0  0  0  0  0  0  0  0  0  0
  1  2  1  0  0  0  0
  1  5  2  0  0  0  0
  2  6  2  0  0  0  0
  3  8  2  0  0  0  0
  3 16  1  0  0  0  0
  4  9  1  0  0  0  0
  4 16  2  0  0  0  0
  5 18  1  0  0  0  0
  6 20  1  0  0  0  0
  7 10  2  0  0  0  0
  7 19  1  0  0  0  0
  8 23  1  0  0  0  0
  9 23  2  0  0  0  0
 10 24  1  0  0  0  0
 11 12  2  0  0  0  0
 11 25  1  0  0  0  0
 12 26  1  0  0  0  0
 13 21  1  0  0  0  0
 13 24  2  0  0  0  0
 14 22  1  0  0  0  0
 14 31  2  0  0  0  0
 15 26  2  0  0  0  0
 15 27  1  0  0  0  0
 16 28  1  0  0  0  0
 17 28  1  0  0  0  0
 17 30  2  0  0  0  0
 17 32  1  0  0  0  0
 18 20  2  0  0  0  0
 18 38  1  0  0  0  0
 19 21  2  0  0  0  0
 19 39  1  0  0  0  0
 20 49  1  0  0  0  0
 21 40  1  0  0  0  0
 22 29  2  0  0  0  0
 22 50  1  0  0  0  0
 23 79  1  0  0  0  0
 24 80  1  0  0  0  0
 25 27  2  0  0  0  0
 25 79  1  0  0  0  0
 26 81  1  0  0  0  0
 27 82  1  0  0  0  0
 28 62  2  0  0  0  0
 29 41  1  0  0  0  0
 29 83  1  0  0  0  0
 30 63  1  0  0  0  0
 30 66  1  0  0  0  0
 31 68  1  0  0  0  0
 31 83  1  0  0  0  0
 32 67  1  0  0  0  0
 32 73  2  0  0  0  0
 33 51  1  0  0  0  0
 33 69  1  0  0  0  0
 33 74  2  0  0  0  0
 34 59  1  0  0  0  0
 34 64  1  0  0  0  0
 34 75  2  0  0  0  0
 35 58  1  0  0  0  0
 35 68  1  0  0  0  0
 35 76  2  0  0  0  0
 36 60  1  0  0  0  0
 36 70  1  0  0  0  0
 36 77  2  0  0  0  0
 37 65  1  0  0  0  0
 37 71  1  0  0  0  0
 37 78  2  0  0  0  0
 38 42  1  0  0  0  0
 39 51  1  0  0  0  0
 40 64  1  0  0  0  0
 41 43  1  0  0  0  0
 42 45  1  0  0  0  0
 43 50  1  0  0  0  0
 44 46  1  0  0  0  0
 44 47  1  0  0  0  0
 45 49  1  0  0  0  0
 46 52  1  0  0  0  0
 47 65  1  0  0  0  0
 48 52  1  0  0  0  0
 48 65  1  0  0  0  0
 49 69  1  0  0  0  0
 50 71  1  0  0  0  0
 51 64  1  0  0  0  0
 52 63  1  0  0  0  0
 53 60  1  0  0  0  0
 54 61  1  0  0  0  0
 55 61  1  0  0  0  0
 56 61  1  0  0  0  0
 57 72  1  0  0  0  0
 58 80  1  0  0  0  0
 59 61  1  0  0  0  0
 59 70  1  0  0  0  0
 60 72  1  0  0  0  0
 62 63  1  0  0  0  0
M  CHG  1  72   1
M  ISO  4  37 100  58 101  71 100  80 101
M  END
> <Batch ID>
0153

> <Smiles>
CNC(C)C(=O)NC(C(=O)N1Cc2cc([101O:1][101CH2:1]C(=O)Nc3cc4c(s3)CCC4[100NH:0][100C:0](=O)N3CCCC(n4nc(-c5ccc(Oc6ccc(F)cc6F)cc5)c(C(N)=O)c4N)C3)ccc2CC1C(=O)NC1CCCc2ccccc21)C(C)(C)C

> <Shape>
0.330

> <Color>
0.193

> <Negative vol penalty>
0.000

$$$$

  -OEChem-04052303303D

 83 92  0     1  0  0  0  0  0999 V2000
  -26.3900  -34.7589   19.1603 C   0  0  0  0  0  0  0  0  0  0  0  0
  -26.5843  -33.5738   18.4580 C   0  0  0  0  0  0  0  0  0  0  0  0
  -22.9939   -9.9015   19.9832 C   0  0  0  0  0  0  0  0  0  0  0  0
  -23.7176   -9.9532   22.2877 C   0  0  0  0  0  0  0  0  0  0  0  0
  -26.0739  -34.7198   20.5176 C   0  0  0  0  0  0  0  0  0  0  0  0
  -26.4637  -32.3488   19.1132 C   0  0  0  0  0  0  0  0  0  0  0  0
  -24.3969  -25.5859   17.9694 C   0  0  0  0  0  0  0  0  0  0  0  0
  -22.2239   -8.7695   20.2504 C   0  0  0  0  0  0  0  0  0  0  0  0
  -22.9476   -8.8213   22.5549 C   0  0  0  0  0  0  0  0  0  0  0  0
  -24.8579  -24.2787   18.1195 C   0  0  0  0  0  0  0  0  0  0  0  0
  -23.1825   -5.4810   22.0873 C   0  0  0  0  0  0  0  0  0  0  0  0
  -23.7665   -4.4631   22.8411 C   0  0  0  0  0  0  0  0  0  0  0  0
  -24.2302  -24.3312   20.4482 C   0  0  0  0  0  0  0  0  0  0  0  0
  -28.9731  -18.7519   21.3876 C   0  0  0  0  0  0  0  0  0  0  0  0
  -22.0422   -4.7131   24.5147 C   0  0  0  0  0  0  0  0  0  0  0  0
  -23.7408  -10.4933   21.0018 C   0  0  0  0  0  0  0  0  0  0  0  0
  -24.1336  -13.0075   20.8230 C   0  0  0  0  0  0  0  0  0  0  0  0
  -25.9399  -33.4934   21.1875 C   0  0  0  0  0  0  0  0  0  0  0  0
  -23.8581  -26.2805   19.0620 C   0  0  0  0  0  0  0  0  0  0  0  0
  -26.1469  -32.2932   20.4811 C   0  0  0  0  0  0  0  0  0  0  0  0
  -23.7607  -25.6462   20.3087 C   0  0  0  0  0  0  0  0  0  0  0  0
  -29.8411  -17.9334   22.1400 C   0  0  0  0  0  0  0  0  0  0  0  0
  -22.2007   -8.2294   21.5362 C   0  0  0  0  0  0  0  0  0  0  0  0
  -24.7773  -23.6522   19.3597 C   0  0  0  0  0  0  0  0  0  0  0  0
  -22.0283   -6.1151   22.5472 C   0  0  0  0  0  0  0  0  0  0  0  0
  -23.1964   -4.0791   24.0548 C   0  0  0  0  0  0  0  0  0  0  0  0
  -21.4582   -5.7311   23.7610 C   0  0  0  0  0  0  0  0  0  0  0  0
  -24.5369  -11.6622   20.7263 C   0  0  0  0  0  0  0  0  0  0  0  0
  -29.7452  -18.1756   23.4838 C   0  0  0  0  0  0  0  0  0  0  0  0
  -25.2457  -13.7264   20.4585 C   0  0  0  0  0  0  0  0  0  0  0  0
  -28.2429  -19.5838   22.2219 C   0  0  0  0  0  0  0  0  0  0  0  0
  -22.8670  -13.5581   21.2079 C   0  0  0  0  0  0  0  0  0  0  0  0
  -24.6386  -28.9241   20.6451 C   0  0  0  0  0  0  0  0  0  0  0  0
  -21.8302  -28.3721   22.1717 C   0  0  0  0  0  0  0  0  0  0  0  0
  -26.7842  -20.9241   20.6696 C   0  0  0  0  0  0  0  0  0  0  0  0
  -19.4351  -26.1298   23.1109 C   0  0  0  0  0  0  0  0  0  0  0  0
  -30.7379  -14.6552   20.6919 C   0  0  0  0  0  0  0  0  0  0  0  0
  -25.6435  -33.5026   22.6662 C   0  0  0  0  0  0  0  0  0  0  0  0
  -23.3407  -27.6807   18.8772 C   0  0  0  0  0  0  0  0  0  0  0  0
  -23.1721  -26.3412   21.5082 C   0  0  0  0  0  0  0  0  0  0  0  0
  -30.6448  -17.3406   24.3138 C   0  0  0  0  0  0  0  0  0  0  0  0
  -25.1655  -32.1547   23.2000 C   0  0  0  0  0  0  0  0  0  0  0  0
  -31.5985  -16.7611   23.2207 C   0  0  0  0  0  0  0  0  0  0  0  0
  -29.6007  -12.2215   18.3691 C   0  0  0  0  0  0  0  0  0  0  0  0
  -26.0548  -31.0292   22.6810 C   0  0  0  0  0  0  0  0  0  0  0  0
  -28.1502  -11.9676   18.7831 C   0  0  0  0  0  0  0  0  0  0  0  0
  -30.5003  -12.4564   19.5806 C   0  0  0  0  0  0  0  0  0  0  0  0
  -28.5910  -13.2590   20.9135 C   0  0  0  0  0  0  0  0  0  0  0  0
  -26.0004  -30.9441   21.1509 C   0  0  1  0  0  0  0  0  0  0  0  0
  -30.8464  -16.8793   21.8538 C   0  0  1  0  0  0  0  0  0  0  0  0
  -23.2830  -28.4731   20.1796 C   0  0  1  0  0  0  0  0  0  0  0  0
  -27.6333  -13.0727   19.7240 C   0  0  2  0  0  0  0  0  0  0  0  0
  -17.2781  -25.9685   24.3834 C   0  0  0  0  0  0  0  0  0  0  0  0
  -23.3717  -28.5308   24.8001 C   0  0  0  0  0  0  0  0  0  0  0  0
  -21.4197  -27.4442   25.9301 C   0  0  0  0  0  0  0  0  0  0  0  0
  -21.1429  -29.6648   24.8278 C   0  0  0  0  0  0  0  0  0  0  0  0
  -17.9566  -25.2132   20.7166 C   0  0  0  0  0  0  0  0  0  0  0  0
  -25.7346  -22.0130   20.7924 C   0  0  0  0  0  0  0  0  0  1  0  0
  -21.4147  -27.5970   23.3987 C   0  0  1  0  0  0  0  0  0  0  0  0
  -17.9204  -26.1768   23.0207 C   0  0  2  0  0  0  0  0  0  0  0  0
  -21.8502  -28.2965   24.7172 C   0  0  0  0  0  0  0  0  0  0  0  0
  -25.8061  -11.5315   20.3312 N   0  0  0  0  0  0  0  0  0  0  0  0
  -26.2099  -12.8039   20.1763 N   0  0  0  0  0  0  0  0  0  0  0  0
  -22.6857  -27.7117   21.2785 N   0  0  0  0  0  0  0  0  0  0  0  0
  -29.9549  -13.5206   20.4271 N   0  0  0  0  0  0  0  0  0  0  0  0
  -25.4831  -15.0513   20.3549 N   0  0  0  0  0  0  0  0  0  0  0  0
  -21.8324  -12.6774   21.5518 N   0  0  0  0  0  0  0  0  0  0  0  0
  -27.2624  -20.5595   21.9236 N   0  0  0  0  0  0  0  0  0  0  0  0
  -24.7786  -30.2965   20.7238 N   0  0  0  0  0  0  0  0  0  0  0  0
  -19.9758  -27.3867   23.2809 N   0  0  0  0  0  0  0  0  0  0  0  0
  -30.1500  -15.6266   21.4954 N   0  0  0  0  0  0  0  0  0  0  0  0
  -17.4232  -25.1159   22.0997 N   0  3  0  0  0  0  0  0  0  0  0  0
  -22.6539  -14.7941   21.2300 O   0  0  0  0  0  0  0  0  0  0  0  0
  -25.4937  -28.0886   20.9144 O   0  0  0  0  0  0  0  0  0  0  0  0
  -21.4055  -29.5186   22.0082 O   0  0  0  0  0  0  0  0  0  0  0  0
  -27.1174  -20.4730   19.5787 O   0  0  0  0  0  0  0  0  0  0  0  0
  -20.0743  -25.0823   23.0416 O   0  0  0  0  0  0  0  0  0  0  0  0
  -31.8789  -14.8029   20.2408 O   0  0  0  0  0  0  0  0  0  0  0  0
  -21.4492   -7.1251   21.7974 O   0  0  0  0  0  0  0  0  0  0  0  0
  -25.2272  -22.3766   19.5091 O   0  0  0  0  0  0  0  0  0  1  0  0
  -23.7565   -3.1004   24.7778 F   0  0  0  0  0  0  0  0  0  0  0  0
  -20.3487   -6.3357   24.2074 F   0  0  0  0  0  0  0  0  0  0  0  0
  -28.6326  -19.3549   23.8926 S   0  0  0  0  0  0  0  0  0  0  0  0
  1  2  1  0  0  0  0
  1  5  2  0  0  0  0
  2  6  2  0  0  0  0
  3  8  2  0  0  0  0
  3 16  1  0  0  0  0
  4  9  1  0  0  0  0
  4 16  2  0  0  0  0
  5 18  1  0  0  0  0
  6 20  1  0  0  0  0
  7 10  2  0  0  0  0
  7 19  1  0  0  0  0
  8 23  1  0  0  0  0
  9 23  2  0  0  0  0
 10 24  1  0  0  0  0
 11 12  2  0  0  0  0
 11 25  1  0  0  0  0
 12 26  1  0  0  0  0
 13 21  1  0  0  0  0
 13 24  2  0  0  0  0
 14 22  1  0  0  0  0
 14 31  2  0  0  0  0
 15 26  2  0  0  0  0
 15 27  1  0  0  0  0
 16 28  1  0  0  0  0
 17 28  1  0  0  0  0
 17 30  2  0  0  0  0
 17 32  1  0  0  0  0
 18 20  2  0  0  0  0
 18 38  1  0  0  0  0
 19 21  2  0  0  0  0
 19 39  1  0  0  0  0
 20 49  1  0  0  0  0
 21 40  1  0  0  0  0
 22 29  2  0  0  0  0
 22 50  1  0  0  0  0
 23 79  1  0  0  0  0
 24 80  1  0  0  0  0
 25 27  2  0  0  0  0
 25 79  1  0  0  0  0
 26 81  1  0  0  0  0
 27 82  1  0  0  0  0
 28 62  2  0  0  0  0
 29 41  1  0  0  0  0
 29 83  1  0  0  0  0
 30 63  1  0  0  0  0
 30 66  1  0  0  0  0
 31 68  1  0  0  0  0
 31 83  1  0  0  0  0
 32 67  1  0  0  0  0
 32 73  2  0  0  0  0
 33 51  1  0  0  0  0
 33 69  1  0  0  0  0
 33 74  2  0  0  0  0
 34 59  1  0  0  0  0
 34 64  1  0  0  0  0
 34 75  2  0  0  0  0
 35 58  1  0  0  0  0
 35 68  1  0  0  0  0
 35 76  2  0  0  0  0
 36 60  1  0  0  0  0
 36 70  1  0  0  0  0
 36 77  2  0  0  0  0
 37 65  1  0  0  0  0
 37 71  1  0  0  0  0
 37 78  2  0  0  0  0
 38 42  1  0  0  0  0
 39 51  1  0  0  0  0
 40 64  1  0  0  0  0
 41 43  1  0  0  0  0
 42 45  1  0  0  0  0
 43 50  1  0  0  0  0
 44 46  1  0  0  0  0
 44 47  1  0  0  0  0
 45 49  1  0  0  0  0
 46 52  1  0  0  0  0
 47 65  1  0  0  0  0
 48 52  1  0  0  0  0
 48 65  1  0  0  0  0
 49 69  1  0  0  0  0
 50 71  1  0  0  0  0
 51 64  1  0  0  0  0
 52 63  1  0  0  0  0
 53 60  1  0  0  0  0
 54 61  1  0  0  0  0
 55 61  1  0  0  0  0
 56 61  1  0  0  0  0
 57 72  1  0  0  0  0
 58 80  1  0  0  0  0
 59 61  1  0  0  0  0
 59 70  1  0  0  0  0
 60 72  1  0  0  0  0
 62 63  1  0  0  0  0
M  CHG  1  72   1
M  ISO  4  37 100  58 101  71 100  80 101
M  END
> <Batch ID>
0153

> <Smiles>
CNC(C)C(=O)NC(C(=O)N1Cc2cc([101O:1][101CH2:1]C(=O)Nc3cc4c(s3)CCC4[100NH:0][100C:0](=O)N3CCCC(n4nc(-c5ccc(Oc6ccc(F)cc6F)cc5)c(C(N)=O)c4N)C3)ccc2CC1C(=O)NC1CCCc2ccccc21)C(C)(C)C

> <Shape>
0.329

> <Color>
0.194

> <Negative vol penalty>
0.000

$$$$

  -OEChem-04052303303D

 84 93  0     1  0  0  0  0  0999 V2000
  -16.7012  -28.6905   23.9298 C   0  0  0  0  0  0  0  0  0  0  0  0
  -16.9926  -28.8564   22.5796 C   0  0  0  0  0  0  0  0  0  0  0  0
  -27.2917  -11.7210   20.7052 C   0  0  0  0  0  0  0  0  0  0  0  0
  -27.5731  -12.1280   23.0700 C   0  0  0  0  0  0  0  0  0  0  0  0
  -17.6154  -29.1093   24.8956 C   0  0  0  0  0  0  0  0  0  0  0  0
  -18.1979  -29.4422   22.1945 C   0  0  0  0  0  0  0  0  0  0  0  0
  -23.8142  -26.7075   17.5034 C   0  0  0  0  0  0  0  0  0  0  0  0
  -26.4877  -10.6176   20.9907 C   0  0  0  0  0  0  0  0  0  0  0  0
  -26.7690  -11.0245   23.3555 C   0  0  0  0  0  0  0  0  0  0  0  0
  -24.9462  -26.2656   16.8183 C   0  0  0  0  0  0  0  0  0  0  0  0
  -23.2905  -10.0409   21.9282 C   0  0  0  0  0  0  0  0  0  0  0  0
  -22.1078   -9.8957   21.2033 C   0  0  0  0  0  0  0  0  0  0  0  0
  -26.3367  -27.7282   18.1508 C   0  0  0  0  0  0  0  0  0  0  0  0
  -30.5717  -22.1402   18.0830 C   0  0  0  0  0  0  0  0  0  0  0  0
  -22.8802   -7.7635   20.3701 C   0  0  0  0  0  0  0  0  0  0  0  0
  -31.0939  -20.1955   16.9221 C   0  0  0  0  0  0  0  0  0  0  0  0
  -27.8344  -12.4762   21.7448 C   0  0  0  0  0  0  0  0  0  0  0  0
  -29.8765  -13.6221   20.7327 C   0  0  0  0  0  0  0  0  0  0  0  0
  -18.8368  -29.6918   24.5219 C   0  0  0  0  0  0  0  0  0  0  0  0
  -23.9412  -27.6512   18.5265 C   0  0  0  0  0  0  0  0  0  0  0  0
  -19.1287  -29.8704   23.1562 C   0  0  0  0  0  0  0  0  0  0  0  0
  -25.2079  -28.1654   18.8489 C   0  0  0  0  0  0  0  0  0  0  0  0
  -30.4635  -20.7206   18.0287 C   0  0  0  0  0  0  0  0  0  0  0  0
  -26.2263  -10.2693   22.3159 C   0  0  0  0  0  0  0  0  0  0  0  0
  -26.2043  -26.7749   17.1410 C   0  0  0  0  0  0  0  0  0  0  0  0
  -24.2682   -9.0475   21.8740 C   0  0  0  0  0  0  0  0  0  0  0  0
  -21.9026   -8.7570   20.4242 C   0  0  0  0  0  0  0  0  0  0  0  0
  -24.0630   -7.9088   21.0950 C   0  0  0  0  0  0  0  0  0  0  0  0
  -28.6655  -13.6158   21.4505 C   0  0  0  0  0  0  0  0  0  0  0  0
  -31.2811  -22.6462   17.0159 C   0  0  0  0  0  0  0  0  0  0  0  0
  -30.2674  -14.9388   20.7304 C   0  0  0  0  0  0  0  0  0  0  0  0
  -30.5846  -12.5350   20.1224 C   0  0  0  0  0  0  0  0  0  0  0  0
  -22.2283  -29.7138   21.1509 C   0  0  0  0  0  0  0  0  0  0  0  0
  -29.3796  -25.2082   16.6320 C   0  0  0  0  0  0  0  0  0  0  0  0
  -24.8474  -28.6991   22.3841 C   0  0  0  0  0  0  0  0  0  0  0  0
  -27.6073  -27.0369   23.5054 C   0  0  0  0  0  0  0  0  0  0  0  0
  -29.1297  -20.3567   20.1346 C   0  0  0  0  0  0  0  0  0  0  0  0
  -19.7728  -30.1720   25.6027 C   0  0  0  0  0  0  0  0  0  0  0  0
  -22.7418  -28.2014   19.2495 C   0  0  0  0  0  0  0  0  0  0  0  0
  -25.2924  -29.2047   19.9332 C   0  0  0  0  0  0  0  0  0  0  0  0
  -21.1904  -30.4418   25.1050 C   0  0  0  0  0  0  0  0  0  0  0  0
  -32.5061  -25.2196   18.6456 C   0  0  0  0  0  0  0  0  0  0  0  0
  -28.4914  -18.9067   23.3232 C   0  0  0  0  0  0  0  0  0  0  0  0
  -21.1573  -31.2493   23.8112 C   0  0  0  0  0  0  0  0  0  0  0  0
  -32.9360  -24.5371   17.3502 C   0  0  0  0  0  0  0  0  0  0  0  0
  -28.5794  -17.4015   23.0612 C   0  0  0  0  0  0  0  0  0  0  0  0
  -31.1861  -25.8788   18.2797 C   0  0  0  0  0  0  0  0  0  0  0  0
  -27.8576  -19.6507   22.1491 C   0  0  0  0  0  0  0  0  0  0  0  0
  -28.5655  -17.8873   20.5811 C   0  0  0  0  0  0  0  0  0  0  0  0
  -20.4365  -30.4790   22.6984 C   0  0  1  0  0  0  0  0  0  0  0  0
  -31.6172  -24.0935   16.7058 C   0  0  2  0  0  0  0  0  0  0  0  0
  -23.0198  -28.5101   20.7316 C   0  0  1  0  0  0  0  0  0  0  0  0
  -29.2563  -17.1035   21.7090 C   0  0  2  0  0  0  0  0  0  0  0  0
  -29.0438  -26.7544   25.5435 C   0  0  0  0  0  0  0  0  0  0  0  0
  -26.1244  -31.4184   21.8563 C   0  0  0  0  0  0  0  0  0  0  0  0
  -28.0848  -30.6852   23.2303 C   0  0  0  0  0  0  0  0  0  0  0  0
  -25.8262  -30.8573   24.2751 C   0  0  0  0  0  0  0  0  0  0  0  0
  -27.0124  -24.1422   23.6658 C   0  0  0  0  0  0  0  0  0  0  0  0
  -28.5408  -26.3318   17.1863 C   0  0  0  0  0  0  0  0  0  1  0  0
  -26.3044  -28.9715   22.6605 C   0  0  1  0  0  0  0  0  0  0  0  0
  -27.8514  -26.2231   24.7634 C   0  0  2  0  0  0  0  0  0  0  0  0
  -26.5767  -30.4680   22.9829 C   0  0  0  0  0  0  0  0  0  0  0  0
  -28.3106  -14.8320   21.8736 N   0  0  0  0  0  0  0  0  0  0  0  0
  -29.3045  -15.6147   21.4204 N   0  0  0  0  0  0  0  0  0  0  0  0
  -24.4200  -28.8301   21.0572 N   0  0  0  0  0  0  0  0  0  0  0  0
  -30.6304  -25.0536   17.2111 N   0  0  0  0  0  0  0  0  0  0  0  0
  -28.5533  -19.3230   20.9028 N   0  0  0  0  0  0  0  0  0  0  0  0
  -31.3375  -15.5727   20.2055 N   0  0  0  0  0  0  0  0  0  0  0  0
  -31.5366  -11.8455   20.8857 N   0  0  0  0  0  0  0  0  0  0  0  0
  -29.7929  -19.9216   18.9877 N   0  0  0  0  0  0  0  0  0  0  0  0
  -21.3032  -29.4604   22.1456 N   0  0  0  0  0  0  0  0  0  0  0  0
  -26.6978  -28.0505   23.7213 N   0  0  0  0  0  0  0  0  0  0  0  0
  -28.1145  -24.7980   24.4155 N   0  3  0  0  0  0  0  0  0  0  0  0
  -30.3911  -12.1960   18.9303 O   0  0  0  0  0  0  0  0  0  0  0  0
  -22.4413  -30.7943   20.6133 O   0  0  0  0  0  0  0  0  0  0  0  0
  -28.9423  -24.4916   15.7302 O   0  0  0  0  0  0  0  0  0  0  0  0
  -24.1049  -28.3840   23.3183 O   0  0  0  0  0  0  0  0  0  0  0  0
  -28.1701  -26.7996   22.4389 O   0  0  0  0  0  0  0  0  0  0  0  0
  -29.0650  -21.5381   20.4839 O   0  0  0  0  0  0  0  0  0  0  0  0
  -25.4416   -9.1928   22.5949 O   0  0  0  0  0  0  0  0  0  0  0  0
  -27.3058  -26.3358   16.4713 O   0  0  0  0  0  0  0  0  0  1  0  0
  -20.7660   -8.6170   19.7294 F   0  0  0  0  0  0  0  0  0  0  0  0
  -24.9981   -6.9505   21.0399 F   0  0  0  0  0  0  0  0  0  0  0  0
  -31.8126  -21.4119   15.9546 S   0  0  0  0  0  0  0  0  0  0  0  0
  1  2  1  0  0  0  0
  1  5  2  0  0  0  0
  2  6  2  0  0  0  0
  3  8  2  0  0  0  0
  3 17  1  0  0  0  0
  4  9  1  0  0  0  0
  4 17  2  0  0  0  0
  5 19  1  0  0  0  0
  6 21  1  0  0  0  0
  7 10  2  0  0  0  0
  7 20  1  0  0  0  0
  8 24  1  0  0  0  0
  9 24  2  0  0  0  0
 10 25  1  0  0  0  0
 11 12  2  0  0  0  0
 11 26  1  0  0  0  0
 12 27  1  0  0  0  0
 13 22  1  0  0  0  0
 13 25  2  0  0  0  0
 14 23  1  0  0  0  0
 14 30  2  0  0  0  0
 15 27  2  0  0  0  0
 15 28  1  0  0  0  0
 16 23  2  0  0  0  0
 16 84  1  0  0  0  0
 17 29  1  0  0  0  0
 18 29  1  0  0  0  0
 18 31  2  0  0  0  0
 18 32  1  0  0  0  0
 19 21  2  0  0  0  0
 19 38  1  0  0  0  0
 20 22  2  0  0  0  0
 20 39  1  0  0  0  0
 21 50  1  0  0  0  0
 22 40  1  0  0  0  0
 23 70  1  0  0  0  0
 24 80  1  0  0  0  0
 25 81  1  0  0  0  0
 26 28  2  0  0  0  0
 26 80  1  0  0  0  0
 27 82  1  0  0  0  0
 28 83  1  0  0  0  0
 29 63  2  0  0  0  0
 30 51  1  0  0  0  0
 30 84  1  0  0  0  0
 31 64  1  0  0  0  0
 31 68  1  0  0  0  0
 32 69  1  0  0  0  0
 32 74  2  0  0  0  0
 33 52  1  0  0  0  0
 33 71  1  0  0  0  0
 33 75  2  0  0  0  0
 34 59  1  0  0  0  0
 34 66  1  0  0  0  0
 34 76  2  0  0  0  0
 35 60  1  0  0  0  0
 35 65  1  0  0  0  0
 35 77  2  0  0  0  0
 36 61  1  0  0  0  0
 36 72  1  0  0  0  0
 36 78  2  0  0  0  0
 37 67  1  0  0  0  0
 37 70  1  0  0  0  0
 37 79  2  0  0  0  0
 38 41  1  0  0  0  0
 39 52  1  0  0  0  0
 40 65  1  0  0  0  0
 41 44  1  0  0  0  0
 42 45  1  0  0  0  0
 42 47  1  0  0  0  0
 43 46  1  0  0  0  0
 43 48  1  0  0  0  0
 44 50  1  0  0  0  0
 45 51  1  0  0  0  0
 46 53  1  0  0  0  0
 47 66  1  0  0  0  0
 48 67  1  0  0  0  0
 49 53  1  0  0  0  0
 49 67  1  0  0  0  0
 50 71  1  0  0  0  0
 51 66  1  0  0  0  0
 52 65  1  0  0  0  0
 53 64  1  0  0  0  0
 54 61  1  0  0  0  0
 55 62  1  0  0  0  0
 56 62  1  0  0  0  0
 57 62  1  0  0  0  0
 58 73  1  0  0  0  0
 59 81  1  0  0  0  0
 60 62  1  0  0  0  0
 60 72  1  0  0  0  0
 61 73  1  0  0  0  0
 63 64  1  0  0  0  0
M  CHG  1  73   1
M  ISO  4  37 100  59 101  70 100  81 101
M  END
> <Batch ID>
0153

> <Smiles>
CNC(C)C(=O)NC(C(=O)N1Cc2cc([101O:1][101CH2:1]C(=O)N3CCCC3c3cc([100NH:0][100C:0](=O)N4CCCC(n5nc(-c6ccc(Oc7ccc(F)cc7F)cc6)c(C(N)=O)c5N)C4)cs3)ccc2CC1C(=O)NC1CCCc2ccccc21)C(C)(C)C

> <Shape>
0.273

> <Color>
0.075

> <Negative vol penalty>
0.000

$$$$

  -OEChem-04052303303D

 87 95  0     1  0  0  0  0  0999 V2000
  -21.2439  -22.3932   14.8944 C   0  0  0  0  0  0  0  0  0  0  0  0
  -21.3262  -23.5517   15.6602 C   0  0  0  0  0  0  0  0  0  0  0  0
  -23.3917  -14.1805   21.2802 C   0  0  0  0  0  0  0  0  0  0  0  0
  -24.8928  -15.8923   20.4718 C   0  0  0  0  0  0  0  0  0  0  0  0
  -19.8616  -26.4120   21.5954 C   0  0  0  0  0  0  0  0  0  0  0  0
  -21.9809  -21.2662   15.2559 C   0  0  0  0  0  0  0  0  0  0  0  0
  -22.1447  -23.5835   16.7887 C   0  0  0  0  0  0  0  0  0  0  0  0
  -25.3330  -28.3715   18.8901 C   0  0  0  0  0  0  0  0  0  0  0  0
  -19.5835  -25.0665   21.3550 C   0  0  0  0  0  0  0  0  0  0  0  0
  -24.2024  -13.1998   20.7089 C   0  0  0  0  0  0  0  0  0  0  0  0
  -25.7036  -14.9116   19.9005 C   0  0  0  0  0  0  0  0  0  0  0  0
  -25.0767  -29.2992   19.8988 C   0  0  0  0  0  0  0  0  0  0  0  0
  -28.0515  -12.7111   20.9328 C   0  0  0  0  0  0  0  0  0  0  0  0
  -29.4295  -12.8227   21.1180 C   0  0  0  0  0  0  0  0  0  0  0  0
  -26.3896  -27.9822   21.4354 C   0  0  0  0  0  0  0  0  0  0  0  0
  -21.0681  -24.4381   23.1545 C   0  0  0  0  0  0  0  0  0  0  0  0
  -29.7408  -12.9497   18.7255 C   0  0  0  0  0  0  0  0  0  0  0  0
  -23.7369  -15.5268   21.1616 C   0  0  0  0  0  0  0  0  0  0  0  0
  -20.7431  -26.7706   22.6153 C   0  0  0  0  0  0  0  0  0  0  0  0
  -22.9947  -17.0713   23.0514 C   0  0  0  0  0  0  0  0  0  0  0  0
  -22.8163  -21.2873   16.3838 C   0  0  0  0  0  0  0  0  0  0  0  0
  -26.1118  -27.2346   19.1498 C   0  0  0  0  0  0  0  0  0  0  0  0
  -22.8925  -22.4553   17.1664 C   0  0  0  0  0  0  0  0  0  0  0  0
  -26.6564  -27.0429   20.4276 C   0  0  0  0  0  0  0  0  0  0  0  0
  -20.1867  -24.0796   22.1346 C   0  0  0  0  0  0  0  0  0  0  0  0
  -21.3463  -25.7837   23.3948 C   0  0  0  0  0  0  0  0  0  0  0  0
  -25.3584  -13.5653   20.0191 C   0  0  0  0  0  0  0  0  0  0  0  0
  -25.6026  -29.1032   21.1724 C   0  0  0  0  0  0  0  0  0  0  0  0
  -27.5182  -12.7186   19.6439 C   0  0  0  0  0  0  0  0  0  0  0  0
  -30.2742  -12.9421   20.0144 C   0  0  0  0  0  0  0  0  0  0  0  0
  -28.3628  -12.8380   18.5403 C   0  0  0  0  0  0  0  0  0  0  0  0
  -22.8995  -16.5405   21.7511 C   0  0  0  0  0  0  0  0  0  0  0  0
  -21.9803  -17.9947   23.1205 C   0  0  0  0  0  0  0  0  0  0  0  0
  -21.0204  -28.2020   22.8492 C   0  0  0  0  0  0  0  0  0  0  0  0
  -23.9177  -16.7579   24.1029 C   0  0  0  0  0  0  0  0  0  0  0  0
  -25.5993  -24.0986   19.0705 C   0  0  0  0  0  0  0  0  0  0  0  0
  -25.6020  -29.7012   24.5202 C   0  0  0  0  0  0  0  0  0  0  0  0
  -28.7842  -23.9565   19.6694 C   0  0  0  0  0  0  0  0  0  0  0  0
  -31.5671  -25.4821   20.9243 C   0  0  0  0  0  0  0  0  0  0  0  0
  -19.0520  -22.1875   20.9186 C   0  0  0  0  0  0  0  0  0  0  0  0
  -23.5573  -20.0293   16.7620 C   0  0  0  0  0  0  0  0  0  0  0  0
  -26.4012  -26.2571   18.0439 C   0  0  0  0  0  0  0  0  0  0  0  0
  -27.5156  -25.8493   20.7526 C   0  0  0  0  0  0  0  0  0  0  0  0
  -24.6895  -20.2655   17.7584 C   0  0  0  0  0  0  0  0  0  0  0  0
  -18.1163  -18.8845   19.9741 C   0  0  0  0  0  0  0  0  0  0  0  0
  -24.2172  -21.1587   18.9012 C   0  0  0  0  0  0  0  0  0  0  0  0
  -19.2851  -18.0239   20.4592 C   0  0  0  0  0  0  0  0  0  0  0  0
  -18.5891  -20.2386   19.4480 C   0  0  0  0  0  0  0  0  0  0  0  0
  -20.6079  -20.1404   20.8565 C   0  0  0  0  0  0  0  0  0  0  0  0
  -23.7884  -22.5369   18.3833 C   0  0  1  0  0  0  0  0  0  0  0  0
  -26.7809  -24.8710   18.5558 C   0  0  1  0  0  0  0  0  0  0  0  0
  -20.1752  -18.7923   21.4557 C   0  0  2  0  0  0  0  0  0  0  0  0
  -25.5000  -28.6754   25.6201 C   0  0  0  0  0  0  0  0  0  0  0  0
  -34.0177  -25.1022   21.3088 C   0  0  0  0  0  0  0  0  0  0  0  0
  -28.1301  -22.1590   22.0466 C   0  0  0  0  0  0  0  0  0  0  0  0
  -30.4366  -22.5914   22.9191 C   0  0  0  0  0  0  0  0  0  0  0  0
  -30.1296  -21.4505   20.7221 C   0  0  0  0  0  0  0  0  0  0  0  0
  -32.3114  -27.7538   19.1795 C   0  0  0  0  0  0  0  0  0  0  0  0
  -23.3803  -30.3205   23.5086 C   0  0  0  0  0  0  0  0  0  0  0  0
  -22.4120  -30.1770   22.3399 C   0  0  0  0  0  0  0  0  0  0  0  0
  -24.6769  -29.5296   23.3211 C   0  0  1  0  0  0  0  0  0  1  0  0
  -29.6375  -23.9229   20.9143 C   0  0  1  0  0  0  0  0  0  0  0  0
  -32.9654  -25.6508   20.3577 C   0  0  2  0  0  0  0  0  0  0  0  0
  -29.5657  -22.5526   21.6452 C   0  0  0  0  0  0  0  0  0  0  0  0
  -21.9031  -17.0814   21.0450 N   0  0  0  0  0  0  0  0  0  0  0  0
  -21.3629  -17.9618   21.9048 N   0  0  0  0  0  0  0  0  0  0  0  0
  -27.7647  -24.9186   19.6394 N   0  0  0  0  0  0  0  0  0  0  0  0
  -19.4230  -20.9105   20.4469 N   0  0  0  0  0  0  0  0  0  0  0  0
  -22.2405  -26.1281   24.4323 N   0  0  0  0  0  0  0  0  0  0  0  0
  -21.5650  -18.8234   24.1019 N   0  0  0  0  0  0  0  0  0  0  0  0
  -20.2410  -28.8609   23.7068 N   0  0  0  0  0  0  0  0  0  0  0  0
  -24.8975  -15.7847   23.8638 N   0  0  0  0  0  0  0  0  0  0  0  0
  -19.9030  -22.7130   21.8903 N   0  0  0  0  0  0  0  0  0  0  0  0
  -24.9488  -23.3553   18.1042 N   0  0  0  0  0  0  0  0  0  0  0  0
  -30.9816  -24.3086   20.4983 N   0  0  0  0  0  0  0  0  0  0  0  0
  -22.0377  -28.7706   22.1892 N   0  3  0  0  0  0  0  0  0  0  0  0
  -33.2559  -27.0923   20.1162 N   0  3  0  0  0  0  0  0  0  0  0  0
  -23.8645  -17.3123   25.2269 O   0  0  0  0  0  0  0  0  0  0  0  0
  -25.3009  -24.1704   20.2569 O   0  0  0  0  0  0  0  0  0  0  0  0
  -26.4039  -30.6322   24.6007 O   0  0  0  0  0  0  0  0  0  0  0  0
  -29.0183  -23.1632   18.7542 O   0  0  0  0  0  0  0  0  0  0  0  0
  -31.0478  -26.3069   21.6730 O   0  0  0  0  0  0  0  0  0  0  0  0
  -18.0378  -22.7601   20.5117 O   0  0  0  0  0  0  0  0  0  0  0  0
  -26.1499  -12.6085   19.4617 O   0  0  0  0  0  0  0  0  0  0  0  0
  -25.3535  -30.0069   22.1589 O   0  0  0  0  0  0  0  0  0  1  0  0
  -31.5973  -13.0508   20.1925 F   0  0  0  0  0  0  0  0  0  0  0  0
  -27.8562  -12.8470   17.2997 F   0  0  0  0  0  0  0  0  0  0  0  0
  1  2  1  0  0  0  0
  1  6  2  0  0  0  0
  2  7  2  0  0  0  0
  3 10  2  0  0  0  0
  3 18  1  0  0  0  0
  4 11  1  0  0  0  0
  4 18  2  0  0  0  0
  5  9  2  0  0  0  0
  5 19  1  0  0  0  0
  6 21  1  0  0  0  0
  7 23  1  0  0  0  0
  8 12  2  0  0  0  0
  8 22  1  0  0  0  0
  9 25  1  0  0  0  0
 10 27  1  0  0  0  0
 11 27  2  0  0  0  0
 12 28  1  0  0  0  0
 13 14  2  0  0  0  0
 13 29  1  0  0  0  0
 14 30  1  0  0  0  0
 15 24  1  0  0  0  0
 15 28  2  0  0  0  0
 16 25  2  0  0  0  0
 16 26  1  0  0  0  0
 17 30  2  0  0  0  0
 17 31  1  0  0  0  0
 18 32  1  0  0  0  0
 19 26  2  0  0  0  0
 19 34  1  0  0  0  0
 20 32  1  0  0  0  0
 20 33  2  0  0  0  0
 20 35  1  0  0  0  0
 21 23  2  0  0  0  0
 21 41  1  0  0  0  0
 22 24  2  0  0  0  0
 22 42  1  0  0  0  0
 23 50  1  0  0  0  0
 24 43  1  0  0  0  0
 25 73  1  0  0  0  0
 26 69  1  0  0  0  0
 27 84  1  0  0  0  0
 28 85  1  0  0  0  0
 29 31  2  0  0  0  0
 29 84  1  0  0  0  0
 30 86  1  0  0  0  0
 31 87  1  0  0  0  0
 32 65  2  0  0  0  0
 33 66  1  0  0  0  0
 33 70  1  0  0  0  0
 34 71  1  0  0  0  0
 34 76  2  0  0  0  0
 35 72  1  0  0  0  0
 35 78  2  0  0  0  0
 36 51  1  0  0  0  0
 36 74  1  0  0  0  0
 36 79  2  0  0  0  0
 37 53  1  0  0  0  0
 37 61  1  0  0  0  0
 37 80  2  0  0  0  0
 38 62  1  0  0  0  0
 38 67  1  0  0  0  0
 38 81  2  0  0  0  0
 39 63  1  0  0  0  0
 39 75  1  0  0  0  0
 39 82  2  0  0  0  0
 40 68  1  0  0  0  0
 40 73  1  0  0  0  0
 40 83  2  0  0  0  0
 41 44  1  0  0  0  0
 42 51  1  0  0  0  0
 43 67  1  0  0  0  0
 44 46  1  0  0  0  0
 45 47  1  0  0  0  0
 45 48  1  0  0  0  0
 46 50  1  0  0  0  0
 47 52  1  0  0  0  0
 48 68  1  0  0  0  0
 49 52  1  0  0  0  0
 49 68  1  0  0  0  0
 50 74  1  0  0  0  0
 51 67  1  0  0  0  0
 52 66  1  0  0  0  0
 54 63  1  0  0  0  0
 55 64  1  0  0  0  0
 56 64  1  0  0  0  0
 57 64  1  0  0  0  0
 58 77  1  0  0  0  0
 59 60  1  0  0  0  0
 59 61  1  0  0  0  0
 60 76  1  0  0  0  0
 61 85  1  0  0  0  0
 62 64  1  0  0  0  0
 62 75  1  0  0  0  0
 63 77  1  0  0  0  0
 65 66  1  0  0  0  0
M  CHG  2  76   1  77   1
M  ISO  4  40 100  61 101  73 100  85 101
M  END
> <Batch ID>
0153

> <Smiles>
CNC(C)C(=O)NC(C(=O)N1Cc2cc([101O:1][101CH:1](CCNC(=N)c3ccc([100NH:0][100C:0](=O)N4CCCC(n5nc(-c6ccc(Oc7ccc(F)cc7F)cc6)c(C(N)=O)c5N)C4)cc3N)C(C)=O)ccc2CC1C(=O)NC1CCCc2ccccc21)C(C)(C)C

> <Shape>
0.223

> <Color>
0.062

> <Negative vol penalty>
0.000

$$$$

  -OEChem-04052303303D

 86 95  0     1  0  0  0  0  0999 V2000
  -26.7237  -35.5147   22.6888 C   0  0  0  0  0  0  0  0  0  0  0  0
  -27.1145  -34.2923   23.2258 C   0  0  0  0  0  0  0  0  0  0  0  0
  -23.1978   -9.7506   20.0346 C   0  0  0  0  0  0  0  0  0  0  0  0
  -23.8495   -9.9770   22.3500 C   0  0  0  0  0  0  0  0  0  0  0  0
  -25.6021  -35.5856   21.8636 C   0  0  0  0  0  0  0  0  0  0  0  0
  -26.3832  -33.1402   22.9390 C   0  0  0  0  0  0  0  0  0  0  0  0
  -28.5777  -27.4656   22.2396 C   0  0  0  0  0  0  0  0  0  0  0  0
  -22.4956   -8.5864   20.3460 C   0  0  0  0  0  0  0  0  0  0  0  0
  -23.1472   -8.8127   22.6615 C   0  0  0  0  0  0  0  0  0  0  0  0
  -28.6482  -26.3741   23.1041 C   0  0  0  0  0  0  0  0  0  0  0  0
  -19.5219   -7.7661   21.7306 C   0  0  0  0  0  0  0  0  0  0  0  0
  -18.2423   -7.6182   21.1956 C   0  0  0  0  0  0  0  0  0  0  0  0
  -31.3781  -18.9701   23.9563 C   0  0  0  0  0  0  0  0  0  0  0  0
  -29.4984  -17.8916   22.8884 C   0  0  0  0  0  0  0  0  0  0  0  0
  -26.6045  -25.5043   22.1629 C   0  0  0  0  0  0  0  0  0  0  0  0
  -31.7432  -17.1057   22.4637 C   0  0  0  0  0  0  0  0  0  0  0  0
  -18.9492   -5.6054   20.0615 C   0  0  0  0  0  0  0  0  0  0  0  0
  -23.8748  -10.4459   21.0366 C   0  0  0  0  0  0  0  0  0  0  0  0
  -30.0033  -18.8726   23.7418 C   0  0  0  0  0  0  0  0  0  0  0  0
  -24.1083  -12.9671   20.7253 C   0  0  0  0  0  0  0  0  0  0  0  0
  -24.8623  -34.4322   21.5587 C   0  0  0  0  0  0  0  0  0  0  0  0
  -27.5124  -27.5905   21.3363 C   0  0  0  0  0  0  0  0  0  0  0  0
  -25.2499  -33.1960   22.1100 C   0  0  0  0  0  0  0  0  0  0  0  0
  -26.5241  -26.5970   21.2862 C   0  0  0  0  0  0  0  0  0  0  0  0
  -32.2481  -18.0867   23.3171 C   0  0  0  0  0  0  0  0  0  0  0  0
  -30.3684  -17.0081   22.2493 C   0  0  0  0  0  0  0  0  0  0  0  0
  -22.4702   -8.1175   21.6594 C   0  0  0  0  0  0  0  0  0  0  0  0
  -27.6601  -25.3947   23.0678 C   0  0  0  0  0  0  0  0  0  0  0  0
  -20.5152   -6.8337   21.4311 C   0  0  0  0  0  0  0  0  0  0  0  0
  -17.9559   -6.5378   20.3611 C   0  0  0  0  0  0  0  0  0  0  0  0
  -20.2289   -5.7533   20.5966 C   0  0  0  0  0  0  0  0  0  0  0  0
  -24.6009  -11.6483   20.7154 C   0  0  0  0  0  0  0  0  0  0  0  0
  -25.1815  -13.7372   20.3489 C   0  0  0  0  0  0  0  0  0  0  0  0
  -27.8875  -21.9546   24.3526 C   0  0  0  0  0  0  0  0  0  0  0  0
  -29.0840  -19.8060   24.4170 C   0  0  0  0  0  0  0  0  0  0  0  0
  -22.7980  -13.4525   21.0462 C   0  0  0  0  0  0  0  0  0  0  0  0
  -25.1832  -29.7076   20.8936 C   0  0  0  0  0  0  0  0  0  0  0  0
  -24.5725  -27.9038   18.2676 C   0  0  0  0  0  0  0  0  0  0  0  0
  -24.8305  -24.8805   16.7055 C   0  0  0  0  0  0  0  0  0  0  0  0
  -30.5813  -15.0569   20.6702 C   0  0  0  0  0  0  0  0  0  0  0  0
  -23.6296  -34.5663   20.7001 C   0  0  0  0  0  0  0  0  0  0  0  0
  -27.4650  -28.7603   20.3920 C   0  0  0  0  0  0  0  0  0  0  0  0
  -25.3706  -26.6739   20.3209 C   0  0  0  0  0  0  0  0  0  0  0  0
  -23.1280  -33.2367   20.1426 C   0  0  0  0  0  0  0  0  0  0  0  0
  -29.6872  -12.4110   18.4617 C   0  0  0  0  0  0  0  0  0  0  0  0
  -23.0938  -32.1769   21.2391 C   0  0  0  0  0  0  0  0  0  0  0  0
  -28.2437  -12.0852   18.8520 C   0  0  0  0  0  0  0  0  0  0  0  0
  -29.0768  -22.8480   22.5155 C   0  0  0  0  0  0  0  0  0  0  0  0
  -30.5344  -12.7788   19.6785 C   0  0  0  0  0  0  0  0  0  0  0  0
  -29.2939  -21.3394   22.5104 C   0  0  0  0  0  0  0  0  0  0  0  0
  -28.5350  -13.5178   20.9135 C   0  0  0  0  0  0  0  0  0  0  0  0
  -24.4969  -31.9200   21.8021 C   0  0  1  0  0  0  0  0  0  0  0  0
  -27.7978  -23.0549   23.3258 C   0  0  2  0  0  0  0  0  0  1  0  0
  -26.0616  -29.0487   19.8680 C   0  0  1  0  0  0  0  0  0  0  0  0
  -27.6265  -13.2044   19.7135 C   0  0  2  0  0  0  0  0  0  0  0  0
  -24.2026  -23.7007   14.5815 C   0  0  0  0  0  0  0  0  0  0  0  0
  -21.6929  -27.6730   19.2498 C   0  0  0  0  0  0  0  0  0  0  0  0
  -21.3779  -25.7630   17.6621 C   0  0  0  0  0  0  0  0  0  0  0  0
  -21.9291  -28.0327   16.7863 C   0  0  0  0  0  0  0  0  0  0  0  0
  -27.6629  -24.3722   16.0141 C   0  0  0  0  0  0  0  0  0  0  0  0
  -23.7150  -26.6960   17.9761 C   0  0  1  0  0  0  0  0  0  0  0  0
  -25.2724  -24.5062   15.3023 C   0  0  2  0  0  0  0  0  0  0  0  0
  -22.1993  -27.0404   17.9382 C   0  0  0  0  0  0  0  0  0  0  0  0
  -25.8868  -11.5808   20.3606 N   0  0  0  0  0  0  0  0  0  0  0  0
  -26.2113  -12.8669   20.1440 N   0  0  0  0  0  0  0  0  0  0  0  0
  -28.7660  -20.9443   23.8269 N   0  0  0  0  0  0  0  0  0  0  0  0
  -25.3652  -27.8402   19.4224 N   0  0  0  0  0  0  0  0  0  0  0  0
  -29.8898  -13.8479   20.4442 N   0  0  0  0  0  0  0  0  0  0  0  0
  -33.6383  -18.1856   23.5335 N   0  0  0  0  0  0  0  0  0  0  0  0
  -25.3351  -15.0673   20.1764 N   0  0  0  0  0  0  0  0  0  0  0  0
  -21.8133  -12.5251   21.4132 N   0  0  0  0  0  0  0  0  0  0  0  0
  -29.8559  -16.0117   21.3820 N   0  0  0  0  0  0  0  0  0  0  0  0
  -25.2599  -31.0873   20.8971 N   0  0  0  0  0  0  0  0  0  0  0  0
  -24.2281  -26.1204   16.7376 N   0  0  0  0  0  0  0  0  0  0  0  0
  -28.5877  -19.4868   25.6086 N   0  3  0  0  0  0  0  0  0  0  0  0
  -26.5199  -23.6924   15.3519 N   0  3  0  0  0  0  0  0  0  0  0  0
  -27.3378  -21.8793   25.4363 O   0  0  0  0  0  0  0  0  0  0  0  0
  -22.5044  -14.6709   20.9927 O   0  0  0  0  0  0  0  0  0  0  0  0
  -24.4862  -29.0156   21.6264 O   0  0  0  0  0  0  0  0  0  0  0  0
  -24.5455  -28.8652   17.4953 O   0  0  0  0  0  0  0  0  0  0  0  0
  -24.9991  -24.1448   17.6755 O   0  0  0  0  0  0  0  0  0  0  0  0
  -31.7222  -15.2423   20.2389 O   0  0  0  0  0  0  0  0  0  0  0  0
  -21.7849   -6.9816   21.9637 O   0  0  0  0  0  0  0  0  0  0  0  0
  -27.7262  -24.3285   23.9109 O   0  0  0  0  0  0  0  0  0  1  0  0
  -16.7267   -6.3950   19.8485 F   0  0  0  0  0  0  0  0  0  0  0  0
  -21.1787   -4.8537   20.3062 F   0  0  0  0  0  0  0  0  0  0  0  0
  1  2  1  0  0  0  0
  1  5  2  0  0  0  0
  2  6  2  0  0  0  0
  3  8  2  0  0  0  0
  3 18  1  0  0  0  0
  4  9  1  0  0  0  0
  4 18  2  0  0  0  0
  5 21  1  0  0  0  0
  6 23  1  0  0  0  0
  7 10  2  0  0  0  0
  7 22  1  0  0  0  0
  8 27  1  0  0  0  0
  9 27  2  0  0  0  0
 10 28  1  0  0  0  0
 11 12  2  0  0  0  0
 11 29  1  0  0  0  0
 12 30  1  0  0  0  0
 13 19  1  0  0  0  0
 13 25  2  0  0  0  0
 14 19  2  0  0  0  0
 14 26  1  0  0  0  0
 15 24  1  0  0  0  0
 15 28  2  0  0  0  0
 16 25  1  0  0  0  0
 16 26  2  0  0  0  0
 17 30  2  0  0  0  0
 17 31  1  0  0  0  0
 18 32  1  0  0  0  0
 19 35  1  0  0  0  0
 20 32  1  0  0  0  0
 20 33  2  0  0  0  0
 20 36  1  0  0  0  0
 21 23  2  0  0  0  0
 21 41  1  0  0  0  0
 22 24  2  0  0  0  0
 22 42  1  0  0  0  0
 23 52  1  0  0  0  0
 24 43  1  0  0  0  0
 25 69  1  0  0  0  0
 26 72  1  0  0  0  0
 27 83  1  0  0  0  0
 28 84  1  0  0  0  0
 29 31  2  0  0  0  0
 29 83  1  0  0  0  0
 30 85  1  0  0  0  0
 31 86  1  0  0  0  0
 32 64  2  0  0  0  0
 33 65  1  0  0  0  0
 33 70  1  0  0  0  0
 34 53  1  0  0  0  0
 34 66  1  0  0  0  0
 34 77  2  0  0  0  0
 35 66  1  0  0  0  0
 35 75  2  0  0  0  0
 36 71  1  0  0  0  0
 36 78  2  0  0  0  0
 37 54  1  0  0  0  0
 37 73  1  0  0  0  0
 37 79  2  0  0  0  0
 38 61  1  0  0  0  0
 38 67  1  0  0  0  0
 38 80  2  0  0  0  0
 39 62  1  0  0  0  0
 39 74  1  0  0  0  0
 39 81  2  0  0  0  0
 40 68  1  0  0  0  0
 40 72  1  0  0  0  0
 40 82  2  0  0  0  0
 41 44  1  0  0  0  0
 42 54  1  0  0  0  0
 43 67  1  0  0  0  0
 44 46  1  0  0  0  0
 45 47  1  0  0  0  0
 45 49  1  0  0  0  0
 46 52  1  0  0  0  0
 47 55  1  0  0  0  0
 48 50  1  0  0  0  0
 48 53  1  0  0  0  0
 49 68  1  0  0  0  0
 50 66  1  0  0  0  0
 51 55  1  0  0  0  0
 51 68  1  0  0  0  0
 52 73  1  0  0  0  0
 53 84  1  0  0  0  0
 54 67  1  0  0  0  0
 55 65  1  0  0  0  0
 56 62  1  0  0  0  0
 57 63  1  0  0  0  0
 58 63  1  0  0  0  0
 59 63  1  0  0  0  0
 60 76  1  0  0  0  0
 61 63  1  0  0  0  0
 61 74  1  0  0  0  0
 62 76  1  0  0  0  0
 64 65  1  0  0  0  0
M  CHG  2  75   1  76   1
M  ISO  4  40 100  53 101  72 100  84 101
M  END
> <Batch ID>
0153

> <Smiles>
CNC(C)C(=O)NC(C(=O)N1Cc2cc([101O:1][101CH:1]3CCN(C(=N)c4cc(N)cc([100NH:0][100C:0](=O)N5CCCC(n6nc(-c7ccc(Oc8ccc(F)cc8F)cc7)c(C(N)=O)c6N)C5)c4)C3=O)ccc2CC1C(=O)NC1CCCc2ccccc21)C(C)(C)C

> <Shape>
0.243

> <Color>
0.186

> <Negative vol penalty>
0.000

$$$$

  -OEChem-04052303303D

 82 90  0     1  0  0  0  0  0999 V2000
  -16.3683  -28.8352   23.5168 C   0  0  0  0  0  0  0  0  0  0  0  0
  -17.4459  -27.9685   23.6679 C   0  0  0  0  0  0  0  0  0  0  0  0
  -22.9350  -10.3901   21.1814 C   0  0  0  0  0  0  0  0  0  0  0  0
  -24.6644   -8.9310   22.0283 C   0  0  0  0  0  0  0  0  0  0  0  0
  -16.5929  -30.1970   23.3189 C   0  0  0  0  0  0  0  0  0  0  0  0
  -18.7489  -28.4628   23.6200 C   0  0  0  0  0  0  0  0  0  0  0  0
  -21.6811  -26.5692   27.2889 C   0  0  0  0  0  0  0  0  0  0  0  0
  -22.0941   -9.2913   21.0052 C   0  0  0  0  0  0  0  0  0  0  0  0
  -23.8235   -7.8321   21.8521 C   0  0  0  0  0  0  0  0  0  0  0  0
  -22.1725  -25.2770   27.1081 C   0  0  0  0  0  0  0  0  0  0  0  0
  -21.2138   -6.4114   23.4620 C   0  0  0  0  0  0  0  0  0  0  0  0
  -21.1409   -5.4804   24.4981 C   0  0  0  0  0  0  0  0  0  0  0  0
  -26.1029  -18.7668   22.2362 C   0  0  0  0  0  0  0  0  0  0  0  0
  -25.5127  -19.6616   23.1749 C   0  0  0  0  0  0  0  0  0  0  0  0
  -24.2892  -26.1881   26.3952 C   0  0  0  0  0  0  0  0  0  0  0  0
  -21.9313   -3.7549   23.0031 C   0  0  0  0  0  0  0  0  0  0  0  0
  -24.2201  -10.2100   21.6929 C   0  0  0  0  0  0  0  0  0  0  0  0
  -25.2070  -12.1502   23.0231 C   0  0  0  0  0  0  0  0  0  0  0  0
  -17.8990  -30.7097   23.2782 C   0  0  0  0  0  0  0  0  0  0  0  0
  -22.4880  -27.6825   27.0133 C   0  0  0  0  0  0  0  0  0  0  0  0
  -18.9912  -29.8325   23.4200 C   0  0  0  0  0  0  0  0  0  0  0  0
  -23.8066  -27.4933   26.5757 C   0  0  0  0  0  0  0  0  0  0  0  0
  -22.5383   -8.0123   21.3406 C   0  0  0  0  0  0  0  0  0  0  0  0
  -23.4757  -25.0863   26.6584 C   0  0  0  0  0  0  0  0  0  0  0  0
  -21.6454   -6.0141   22.1964 C   0  0  0  0  0  0  0  0  0  0  0  0
  -21.4997   -4.1521   24.2687 C   0  0  0  0  0  0  0  0  0  0  0  0
  -22.0042   -4.6859   21.9670 C   0  0  0  0  0  0  0  0  0  0  0  0
  -25.0895  -11.3446   21.8746 C   0  0  0  0  0  0  0  0  0  0  0  0
  -27.1414  -19.3520   21.5459 C   0  0  0  0  0  0  0  0  0  0  0  0
  -26.1583  -13.0838   22.6917 C   0  0  0  0  0  0  0  0  0  0  0  0
  -26.1230  -20.8967   23.1664 C   0  0  0  0  0  0  0  0  0  0  0  0
  -24.5180  -12.0622   24.2773 C   0  0  0  0  0  0  0  0  0  0  0  0
  -28.0082  -18.7648   20.4919 C   0  0  0  0  0  0  0  0  0  0  0  0
  -22.3295  -30.1188   24.9779 C   0  0  0  0  0  0  0  0  0  0  0  0
  -24.9357  -31.1474   26.6124 C   0  0  0  0  0  0  0  0  0  0  0  0
  -24.8857  -22.2407   24.8975 C   0  0  0  0  0  0  0  0  0  0  0  0
  -27.6185  -30.3702   28.5734 C   0  0  0  0  0  0  0  0  0  0  0  0
  -28.3998  -16.7167   19.1595 C   0  0  0  0  0  0  0  0  0  0  0  0
  -18.0931  -32.1820   23.0148 C   0  0  0  0  0  0  0  0  0  0  0  0
  -21.9519  -29.0696   27.2390 C   0  0  0  0  0  0  0  0  0  0  0  0
  -24.7201  -28.6550   26.2851 C   0  0  0  0  0  0  0  0  0  0  0  0
  -19.4959  -32.6812   23.3510 C   0  0  0  0  0  0  0  0  0  0  0  0
  -29.3001  -13.3257   18.7263 C   0  0  0  0  0  0  0  0  0  0  0  0
  -20.5494  -31.7339   22.7858 C   0  0  0  0  0  0  0  0  0  0  0  0
  -28.3004  -12.5713   19.6072 C   0  0  0  0  0  0  0  0  0  0  0  0
  -28.6535  -14.5235   18.0320 C   0  0  0  0  0  0  0  0  0  0  0  0
  -26.9473  -14.6966   19.7974 C   0  0  0  0  0  0  0  0  0  0  0  0
  -20.4187  -30.3344   23.3989 C   0  0  1  0  0  0  0  0  0  0  0  0
  -22.6925  -30.1344   26.4358 C   0  0  1  0  0  0  0  0  0  0  0  0
  -27.5671  -13.5232   20.5734 C   0  0  1  0  0  0  0  0  0  0  0  0
  -29.5894  -31.4177   29.7205 C   0  0  0  0  0  0  0  0  0  0  0  0
  -26.3730  -31.3743   23.9305 C   0  0  0  0  0  0  0  0  0  0  0  0
  -28.5394  -31.4891   25.1802 C   0  0  0  0  0  0  0  0  0  0  0  0
  -26.8141  -33.2597   25.5132 C   0  0  0  0  0  0  0  0  0  0  0  0
  -26.6677  -29.5138   31.2420 C   0  0  0  0  0  0  0  0  0  0  0  0
  -24.9461  -23.6458   25.4673 C   0  0  0  0  0  0  0  0  0  1  0  0
  -26.4269  -30.9548   26.4775 C   0  0  1  0  0  0  0  0  0  0  0  0
  -28.1378  -30.9861   29.8600 C   0  0  2  0  0  0  0  0  0  0  0  0
  -27.0208  -31.7474   25.2789 C   0  0  0  0  0  0  0  0  0  0  0  0
  -25.9010  -11.7327   20.8873 N   0  0  0  0  0  0  0  0  0  0  0  0
  -26.5376  -12.7924   21.4144 N   0  0  0  0  0  0  0  0  0  0  0  0
  -24.1477  -29.9918   26.5151 N   0  0  0  0  0  0  0  0  0  0  0  0
  -27.9891  -15.3799   19.0161 N   0  0  0  0  0  0  0  0  0  0  0  0
  -26.6988  -14.1176   23.3711 N   0  0  0  0  0  0  0  0  0  0  0  0
  -23.5721  -11.0426   24.4500 N   0  0  0  0  0  0  0  0  0  0  0  0
  -25.8627  -22.0634   23.9238 N   0  0  0  0  0  0  0  0  0  0  0  0
  -27.7328  -17.4393   20.1550 N   0  0  0  0  0  0  0  0  0  0  0  0
  -20.9836  -30.3114   24.7311 N   0  0  0  0  0  0  0  0  0  0  0  0
  -27.0027  -31.3072   27.7708 N   0  0  0  0  0  0  0  0  0  0  0  0
  -28.0446  -30.0054   30.9783 N   0  3  0  0  0  0  0  0  0  0  0  0
  -24.7229  -12.8742   25.2113 O   0  0  0  0  0  0  0  0  0  0  0  0
  -28.8659  -19.4669   19.9632 O   0  0  0  0  0  0  0  0  0  0  0  0
  -23.2058  -29.9463   24.1388 O   0  0  0  0  0  0  0  0  0  0  0  0
  -24.4872  -32.2803   26.8044 O   0  0  0  0  0  0  0  0  0  0  0  0
  -24.0596  -21.4233   25.2899 O   0  0  0  0  0  0  0  0  0  0  0  0
  -27.7496  -29.1780   28.3053 O   0  0  0  0  0  0  0  0  0  0  0  0
  -29.3081  -17.2134   18.4860 O   0  0  0  0  0  0  0  0  0  0  0  0
  -21.7179   -6.9398   21.1690 O   0  0  0  0  0  0  0  0  0  0  0  0
  -23.9576  -23.8261   26.4805 O   0  0  0  0  0  0  0  0  0  1  0  0
  -21.4311   -3.2585   25.2641 F   0  0  0  0  0  0  0  0  0  0  0  0
  -22.4207   -4.2986   20.7536 F   0  0  0  0  0  0  0  0  0  0  0  0
  -27.4016  -20.9738   22.0300 S   0  0  0  0  0  0  0  0  0  0  0  0
  1  2  1  0  0  0  0
  1  5  2  0  0  0  0
  2  6  2  0  0  0  0
  3  8  2  0  0  0  0
  3 17  1  0  0  0  0
  4  9  1  0  0  0  0
  4 17  2  0  0  0  0
  5 19  1  0  0  0  0
  6 21  1  0  0  0  0
  7 10  2  0  0  0  0
  7 20  1  0  0  0  0
  8 23  1  0  0  0  0
  9 23  2  0  0  0  0
 10 24  1  0  0  0  0
 11 12  2  0  0  0  0
 11 25  1  0  0  0  0
 12 26  1  0  0  0  0
 13 14  1  0  0  0  0
 13 29  2  0  0  0  0
 14 31  2  0  0  0  0
 15 22  1  0  0  0  0
 15 24  2  0  0  0  0
 16 26  2  0  0  0  0
 16 27  1  0  0  0  0
 17 28  1  0  0  0  0
 18 28  1  0  0  0  0
 18 30  2  0  0  0  0
 18 32  1  0  0  0  0
 19 21  2  0  0  0  0
 19 39  1  0  0  0  0
 20 22  2  0  0  0  0
 20 40  1  0  0  0  0
 21 48  1  0  0  0  0
 22 41  1  0  0  0  0
 23 78  1  0  0  0  0
 24 79  1  0  0  0  0
 25 27  2  0  0  0  0
 25 78  1  0  0  0  0
 26 80  1  0  0  0  0
 27 81  1  0  0  0  0
 28 60  2  0  0  0  0
 29 33  1  0  0  0  0
 29 82  1  0  0  0  0
 30 61  1  0  0  0  0
 30 64  1  0  0  0  0
 31 66  1  0  0  0  0
 31 82  1  0  0  0  0
 32 65  1  0  0  0  0
 32 71  2  0  0  0  0
 33 67  1  0  0  0  0
 33 72  2  0  0  0  0
 34 49  1  0  0  0  0
 34 68  1  0  0  0  0
 34 73  2  0  0  0  0
 35 57  1  0  0  0  0
 35 62  1  0  0  0  0
 35 74  2  0  0  0  0
 36 56  1  0  0  0  0
 36 66  1  0  0  0  0
 36 75  2  0  0  0  0
 37 58  1  0  0  0  0
 37 69  1  0  0  0  0
 37 76  2  0  0  0  0
 38 63  1  0  0  0  0
 38 67  1  0  0  0  0
 38 77  2  0  0  0  0
 39 42  1  0  0  0  0
 40 49  1  0  0  0  0
 41 62  1  0  0  0  0
 42 44  1  0  0  0  0
 43 45  1  0  0  0  0
 43 46  1  0  0  0  0
 44 48  1  0  0  0  0
 45 50  1  0  0  0  0
 46 63  1  0  0  0  0
 47 50  1  0  0  0  0
 47 63  1  0  0  0  0
 48 68  1  0  0  0  0
 49 62  1  0  0  0  0
 50 61  1  0  0  0  0
 51 58  1  0  0  0  0
 52 59  1  0  0  0  0
 53 59  1  0  0  0  0
 54 59  1  0  0  0  0
 55 70  1  0  0  0  0
 56 79  1  0  0  0  0
 57 59  1  0  0  0  0
 57 69  1  0  0  0  0
 58 70  1  0  0  0  0
 60 61  1  0  0  0  0
M  CHG  1  70   1
M  ISO  4  38 100  56 101  67 100  79 101
M  END
> <Batch ID>
0153

> <Smiles>
CNC(C)C(=O)NC(C(=O)N1Cc2cc([101O:1][101CH2:1]C(=O)Nc3ccc(C(=O)[100NH:0][100C:0](=O)N4CCCC(n5nc(-c6ccc(Oc7ccc(F)cc7F)cc6)c(C(N)=O)c5N)C4)s3)ccc2CC1C(=O)NC1CCCc2ccccc21)C(C)(C)C

> <Shape>
0.237

> <Color>
0.110

> <Negative vol penalty>
0.000

$$$$

  -OEChem-04052303303D

 84 93  0     1  0  0  0  0  0999 V2000
  -18.6631  -31.0483   26.3426 C   0  0  0  0  0  0  0  0  0  0  0  0
  -20.0387  -30.8411   26.3474 C   0  0  0  0  0  0  0  0  0  0  0  0
  -28.4969  -20.1849   15.9799 C   0  0  0  0  0  0  0  0  0  0  0  0
  -26.3768  -10.7011   20.6381 C   0  0  0  0  0  0  0  0  0  0  0  0
  -25.8903  -11.7910   18.5375 C   0  0  0  0  0  0  0  0  0  0  0  0
  -17.8764  -30.4756   25.3440 C   0  0  0  0  0  0  0  0  0  0  0  0
  -20.6285  -30.0602   25.3540 C   0  0  0  0  0  0  0  0  0  0  0  0
  -28.5173  -21.4621   16.5401 C   0  0  0  0  0  0  0  0  0  0  0  0
  -26.6740  -29.4915   21.5534 C   0  0  0  0  0  0  0  0  0  0  0  0
  -28.9688  -19.0948   16.7112 C   0  0  0  0  0  0  0  0  0  0  0  0
  -25.0741  -10.2044   20.6821 C   0  0  0  0  0  0  0  0  0  0  0  0
  -24.5876  -11.2943   18.5815 C   0  0  0  0  0  0  0  0  0  0  0  0
  -27.6486  -28.5541   21.2139 C   0  0  0  0  0  0  0  0  0  0  0  0
  -23.3200   -7.6846   19.2655 C   0  0  0  0  0  0  0  0  0  0  0  0
  -23.1486   -6.3445   19.6126 C   0  0  0  0  0  0  0  0  0  0  0  0
  -29.4816  -20.5593   18.5631 C   0  0  0  0  0  0  0  0  0  0  0  0
  -26.2005  -27.6803   19.4939 C   0  0  0  0  0  0  0  0  0  0  0  0
  -21.8131   -7.0077   21.5136 C   0  0  0  0  0  0  0  0  0  0  0  0
  -26.7849  -11.4945   19.5659 C   0  0  0  0  0  0  0  0  0  0  0  0
  -29.2559  -11.3934   18.9402 C   0  0  0  0  0  0  0  0  0  0  0  0
  -29.0097  -21.6493   17.8317 C   0  0  0  0  0  0  0  0  0  0  0  0
  -18.4581  -29.6952   24.3324 C   0  0  0  0  0  0  0  0  0  0  0  0
  -25.4489  -29.5232   20.8718 C   0  0  0  0  0  0  0  0  0  0  0  0
  -19.8487  -29.4754   24.3417 C   0  0  0  0  0  0  0  0  0  0  0  0
  -25.2130  -28.6207   19.8250 C   0  0  0  0  0  0  0  0  0  0  0  0
  -29.4611  -19.2820   18.0028 C   0  0  0  0  0  0  0  0  0  0  0  0
  -24.1796  -10.5009   19.6537 C   0  0  0  0  0  0  0  0  0  0  0  0
  -27.4108  -27.6465   20.1859 C   0  0  0  0  0  0  0  0  0  0  0  0
  -22.7380   -8.6862   20.0425 C   0  0  0  0  0  0  0  0  0  0  0  0
  -22.3951   -6.0061   20.7366 C   0  0  0  0  0  0  0  0  0  0  0  0
  -21.9845   -8.3478   21.1665 C   0  0  0  0  0  0  0  0  0  0  0  0
  -28.1302  -12.0084   19.5202 C   0  0  0  0  0  0  0  0  0  0  0  0
  -30.2826  -12.2786   19.1608 C   0  0  0  0  0  0  0  0  0  0  0  0
  -28.4455  -23.9437   20.5622 C   0  0  0  0  0  0  0  0  0  0  0  0
  -29.3638  -10.1345   18.2625 C   0  0  0  0  0  0  0  0  0  0  0  0
  -22.4086  -29.1103   21.7023 C   0  0  0  0  0  0  0  0  0  0  0  0
  -21.8545  -30.0120   18.6359 C   0  0  0  0  0  0  0  0  0  0  0  0
  -23.0203  -30.2824   15.4399 C   0  0  0  0  0  0  0  0  0  0  0  0
  -30.4610  -18.1864   20.0390 C   0  0  0  0  0  0  0  0  0  0  0  0
  -17.5611  -29.0578   23.3010 C   0  0  0  0  0  0  0  0  0  0  0  0
  -24.4185  -30.5579   21.2324 C   0  0  0  0  0  0  0  0  0  0  0  0
  -23.9223  -28.6265   19.0487 C   0  0  0  0  0  0  0  0  0  0  0  0
  -18.3105  -28.5525   22.0709 C   0  0  0  0  0  0  0  0  0  0  0  0
  -31.7095  -15.6698   22.2264 C   0  0  0  0  0  0  0  0  0  0  0  0
  -19.5510  -27.7681   22.4863 C   0  0  0  0  0  0  0  0  0  0  0  0
  -31.0405  -14.3883   21.7241 C   0  0  0  0  0  0  0  0  0  0  0  0
  -30.7753  -16.8743   22.1258 C   0  0  0  0  0  0  0  0  0  0  0  0
  -29.5132  -15.8094   20.2976 C   0  0  0  0  0  0  0  0  0  0  0  0
  -30.4672  -23.4526   18.7496 C   0  0  0  0  0  0  0  0  0  0  0  0
  -29.0316  -23.0390   18.4407 C   0  0  2  0  0  0  0  0  0  0  0  0
  -20.5285  -28.6549   23.2671 C   0  0  1  0  0  0  0  0  0  0  0  0
  -29.6446  -24.8514   20.6127 C   0  0  2  0  0  0  0  0  0  0  0  0
  -23.0051  -30.1649   20.8136 C   0  0  1  0  0  0  0  0  0  0  0  0
  -30.4375  -14.5810   20.3188 C   0  0  2  0  0  0  0  0  0  0  0  0
  -22.3244  -31.0222   13.1452 C   0  0  0  0  0  0  0  0  0  0  0  0
  -20.2109  -27.4614   18.3148 C   0  0  0  0  0  0  0  0  0  0  0  0
  -20.3492  -27.7677   15.8338 C   0  0  0  0  0  0  0  0  0  0  0  0
  -19.2138  -29.4874   17.2396 C   0  0  0  0  0  0  0  0  0  0  0  0
  -25.1351  -32.3504   15.3388 C   0  0  0  0  0  0  0  0  0  0  0  0
  -29.2266  -26.2843   20.8955 C   0  0  0  0  0  0  0  0  0  1  0  0
  -21.7333  -29.2913   17.3150 C   0  0  1  0  0  0  0  0  0  0  0  0
  -22.9886  -31.4330   14.4501 C   0  0  2  0  0  0  0  0  0  0  0  0
  -20.4005  -28.5003   17.1915 C   0  0  0  0  0  0  0  0  0  0  0  0
  -28.4148  -13.1927   20.0682 N   0  0  0  0  0  0  0  0  0  0  0  0
  -28.1592  -23.1103   19.6235 N   0  0  0  0  0  0  0  0  0  0  0  0
  -29.7310  -13.3290   19.8336 N   0  0  0  0  0  0  0  0  0  0  0  0
  -22.9435  -29.6532   19.4430 N   0  0  0  0  0  0  0  0  0  0  0  0
  -30.2458  -16.9963   20.7658 N   0  0  0  0  0  0  0  0  0  0  0  0
  -31.5944  -12.2532   18.8430 N   0  0  0  0  0  0  0  0  0  0  0  0
  -28.2109   -9.3497   18.1231 N   0  0  0  0  0  0  0  0  0  0  0  0
  -29.9398  -18.1744   18.7457 N   0  0  0  0  0  0  0  0  0  0  0  0
  -21.2642  -29.5133   22.3637 N   0  0  0  0  0  0  0  0  0  0  0  0
  -21.9270  -30.3010   16.2799 N   0  0  0  0  0  0  0  0  0  0  0  0
  -30.4151  -24.8183   19.3370 N   0  3  0  0  0  0  0  0  0  0  0  0
  -24.3730  -31.8945   14.1478 N   0  3  0  0  0  0  0  0  0  0  0  0
  -30.4537   -9.7104   17.8088 O   0  0  0  0  0  0  0  0  0  0  0  0
  -22.9459  -28.0117   21.7808 O   0  0  0  0  0  0  0  0  0  0  0  0
  -21.0181  -30.8670   18.9374 O   0  0  0  0  0  0  0  0  0  0  0  0
  -23.9227  -29.4483   15.4630 O   0  0  0  0  0  0  0  0  0  0  0  0
  -31.0869  -19.1353   20.5183 O   0  0  0  0  0  0  0  0  0  0  0  0
  -22.9084  -10.0162   19.6962 O   0  0  0  0  0  0  0  0  0  0  0  0
  -28.3602  -26.7301   19.8529 O   0  0  0  0  0  0  0  0  0  1  0  0
  -22.2293   -4.7192   21.0690 F   0  0  0  0  0  0  0  0  0  0  0  0
  -21.4220   -9.3056   21.9162 F   0  0  0  0  0  0  0  0  0  0  0  0
  1  2  1  0  0  0  0
  1  6  2  0  0  0  0
  2  7  2  0  0  0  0
  3  8  2  0  0  0  0
  3 10  1  0  0  0  0
  4 11  2  0  0  0  0
  4 19  1  0  0  0  0
  5 12  1  0  0  0  0
  5 19  2  0  0  0  0
  6 22  1  0  0  0  0
  7 24  1  0  0  0  0
  8 21  1  0  0  0  0
  9 13  2  0  0  0  0
  9 23  1  0  0  0  0
 10 26  2  0  0  0  0
 11 27  1  0  0  0  0
 12 27  2  0  0  0  0
 13 28  1  0  0  0  0
 14 15  2  0  0  0  0
 14 29  1  0  0  0  0
 15 30  1  0  0  0  0
 16 21  2  0  0  0  0
 16 26  1  0  0  0  0
 17 25  1  0  0  0  0
 17 28  2  0  0  0  0
 18 30  2  0  0  0  0
 18 31  1  0  0  0  0
 19 32  1  0  0  0  0
 20 32  1  0  0  0  0
 20 33  2  0  0  0  0
 20 35  1  0  0  0  0
 21 50  1  0  0  0  0
 22 24  2  0  0  0  0
 22 40  1  0  0  0  0
 23 25  2  0  0  0  0
 23 41  1  0  0  0  0
 24 51  1  0  0  0  0
 25 42  1  0  0  0  0
 26 71  1  0  0  0  0
 27 81  1  0  0  0  0
 28 82  1  0  0  0  0
 29 31  2  0  0  0  0
 29 81  1  0  0  0  0
 30 83  1  0  0  0  0
 31 84  1  0  0  0  0
 32 64  2  0  0  0  0
 33 66  1  0  0  0  0
 33 69  1  0  0  0  0
 34 52  1  0  0  0  0
 34 65  2  0  0  0  0
 35 70  1  0  0  0  0
 35 76  2  0  0  0  0
 36 53  1  0  0  0  0
 36 72  1  0  0  0  0
 36 77  2  0  0  0  0
 37 61  1  0  0  0  0
 37 67  1  0  0  0  0
 37 78  2  0  0  0  0
 38 62  1  0  0  0  0
 38 73  1  0  0  0  0
 38 79  2  0  0  0  0
 39 68  1  0  0  0  0
 39 71  1  0  0  0  0
 39 80  2  0  0  0  0
 40 43  1  0  0  0  0
 41 53  1  0  0  0  0
 42 67  1  0  0  0  0
 43 45  1  0  0  0  0
 44 46  1  0  0  0  0
 44 47  1  0  0  0  0
 45 51  1  0  0  0  0
 46 54  1  0  0  0  0
 47 68  1  0  0  0  0
 48 54  1  0  0  0  0
 48 68  1  0  0  0  0
 49 50  1  0  0  0  0
 49 74  1  0  0  0  0
 50 65  1  0  0  0  0
 51 72  1  0  0  0  0
 52 60  1  0  0  0  0
 52 74  1  0  0  0  0
 53 67  1  0  0  0  0
 54 66  1  0  0  0  0
 55 62  1  0  0  0  0
 56 63  1  0  0  0  0
 57 63  1  0  0  0  0
 58 63  1  0  0  0  0
 59 75  1  0  0  0  0
 60 82  1  0  0  0  0
 61 63  1  0  0  0  0
 61 73  1  0  0  0  0
 62 75  1  0  0  0  0
 64 66  1  0  0  0  0
M  CHG  2  74   1  75   1
M  ISO  4  39 100  60 101  71 100  82 101
M  END
> <Batch ID>
0153

> <Smiles>
CNC(C)C(=O)NC(C(=O)N1Cc2cc([101O:1][101CH2:1]C3=NCC(c4cccc([100NH:0][100C:0](=O)N5CCCC(n6nc(-c7ccc(Oc8ccc(F)cc8F)cc7)c(C(N)=O)c6N)C5)c4)NC3)ccc2CC1C(=O)NC1CCCc2ccccc21)C(C)(C)C

> <Shape>
0.302

> <Color>
0.083

> <Negative vol penalty>
0.000

$$$$

  -OEChem-04052303303D

 87 96  0     1  0  0  0  0  0999 V2000
  -18.5572  -35.7167   19.5245 C   0  0  0  0  0  0  0  0  0  0  0  0
  -19.3888  -35.0364   18.6408 C   0  0  0  0  0  0  0  0  0  0  0  0
  -22.8451   -9.9725   20.1916 C   0  0  0  0  0  0  0  0  0  0  0  0
  -24.5024   -9.1077   21.7221 C   0  0  0  0  0  0  0  0  0  0  0  0
  -19.0551  -36.1562   20.7504 C   0  0  0  0  0  0  0  0  0  0  0  0
  -20.7193  -34.7959   18.9821 C   0  0  0  0  0  0  0  0  0  0  0  0
  -24.6452  -28.0529   19.3627 C   0  0  0  0  0  0  0  0  0  0  0  0
  -21.8720   -9.1762   20.7954 C   0  0  0  0  0  0  0  0  0  0  0  0
  -23.5293   -8.3114   22.3260 C   0  0  0  0  0  0  0  0  0  0  0  0
  -25.4023  -26.9094   19.6185 C   0  0  0  0  0  0  0  0  0  0  0  0
  -21.9479   -5.3930   21.6837 C   0  0  0  0  0  0  0  0  0  0  0  0
  -22.2749   -4.0646   21.9558 C   0  0  0  0  0  0  0  0  0  0  0  0
  -26.7292  -28.1347   21.2266 C   0  0  0  0  0  0  0  0  0  0  0  0
  -24.6942  -18.7412   20.5615 C   0  0  0  0  0  0  0  0  0  0  0  0
  -21.8855   -4.4508   24.3088 C   0  0  0  0  0  0  0  0  0  0  0  0
  -24.1603   -9.9382   20.6549 C   0  0  0  0  0  0  0  0  0  0  0  0
  -25.5756  -10.7276   18.6848 C   0  0  0  0  0  0  0  0  0  0  0  0
  -20.3898  -35.9125   21.1110 C   0  0  0  0  0  0  0  0  0  0  0  0
  -24.9176  -29.2390   20.0500 C   0  0  0  0  0  0  0  0  0  0  0  0
  -21.2359  -35.2337   20.2135 C   0  0  0  0  0  0  0  0  0  0  0  0
  -25.9661  -29.2799   20.9837 C   0  0  0  0  0  0  0  0  0  0  0  0
  -24.7361  -20.1545   20.6257 C   0  0  0  0  0  0  0  0  0  0  0  0
  -22.2140   -8.3457   21.8626 C   0  0  0  0  0  0  0  0  0  0  0  0
  -26.4419  -26.9503   20.5480 C   0  0  0  0  0  0  0  0  0  0  0  0
  -21.5898   -6.2503   22.7241 C   0  0  0  0  0  0  0  0  0  0  0  0
  -22.2436   -3.5935   23.2684 C   0  0  0  0  0  0  0  0  0  0  0  0
  -21.5586   -5.7793   24.0366 C   0  0  0  0  0  0  0  0  0  0  0  0
  -25.1661  -10.7601   20.0313 C   0  0  0  0  0  0  0  0  0  0  0  0
  -26.5469  -11.6948   18.5978 C   0  0  0  0  0  0  0  0  0  0  0  0
  -25.9644  -20.4766   21.1545 C   0  0  0  0  0  0  0  0  0  0  0  0
  -25.9000  -18.3005   21.0553 C   0  0  0  0  0  0  0  0  0  0  0  0
  -25.1187   -9.8974   17.6088 C   0  0  0  0  0  0  0  0  0  0  0  0
  -24.0178  -32.8362   20.6209 C   0  0  0  0  0  0  0  0  0  0  0  0
  -24.6648  -31.6328   23.3675 C   0  0  0  0  0  0  0  0  0  0  0  0
  -24.8288  -30.8692   26.6882 C   0  0  0  0  0  0  0  0  0  0  0  0
  -27.6701  -16.6470   21.7474 C   0  0  0  0  0  0  0  0  0  0  0  0
  -20.8955  -36.4483   22.4270 C   0  0  0  0  0  0  0  0  0  0  0  0
  -24.1679  -30.5112   19.7617 C   0  0  0  0  0  0  0  0  0  0  0  0
  -26.2455  -30.5870   21.6740 C   0  0  0  0  0  0  0  0  0  0  0  0
  -22.2161  -35.8247   22.8714 C   0  0  0  0  0  0  0  0  0  0  0  0
  -29.8798  -13.9026   21.2345 C   0  0  0  0  0  0  0  0  0  0  0  0
  -23.2075  -35.7915   21.7126 C   0  0  0  0  0  0  0  0  0  0  0  0
  -28.9599  -12.7842   20.7394 C   0  0  0  0  0  0  0  0  0  0  0  0
  -26.4489  -23.6604   22.9182 C   0  0  0  0  0  0  0  0  0  0  0  0
  -28.3609  -23.4117   21.2515 C   0  0  0  0  0  0  0  0  0  0  0  0
  -29.2008  -14.7676   22.2949 C   0  0  0  0  0  0  0  0  0  0  0  0
  -25.7427  -22.8587   21.8285 C   0  0  0  0  0  0  0  0  0  0  0  0
  -26.9733  -14.1938   21.4128 C   0  0  0  0  0  0  0  0  0  0  0  0
  -22.6782  -34.9320   20.5582 C   0  0  1  0  0  0  0  0  0  0  0  0
  -23.9647  -31.3881   21.0102 C   0  0  1  0  0  0  0  0  0  0  0  0
  -27.5904  -13.3354   20.2965 C   0  0  2  0  0  0  0  0  0  0  0  0
  -28.0164  -21.9085   21.2677 C   0  0  1  0  0  0  0  0  0  0  0  0
  -27.8114  -24.1998   22.4544 C   0  0  1  0  0  0  0  0  0  0  0  0
  -23.6713  -21.0859   20.2084 C   0  0  0  0  0  0  0  0  0  0  0  0
  -28.7920  -21.1594   22.3552 C   0  0  0  0  0  0  0  0  0  0  0  0
  -25.2653  -31.9100   28.9295 C   0  0  0  0  0  0  0  0  0  0  0  0
  -27.6524  -31.6899   22.7550 C   0  0  0  0  0  0  0  0  0  0  0  0
  -28.0832  -31.7985   25.2189 C   0  0  0  0  0  0  0  0  0  0  0  0
  -26.8239  -33.6339   24.0927 C   0  0  0  0  0  0  0  0  0  0  0  0
  -22.1259  -30.1686   27.6693 C   0  0  0  0  0  0  0  0  0  0  0  0
  -28.2668  -24.8237   24.6772 C   0  0  0  0  0  0  0  0  0  0  0  0
  -27.7229  -25.6899   22.1060 C   0  0  0  0  0  0  0  0  0  1  0  0
  -25.7088  -31.3897   24.4279 C   0  0  1  0  0  0  0  0  0  0  0  0
  -24.2072  -31.5292   27.9057 C   0  0  2  0  0  0  0  0  0  0  0  0
  -27.0519  -32.1067   24.1125 C   0  0  0  0  0  0  0  0  0  0  0  0
  -25.8236  -11.6754   20.7482 N   0  0  0  0  0  0  0  0  0  0  0  0
  -26.6562  -12.2269   19.8489 N   0  0  0  0  0  0  0  0  0  0  0  0
  -26.5644  -21.7023   21.4484 N   0  0  3  0  0  0  0  0  0  0  0  0
  -24.9808  -31.2293   22.0645 N   0  0  0  0  0  0  0  0  0  0  0  0
  -27.9112  -15.2579   21.8036 N   0  0  0  0  0  0  0  0  0  0  0  0
  -27.3098  -12.1334   17.5741 N   0  0  0  0  0  0  0  0  0  0  0  0
  -25.7646   -8.6732   17.3888 N   0  0  0  0  0  0  0  0  0  0  0  0
  -26.4217  -16.9951   21.2326 N   0  0  0  0  0  0  0  0  0  0  0  0
  -22.8440  -33.5259   20.8577 N   0  0  0  0  0  0  0  0  0  0  0  0
  -25.1034  -31.7853   25.6949 N   0  0  0  0  0  0  0  0  0  0  0  0
  -23.2350  -30.6056   28.5559 N   0  3  0  0  0  0  0  0  0  0  0  0
  -24.1766  -10.2388   16.8542 O   0  0  0  0  0  0  0  0  0  0  0  0
  -25.0480  -33.2958   20.1421 O   0  0  0  0  0  0  0  0  0  0  0  0
  -23.5995  -32.1709   23.6820 O   0  0  0  0  0  0  0  0  0  0  0  0
  -25.0522  -29.6622   26.6260 O   0  0  0  0  0  0  0  0  0  0  0  0
  -28.5197  -17.4680   22.1025 O   0  0  0  0  0  0  0  0  0  0  0  0
  -26.6800  -19.3521   21.4190 O   0  0  0  0  0  0  0  0  0  0  0  0
  -21.2647   -7.5687   22.4521 O   0  0  0  0  0  0  0  0  0  0  0  0
  -27.1741  -25.8292   20.7962 O   0  0  0  0  0  0  0  0  0  1  0  0
  -28.7171  -24.0797   23.5560 O   0  0  0  0  0  0  0  0  0  0  0  0
  -22.5561   -2.3174   23.5294 F   0  0  0  0  0  0  0  0  0  0  0  0
  -21.2142   -6.5979   25.0401 F   0  0  0  0  0  0  0  0  0  0  0  0
  1  2  1  0  0  0  0
  1  5  2  0  0  0  0
  2  6  2  0  0  0  0
  3  8  2  0  0  0  0
  3 16  1  0  0  0  0
  4  9  1  0  0  0  0
  4 16  2  0  0  0  0
  5 18  1  0  0  0  0
  6 20  1  0  0  0  0
  7 10  2  0  0  0  0
  7 19  1  0  0  0  0
  8 23  1  0  0  0  0
  9 23  2  0  0  0  0
 10 24  1  0  0  0  0
 11 12  2  0  0  0  0
 11 25  1  0  0  0  0
 12 26  1  0  0  0  0
 13 21  1  0  0  0  0
 13 24  2  0  0  0  0
 14 22  1  0  0  0  0
 14 31  2  0  0  0  0
 15 26  2  0  0  0  0
 15 27  1  0  0  0  0
 16 28  1  0  0  0  0
 17 28  1  0  0  0  0
 17 29  2  0  0  0  0
 17 32  1  0  0  0  0
 18 20  2  0  0  0  0
 18 37  1  0  0  0  0
 19 21  2  0  0  0  0
 19 38  1  0  0  0  0
 20 49  1  0  0  0  0
 21 39  1  0  0  0  0
 22 30  2  0  0  0  0
 22 54  1  0  0  0  0
 23 83  1  0  0  0  0
 24 84  1  0  0  0  0
 25 27  2  0  0  0  0
 25 83  1  0  0  0  0
 26 86  1  0  0  0  0
 27 87  1  0  0  0  0
 28 66  2  0  0  0  0
 29 67  1  0  0  0  0
 29 71  1  0  0  0  0
 30 68  1  0  0  0  0
 30 82  1  0  0  0  0
 31 73  1  0  0  0  0
 31 82  1  0  0  0  0
 32 72  1  0  0  0  0
 32 77  2  0  0  0  0
 33 50  1  0  0  0  0
 33 74  1  0  0  0  0
 33 78  2  0  0  0  0
 34 63  1  0  0  0  0
 34 69  1  0  0  0  0
 34 79  2  0  0  0  0
 35 64  1  0  0  0  0
 35 75  1  0  0  0  0
 35 80  2  0  0  0  0
 36 70  1  0  0  0  0
 36 73  1  0  0  0  0
 36 81  2  0  0  0  0
 37 40  1  0  0  0  0
 38 50  1  0  0  0  0
 39 69  1  0  0  0  0
 40 42  1  0  0  0  0
 41 43  1  0  0  0  0
 41 46  1  0  0  0  0
 42 49  1  0  0  0  0
 43 51  1  0  0  0  0
 44 47  1  0  0  0  0
 44 53  1  0  0  0  0
 45 52  1  0  0  0  0
 45 53  1  0  0  0  0
 46 70  1  0  0  0  0
 47 68  1  0  0  0  0
 48 51  1  0  0  0  0
 48 70  1  0  0  0  0
 49 74  1  0  0  0  0
 50 69  1  0  0  0  0
 51 67  1  0  0  0  0
 52 55  1  0  0  0  0
 52 68  1  0  0  0  0
 53 62  1  0  0  0  0
 53 85  1  0  0  0  0
 56 64  1  0  0  0  0
 57 65  1  0  0  0  0
 58 65  1  0  0  0  0
 59 65  1  0  0  0  0
 60 76  1  0  0  0  0
 61 85  1  0  0  0  0
 62 84  1  0  0  0  0
 63 65  1  0  0  0  0
 63 75  1  0  0  0  0
 64 76  1  0  0  0  0
 66 67  1  0  0  0  0
M  CHG  1  76   1
M  ISO  4  36 100  62 101  73 100  84 101
M  END
> <Batch ID>
0153

> <Smiles>
CNC(C)C(=O)NC(C(=O)N1Cc2cc([101O:1][101CH2:1]C3(OC)CCN(c4oc([100NH:0][100C:0](=O)N5CCCC(n6nc(-c7ccc(Oc8ccc(F)cc8F)cc7)c(C(N)=O)c6N)C5)cc4C)C(C)C3)ccc2CC1C(=O)NC1CCCc2ccccc21)C(C)(C)C

> <Shape>
0.267

> <Color>
0.108

> <Negative vol penalty>
0.000

$$$$

  -OEChem-04052303303D

 86 95  0     1  0  0  0  0  0999 V2000
  -16.2570  -27.4594   25.1124 C   0  0  0  0  0  0  0  0  0  0  0  0
  -17.1300  -26.4161   25.4039 C   0  0  0  0  0  0  0  0  0  0  0  0
  -22.9548  -10.0480   20.0240 C   0  0  0  0  0  0  0  0  0  0  0  0
  -23.7245   -9.8477   22.3053 C   0  0  0  0  0  0  0  0  0  0  0  0
  -16.5013  -28.2855   24.0161 C   0  0  0  0  0  0  0  0  0  0  0  0
  -18.2472  -26.1978   24.5987 C   0  0  0  0  0  0  0  0  0  0  0  0
  -25.0227  -23.8995   24.9552 C   0  0  0  0  0  0  0  0  0  0  0  0
  -22.1127   -8.9521   20.2118 C   0  0  0  0  0  0  0  0  0  0  0  0
  -22.8823   -8.7518   22.4932 C   0  0  0  0  0  0  0  0  0  0  0  0
  -25.8812  -22.9801   24.3540 C   0  0  0  0  0  0  0  0  0  0  0  0
  -21.2017   -5.6793   23.4656 C   0  0  0  0  0  0  0  0  0  0  0  0
  -21.7260   -4.5629   24.1170 C   0  0  0  0  0  0  0  0  0  0  0  0
  -28.4034  -18.7183   18.9014 C   0  0  0  0  0  0  0  0  0  0  0  0
  -28.5105  -19.0956   16.1053 C   0  0  0  0  0  0  0  0  0  0  0  0
  -26.2454  -24.5199   22.5331 C   0  0  0  0  0  0  0  0  0  0  0  0
  -23.3983   -4.3393   22.3876 C   0  0  0  0  0  0  0  0  0  0  0  0
  -23.7608  -10.4958   21.0707 C   0  0  0  0  0  0  0  0  0  0  0  0
  -24.3254  -12.9834   21.0997 C   0  0  0  0  0  0  0  0  0  0  0  0
  -17.6273  -28.0831   23.2027 C   0  0  0  0  0  0  0  0  0  0  0  0
  -24.7601  -25.1337   24.3434 C   0  0  0  0  0  0  0  0  0  0  0  0
  -18.5061  -27.0212   23.4897 C   0  0  0  0  0  0  0  0  0  0  0  0
  -28.7008  -17.6682   18.0484 C   0  0  0  0  0  0  0  0  0  0  0  0
  -28.7572  -17.8487   16.6633 C   0  0  0  0  0  0  0  0  0  0  0  0
  -25.3851  -25.4542   23.1299 C   0  0  0  0  0  0  0  0  0  0  0  0
  -28.2082  -20.1614   16.9560 C   0  0  0  0  0  0  0  0  0  0  0  0
  -28.1563  -19.9742   18.3451 C   0  0  0  0  0  0  0  0  0  0  0  0
  -22.0763   -8.3040   21.4464 C   0  0  0  0  0  0  0  0  0  0  0  0
  -26.4905  -23.2890   23.1414 C   0  0  0  0  0  0  0  0  0  0  0  0
  -21.7756   -6.1257   22.2752 C   0  0  0  0  0  0  0  0  0  0  0  0
  -22.8243   -3.8929   23.5780 C   0  0  0  0  0  0  0  0  0  0  0  0
  -22.8739   -5.4557   21.7363 C   0  0  0  0  0  0  0  0  0  0  0  0
  -24.6315  -11.6274   20.8771 C   0  0  0  0  0  0  0  0  0  0  0  0
  -25.4779  -13.6540   20.7706 C   0  0  0  0  0  0  0  0  0  0  0  0
  -23.1081  -13.5830   21.5625 C   0  0  0  0  0  0  0  0  0  0  0  0
  -22.1611  -26.5627   23.2004 C   0  0  0  0  0  0  0  0  0  0  0  0
  -24.1820  -29.0717   22.8218 C   0  0  0  0  0  0  0  0  0  0  0  0
  -27.7611  -21.0268   20.5967 C   0  0  0  0  0  0  0  0  0  0  0  0
  -27.3876  -30.1772   22.4355 C   0  0  0  0  0  0  0  0  0  0  0  0
  -29.5967  -14.2445   16.9534 C   0  0  0  0  0  0  0  0  0  0  0  0
  -17.8240  -28.9728   22.0009 C   0  0  0  0  0  0  0  0  0  0  0  0
  -23.8525  -26.1254   25.0181 C   0  0  0  0  0  0  0  0  0  0  0  0
  -28.9756  -16.2485   18.4079 C   0  0  0  0  0  0  0  0  0  0  0  0
  -25.1523  -26.7739   22.4423 C   0  0  0  0  0  0  0  0  0  0  0  0
  -19.2332  -28.9061   21.4178 C   0  0  0  0  0  0  0  0  0  0  0  0
  -30.1403  -11.9460   19.8043 C   0  0  0  0  0  0  0  0  0  0  0  0
  -19.6880  -27.4561   21.2853 C   0  0  0  0  0  0  0  0  0  0  0  0
  -28.7134  -11.7293   20.3126 C   0  0  0  0  0  0  0  0  0  0  0  0
  -30.1723  -12.2670   18.3123 C   0  0  0  0  0  0  0  0  0  0  0  0
  -27.8771  -13.1580   18.4111 C   0  0  0  0  0  0  0  0  0  0  0  0
  -19.7423  -26.7677   22.6544 C   0  0  1  0  0  0  0  0  0  0  0  0
  -23.2554  -27.1430   24.0510 C   0  0  1  0  0  0  0  0  0  0  0  0
  -27.7985  -12.9061   19.9227 C   0  0  1  0  0  0  0  0  0  0  0  0
  -29.1252  -16.5505   15.9726 C   0  0  0  0  0  0  0  0  0  0  0  0
  -28.0441  -16.1422   14.9651 C   0  0  0  0  0  0  0  0  0  0  0  0
  -30.4891  -16.7224   15.2841 C   0  0  0  0  0  0  0  0  0  0  0  0
  -28.7213  -32.2782   22.1129 C   0  0  0  0  0  0  0  0  0  0  0  0
  -23.3001  -29.1803   19.9028 C   0  0  0  0  0  0  0  0  0  0  0  0
  -25.2994  -30.6094   19.4245 C   0  0  0  0  0  0  0  0  0  0  0  0
  -23.5429  -31.4130   21.0030 C   0  0  0  0  0  0  0  0  0  0  0  0
  -28.8814  -29.7539   24.9551 C   0  0  0  0  0  0  0  0  0  0  0  0
  -27.4107  -22.4011   21.1362 C   0  0  0  0  0  0  0  0  0  1  0  0
  -25.0960  -29.5514   21.7202 C   0  0  1  0  0  0  0  0  0  0  0  0
  -28.1591  -31.2896   23.1224 C   0  0  2  0  0  0  0  0  0  0  0  0
  -24.3127  -30.1628   20.5243 C   0  0  0  0  0  0  0  0  0  0  0  0
  -25.8805  -11.4458   20.4402 N   0  0  0  0  0  0  0  0  0  0  0  0
  -26.3695  -12.6964   20.3856 N   0  0  0  0  0  0  0  0  0  0  0  0
  -24.2517  -27.7076   23.1384 N   0  0  0  0  0  0  0  0  0  0  0  0
  -29.1828  -15.5768   17.1086 N   0  0  0  0  0  0  0  0  0  0  0  0
  -29.2669  -13.3687   17.9960 N   0  0  0  0  0  0  0  0  0  0  0  0
  -27.9570  -21.4335   16.3904 N   0  0  0  0  0  0  0  0  0  0  0  0
  -25.8056  -14.9636   20.7758 N   0  0  0  0  0  0  0  0  0  0  0  0
  -22.0211  -12.7481   21.8552 N   0  0  0  0  0  0  0  0  0  0  0  0
  -27.8546  -21.0397   19.1989 N   0  0  0  0  0  0  0  0  0  0  0  0
  -20.9315  -27.1687   23.3750 N   0  0  0  0  0  0  0  0  0  0  0  0
  -26.0428  -30.4684   22.3457 N   0  0  0  0  0  0  0  0  0  0  0  0
  -29.2923  -30.7250   23.9086 N   0  3  0  0  0  0  0  0  0  0  0  0
  -22.9826  -14.8239   21.6966 O   0  0  0  0  0  0  0  0  0  0  0  0
  -22.4139  -25.6350   22.4408 O   0  0  0  0  0  0  0  0  0  0  0  0
  -23.4389  -29.8789   23.3855 O   0  0  0  0  0  0  0  0  0  0  0  0
  -27.9280  -20.0672   21.3423 O   0  0  0  0  0  0  0  0  0  0  0  0
  -27.9247  -29.1541   22.0170 O   0  0  0  0  0  0  0  0  0  0  0  0
  -30.2595  -13.8577   15.9850 O   0  0  0  0  0  0  0  0  0  0  0  0
  -21.2545   -7.2347   21.6302 O   0  0  0  0  0  0  0  0  0  0  0  0
  -27.3371  -22.3839   22.5460 O   0  0  0  0  0  0  0  0  0  1  0  0
  -23.3286   -2.8217   24.2044 F   0  0  0  0  0  0  0  0  0  0  0  0
  -23.4303   -5.8806   20.5936 F   0  0  0  0  0  0  0  0  0  0  0  0
  1  2  1  0  0  0  0
  1  5  2  0  0  0  0
  2  6  2  0  0  0  0
  3  8  2  0  0  0  0
  3 17  1  0  0  0  0
  4  9  1  0  0  0  0
  4 17  2  0  0  0  0
  5 19  1  0  0  0  0
  6 21  1  0  0  0  0
  7 10  2  0  0  0  0
  7 20  1  0  0  0  0
  8 27  1  0  0  0  0
  9 27  2  0  0  0  0
 10 28  1  0  0  0  0
 11 12  2  0  0  0  0
 11 29  1  0  0  0  0
 12 30  1  0  0  0  0
 13 22  2  0  0  0  0
 13 26  1  0  0  0  0
 14 23  2  0  0  0  0
 14 25  1  0  0  0  0
 15 24  1  0  0  0  0
 15 28  2  0  0  0  0
 16 30  2  0  0  0  0
 16 31  1  0  0  0  0
 17 32  1  0  0  0  0
 18 32  1  0  0  0  0
 18 33  2  0  0  0  0
 18 34  1  0  0  0  0
 19 21  2  0  0  0  0
 19 40  1  0  0  0  0
 20 24  2  0  0  0  0
 20 41  1  0  0  0  0
 21 50  1  0  0  0  0
 22 23  1  0  0  0  0
 22 42  1  0  0  0  0
 23 53  1  0  0  0  0
 24 43  1  0  0  0  0
 25 26  2  0  0  0  0
 25 70  1  0  0  0  0
 26 73  1  0  0  0  0
 27 83  1  0  0  0  0
 28 84  1  0  0  0  0
 29 31  2  0  0  0  0
 29 83  1  0  0  0  0
 30 85  1  0  0  0  0
 31 86  1  0  0  0  0
 32 65  2  0  0  0  0
 33 66  1  0  0  0  0
 33 71  1  0  0  0  0
 34 72  1  0  0  0  0
 34 77  2  0  0  0  0
 35 51  1  0  0  0  0
 35 74  1  0  0  0  0
 35 78  2  0  0  0  0
 36 62  1  0  0  0  0
 36 67  1  0  0  0  0
 36 79  2  0  0  0  0
 37 61  1  0  0  0  0
 37 73  1  0  0  0  0
 37 80  2  0  0  0  0
 38 63  1  0  0  0  0
 38 75  1  0  0  0  0
 38 81  2  0  0  0  0
 39 68  1  0  0  0  0
 39 69  1  0  0  0  0
 39 82  2  0  0  0  0
 40 44  1  0  0  0  0
 41 51  1  0  0  0  0
 42 68  1  0  0  0  0
 43 67  1  0  0  0  0
 44 46  1  0  0  0  0
 45 47  1  0  0  0  0
 45 48  1  0  0  0  0
 46 50  1  0  0  0  0
 47 52  1  0  0  0  0
 48 69  1  0  0  0  0
 49 52  1  0  0  0  0
 49 69  1  0  0  0  0
 50 74  1  0  0  0  0
 51 67  1  0  0  0  0
 52 66  1  0  0  0  0
 53 54  1  0  0  0  0
 53 55  1  0  0  0  0
 53 68  1  0  0  0  0
 56 63  1  0  0  0  0
 57 64  1  0  0  0  0
 58 64  1  0  0  0  0
 59 64  1  0  0  0  0
 60 76  1  0  0  0  0
 61 84  1  0  0  0  0
 62 64  1  0  0  0  0
 62 75  1  0  0  0  0
 63 76  1  0  0  0  0
 65 66  1  0  0  0  0
M  CHG  1  76   1
M  ISO  4  39 100  61 101  68 100  84 101
M  END
> <Batch ID>
0153

> <Smiles>
CNC(C)C(=O)NC(C(=O)N1Cc2cc([101O:1][101CH2:1]C(=O)Nc3cc4c(cc3N)C(C)(C)[100N:0]([100C:0](=O)N3CCCC(n5nc(-c6ccc(Oc7ccc(F)cc7F)cc6)c(C(N)=O)c5N)C3)C4)ccc2CC1C(=O)NC1CCCc2ccccc21)C(C)(C)C

> <Shape>
0.299

> <Color>
0.164

> <Negative vol penalty>
0.000

$$$$

  -OEChem-04052303303D

 81 90  0     1  0  0  0  0  0999 V2000
  -26.4998  -37.4573   23.6561 C   0  0  0  0  0  0  0  0  0  0  0  0
  -27.1483  -36.6124   22.7610 C   0  0  0  0  0  0  0  0  0  0  0  0
  -23.7265   -9.9709   22.8882 C   0  0  0  0  0  0  0  0  0  0  0  0
  -23.4522  -10.6912   20.5985 C   0  0  0  0  0  0  0  0  0  0  0  0
  -25.7660  -36.9202   24.7130 C   0  0  0  0  0  0  0  0  0  0  0  0
  -27.0644  -35.2300   22.9231 C   0  0  0  0  0  0  0  0  0  0  0  0
  -26.8877  -29.1633   19.1178 C   0  0  0  0  0  0  0  0  0  0  0  0
  -22.9744   -8.8276   22.6187 C   0  0  0  0  0  0  0  0  0  0  0  0
  -22.7000   -9.5478   20.3289 C   0  0  0  0  0  0  0  0  0  0  0  0
  -27.5239  -27.9256   19.0339 C   0  0  0  0  0  0  0  0  0  0  0  0
  -23.4513   -5.8227   21.1436 C   0  0  0  0  0  0  0  0  0  0  0  0
  -23.9308   -4.6036   21.6225 C   0  0  0  0  0  0  0  0  0  0  0  0
  -26.1626  -27.1095   20.8505 C   0  0  0  0  0  0  0  0  0  0  0  0
  -21.9123   -4.3192   22.9195 C   0  0  0  0  0  0  0  0  0  0  0  0
  -27.2982  -21.0693   21.2420 C   0  0  0  0  0  0  0  0  0  0  0  0
  -23.9654  -10.9028   21.8781 C   0  0  0  0  0  0  0  0  0  0  0  0
  -26.1365  -12.2329   22.0355 C   0  0  0  0  0  0  0  0  0  0  0  0
  -25.6651  -35.5304   24.8825 C   0  0  0  0  0  0  0  0  0  0  0  0
  -25.8900  -29.3872   20.0775 C   0  0  0  0  0  0  0  0  0  0  0  0
  -26.3298  -34.6739   23.9841 C   0  0  0  0  0  0  0  0  0  0  0  0
  -25.5134  -28.3501   20.9428 C   0  0  0  0  0  0  0  0  0  0  0  0
  -22.4612   -8.6160   21.3391 C   0  0  0  0  0  0  0  0  0  0  0  0
  -27.1634  -26.8994   19.9023 C   0  0  0  0  0  0  0  0  0  0  0  0
  -22.2024   -6.2902   21.5527 C   0  0  0  0  0  0  0  0  0  0  0  0
  -23.1613   -3.8518   22.5104 C   0  0  0  0  0  0  0  0  0  0  0  0
  -21.4329   -5.5384   22.4406 C   0  0  0  0  0  0  0  0  0  0  0  0
  -24.7418  -12.0843   22.1560 C   0  0  0  0  0  0  0  0  0  0  0  0
  -28.4470  -21.5750   20.5689 C   0  0  0  0  0  0  0  0  0  0  0  0
  -26.3775  -13.5310   22.4140 C   0  0  0  0  0  0  0  0  0  0  0  0
  -27.1859  -19.7120   21.0322 C   0  0  0  0  0  0  0  0  0  0  0  0
  -27.1257  -11.2825   21.6184 C   0  0  0  0  0  0  0  0  0  0  0  0
  -25.5571  -31.3577   22.5494 C   0  0  0  0  0  0  0  0  0  0  0  0
  -22.5715  -30.0938   22.6555 C   0  0  0  0  0  0  0  0  0  0  0  0
  -20.4992  -27.4899   21.8994 C   0  0  0  0  0  0  0  0  0  0  0  0
  -25.1307  -18.9560   22.2776 C   0  0  0  0  0  0  0  0  0  0  0  0
  -24.8997  -34.9973   26.0677 C   0  0  0  0  0  0  0  0  0  0  0  0
  -25.1947  -30.7196   20.1374 C   0  0  0  0  0  0  0  0  0  0  0  0
  -24.4342  -28.5331   21.9774 C   0  0  0  0  0  0  0  0  0  0  0  0
  -24.5510  -33.5157   25.9512 C   0  0  0  0  0  0  0  0  0  0  0  0
  -23.3454  -16.9398   24.6067 C   0  0  0  0  0  0  0  0  0  0  0  0
  -25.7677  -32.7150   25.4982 C   0  0  0  0  0  0  0  0  0  0  0  0
  -23.6642  -15.5091   24.1669 C   0  0  0  0  0  0  0  0  0  0  0  0
  -29.9328  -24.9494   20.6399 C   0  0  0  0  0  0  0  0  0  0  0  0
  -23.1990  -17.8810   23.4124 C   0  0  0  0  0  0  0  0  0  0  0  0
  -29.8807  -23.5555   20.0148 C   0  0  0  0  0  0  0  0  0  0  0  0
  -24.6466  -16.4417   22.0333 C   0  0  0  0  0  0  0  0  0  0  0  0
  -27.9243  -23.8833   21.4061 C   0  0  0  0  0  0  0  0  0  0  0  0
  -26.2419  -33.1686   24.1122 C   0  0  1  0  0  0  0  0  0  0  0  0
  -24.5515  -30.9975   21.4926 C   0  0  1  0  0  0  0  0  0  0  0  0
  -24.8674  -15.4704   23.2043 C   0  0  2  0  0  0  0  0  0  0  0  0
  -28.4788  -25.2421   20.9806 C   0  0  2  0  0  0  0  0  0  1  0  0
  -18.1206  -26.7292   22.1469 C   0  0  0  0  0  0  0  0  0  0  0  0
  -23.0898  -29.4360   25.5896 C   0  0  0  0  0  0  0  0  0  0  0  0
  -21.1320  -27.8772   25.5137 C   0  0  0  0  0  0  0  0  0  0  0  0
  -20.7991  -30.3157   25.1065 C   0  0  0  0  0  0  0  0  0  0  0  0
  -20.1127  -27.3630   18.9679 C   0  0  0  0  0  0  0  0  0  0  0  0
  -21.9363  -28.9081   23.3408 C   0  0  1  0  0  0  0  0  0  0  0  0
  -19.1231  -27.4506   21.2596 C   0  0  2  0  0  0  0  0  0  0  0  0
  -21.7610  -29.1311   24.8696 C   0  0  0  0  0  0  0  0  0  0  0  0
  -24.1391  -13.1990   22.5784 N   0  0  0  0  0  0  0  0  0  0  0  0
  -29.1851  -20.7038   19.8852 N   0  0  0  0  0  0  0  0  0  0  0  0
  -25.1600  -14.0603   22.7265 N   0  0  0  0  0  0  0  0  0  0  0  0
  -28.7346  -22.9207   20.6588 N   0  0  3  0  0  0  0  0  0  0  0  0
  -23.7883  -29.8559   22.0008 N   0  0  0  0  0  0  0  0  0  0  0  0
  -24.3774  -17.7938   22.5473 N   0  0  0  0  0  0  0  0  0  0  0  0
  -27.5100  -14.2599   22.5068 N   0  0  0  0  0  0  0  0  0  0  0  0
  -26.7059   -9.9932   21.2639 N   0  0  0  0  0  0  0  0  0  0  0  0
  -26.2474  -18.7447   21.4696 N   0  0  0  0  0  0  0  0  0  0  0  0
  -25.3862  -32.6216   23.0812 N   0  0  0  0  0  0  0  0  0  0  0  0
  -20.6906  -28.6443   22.6288 N   0  0  0  0  0  0  0  0  0  0  0  0
  -19.1818  -26.7462   19.9476 N   0  3  0  0  0  0  0  0  0  0  0  0
  -28.3476  -11.5633   21.5776 O   0  0  0  0  0  0  0  0  0  0  0  0
  -26.4230  -30.5483   22.8603 O   0  0  0  0  0  0  0  0  0  0  0  0
  -22.0053  -31.1891   22.6934 O   0  0  0  0  0  0  0  0  0  0  0  0
  -21.3206  -26.5851   21.7685 O   0  0  0  0  0  0  0  0  0  0  0  0
  -24.8243  -20.0526   22.7525 O   0  0  0  0  0  0  0  0  0  0  0  0
  -21.7274   -7.5003   21.0757 O   0  0  0  0  0  0  0  0  0  0  0  0
  -27.7833  -25.6905   19.8230 O   0  0  0  0  0  0  0  0  0  1  0  0
  -23.6212   -2.6803   22.9690 F   0  0  0  0  0  0  0  0  0  0  0  0
  -20.2317   -5.9817   22.8362 F   0  0  0  0  0  0  0  0  0  0  0  0
  -28.4878  -19.2034   20.0422 S   0  0  0  0  0  0  0  0  0  0  0  0
  1  2  1  0  0  0  0
  1  5  2  0  0  0  0
  2  6  2  0  0  0  0
  3  8  2  0  0  0  0
  3 16  1  0  0  0  0
  4  9  1  0  0  0  0
  4 16  2  0  0  0  0
  5 18  1  0  0  0  0
  6 20  1  0  0  0  0
  7 10  2  0  0  0  0
  7 19  1  0  0  0  0
  8 22  1  0  0  0  0
  9 22  2  0  0  0  0
 10 23  1  0  0  0  0
 11 12  2  0  0  0  0
 11 24  1  0  0  0  0
 12 25  1  0  0  0  0
 13 21  1  0  0  0  0
 13 23  2  0  0  0  0
 14 25  2  0  0  0  0
 14 26  1  0  0  0  0
 15 28  1  0  0  0  0
 15 30  2  0  0  0  0
 16 27  1  0  0  0  0
 17 27  1  0  0  0  0
 17 29  2  0  0  0  0
 17 31  1  0  0  0  0
 18 20  2  0  0  0  0
 18 36  1  0  0  0  0
 19 21  2  0  0  0  0
 19 37  1  0  0  0  0
 20 48  1  0  0  0  0
 21 38  1  0  0  0  0
 22 77  1  0  0  0  0
 23 78  1  0  0  0  0
 24 26  2  0  0  0  0
 24 77  1  0  0  0  0
 25 79  1  0  0  0  0
 26 80  1  0  0  0  0
 27 60  2  0  0  0  0
 28 61  2  0  0  0  0
 28 63  1  0  0  0  0
 29 62  1  0  0  0  0
 29 66  1  0  0  0  0
 30 68  1  0  0  0  0
 30 81  1  0  0  0  0
 31 67  1  0  0  0  0
 31 72  2  0  0  0  0
 32 49  1  0  0  0  0
 32 69  1  0  0  0  0
 32 73  2  0  0  0  0
 33 57  1  0  0  0  0
 33 64  1  0  0  0  0
 33 74  2  0  0  0  0
 34 58  1  0  0  0  0
 34 70  1  0  0  0  0
 34 75  2  0  0  0  0
 35 65  1  0  0  0  0
 35 68  1  0  0  0  0
 35 76  2  0  0  0  0
 36 39  1  0  0  0  0
 37 49  1  0  0  0  0
 38 64  1  0  0  0  0
 39 41  1  0  0  0  0
 40 42  1  0  0  0  0
 40 44  1  0  0  0  0
 41 48  1  0  0  0  0
 42 50  1  0  0  0  0
 43 45  1  0  0  0  0
 43 51  1  0  0  0  0
 44 65  1  0  0  0  0
 45 63  1  0  0  0  0
 46 50  1  0  0  0  0
 46 65  1  0  0  0  0
 47 51  1  0  0  0  0
 47 63  1  0  0  0  0
 48 69  1  0  0  0  0
 49 64  1  0  0  0  0
 50 62  1  0  0  0  0
 51 78  1  0  0  0  0
 52 58  1  0  0  0  0
 53 59  1  0  0  0  0
 54 59  1  0  0  0  0
 55 59  1  0  0  0  0
 56 71  1  0  0  0  0
 57 59  1  0  0  0  0
 57 70  1  0  0  0  0
 58 71  1  0  0  0  0
 60 62  1  0  0  0  0
 61 81  1  0  0  0  0
M  CHG  1  71   1
M  ISO  4  35 100  51 101  68 100  78 101
M  END
> <Batch ID>
0153

> <Smiles>
CNC(C)C(=O)NC(C(=O)N1Cc2cc([101O:1][101CH:1]3CCN(c4cc([100NH:0][100C:0](=O)N5CCCC(n6nc(-c7ccc(Oc8ccc(F)cc8F)cc7)c(C(N)=O)c6N)C5)sn4)C3)ccc2CC1C(=O)NC1CCCc2ccccc21)C(C)(C)C

> <Shape>
0.312

> <Color>
0.085

> <Negative vol penalty>
0.000

$$$$

  -OEChem-04052303303D

 86 94  0     1  0  0  0  0  0999 V2000
  -29.8677  -25.2165   16.6425 C   0  0  0  0  0  0  0  0  0  0  0  0
  -28.6121  -25.2071   17.2417 C   0  0  0  0  0  0  0  0  0  0  0  0
  -23.9568  -12.6652   21.9360 C   0  0  0  0  0  0  0  0  0  0  0  0
  -22.5343  -13.9828   20.4946 C   0  0  0  0  0  0  0  0  0  0  0  0
  -30.9341  -25.8578   17.2713 C   0  0  0  0  0  0  0  0  0  0  0  0
  -28.4226  -25.8381   18.4706 C   0  0  0  0  0  0  0  0  0  0  0  0
  -24.1945  -28.6227   18.5930 C   0  0  0  0  0  0  0  0  0  0  0  0
  -22.8370  -12.2342   22.6471 C   0  0  0  0  0  0  0  0  0  0  0  0
  -21.4144  -13.5518   21.2058 C   0  0  0  0  0  0  0  0  0  0  0  0
  -22.9893  -27.9431   18.7642 C   0  0  0  0  0  0  0  0  0  0  0  0
  -20.3632   -9.9618   22.2602 C   0  0  0  0  0  0  0  0  0  0  0  0
  -20.2741   -8.6044   22.5686 C   0  0  0  0  0  0  0  0  0  0  0  0
  -23.8905  -21.6142   18.5120 C   0  0  0  0  0  0  0  0  0  0  0  0
  -22.9612  -22.5400   19.0682 C   0  0  0  0  0  0  0  0  0  0  0  0
  -22.9999  -28.5263   21.1049 C   0  0  0  0  0  0  0  0  0  0  0  0
  -20.2286   -9.1424   24.9235 C   0  0  0  0  0  0  0  0  0  0  0  0
  -23.8055  -13.5396   20.8597 C   0  0  0  0  0  0  0  0  0  0  0  0
  -25.5396  -13.3745   18.9960 C   0  0  0  0  0  0  0  0  0  0  0  0
  -30.7552  -26.5053   18.5040 C   0  0  0  0  0  0  0  0  0  0  0  0
  -24.8181  -29.2510   19.6806 C   0  0  0  0  0  0  0  0  0  0  0  0
  -29.4879  -26.4875   19.1172 C   0  0  0  0  0  0  0  0  0  0  0  0
  -24.2117  -29.2154   20.9444 C   0  0  0  0  0  0  0  0  0  0  0  0
  -21.5658  -12.6774   22.2820 C   0  0  0  0  0  0  0  0  0  0  0  0
  -22.3932  -27.8924   20.0209 C   0  0  0  0  0  0  0  0  0  0  0  0
  -20.3851  -10.9096   23.2835 C   0  0  0  0  0  0  0  0  0  0  0  0
  -20.2068   -8.1947   23.9002 C   0  0  0  0  0  0  0  0  0  0  0  0
  -20.3178  -10.4999   24.6151 C   0  0  0  0  0  0  0  0  0  0  0  0
  -24.9619  -13.9856   20.1250 C   0  0  0  0  0  0  0  0  0  0  0  0
  -25.1911  -22.0525   18.6298 C   0  0  0  0  0  0  0  0  0  0  0  0
  -26.6061  -14.1794   18.6779 C   0  0  0  0  0  0  0  0  0  0  0  0
  -23.5870  -23.6507   19.5903 C   0  0  0  0  0  0  0  0  0  0  0  0
  -25.1471  -12.1857   18.2973 C   0  0  0  0  0  0  0  0  0  0  0  0
  -27.5991  -28.9022   21.1799 C   0  0  0  0  0  0  0  0  0  0  0  0
  -26.6217  -31.5462   22.7849 C   0  0  0  0  0  0  0  0  0  0  0  0
  -24.0328  -33.5065   23.8345 C   0  0  0  0  0  0  0  0  0  0  0  0
  -27.7955  -19.9602   19.6873 C   0  0  0  0  0  0  0  0  0  0  0  0
  -31.9490  -27.1445   19.1681 C   0  0  0  0  0  0  0  0  0  0  0  0
  -26.1044  -30.0027   19.4738 C   0  0  0  0  0  0  0  0  0  0  0  0
  -24.8302  -29.8909   22.1400 C   0  0  0  0  0  0  0  0  0  0  0  0
  -31.5770  -28.1112   20.2894 C   0  0  0  0  0  0  0  0  0  0  0  0
  -29.7695  -17.1649   20.6704 C   0  0  0  0  0  0  0  0  0  0  0  0
  -30.5286  -27.4881   21.2056 C   0  0  0  0  0  0  0  0  0  0  0  0
  -28.8134  -15.9780   20.5402 C   0  0  0  0  0  0  0  0  0  0  0  0
  -29.0499  -18.4177   21.1650 C   0  0  0  0  0  0  0  0  0  0  0  0
  -26.9081  -17.6159   20.2467 C   0  0  0  0  0  0  0  0  0  0  0  0
  -29.2368  -27.1822   20.4379 C   0  0  1  0  0  0  0  0  0  0  0  0
  -26.9118  -30.1698   20.7574 C   0  0  1  0  0  0  0  0  0  0  0  0
  -27.5767  -16.3440   19.6976 C   0  0  2  0  0  0  0  0  0  0  0  0
  -23.5437  -35.5800   25.1606 C   0  0  0  0  0  0  0  0  0  0  0  0
  -19.8304  -26.0793   21.7475 C   0  0  0  0  0  0  0  0  0  0  0  0
  -27.1135  -30.0048   25.3718 C   0  0  0  0  0  0  0  0  0  0  0  0
  -25.7435  -31.7216   26.5734 C   0  0  0  0  0  0  0  0  0  0  0  0
  -27.8531  -32.3932   25.4239 C   0  0  0  0  0  0  0  0  0  0  0  0
  -27.5794  -20.4863   14.4807 C   0  0  0  0  0  0  0  0  0  0  0  0
  -29.0029  -21.3098   16.3772 C   0  0  0  0  0  0  0  0  0  0  0  0
  -22.8118  -34.8524   21.4985 C   0  0  0  0  0  0  0  0  0  0  0  0
  -26.4517  -21.1354   16.6408 C   0  0  0  0  0  0  0  0  0  0  0  0
  -21.5426  -24.8442   20.3787 C   0  0  0  0  0  0  0  0  0  0  0  0
  -26.4319  -21.3848   18.1805 C   0  0  2  0  0  0  0  0  0  0  0  0
  -25.8221  -31.8004   24.0399 C   0  0  1  0  0  0  0  0  0  0  0  0
  -23.8196  -35.0084   23.7786 C   0  0  2  0  0  0  0  0  0  0  0  0
  -21.2127  -26.1410   21.1141 C   0  0  1  0  0  0  0  0  0  1  0  0
  -26.6221  -31.4655   25.3303 C   0  0  0  0  0  0  0  0  0  0  0  0
  -27.7331  -20.5405   16.0062 C   0  0  0  0  0  0  0  0  0  0  0  0
  -25.6080  -15.0932   20.4990 N   0  0  0  0  0  0  0  0  0  0  0  0
  -26.6028  -15.1844   19.6000 N   0  0  0  0  0  0  0  0  0  0  0  0
  -26.0912  -30.6079   21.8883 N   0  0  0  0  0  0  0  0  0  0  0  0
  -27.8881  -18.7107   20.3222 N   0  0  0  0  0  0  0  0  0  0  0  0
  -27.5370  -14.1185   17.7022 N   0  0  0  0  0  0  0  0  0  0  0  0
  -24.0276  -11.4790   18.7574 N   0  0  0  0  0  0  0  0  0  0  0  0
  -22.9725  -24.7313   20.2006 N   0  0  0  0  0  0  0  0  0  0  0  0
  -28.4703  -28.3930   20.2358 N   0  0  0  0  0  0  0  0  0  0  0  0
  -25.3675  -33.1845   23.9609 N   0  0  0  0  0  0  0  0  0  0  0  0
  -26.6657  -20.1536   18.9019 N   0  0  0  0  0  0  0  0  0  0  0  0
  -27.9077  -19.1295   16.4733 N   0  3  0  0  0  0  0  0  0  0  0  0
  -22.6642  -35.3351   22.8958 N   0  3  0  0  0  0  0  0  0  0  0  0
  -25.7805  -11.7535   17.3045 O   0  0  0  0  0  0  0  0  0  0  0  0
  -27.3581  -28.4224   22.2814 O   0  0  0  0  0  0  0  0  0  0  0  0
  -27.6745  -32.1629   22.6033 O   0  0  0  0  0  0  0  0  0  0  0  0
  -23.1075  -32.6997   23.7758 O   0  0  0  0  0  0  0  0  0  0  0  0
  -28.6586  -20.8364   19.8069 O   0  0  0  0  0  0  0  0  0  0  0  0
  -20.4728  -12.2568   22.9756 O   0  0  0  0  0  0  0  0  0  0  0  0
  -21.2172  -27.2291   20.1909 O   0  0  0  0  0  0  0  0  0  1  0  0
  -20.1196   -6.8913   24.1962 F   0  0  0  0  0  0  0  0  0  0  0  0
  -20.3372  -11.4058   25.6024 F   0  0  0  0  0  0  0  0  0  0  0  0
  -25.2881  -23.5745   19.4086 S   0  0  0  0  0  0  0  0  0  0  0  0
  1  2  1  0  0  0  0
  1  5  2  0  0  0  0
  2  6  2  0  0  0  0
  3  8  2  0  0  0  0
  3 17  1  0  0  0  0
  4  9  1  0  0  0  0
  4 17  2  0  0  0  0
  5 19  1  0  0  0  0
  6 21  1  0  0  0  0
  7 10  2  0  0  0  0
  7 20  1  0  0  0  0
  8 23  1  0  0  0  0
  9 23  2  0  0  0  0
 10 24  1  0  0  0  0
 11 12  2  0  0  0  0
 11 25  1  0  0  0  0
 12 26  1  0  0  0  0
 13 14  1  0  0  0  0
 13 29  2  0  0  0  0
 14 31  2  0  0  0  0
 15 22  1  0  0  0  0
 15 24  2  0  0  0  0
 16 26  2  0  0  0  0
 16 27  1  0  0  0  0
 17 28  1  0  0  0  0
 18 28  1  0  0  0  0
 18 30  2  0  0  0  0
 18 32  1  0  0  0  0
 19 21  2  0  0  0  0
 19 37  1  0  0  0  0
 20 22  2  0  0  0  0
 20 38  1  0  0  0  0
 21 46  1  0  0  0  0
 22 39  1  0  0  0  0
 23 82  1  0  0  0  0
 24 83  1  0  0  0  0
 25 27  2  0  0  0  0
 25 82  1  0  0  0  0
 26 84  1  0  0  0  0
 27 85  1  0  0  0  0
 28 65  2  0  0  0  0
 29 59  1  0  0  0  0
 29 86  1  0  0  0  0
 30 66  1  0  0  0  0
 30 69  1  0  0  0  0
 31 71  1  0  0  0  0
 31 86  1  0  0  0  0
 32 70  1  0  0  0  0
 32 77  2  0  0  0  0
 33 47  1  0  0  0  0
 33 72  1  0  0  0  0
 33 78  2  0  0  0  0
 34 60  1  0  0  0  0
 34 67  1  0  0  0  0
 34 79  2  0  0  0  0
 35 61  1  0  0  0  0
 35 73  1  0  0  0  0
 35 80  2  0  0  0  0
 36 68  1  0  0  0  0
 36 74  1  0  0  0  0
 36 81  2  0  0  0  0
 37 40  1  0  0  0  0
 38 47  1  0  0  0  0
 39 67  1  0  0  0  0
 40 42  1  0  0  0  0
 41 43  1  0  0  0  0
 41 44  1  0  0  0  0
 42 46  1  0  0  0  0
 43 48  1  0  0  0  0
 44 68  1  0  0  0  0
 45 48  1  0  0  0  0
 45 68  1  0  0  0  0
 46 72  1  0  0  0  0
 47 67  1  0  0  0  0
 48 66  1  0  0  0  0
 49 61  1  0  0  0  0
 50 62  1  0  0  0  0
 51 63  1  0  0  0  0
 52 63  1  0  0  0  0
 53 63  1  0  0  0  0
 54 64  1  0  0  0  0
 55 64  1  0  0  0  0
 56 76  1  0  0  0  0
 57 59  1  0  0  0  0
 57 64  1  0  0  0  0
 58 62  1  0  0  0  0
 58 71  1  0  0  0  0
 59 74  1  0  0  0  0
 60 63  1  0  0  0  0
 60 73  1  0  0  0  0
 61 76  1  0  0  0  0
 62 83  1  0  0  0  0
 64 75  1  0  0  0  0
 65 66  1  0  0  0  0
M  CHG  2  75   1  76   1
M  ISO  4  36 100  62 101  74 100  83 101
M  END
> <Batch ID>
0153

> <Smiles>
CNC(C)C(=O)NC(C(=O)N1Cc2cc([101O:1][101CH:1](C)CNc3ccc(C(CC(C)(C)N)[100NH:0][100C:0](=O)N4CCCC(n5nc(-c6ccc(Oc7ccc(F)cc7F)cc6)c(C(N)=O)c5N)C4)s3)ccc2CC1C(=O)NC1CCCc2ccccc21)C(C)(C)C

> <Shape>
0.280

> <Color>
0.075

> <Negative vol penalty>
0.000

$$$$

  -OEChem-04052303303D

 84 92  0     1  0  0  0  0  0999 V2000
  -32.0421  -24.2336    8.1045 C   0  0  0  0  0  0  0  0  0  0  0  0
  -32.6763  -23.7884    9.2598 C   0  0  0  0  0  0  0  0  0  0  0  0
  -23.0691   -9.9358   19.9251 C   0  0  0  0  0  0  0  0  0  0  0  0
  -23.8471   -9.8980   22.2121 C   0  0  0  0  0  0  0  0  0  0  0  0
  -31.2526  -25.3822    8.1425 C   0  0  0  0  0  0  0  0  0  0  0  0
  -32.5223  -24.4921   10.4538 C   0  0  0  0  0  0  0  0  0  0  0  0
  -32.2768  -22.1453   16.1051 C   0  0  0  0  0  0  0  0  0  0  0  0
  -22.3216   -8.7820   20.1603 C   0  0  0  0  0  0  0  0  0  0  0  0
  -23.0995   -8.7442   22.4473 C   0  0  0  0  0  0  0  0  0  0  0  0
  -33.2356  -22.0138   17.1087 C   0  0  0  0  0  0  0  0  0  0  0  0
  -22.8798   -5.4561   20.3872 C   0  0  0  0  0  0  0  0  0  0  0  0
  -22.9341   -4.4432   19.4298 C   0  0  0  0  0  0  0  0  0  0  0  0
  -32.4490  -24.0579   18.1196 C   0  0  0  0  0  0  0  0  0  0  0  0
  -31.9181  -17.4493   21.6654 C   0  0  0  0  0  0  0  0  0  0  0  0
  -20.5477   -4.6268   19.1001 C   0  0  0  0  0  0  0  0  0  0  0  0
  -23.8320  -10.4939   20.9510 C   0  0  0  0  0  0  0  0  0  0  0  0
  -24.1853  -13.0191   20.8735 C   0  0  0  0  0  0  0  0  0  0  0  0
  -31.0810  -26.0949    9.3397 C   0  0  0  0  0  0  0  0  0  0  0  0
  -31.4025  -23.2417   16.0952 C   0  0  0  0  0  0  0  0  0  0  0  0
  -31.7309  -25.6520   10.5076 C   0  0  0  0  0  0  0  0  0  0  0  0
  -31.4783  -24.1997   17.1163 C   0  0  0  0  0  0  0  0  0  0  0  0
  -30.6286  -16.9312   21.9797 C   0  0  0  0  0  0  0  0  0  0  0  0
  -22.3367   -8.1862   21.4214 C   0  0  0  0  0  0  0  0  0  0  0  0
  -33.3238  -22.9717   18.1145 C   0  0  0  0  0  0  0  0  0  0  0  0
  -21.6594   -6.0543   20.7012 C   0  0  0  0  0  0  0  0  0  0  0  0
  -21.7681   -4.0285   18.7862 C   0  0  0  0  0  0  0  0  0  0  0  0
  -20.4934   -5.6397   20.0576 C   0  0  0  0  0  0  0  0  0  0  0  0
  -24.6049  -11.6855   20.7085 C   0  0  0  0  0  0  0  0  0  0  0  0
  -25.2783  -13.7697   20.5150 C   0  0  0  0  0  0  0  0  0  0  0  0
  -32.1477  -18.6665   22.2679 C   0  0  0  0  0  0  0  0  0  0  0  0
  -29.9217  -17.7723   22.8109 C   0  0  0  0  0  0  0  0  0  0  0  0
  -22.9207  -13.5334   21.3117 C   0  0  0  0  0  0  0  0  0  0  0  0
  -30.8453  -25.6483   14.0949 C   0  0  0  0  0  0  0  0  0  0  0  0
  -35.0712  -21.4666   20.9104 C   0  0  0  0  0  0  0  0  0  0  0  0
  -28.4199  -26.2844   16.1527 C   0  0  0  0  0  0  0  0  0  0  0  0
  -27.1363  -25.9816   19.3004 C   0  0  0  0  0  0  0  0  0  0  0  0
  -30.7507  -14.7859   20.6646 C   0  0  0  0  0  0  0  0  0  0  0  0
  -30.2562  -27.3574    9.3210 C   0  0  0  0  0  0  0  0  0  0  0  0
  -30.3562  -23.3549   15.0206 C   0  0  0  0  0  0  0  0  0  0  0  0
  -30.5498  -25.3847   17.1624 C   0  0  0  0  0  0  0  0  0  0  0  0
  -29.8414  -27.8346   10.7105 C   0  0  0  0  0  0  0  0  0  0  0  0
  -29.6058  -12.4201   18.2627 C   0  0  0  0  0  0  0  0  0  0  0  0
  -31.0319  -27.8016   11.6637 C   0  0  0  0  0  0  0  0  0  0  0  0
  -28.1682  -12.1278   18.6984 C   0  0  0  0  0  0  0  0  0  0  0  0
  -30.5315  -12.6231   19.4609 C   0  0  0  0  0  0  0  0  0  0  0  0
  -28.6390  -13.3319   20.8700 C   0  0  0  0  0  0  0  0  0  0  0  0
  -31.5681  -26.3743   11.8274 C   0  0  1  0  0  0  0  0  0  0  0  0
  -29.8558  -24.7823   14.8219 C   0  0  1  0  0  0  0  0  0  0  0  0
  -27.6561  -13.1843   19.6971 C   0  0  2  0  0  0  0  0  0  0  0  0
  -25.1532  -26.6385   20.6907 C   0  0  0  0  0  0  0  0  0  0  0  0
  -29.5167  -29.1233   16.3713 C   0  0  0  0  0  0  0  0  0  0  0  0
  -28.1241  -29.4282   18.4295 C   0  0  0  0  0  0  0  0  0  0  0  0
  -27.0238  -28.9755   16.2370 C   0  0  0  0  0  0  0  0  0  0  0  0
  -26.3989  -23.1577   19.7915 C   0  0  0  0  0  0  0  0  0  0  0  0
  -34.6498  -21.5215   19.4541 C   0  0  0  0  0  0  0  0  0  1  0  0
  -34.4512  -19.0454   21.3871 C   0  0  0  0  0  0  0  0  0  0  0  0
  -35.5391  -20.1142   21.4315 C   0  0  2  0  0  0  0  0  0  0  0  0
  -28.2707  -27.1126   17.4061 C   0  0  1  0  0  0  0  0  0  0  0  0
  -25.7595  -25.5723   19.7917 C   0  0  2  0  0  0  0  0  0  0  0  0
  -28.2527  -28.6387   17.1093 C   0  0  0  0  0  0  0  0  0  0  0  0
  -25.8659  -11.5911   20.2785 N   0  0  0  0  0  0  0  0  0  0  0  0
  -26.2481  -12.8749   20.1701 N   0  0  0  0  0  0  0  0  0  0  0  0
  -29.5479  -25.4544   16.0859 N   0  0  0  0  0  0  0  0  0  0  0  0
  -29.9845  -13.6407   20.3609 N   0  0  0  0  0  0  0  0  0  0  0  0
  -25.4947  -15.1013   20.4641 N   0  0  0  0  0  0  0  0  0  0  0  0
  -21.9070  -12.6232   21.6407 N   0  0  0  0  0  0  0  0  0  0  0  0
  -30.1143  -15.6993   21.5045 N   0  0  0  0  0  0  0  0  0  0  0  0
  -33.2970  -19.4325   22.1661 N   0  0  0  0  0  0  0  0  0  0  0  0
  -30.7186  -25.6144   12.7193 N   0  0  0  0  0  0  0  0  0  0  0  0
  -27.0740  -26.6208   18.0802 N   0  0  0  0  0  0  0  0  0  0  0  0
  -36.0405  -20.2416   22.8317 N   0  3  0  0  0  0  0  0  0  0  0  0
  -25.8418  -24.2992   20.5620 N   0  3  0  0  0  0  0  0  0  0  0  0
  -22.6910  -14.7639   21.3929 O   0  0  0  0  0  0  0  0  0  0  0  0
  -31.6623  -26.3001   14.7346 O   0  0  0  0  0  0  0  0  0  0  0  0
  -35.0433  -22.4679   21.6265 O   0  0  0  0  0  0  0  0  0  0  0  0
  -27.5633  -26.3655   15.2688 O   0  0  0  0  0  0  0  0  0  0  0  0
  -28.1639  -25.7599   19.9372 O   0  0  0  0  0  0  0  0  0  0  0  0
  -31.8769  -14.9576   20.1911 O   0  0  0  0  0  0  0  0  0  0  0  0
  -21.6072   -7.0604   21.6513 O   0  0  0  0  0  0  0  0  0  0  0  0
  -34.2592  -22.8462   19.0949 O   0  0  0  0  0  0  0  0  0  1  0  0
  -21.8207   -3.0569   17.8657 F   0  0  0  0  0  0  0  0  0  0  0  0
  -19.3182   -6.2114   20.3542 F   0  0  0  0  0  0  0  0  0  0  0  0
  -28.6852  -17.5256   23.2583 F   0  0  0  0  0  0  0  0  0  0  0  0
  -30.8119  -19.1800   23.2083 S   0  0  0  0  0  0  0  0  0  0  0  0
  1  2  1  0  0  0  0
  1  5  2  0  0  0  0
  2  6  2  0  0  0  0
  3  8  2  0  0  0  0
  3 16  1  0  0  0  0
  4  9  1  0  0  0  0
  4 16  2  0  0  0  0
  5 18  1  0  0  0  0
  6 20  1  0  0  0  0
  7 10  2  0  0  0  0
  7 19  1  0  0  0  0
  8 23  1  0  0  0  0
  9 23  2  0  0  0  0
 10 24  1  0  0  0  0
 11 12  2  0  0  0  0
 11 25  1  0  0  0  0
 12 26  1  0  0  0  0
 13 21  1  0  0  0  0
 13 24  2  0  0  0  0
 14 22  1  0  0  0  0
 14 30  2  0  0  0  0
 15 26  2  0  0  0  0
 15 27  1  0  0  0  0
 16 28  1  0  0  0  0
 17 28  1  0  0  0  0
 17 29  2  0  0  0  0
 17 32  1  0  0  0  0
 18 20  2  0  0  0  0
 18 38  1  0  0  0  0
 19 21  2  0  0  0  0
 19 39  1  0  0  0  0
 20 47  1  0  0  0  0
 21 40  1  0  0  0  0
 22 31  2  0  0  0  0
 22 67  1  0  0  0  0
 23 79  1  0  0  0  0
 24 80  1  0  0  0  0
 25 27  2  0  0  0  0
 25 79  1  0  0  0  0
 26 81  1  0  0  0  0
 27 82  1  0  0  0  0
 28 61  2  0  0  0  0
 29 62  1  0  0  0  0
 29 65  1  0  0  0  0
 30 68  1  0  0  0  0
 30 84  1  0  0  0  0
 31 83  1  0  0  0  0
 31 84  1  0  0  0  0
 32 66  1  0  0  0  0
 32 73  2  0  0  0  0
 33 48  1  0  0  0  0
 33 69  1  0  0  0  0
 33 74  2  0  0  0  0
 34 55  1  0  0  0  0
 34 57  1  0  0  0  0
 34 75  2  0  0  0  0
 35 58  1  0  0  0  0
 35 63  1  0  0  0  0
 35 76  2  0  0  0  0
 36 59  1  0  0  0  0
 36 70  1  0  0  0  0
 36 77  2  0  0  0  0
 37 64  1  0  0  0  0
 37 67  1  0  0  0  0
 37 78  2  0  0  0  0
 38 41  1  0  0  0  0
 39 48  1  0  0  0  0
 40 63  1  0  0  0  0
 41 43  1  0  0  0  0
 42 44  1  0  0  0  0
 42 45  1  0  0  0  0
 43 47  1  0  0  0  0
 44 49  1  0  0  0  0
 45 64  1  0  0  0  0
 46 49  1  0  0  0  0
 46 64  1  0  0  0  0
 47 69  1  0  0  0  0
 48 63  1  0  0  0  0
 49 62  1  0  0  0  0
 50 59  1  0  0  0  0
 51 60  1  0  0  0  0
 52 60  1  0  0  0  0
 53 60  1  0  0  0  0
 54 72  1  0  0  0  0
 55 80  1  0  0  0  0
 56 57  1  0  0  0  0
 56 68  1  0  0  0  0
 57 71  1  0  0  0  0
 58 60  1  0  0  0  0
 58 70  1  0  0  0  0
 59 72  1  0  0  0  0
 61 62  1  0  0  0  0
M  CHG  2  71   1  72   1
M  ISO  4  37 100  55 101  67 100  80 101
M  END
> <Batch ID>
0153

> <Smiles>
CNC(C)C(=O)NC(C(=O)N1Cc2cc([101O:1][101CH2:1]C(=O)C(N)CNc3cc([100NH:0][100C:0](=O)N4CCCC(n5nc(-c6ccc(Oc7ccc(F)cc7F)cc6)c(C(N)=O)c5N)C4)c(F)s3)ccc2CC1C(=O)NC1CCCc2ccccc21)C(C)(C)C

> <Shape>
0.185

> <Color>
0.192

> <Negative vol penalty>
0.000

$$$$

  -OEChem-04052303303D

 86 95  0     1  0  0  0  0  0999 V2000
  -27.1934  -25.2770   15.7144 C   0  0  0  0  0  0  0  0  0  0  0  0
  -26.0501  -25.4924   16.4772 C   0  0  0  0  0  0  0  0  0  0  0  0
  -26.9807  -14.9032   19.1950 C   0  0  0  0  0  0  0  0  0  0  0  0
  -24.6278  -15.0856   19.7125 C   0  0  0  0  0  0  0  0  0  0  0  0
  -28.4474  -25.5933   16.2353 C   0  0  0  0  0  0  0  0  0  0  0  0
  -26.1602  -26.0234   17.7618 C   0  0  0  0  0  0  0  0  0  0  0  0
  -22.7593  -29.6675   18.6560 C   0  0  0  0  0  0  0  0  0  0  0  0
  -27.0122  -13.6392   19.7839 C   0  0  0  0  0  0  0  0  0  0  0  0
  -24.6593  -13.8216   20.3014 C   0  0  0  0  0  0  0  0  0  0  0  0
  -21.4553  -29.2652   18.9419 C   0  0  0  0  0  0  0  0  0  0  0  0
  -24.6430  -10.5995   19.2822 C   0  0  0  0  0  0  0  0  0  0  0  0
  -23.6095   -9.7157   18.9719 C   0  0  0  0  0  0  0  0  0  0  0  0
  -21.8764  -29.5930   21.2944 C   0  0  0  0  0  0  0  0  0  0  0  0
  -19.5281  -22.6496   20.9220 C   0  0  0  0  0  0  0  0  0  0  0  0
  -23.0018   -9.6062   21.3077 C   0  0  0  0  0  0  0  0  0  0  0  0
  -19.1901  -20.9311   19.3940 C   0  0  0  0  0  0  0  0  0  0  0  0
  -25.7885  -15.6264   19.1593 C   0  0  0  0  0  0  0  0  0  0  0  0
  -26.0628  -17.2569   17.2166 C   0  0  0  0  0  0  0  0  0  0  0  0
  -28.5722  -26.1375   17.5233 C   0  0  0  0  0  0  0  0  0  0  0  0
  -23.6364  -30.0257   19.6897 C   0  0  0  0  0  0  0  0  0  0  0  0
  -27.4172  -26.3461   18.3010 C   0  0  0  0  0  0  0  0  0  0  0  0
  -23.1902  -30.0019   21.0188 C   0  0  0  0  0  0  0  0  0  0  0  0
  -20.1236  -21.7473   19.9939 C   0  0  0  0  0  0  0  0  0  0  0  0
  -25.8516  -13.0983   20.3371 C   0  0  0  0  0  0  0  0  0  0  0  0
  -21.0146  -29.2251   20.2614 C   0  0  0  0  0  0  0  0  0  0  0  0
  -24.8560  -10.9867   20.6053 C   0  0  0  0  0  0  0  0  0  0  0  0
  -22.7889   -9.2191   19.9846 C   0  0  0  0  0  0  0  0  0  0  0  0
  -24.0353  -10.4901   21.6180 C   0  0  0  0  0  0  0  0  0  0  0  0
  -25.7554  -16.9324   18.5515 C   0  0  0  0  0  0  0  0  0  0  0  0
  -18.1618  -22.4888   20.9959 C   0  0  0  0  0  0  0  0  0  0  0  0
  -25.8793  -18.6161   17.1426 C   0  0  0  0  0  0  0  0  0  0  0  0
  -26.4771  -16.4058   16.1397 C   0  0  0  0  0  0  0  0  0  0  0  0
  -17.2797  -23.2851   21.8676 C   0  0  0  0  0  0  0  0  0  0  0  0
  -26.4097  -28.9067   20.7670 C   0  0  0  0  0  0  0  0  0  0  0  0
  -26.2825  -31.5288   22.6725 C   0  0  0  0  0  0  0  0  0  0  0  0
  -24.3740  -33.9095   24.2011 C   0  0  0  0  0  0  0  0  0  0  0  0
  -22.5261  -22.4581   20.2570 C   0  0  0  0  0  0  0  0  0  0  0  0
  -29.9526  -26.4195   18.0616 C   0  0  0  0  0  0  0  0  0  0  0  0
  -25.0316  -30.4829   19.3627 C   0  0  0  0  0  0  0  0  0  0  0  0
  -24.0863  -30.3961   22.1634 C   0  0  0  0  0  0  0  0  0  0  0  0
  -29.9541  -27.3278   19.2884 C   0  0  0  0  0  0  0  0  0  0  0  0
  -26.0599  -22.5713   19.8368 C   0  0  0  0  0  0  0  0  0  0  0  0
  -28.9015  -26.8699   20.2930 C   0  0  0  0  0  0  0  0  0  0  0  0
  -26.4100  -21.1695   19.3322 C   0  0  0  0  0  0  0  0  0  0  0  0
  -18.0862  -26.4931   22.9865 C   0  0  0  0  0  0  0  0  0  0  0  0
  -18.5921  -26.2271   20.5192 C   0  0  0  0  0  0  0  0  0  0  0  0
  -24.9334  -22.5378   20.8681 C   0  0  0  0  0  0  0  0  0  0  0  0
  -16.9426  -25.4937   22.8529 C   0  0  0  0  0  0  0  0  0  0  0  0
  -17.4464  -25.2286   20.3986 C   0  0  0  0  0  0  0  0  0  0  0  0
  -24.0709  -20.4269   19.9357 C   0  0  0  0  0  0  0  0  0  0  0  0
  -27.4938  -26.9435   19.6893 C   0  0  1  0  0  0  0  0  0  0  0  0
  -25.9992  -30.3329   20.5326 C   0  0  1  0  0  0  0  0  0  0  0  0
  -25.1563  -20.4158   18.8469 C   0  0  2  0  0  0  0  0  0  0  0  0
  -18.3560  -27.2204   21.6636 C   0  0  0  0  0  0  0  0  0  0  0  0
  -24.5496  -35.8961   25.7242 C   0  0  0  0  0  0  0  0  0  0  0  0
  -26.6910  -29.6644   25.0531 C   0  0  0  0  0  0  0  0  0  0  0  0
  -25.9179  -31.5177   26.5483 C   0  0  0  0  0  0  0  0  0  0  0  0
  -27.9782  -31.8053   25.1718 C   0  0  0  0  0  0  0  0  0  0  0  0
  -23.2449  -35.7246   22.1543 C   0  0  0  0  0  0  0  0  0  0  0  0
  -19.5244  -28.1896   21.7986 C   0  0  0  0  0  0  0  0  0  1  0  0
  -25.7178  -31.8304   24.0397 C   0  0  1  0  0  0  0  0  0  0  0  0
  -24.5190  -35.4185   24.2807 C   0  0  2  0  0  0  0  0  0  0  0  0
  -26.5597  -31.1951   25.1820 C   0  0  0  0  0  0  0  0  0  0  0  0
  -25.4034  -17.9995   19.2736 N   0  0  0  0  0  0  0  0  0  0  0  0
  -25.4887  -19.0079   18.3893 N   0  0  0  0  0  0  0  0  0  0  0  0
  -17.2287  -24.6010   21.7149 N   0  0  0  0  0  0  0  0  0  0  0  0
  -25.4435  -30.8300   21.7929 N   0  0  0  0  0  0  0  0  0  0  0  0
  -23.7777  -21.8117   20.3372 N   0  0  0  0  0  0  0  0  0  0  0  0
  -26.0157  -19.5024   16.1335 N   0  0  0  0  0  0  0  0  0  0  0  0
  -25.4919  -15.8331   15.3238 N   0  0  0  0  0  0  0  0  0  0  0  0
  -21.5092  -21.6794   19.7055 N   0  0  0  0  0  0  0  0  0  0  0  0
  -27.0190  -28.3106   19.6794 N   0  0  0  0  0  0  0  0  0  0  0  0
  -25.5993  -33.2822   24.1211 N   0  0  0  0  0  0  0  0  0  0  0  0
  -16.5474  -22.6711   22.7922 N   0  3  0  0  0  0  0  0  0  0  0  0
  -23.3798  -36.0855   23.5890 N   0  3  0  0  0  0  0  0  0  0  0  0
  -27.6844  -16.1473   15.9181 O   0  0  0  0  0  0  0  0  0  0  0  0
  -26.1913  -28.3861   21.8547 O   0  0  0  0  0  0  0  0  0  0  0  0
  -27.4232  -31.9057   22.3928 O   0  0  0  0  0  0  0  0  0  0  0  0
  -23.2830  -33.3436   24.2127 O   0  0  0  0  0  0  0  0  0  0  0  0
  -22.3743  -23.6263   20.6236 O   0  0  0  0  0  0  0  0  0  0  0  0
  -25.8820  -11.8648   20.9117 O   0  0  0  0  0  0  0  0  0  0  0  0
  -19.7426  -28.8323   20.5433 O   0  0  0  0  0  0  0  0  0  1  0  0
  -21.7955   -8.3715   19.6863 F   0  0  0  0  0  0  0  0  0  0  0  0
  -24.2343  -10.8593   22.8908 F   0  0  0  0  0  0  0  0  0  0  0  0
  -17.2491  -27.9608   21.3570 F   0  0  0  0  0  0  0  0  0  0  0  0
  -17.6028  -21.2539   19.9496 S   0  0  0  0  0  0  0  0  0  0  0  0
  1  2  1  0  0  0  0
  1  5  2  0  0  0  0
  2  6  2  0  0  0  0
  3  8  2  0  0  0  0
  3 17  1  0  0  0  0
  4  9  1  0  0  0  0
  4 17  2  0  0  0  0
  5 19  1  0  0  0  0
  6 21  1  0  0  0  0
  7 10  2  0  0  0  0
  7 20  1  0  0  0  0
  8 24  1  0  0  0  0
  9 24  2  0  0  0  0
 10 25  1  0  0  0  0
 11 12  2  0  0  0  0
 11 26  1  0  0  0  0
 12 27  1  0  0  0  0
 13 22  1  0  0  0  0
 13 25  2  0  0  0  0
 14 23  1  0  0  0  0
 14 30  2  0  0  0  0
 15 27  2  0  0  0  0
 15 28  1  0  0  0  0
 16 23  2  0  0  0  0
 16 86  1  0  0  0  0
 17 29  1  0  0  0  0
 18 29  1  0  0  0  0
 18 31  2  0  0  0  0
 18 32  1  0  0  0  0
 19 21  2  0  0  0  0
 19 38  1  0  0  0  0
 20 22  2  0  0  0  0
 20 39  1  0  0  0  0
 21 51  1  0  0  0  0
 22 40  1  0  0  0  0
 23 71  1  0  0  0  0
 24 81  1  0  0  0  0
 25 82  1  0  0  0  0
 26 28  2  0  0  0  0
 26 81  1  0  0  0  0
 27 83  1  0  0  0  0
 28 84  1  0  0  0  0
 29 64  2  0  0  0  0
 30 33  1  0  0  0  0
 30 86  1  0  0  0  0
 31 65  1  0  0  0  0
 31 69  1  0  0  0  0
 32 70  1  0  0  0  0
 32 76  2  0  0  0  0
 33 66  1  0  0  0  0
 33 74  2  0  0  0  0
 34 52  1  0  0  0  0
 34 72  1  0  0  0  0
 34 77  2  0  0  0  0
 35 61  1  0  0  0  0
 35 67  1  0  0  0  0
 35 78  2  0  0  0  0
 36 62  1  0  0  0  0
 36 73  1  0  0  0  0
 36 79  2  0  0  0  0
 37 68  1  0  0  0  0
 37 71  1  0  0  0  0
 37 80  2  0  0  0  0
 38 41  1  0  0  0  0
 39 52  1  0  0  0  0
 40 67  1  0  0  0  0
 41 43  1  0  0  0  0
 42 44  1  0  0  0  0
 42 47  1  0  0  0  0
 43 51  1  0  0  0  0
 44 53  1  0  0  0  0
 45 48  1  0  0  0  0
 45 54  1  0  0  0  0
 46 49  1  0  0  0  0
 46 54  1  0  0  0  0
 47 68  1  0  0  0  0
 48 66  1  0  0  0  0
 49 66  1  0  0  0  0
 50 53  1  0  0  0  0
 50 68  1  0  0  0  0
 51 72  1  0  0  0  0
 52 67  1  0  0  0  0
 53 65  1  0  0  0  0
 54 60  1  0  0  0  0
 54 85  1  0  0  0  0
 55 62  1  0  0  0  0
 56 63  1  0  0  0  0
 57 63  1  0  0  0  0
 58 63  1  0  0  0  0
 59 75  1  0  0  0  0
 60 82  1  0  0  0  0
 61 63  1  0  0  0  0
 61 73  1  0  0  0  0
 62 75  1  0  0  0  0
 64 65  1  0  0  0  0
M  CHG  2  74   1  75   1
M  ISO  4  37 100  60 101  71 100  82 101
M  END
> <Batch ID>
0153

> <Smiles>
CNC(C)C(=O)NC(C(=O)N1Cc2cc([101O:1][101CH2:1]C3(F)CCN(C(=N)c4cc([100NH:0][100C:0](=O)N5CCCC(n6nc(-c7ccc(Oc8ccc(F)cc8F)cc7)c(C(N)=O)c6N)C5)cs4)CC3)ccc2CC1C(=O)NC1CCCc2ccccc21)C(C)(C)C

> <Shape>
0.257

> <Color>
0.067

> <Negative vol penalty>
0.000

$$$$

  -OEChem-04052303303D

 86 95  0     1  0  0  0  0  0999 V2000
  -28.1652  -32.1088   22.0524 C   0  0  0  0  0  0  0  0  0  0  0  0
  -28.6859  -30.8260   22.1891 C   0  0  0  0  0  0  0  0  0  0  0  0
  -23.3237   -9.6070   20.2571 C   0  0  0  0  0  0  0  0  0  0  0  0
  -23.8728  -10.0767   22.5625 C   0  0  0  0  0  0  0  0  0  0  0  0
  -26.8258  -32.2831   21.7066 C   0  0  0  0  0  0  0  0  0  0  0  0
  -27.8671  -29.7166   21.9811 C   0  0  0  0  0  0  0  0  0  0  0  0
  -30.1051  -26.1504   19.1672 C   0  0  0  0  0  0  0  0  0  0  0  0
  -22.6538   -8.4492   20.6526 C   0  0  0  0  0  0  0  0  0  0  0  0
  -23.2029   -8.9189   22.9580 C   0  0  0  0  0  0  0  0  0  0  0  0
  -31.0398  -25.3327   19.8010 C   0  0  0  0  0  0  0  0  0  0  0  0
  -20.0069   -7.9381   23.4521 C   0  0  0  0  0  0  0  0  0  0  0  0
  -19.1539   -8.0284   24.5520 C   0  0  0  0  0  0  0  0  0  0  0  0
  -29.3741  -23.6002   20.0089 C   0  0  0  0  0  0  0  0  0  0  0  0
  -31.2183  -18.2606   21.2688 C   0  0  0  0  0  0  0  0  0  0  0  0
  -20.4736   -6.3698   25.7115 C   0  0  0  0  0  0  0  0  0  0  0  0
  -23.9332  -10.4207   21.2121 C   0  0  0  0  0  0  0  0  0  0  0  0
  -24.0841  -12.9089   20.6701 C   0  0  0  0  0  0  0  0  0  0  0  0
  -25.9926  -31.1753   21.4849 C   0  0  0  0  0  0  0  0  0  0  0  0
  -28.7927  -25.7024   18.9589 C   0  0  0  0  0  0  0  0  0  0  0  0
  -26.5149  -29.8762   21.6334 C   0  0  0  0  0  0  0  0  0  0  0  0
  -28.4255  -24.4131   19.3699 C   0  0  0  0  0  0  0  0  0  0  0  0
  -31.1477  -19.6167   21.7003 C   0  0  0  0  0  0  0  0  0  0  0  0
  -22.5933   -8.1052   22.0030 C   0  0  0  0  0  0  0  0  0  0  0  0
  -30.6736  -24.0585   20.2245 C   0  0  0  0  0  0  0  0  0  0  0  0
  -21.0932   -7.0636   23.4818 C   0  0  0  0  0  0  0  0  0  0  0  0
  -19.3873   -7.2443   25.6817 C   0  0  0  0  0  0  0  0  0  0  0  0
  -21.3266   -6.2794   24.6115 C   0  0  0  0  0  0  0  0  0  0  0  0
  -24.6259  -11.6165   20.8042 C   0  0  0  0  0  0  0  0  0  0  0  0
  -29.9225  -19.9213   22.2514 C   0  0  0  0  0  0  0  0  0  0  0  0
  -25.1417  -13.6839   20.2612 C   0  0  0  0  0  0  0  0  0  0  0  0
  -30.0442  -17.5802   21.5068 C   0  0  0  0  0  0  0  0  0  0  0  0
  -29.4542  -21.1562   22.7961 C   0  0  0  0  0  0  0  0  0  0  0  0
  -22.7445  -13.3679   20.8952 C   0  0  0  0  0  0  0  0  0  0  0  0
  -25.9175  -26.6569   19.9210 C   0  0  0  0  0  0  0  0  0  0  0  0
  -24.8987  -24.3404   17.8918 C   0  0  0  0  0  0  0  0  0  0  0  0
  -25.5755  -21.4297   16.2434 C   0  0  0  0  0  0  0  0  0  0  0  0
  -30.4709  -15.2494   20.6516 C   0  0  0  0  0  0  0  0  0  0  0  0
  -24.5394  -31.4135   21.1592 C   0  0  0  0  0  0  0  0  0  0  0  0
  -27.8038  -26.5865   18.2498 C   0  0  0  0  0  0  0  0  0  0  0  0
  -27.0348  -23.8773   19.1518 C   0  0  0  0  0  0  0  0  0  0  0  0
  -23.8336  -30.1857   20.5897 C   0  0  0  0  0  0  0  0  0  0  0  0
  -29.7663  -12.3731   18.6747 C   0  0  0  0  0  0  0  0  0  0  0  0
  -24.1613  -28.9486   21.4197 C   0  0  0  0  0  0  0  0  0  0  0  0
  -28.3216  -12.0262   19.0415 C   0  0  0  0  0  0  0  0  0  0  0  0
  -34.0682  -21.8282   22.1024 C   0  0  0  0  0  0  0  0  0  0  0  0
  -30.5496  -12.8883   19.8809 C   0  0  0  0  0  0  0  0  0  0  0  0
  -32.8207  -21.1890   22.7060 C   0  0  0  0  0  0  0  0  0  0  0  0
  -28.4758  -13.6569   20.9661 C   0  0  0  0  0  0  0  0  0  0  0  0
  -32.7936  -20.8935   20.3014 C   0  0  0  0  0  0  0  0  0  0  0  0
  -25.6647  -28.6479   21.3918 C   0  0  1  0  0  0  0  0  0  0  0  0
  -26.3533  -26.2217   18.5505 C   0  0  1  0  0  0  0  0  0  0  0  0
  -27.6287  -13.1950   19.7691 C   0  0  2  0  0  0  0  0  0  0  0  0
  -33.6824  -22.0971   20.6480 C   0  0  1  0  0  0  0  0  0  0  0  0
  -24.5334  -19.7582   14.6886 C   0  0  0  0  0  0  0  0  0  0  0  0
  -23.2826  -23.1934   20.2118 C   0  0  0  0  0  0  0  0  0  0  0  0
  -23.0478  -21.0696   18.9070 C   0  0  0  0  0  0  0  0  0  0  0  0
  -22.0936  -23.1934   18.0117 C   0  0  0  0  0  0  0  0  0  0  0  0
  -27.6060  -21.9368   14.1509 C   0  0  0  0  0  0  0  0  0  0  0  0
  -35.7605  -23.1110   20.2634 C   0  0  0  0  0  0  0  0  0  0  0  0
  -32.9528  -23.4293   20.4796 C   0  0  0  0  0  0  0  0  0  1  0  0
  -24.6005  -22.8657   18.0160 C   0  0  1  0  0  0  0  0  0  0  0  0
  -25.3731  -21.0217   14.7953 C   0  0  2  0  0  0  0  0  0  0  0  0
  -23.2819  -22.5910   18.7926 C   0  0  0  0  0  0  0  0  0  0  0  0
  -25.9266  -11.5691   20.5046 N   0  0  0  0  0  0  0  0  0  0  0  0
  -28.2541  -21.3369   23.3008 N   0  0  0  0  0  0  0  0  0  0  0  0
  -26.2110  -12.8413   20.1781 N   0  0  0  0  0  0  0  0  0  0  0  0
  -32.1898  -20.5116   21.5769 N   0  0  3  0  0  0  0  0  0  0  0  0
  -26.1021  -24.7820   18.4597 N   0  0  0  0  0  0  0  0  0  0  0  0
  -29.8349  -13.9971   20.5170 N   0  0  0  0  0  0  0  0  0  0  0  0
  -25.2521  -14.9970   19.9681 N   0  0  0  0  0  0  0  0  0  0  0  0
  -21.7815  -12.4393   21.3130 N   0  0  0  0  0  0  0  0  0  0  0  0
  -29.6821  -16.2362   21.2420 N   0  0  0  0  0  0  0  0  0  0  0  0
  -26.0306  -28.0163   20.1421 N   0  0  0  0  0  0  0  0  0  0  0  0
  -24.6175  -22.3301   16.6590 N   0  0  0  0  0  0  0  0  0  0  0  0
  -26.6874  -20.7693   14.1397 N   0  3  0  0  0  0  0  0  0  0  0  0
  -22.4077  -14.5627   20.7149 O   0  0  0  0  0  0  0  0  0  0  0  0
  -25.5075  -25.8215   20.7183 O   0  0  0  0  0  0  0  0  0  0  0  0
  -24.0969  -25.0722   17.3060 O   0  0  0  0  0  0  0  0  0  0  0  0
  -26.4897  -20.9906   16.9377 O   0  0  0  0  0  0  0  0  0  0  0  0
  -31.6204  -15.4403   20.2463 O   0  0  0  0  0  0  0  0  0  0  0  0
  -21.9395   -6.9756   22.3893 O   0  0  0  0  0  0  0  0  0  0  0  0
  -31.5837  -23.2586   20.8439 O   0  0  0  0  0  0  0  0  0  1  0  0
  -34.8528  -22.1050   19.8429 O   0  0  0  0  0  0  0  0  0  0  0  0
  -18.5690   -7.3322   26.7386 F   0  0  0  0  0  0  0  0  0  0  0  0
  -22.3692   -5.4384   24.6464 F   0  0  0  0  0  0  0  0  0  0  0  0
  -28.8637  -18.5754   22.2473 S   0  0  0  0  0  0  0  0  0  0  0  0
  1  2  1  0  0  0  0
  1  5  2  0  0  0  0
  2  6  2  0  0  0  0
  3  8  2  0  0  0  0
  3 16  1  0  0  0  0
  4  9  1  0  0  0  0
  4 16  2  0  0  0  0
  5 18  1  0  0  0  0
  6 20  1  0  0  0  0
  7 10  2  0  0  0  0
  7 19  1  0  0  0  0
  8 23  1  0  0  0  0
  9 23  2  0  0  0  0
 10 24  1  0  0  0  0
 11 12  2  0  0  0  0
 11 25  1  0  0  0  0
 12 26  1  0  0  0  0
 13 21  1  0  0  0  0
 13 24  2  0  0  0  0
 14 22  1  0  0  0  0
 14 31  2  0  0  0  0
 15 26  2  0  0  0  0
 15 27  1  0  0  0  0
 16 28  1  0  0  0  0
 17 28  1  0  0  0  0
 17 30  2  0  0  0  0
 17 33  1  0  0  0  0
 18 20  2  0  0  0  0
 18 38  1  0  0  0  0
 19 21  2  0  0  0  0
 19 39  1  0  0  0  0
 20 50  1  0  0  0  0
 21 40  1  0  0  0  0
 22 29  2  0  0  0  0
 22 67  1  0  0  0  0
 23 81  1  0  0  0  0
 24 82  1  0  0  0  0
 25 27  2  0  0  0  0
 25 81  1  0  0  0  0
 26 84  1  0  0  0  0
 27 85  1  0  0  0  0
 28 64  2  0  0  0  0
 29 32  1  0  0  0  0
 29 86  1  0  0  0  0
 30 66  1  0  0  0  0
 30 70  1  0  0  0  0
 31 72  1  0  0  0  0
 31 86  1  0  0  0  0
 32 65  2  0  0  0  0
 33 71  1  0  0  0  0
 33 76  2  0  0  0  0
 34 51  1  0  0  0  0
 34 73  1  0  0  0  0
 34 77  2  0  0  0  0
 35 61  1  0  0  0  0
 35 68  1  0  0  0  0
 35 78  2  0  0  0  0
 36 62  1  0  0  0  0
 36 74  1  0  0  0  0
 36 79  2  0  0  0  0
 37 69  1  0  0  0  0
 37 72  1  0  0  0  0
 37 80  2  0  0  0  0
 38 41  1  0  0  0  0
 39 51  1  0  0  0  0
 40 68  1  0  0  0  0
 41 43  1  0  0  0  0
 42 44  1  0  0  0  0
 42 46  1  0  0  0  0
 43 50  1  0  0  0  0
 44 52  1  0  0  0  0
 45 47  1  0  0  0  0
 45 53  1  0  0  0  0
 46 69  1  0  0  0  0
 47 67  1  0  0  0  0
 48 52  1  0  0  0  0
 48 69  1  0  0  0  0
 49 53  1  0  0  0  0
 49 67  1  0  0  0  0
 50 73  1  0  0  0  0
 51 68  1  0  0  0  0
 52 66  1  0  0  0  0
 53 60  1  0  0  0  0
 53 83  1  0  0  0  0
 54 62  1  0  0  0  0
 55 63  1  0  0  0  0
 56 63  1  0  0  0  0
 57 63  1  0  0  0  0
 58 75  1  0  0  0  0
 59 83  1  0  0  0  0
 60 82  1  0  0  0  0
 61 63  1  0  0  0  0
 61 74  1  0  0  0  0
 62 75  1  0  0  0  0
 64 66  1  0  0  0  0
M  CHG  1  75   1
M  ISO  4  37 100  60 101  72 100  82 101
M  END
> <Batch ID>
0153

> <Smiles>
CNC(C)C(=O)NC(C(=O)N1Cc2cc([101O:1][101CH2:1]C3(OC)CCN(c4cc([100NH:0][100C:0](=O)N5CCCC(n6nc(-c7ccc(Oc8ccc(F)cc8F)cc7)c(C(N)=O)c6N)C5)sc4C=N)C3)ccc2CC1C(=O)NC1CCCc2ccccc21)C(C)(C)C

> <Shape>
0.274

> <Color>
0.170

> <Negative vol penalty>
0.000

$$$$

  -OEChem-04052303303D

 84 92  0     1  0  0  0  0  0999 V2000
  -19.1174  -25.8237   18.2840 C   0  0  0  0  0  0  0  0  0  0  0  0
  -19.9748  -24.9416   18.9337 C   0  0  0  0  0  0  0  0  0  0  0  0
  -23.0001   -9.8981   19.9799 C   0  0  0  0  0  0  0  0  0  0  0  0
  -23.7327   -9.9390   22.2818 C   0  0  0  0  0  0  0  0  0  0  0  0
  -19.0723  -27.1624   18.6708 C   0  0  0  0  0  0  0  0  0  0  0  0
  -20.7886  -25.3980   19.9699 C   0  0  0  0  0  0  0  0  0  0  0  0
  -22.4531  -22.2978   24.9823 C   0  0  0  0  0  0  0  0  0  0  0  0
  -22.2347   -8.7623   20.2437 C   0  0  0  0  0  0  0  0  0  0  0  0
  -22.9672   -8.8031   22.5456 C   0  0  0  0  0  0  0  0  0  0  0  0
  -23.6111  -21.5929   25.3078 C   0  0  0  0  0  0  0  0  0  0  0  0
  -23.2108   -5.4664   22.0581 C   0  0  0  0  0  0  0  0  0  0  0  0
  -23.8009   -4.4460   22.8037 C   0  0  0  0  0  0  0  0  0  0  0  0
  -24.4675  -23.5385   26.4481 C   0  0  0  0  0  0  0  0  0  0  0  0
  -29.8872  -17.4409   23.1089 C   0  0  0  0  0  0  0  0  0  0  0  0
  -32.0640  -16.5463   22.5630 C   0  0  0  0  0  0  0  0  0  0  0  0
  -22.0824   -4.6811   24.4855 C   0  0  0  0  0  0  0  0  0  0  0  0
  -23.7492  -10.4865   20.9990 C   0  0  0  0  0  0  0  0  0  0  0  0
  -24.1334  -13.0029   20.8330 C   0  0  0  0  0  0  0  0  0  0  0  0
  -19.8789  -27.6334   19.7187 C   0  0  0  0  0  0  0  0  0  0  0  0
  -22.2980  -23.6339   25.3785 C   0  0  0  0  0  0  0  0  0  0  0  0
  -20.7553  -26.7447   20.3703 C   0  0  0  0  0  0  0  0  0  0  0  0
  -23.3055  -24.2573   26.1286 C   0  0  0  0  0  0  0  0  0  0  0  0
  -30.6800  -16.5471   22.3891 C   0  0  0  0  0  0  0  0  0  0  0  0
  -30.4783  -18.3341   24.0025 C   0  0  0  0  0  0  0  0  0  0  0  0
  -31.8623  -18.3333   24.1764 C   0  0  0  0  0  0  0  0  0  0  0  0
  -22.2182   -8.2148   21.5265 C   0  0  0  0  0  0  0  0  0  0  0  0
  -24.6198  -22.2142   26.0384 C   0  0  0  0  0  0  0  0  0  0  0  0
  -22.0564   -6.0942   22.5261 C   0  0  0  0  0  0  0  0  0  0  0  0
  -23.2368   -4.0533   24.0175 C   0  0  0  0  0  0  0  0  0  0  0  0
  -32.6552  -17.4394   23.4567 C   0  0  0  0  0  0  0  0  0  0  0  0
  -21.4922   -5.7015   23.7399 C   0  0  0  0  0  0  0  0  0  0  0  0
  -24.5405  -11.6595   20.7271 C   0  0  0  0  0  0  0  0  0  0  0  0
  -25.2418  -13.7273   20.4682 C   0  0  0  0  0  0  0  0  0  0  0  0
  -22.8666  -13.5473   21.2260 C   0  0  0  0  0  0  0  0  0  0  0  0
  -21.9422  -26.3994   23.8523 C   0  0  0  0  0  0  0  0  0  0  0  0
  -27.6762  -20.3375   25.4913 C   0  0  0  0  0  0  0  0  0  0  0  0
  -21.5035  -27.5524   26.8524 C   0  0  0  0  0  0  0  0  0  0  0  0
  -22.0397  -27.1888   30.2031 C   0  0  0  0  0  0  0  0  0  0  0  0
  -30.7218  -14.6886   20.6889 C   0  0  0  0  0  0  0  0  0  0  0  0
  -19.8300  -29.0994   20.0700 C   0  0  0  0  0  0  0  0  0  0  0  0
  -21.0313  -24.3721   25.0424 C   0  0  0  0  0  0  0  0  0  0  0  0
  -23.1790  -25.6837   26.5954 C   0  0  0  0  0  0  0  0  0  0  0  0
  -20.4514  -29.4217   21.4265 C   0  0  0  0  0  0  0  0  0  0  0  0
  -29.5966  -12.2459   18.3557 C   0  0  0  0  0  0  0  0  0  0  0  0
  -21.7974  -28.7201   21.5774 C   0  0  0  0  0  0  0  0  0  0  0  0
  -28.1474  -11.9861   18.7733 C   0  0  0  0  0  0  0  0  0  0  0  0
  -30.5009  -12.4841   19.5636 C   0  0  0  0  0  0  0  0  0  0  0  0
  -28.5897  -13.2666   20.9068 C   0  0  0  0  0  0  0  0  0  0  0  0
  -21.6354  -27.1965   21.5154 C   0  0  1  0  0  0  0  0  0  0  0  0
  -21.2017  -25.8881   25.0556 C   0  0  1  0  0  0  0  0  0  0  0  0
  -27.6283  -13.0853   19.7208 C   0  0  2  0  0  0  0  0  0  0  0  0
  -21.5925  -28.3109   32.4028 C   0  0  0  0  0  0  0  0  0  0  0  0
  -23.6902  -29.5942   26.2527 C   0  0  0  0  0  0  0  0  0  0  0  0
  -23.8604  -30.0306   28.7121 C   0  0  0  0  0  0  0  0  0  0  0  0
  -21.7281  -30.5051   27.5076 C   0  0  0  0  0  0  0  0  0  0  0  0
  -20.4867  -24.8749   31.1996 C   0  0  0  0  0  0  0  0  0  0  0  0
  -28.2376  -19.2692   24.5771 C   0  0  0  0  0  0  0  0  0  0  0  0
  -26.1702  -20.5094   25.4503 C   0  0  0  0  0  0  0  0  0  1  0  0
  -22.4070  -28.1062   27.9276 C   0  0  1  0  0  0  0  0  0  0  0  0
  -21.0990  -27.2889   31.3904 C   0  0  2  0  0  0  0  0  0  0  0  0
  -22.9249  -29.5327   27.5897 C   0  0  0  0  0  0  0  0  0  0  0  0
  -25.8086  -11.5350   20.3263 N   0  0  0  0  0  0  0  0  0  0  0  0
  -26.2078  -12.8095   20.1770 N   0  0  0  0  0  0  0  0  0  0  0  0
  -21.9245  -26.3653   26.2363 N   0  0  0  0  0  0  0  0  0  0  0  0
  -29.9484  -13.5412   20.4134 N   0  0  0  0  0  0  0  0  0  0  0  0
  -32.4787  -19.2302   25.0776 N   0  0  0  0  0  0  0  0  0  0  0  0
  -25.4747  -15.0535   20.3713 N   0  0  0  0  0  0  0  0  0  0  0  0
  -21.8361  -12.6614   21.5689 N   0  0  0  0  0  0  0  0  0  0  0  0
  -30.0799  -15.6402   21.4808 N   0  0  0  0  0  0  0  0  0  0  0  0
  -29.6711  -19.2148   24.7082 N   0  0  0  0  0  0  0  0  0  0  0  0
  -21.1295  -26.6905   22.7733 N   0  0  0  0  0  0  0  0  0  0  0  0
  -21.6551  -28.0235   29.1751 N   0  0  0  0  0  0  0  0  0  0  0  0
  -20.9840  -25.9691   32.0728 N   0  3  0  0  0  0  0  0  0  0  0  0
  -22.6497  -14.7824   21.2560 O   0  0  0  0  0  0  0  0  0  0  0  0
  -23.1606  -26.5223   23.8998 O   0  0  0  0  0  0  0  0  0  0  0  0
  -28.3854  -21.0268   26.2231 O   0  0  0  0  0  0  0  0  0  0  0  0
  -20.4592  -28.1471   26.5745 O   0  0  0  0  0  0  0  0  0  0  0  0
  -23.0198  -26.4474   30.1904 O   0  0  0  0  0  0  0  0  0  0  0  0
  -31.8590  -14.8299   20.2318 O   0  0  0  0  0  0  0  0  0  0  0  0
  -21.4713   -7.1066   21.7843 O   0  0  0  0  0  0  0  0  0  0  0  0
  -25.7514  -21.5287   26.3569 O   0  0  0  0  0  0  0  0  0  1  0  0
  -23.8027   -3.0723   24.7327 F   0  0  0  0  0  0  0  0  0  0  0  0
  -33.9864  -17.4295   23.6158 F   0  0  0  0  0  0  0  0  0  0  0  0
  -20.3827   -6.3001   24.1941 F   0  0  0  0  0  0  0  0  0  0  0  0
  1  2  1  0  0  0  0
  1  5  2  0  0  0  0
  2  6  2  0  0  0  0
  3  8  2  0  0  0  0
  3 17  1  0  0  0  0
  4  9  1  0  0  0  0
  4 17  2  0  0  0  0
  5 19  1  0  0  0  0
  6 21  1  0  0  0  0
  7 10  2  0  0  0  0
  7 20  1  0  0  0  0
  8 26  1  0  0  0  0
  9 26  2  0  0  0  0
 10 27  1  0  0  0  0
 11 12  2  0  0  0  0
 11 28  1  0  0  0  0
 12 29  1  0  0  0  0
 13 22  1  0  0  0  0
 13 27  2  0  0  0  0
 14 23  2  0  0  0  0
 14 24  1  0  0  0  0
 15 23  1  0  0  0  0
 15 30  2  0  0  0  0
 16 29  2  0  0  0  0
 16 31  1  0  0  0  0
 17 32  1  0  0  0  0
 18 32  1  0  0  0  0
 18 33  2  0  0  0  0
 18 34  1  0  0  0  0
 19 21  2  0  0  0  0
 19 40  1  0  0  0  0
 20 22  2  0  0  0  0
 20 41  1  0  0  0  0
 21 49  1  0  0  0  0
 22 42  1  0  0  0  0
 23 69  1  0  0  0  0
 24 25  2  0  0  0  0
 24 70  1  0  0  0  0
 25 30  1  0  0  0  0
 25 66  1  0  0  0  0
 26 80  1  0  0  0  0
 27 81  1  0  0  0  0
 28 31  2  0  0  0  0
 28 80  1  0  0  0  0
 29 82  1  0  0  0  0
 30 83  1  0  0  0  0
 31 84  1  0  0  0  0
 32 62  2  0  0  0  0
 33 63  1  0  0  0  0
 33 67  1  0  0  0  0
 34 68  1  0  0  0  0
 34 74  2  0  0  0  0
 35 50  1  0  0  0  0
 35 71  1  0  0  0  0
 35 75  2  0  0  0  0
 36 57  1  0  0  0  0
 36 58  1  0  0  0  0
 36 76  2  0  0  0  0
 37 59  1  0  0  0  0
 37 64  1  0  0  0  0
 37 77  2  0  0  0  0
 38 60  1  0  0  0  0
 38 72  1  0  0  0  0
 38 78  2  0  0  0  0
 39 65  1  0  0  0  0
 39 69  1  0  0  0  0
 39 79  2  0  0  0  0
 40 43  1  0  0  0  0
 41 50  1  0  0  0  0
 42 64  1  0  0  0  0
 43 45  1  0  0  0  0
 44 46  1  0  0  0  0
 44 47  1  0  0  0  0
 45 49  1  0  0  0  0
 46 51  1  0  0  0  0
 47 65  1  0  0  0  0
 48 51  1  0  0  0  0
 48 65  1  0  0  0  0
 49 71  1  0  0  0  0
 50 64  1  0  0  0  0
 51 63  1  0  0  0  0
 52 60  1  0  0  0  0
 53 61  1  0  0  0  0
 54 61  1  0  0  0  0
 55 61  1  0  0  0  0
 56 73  1  0  0  0  0
 57 70  1  0  0  0  0
 58 81  1  0  0  0  0
 59 61  1  0  0  0  0
 59 72  1  0  0  0  0
 60 73  1  0  0  0  0
 62 63  1  0  0  0  0
M  CHG  1  73   1
M  ISO  4  39 100  58 101  69 100  81 101
M  END
> <Batch ID>
0153

> <Smiles>
CNC(C)C(=O)NC(C(=O)N1Cc2cc([101O:1][101CH2:1]C(=O)CNc3cc([100NH:0][100C:0](=O)N4CCCC(n5nc(-c6ccc(Oc7ccc(F)cc7F)cc6)c(C(N)=O)c5N)C4)cc(F)c3N)ccc2CC1C(=O)NC1CCCc2ccccc21)C(C)(C)C

> <Shape>
0.209

> <Color>
0.190

> <Negative vol penalty>
0.000

$$$$

  -OEChem-04052303303D

 85 94  0     1  0  0  0  0  0999 V2000
  -17.4327  -30.2619   23.2639 C   0  0  0  0  0  0  0  0  0  0  0  0
  -18.7814  -30.5769   23.1322 C   0  0  0  0  0  0  0  0  0  0  0  0
  -29.0871  -22.7276   18.7954 C   0  0  0  0  0  0  0  0  0  0  0  0
  -25.7953  -12.9196   22.4295 C   0  0  0  0  0  0  0  0  0  0  0  0
  -25.7151  -14.0905   20.3177 C   0  0  0  0  0  0  0  0  0  0  0  0
  -17.0310  -28.9276   23.3103 C   0  0  0  0  0  0  0  0  0  0  0  0
  -19.7292  -29.5576   23.0480 C   0  0  0  0  0  0  0  0  0  0  0  0
  -29.9322  -23.7267   19.2782 C   0  0  0  0  0  0  0  0  0  0  0  0
  -24.8995  -29.6004   19.7658 C   0  0  0  0  0  0  0  0  0  0  0  0
  -28.4588  -21.8556   19.6846 C   0  0  0  0  0  0  0  0  0  0  0  0
  -24.6771  -12.1732   22.0581 C   0  0  0  0  0  0  0  0  0  0  0  0
  -24.5968  -13.3440   19.9463 C   0  0  0  0  0  0  0  0  0  0  0  0
  -26.2251  -29.8650   20.1072 C   0  0  0  0  0  0  0  0  0  0  0  0
  -24.0034   -9.5058   20.0923 C   0  0  0  0  0  0  0  0  0  0  0  0
  -24.0349   -8.1311   20.3263 C   0  0  0  0  0  0  0  0  0  0  0  0
  -29.5209  -22.9819   21.5395 C   0  0  0  0  0  0  0  0  0  0  0  0
  -26.6240  -27.5001   20.3669 C   0  0  0  0  0  0  0  0  0  0  0  0
  -22.0936   -8.3293   21.7508 C   0  0  0  0  0  0  0  0  0  0  0  0
  -26.3143  -13.8784   21.5593 C   0  0  0  0  0  0  0  0  0  0  0  0
  -28.8204  -14.3294   21.7132 C   0  0  0  0  0  0  0  0  0  0  0  0
  -30.1492  -23.8539   20.6502 C   0  0  0  0  0  0  0  0  0  0  0  0
  -17.9734  -27.8914   23.2169 C   0  0  0  0  0  0  0  0  0  0  0  0
  -24.4226  -28.2821   19.7330 C   0  0  0  0  0  0  0  0  0  0  0  0
  -19.3398  -28.2082   23.0945 C   0  0  0  0  0  0  0  0  0  0  0  0
  -25.2927  -27.2213   20.0223 C   0  0  0  0  0  0  0  0  0  0  0  0
  -28.6758  -21.9828   21.0566 C   0  0  0  0  0  0  0  0  0  0  0  0
  -24.0779  -12.3853   20.8165 C   0  0  0  0  0  0  0  0  0  0  0  0
  -27.0868  -28.8151   20.4106 C   0  0  0  0  0  0  0  0  0  0  0  0
  -23.0171  -10.2923   20.6876 C   0  0  0  0  0  0  0  0  0  0  0  0
  -23.0799   -7.5428   21.1555 C   0  0  0  0  0  0  0  0  0  0  0  0
  -22.0622   -9.7040   21.5168 C   0  0  0  0  0  0  0  0  0  0  0  0
  -27.4690  -14.6502   21.9426 C   0  0  0  0  0  0  0  0  0  0  0  0
  -29.5199  -15.3745   22.2651 C   0  0  0  0  0  0  0  0  0  0  0  0
  -29.3922  -13.1886   21.0594 C   0  0  0  0  0  0  0  0  0  0  0  0
  -22.1833  -26.6669   21.3080 C   0  0  0  0  0  0  0  0  0  0  0  0
  -22.9359  -24.3253   19.1931 C   0  0  0  0  0  0  0  0  0  0  0  0
  -29.7160  -27.0580   20.8659 C   0  0  0  0  0  0  0  0  0  0  0  0
  -25.2380  -22.9697   17.0694 C   0  0  0  0  0  0  0  0  0  0  0  0
  -28.1436  -21.0871   23.3503 C   0  0  0  0  0  0  0  0  0  0  0  0
  -17.4960  -26.4645   23.3193 C   0  0  0  0  0  0  0  0  0  0  0  0
  -22.9970  -28.0116   19.3368 C   0  0  0  0  0  0  0  0  0  0  0  0
  -24.8353  -25.7868   19.9816 C   0  0  0  0  0  0  0  0  0  0  0  0
  -18.5264  -25.4420   22.8469 C   0  0  0  0  0  0  0  0  0  0  0  0
  -33.1863  -25.5609   21.5228 C   0  0  0  0  0  0  0  0  0  0  0  0
  -29.2195  -18.6669   25.7298 C   0  0  0  0  0  0  0  0  0  0  0  0
  -19.8981  -25.7551   23.4360 C   0  0  0  0  0  0  0  0  0  0  0  0
  -29.0214  -17.3334   25.0056 C   0  0  0  0  0  0  0  0  0  0  0  0
  -32.2996  -25.4447   20.2703 C   0  0  0  0  0  0  0  0  0  0  0  0
  -32.2394  -24.5611   22.2097 C   0  0  0  0  0  0  0  0  0  0  0  0
  -28.1159  -19.6668   25.3891 C   0  0  0  0  0  0  0  0  0  0  0  0
  -27.7033  -18.5559   23.2293 C   0  0  0  0  0  0  0  0  0  0  0  0
  -20.3956  -27.1305   22.9752 C   0  0  1  0  0  0  0  0  0  0  0  0
  -22.4835  -26.6645   19.8357 C   0  0  1  0  0  0  0  0  0  0  0  0
  -28.8260  -17.5385   23.4905 C   0  0  2  0  0  0  0  0  0  0  0  0
  -31.1167  -24.9970   21.2015 C   0  0  0  0  0  0  0  0  0  0  0  0
  -25.5792  -21.0342   15.5092 C   0  0  0  0  0  0  0  0  0  0  0  0
  -23.3666  -22.4778   21.5829 C   0  0  0  0  0  0  0  0  0  0  0  0
  -24.5916  -20.9109   20.0623 C   0  0  0  0  0  0  0  0  0  0  0  0
  -22.1855  -21.4221   19.6477 C   0  0  0  0  0  0  0  0  0  0  0  0
  -25.5987  -24.7605   14.7409 C   0  0  0  0  0  0  0  0  0  0  0  0
  -29.0144  -28.1546   21.6371 C   0  0  0  0  0  0  0  0  0  1  0  0
  -23.9289  -23.1885   19.1653 C   0  0  1  0  0  0  0  0  0  0  0  0
  -25.1214  -22.4787   15.6378 C   0  0  2  0  0  0  0  0  0  0  0  0
  -23.5266  -22.0269   20.1173 C   0  0  0  0  0  0  0  0  0  0  0  0
  -27.3168  -15.8085   22.5900 N   0  0  0  0  0  0  0  0  0  0  0  0
  -28.5816  -16.2246   22.7722 N   0  0  0  0  0  0  0  0  0  0  0  0
  -23.4308  -25.5741   19.5948 N   0  0  0  0  0  0  0  0  0  0  0  0
  -27.9912  -19.8131   23.9373 N   0  0  0  0  0  0  0  0  0  0  0  0
  -30.8400  -15.6401   22.3614 N   0  0  0  0  0  0  0  0  0  0  0  0
  -28.5296  -12.2086   20.5497 N   0  0  0  0  0  0  0  0  0  0  0  0
  -28.0365  -21.0979   21.9599 N   0  0  0  0  0  0  0  0  0  0  0  0
  -20.8953  -27.0589   21.6189 N   0  0  0  0  0  0  0  0  0  0  0  0
  -30.3578  -26.1608   21.7084 N   0  0  0  0  0  0  0  0  0  0  0  0
  -24.0610  -22.7960   17.7664 N   0  0  0  0  0  0  0  0  0  0  0  0
  -25.9558  -23.3185   14.7325 N   0  3  0  0  0  0  0  0  0  0  0  0
  -30.6319  -13.0346   20.9456 O   0  0  0  0  0  0  0  0  0  0  0  0
  -23.0553  -26.3361   22.1029 O   0  0  0  0  0  0  0  0  0  0  0  0
  -21.7661  -24.1146   18.8633 O   0  0  0  0  0  0  0  0  0  0  0  0
  -29.7051  -26.9902   19.6397 O   0  0  0  0  0  0  0  0  0  0  0  0
  -26.2711  -23.4552   17.5251 O   0  0  0  0  0  0  0  0  0  0  0  0
  -28.3808  -22.0900   24.0285 O   0  0  0  0  0  0  0  0  0  0  0  0
  -22.9868  -11.6569   20.4537 O   0  0  0  0  0  0  0  0  0  0  0  0
  -28.3810  -29.0706   20.7448 O   0  0  0  0  0  0  0  0  0  1  0  0
  -23.1093   -6.2225   21.3789 F   0  0  0  0  0  0  0  0  0  0  0  0
  -21.1115  -10.4542   22.0906 F   0  0  0  0  0  0  0  0  0  0  0  0
  1  2  1  0  0  0  0
  1  6  2  0  0  0  0
  2  7  2  0  0  0  0
  3  8  2  0  0  0  0
  3 10  1  0  0  0  0
  4 11  2  0  0  0  0
  4 19  1  0  0  0  0
  5 12  1  0  0  0  0
  5 19  2  0  0  0  0
  6 22  1  0  0  0  0
  7 24  1  0  0  0  0
  8 21  1  0  0  0  0
  9 13  2  0  0  0  0
  9 23  1  0  0  0  0
 10 26  2  0  0  0  0
 11 27  1  0  0  0  0
 12 27  2  0  0  0  0
 13 28  1  0  0  0  0
 14 15  2  0  0  0  0
 14 29  1  0  0  0  0
 15 30  1  0  0  0  0
 16 21  2  0  0  0  0
 16 26  1  0  0  0  0
 17 25  1  0  0  0  0
 17 28  2  0  0  0  0
 18 30  2  0  0  0  0
 18 31  1  0  0  0  0
 19 32  1  0  0  0  0
 20 32  1  0  0  0  0
 20 33  2  0  0  0  0
 20 34  1  0  0  0  0
 21 55  1  0  0  0  0
 22 24  2  0  0  0  0
 22 40  1  0  0  0  0
 23 25  2  0  0  0  0
 23 41  1  0  0  0  0
 24 52  1  0  0  0  0
 25 42  1  0  0  0  0
 26 71  1  0  0  0  0
 27 82  1  0  0  0  0
 28 83  1  0  0  0  0
 29 31  2  0  0  0  0
 29 82  1  0  0  0  0
 30 84  1  0  0  0  0
 31 85  1  0  0  0  0
 32 65  2  0  0  0  0
 33 66  1  0  0  0  0
 33 69  1  0  0  0  0
 34 70  1  0  0  0  0
 34 76  2  0  0  0  0
 35 53  1  0  0  0  0
 35 72  1  0  0  0  0
 35 77  2  0  0  0  0
 36 62  1  0  0  0  0
 36 67  1  0  0  0  0
 36 78  2  0  0  0  0
 37 61  1  0  0  0  0
 37 73  1  0  0  0  0
 37 79  2  0  0  0  0
 38 63  1  0  0  0  0
 38 74  1  0  0  0  0
 38 80  2  0  0  0  0
 39 68  1  0  0  0  0
 39 71  1  0  0  0  0
 39 81  2  0  0  0  0
 40 43  1  0  0  0  0
 41 53  1  0  0  0  0
 42 67  1  0  0  0  0
 43 46  1  0  0  0  0
 44 48  1  0  0  0  0
 44 49  1  0  0  0  0
 45 47  1  0  0  0  0
 45 50  1  0  0  0  0
 46 52  1  0  0  0  0
 47 54  1  0  0  0  0
 48 55  1  0  0  0  0
 49 55  1  0  0  0  0
 50 68  1  0  0  0  0
 51 54  1  0  0  0  0
 51 68  1  0  0  0  0
 52 72  1  0  0  0  0
 53 67  1  0  0  0  0
 54 66  1  0  0  0  0
 55 73  1  0  0  0  0
 56 63  1  0  0  0  0
 57 64  1  0  0  0  0
 58 64  1  0  0  0  0
 59 64  1  0  0  0  0
 60 75  1  0  0  0  0
 61 83  1  0  0  0  0
 62 64  1  0  0  0  0
 62 74  1  0  0  0  0
 63 75  1  0  0  0  0
 65 66  1  0  0  0  0
M  CHG  1  75   1
M  ISO  4  39 100  61 101  71 100  83 101
M  END
> <Batch ID>
0153

> <Smiles>
CNC(C)C(=O)NC(C(=O)N1Cc2cc([101O:1][101CH2:1]C(=O)NC3(c4cccc([100NH:0][100C:0](=O)N5CCCC(n6nc(-c7ccc(Oc8ccc(F)cc8F)cc7)c(C(N)=O)c6N)C5)c4)CCC3)ccc2CC1C(=O)NC1CCCc2ccccc21)C(C)(C)C

> <Shape>
0.264

> <Color>
0.064

> <Negative vol penalty>
0.000

$$$$

  -OEChem-04052303303D

 80 88  0     1  0  0  0  0  0999 V2000
  -32.1333  -31.9641   17.6815 C   0  0  0  0  0  0  0  0  0  0  0  0
  -31.6812  -30.7113   18.0833 C   0  0  0  0  0  0  0  0  0  0  0  0
  -24.7750   -8.5303   21.6178 C   0  0  0  0  0  0  0  0  0  0  0  0
  -23.1559   -9.9615   20.5375 C   0  0  0  0  0  0  0  0  0  0  0  0
  -31.6458  -33.1125   18.3040 C   0  0  0  0  0  0  0  0  0  0  0  0
  -30.7419  -30.6061   19.1086 C   0  0  0  0  0  0  0  0  0  0  0  0
  -27.0451  -27.3186   18.0267 C   0  0  0  0  0  0  0  0  0  0  0  0
  -23.7707   -8.0109   22.4348 C   0  0  0  0  0  0  0  0  0  0  0  0
  -22.1516   -9.4421   21.3544 C   0  0  0  0  0  0  0  0  0  0  0  0
  -27.3380  -25.9626   18.1657 C   0  0  0  0  0  0  0  0  0  0  0  0
  -21.2725   -5.7469   22.1774 C   0  0  0  0  0  0  0  0  0  0  0  0
  -21.2322   -4.3641   22.3555 C   0  0  0  0  0  0  0  0  0  0  0  0
  -25.2709  -17.6027   17.7115 C   0  0  0  0  0  0  0  0  0  0  0  0
  -26.2216  -25.9468   20.3041 C   0  0  0  0  0  0  0  0  0  0  0  0
  -21.5263   -4.6619   24.7350 C   0  0  0  0  0  0  0  0  0  0  0  0
  -25.2543  -18.8936   17.2428 C   0  0  0  0  0  0  0  0  0  0  0  0
  -24.4676   -9.5056   20.6692 C   0  0  0  0  0  0  0  0  0  0  0  0
  -25.9144   -9.5584   18.5689 C   0  0  0  0  0  0  0  0  0  0  0  0
  -30.6929  -33.0218   19.3309 C   0  0  0  0  0  0  0  0  0  0  0  0
  -26.3465  -28.0025   19.0320 C   0  0  0  0  0  0  0  0  0  0  0  0
  -30.2422  -31.7542   19.7463 C   0  0  0  0  0  0  0  0  0  0  0  0
  -25.9188  -27.3108   20.1743 C   0  0  0  0  0  0  0  0  0  0  0  0
  -22.4591   -8.4668   22.3030 C   0  0  0  0  0  0  0  0  0  0  0  0
  -26.9288  -25.2772   19.3058 C   0  0  0  0  0  0  0  0  0  0  0  0
  -21.4398   -6.5873   23.2781 C   0  0  0  0  0  0  0  0  0  0  0  0
  -21.3591   -3.8215   23.6342 C   0  0  0  0  0  0  0  0  0  0  0  0
  -21.5667   -6.0447   24.5569 C   0  0  0  0  0  0  0  0  0  0  0  0
  -25.5046  -10.0430   19.8255 C   0  0  0  0  0  0  0  0  0  0  0  0
  -26.5338  -17.4647   18.3179 C   0  0  0  0  0  0  0  0  0  0  0  0
  -26.9218  -10.4093   18.1846 C   0  0  0  0  0  0  0  0  0  0  0  0
  -25.4279   -8.4392   17.8162 C   0  0  0  0  0  0  0  0  0  0  0  0
  -27.0028  -30.4489   20.9526 C   0  0  0  0  0  0  0  0  0  0  0  0
  -26.8896  -21.7460   18.4995 C   0  0  0  0  0  0  0  0  0  0  0  0
  -23.8886  -30.1165   21.7975 C   0  0  0  0  0  0  0  0  0  0  0  0
  -21.1474  -28.0960   22.0222 C   0  0  0  0  0  0  0  0  0  0  0  0
  -28.2273  -16.0752   19.5621 C   0  0  0  0  0  0  0  0  0  0  0  0
  -30.2305  -34.2887   20.0061 C   0  0  0  0  0  0  0  0  0  0  0  0
  -26.0150  -29.4590   18.8548 C   0  0  0  0  0  0  0  0  0  0  0  0
  -25.1484  -27.9943   21.2732 C   0  0  0  0  0  0  0  0  0  0  0  0
  -28.9574  -34.1103   20.8294 C   0  0  0  0  0  0  0  0  0  0  0  0
  -30.3321  -13.2375   20.0027 C   0  0  0  0  0  0  0  0  0  0  0  0
  -29.0545  -32.8605   21.6985 C   0  0  0  0  0  0  0  0  0  0  0  0
  -29.3713  -12.0519   19.8869 C   0  0  0  0  0  0  0  0  0  0  0  0
  -29.6848  -14.4247   20.7137 C   0  0  0  0  0  0  0  0  0  0  0  0
  -27.4385  -13.6734   20.0363 C   0  0  0  0  0  0  0  0  0  0  0  0
  -29.2054  -31.6004   20.8379 C   0  0  1  0  0  0  0  0  0  0  0  0
  -25.7467  -30.1755   20.1746 C   0  0  1  0  0  0  0  0  0  0  0  0
  -28.0243  -12.4765   19.2696 C   0  0  2  0  0  0  0  0  0  0  0  0
  -18.7582  -28.0956   22.7897 C   0  0  0  0  0  0  0  0  0  0  0  0
  -24.8228  -29.9534   24.6977 C   0  0  0  0  0  0  0  0  0  0  0  0
  -22.5776  -29.0207   25.2954 C   0  0  0  0  0  0  0  0  0  0  0  0
  -22.7579  -31.3187   24.3420 C   0  0  0  0  0  0  0  0  0  0  0  0
  -20.1525  -27.4865   19.3024 C   0  0  0  0  0  0  0  0  0  0  0  0
  -26.9325  -20.8294   17.2903 C   0  0  0  0  0  0  0  0  0  0  0  0
  -27.3094  -23.1813   18.2482 C   0  0  0  0  0  0  0  0  0  1  0  0
  -23.1433  -29.3206   22.8416 C   0  0  1  0  0  0  0  0  0  0  0  0
  -19.7008  -28.3122   21.6161 C   0  0  2  0  0  0  0  0  0  0  0  0
  -23.3416  -29.8906   24.2745 C   0  0  0  0  0  0  0  0  0  0  0  0
  -26.1953  -11.1182   20.2137 N   0  0  0  0  0  0  0  0  0  0  0  0
  -27.2665  -18.5789   18.2426 N   0  0  0  0  0  0  0  0  0  0  0  0
  -26.4615  -19.4294   17.5833 N   0  0  0  0  0  0  0  0  0  0  0  0
  -27.0494  -11.3163   19.1952 N   0  0  0  0  0  0  0  0  0  0  0  0
  -24.8541  -29.4205   21.0564 N   0  0  0  0  0  0  0  0  0  0  0  0
  -28.4155  -14.7730   20.0716 N   0  0  0  0  0  0  0  0  0  0  0  0
  -27.7021  -10.4626   17.0843 N   0  0  0  0  0  0  0  0  0  0  0  0
  -24.3884   -7.6709   18.3579 N   0  0  0  0  0  0  0  0  0  0  0  0
  -26.9938  -16.2801   18.9448 N   0  0  0  0  0  0  0  0  0  0  0  0
  -27.9288  -31.2177   20.2737 N   0  0  0  0  0  0  0  0  0  0  0  0
  -21.7523  -29.2749   22.4039 N   0  0  0  0  0  0  0  0  0  0  0  0
  -19.3215  -27.3670   20.5281 N   0  3  0  0  0  0  0  0  0  0  0  0
  -25.9121   -8.1199   16.7040 O   0  0  0  0  0  0  0  0  0  0  0  0
  -27.1223  -29.9971   22.0854 O   0  0  0  0  0  0  0  0  0  0  0  0
  -26.5402  -21.3617   19.6148 O   0  0  0  0  0  0  0  0  0  0  0  0
  -23.6190  -31.3099   21.6403 O   0  0  0  0  0  0  0  0  0  0  0  0
  -21.6858  -26.9913   22.0063 O   0  0  0  0  0  0  0  0  0  0  0  0
  -29.1068  -16.9366   19.6417 O   0  0  0  0  0  0  0  0  0  0  0  0
  -21.4789   -7.9600   23.0998 O   0  0  0  0  0  0  0  0  0  0  0  0
  -27.2140  -23.9538   19.4442 O   0  0  0  0  0  0  0  0  0  1  0  0
  -21.3188   -2.4937   23.8052 F   0  0  0  0  0  0  0  0  0  0  0  0
  -21.7264   -6.8470   25.6183 F   0  0  0  0  0  0  0  0  0  0  0  0
  1  2  1  0  0  0  0
  1  5  2  0  0  0  0
  2  6  2  0  0  0  0
  3  8  2  0  0  0  0
  3 17  1  0  0  0  0
  4  9  1  0  0  0  0
  4 17  2  0  0  0  0
  5 19  1  0  0  0  0
  6 21  1  0  0  0  0
  7 10  2  0  0  0  0
  7 20  1  0  0  0  0
  8 23  1  0  0  0  0
  9 23  2  0  0  0  0
 10 24  1  0  0  0  0
 11 12  2  0  0  0  0
 11 25  1  0  0  0  0
 12 26  1  0  0  0  0
 13 16  2  0  0  0  0
 13 29  1  0  0  0  0
 14 22  1  0  0  0  0
 14 24  2  0  0  0  0
 15 26  2  0  0  0  0
 15 27  1  0  0  0  0
 16 61  1  0  0  0  0
 17 28  1  0  0  0  0
 18 28  1  0  0  0  0
 18 30  2  0  0  0  0
 18 31  1  0  0  0  0
 19 21  2  0  0  0  0
 19 37  1  0  0  0  0
 20 22  2  0  0  0  0
 20 38  1  0  0  0  0
 21 46  1  0  0  0  0
 22 39  1  0  0  0  0
 23 77  1  0  0  0  0
 24 78  1  0  0  0  0
 25 27  2  0  0  0  0
 25 77  1  0  0  0  0
 26 79  1  0  0  0  0
 27 80  1  0  0  0  0
 28 59  2  0  0  0  0
 29 60  2  0  0  0  0
 29 67  1  0  0  0  0
 30 62  1  0  0  0  0
 30 65  1  0  0  0  0
 31 66  1  0  0  0  0
 31 71  2  0  0  0  0
 32 47  1  0  0  0  0
 32 68  1  0  0  0  0
 32 72  2  0  0  0  0
 33 54  1  0  0  0  0
 33 55  1  0  0  0  0
 33 73  2  0  0  0  0
 34 56  1  0  0  0  0
 34 63  1  0  0  0  0
 34 74  2  0  0  0  0
 35 57  1  0  0  0  0
 35 69  1  0  0  0  0
 35 75  2  0  0  0  0
 36 64  1  0  0  0  0
 36 67  1  0  0  0  0
 36 76  2  0  0  0  0
 37 40  1  0  0  0  0
 38 47  1  0  0  0  0
 39 63  1  0  0  0  0
 40 42  1  0  0  0  0
 41 43  1  0  0  0  0
 41 44  1  0  0  0  0
 42 46  1  0  0  0  0
 43 48  1  0  0  0  0
 44 64  1  0  0  0  0
 45 48  1  0  0  0  0
 45 64  1  0  0  0  0
 46 68  1  0  0  0  0
 47 63  1  0  0  0  0
 48 62  1  0  0  0  0
 49 57  1  0  0  0  0
 50 58  1  0  0  0  0
 51 58  1  0  0  0  0
 52 58  1  0  0  0  0
 53 70  1  0  0  0  0
 54 61  1  0  0  0  0
 55 78  1  0  0  0  0
 56 58  1  0  0  0  0
 56 69  1  0  0  0  0
 57 70  1  0  0  0  0
 59 62  1  0  0  0  0
 60 61  1  0  0  0  0
M  CHG  1  70   1
M  ISO  4  36 100  55 101  67 100  78 101
M  END
> <Batch ID>
0153

> <Smiles>
CNC(C)C(=O)NC(C(=O)N1Cc2cc([101O:1][101CH2:1]C(=O)Cn3ccc([100NH:0][100C:0](=O)N4CCCC(n5nc(-c6ccc(Oc7ccc(F)cc7F)cc6)c(C(N)=O)c5N)C4)n3)ccc2CC1C(=O)NC1CCCc2ccccc21)C(C)(C)C

> <Shape>
0.242

> <Color>
0.090

> <Negative vol penalty>
0.000

$$$$

  -OEChem-04052303303D

 83 91  0     1  0  0  0  0  0999 V2000
  -22.1815   -8.1118   20.6800 C   0  0  0  0  0  0  0  0  0  0  0  0
  -22.1511   -9.4665   20.9950 C   0  0  0  0  0  0  0  0  0  0  0  0
  -24.4561  -31.6320   23.9202 C   0  0  0  0  0  0  0  0  0  0  0  0
  -24.3321  -33.1346   22.0324 C   0  0  0  0  0  0  0  0  0  0  0  0
  -23.3688   -7.3930   20.8124 C   0  0  0  0  0  0  0  0  0  0  0  0
  -23.3078  -10.1030   21.4437 C   0  0  0  0  0  0  0  0  0  0  0  0
  -24.0445  -14.5908   19.2162 C   0  0  0  0  0  0  0  0  0  0  0  0
  -24.1213  -32.6806   24.7769 C   0  0  0  0  0  0  0  0  0  0  0  0
  -23.9972  -34.1833   22.8891 C   0  0  0  0  0  0  0  0  0  0  0  0
  -23.2835  -15.6637   19.6785 C   0  0  0  0  0  0  0  0  0  0  0  0
  -21.2493  -35.2861   24.5179 C   0  0  0  0  0  0  0  0  0  0  0  0
  -20.2014  -36.1237   24.1358 C   0  0  0  0  0  0  0  0  0  0  0  0
  -25.1607  -16.4222   20.9900 C   0  0  0  0  0  0  0  0  0  0  0  0
  -21.7056  -38.0142   24.1545 C   0  0  0  0  0  0  0  0  0  0  0  0
  -24.8006  -22.4326   20.4858 C   0  0  0  0  0  0  0  0  0  0  0  0
  -24.5616  -31.8590   22.5479 C   0  0  0  0  0  0  0  0  0  0  0  0
  -24.0247  -29.8913   21.0158 C   0  0  0  0  0  0  0  0  0  0  0  0
  -24.5430   -8.0232   21.2537 C   0  0  0  0  0  0  0  0  0  0  0  0
  -25.3680  -14.4192   19.6465 C   0  0  0  0  0  0  0  0  0  0  0  0
  -24.5116   -9.3916   21.5834 C   0  0  0  0  0  0  0  0  0  0  0  0
  -25.9371  -15.3478   20.5297 C   0  0  0  0  0  0  0  0  0  0  0  0
  -23.8918  -33.9562   24.2613 C   0  0  0  0  0  0  0  0  0  0  0  0
  -23.8406  -16.5779   20.5677 C   0  0  0  0  0  0  0  0  0  0  0  0
  -22.5254  -35.8126   24.7184 C   0  0  0  0  0  0  0  0  0  0  0  0
  -20.4295  -37.4877   23.9541 C   0  0  0  0  0  0  0  0  0  0  0  0
  -22.7535  -37.1766   24.5367 C   0  0  0  0  0  0  0  0  0  0  0  0
  -25.8072  -23.4381   20.4081 C   0  0  0  0  0  0  0  0  0  0  0  0
  -24.9080  -30.7764   21.6625 C   0  0  0  0  0  0  0  0  0  0  0  0
  -26.9464  -22.9825   19.7818 C   0  0  0  0  0  0  0  0  0  0  0  0
  -24.8425  -29.0553   20.2956 C   0  0  0  0  0  0  0  0  0  0  0  0
  -25.2088  -21.2468   19.9155 C   0  0  0  0  0  0  0  0  0  0  0  0
  -22.5930  -29.8303   21.0620 C   0  0  0  0  0  0  0  0  0  0  0  0
  -28.2108  -23.7109   19.5034 C   0  0  0  0  0  0  0  0  0  0  0  0
  -26.9286  -12.1675   21.2585 C   0  0  0  0  0  0  0  0  0  0  0  0
  -29.5129  -13.9906   20.5375 C   0  0  0  0  0  0  0  0  0  0  0  0
  -30.7531  -17.0607   19.7108 C   0  0  0  0  0  0  0  0  0  0  0  0
  -29.3583  -25.8816   19.8117 C   0  0  0  0  0  0  0  0  0  0  0  0
  -25.7910   -7.1941   21.4262 C   0  0  0  0  0  0  0  0  0  0  0  0
  -26.1841  -13.2717   19.1178 C   0  0  0  0  0  0  0  0  0  0  0  0
  -27.3601  -15.2198   21.0063 C   0  0  0  0  0  0  0  0  0  0  0  0
  -27.0638   -8.0277   21.5506 C   0  0  0  0  0  0  0  0  0  0  0  0
  -29.7984  -29.3505   19.2925 C   0  0  0  0  0  0  0  0  0  0  0  0
  -26.8561   -9.1756   22.5334 C   0  0  0  0  0  0  0  0  0  0  0  0
  -28.4897  -29.9608   19.8018 C   0  0  0  0  0  0  0  0  0  0  0  0
  -30.2470  -28.1705   20.1534 C   0  0  0  0  0  0  0  0  0  0  0  0
  -27.9313  -27.7385   20.8666 C   0  0  0  0  0  0  0  0  0  0  0  0
  -25.7517  -10.1231   22.0497 C   0  0  1  0  0  0  0  0  0  0  0  0
  -27.3571  -12.9060   20.0221 C   0  0  1  0  0  0  0  0  0  0  0  0
  -27.4007  -28.8859   19.9919 C   0  0  1  0  0  0  0  0  0  0  0  0
  -32.9094  -18.2480   19.2229 C   0  0  0  0  0  0  0  0  0  0  0  0
  -21.0799  -18.4938   20.1077 C   0  0  0  0  0  0  0  0  0  0  0  0
  -30.1726  -14.0118   23.5165 C   0  0  0  0  0  0  0  0  0  0  0  0
  -31.7178  -15.9349   23.0896 C   0  0  0  0  0  0  0  0  0  0  0  0
  -32.1501  -13.7270   22.0121 C   0  0  0  0  0  0  0  0  0  0  0  0
  -29.8792  -17.7669   16.9729 C   0  0  0  0  0  0  0  0  0  0  0  0
  -23.1248  -19.9414   20.3385 C   0  0  0  0  0  0  0  0  0  0  0  0
  -30.2232  -15.1473   21.1983 C   0  0  1  0  0  0  0  0  0  0  0  0
  -31.7273  -17.4962   18.6311 C   0  0  2  0  0  0  0  0  0  0  0  0
  -22.5997  -18.5381   20.0445 C   0  0  1  0  0  0  0  0  0  1  0  0
  -31.0385  -14.7069   22.4468 C   0  0  0  0  0  0  0  0  0  0  0  0
  -26.1888  -30.5259   21.3784 N   0  0  0  0  0  0  0  0  0  0  0  0
  -26.1164  -29.4739   20.5452 N   0  0  0  0  0  0  0  0  0  0  0  0
  -28.1154  -14.0775   20.4658 N   0  0  0  0  0  0  0  0  0  0  0  0
  -29.1633  -27.1939   20.2764 N   0  0  0  0  0  0  0  0  0  0  0  0
  -24.5891  -28.0102   19.4795 N   0  0  0  0  0  0  0  0  0  0  0  0
  -21.9096  -30.7649   21.8517 N   0  0  0  0  0  0  0  0  0  0  0  0
  -24.4697  -20.0790   19.8272 N   0  0  0  0  0  0  0  0  0  0  0  0
  -28.2495  -25.0370   19.9353 N   0  0  0  0  0  0  0  0  0  0  0  0
  -26.2515  -10.9901   21.0042 N   0  0  0  0  0  0  0  0  0  0  0  0
  -31.0224  -15.7841   20.1570 N   0  0  0  0  0  0  0  0  0  0  0  0
  -31.0475  -18.3873   17.6489 N   0  3  0  0  0  0  0  0  0  0  0  0
  -21.9400  -28.9622   20.4347 O   0  0  0  0  0  0  0  0  0  0  0  0
  -29.1377  -23.1146   18.9620 O   0  0  0  0  0  0  0  0  0  0  0  0
  -27.1939  -12.6309   22.3615 O   0  0  0  0  0  0  0  0  0  0  0  0
  -30.1743  -13.0481   20.0947 O   0  0  0  0  0  0  0  0  0  0  0  0
  -29.8464  -17.7823   20.1203 O   0  0  0  0  0  0  0  0  0  0  0  0
  -30.4154  -25.5045   19.2962 O   0  0  0  0  0  0  0  0  0  0  0  0
  -23.5648  -34.9796   25.0970 O   0  0  0  0  0  0  0  0  0  0  0  0
  -23.0999  -17.6256   21.0210 O   0  0  0  0  0  0  0  0  0  1  0  0
  -19.4235  -38.2917   23.5857 F   0  0  0  0  0  0  0  0  0  0  0  0
  -23.9775  -37.6880   24.7267 F   0  0  0  0  0  0  0  0  0  0  0  0
  -25.6575  -24.6748   20.8871 F   0  0  0  0  0  0  0  0  0  0  0  0
  -26.7997  -21.3487   19.2904 S   0  0  0  0  0  0  0  0  0  0  0  0
  1  2  1  0  0  0  0
  1  5  2  0  0  0  0
  2  6  2  0  0  0  0
  3  8  2  0  0  0  0
  3 16  1  0  0  0  0
  4  9  1  0  0  0  0
  4 16  2  0  0  0  0
  5 18  1  0  0  0  0
  6 20  1  0  0  0  0
  7 10  2  0  0  0  0
  7 19  1  0  0  0  0
  8 22  1  0  0  0  0
  9 22  2  0  0  0  0
 10 23  1  0  0  0  0
 11 12  2  0  0  0  0
 11 24  1  0  0  0  0
 12 25  1  0  0  0  0
 13 21  1  0  0  0  0
 13 23  2  0  0  0  0
 14 25  2  0  0  0  0
 14 26  1  0  0  0  0
 15 27  1  0  0  0  0
 15 31  2  0  0  0  0
 16 28  1  0  0  0  0
 17 28  1  0  0  0  0
 17 30  2  0  0  0  0
 17 32  1  0  0  0  0
 18 20  2  0  0  0  0
 18 38  1  0  0  0  0
 19 21  2  0  0  0  0
 19 39  1  0  0  0  0
 20 47  1  0  0  0  0
 21 40  1  0  0  0  0
 22 78  1  0  0  0  0
 23 79  1  0  0  0  0
 24 26  2  0  0  0  0
 24 78  1  0  0  0  0
 25 80  1  0  0  0  0
 26 81  1  0  0  0  0
 27 29  2  0  0  0  0
 27 82  1  0  0  0  0
 28 61  2  0  0  0  0
 29 33  1  0  0  0  0
 29 83  1  0  0  0  0
 30 62  1  0  0  0  0
 30 65  1  0  0  0  0
 31 67  1  0  0  0  0
 31 83  1  0  0  0  0
 32 66  1  0  0  0  0
 32 72  2  0  0  0  0
 33 68  1  0  0  0  0
 33 73  2  0  0  0  0
 34 48  1  0  0  0  0
 34 69  1  0  0  0  0
 34 74  2  0  0  0  0
 35 57  1  0  0  0  0
 35 63  1  0  0  0  0
 35 75  2  0  0  0  0
 36 58  1  0  0  0  0
 36 70  1  0  0  0  0
 36 76  2  0  0  0  0
 37 64  1  0  0  0  0
 37 68  1  0  0  0  0
 37 77  2  0  0  0  0
 38 41  1  0  0  0  0
 39 48  1  0  0  0  0
 40 63  1  0  0  0  0
 41 43  1  0  0  0  0
 42 44  1  0  0  0  0
 42 45  1  0  0  0  0
 43 47  1  0  0  0  0
 44 49  1  0  0  0  0
 45 64  1  0  0  0  0
 46 49  1  0  0  0  0
 46 64  1  0  0  0  0
 47 69  1  0  0  0  0
 48 63  1  0  0  0  0
 49 62  1  0  0  0  0
 50 58  1  0  0  0  0
 51 59  1  0  0  0  0
 52 60  1  0  0  0  0
 53 60  1  0  0  0  0
 54 60  1  0  0  0  0
 55 71  1  0  0  0  0
 56 59  1  0  0  0  0
 56 67  1  0  0  0  0
 57 60  1  0  0  0  0
 57 70  1  0  0  0  0
 58 71  1  0  0  0  0
 59 79  1  0  0  0  0
 61 62  1  0  0  0  0
M  CHG  1  71   1
M  ISO  4  37 100  59 101  68 100  79 101
M  END
> <Batch ID>
0153

> <Smiles>
CNC(C)C(=O)NC(C(=O)N1Cc2cc([101O:1][101CH:1](C)CNc3cc(F)c(C(=O)[100NH:0][100C:0](=O)N4CCCC(n5nc(-c6ccc(Oc7ccc(F)cc7F)cc6)c(C(N)=O)c5N)C4)s3)ccc2CC1C(=O)NC1CCCc2ccccc21)C(C)(C)C

> <Shape>
0.265

> <Color>
0.081

> <Negative vol penalty>
0.000

$$$$

  -OEChem-04052303303D

 82 90  0     1  0  0  0  0  0999 V2000
  -28.1641   -9.4990   22.4585 C   0  0  0  0  0  0  0  0  0  0  0  0
  -28.7554  -10.7149   22.1310 C   0  0  0  0  0  0  0  0  0  0  0  0
  -19.9833  -28.8549   23.3734 C   0  0  0  0  0  0  0  0  0  0  0  0
  -20.6730  -26.6915   22.5481 C   0  0  0  0  0  0  0  0  0  0  0  0
  -26.8059   -9.2979   22.2160 C   0  0  0  0  0  0  0  0  0  0  0  0
  -27.9890  -11.7302   21.5598 C   0  0  0  0  0  0  0  0  0  0  0  0
  -28.6239  -17.7582   22.4352 C   0  0  0  0  0  0  0  0  0  0  0  0
  -18.7233  -28.6704   22.8043 C   0  0  0  0  0  0  0  0  0  0  0  0
  -19.4129  -26.5069   21.9790 C   0  0  0  0  0  0  0  0  0  0  0  0
  -29.2505  -18.7538   21.6869 C   0  0  0  0  0  0  0  0  0  0  0  0
  -16.2613  -25.3110   20.6170 C   0  0  0  0  0  0  0  0  0  0  0  0
  -15.6450  -24.0720   20.7919 C   0  0  0  0  0  0  0  0  0  0  0  0
  -30.7112  -25.5444   19.3426 C   0  0  0  0  0  0  0  0  0  0  0  0
  -30.1684  -26.7737   19.8162 C   0  0  0  0  0  0  0  0  0  0  0  0
  -27.1364  -19.3087   20.6661 C   0  0  0  0  0  0  0  0  0  0  0  0
  -15.7009  -24.3824   23.1873 C   0  0  0  0  0  0  0  0  0  0  0  0
  -20.9582  -27.8655   23.2453 C   0  0  0  0  0  0  0  0  0  0  0  0
  -22.6693  -27.6913   25.1293 C   0  0  0  0  0  0  0  0  0  0  0  0
  -26.0203  -10.3146   21.6505 C   0  0  0  0  0  0  0  0  0  0  0  0
  -27.2485  -17.5227   22.2962 C   0  0  0  0  0  0  0  0  0  0  0  0
  -26.6193  -11.5421   21.3083 C   0  0  0  0  0  0  0  0  0  0  0  0
  -26.4943  -18.3112   21.4156 C   0  0  0  0  0  0  0  0  0  0  0  0
  -18.4381  -27.4964   22.1071 C   0  0  0  0  0  0  0  0  0  0  0  0
  -28.5073  -19.5273   20.8001 C   0  0  0  0  0  0  0  0  0  0  0  0
  -16.5975  -26.0857   21.7272 C   0  0  0  0  0  0  0  0  0  0  0  0
  -15.3648  -23.6077   22.0771 C   0  0  0  0  0  0  0  0  0  0  0  0
  -16.3172  -25.6214   23.0123 C   0  0  0  0  0  0  0  0  0  0  0  0
  -22.2601  -28.0558   23.8325 C   0  0  0  0  0  0  0  0  0  0  0  0
  -23.9839  -28.0834   25.1974 C   0  0  0  0  0  0  0  0  0  0  0  0
  -29.8308  -24.4963   19.4971 C   0  0  0  0  0  0  0  0  0  0  0  0
  -28.8935  -26.6184   20.3146 C   0  0  0  0  0  0  0  0  0  0  0  0
  -21.9275  -27.0551   26.1784 C   0  0  0  0  0  0  0  0  0  0  0  0
  -25.4791  -15.0565   21.3525 C   0  0  0  0  0  0  0  0  0  0  0  0
  -23.0247  -16.9594   22.2891 C   0  0  0  0  0  0  0  0  0  0  0  0
  -31.0497  -22.4874   18.5882 C   0  0  0  0  0  0  0  0  0  0  0  0
  -21.8719  -20.1145   22.8918 C   0  0  0  0  0  0  0  0  0  0  0  0
  -28.2120  -28.9262   21.0601 C   0  0  0  0  0  0  0  0  0  0  0  0
  -24.5665  -10.0340   21.3634 C   0  0  0  0  0  0  0  0  0  0  0  0
  -26.5826  -16.4628   23.1303 C   0  0  0  0  0  0  0  0  0  0  0  0
  -25.0112  -18.1119   21.2446 C   0  0  0  0  0  0  0  0  0  0  0  0
  -23.7436  -11.2926   21.1007 C   0  0  0  0  0  0  0  0  0  0  0  0
  -27.0227  -31.3237   23.4084 C   0  0  0  0  0  0  0  0  0  0  0  0
  -24.4737  -12.2148   20.1294 C   0  0  0  0  0  0  0  0  0  0  0  0
  -25.7067  -30.7217   23.9062 C   0  0  0  0  0  0  0  0  0  0  0  0
  -27.2467  -31.0473   21.9228 C   0  0  0  0  0  0  0  0  0  0  0  0
  -25.8323  -29.0331   22.0300 C   0  0  0  0  0  0  0  0  0  0  0  0
  -25.8158  -12.6764   20.7101 C   0  0  1  0  0  0  0  0  0  0  0  0
  -25.2709  -15.9665   22.5299 C   0  0  1  0  0  0  0  0  0  0  0  0
  -25.5938  -29.2297   23.5361 C   0  0  2  0  0  0  0  0  0  0  0  0
  -31.9933  -20.3422   17.7187 C   0  0  0  0  0  0  0  0  0  0  0  0
  -19.8126  -21.3555   23.6105 C   0  0  0  0  0  0  0  0  0  0  0  0
  -21.8112  -16.5443   19.5205 C   0  0  0  0  0  0  0  0  0  0  0  0
  -20.3178  -18.5057   19.9575 C   0  0  0  0  0  0  0  0  0  0  0  0
  -20.1648  -16.4777   21.4018 C   0  0  0  0  0  0  0  0  0  0  0  0
  -23.2279  -21.2146   25.2813 C   0  0  0  0  0  0  0  0  0  0  0  0
  -30.4857  -20.2912   19.7237 C   0  0  0  0  0  0  0  0  0  1  0  0
  -22.1673  -18.0057   21.6189 C   0  0  1  0  0  0  0  0  0  0  0  0
  -30.7841  -20.9880   18.3940 C   0  0  1  0  0  0  0  0  0  0  0  0
  -21.1076  -20.7007   24.0652 C   0  0  2  0  0  0  0  0  0  0  0  0
  -21.1435  -17.3861   20.6262 C   0  0  0  0  0  0  0  0  0  0  0  0
  -23.2356  -28.6351   23.1277 N   0  0  0  0  0  0  0  0  0  0  0  0
  -24.2709  -28.6377   23.9847 N   0  0  0  0  0  0  0  0  0  0  0  0
  -24.4072  -17.0590   22.0777 N   0  0  0  0  0  0  0  0  0  0  0  0
  -27.1290  -29.6136   21.6476 N   0  0  0  0  0  0  0  0  0  0  0  0
  -24.9107  -28.0049   26.1758 N   0  0  0  0  0  0  0  0  0  0  0  0
  -20.5876  -26.7195   25.9406 N   0  0  0  0  0  0  0  0  0  0  0  0
  -29.9563  -23.1256   19.1679 N   0  0  0  0  0  0  0  0  0  0  0  0
  -27.9966  -27.5608   20.8760 N   0  0  0  0  0  0  0  0  0  0  0  0
  -25.6100  -13.7225   21.6887 N   0  0  0  0  0  0  0  0  0  0  0  0
  -21.5615  -18.7859   22.6926 N   0  0  0  0  0  0  0  0  0  0  0  0
  -21.9343  -21.7271   24.7610 N   0  3  0  0  0  0  0  0  0  0  0  0
  -22.4329  -26.8069   27.2993 O   0  0  0  0  0  0  0  0  0  0  0  0
  -25.5166  -15.5293   20.2226 O   0  0  0  0  0  0  0  0  0  0  0  0
  -22.4882  -16.0902   22.9806 O   0  0  0  0  0  0  0  0  0  0  0  0
  -32.1097  -23.0038   18.2466 O   0  0  0  0  0  0  0  0  0  0  0  0
  -22.6621  -20.7707   22.2169 O   0  0  0  0  0  0  0  0  0  0  0  0
  -29.2641  -29.5009   20.7686 O   0  0  0  0  0  0  0  0  0  0  0  0
  -17.2086  -27.3159   21.5518 O   0  0  0  0  0  0  0  0  0  0  0  0
  -29.1166  -20.4993   20.0680 O   0  0  0  0  0  0  0  0  0  1  0  0
  -14.7715  -22.4186   22.2449 F   0  0  0  0  0  0  0  0  0  0  0  0
  -16.6368  -26.3618   24.0826 F   0  0  0  0  0  0  0  0  0  0  0  0
  -28.3564  -24.9957   20.2106 S   0  0  0  0  0  0  0  0  0  0  0  0
  1  2  1  0  0  0  0
  1  5  2  0  0  0  0
  2  6  2  0  0  0  0
  3  8  2  0  0  0  0
  3 17  1  0  0  0  0
  4  9  1  0  0  0  0
  4 17  2  0  0  0  0
  5 19  1  0  0  0  0
  6 21  1  0  0  0  0
  7 10  2  0  0  0  0
  7 20  1  0  0  0  0
  8 23  1  0  0  0  0
  9 23  2  0  0  0  0
 10 24  1  0  0  0  0
 11 12  2  0  0  0  0
 11 25  1  0  0  0  0
 12 26  1  0  0  0  0
 13 14  1  0  0  0  0
 13 30  2  0  0  0  0
 14 31  2  0  0  0  0
 15 22  1  0  0  0  0
 15 24  2  0  0  0  0
 16 26  2  0  0  0  0
 16 27  1  0  0  0  0
 17 28  1  0  0  0  0
 18 28  1  0  0  0  0
 18 29  2  0  0  0  0
 18 32  1  0  0  0  0
 19 21  2  0  0  0  0
 19 38  1  0  0  0  0
 20 22  2  0  0  0  0
 20 39  1  0  0  0  0
 21 47  1  0  0  0  0
 22 40  1  0  0  0  0
 23 78  1  0  0  0  0
 24 79  1  0  0  0  0
 25 27  2  0  0  0  0
 25 78  1  0  0  0  0
 26 80  1  0  0  0  0
 27 81  1  0  0  0  0
 28 61  2  0  0  0  0
 29 62  1  0  0  0  0
 29 65  1  0  0  0  0
 30 67  1  0  0  0  0
 30 82  1  0  0  0  0
 31 68  1  0  0  0  0
 31 82  1  0  0  0  0
 32 66  1  0  0  0  0
 32 72  2  0  0  0  0
 33 48  1  0  0  0  0
 33 69  1  0  0  0  0
 33 73  2  0  0  0  0
 34 57  1  0  0  0  0
 34 63  1  0  0  0  0
 34 74  2  0  0  0  0
 35 58  1  0  0  0  0
 35 67  1  0  0  0  0
 35 75  2  0  0  0  0
 36 59  1  0  0  0  0
 36 70  1  0  0  0  0
 36 76  2  0  0  0  0
 37 64  1  0  0  0  0
 37 68  1  0  0  0  0
 37 77  2  0  0  0  0
 38 41  1  0  0  0  0
 39 48  1  0  0  0  0
 40 63  1  0  0  0  0
 41 43  1  0  0  0  0
 42 44  1  0  0  0  0
 42 45  1  0  0  0  0
 43 47  1  0  0  0  0
 44 49  1  0  0  0  0
 45 64  1  0  0  0  0
 46 49  1  0  0  0  0
 46 64  1  0  0  0  0
 47 69  1  0  0  0  0
 48 63  1  0  0  0  0
 49 62  1  0  0  0  0
 50 58  1  0  0  0  0
 51 59  1  0  0  0  0
 52 60  1  0  0  0  0
 53 60  1  0  0  0  0
 54 60  1  0  0  0  0
 55 71  1  0  0  0  0
 56 58  1  0  0  0  0
 56 79  1  0  0  0  0
 57 60  1  0  0  0  0
 57 70  1  0  0  0  0
 59 71  1  0  0  0  0
 61 62  1  0  0  0  0
M  CHG  1  71   1
M  ISO  4  37 100  56 101  68 100  79 101
M  END
> <Batch ID>
0153

> <Smiles>
CNC(C)C(=O)NC(C(=O)N1Cc2cc([101O:1][101CH2:1]C(C)C(=O)Nc3ccc([100NH:0][100C:0](=O)N4CCCC(n5nc(-c6ccc(Oc7ccc(F)cc7F)cc6)c(C(N)=O)c5N)C4)s3)ccc2CC1C(=O)NC1CCCc2ccccc21)C(C)(C)C

> <Shape>
0.213

> <Color>
0.070

> <Negative vol penalty>
0.000

$$$$

  -OEChem-04052303303D

 84 92  0     1  0  0  0  0  0999 V2000
  -18.5096  -33.2746   24.2140 C   0  0  0  0  0  0  0  0  0  0  0  0
  -19.7525  -33.4112   23.6043 C   0  0  0  0  0  0  0  0  0  0  0  0
  -24.3157  -13.2468   21.9729 C   0  0  0  0  0  0  0  0  0  0  0  0
  -26.3124  -13.3794   20.6193 C   0  0  0  0  0  0  0  0  0  0  0  0
  -18.1496  -32.0599   24.7960 C   0  0  0  0  0  0  0  0  0  0  0  0
  -20.6367  -32.3333   23.5771 C   0  0  0  0  0  0  0  0  0  0  0  0
  -25.7233  -29.3868   19.4830 C   0  0  0  0  0  0  0  0  0  0  0  0
  -23.8796  -12.1547   21.2228 C   0  0  0  0  0  0  0  0  0  0  0  0
  -25.8764  -12.2872   19.8691 C   0  0  0  0  0  0  0  0  0  0  0  0
  -27.0425  -28.9418   19.5577 C   0  0  0  0  0  0  0  0  0  0  0  0
  -24.5210   -8.8396   21.0446 C   0  0  0  0  0  0  0  0  0  0  0  0
  -24.0074   -7.7421   21.7355 C   0  0  0  0  0  0  0  0  0  0  0  0
  -29.0764  -22.7655   19.2441 C   0  0  0  0  0  0  0  0  0  0  0  0
  -26.2815  -26.8673   20.5255 C   0  0  0  0  0  0  0  0  0  0  0  0
  -21.8985   -8.0056   20.5865 C   0  0  0  0  0  0  0  0  0  0  0  0
  -25.5321  -13.8592   21.6712 C   0  0  0  0  0  0  0  0  0  0  0  0
  -30.2664  -22.9814   18.4907 C   0  0  0  0  0  0  0  0  0  0  0  0
  -26.7740  -14.9586   23.6093 C   0  0  0  0  0  0  0  0  0  0  0  0
  -19.0260  -30.9636   24.7675 C   0  0  0  0  0  0  0  0  0  0  0  0
  -24.6725  -28.5785   19.9399 C   0  0  0  0  0  0  0  0  0  0  0  0
  -20.2887  -31.1031   24.1604 C   0  0  0  0  0  0  0  0  0  0  0  0
  -24.9497  -27.3034   20.4532 C   0  0  0  0  0  0  0  0  0  0  0  0
  -24.6600  -11.6749   20.1709 C   0  0  0  0  0  0  0  0  0  0  0  0
  -27.3220  -27.6831   20.0817 C   0  0  0  0  0  0  0  0  0  0  0  0
  -23.7233   -9.5201   20.1246 C   0  0  0  0  0  0  0  0  0  0  0  0
  -22.6962   -7.3251   21.5065 C   0  0  0  0  0  0  0  0  0  0  0  0
  -22.4121   -9.1031   19.8956 C   0  0  0  0  0  0  0  0  0  0  0  0
  -25.9828  -14.9877   22.4453 C   0  0  0  0  0  0  0  0  0  0  0  0
  -26.9228  -16.2791   23.9565 C   0  0  0  0  0  0  0  0  0  0  0  0
  -28.8668  -21.4301   19.5089 C   0  0  0  0  0  0  0  0  0  0  0  0
  -30.9210  -21.8025   18.2084 C   0  0  0  0  0  0  0  0  0  0  0  0
  -30.7276  -24.3199   18.0708 C   0  0  0  0  0  0  0  0  0  0  0  0
  -27.3254  -13.8381   24.3136 C   0  0  0  0  0  0  0  0  0  0  0  0
  -22.4657  -28.8405   22.2126 C   0  0  0  0  0  0  0  0  0  0  0  0
  -30.9572  -27.4454   19.8410 C   0  0  0  0  0  0  0  0  0  0  0  0
  -21.3508  -26.0896   20.9042 C   0  0  0  0  0  0  0  0  0  0  0  0
  -21.9976  -23.2789   19.0798 C   0  0  0  0  0  0  0  0  0  0  0  0
  -26.7241  -21.3688   20.8323 C   0  0  0  0  0  0  0  0  0  0  0  0
  -18.6115  -29.6849   25.4514 C   0  0  0  0  0  0  0  0  0  0  0  0
  -23.2528  -29.0624   19.8278 C   0  0  0  0  0  0  0  0  0  0  0  0
  -23.8558  -26.3889   20.9384 C   0  0  0  0  0  0  0  0  0  0  0  0
  -19.4565  -28.4783   25.0508 C   0  0  0  0  0  0  0  0  0  0  0  0
  -24.7011  -20.5093   23.6334 C   0  0  0  0  0  0  0  0  0  0  0  0
  -20.9403  -28.8305   25.0858 C   0  0  0  0  0  0  0  0  0  0  0  0
  -24.8770  -18.9940   23.7562 C   0  0  0  0  0  0  0  0  0  0  0  0
  -24.6728  -20.9604   22.1741 C   0  0  0  0  0  0  0  0  0  0  0  0
  -25.9858  -18.9931   21.4852 C   0  0  0  0  0  0  0  0  0  0  0  0
  -21.2654  -29.9494   24.0889 C   0  0  1  0  0  0  0  0  0  0  0  0
  -22.3048  -28.3629   20.7971 C   0  0  1  0  0  0  0  0  0  0  0  0
  -26.0854  -18.4987   22.9376 C   0  0  2  0  0  0  0  0  0  0  0  0
  -20.8961  -21.1994   18.2081 C   0  0  0  0  0  0  0  0  0  0  0  0
  -21.4600  -24.8642   23.6964 C   0  0  0  0  0  0  0  0  0  0  0  0
  -21.2805  -22.6036   22.6355 C   0  0  0  0  0  0  0  0  0  0  0  0
  -19.4302  -24.2552   22.3685 C   0  0  0  0  0  0  0  0  0  0  0  0
  -22.5309  -24.0353   16.2686 C   0  0  0  0  0  0  0  0  0  0  0  0
  -31.4708  -26.5812   18.7275 C   0  0  0  0  0  0  0  0  0  0  0  0
  -29.6230  -28.1299   19.6796 C   0  0  0  0  0  0  0  0  0  1  0  0
  -21.6043  -24.6187   21.1303 C   0  0  1  0  0  0  0  0  0  0  0  0
  -21.2636  -22.6451   17.9118 C   0  0  2  0  0  0  0  0  0  0  0  0
  -20.9648  -24.1032   22.4504 C   0  0  0  0  0  0  0  0  0  0  0  0
  -25.6518  -16.2284   22.0777 N   0  0  0  0  0  0  0  0  0  0  0  0
  -31.6590  -27.5854   20.9184 N   0  0  0  0  0  0  0  0  0  0  0  0
  -26.2379  -16.9912   23.0162 N   0  0  0  0  0  0  0  0  0  0  0  0
  -22.4844  -26.9098   20.8137 N   0  0  0  0  0  0  0  0  0  0  0  0
  -25.8499  -20.4579   21.4623 N   0  0  0  0  0  0  0  0  0  0  0  0
  -27.5711  -16.8890   24.9714 N   0  0  0  0  0  0  0  0  0  0  0  0
  -32.0776  -21.6575   17.5125 N   0  0  0  0  0  0  0  0  0  0  0  0
  -27.0756  -12.5502   23.8204 N   0  0  0  0  0  0  0  0  0  0  0  0
  -27.8259  -20.7776   20.2151 N   0  0  0  0  0  0  0  0  0  0  0  0
  -30.9946  -25.2390   19.0158 N   0  0  0  0  0  0  0  0  0  0  0  0
  -21.3302  -29.4234   22.7422 N   0  0  0  0  0  0  0  0  0  0  0  0
  -21.1333  -23.9342   19.9311 N   0  0  0  0  0  0  0  0  0  0  0  0
  -30.8569  -24.5592   16.7657 N   0  3  0  0  0  0  0  0  0  0  0  0
  -22.1148  -22.6724   16.6888 N   0  3  0  0  0  0  0  0  0  0  0  0
  -28.0053  -13.9739   25.3590 O   0  0  0  0  0  0  0  0  0  0  0  0
  -23.5400  -28.6899   22.7826 O   0  0  0  0  0  0  0  0  0  0  0  0
  -20.1901  -26.4948   20.8041 O   0  0  0  0  0  0  0  0  0  0  0  0
  -23.2154  -23.1974   19.2245 O   0  0  0  0  0  0  0  0  0  0  0  0
  -26.5253  -22.5860   20.8630 O   0  0  0  0  0  0  0  0  0  0  0  0
  -24.2349  -10.6090   19.4389 O   0  0  0  0  0  0  0  0  0  0  0  0
  -28.6087  -27.2465   20.1563 O   0  0  0  0  0  0  0  0  0  1  0  0
  -22.2037   -6.2702   22.1689 F   0  0  0  0  0  0  0  0  0  0  0  0
  -21.6414   -9.7522   19.0121 F   0  0  0  0  0  0  0  0  0  0  0  0
  -30.1015  -20.4430   18.8504 S   0  0  0  0  0  0  0  0  0  0  0  0
  1  2  1  0  0  0  0
  1  5  2  0  0  0  0
  2  6  2  0  0  0  0
  3  8  2  0  0  0  0
  3 16  1  0  0  0  0
  4  9  1  0  0  0  0
  4 16  2  0  0  0  0
  5 19  1  0  0  0  0
  6 21  1  0  0  0  0
  7 10  2  0  0  0  0
  7 20  1  0  0  0  0
  8 23  1  0  0  0  0
  9 23  2  0  0  0  0
 10 24  1  0  0  0  0
 11 12  2  0  0  0  0
 11 25  1  0  0  0  0
 12 26  1  0  0  0  0
 13 17  1  0  0  0  0
 13 30  2  0  0  0  0
 14 22  1  0  0  0  0
 14 24  2  0  0  0  0
 15 26  2  0  0  0  0
 15 27  1  0  0  0  0
 16 28  1  0  0  0  0
 17 31  2  0  0  0  0
 17 32  1  0  0  0  0
 18 28  1  0  0  0  0
 18 29  2  0  0  0  0
 18 33  1  0  0  0  0
 19 21  2  0  0  0  0
 19 39  1  0  0  0  0
 20 22  2  0  0  0  0
 20 40  1  0  0  0  0
 21 48  1  0  0  0  0
 22 41  1  0  0  0  0
 23 80  1  0  0  0  0
 24 81  1  0  0  0  0
 25 27  2  0  0  0  0
 25 80  1  0  0  0  0
 26 82  1  0  0  0  0
 27 83  1  0  0  0  0
 28 61  2  0  0  0  0
 29 63  1  0  0  0  0
 29 66  1  0  0  0  0
 30 69  1  0  0  0  0
 30 84  1  0  0  0  0
 31 67  1  0  0  0  0
 31 84  1  0  0  0  0
 32 70  1  0  0  0  0
 32 73  2  0  0  0  0
 33 68  1  0  0  0  0
 33 75  2  0  0  0  0
 34 49  1  0  0  0  0
 34 71  1  0  0  0  0
 34 76  2  0  0  0  0
 35 56  1  0  0  0  0
 35 57  1  0  0  0  0
 35 62  2  0  0  0  0
 36 58  1  0  0  0  0
 36 64  1  0  0  0  0
 36 77  2  0  0  0  0
 37 59  1  0  0  0  0
 37 72  1  0  0  0  0
 37 78  2  0  0  0  0
 38 65  1  0  0  0  0
 38 69  1  0  0  0  0
 38 79  2  0  0  0  0
 39 42  1  0  0  0  0
 40 49  1  0  0  0  0
 41 64  1  0  0  0  0
 42 44  1  0  0  0  0
 43 45  1  0  0  0  0
 43 46  1  0  0  0  0
 44 48  1  0  0  0  0
 45 50  1  0  0  0  0
 46 65  1  0  0  0  0
 47 50  1  0  0  0  0
 47 65  1  0  0  0  0
 48 71  1  0  0  0  0
 49 64  1  0  0  0  0
 50 63  1  0  0  0  0
 51 59  1  0  0  0  0
 52 60  1  0  0  0  0
 53 60  1  0  0  0  0
 54 60  1  0  0  0  0
 55 74  1  0  0  0  0
 56 70  1  0  0  0  0
 57 81  1  0  0  0  0
 58 60  1  0  0  0  0
 58 72  1  0  0  0  0
 59 74  1  0  0  0  0
 61 63  1  0  0  0  0
M  CHG  2  73   1  74   1
M  ISO  4  38 100  57 101  69 100  81 101
M  END
> <Batch ID>
0153

> <Smiles>
CNC(C)C(=O)NC(C(=O)N1Cc2cc([101O:1][101CH2:1]C(=N)CNC(=N)c3cc([100NH:0][100C:0](=O)N4CCCC(n5nc(-c6ccc(Oc7ccc(F)cc7F)cc6)c(C(N)=O)c5N)C4)sc3N)ccc2CC1C(=O)NC1CCCc2ccccc21)C(C)(C)C

> <Shape>
0.226

> <Color>
0.083

> <Negative vol penalty>
0.000

$$$$

  -OEChem-04052303303D

 89 98  0     1  0  0  0  0  0999 V2000
  -23.7571  -31.5089   28.1189 C   0  0  0  0  0  0  0  0  0  0  0  0
  -23.2311  -31.6363   26.8373 C   0  0  0  0  0  0  0  0  0  0  0  0
  -26.6739  -12.5548   21.7674 C   0  0  0  0  0  0  0  0  0  0  0  0
  -26.0400  -13.9742   19.9179 C   0  0  0  0  0  0  0  0  0  0  0  0
  -25.1364  -31.5670   28.3141 C   0  0  0  0  0  0  0  0  0  0  0  0
  -24.0841  -31.8231   25.7502 C   0  0  0  0  0  0  0  0  0  0  0  0
  -24.1332  -27.1882   20.2359 C   0  0  0  0  0  0  0  0  0  0  0  0
  -25.3974  -11.9927   21.7735 C   0  0  0  0  0  0  0  0  0  0  0  0
  -24.7635  -13.4120   19.9240 C   0  0  0  0  0  0  0  0  0  0  0  0
  -24.0520  -26.4630   19.0469 C   0  0  0  0  0  0  0  0  0  0  0  0
  -23.6862   -9.6785   19.9988 C   0  0  0  0  0  0  0  0  0  0  0  0
  -23.5894   -8.2912   20.1062 C   0  0  0  0  0  0  0  0  0  0  0  0
  -29.1324  -22.8633   21.1591 C   0  0  0  0  0  0  0  0  0  0  0  0
  -25.8534  -27.7766   18.1103 C   0  0  0  0  0  0  0  0  0  0  0  0
  -22.3203   -8.5378   22.1472 C   0  0  0  0  0  0  0  0  0  0  0  0
  -26.9952  -13.5457   20.8397 C   0  0  0  0  0  0  0  0  0  0  0  0
  -28.4956  -23.7863   20.2800 C   0  0  0  0  0  0  0  0  0  0  0  0
  -29.4351  -13.6829   20.1077 C   0  0  0  0  0  0  0  0  0  0  0  0
  -26.0073  -31.7450   27.2276 C   0  0  0  0  0  0  0  0  0  0  0  0
  -25.0863  -28.2013   20.3723 C   0  0  0  0  0  0  0  0  0  0  0  0
  -25.4763  -31.8850   25.9312 C   0  0  0  0  0  0  0  0  0  0  0  0
  -25.9478  -28.4980   19.3033 C   0  0  0  0  0  0  0  0  0  0  0  0
  -24.4422  -12.4212   20.8518 C   0  0  0  0  0  0  0  0  0  0  0  0
  -24.9099  -26.7567   17.9867 C   0  0  0  0  0  0  0  0  0  0  0  0
  -23.1002  -10.4955   20.9657 C   0  0  0  0  0  0  0  0  0  0  0  0
  -22.9064   -7.7208   21.1804 C   0  0  0  0  0  0  0  0  0  0  0  0
  -22.4172   -9.9251   22.0399 C   0  0  0  0  0  0  0  0  0  0  0  0
  -28.3135  -14.1272   20.8332 C   0  0  0  0  0  0  0  0  0  0  0  0
  -30.4324  -14.5659   20.4424 C   0  0  0  0  0  0  0  0  0  0  0  0
  -29.2564  -21.6127   20.5951 C   0  0  0  0  0  0  0  0  0  0  0  0
  -28.1574  -23.2059   19.0772 C   0  0  0  0  0  0  0  0  0  0  0  0
  -28.2259  -25.1674   20.5877 C   0  0  0  0  0  0  0  0  0  0  0  0
  -29.5639  -12.5714   19.2112 C   0  0  0  0  0  0  0  0  0  0  0  0
  -26.5987  -30.8396   22.5696 C   0  0  0  0  0  0  0  0  0  0  0  0
  -27.2161  -23.0709   16.7491 C   0  0  0  0  0  0  0  0  0  0  0  0
  -28.9129  -29.4923   21.0730 C   0  0  0  0  0  0  0  0  0  0  0  0
  -31.5746  -27.8608   19.2677 C   0  0  0  0  0  0  0  0  0  0  0  0
  -30.3998  -20.2253   22.3597 C   0  0  0  0  0  0  0  0  0  0  0  0
  -27.4882  -31.8488   27.4938 C   0  0  0  0  0  0  0  0  0  0  0  0
  -25.1686  -29.0492   21.6125 C   0  0  0  0  0  0  0  0  0  0  0  0
  -26.9343  -29.6195   19.4826 C   0  0  0  0  0  0  0  0  0  0  0  0
  -28.3456  -31.6740   26.2430 C   0  0  0  0  0  0  0  0  0  0  0  0
  -31.8596  -17.4271   24.0077 C   0  0  0  0  0  0  0  0  0  0  0  0
  -27.7903  -32.5097   25.0940 C   0  0  0  0  0  0  0  0  0  0  0  0
  -31.2226  -16.2228   23.3105 C   0  0  0  0  0  0  0  0  0  0  0  0
  -24.6285  -24.3857   14.4316 C   0  0  0  0  0  0  0  0  0  0  0  0
  -30.8709  -18.5812   24.1625 C   0  0  0  0  0  0  0  0  0  0  0  0
  -29.5684  -17.7951   22.2248 C   0  0  0  0  0  0  0  0  0  0  0  0
  -25.6413  -23.7390   13.5063 C   0  0  0  0  0  0  0  0  0  0  0  0
  -26.3706  -32.0640   24.7236 C   0  0  1  0  0  0  0  0  0  0  0  0
  -26.6079  -29.4670   21.9635 C   0  0  1  0  0  0  0  0  0  0  0  0
  -26.5441  -23.9822   15.7766 C   0  0  2  0  0  0  0  0  0  0  0  0
  -25.0230  -23.8765   15.8110 C   0  0  1  0  0  0  0  0  0  0  0  0
  -30.5444  -16.6310   21.9880 C   0  0  2  0  0  0  0  0  0  0  0  0
  -27.9782  -25.5358   22.0285 C   0  0  0  0  0  0  0  0  0  0  0  0
  -34.0476  -27.8193   19.6919 C   0  0  0  0  0  0  0  0  0  0  0  0
  -28.9925  -31.8395   19.1267 C   0  0  0  0  0  0  0  0  0  0  0  0
  -31.1245  -30.9084   18.2017 C   0  0  0  0  0  0  0  0  0  0  0  0
  -31.0109  -31.6266   20.5879 C   0  0  0  0  0  0  0  0  0  0  0  0
  -28.0905  -24.2877   13.7988 C   0  0  0  0  0  0  0  0  0  0  0  0
  -31.6342  -24.9022   19.3143 C   0  0  0  0  0  0  0  0  0  0  0  0
  -24.3943  -24.6865   16.9351 C   0  0  0  0  0  0  0  0  0  1  0  0
  -29.8245  -29.5118   19.8722 C   0  0  1  0  0  0  0  0  0  0  0  0
  -32.7308  -27.0782   19.8636 C   0  0  2  0  0  0  0  0  0  0  0  0
  -30.2144  -30.9558   19.4476 C   0  0  0  0  0  0  0  0  0  0  0  0
  -28.5733  -15.2083   21.5733 N   0  0  0  0  0  0  0  0  0  0  0  0
  -29.8696  -15.4508   21.3145 N   0  0  0  0  0  0  0  0  0  0  0  0
  -27.5364  -29.5494   20.8232 N   0  0  0  0  0  0  0  0  0  0  0  0
  -30.2713  -18.9157   22.8689 N   0  0  0  0  0  0  0  0  0  0  0  0
  -31.7271  -14.6640   20.0731 N   0  0  0  0  0  0  0  0  0  0  0  0
  -28.4403  -11.7663   18.9793 N   0  0  0  0  0  0  0  0  0  0  0  0
  -27.5215  -23.7362   17.9296 N   0  0  0  0  0  0  0  0  0  0  0  0
  -29.8175  -20.4166   21.1071 N   0  0  0  0  0  0  0  0  0  0  0  0
  -26.4110  -30.8489   23.9386 N   0  0  0  0  0  0  0  0  0  0  0  0
  -30.9605  -28.6605   20.2082 N   0  0  0  0  0  0  0  0  0  0  0  0
  -26.8933  -23.5757   14.3495 N   0  3  2  0  0  0  0  0  0  0  0  0
  -32.8507  -25.7477   19.2030 N   0  3  0  0  0  0  0  0  0  0  0  0
  -28.1737  -26.0924   19.7623 O   0  0  0  0  0  0  0  0  0  0  0  0
  -30.6477  -12.2905   18.6455 O   0  0  0  0  0  0  0  0  0  0  0  0
  -26.7520  -31.8192   21.8494 O   0  0  0  0  0  0  0  0  0  0  0  0
  -27.4309  -21.8970   16.4647 O   0  0  0  0  0  0  0  0  0  0  0  0
  -29.4053  -29.4338   22.2032 O   0  0  0  0  0  0  0  0  0  0  0  0
  -31.2512  -27.7745   18.0851 O   0  0  0  0  0  0  0  0  0  0  0  0
  -31.0070  -21.1046   22.9762 O   0  0  0  0  0  0  0  0  0  0  0  0
  -23.1965  -11.8727   20.8573 O   0  0  0  0  0  0  0  0  0  0  0  0
  -24.8282  -26.0419   16.8304 O   0  0  0  0  0  0  0  0  0  1  0  0
  -22.8122   -6.3886   21.2825 F   0  0  0  0  0  0  0  0  0  0  0  0
  -21.8511  -10.7048   22.9712 F   0  0  0  0  0  0  0  0  0  0  0  0
  -28.6069  -21.5549   19.0117 S   0  0  0  0  0  0  0  0  0  0  0  0
  1  2  1  0  0  0  0
  1  5  2  0  0  0  0
  2  6  2  0  0  0  0
  3  8  2  0  0  0  0
  3 16  1  0  0  0  0
  4  9  1  0  0  0  0
  4 16  2  0  0  0  0
  5 19  1  0  0  0  0
  6 21  1  0  0  0  0
  7 10  2  0  0  0  0
  7 20  1  0  0  0  0
  8 23  1  0  0  0  0
  9 23  2  0  0  0  0
 10 24  1  0  0  0  0
 11 12  2  0  0  0  0
 11 25  1  0  0  0  0
 12 26  1  0  0  0  0
 13 17  1  0  0  0  0
 13 30  2  0  0  0  0
 14 22  1  0  0  0  0
 14 24  2  0  0  0  0
 15 26  2  0  0  0  0
 15 27  1  0  0  0  0
 16 28  1  0  0  0  0
 17 31  2  0  0  0  0
 17 32  1  0  0  0  0
 18 28  1  0  0  0  0
 18 29  2  0  0  0  0
 18 33  1  0  0  0  0
 19 21  2  0  0  0  0
 19 39  1  0  0  0  0
 20 22  2  0  0  0  0
 20 40  1  0  0  0  0
 21 50  1  0  0  0  0
 22 41  1  0  0  0  0
 23 85  1  0  0  0  0
 24 86  1  0  0  0  0
 25 27  2  0  0  0  0
 25 85  1  0  0  0  0
 26 87  1  0  0  0  0
 27 88  1  0  0  0  0
 28 66  2  0  0  0  0
 29 67  1  0  0  0  0
 29 70  1  0  0  0  0
 30 73  1  0  0  0  0
 30 89  1  0  0  0  0
 31 72  1  0  0  0  0
 31 89  1  0  0  0  0
 32 55  1  0  0  0  0
 32 78  2  0  0  0  0
 33 71  1  0  0  0  0
 33 79  2  0  0  0  0
 34 51  1  0  0  0  0
 34 74  1  0  0  0  0
 34 80  2  0  0  0  0
 35 52  1  0  0  0  0
 35 72  1  0  0  0  0
 35 81  2  0  0  0  0
 36 63  1  0  0  0  0
 36 68  1  0  0  0  0
 36 82  2  0  0  0  0
 37 64  1  0  0  0  0
 37 75  1  0  0  0  0
 37 83  2  0  0  0  0
 38 69  1  0  0  0  0
 38 73  1  0  0  0  0
 38 84  2  0  0  0  0
 39 42  1  0  0  0  0
 40 51  1  0  0  0  0
 41 68  1  0  0  0  0
 42 44  1  0  0  0  0
 43 45  1  0  0  0  0
 43 47  1  0  0  0  0
 44 50  1  0  0  0  0
 45 54  1  0  0  0  0
 46 49  1  0  0  0  0
 46 53  1  0  0  0  0
 47 69  1  0  0  0  0
 48 54  1  0  0  0  0
 48 69  1  0  0  0  0
 49 76  1  0  0  0  0
 50 74  1  0  0  0  0
 51 68  1  0  0  0  0
 52 53  1  0  0  0  0
 52 76  1  0  0  0  0
 53 62  1  0  0  0  0
 54 67  1  0  0  0  0
 56 64  1  0  0  0  0
 57 65  1  0  0  0  0
 58 65  1  0  0  0  0
 59 65  1  0  0  0  0
 60 76  1  0  0  0  0
 61 77  1  0  0  0  0
 62 86  1  0  0  0  0
 63 65  1  0  0  0  0
 63 75  1  0  0  0  0
 64 77  1  0  0  0  0
 66 67  1  0  0  0  0
M  CHG  2  76   1  77   1
M  ISO  4  38 100  62 101  73 100  86 101
M  END
> <Batch ID>
0153

> <Smiles>
CNC(C)C(=O)NC(C(=O)N1Cc2cc([101O:1][101CH2:1]C3CCN(C)C3C(=O)Nc3sc([100NH:0][100C:0](=O)N4CCCC(n5nc(-c6ccc(Oc7ccc(F)cc7F)cc6)c(C(N)=O)c5N)C4)cc3C(C)=O)ccc2CC1C(=O)NC1CCCc2ccccc21)C(C)(C)C

> <Shape>
0.291

> <Color>
0.066

> <Negative vol penalty>
0.000

$$$$

  -OEChem-04052303303D

 82 91  0     1  0  0  0  0  0999 V2000
  -30.2998  -33.8536   29.7308 C   0  0  0  0  0  0  0  0  0  0  0  0
  -30.5495  -32.5032   29.5085 C   0  0  0  0  0  0  0  0  0  0  0  0
  -23.0784   -9.8641   19.9394 C   0  0  0  0  0  0  0  0  0  0  0  0
  -23.8349   -9.8735   22.2339 C   0  0  0  0  0  0  0  0  0  0  0  0
  -29.7095  -34.6259   28.7314 C   0  0  0  0  0  0  0  0  0  0  0  0
  -30.2078  -31.9240   28.2870 C   0  0  0  0  0  0  0  0  0  0  0  0
  -33.2187  -27.4698   25.3543 C   0  0  0  0  0  0  0  0  0  0  0  0
  -22.3353   -8.7104   20.1891 C   0  0  0  0  0  0  0  0  0  0  0  0
  -23.0918   -8.7198   22.4836 C   0  0  0  0  0  0  0  0  0  0  0  0
  -33.0163  -26.0924   25.2798 C   0  0  0  0  0  0  0  0  0  0  0  0
  -19.8635   -7.9193   23.0820 C   0  0  0  0  0  0  0  0  0  0  0  0
  -19.1049   -7.8795   24.2518 C   0  0  0  0  0  0  0  0  0  0  0  0
  -31.8754  -18.8184   22.3737 C   0  0  0  0  0  0  0  0  0  0  0  0
  -31.7892  -17.5588   21.7133 C   0  0  0  0  0  0  0  0  0  0  0  0
  -31.8084  -26.3878   23.2127 C   0  0  0  0  0  0  0  0  0  0  0  0
  -20.3471   -5.9438   24.9915 C   0  0  0  0  0  0  0  0  0  0  0  0
  -23.8283  -10.4457   20.9618 C   0  0  0  0  0  0  0  0  0  0  0  0
  -24.1678  -12.9710   20.8404 C   0  0  0  0  0  0  0  0  0  0  0  0
  -29.3692  -34.0582   27.4934 C   0  0  0  0  0  0  0  0  0  0  0  0
  -32.7072  -28.3191   24.3625 C   0  0  0  0  0  0  0  0  0  0  0  0
  -29.6111  -32.6891   27.2705 C   0  0  0  0  0  0  0  0  0  0  0  0
  -32.0079  -27.7754   23.2756 C   0  0  0  0  0  0  0  0  0  0  0  0
  -22.3419   -8.1383   21.4612 C   0  0  0  0  0  0  0  0  0  0  0  0
  -32.3086  -25.5515   24.2104 C   0  0  0  0  0  0  0  0  0  0  0  0
  -20.8639   -6.9713   22.8669 C   0  0  0  0  0  0  0  0  0  0  0  0
  -19.3467   -6.8918   25.2066 C   0  0  0  0  0  0  0  0  0  0  0  0
  -21.1057   -5.9836   23.8217 C   0  0  0  0  0  0  0  0  0  0  0  0
  -24.5966  -11.6371   20.7043 C   0  0  0  0  0  0  0  0  0  0  0  0
  -25.2597  -13.7213   20.4781 C   0  0  0  0  0  0  0  0  0  0  0  0
  -30.7267  -19.1153   23.0738 C   0  0  0  0  0  0  0  0  0  0  0  0
  -30.5780  -16.9407   21.9341 C   0  0  0  0  0  0  0  0  0  0  0  0
  -30.6907  -22.3861   24.7083 C   0  0  0  0  0  0  0  0  0  0  0  0
  -30.9875  -23.6900   24.7203 C   0  0  0  0  0  0  0  0  0  1  0  0
  -22.8962  -13.4859   21.2570 C   0  0  0  0  0  0  0  0  0  0  0  0
  -30.6075  -30.7050   24.3170 C   0  0  0  0  0  0  0  0  0  0  0  0
  -31.5742  -30.9797   21.2328 C   0  0  0  0  0  0  0  0  0  0  0  0
  -32.9541  -29.4969   18.4861 C   0  0  0  0  0  0  0  0  0  0  0  0
  -30.7247  -14.7723   20.6602 C   0  0  0  0  0  0  0  0  0  0  0  0
  -28.6897  -34.9221   26.4607 C   0  0  0  0  0  0  0  0  0  0  0  0
  -32.9572  -29.8001   24.4436 C   0  0  0  0  0  0  0  0  0  0  0  0
  -31.4558  -28.6420   22.1744 C   0  0  0  0  0  0  0  0  0  0  0  0
  -29.4773  -21.7741   25.3335 C   0  0  0  0  0  0  0  0  0  0  0  0
  -31.4609  -21.3357   23.9661 C   0  0  0  0  0  0  0  0  0  0  0  0
  -28.7007  -34.3183   25.0588 C   0  0  0  0  0  0  0  0  0  0  0  0
  -29.6161  -12.3558   18.2919 C   0  0  0  0  0  0  0  0  0  0  0  0
  -28.2924  -32.8494   25.1069 C   0  0  0  0  0  0  0  0  0  0  0  0
  -28.1761  -12.0631   18.7196 C   0  0  0  0  0  0  0  0  0  0  0  0
  -29.2049  -20.5690   24.4378 C   0  0  0  0  0  0  0  0  0  0  0  0
  -30.5292  -12.5863   19.4947 C   0  0  0  0  0  0  0  0  0  0  0  0
  -28.6195  -13.3099   20.8727 C   0  0  0  0  0  0  0  0  0  0  0  0
  -29.2775  -32.0303   25.9496 C   0  0  1  0  0  0  0  0  0  0  0  0
  -31.9489  -30.6208   23.6453 C   0  0  1  0  0  0  0  0  0  0  0  0
  -27.6486  -13.1349   19.6936 C   0  0  2  0  0  0  0  0  0  0  0  0
  -33.5819  -29.9639   16.1018 C   0  0  0  0  0  0  0  0  0  0  0  0
  -28.6366  -30.8031   20.4273 C   0  0  0  0  0  0  0  0  0  0  0  0
  -29.3797  -30.3196   18.0859 C   0  0  0  0  0  0  0  0  0  0  0  0
  -29.9672  -32.4955   19.1548 C   0  0  0  0  0  0  0  0  0  0  0  0
  -35.8127  -28.9347   19.0069 C   0  0  0  0  0  0  0  0  0  0  0  0
  -31.1328  -30.3855   19.9171 C   0  0  1  0  0  0  0  0  0  0  0  0
  -34.0578  -29.9470   17.5460 C   0  0  2  0  0  0  0  0  0  0  0  0
  -29.7877  -30.9845   19.4179 C   0  0  0  0  0  0  0  0  0  0  0  0
  -25.8621  -11.5422   20.2879 N   0  0  0  0  0  0  0  0  0  0  0  0
  -26.2380  -12.8260   20.1592 N   0  0  0  0  0  0  0  0  0  0  0  0
  -30.4898  -20.2546   23.8175 N   0  0  3  0  0  0  0  0  0  0  0  0
  -31.7209  -30.0845   22.3019 N   0  0  0  0  0  0  0  0  0  0  0  0
  -29.9679  -13.6172   20.3706 N   0  0  0  0  0  0  0  0  0  0  0  0
  -25.4690  -15.0529   20.4044 N   0  0  0  0  0  0  0  0  0  0  0  0
  -21.8847  -12.5760   21.5935 N   0  0  0  0  0  0  0  0  0  0  0  0
  -30.0752  -15.6973   21.4770 N   0  0  0  0  0  0  0  0  0  0  0  0
  -30.4848  -31.7626   25.1978 N   0  0  0  0  0  0  0  0  0  0  0  0
  -32.2471  -30.5667   18.9930 N   0  0  0  0  0  0  0  0  0  0  0  0
  -35.2282  -29.0297   17.6445 N   0  3  0  0  0  0  0  0  0  0  0  0
  -22.6586  -14.7164   21.3131 O   0  0  0  0  0  0  0  0  0  0  0  0
  -29.7470  -29.8730   24.0543 O   0  0  0  0  0  0  0  0  0  0  0  0
  -31.7882  -32.1922   21.3072 O   0  0  0  0  0  0  0  0  0  0  0  0
  -32.7382  -28.3143   18.7421 O   0  0  0  0  0  0  0  0  0  0  0  0
  -31.8543  -14.9418   20.1941 O   0  0  0  0  0  0  0  0  0  0  0  0
  -21.6167   -7.0127   21.7053 O   0  0  0  0  0  0  0  0  0  0  0  0
  -32.1091  -24.2075   24.1355 O   0  0  0  0  0  0  0  0  0  1  0  0
  -18.6191   -6.8546   26.3306 F   0  0  0  0  0  0  0  0  0  0  0  0
  -22.0662   -5.0709   23.6211 F   0  0  0  0  0  0  0  0  0  0  0  0
  -29.5511  -17.8781   22.9336 S   0  0  0  0  0  0  0  0  0  0  0  0
  1  2  1  0  0  0  0
  1  5  2  0  0  0  0
  2  6  2  0  0  0  0
  3  8  2  0  0  0  0
  3 17  1  0  0  0  0
  4  9  1  0  0  0  0
  4 17  2  0  0  0  0
  5 19  1  0  0  0  0
  6 21  1  0  0  0  0
  7 10  2  0  0  0  0
  7 20  1  0  0  0  0
  8 23  1  0  0  0  0
  9 23  2  0  0  0  0
 10 24  1  0  0  0  0
 11 12  2  0  0  0  0
 11 25  1  0  0  0  0
 12 26  1  0  0  0  0
 13 14  1  0  0  0  0
 13 30  2  0  0  0  0
 14 31  2  0  0  0  0
 15 22  1  0  0  0  0
 15 24  2  0  0  0  0
 16 26  2  0  0  0  0
 16 27  1  0  0  0  0
 17 28  1  0  0  0  0
 18 28  1  0  0  0  0
 18 29  2  0  0  0  0
 18 34  1  0  0  0  0
 19 21  2  0  0  0  0
 19 39  1  0  0  0  0
 20 22  2  0  0  0  0
 20 40  1  0  0  0  0
 21 51  1  0  0  0  0
 22 41  1  0  0  0  0
 23 78  1  0  0  0  0
 24 79  1  0  0  0  0
 25 27  2  0  0  0  0
 25 78  1  0  0  0  0
 26 80  1  0  0  0  0
 27 81  1  0  0  0  0
 28 62  2  0  0  0  0
 29 63  1  0  0  0  0
 29 67  1  0  0  0  0
 30 64  1  0  0  0  0
 30 82  1  0  0  0  0
 31 69  1  0  0  0  0
 31 82  1  0  0  0  0
 32 33  2  0  0  0  0
 32 42  1  0  0  0  0
 32 43  1  0  0  0  0
 33 79  1  0  0  0  0
 34 68  1  0  0  0  0
 34 73  2  0  0  0  0
 35 52  1  0  0  0  0
 35 70  1  0  0  0  0
 35 74  2  0  0  0  0
 36 59  1  0  0  0  0
 36 65  1  0  0  0  0
 36 75  2  0  0  0  0
 37 60  1  0  0  0  0
 37 71  1  0  0  0  0
 37 76  2  0  0  0  0
 38 66  1  0  0  0  0
 38 69  1  0  0  0  0
 38 77  2  0  0  0  0
 39 44  1  0  0  0  0
 40 52  1  0  0  0  0
 41 65  1  0  0  0  0
 42 48  1  0  0  0  0
 43 64  1  0  0  0  0
 44 46  1  0  0  0  0
 45 47  1  0  0  0  0
 45 49  1  0  0  0  0
 46 51  1  0  0  0  0
 47 53  1  0  0  0  0
 48 64  1  0  0  0  0
 49 66  1  0  0  0  0
 50 53  1  0  0  0  0
 50 66  1  0  0  0  0
 51 70  1  0  0  0  0
 52 65  1  0  0  0  0
 53 63  1  0  0  0  0
 54 60  1  0  0  0  0
 55 61  1  0  0  0  0
 56 61  1  0  0  0  0
 57 61  1  0  0  0  0
 58 72  1  0  0  0  0
 59 61  1  0  0  0  0
 59 71  1  0  0  0  0
 60 72  1  0  0  0  0
 62 63  1  0  0  0  0
M  CHG  1  72   1
M  ISO  4  33 101  38 100  69 100  79 101
M  END
> <Batch ID>
0153

> <Smiles>
CNC(C)C(=O)NC(C(=O)N1Cc2cc([101O:1][101CH:1]=C3CCN(c4ccc([100NH:0][100C:0](=O)N5CCCC(n6nc(-c7ccc(Oc8ccc(F)cc8F)cc7)c(C(N)=O)c6N)C5)s4)C3)ccc2CC1C(=O)NC1CCCc2ccccc21)C(C)(C)C

> <Shape>
0.186

> <Color>
0.196

> <Negative vol penalty>
0.000

$$$$

  -OEChem-04052303303D

 84 93  0     1  0  0  0  0  0999 V2000
  -16.5275  -29.8855   23.1976 C   0  0  0  0  0  0  0  0  0  0  0  0
  -17.4771  -30.1301   22.2107 C   0  0  0  0  0  0  0  0  0  0  0  0
  -24.0991  -14.7222   19.3453 C   0  0  0  0  0  0  0  0  0  0  0  0
  -25.9470  -13.1660   19.3217 C   0  0  0  0  0  0  0  0  0  0  0  0
  -16.9328  -29.4745   24.4668 C   0  0  0  0  0  0  0  0  0  0  0  0
  -18.8326  -29.9647   22.4928 C   0  0  0  0  0  0  0  0  0  0  0  0
  -24.9802  -27.9903   19.3903 C   0  0  0  0  0  0  0  0  0  0  0  0
  -23.2012  -13.6555   19.3806 C   0  0  0  0  0  0  0  0  0  0  0  0
  -25.0491  -12.0992   19.3571 C   0  0  0  0  0  0  0  0  0  0  0  0
  -26.2865  -28.4409   19.2051 C   0  0  0  0  0  0  0  0  0  0  0  0
  -23.2522   -8.9705   19.8052 C   0  0  0  0  0  0  0  0  0  0  0  0
  -23.5233   -7.9226   20.6849 C   0  0  0  0  0  0  0  0  0  0  0  0
  -26.8652  -27.6504   21.4095 C   0  0  0  0  0  0  0  0  0  0  0  0
  -23.4298   -9.4606   22.5458 C   0  0  0  0  0  0  0  0  0  0  0  0
  -31.1079  -24.2409   20.0969 C   0  0  0  0  0  0  0  0  0  0  0  0
  -25.4721  -14.4775   19.3158 C   0  0  0  0  0  0  0  0  0  0  0  0
  -26.9745  -16.2441   20.3786 C   0  0  0  0  0  0  0  0  0  0  0  0
  -18.2934  -29.2947   24.7617 C   0  0  0  0  0  0  0  0  0  0  0  0
  -24.6032  -27.3752   20.5927 C   0  0  0  0  0  0  0  0  0  0  0  0
  -19.2566  -29.5522   23.7675 C   0  0  0  0  0  0  0  0  0  0  0  0
  -25.5541  -27.1906   21.6065 C   0  0  0  0  0  0  0  0  0  0  0  0
  -29.7396  -23.6002   18.3658 C   0  0  0  0  0  0  0  0  0  0  0  0
  -30.3602  -24.6849   19.0174 C   0  0  0  0  0  0  0  0  0  0  0  0
  -23.6761  -12.3440   19.3865 C   0  0  0  0  0  0  0  0  0  0  0  0
  -27.2285  -28.2735   20.2159 C   0  0  0  0  0  0  0  0  0  0  0  0
  -23.0700  -10.2636   20.2958 C   0  0  0  0  0  0  0  0  0  0  0  0
  -23.6120   -8.1676   22.0552 C   0  0  0  0  0  0  0  0  0  0  0  0
  -23.1588  -10.5085   21.6661 C   0  0  0  0  0  0  0  0  0  0  0  0
  -26.4002  -15.5791   19.2788 C   0  0  0  0  0  0  0  0  0  0  0  0
  -30.0321  -22.4059   18.9572 C   0  0  0  0  0  0  0  0  0  0  0  0
  -27.7783  -17.2058   19.8168 C   0  0  0  0  0  0  0  0  0  0  0  0
  -26.7973  -16.0132   21.7825 C   0  0  0  0  0  0  0  0  0  0  0  0
  -22.5122  -28.0394   22.8928 C   0  0  0  0  0  0  0  0  0  0  0  0
  -23.4108  -25.1308   24.0131 C   0  0  0  0  0  0  0  0  0  0  0  0
  -25.7802  -22.6775   24.1320 C   0  0  0  0  0  0  0  0  0  0  0  0
  -28.2570  -21.3121   15.9917 C   0  0  0  0  0  0  0  0  0  0  0  0
  -18.6861  -28.8946   26.1618 C   0  0  0  0  0  0  0  0  0  0  0  0
  -23.1969  -26.8707   20.7665 C   0  0  0  0  0  0  0  0  0  0  0  0
  -25.2052  -26.5182   22.9082 C   0  0  0  0  0  0  0  0  0  0  0  0
  -28.8591  -23.4169   17.1980 C   0  0  0  0  0  0  0  0  0  0  0  0
  -29.3895  -21.2490   18.3093 C   0  0  0  0  0  0  0  0  0  0  0  0
  -20.1197  -28.3815   26.2693 C   0  0  0  0  0  0  0  0  0  0  0  0
  -29.2409  -17.9083   15.0243 C   0  0  0  0  0  0  0  0  0  0  0  0
  -21.0752  -29.3063   25.5219 C   0  0  0  0  0  0  0  0  0  0  0  0
  -28.5942  -17.0535   16.1165 C   0  0  0  0  0  0  0  0  0  0  0  0
  -28.4490  -19.1854   14.7516 C   0  0  0  0  0  0  0  0  0  0  0  0
  -27.5106  -19.1380   17.0287 C   0  0  0  0  0  0  0  0  0  0  0  0
  -20.7349  -29.3601   24.0276 C   0  0  1  0  0  0  0  0  0  0  0  0
  -22.7925  -26.7205   22.2298 C   0  0  1  0  0  0  0  0  0  0  0  0
  -28.3188  -17.8834   17.3853 C   0  0  1  0  0  0  0  0  0  0  0  0
  -26.2454  -20.4363   25.1607 C   0  0  0  0  0  0  0  0  0  0  0  0
  -24.0101  -26.4828   26.6819 C   0  0  0  0  0  0  0  0  0  0  0  0
  -25.3293  -24.4569   27.3327 C   0  0  0  0  0  0  0  0  0  0  0  0
  -22.8864  -24.2565   26.8694 C   0  0  0  0  0  0  0  0  0  0  0  0
  -31.2489  -29.5689   19.4844 C   0  0  0  0  0  0  0  0  0  0  0  0
  -31.0288  -28.5201   17.2260 C   0  0  0  0  0  0  0  0  0  0  0  0
  -25.9750  -21.3725   21.4829 C   0  0  0  0  0  0  0  0  0  0  0  0
  -30.8993  -27.1013   19.3274 C   0  0  0  0  0  0  0  0  0  0  0  0
  -29.0106  -28.7170   18.7048 C   0  0  0  0  0  0  0  0  0  1  0  0
  -24.4858  -24.6304   24.9474 C   0  0  1  0  0  0  0  0  0  0  0  0
  -25.6822  -21.1730   23.9554 C   0  0  2  0  0  0  0  0  0  0  0  0
  -24.1843  -24.9711   26.4342 C   0  0  0  0  0  0  0  0  0  0  0  0
  -30.5342  -28.4608   18.6831 C   0  0  0  0  0  0  0  0  0  0  0  0
  -26.8046  -16.0763   18.1069 N   0  0  0  0  0  0  0  0  0  0  0  0
  -27.6416  -17.0641   18.4672 N   0  0  0  0  0  0  0  0  0  0  0  0
  -23.8157  -26.0478   23.0328 N   0  0  0  0  0  0  0  0  0  0  0  0
  -28.7114  -21.9314   17.1613 N   0  0  0  0  0  0  0  0  0  0  0  0
  -28.1971  -19.9150   15.9930 N   0  0  0  0  0  0  0  0  0  0  0  0
  -28.5815  -18.1504   20.3506 N   0  0  0  0  0  0  0  0  0  0  0  0
  -25.9354  -14.9847   22.1869 N   0  0  0  0  0  0  0  0  0  0  0  0
  -30.2499  -25.9804   18.6477 N   0  0  0  0  0  0  0  0  0  0  0  0
  -21.2173  -28.1721   23.3563 N   0  0  0  0  0  0  0  0  0  0  0  0
  -24.6288  -23.2037   24.6785 N   0  0  0  0  0  0  0  0  0  0  0  0
  -26.4393  -20.7430   22.7459 N   0  3  0  0  0  0  0  0  0  0  0  0
  -27.3733  -16.7093   22.6527 O   0  0  0  0  0  0  0  0  0  0  0  0
  -23.4052  -28.8742   22.9789 O   0  0  0  0  0  0  0  0  0  0  0  0
  -22.2559  -24.7176   24.1435 O   0  0  0  0  0  0  0  0  0  0  0  0
  -26.7798  -23.3210   23.8202 O   0  0  0  0  0  0  0  0  0  0  0  0
  -27.9732  -21.9687   14.9821 O   0  0  0  0  0  0  0  0  0  0  0  0
  -22.8002  -11.3028   19.4212 O   0  0  0  0  0  0  0  0  0  0  0  0
  -28.5131  -28.7161   20.0368 O   0  0  0  0  0  0  0  0  0  1  0  0
  -23.8708   -7.1608   22.9000 F   0  0  0  0  0  0  0  0  0  0  0  0
  -22.9835  -11.7484   22.1434 F   0  0  0  0  0  0  0  0  0  0  0  0
  -31.0356  -22.5218   20.2887 S   0  0  0  0  0  0  0  0  0  0  0  0
  1  2  1  0  0  0  0
  1  5  2  0  0  0  0
  2  6  2  0  0  0  0
  3  8  2  0  0  0  0
  3 16  1  0  0  0  0
  4  9  1  0  0  0  0
  4 16  2  0  0  0  0
  5 18  1  0  0  0  0
  6 20  1  0  0  0  0
  7 10  2  0  0  0  0
  7 19  1  0  0  0  0
  8 24  1  0  0  0  0
  9 24  2  0  0  0  0
 10 25  1  0  0  0  0
 11 12  2  0  0  0  0
 11 26  1  0  0  0  0
 12 27  1  0  0  0  0
 13 21  1  0  0  0  0
 13 25  2  0  0  0  0
 14 27  2  0  0  0  0
 14 28  1  0  0  0  0
 15 23  2  0  0  0  0
 15 84  1  0  0  0  0
 16 29  1  0  0  0  0
 17 29  1  0  0  0  0
 17 31  2  0  0  0  0
 17 32  1  0  0  0  0
 18 20  2  0  0  0  0
 18 37  1  0  0  0  0
 19 21  2  0  0  0  0
 19 38  1  0  0  0  0
 20 48  1  0  0  0  0
 21 39  1  0  0  0  0
 22 23  1  0  0  0  0
 22 30  2  0  0  0  0
 22 40  1  0  0  0  0
 23 71  1  0  0  0  0
 24 80  1  0  0  0  0
 25 81  1  0  0  0  0
 26 28  2  0  0  0  0
 26 80  1  0  0  0  0
 27 82  1  0  0  0  0
 28 83  1  0  0  0  0
 29 64  2  0  0  0  0
 30 41  1  0  0  0  0
 30 84  1  0  0  0  0
 31 65  1  0  0  0  0
 31 69  1  0  0  0  0
 32 70  1  0  0  0  0
 32 75  2  0  0  0  0
 33 49  1  0  0  0  0
 33 72  1  0  0  0  0
 33 76  2  0  0  0  0
 34 60  1  0  0  0  0
 34 66  1  0  0  0  0
 34 77  2  0  0  0  0
 35 61  1  0  0  0  0
 35 73  1  0  0  0  0
 35 78  2  0  0  0  0
 36 67  1  0  0  0  0
 36 68  1  0  0  0  0
 36 79  2  0  0  0  0
 37 42  1  0  0  0  0
 38 49  1  0  0  0  0
 39 66  1  0  0  0  0
 40 67  1  0  0  0  0
 41 67  1  0  0  0  0
 42 44  1  0  0  0  0
 43 45  1  0  0  0  0
 43 46  1  0  0  0  0
 44 48  1  0  0  0  0
 45 50  1  0  0  0  0
 46 68  1  0  0  0  0
 47 50  1  0  0  0  0
 47 68  1  0  0  0  0
 48 72  1  0  0  0  0
 49 66  1  0  0  0  0
 50 65  1  0  0  0  0
 51 61  1  0  0  0  0
 52 62  1  0  0  0  0
 53 62  1  0  0  0  0
 54 62  1  0  0  0  0
 55 63  1  0  0  0  0
 56 63  1  0  0  0  0
 57 74  1  0  0  0  0
 58 63  1  0  0  0  0
 58 71  1  0  0  0  0
 59 63  1  0  0  0  0
 59 81  1  0  0  0  0
 60 62  1  0  0  0  0
 60 73  1  0  0  0  0
 61 74  1  0  0  0  0
 64 65  1  0  0  0  0
M  CHG  1  74   1
M  ISO  4  36 100  59 101  67 100  81 101
M  END
> <Batch ID>
0153

> <Smiles>
CNC(C)C(=O)NC(C(=O)N1Cc2cc([101O:1][101CH2:1]C(C)(C)CNc3csc4c3C[100N:0]([100C:0](=O)N3CCCC(n5nc(-c6ccc(Oc7ccc(F)cc7F)cc6)c(C(N)=O)c5N)C3)C4)ccc2CC1C(=O)NC1CCCc2ccccc21)C(C)(C)C

> <Shape>
0.202

> <Color>
0.072

> <Negative vol penalty>
0.000

$$$$

  -OEChem-04052303303D

 87 96  0     1  0  0  0  0  0999 V2000
  -27.7026  -28.5799   12.0781 C   0  0  0  0  0  0  0  0  0  0  0  0
  -26.9764  -29.3911   12.9441 C   0  0  0  0  0  0  0  0  0  0  0  0
  -26.5407  -17.8340   20.8892 C   0  0  0  0  0  0  0  0  0  0  0  0
  -26.6799  -18.3020   18.5231 C   0  0  0  0  0  0  0  0  0  0  0  0
  -27.8334  -27.2179   12.3456 C   0  0  0  0  0  0  0  0  0  0  0  0
  -26.3796  -28.8404   14.0777 C   0  0  0  0  0  0  0  0  0  0  0  0
  -24.6796  -30.4716   20.8427 C   0  0  0  0  0  0  0  0  0  0  0  0
  -27.9329  -17.7892   20.9623 C   0  0  0  0  0  0  0  0  0  0  0  0
  -28.0721  -18.2572   18.5961 C   0  0  0  0  0  0  0  0  0  0  0  0
  -23.5904  -30.4577   21.7129 C   0  0  0  0  0  0  0  0  0  0  0  0
  -31.4439  -17.1955   21.6999 C   0  0  0  0  0  0  0  0  0  0  0  0
  -32.0238  -16.1506   22.4191 C   0  0  0  0  0  0  0  0  0  0  0  0
  -19.2104  -24.9410   22.0998 C   0  0  0  0  0  0  0  0  0  0  0  0
  -23.9499  -28.1066   22.1157 C   0  0  0  0  0  0  0  0  0  0  0  0
  -30.9791  -14.5521   20.9390 C   0  0  0  0  0  0  0  0  0  0  0  0
  -25.9142  -18.0904   19.6696 C   0  0  0  0  0  0  0  0  0  0  0  0
  -19.0202  -25.4509   23.4166 C   0  0  0  0  0  0  0  0  0  0  0  0
  -23.5747  -17.1017   19.9081 C   0  0  0  0  0  0  0  0  0  0  0  0
  -27.2461  -26.6520   13.4882 C   0  0  0  0  0  0  0  0  0  0  0  0
  -25.4067  -29.2987   20.5937 C   0  0  0  0  0  0  0  0  0  0  0  0
  -26.5015  -27.4692   14.3600 C   0  0  0  0  0  0  0  0  0  0  0  0
  -25.0495  -28.1089   21.2440 C   0  0  0  0  0  0  0  0  0  0  0  0
  -28.6986  -18.0008   19.8158 C   0  0  0  0  0  0  0  0  0  0  0  0
  -23.2236  -29.2745   22.3473 C   0  0  0  0  0  0  0  0  0  0  0  0
  -30.6315  -16.9188   20.6002 C   0  0  0  0  0  0  0  0  0  0  0  0
  -31.7915  -14.8289   22.0387 C   0  0  0  0  0  0  0  0  0  0  0  0
  -30.3992  -15.5971   20.2198 C   0  0  0  0  0  0  0  0  0  0  0  0
  -24.4761  -18.1363   19.5934 C   0  0  0  0  0  0  0  0  0  0  0  0
  -22.3347  -17.6429   19.6715 C   0  0  0  0  0  0  0  0  0  0  0  0
  -20.1514  -23.9355   22.0652 C   0  0  0  0  0  0  0  0  0  0  0  0
  -19.8229  -24.8155   24.3385 C   0  0  0  0  0  0  0  0  0  0  0  0
  -18.0707  -26.5321   23.7355 C   0  0  0  0  0  0  0  0  0  0  0  0
  -23.8350  -15.7705   20.3727 C   0  0  0  0  0  0  0  0  0  0  0  0
  -25.9971  -27.5293   18.0199 C   0  0  0  0  0  0  0  0  0  0  0  0
  -27.9552  -25.9271   20.0500 C   0  0  0  0  0  0  0  0  0  0  0  0
  -27.8331  -24.7766   23.4674 C   0  0  0  0  0  0  0  0  0  0  0  0
  -20.2649  -23.2484   19.6442 C   0  0  0  0  0  0  0  0  0  0  0  0
  -27.3752  -25.1658   13.7104 C   0  0  0  0  0  0  0  0  0  0  0  0
  -26.5955  -29.3363   19.6730 C   0  0  0  0  0  0  0  0  0  0  0  0
  -25.8099  -26.8271   21.0263 C   0  0  0  0  0  0  0  0  0  0  0  0
  -27.0270  -24.7299   15.1313 C   0  0  0  0  0  0  0  0  0  0  0  0
  -20.1336  -20.9168   16.9565 C   0  0  0  0  0  0  0  0  0  0  0  0
  -17.2855  -29.9234   23.5783 C   0  0  0  0  0  0  0  0  0  0  0  0
  -25.7277  -25.3860   15.5877 C   0  0  0  0  0  0  0  0  0  0  0  0
  -21.1458  -19.8419   17.3593 C   0  0  0  0  0  0  0  0  0  0  0  0
  -18.6195  -30.5390   23.1549 C   0  0  0  0  0  0  0  0  0  0  0  0
  -17.0551  -28.5846   22.8935 C   0  0  0  0  0  0  0  0  0  0  0  0
  -20.5969  -22.3138   17.3657 C   0  0  0  0  0  0  0  0  0  0  0  0
  -21.9741  -21.3823   19.1836 C   0  0  0  0  0  0  0  0  0  0  0  0
  -19.5503  -28.2136   22.7578 C   0  0  0  0  0  0  0  0  0  0  0  0
  -25.8603  -26.9135   15.6131 C   0  0  1  0  0  0  0  0  0  0  0  0
  -26.9485  -27.9686   19.0968 C   0  0  1  0  0  0  0  0  0  0  0  0
  -21.5210  -19.9515   18.8502 C   0  0  2  0  0  0  0  0  0  0  0  0
  -19.7877  -29.5780   23.4043 C   0  0  1  0  0  0  0  0  0  0  0  0
  -29.6797  -24.3499   25.1122 C   0  0  0  0  0  0  0  0  0  0  0  0
  -27.7910  -23.0500   19.0476 C   0  0  0  0  0  0  0  0  0  0  0  0
  -28.1837  -22.2823   21.3981 C   0  0  0  0  0  0  0  0  0  0  0  0
  -29.9237  -23.6262   20.2196 C   0  0  0  0  0  0  0  0  0  0  0  0
  -26.6263  -26.5915   25.4696 C   0  0  0  0  0  0  0  0  0  0  0  0
  -21.1055  -30.1825   22.9346 C   0  0  0  0  0  0  0  0  0  1  0  0
  -27.7952  -24.7543   20.9870 C   0  0  1  0  0  0  0  0  0  0  0  0
  -28.6182  -25.3321   24.6419 C   0  0  2  0  0  0  0  0  0  0  0  0
  -28.4016  -23.4454   20.4069 C   0  0  0  0  0  0  0  0  0  0  0  0
  -23.8611  -19.2504   19.1877 N   0  0  0  0  0  0  0  0  0  0  0  0
  -22.5600  -18.9189   19.2458 N   0  0  0  0  0  0  0  0  0  0  0  0
  -18.2177  -27.7184   23.1615 N   0  0  0  0  0  0  0  0  0  0  0  0
  -26.9607  -26.9135   20.1121 N   0  0  0  0  0  0  0  0  0  0  0  0
  -20.9309  -22.3428   18.7914 N   0  0  0  0  0  0  0  0  0  0  0  0
  -21.0845  -17.1470   19.7881 N   0  0  0  0  0  0  0  0  0  0  0  0
  -19.8861  -25.0605   25.6723 N   0  0  0  0  0  0  0  0  0  0  0  0
  -25.1669  -15.3776   20.5627 N   0  0  0  0  0  0  0  0  0  0  0  0
  -20.6421  -23.1623   20.9840 N   0  0  0  0  0  0  0  0  0  0  0  0
  -26.5919  -27.3379   16.7875 N   0  0  0  0  0  0  0  0  0  0  0  0
  -28.3739  -25.1677   22.2608 N   0  0  0  0  0  0  0  0  0  0  0  0
  -17.0806  -26.3005   24.5924 N   0  3  0  0  0  0  0  0  0  0  0  0
  -27.7060  -25.6209   25.7845 N   0  3  0  0  0  0  0  0  0  0  0  0
  -22.9145  -14.9483   20.5966 O   0  0  0  0  0  0  0  0  0  0  0  0
  -24.8114  -27.3741   18.2878 O   0  0  0  0  0  0  0  0  0  0  0  0
  -28.9305  -25.9701   19.2960 O   0  0  0  0  0  0  0  0  0  0  0  0
  -26.8417  -24.0637   23.6064 O   0  0  0  0  0  0  0  0  0  0  0  0
  -19.4026  -24.0230   19.2220 O   0  0  0  0  0  0  0  0  0  0  0  0
  -30.0572  -17.9574   19.8867 O   0  0  0  0  0  0  0  0  0  0  0  0
  -22.1605  -29.2580   23.1966 O   0  0  0  0  0  0  0  0  0  1  0  0
  -32.3497  -13.8255   22.7286 F   0  0  0  0  0  0  0  0  0  0  0  0
  -29.6206  -15.3251   19.1636 F   0  0  0  0  0  0  0  0  0  0  0  0
  -19.8906  -29.3849   24.7542 F   0  0  0  0  0  0  0  0  0  0  0  0
  -20.8009  -23.6098   23.6159 S   0  0  0  0  0  0  0  0  0  0  0  0
  1  2  1  0  0  0  0
  1  5  2  0  0  0  0
  2  6  2  0  0  0  0
  3  8  2  0  0  0  0
  3 16  1  0  0  0  0
  4  9  1  0  0  0  0
  4 16  2  0  0  0  0
  5 19  1  0  0  0  0
  6 21  1  0  0  0  0
  7 10  2  0  0  0  0
  7 20  1  0  0  0  0
  8 23  1  0  0  0  0
  9 23  2  0  0  0  0
 10 24  1  0  0  0  0
 11 12  2  0  0  0  0
 11 25  1  0  0  0  0
 12 26  1  0  0  0  0
 13 17  1  0  0  0  0
 13 30  2  0  0  0  0
 14 22  1  0  0  0  0
 14 24  2  0  0  0  0
 15 26  2  0  0  0  0
 15 27  1  0  0  0  0
 16 28  1  0  0  0  0
 17 31  2  0  0  0  0
 17 32  1  0  0  0  0
 18 28  1  0  0  0  0
 18 29  2  0  0  0  0
 18 33  1  0  0  0  0
 19 21  2  0  0  0  0
 19 38  1  0  0  0  0
 20 22  2  0  0  0  0
 20 39  1  0  0  0  0
 21 51  1  0  0  0  0
 22 40  1  0  0  0  0
 23 82  1  0  0  0  0
 24 83  1  0  0  0  0
 25 27  2  0  0  0  0
 25 82  1  0  0  0  0
 26 84  1  0  0  0  0
 27 85  1  0  0  0  0
 28 64  2  0  0  0  0
 29 65  1  0  0  0  0
 29 69  1  0  0  0  0
 30 72  1  0  0  0  0
 30 87  1  0  0  0  0
 31 70  1  0  0  0  0
 31 87  1  0  0  0  0
 32 66  1  0  0  0  0
 32 75  2  0  0  0  0
 33 71  1  0  0  0  0
 33 77  2  0  0  0  0
 34 52  1  0  0  0  0
 34 73  1  0  0  0  0
 34 78  2  0  0  0  0
 35 61  1  0  0  0  0
 35 67  1  0  0  0  0
 35 79  2  0  0  0  0
 36 62  1  0  0  0  0
 36 74  1  0  0  0  0
 36 80  2  0  0  0  0
 37 68  1  0  0  0  0
 37 72  1  0  0  0  0
 37 81  2  0  0  0  0
 38 41  1  0  0  0  0
 39 52  1  0  0  0  0
 40 67  1  0  0  0  0
 41 44  1  0  0  0  0
 42 45  1  0  0  0  0
 42 48  1  0  0  0  0
 43 46  1  0  0  0  0
 43 47  1  0  0  0  0
 44 51  1  0  0  0  0
 45 53  1  0  0  0  0
 46 54  1  0  0  0  0
 47 66  1  0  0  0  0
 48 68  1  0  0  0  0
 49 53  1  0  0  0  0
 49 68  1  0  0  0  0
 50 54  1  0  0  0  0
 50 66  1  0  0  0  0
 51 73  1  0  0  0  0
 52 67  1  0  0  0  0
 53 65  1  0  0  0  0
 54 60  1  0  0  0  0
 54 86  1  0  0  0  0
 55 62  1  0  0  0  0
 56 63  1  0  0  0  0
 57 63  1  0  0  0  0
 58 63  1  0  0  0  0
 59 76  1  0  0  0  0
 60 83  1  0  0  0  0
 61 63  1  0  0  0  0
 61 74  1  0  0  0  0
 62 76  1  0  0  0  0
 64 65  1  0  0  0  0
M  CHG  2  75   1  76   1
M  ISO  4  37 100  60 101  72 100  83 101
M  END
> <Batch ID>
0153

> <Smiles>
CNC(C)C(=O)NC(C(=O)N1Cc2cc([101O:1][101CH2:1]C3(F)CCCN(C(=N)c4cc([100NH:0][100C:0](=O)N5CCCC(n6nc(-c7ccc(Oc8ccc(F)cc8F)cc7)c(C(N)=O)c6N)C5)sc4N)C3)ccc2CC1C(=O)NC1CCCc2ccccc21)C(C)(C)C

> <Shape>
0.193

> <Color>
0.087

> <Negative vol penalty>
0.000

$$$$

  -OEChem-04052303303D

 85 94  0     1  0  0  0  0  0999 V2000
  -30.4244  -34.7431   22.5430 C   0  0  0  0  0  0  0  0  0  0  0  0
  -30.3614  -34.0514   21.3376 C   0  0  0  0  0  0  0  0  0  0  0  0
  -23.7642   -9.6007   20.0019 C   0  0  0  0  0  0  0  0  0  0  0  0
  -23.3444  -10.0497   22.3383 C   0  0  0  0  0  0  0  0  0  0  0  0
  -29.9006  -34.1714   23.7017 C   0  0  0  0  0  0  0  0  0  0  0  0
  -29.7754  -32.7869   21.2905 C   0  0  0  0  0  0  0  0  0  0  0  0
  -25.9764  -28.5531   16.9364 C   0  0  0  0  0  0  0  0  0  0  0  0
  -22.9226   -8.4901   20.0640 C   0  0  0  0  0  0  0  0  0  0  0  0
  -22.5027   -8.9391   22.4005 C   0  0  0  0  0  0  0  0  0  0  0  0
  -25.9925  -27.2653   16.4025 C   0  0  0  0  0  0  0  0  0  0  0  0
  -22.8217   -5.5818   22.6407 C   0  0  0  0  0  0  0  0  0  0  0  0
  -22.9598   -4.7244   23.7321 C   0  0  0  0  0  0  0  0  0  0  0  0
  -25.0495  -26.4105   18.4518 C   0  0  0  0  0  0  0  0  0  0  0  0
  -20.6666   -5.1539   24.3598 C   0  0  0  0  0  0  0  0  0  0  0  0
  -23.9751  -10.3805   21.1390 C   0  0  0  0  0  0  0  0  0  0  0  0
  -26.2118  -11.5403   20.7392 C   0  0  0  0  0  0  0  0  0  0  0  0
  -29.2992  -32.9034   23.6669 C   0  0  0  0  0  0  0  0  0  0  0  0
  -25.5060  -28.7781   18.2382 C   0  0  0  0  0  0  0  0  0  0  0  0
  -29.2442  -32.1972   22.4501 C   0  0  0  0  0  0  0  0  0  0  0  0
  -25.0261  -27.7025   18.9989 C   0  0  0  0  0  0  0  0  0  0  0  0
  -22.2918   -8.1593   21.2634 C   0  0  0  0  0  0  0  0  0  0  0  0
  -25.5318  -26.1933   17.1613 C   0  0  0  0  0  0  0  0  0  0  0  0
  -21.6061   -6.2254   22.4088 C   0  0  0  0  0  0  0  0  0  0  0  0
  -21.8823   -4.5103   24.5917 C   0  0  0  0  0  0  0  0  0  0  0  0
  -20.5285   -6.0114   23.2683 C   0  0  0  0  0  0  0  0  0  0  0  0
  -24.8449  -11.5275   21.0756 C   0  0  0  0  0  0  0  0  0  0  0  0
  -26.5739  -12.8625   20.8242 C   0  0  0  0  0  0  0  0  0  0  0  0
  -28.9519  -20.1244   16.1770 C   0  0  0  0  0  0  0  0  0  0  0  0
  -25.3368  -22.8890   13.8636 C   0  0  0  0  0  0  0  0  0  0  0  0
  -26.0309  -23.3400   14.9225 C   0  0  0  0  0  0  0  0  0  0  0  0
  -27.6156  -20.1422   16.0754 C   0  0  0  0  0  0  0  0  0  0  0  0
  -29.6012  -19.1789   17.1179 C   0  0  0  0  0  0  0  0  0  0  0  0
  -27.0768  -10.4542   20.3817 C   0  0  0  0  0  0  0  0  0  0  0  0
  -26.7854  -29.9006   20.9228 C   0  0  0  0  0  0  0  0  0  0  0  0
  -23.7367  -29.6795   22.0084 C   0  0  0  0  0  0  0  0  0  0  0  0
  -20.6605  -28.2279   21.7309 C   0  0  0  0  0  0  0  0  0  0  0  0
  -25.5729  -18.2578   19.8076 C   0  0  0  0  0  0  0  0  0  0  0  0
  -28.7892  -32.3063   24.9545 C   0  0  0  0  0  0  0  0  0  0  0  0
  -25.4703  -30.1771   18.7897 C   0  0  0  0  0  0  0  0  0  0  0  0
  -24.4921  -27.8937   20.3941 C   0  0  0  0  0  0  0  0  0  0  0  0
  -25.2853  -21.4403   13.4695 C   0  0  0  0  0  0  0  0  0  0  0  0
  -26.8421  -22.4013   15.7759 C   0  0  0  0  0  0  0  0  0  0  0  0
  -26.6928  -19.2971   16.9080 C   0  0  0  0  0  0  0  0  0  0  0  0
  -28.7380  -18.1950   17.8836 C   0  0  0  0  0  0  0  0  0  0  0  0
  -27.8493  -31.1216   24.7462 C   0  0  0  0  0  0  0  0  0  0  0  0
  -24.0900  -16.8411   22.7181 C   0  0  0  0  0  0  0  0  0  0  0  0
  -28.4289  -30.1546   23.7186 C   0  0  0  0  0  0  0  0  0  0  0  0
  -24.2614  -15.3341   22.5193 C   0  0  0  0  0  0  0  0  0  0  0  0
  -23.8083  -17.5560   21.3984 C   0  0  0  0  0  0  0  0  0  0  0  0
  -24.9606  -15.7845   20.1304 C   0  0  0  0  0  0  0  0  0  0  0  0
  -25.7917  -20.4866   14.5515 C   0  0  0  0  0  0  0  0  0  0  0  0
  -28.5942  -30.8340   22.3538 C   0  0  1  0  0  0  0  0  0  0  0  0
  -25.4486  -30.2178   20.3146 C   0  0  1  0  0  0  0  0  0  0  0  0
  -25.3018  -15.0276   21.4254 C   0  0  2  0  0  0  0  0  0  0  0  0
  -27.3723  -18.8028   18.1877 C   0  0  2  0  0  0  0  0  0  0  0  0
  -18.3823  -28.2233   22.7831 C   0  0  0  0  0  0  0  0  0  0  0  0
  -24.8181  -28.0306   24.3369 C   0  0  0  0  0  0  0  0  0  0  0  0
  -22.4764  -27.2743   24.7979 C   0  0  0  0  0  0  0  0  0  0  0  0
  -23.0593  -29.6940   24.9646 C   0  0  0  0  0  0  0  0  0  0  0  0
  -19.3731  -29.1294   19.2231 C   0  0  0  0  0  0  0  0  0  0  0  0
  -26.0485  -24.7859   15.3152 C   0  0  0  0  0  0  0  0  0  1  0  0
  -22.9184  -28.6072   22.6863 C   0  0  1  0  0  0  0  0  0  0  0  0
  -19.2647  -28.8238   21.6997 C   0  0  2  0  0  0  0  0  0  0  0  0
  -23.3298  -28.3973   24.1709 C   0  0  0  0  0  0  0  0  0  0  0  0
  -24.3709  -12.7449   21.3538 N   0  0  0  0  0  0  0  0  0  0  0  0
  -30.8896  -19.1660   17.2493 N   0  0  0  0  0  0  0  0  0  0  0  0
  -25.4460  -13.5350   21.1924 N   0  0  0  0  0  0  0  0  0  0  0  0
  -24.4836  -29.2794   20.8913 N   0  0  0  0  0  0  0  0  0  0  0  0
  -24.8322  -17.2243   20.4045 N   0  0  0  0  0  0  0  0  0  0  0  0
  -27.7441  -13.5037   20.6194 N   0  0  0  0  0  0  0  0  0  0  0  0
  -27.7733   -9.7913   21.4013 N   0  0  0  0  0  0  0  0  0  0  0  0
  -27.3179  -30.9279   21.6781 N   0  0  0  0  0  0  0  0  0  0  0  0
  -21.5207  -28.9819   22.5009 N   0  0  0  0  0  0  0  0  0  0  0  0
  -26.5274  -17.8562   18.8812 N   0  0  0  0  0  0  0  0  0  0  0  0
  -27.0601  -21.0473   15.1337 N   0  3  2  0  0  0  0  0  0  0  0  0
  -18.6234  -28.5721   20.3782 N   0  3  0  0  0  0  0  0  0  0  0  0
  -27.2402  -10.0932   19.1915 O   0  0  0  0  0  0  0  0  0  0  0  0
  -27.2953  -28.8043   20.7229 O   0  0  0  0  0  0  0  0  0  0  0  0
  -23.7085  -30.8311   22.4494 O   0  0  0  0  0  0  0  0  0  0  0  0
  -20.9572  -27.1947   21.1350 O   0  0  0  0  0  0  0  0  0  0  0  0
  -25.4003  -19.4497   20.0841 O   0  0  0  0  0  0  0  0  0  0  0  0
  -21.4703   -7.0758   21.3244 O   0  0  0  0  0  0  0  0  0  0  0  0
  -25.5470  -24.9352   16.6428 O   0  0  0  0  0  0  0  0  0  1  0  0
  -22.0146   -3.6857   25.6388 F   0  0  0  0  0  0  0  0  0  0  0  0
  -19.3579   -6.6260   23.0500 F   0  0  0  0  0  0  0  0  0  0  0  0
  1  2  1  0  0  0  0
  1  5  2  0  0  0  0
  2  6  2  0  0  0  0
  3  8  2  0  0  0  0
  3 15  1  0  0  0  0
  4  9  1  0  0  0  0
  4 15  2  0  0  0  0
  5 17  1  0  0  0  0
  6 19  1  0  0  0  0
  7 10  2  0  0  0  0
  7 18  1  0  0  0  0
  8 21  1  0  0  0  0
  9 21  2  0  0  0  0
 10 22  1  0  0  0  0
 11 12  2  0  0  0  0
 11 23  1  0  0  0  0
 12 24  1  0  0  0  0
 13 20  1  0  0  0  0
 13 22  2  0  0  0  0
 14 24  2  0  0  0  0
 14 25  1  0  0  0  0
 15 26  1  0  0  0  0
 16 26  1  0  0  0  0
 16 27  2  0  0  0  0
 16 33  1  0  0  0  0
 17 19  2  0  0  0  0
 17 38  1  0  0  0  0
 18 20  2  0  0  0  0
 18 39  1  0  0  0  0
 19 52  1  0  0  0  0
 20 40  1  0  0  0  0
 21 82  1  0  0  0  0
 22 83  1  0  0  0  0
 23 25  2  0  0  0  0
 23 82  1  0  0  0  0
 24 84  1  0  0  0  0
 25 85  1  0  0  0  0
 26 65  2  0  0  0  0
 27 67  1  0  0  0  0
 27 70  1  0  0  0  0
 28 31  2  0  0  0  0
 28 32  1  0  0  0  0
 29 30  2  0  0  0  0
 29 41  1  0  0  0  0
 30 42  1  0  0  0  0
 30 61  1  0  0  0  0
 31 43  1  0  0  0  0
 31 75  1  0  0  0  0
 32 44  1  0  0  0  0
 32 66  2  0  0  0  0
 33 71  1  0  0  0  0
 33 77  2  0  0  0  0
 34 53  1  0  0  0  0
 34 72  1  0  0  0  0
 34 78  2  0  0  0  0
 35 62  1  0  0  0  0
 35 68  1  0  0  0  0
 35 79  2  0  0  0  0
 36 63  1  0  0  0  0
 36 73  1  0  0  0  0
 36 80  2  0  0  0  0
 37 69  1  0  0  0  0
 37 74  1  0  0  0  0
 37 81  2  0  0  0  0
 38 45  1  0  0  0  0
 39 53  1  0  0  0  0
 40 68  1  0  0  0  0
 41 51  1  0  0  0  0
 42 75  1  0  0  0  0
 43 55  1  0  0  0  0
 44 55  1  0  0  0  0
 45 47  1  0  0  0  0
 46 48  1  0  0  0  0
 46 49  1  0  0  0  0
 47 52  1  0  0  0  0
 48 54  1  0  0  0  0
 49 69  1  0  0  0  0
 50 54  1  0  0  0  0
 50 69  1  0  0  0  0
 51 75  1  0  0  0  0
 52 72  1  0  0  0  0
 53 68  1  0  0  0  0
 54 67  1  0  0  0  0
 55 74  1  0  0  0  0
 56 63  1  0  0  0  0
 57 64  1  0  0  0  0
 58 64  1  0  0  0  0
 59 64  1  0  0  0  0
 60 76  1  0  0  0  0
 61 83  1  0  0  0  0
 62 64  1  0  0  0  0
 62 73  1  0  0  0  0
 63 76  1  0  0  0  0
 65 67  1  0  0  0  0
M  CHG  2  75   1  76   1
M  ISO  4  37 100  61 101  74 100  83 101
M  END
> <Batch ID>
0153

> <Smiles>
CNC(C)C(=O)NC(C(=O)N1Cc2cc([101O:1][101CH2:1]C3=CCCN(C4=CC(N)=CC([100NH:0][100C:0](=O)N5CCCC(n6nc(-c7ccc(Oc8ccc(F)cc8F)cc7)c(C(N)=O)c6N)C5)C4)C3)ccc2CC1C(=O)NC1CCCc2ccccc21)C(C)(C)C

> <Shape>
0.229

> <Color>
0.088

> <Negative vol penalty>
0.000

$$$$

  -OEChem-04052303303D

 82 90  0     1  0  0  0  0  0999 V2000
  -25.1748  -35.7323   19.8625 C   0  0  0  0  0  0  0  0  0  0  0  0
  -25.9085  -34.5596   20.0104 C   0  0  0  0  0  0  0  0  0  0  0  0
  -24.6074  -10.0255   22.1449 C   0  0  0  0  0  0  0  0  0  0  0  0
  -24.6460  -11.4519   24.0944 C   0  0  0  0  0  0  0  0  0  0  0  0
  -24.0810  -35.9780   20.6915 C   0  0  0  0  0  0  0  0  0  0  0  0
  -25.5496  -33.6324   20.9881 C   0  0  0  0  0  0  0  0  0  0  0  0
  -25.5897  -28.8726   19.2596 C   0  0  0  0  0  0  0  0  0  0  0  0
  -24.2546   -8.9397   22.9462 C   0  0  0  0  0  0  0  0  0  0  0  0
  -24.2931  -10.3662   24.8958 C   0  0  0  0  0  0  0  0  0  0  0  0
  -26.8313  -28.2506   19.1359 C   0  0  0  0  0  0  0  0  0  0  0  0
  -21.4627   -7.7435   24.4320 C   0  0  0  0  0  0  0  0  0  0  0  0
  -20.4386   -6.9108   23.9812 C   0  0  0  0  0  0  0  0  0  0  0  0
  -26.4551  -27.0981   21.2214 C   0  0  0  0  0  0  0  0  0  0  0  0
  -29.5090  -20.4437   19.8536 C   0  0  0  0  0  0  0  0  0  0  0  0
  -21.9636   -5.0369   23.9778 C   0  0  0  0  0  0  0  0  0  0  0  0
  -27.2772  -20.3594   20.4971 C   0  0  0  0  0  0  0  0  0  0  0  0
  -24.8031  -11.2816   22.7189 C   0  0  0  0  0  0  0  0  0  0  0  0
  -24.2981  -13.3049   21.2496 C   0  0  0  0  0  0  0  0  0  0  0  0
  -23.7025  -35.0489   21.6734 C   0  0  0  0  0  0  0  0  0  0  0  0
  -24.7748  -28.6199   20.3725 C   0  0  0  0  0  0  0  0  0  0  0  0
  -24.4505  -33.8666   21.8318 C   0  0  0  0  0  0  0  0  0  0  0  0
  -25.2025  -27.7162   21.3556 C   0  0  0  0  0  0  0  0  0  0  0  0
  -28.4367  -19.6349   20.3292 C   0  0  0  0  0  0  0  0  0  0  0  0
  -24.0974   -9.1100   24.3217 C   0  0  0  0  0  0  0  0  0  0  0  0
  -27.2654  -27.3654   20.1183 C   0  0  0  0  0  0  0  0  0  0  0  0
  -22.7374   -7.2230   24.6557 C   0  0  0  0  0  0  0  0  0  0  0  0
  -20.6890   -5.5575   23.7541 C   0  0  0  0  0  0  0  0  0  0  0  0
  -22.9878   -5.8697   24.4286 C   0  0  0  0  0  0  0  0  0  0  0  0
  -25.1681  -12.4034   21.8917 C   0  0  0  0  0  0  0  0  0  0  0  0
  -29.1280  -21.7556   19.6759 C   0  0  0  0  0  0  0  0  0  0  0  0
  -25.1312  -14.1787   20.5948 C   0  0  0  0  0  0  0  0  0  0  0  0
  -22.8650  -13.3485   21.2455 C   0  0  0  0  0  0  0  0  0  0  0  0
  -29.9364  -22.8999   19.2023 C   0  0  0  0  0  0  0  0  0  0  0  0
  -23.5940  -30.3877   22.7356 C   0  0  0  0  0  0  0  0  0  0  0  0
  -22.0189  -27.6499   23.4744 C   0  0  0  0  0  0  0  0  0  0  0  0
  -29.8248  -25.3145   18.6894 C   0  0  0  0  0  0  0  0  0  0  0  0
  -21.8791  -24.2455   23.2810 C   0  0  0  0  0  0  0  0  0  0  0  0
  -29.6490  -17.4308   20.4656 C   0  0  0  0  0  0  0  0  0  0  0  0
  -22.5415  -35.3802   22.5772 C   0  0  0  0  0  0  0  0  0  0  0  0
  -23.4266  -29.2785   20.4779 C   0  0  0  0  0  0  0  0  0  0  0  0
  -24.3564  -27.3954   22.5597 C   0  0  0  0  0  0  0  0  0  0  0  0
  -21.9997  -34.1739   23.3398 C   0  0  0  0  0  0  0  0  0  0  0  0
  -30.1191  -13.9733   19.7575 C   0  0  0  0  0  0  0  0  0  0  0  0
  -23.1437  -33.3712   23.9514 C   0  0  0  0  0  0  0  0  0  0  0  0
  -28.8014  -13.3308   20.1968 C   0  0  0  0  0  0  0  0  0  0  0  0
  -30.5288  -15.1171   20.6835 C   0  0  0  0  0  0  0  0  0  0  0  0
  -28.1836  -15.5026   21.3318 C   0  0  0  0  0  0  0  0  0  0  0  0
  -24.0772  -32.8251   22.8643 C   0  0  1  0  0  0  0  0  0  0  0  0
  -22.9023  -29.3408   21.9091 C   0  0  1  0  0  0  0  0  0  0  0  0
  -27.6966  -14.3877   20.3919 C   0  0  2  0  0  0  0  0  0  0  0  0
  -20.4932  -22.2860   24.0140 C   0  0  0  0  0  0  0  0  0  0  0  0
  -23.1520  -27.9070   26.2957 C   0  0  0  0  0  0  0  0  0  0  0  0
  -22.5451  -25.5091   26.6829 C   0  0  0  0  0  0  0  0  0  0  0  0
  -20.7606  -27.1822   26.1940 C   0  0  0  0  0  0  0  0  0  0  0  0
  -21.3254  -23.4437   20.4864 C   0  0  0  0  0  0  0  0  0  0  0  0
  -28.9538  -26.5103   18.6782 C   0  0  0  0  0  0  0  0  0  1  0  0
  -22.3127  -26.4473   24.3384 C   0  0  1  0  0  0  0  0  0  0  0  0
  -20.7475  -23.3032   22.9123 C   0  0  2  0  0  0  0  0  0  0  0  0
  -22.2097  -26.7687   25.8562 C   0  0  0  0  0  0  0  0  0  0  0  0
  -26.4553  -12.6791   21.6652 N   0  0  0  0  0  0  0  0  0  0  0  0
  -26.4002  -13.7635   20.8733 N   0  0  0  0  0  0  0  0  0  0  0  0
  -23.0490  -28.0694   22.6206 N   0  0  0  0  0  0  0  0  0  0  0  0
  -29.4347  -16.0813   20.8174 N   0  0  0  0  0  0  0  0  0  0  0  0
  -24.8948  -15.2540   19.8136 N   0  0  0  0  0  0  0  0  0  0  0  0
  -22.1649  -12.3748   21.9708 N   0  0  0  0  0  0  0  0  0  0  0  0
  -28.5273  -18.2477   20.6037 N   0  0  0  0  0  0  0  0  0  0  0  0
  -29.2684  -24.1765   19.1123 N   0  0  0  0  0  0  0  0  0  0  0  0
  -23.4874  -31.6678   22.2262 N   0  0  0  0  0  0  0  0  0  0  0  0
  -21.4118  -25.3916   23.8887 N   0  0  0  0  0  0  0  0  0  0  0  0
  -31.0767  -25.4895   18.2836 N   0  3  0  0  0  0  0  0  0  0  0  0
  -21.0744  -22.5664   21.6588 N   0  3  0  0  0  0  0  0  0  0  0  0
  -22.2241  -14.2151   20.6039 O   0  0  0  0  0  0  0  0  0  0  0  0
  -31.1095  -22.7759   18.8813 O   0  0  0  0  0  0  0  0  0  0  0  0
  -24.1798  -30.0587   23.7605 O   0  0  0  0  0  0  0  0  0  0  0  0
  -20.9137  -28.1925   23.5489 O   0  0  0  0  0  0  0  0  0  0  0  0
  -23.0598  -23.9887   23.0560 O   0  0  0  0  0  0  0  0  0  0  0  0
  -30.7392  -17.8266   20.0451 O   0  0  0  0  0  0  0  0  0  0  0  0
  -23.7529   -8.0508   25.1040 O   0  0  0  0  0  0  0  0  0  0  0  0
  -28.4772  -26.7575   20.0003 O   0  0  0  0  0  0  0  0  0  1  0  0
  -19.7050   -4.7576   23.3227 F   0  0  0  0  0  0  0  0  0  0  0  0
  -24.2100   -5.3636   24.6429 F   0  0  0  0  0  0  0  0  0  0  0  0
  -27.4837  -22.0078   20.0820 S   0  0  0  0  0  0  0  0  0  0  0  0
  1  2  1  0  0  0  0
  1  5  2  0  0  0  0
  2  6  2  0  0  0  0
  3  8  2  0  0  0  0
  3 17  1  0  0  0  0
  4  9  1  0  0  0  0
  4 17  2  0  0  0  0
  5 19  1  0  0  0  0
  6 21  1  0  0  0  0
  7 10  2  0  0  0  0
  7 20  1  0  0  0  0
  8 24  1  0  0  0  0
  9 24  2  0  0  0  0
 10 25  1  0  0  0  0
 11 12  2  0  0  0  0
 11 26  1  0  0  0  0
 12 27  1  0  0  0  0
 13 22  1  0  0  0  0
 13 25  2  0  0  0  0
 14 23  1  0  0  0  0
 14 30  2  0  0  0  0
 15 27  2  0  0  0  0
 15 28  1  0  0  0  0
 16 23  2  0  0  0  0
 16 82  1  0  0  0  0
 17 29  1  0  0  0  0
 18 29  1  0  0  0  0
 18 31  2  0  0  0  0
 18 32  1  0  0  0  0
 19 21  2  0  0  0  0
 19 39  1  0  0  0  0
 20 22  2  0  0  0  0
 20 40  1  0  0  0  0
 21 48  1  0  0  0  0
 22 41  1  0  0  0  0
 23 66  1  0  0  0  0
 24 78  1  0  0  0  0
 25 79  1  0  0  0  0
 26 28  2  0  0  0  0
 26 78  1  0  0  0  0
 27 80  1  0  0  0  0
 28 81  1  0  0  0  0
 29 60  2  0  0  0  0
 30 33  1  0  0  0  0
 30 82  1  0  0  0  0
 31 61  1  0  0  0  0
 31 64  1  0  0  0  0
 32 65  1  0  0  0  0
 32 72  2  0  0  0  0
 33 67  1  0  0  0  0
 33 73  2  0  0  0  0
 34 49  1  0  0  0  0
 34 68  1  0  0  0  0
 34 74  2  0  0  0  0
 35 57  1  0  0  0  0
 35 62  1  0  0  0  0
 35 75  2  0  0  0  0
 36 56  1  0  0  0  0
 36 67  1  0  0  0  0
 36 70  2  0  0  0  0
 37 58  1  0  0  0  0
 37 69  1  0  0  0  0
 37 76  2  0  0  0  0
 38 63  1  0  0  0  0
 38 66  1  0  0  0  0
 38 77  2  0  0  0  0
 39 42  1  0  0  0  0
 40 49  1  0  0  0  0
 41 62  1  0  0  0  0
 42 44  1  0  0  0  0
 43 45  1  0  0  0  0
 43 46  1  0  0  0  0
 44 48  1  0  0  0  0
 45 50  1  0  0  0  0
 46 63  1  0  0  0  0
 47 50  1  0  0  0  0
 47 63  1  0  0  0  0
 48 68  1  0  0  0  0
 49 62  1  0  0  0  0
 50 61  1  0  0  0  0
 51 58  1  0  0  0  0
 52 59  1  0  0  0  0
 53 59  1  0  0  0  0
 54 59  1  0  0  0  0
 55 71  1  0  0  0  0
 56 79  1  0  0  0  0
 57 59  1  0  0  0  0
 57 69  1  0  0  0  0
 58 71  1  0  0  0  0
 60 61  1  0  0  0  0
M  CHG  2  70   1  71   1
M  ISO  4  38 100  56 101  66 100  79 101
M  END
> <Batch ID>
0153

> <Smiles>
CNC(C)C(=O)NC(C(=O)N1Cc2cc([101O:1][101CH2:1]C(=N)NC(=O)c3cc([100NH:0][100C:0](=O)N4CCCC(n5nc(-c6ccc(Oc7ccc(F)cc7F)cc6)c(C(N)=O)c5N)C4)cs3)ccc2CC1C(=O)NC1CCCc2ccccc21)C(C)(C)C

> <Shape>
0.278

> <Color>
0.126

> <Negative vol penalty>
0.000

$$$$

  -OEChem-04052303303D

 85 93  0     1  0  0  0  0  0999 V2000
  -28.4513  -26.6164   13.0286 C   0  0  0  0  0  0  0  0  0  0  0  0
  -27.5193  -26.1803   13.9648 C   0  0  0  0  0  0  0  0  0  0  0  0
  -27.6004  -12.1750   23.1487 C   0  0  0  0  0  0  0  0  0  0  0  0
  -26.3413  -12.8537   21.2017 C   0  0  0  0  0  0  0  0  0  0  0  0
  -25.6711  -21.3164   17.7780 C   0  0  0  0  0  0  0  0  0  0  0  0
  -29.7046  -27.0597   13.4487 C   0  0  0  0  0  0  0  0  0  0  0  0
  -27.8405  -26.1861   15.3217 C   0  0  0  0  0  0  0  0  0  0  0  0
  -24.1081  -28.0476   18.1938 C   0  0  0  0  0  0  0  0  0  0  0  0
  -26.6008  -20.4868   18.4050 C   0  0  0  0  0  0  0  0  0  0  0  0
  -26.5514  -11.3416   23.5368 C   0  0  0  0  0  0  0  0  0  0  0  0
  -25.2922  -12.0203   21.5897 C   0  0  0  0  0  0  0  0  0  0  0  0
  -23.0293  -27.2056   18.4602 C   0  0  0  0  0  0  0  0  0  0  0  0
  -22.4291   -9.7980   21.8768 C   0  0  0  0  0  0  0  0  0  0  0  0
  -21.8371   -9.0005   20.8974 C   0  0  0  0  0  0  0  0  0  0  0  0
  -23.9564  -26.7151   20.6326 C   0  0  0  0  0  0  0  0  0  0  0  0
  -27.0675  -22.2265   20.0151 C   0  0  0  0  0  0  0  0  0  0  0  0
  -23.9617   -7.9250   20.4890 C   0  0  0  0  0  0  0  0  0  0  0  0
  -27.4954  -12.9310   21.9812 C   0  0  0  0  0  0  0  0  0  0  0  0
  -25.4397  -22.6012   18.2695 C   0  0  0  0  0  0  0  0  0  0  0  0
  -29.6706  -13.4582   20.7572 C   0  0  0  0  0  0  0  0  0  0  0  0
  -30.0379  -27.0801   14.8122 C   0  0  0  0  0  0  0  0  0  0  0  0
  -25.1264  -28.2215   19.1421 C   0  0  0  0  0  0  0  0  0  0  0  0
  -29.1000  -26.6288   15.7604 C   0  0  0  0  0  0  0  0  0  0  0  0
  -25.0457  -27.5619   20.3768 C   0  0  0  0  0  0  0  0  0  0  0  0
  -27.2989  -20.9418   19.5235 C   0  0  0  0  0  0  0  0  0  0  0  0
  -25.3972  -11.2642   22.7572 C   0  0  0  0  0  0  0  0  0  0  0  0
  -22.9547  -26.5370   19.6786 C   0  0  0  0  0  0  0  0  0  0  0  0
  -23.7874   -9.6591   22.1622 C   0  0  0  0  0  0  0  0  0  0  0  0
  -22.6034   -8.0640   20.2035 C   0  0  0  0  0  0  0  0  0  0  0  0
  -26.1379  -23.0562   19.3881 C   0  0  0  0  0  0  0  0  0  0  0  0
  -24.5536   -8.7226   21.4684 C   0  0  0  0  0  0  0  0  0  0  0  0
  -28.5785  -13.7925   21.5802 C   0  0  0  0  0  0  0  0  0  0  0  0
  -30.4095  -14.6135   20.6810 C   0  0  0  0  0  0  0  0  0  0  0  0
  -24.4553  -23.4773   17.6032 C   0  0  0  0  0  0  0  0  0  0  0  0
  -29.9886  -12.2145   20.1185 C   0  0  0  0  0  0  0  0  0  0  0  0
  -28.2499  -27.6361   19.2123 C   0  0  0  0  0  0  0  0  0  0  0  0
  -28.0778  -29.1683   22.0662 C   0  0  0  0  0  0  0  0  0  0  0  0
  -26.1748  -30.1144   24.7365 C   0  0  0  0  0  0  0  0  0  0  0  0
  -29.0206  -20.3943   21.2792 C   0  0  0  0  0  0  0  0  0  0  0  0
  -31.4222  -27.5235   15.2146 C   0  0  0  0  0  0  0  0  0  0  0  0
  -26.2698  -29.1540   18.8499 C   0  0  0  0  0  0  0  0  0  0  0  0
  -26.1027  -27.7304   21.4364 C   0  0  0  0  0  0  0  0  0  0  0  0
  -31.5492  -27.8506   16.7003 C   0  0  0  0  0  0  0  0  0  0  0  0
  -31.4301  -18.5767   23.1680 C   0  0  0  0  0  0  0  0  0  0  0  0
  -30.9014  -26.7579   17.5448 C   0  0  0  0  0  0  0  0  0  0  0  0
  -31.0755  -17.1131   22.8954 C   0  0  0  0  0  0  0  0  0  0  0  0
  -30.1832  -19.4540   23.2639 C   0  0  0  0  0  0  0  0  0  0  0  0
  -28.9089  -17.8891   21.8510 C   0  0  0  0  0  0  0  0  0  0  0  0
  -29.4022  -26.6435   17.2431 C   0  0  1  0  0  0  0  0  0  0  0  0
  -27.5117  -28.8566   19.6847 C   0  0  1  0  0  0  0  0  0  0  0  0
  -30.1354  -16.9777   21.6816 C   0  0  2  0  0  0  0  0  0  0  0  0
  -26.3218  -31.3241   26.9303 C   0  0  0  0  0  0  0  0  0  0  0  0
  -29.4467  -26.7416   23.3100 C   0  0  0  0  0  0  0  0  0  0  0  0
  -28.7165  -27.5688   25.5574 C   0  0  0  0  0  0  0  0  0  0  0  0
  -30.2579  -28.9481   24.1631 C   0  0  0  0  0  0  0  0  0  0  0  0
  -20.1836  -25.9643   18.3023 C   0  0  0  0  0  0  0  0  0  0  0  0
  -20.7062  -23.7366   19.3240 C   0  0  0  0  0  0  0  0  0  0  0  0
  -24.2190  -32.1602   23.8716 C   0  0  0  0  0  0  0  0  0  0  0  0
  -22.3679  -24.7862   17.7650 C   0  0  0  0  0  0  0  0  0  0  0  0
  -27.8284  -28.7449   23.4936 C   0  0  1  0  0  0  0  0  0  0  0  0
  -26.0247  -31.4490   25.4440 C   0  0  2  0  0  0  0  0  0  0  0  0
  -29.0433  -27.9960   24.1105 C   0  0  0  0  0  0  0  0  0  0  0  0
  -21.2981  -25.0582   18.8273 C   0  0  0  0  0  0  0  0  0  1  0  0
  -28.6164  -15.0609   21.9972 N   0  0  0  0  0  0  0  0  0  0  0  0
  -29.7413  -15.5336   21.4340 N   0  0  0  0  0  0  0  0  0  0  0  0
  -27.2040  -28.6480   21.1010 N   0  0  0  0  0  0  0  0  0  0  0  0
  -29.3427  -19.2766   22.0778 N   0  0  0  0  0  0  0  0  0  0  0  0
  -31.5591  -14.9218   20.0441 N   0  0  0  0  0  0  0  0  0  0  0  0
  -24.6575  -23.7896   16.3232 N   0  0  0  0  0  0  0  0  0  0  0  0
  -29.1217  -11.1286   20.3016 N   0  0  0  0  0  0  0  0  0  0  0  0
  -28.2430  -20.0985   20.1601 N   0  0  0  0  0  0  0  0  0  0  0  0
  -28.6721  -27.7074   17.8985 N   0  0  0  0  0  0  0  0  0  0  0  0
  -27.4412  -29.9520   24.2157 N   0  0  0  0  0  0  0  0  0  0  0  0
  -23.4118  -23.9159   18.3158 N   0  3  0  0  0  0  0  0  0  0  0  0
  -24.6363  -31.9667   25.2842 N   0  3  0  0  0  0  0  0  0  0  0  0
  -31.0199  -12.0658   19.4200 O   0  0  0  0  0  0  0  0  0  0  0  0
  -28.4248  -26.6997   19.9832 O   0  0  0  0  0  0  0  0  0  0  0  0
  -29.0090  -29.9382   21.8177 O   0  0  0  0  0  0  0  0  0  0  0  0
  -25.2613  -29.2960   24.6573 O   0  0  0  0  0  0  0  0  0  0  0  0
  -29.4289  -21.5261   21.5519 O   0  0  0  0  0  0  0  0  0  0  0  0
  -24.3734  -10.4510   23.1354 O   0  0  0  0  0  0  0  0  0  0  0  0
  -21.9032  -25.7141   19.9409 O   0  0  0  0  0  0  0  0  0  1  0  0
  -22.0345   -7.2972   19.2641 F   0  0  0  0  0  0  0  0  0  0  0  0
  -25.9237  -24.2898   19.8666 F   0  0  0  0  0  0  0  0  0  0  0  0
  -25.8587   -8.5837   21.7391 F   0  0  0  0  0  0  0  0  0  0  0  0
  1  2  1  0  0  0  0
  1  6  2  0  0  0  0
  2  7  2  0  0  0  0
  3 10  2  0  0  0  0
  3 18  1  0  0  0  0
  4 11  1  0  0  0  0
  4 18  2  0  0  0  0
  5  9  2  0  0  0  0
  5 19  1  0  0  0  0
  6 21  1  0  0  0  0
  7 23  1  0  0  0  0
  8 12  2  0  0  0  0
  8 22  1  0  0  0  0
  9 25  1  0  0  0  0
 10 26  1  0  0  0  0
 11 26  2  0  0  0  0
 12 27  1  0  0  0  0
 13 14  2  0  0  0  0
 13 28  1  0  0  0  0
 14 29  1  0  0  0  0
 15 24  1  0  0  0  0
 15 27  2  0  0  0  0
 16 25  2  0  0  0  0
 16 30  1  0  0  0  0
 17 29  2  0  0  0  0
 17 31  1  0  0  0  0
 18 32  1  0  0  0  0
 19 30  2  0  0  0  0
 19 34  1  0  0  0  0
 20 32  1  0  0  0  0
 20 33  2  0  0  0  0
 20 35  1  0  0  0  0
 21 23  2  0  0  0  0
 21 40  1  0  0  0  0
 22 24  2  0  0  0  0
 22 41  1  0  0  0  0
 23 49  1  0  0  0  0
 24 42  1  0  0  0  0
 25 71  1  0  0  0  0
 26 81  1  0  0  0  0
 27 82  1  0  0  0  0
 28 31  2  0  0  0  0
 28 81  1  0  0  0  0
 29 83  1  0  0  0  0
 30 84  1  0  0  0  0
 31 85  1  0  0  0  0
 32 64  2  0  0  0  0
 33 65  1  0  0  0  0
 33 68  1  0  0  0  0
 34 69  1  0  0  0  0
 34 74  2  0  0  0  0
 35 70  1  0  0  0  0
 35 76  2  0  0  0  0
 36 50  1  0  0  0  0
 36 72  1  0  0  0  0
 36 77  2  0  0  0  0
 37 60  1  0  0  0  0
 37 66  1  0  0  0  0
 37 78  2  0  0  0  0
 38 61  1  0  0  0  0
 38 73  1  0  0  0  0
 38 79  2  0  0  0  0
 39 67  1  0  0  0  0
 39 71  1  0  0  0  0
 39 80  2  0  0  0  0
 40 43  1  0  0  0  0
 41 50  1  0  0  0  0
 42 66  1  0  0  0  0
 43 45  1  0  0  0  0
 44 46  1  0  0  0  0
 44 47  1  0  0  0  0
 45 49  1  0  0  0  0
 46 51  1  0  0  0  0
 47 67  1  0  0  0  0
 48 51  1  0  0  0  0
 48 67  1  0  0  0  0
 49 72  1  0  0  0  0
 50 66  1  0  0  0  0
 51 65  1  0  0  0  0
 52 61  1  0  0  0  0
 53 62  1  0  0  0  0
 54 62  1  0  0  0  0
 55 62  1  0  0  0  0
 56 63  1  0  0  0  0
 57 63  1  0  0  0  0
 58 75  1  0  0  0  0
 59 63  1  0  0  0  0
 59 74  1  0  0  0  0
 60 62  1  0  0  0  0
 60 73  1  0  0  0  0
 61 75  1  0  0  0  0
 63 82  1  0  0  0  0
 64 65  1  0  0  0  0
M  CHG  2  74   1  75   1
M  ISO  4  39 100  63 101  71 100  82 101
M  END
> <Batch ID>
0153

> <Smiles>
CNC(C)C(=O)NC(C(=O)N1Cc2cc([101O:1][101C:1](C)(C)CNC(=N)c3ccc([100NH:0][100C:0](=O)N4CCCC(n5nc(-c6ccc(Oc7ccc(F)cc7F)cc6)c(C(N)=O)c5N)C4)cc3F)ccc2CC1C(=O)NC1CCCc2ccccc21)C(C)(C)C

> <Shape>
0.227

> <Color>
0.070

> <Negative vol penalty>
0.000

$$$$

  -OEChem-04052303303D

 82 91  0     1  0  0  0  0  0999 V2000
  -21.8771  -11.8903   19.1621 C   0  0  0  0  0  0  0  0  0  0  0  0
  -21.6427  -13.1426   19.7208 C   0  0  0  0  0  0  0  0  0  0  0  0
  -29.8412  -28.3699   22.0270 C   0  0  0  0  0  0  0  0  0  0  0  0
  -28.4684  -26.3821   21.9904 C   0  0  0  0  0  0  0  0  0  0  0  0
  -23.1387  -11.3064   19.2673 C   0  0  0  0  0  0  0  0  0  0  0  0
  -22.6697  -13.8112   20.3862 C   0  0  0  0  0  0  0  0  0  0  0  0
  -22.9438  -18.7058   19.1161 C   0  0  0  0  0  0  0  0  0  0  0  0
  -30.7695  -27.7140   22.8354 C   0  0  0  0  0  0  0  0  0  0  0  0
  -29.3968  -25.7262   22.7988 C   0  0  0  0  0  0  0  0  0  0  0  0
  -22.0153  -19.5676   19.6983 C   0  0  0  0  0  0  0  0  0  0  0  0
  -30.2242  -25.6379   26.0757 C   0  0  0  0  0  0  0  0  0  0  0  0
  -29.7368  -24.8948   27.1507 C   0  0  0  0  0  0  0  0  0  0  0  0
  -23.6793  -20.2705   21.2971 C   0  0  0  0  0  0  0  0  0  0  0  0
  -30.7394  -22.9003   26.2266 C   0  0  0  0  0  0  0  0  0  0  0  0
  -18.4189  -27.3982   23.5734 C   0  0  0  0  0  0  0  0  0  0  0  0
  -28.6906  -27.7040   21.6046 C   0  0  0  0  0  0  0  0  0  0  0  0
  -27.7076  -28.4230   19.3630 C   0  0  0  0  0  0  0  0  0  0  0  0
  -24.1844  -11.9724   19.9259 C   0  0  0  0  0  0  0  0  0  0  0  0
  -24.2460  -18.6117   19.6277 C   0  0  0  0  0  0  0  0  0  0  0  0
  -23.9462  -13.2350   20.5015 C   0  0  0  0  0  0  0  0  0  0  0  0
  -24.6231  -19.4087   20.7180 C   0  0  0  0  0  0  0  0  0  0  0  0
  -30.5474  -26.3921   23.2213 C   0  0  0  0  0  0  0  0  0  0  0  0
  -22.3821  -20.3480   20.7907 C   0  0  0  0  0  0  0  0  0  0  0  0
  -30.9692  -25.0123   25.0761 C   0  0  0  0  0  0  0  0  0  0  0  0
  -29.9944  -23.5260   27.2262 C   0  0  0  0  0  0  0  0  0  0  0  0
  -31.2269  -23.6435   25.1516 C   0  0  0  0  0  0  0  0  0  0  0  0
  -27.7309  -28.3813   20.7700 C   0  0  0  0  0  0  0  0  0  0  0  0
  -20.1022  -26.8248   22.2899 C   0  0  0  0  0  0  0  0  0  0  0  0
  -26.6073  -29.1874   19.0604 C   0  0  0  0  0  0  0  0  0  0  0  0
  -20.3580  -28.1773   22.3753 C   0  0  0  0  0  0  0  0  0  0  0  0
  -28.6007  -27.8243   18.4145 C   0  0  0  0  0  0  0  0  0  0  0  0
  -25.9828  -16.2885   20.9276 C   0  0  0  0  0  0  0  0  0  0  0  0
  -28.3405  -18.5130   20.8037 C   0  0  0  0  0  0  0  0  0  0  0  0
  -29.2083  -21.8114   20.6850 C   0  0  0  0  0  0  0  0  0  0  0  0
  -21.5309  -30.3717   21.9814 C   0  0  0  0  0  0  0  0  0  0  0  0
  -25.5182  -11.2804   20.0553 C   0  0  0  0  0  0  0  0  0  0  0  0
  -25.2436  -17.6969   18.9717 C   0  0  0  0  0  0  0  0  0  0  0  0
  -26.0146  -19.3597   21.2923 C   0  0  0  0  0  0  0  0  0  0  0  0
  -26.6553  -12.2188   20.4511 C   0  0  0  0  0  0  0  0  0  0  0  0
  -23.9189  -32.7410   20.8147 C   0  0  0  0  0  0  0  0  0  0  0  0
  -26.2283  -13.1168   21.6078 C   0  0  0  0  0  0  0  0  0  0  0  0
  -25.1634  -31.8948   20.5370 C   0  0  0  0  0  0  0  0  0  0  0  0
  -23.1601  -32.2470   22.0451 C   0  0  0  0  0  0  0  0  0  0  0  0
  -24.0617  -29.9730   21.7535 C   0  0  0  0  0  0  0  0  0  0  0  0
  -20.5756  -23.8361   20.4300 C   0  0  0  0  0  0  0  0  0  0  0  0
  -25.0415  -14.0026   21.2095 C   0  0  1  0  0  0  0  0  0  0  0  0
  -20.8971  -25.8396   21.5407 C   0  0  2  0  0  0  0  0  0  0  0  0
  -26.3909  -17.3024   19.8965 C   0  0  1  0  0  0  0  0  0  0  0  0
  -24.8233  -30.3924   20.4856 C   0  0  2  0  0  0  0  0  0  0  0  0
  -20.9511  -23.4719   21.8601 C   0  0  1  0  0  0  0  0  0  0  0  0
  -31.2127  -23.3202   20.6302 C   0  0  0  0  0  0  0  0  0  0  0  0
  -28.7871  -18.0238   23.7822 C   0  0  0  0  0  0  0  0  0  0  0  0
  -30.0839  -20.1637   23.8680 C   0  0  0  0  0  0  0  0  0  0  0  0
  -30.8826  -18.2797   22.4413 C   0  0  0  0  0  0  0  0  0  0  0  0
  -28.4353  -22.9351   18.0585 C   0  0  0  0  0  0  0  0  0  0  0  0
  -21.9877  -22.3745   21.9714 C   0  0  0  0  0  0  0  0  0  1  0  0
  -28.8416  -19.5926   21.7323 C   0  0  1  0  0  0  0  0  0  0  0  0
  -30.1860  -22.5646   19.8011 C   0  0  2  0  0  0  0  0  0  0  0  0
  -29.6219  -19.0147   22.9466 C   0  0  0  0  0  0  0  0  0  0  0  0
  -18.9909  -26.3761   22.9766 N   0  0  0  0  0  0  0  0  0  0  0  0
  -26.7254  -29.0648   21.3228 N   0  0  0  0  0  0  0  0  0  0  0  0
  -26.0600  -29.5434   20.2578 N   0  0  0  0  0  0  0  0  0  0  0  0
  -20.0259  -25.1885   20.5520 N   0  0  0  0  0  0  0  0  0  0  0  0
  -26.9522  -18.4450   20.6200 N   0  0  0  0  0  0  0  0  0  0  0  0
  -22.8686  -30.8169   21.9240 N   0  0  0  0  0  0  0  0  0  0  0  0
  -26.0644  -29.5830   17.8894 N   0  0  0  0  0  0  0  0  0  0  0  0
  -29.6800  -27.0710   18.8961 N   0  0  0  0  0  0  0  0  0  0  0  0
  -21.3740  -28.9953   21.8219 N   0  0  0  0  0  0  0  0  0  0  0  0
  -25.4898  -15.1122   20.3958 N   0  0  0  0  0  0  0  0  0  0  0  0
  -29.6164  -20.5132   20.9074 N   0  0  0  0  0  0  0  0  0  0  0  0
  -21.4956  -24.7587   22.4091 N   0  3  0  0  0  0  0  0  0  0  0  0
  -29.4606  -23.5446   18.9442 N   0  3  0  0  0  0  0  0  0  0  0  0
  -28.4555  -27.9672   17.1767 O   0  0  0  0  0  0  0  0  0  0  0  0
  -26.1075  -16.5531   22.1176 O   0  0  0  0  0  0  0  0  0  0  0  0
  -29.1516  -17.7623   20.2557 O   0  0  0  0  0  0  0  0  0  0  0  0
  -28.1867  -22.3245   21.1363 O   0  0  0  0  0  0  0  0  0  0  0  0
  -20.5915  -31.1571   22.1318 O   0  0  0  0  0  0  0  0  0  0  0  0
  -31.4532  -25.7517   24.0099 O   0  0  0  0  0  0  0  0  0  0  0  0
  -21.4776  -21.1896   21.3613 O   0  0  0  0  0  0  0  0  0  1  0  0
  -29.5275  -22.8127   28.2594 F   0  0  0  0  0  0  0  0  0  0  0  0
  -31.9430  -23.0372   24.1948 F   0  0  0  0  0  0  0  0  0  0  0  0
  -19.1639  -28.9281   23.3510 S   0  0  0  0  0  0  0  0  0  0  0  0
  1  2  1  0  0  0  0
  1  5  2  0  0  0  0
  2  6  2  0  0  0  0
  3  8  2  0  0  0  0
  3 16  1  0  0  0  0
  4  9  1  0  0  0  0
  4 16  2  0  0  0  0
  5 18  1  0  0  0  0
  6 20  1  0  0  0  0
  7 10  2  0  0  0  0
  7 19  1  0  0  0  0
  8 22  1  0  0  0  0
  9 22  2  0  0  0  0
 10 23  1  0  0  0  0
 11 12  2  0  0  0  0
 11 24  1  0  0  0  0
 12 25  1  0  0  0  0
 13 21  1  0  0  0  0
 13 23  2  0  0  0  0
 14 25  2  0  0  0  0
 14 26  1  0  0  0  0
 15 60  2  0  0  0  0
 15 82  1  0  0  0  0
 16 27  1  0  0  0  0
 17 27  1  0  0  0  0
 17 29  2  0  0  0  0
 17 31  1  0  0  0  0
 18 20  2  0  0  0  0
 18 36  1  0  0  0  0
 19 21  2  0  0  0  0
 19 37  1  0  0  0  0
 20 46  1  0  0  0  0
 21 38  1  0  0  0  0
 22 78  1  0  0  0  0
 23 79  1  0  0  0  0
 24 26  2  0  0  0  0
 24 78  1  0  0  0  0
 25 80  1  0  0  0  0
 26 81  1  0  0  0  0
 27 61  2  0  0  0  0
 28 30  2  0  0  0  0
 28 47  1  0  0  0  0
 28 60  1  0  0  0  0
 29 62  1  0  0  0  0
 29 66  1  0  0  0  0
 30 68  1  0  0  0  0
 30 82  1  0  0  0  0
 31 67  1  0  0  0  0
 31 73  2  0  0  0  0
 32 48  1  0  0  0  0
 32 69  1  0  0  0  0
 32 74  2  0  0  0  0
 33 57  1  0  0  0  0
 33 64  1  0  0  0  0
 33 75  2  0  0  0  0
 34 58  1  0  0  0  0
 34 70  1  0  0  0  0
 34 76  2  0  0  0  0
 35 65  1  0  0  0  0
 35 68  1  0  0  0  0
 35 77  2  0  0  0  0
 36 39  1  0  0  0  0
 37 48  1  0  0  0  0
 38 64  1  0  0  0  0
 39 41  1  0  0  0  0
 40 42  1  0  0  0  0
 40 43  1  0  0  0  0
 41 46  1  0  0  0  0
 42 49  1  0  0  0  0
 43 65  1  0  0  0  0
 44 49  1  0  0  0  0
 44 65  1  0  0  0  0
 45 50  1  0  0  0  0
 45 63  1  0  0  0  0
 46 69  1  0  0  0  0
 47 63  1  0  0  0  0
 47 71  1  0  0  0  0
 48 64  1  0  0  0  0
 49 62  1  0  0  0  0
 50 56  1  0  0  0  0
 50 71  1  0  0  0  0
 51 58  1  0  0  0  0
 52 59  1  0  0  0  0
 53 59  1  0  0  0  0
 54 59  1  0  0  0  0
 55 72  1  0  0  0  0
 56 79  1  0  0  0  0
 57 59  1  0  0  0  0
 57 70  1  0  0  0  0
 58 72  1  0  0  0  0
 61 62  1  0  0  0  0
M  CHG  2  71   1  72   1
M  ISO  4  35 100  56 101  68 100  79 101
M  END
> <Batch ID>
0153

> <Smiles>
CNC(C)C(=O)NC(C(=O)N1Cc2cc([101O:1][101CH2:1]C3CNC(c4ncsc4[100NH:0][100C:0](=O)N4CCCC(n5nc(-c6ccc(Oc7ccc(F)cc7F)cc6)c(C(N)=O)c5N)C4)N3)ccc2CC1C(=O)NC1CCCc2ccccc21)C(C)(C)C

> <Shape>
0.225

> <Color>
0.074

> <Negative vol penalty>
0.000

$$$$

  -OEChem-04052303303D

 83 92  0     1  0  0  0  0  0999 V2000
  -27.7181  -33.2890   26.4187 C   0  0  0  0  0  0  0  0  0  0  0  0
  -28.0807  -32.0125   26.0009 C   0  0  0  0  0  0  0  0  0  0  0  0
  -22.6594  -16.3283   22.0106 C   0  0  0  0  0  0  0  0  0  0  0  0
  -22.7994  -13.9260   21.7950 C   0  0  0  0  0  0  0  0  0  0  0  0
  -26.4457  -33.7805   26.1301 C   0  0  0  0  0  0  0  0  0  0  0  0
  -27.1707  -31.2264   25.2951 C   0  0  0  0  0  0  0  0  0  0  0  0
  -28.4418  -27.2394   20.8236 C   0  0  0  0  0  0  0  0  0  0  0  0
  -21.7266  -16.1819   23.0372 C   0  0  0  0  0  0  0  0  0  0  0  0
  -21.8665  -13.7796   22.8217 C   0  0  0  0  0  0  0  0  0  0  0  0
  -28.5914  -25.8533   20.8173 C   0  0  0  0  0  0  0  0  0  0  0  0
  -18.5131  -14.0008   23.1911 C   0  0  0  0  0  0  0  0  0  0  0  0
  -17.4820  -13.0805   23.0034 C   0  0  0  0  0  0  0  0  0  0  0  0
  -26.2919  -25.6143   20.1287 C   0  0  0  0  0  0  0  0  0  0  0  0
  -18.2191  -11.8571   24.9521 C   0  0  0  0  0  0  0  0  0  0  0  0
  -33.1709  -18.8579   18.6122 C   0  0  0  0  0  0  0  0  0  0  0  0
  -32.0663  -19.6530   18.8077 C   0  0  0  0  0  0  0  0  0  0  0  0
  -23.1958  -15.2004   21.3894 C   0  0  0  0  0  0  0  0  0  0  0  0
  -23.9743  -16.0141   19.1004 C   0  0  0  0  0  0  0  0  0  0  0  0
  -25.5229  -33.0037   25.4120 C   0  0  0  0  0  0  0  0  0  0  0  0
  -27.2109  -27.8240   20.4924 C   0  0  0  0  0  0  0  0  0  0  0  0
  -25.8842  -31.7075   24.9977 C   0  0  0  0  0  0  0  0  0  0  0  0
  -26.1300  -27.0082   20.1290 C   0  0  0  0  0  0  0  0  0  0  0  0
  -21.3302  -14.9076   23.4428 C   0  0  0  0  0  0  0  0  0  0  0  0
  -27.5155  -25.0404   20.4727 C   0  0  0  0  0  0  0  0  0  0  0  0
  -19.3974  -13.8493   24.2593 C   0  0  0  0  0  0  0  0  0  0  0  0
  -17.3349  -12.0087   23.8839 C   0  0  0  0  0  0  0  0  0  0  0  0
  -19.2504  -12.7775   25.1397 C   0  0  0  0  0  0  0  0  0  0  0  0
  -24.1590  -15.3510   20.3284 C   0  0  0  0  0  0  0  0  0  0  0  0
  -25.1768  -15.8758   18.4513 C   0  0  0  0  0  0  0  0  0  0  0  0
  -32.1144  -17.9750   20.2354 C   0  0  0  0  0  0  0  0  0  0  0  0
  -22.8191  -16.6943   18.5920 C   0  0  0  0  0  0  0  0  0  0  0  0
  -25.1112  -29.6524   22.0259 C   0  0  0  0  0  0  0  0  0  0  0  0
  -23.6701  -29.7582   19.1217 C   0  0  0  0  0  0  0  0  0  0  0  0
  -23.1803  -28.2994   16.0756 C   0  0  0  0  0  0  0  0  0  0  0  0
  -30.7765  -15.0030   20.3833 C   0  0  0  0  0  0  0  0  0  0  0  0
  -24.1429  -33.5597   25.1649 C   0  0  0  0  0  0  0  0  0  0  0  0
  -27.0735  -29.3218   20.4780 C   0  0  0  0  0  0  0  0  0  0  0  0
  -24.7934  -27.5870   19.7457 C   0  0  0  0  0  0  0  0  0  0  0  0
  -23.3670  -32.8070   24.0870 C   0  0  0  0  0  0  0  0  0  0  0  0
  -28.9434  -12.9430   18.1309 C   0  0  0  0  0  0  0  0  0  0  0  0
  -23.4760  -31.3011   24.3041 C   0  0  0  0  0  0  0  0  0  0  0  0
  -28.5233  -21.1099   19.3936 C   0  0  0  0  0  0  0  0  0  0  0  0
  -27.4927  -13.3864   18.3279 C   0  0  0  0  0  0  0  0  0  0  0  0
  -28.9190  -19.6389   19.4714 C   0  0  0  0  0  0  0  0  0  0  0  0
  -30.2435  -20.9952   21.0359 C   0  0  0  0  0  0  0  0  0  0  0  0
  -29.7240  -12.9670   19.4432 C   0  0  0  0  0  0  0  0  0  0  0  0
  -28.2269  -14.6941   20.3650 C   0  0  0  0  0  0  0  0  0  0  0  0
  -24.9335  -30.8340   24.2083 C   0  0  1  0  0  0  0  0  0  0  0  0
  -25.6289  -29.7906   20.6221 C   0  0  1  0  0  0  0  0  0  0  0  0
  -28.8894  -21.6507   20.7713 C   0  0  1  0  0  0  0  0  0  0  0  0
  -30.1062  -19.5752   20.4551 C   0  0  2  0  0  0  0  0  0  0  0  0
  -27.4144  -14.7398   19.0596 C   0  0  2  0  0  0  0  0  0  0  0  0
  -21.9188  -28.6004   13.9272 C   0  0  0  0  0  0  0  0  0  0  0  0
  -21.1103  -28.8281   20.4972 C   0  0  0  0  0  0  0  0  0  0  0  0
  -20.1943  -28.2415   18.2422 C   0  0  0  0  0  0  0  0  0  0  0  0
  -20.7798  -30.6078   18.7717 C   0  0  0  0  0  0  0  0  0  0  0  0
  -25.6782  -28.4627   14.4967 C   0  0  0  0  0  0  0  0  0  0  0  0
  -31.6809  -17.1037   21.3467 C   0  0  0  0  0  0  0  0  0  0  0  0
  -28.9389  -23.1677   20.8236 C   0  0  0  0  0  0  0  0  0  1  0  0
  -22.6308  -28.9236   18.4128 C   0  0  1  0  0  0  0  0  0  0  0  0
  -23.2195  -28.8678   14.6685 C   0  0  2  0  0  0  0  0  0  0  0  0
  -21.2033  -29.1390   18.9900 C   0  0  0  0  0  0  0  0  0  0  0  0
  -33.1948  -17.8149   19.5040 N   0  0  0  0  0  0  0  0  0  0  0  0
  -25.3824  -14.8300   20.4543 N   0  0  0  0  0  0  0  0  0  0  0  0
  -31.3990  -19.0747   19.8504 N   0  0  0  0  0  0  0  0  0  0  0  0
  -25.9773  -15.1656   19.2969 N   0  0  0  0  0  0  0  0  0  0  0  0
  -24.7071  -29.0567   19.7528 N   0  0  0  0  0  0  0  0  0  0  0  0
  -29.6104  -14.2785   20.0859 N   0  0  0  0  0  0  0  0  0  0  0  0
  -25.6169  -16.2935   17.2454 N   0  0  0  0  0  0  0  0  0  0  0  0
  -21.6673  -16.7422   19.3890 N   0  0  0  0  0  0  0  0  0  0  0  0
  -25.3490  -30.7549   22.8243 N   0  0  0  0  0  0  0  0  0  0  0  0
  -22.7549  -29.2364   16.9933 N   0  0  0  0  0  0  0  0  0  0  0  0
  -30.5793  -16.2393   20.9861 N   0  0  0  0  0  0  0  0  0  0  0  0
  -24.3362  -28.2564   13.8938 N   0  3  0  0  0  0  0  0  0  0  0  0
  -22.8034  -17.2292   17.4575 O   0  0  0  0  0  0  0  0  0  0  0  0
  -24.5371  -28.6225   22.3594 O   0  0  0  0  0  0  0  0  0  0  0  0
  -23.5695  -30.9876   19.1096 O   0  0  0  0  0  0  0  0  0  0  0  0
  -23.4920  -27.1390   16.3341 O   0  0  0  0  0  0  0  0  0  0  0  0
  -31.9092  -14.5817   20.1255 O   0  0  0  0  0  0  0  0  0  0  0  0
  -20.4201  -14.7643   24.4447 O   0  0  0  0  0  0  0  0  0  0  0  0
  -27.6586  -23.6871   20.4664 O   0  0  0  0  0  0  0  0  0  1  0  0
  -16.3437  -11.1258   23.7044 F   0  0  0  0  0  0  0  0  0  0  0  0
  -20.0960  -12.6274   26.1684 F   0  0  0  0  0  0  0  0  0  0  0  0
  1  2  1  0  0  0  0
  1  5  2  0  0  0  0
  2  6  2  0  0  0  0
  3  8  2  0  0  0  0
  3 17  1  0  0  0  0
  4  9  1  0  0  0  0
  4 17  2  0  0  0  0
  5 19  1  0  0  0  0
  6 21  1  0  0  0  0
  7 10  2  0  0  0  0
  7 20  1  0  0  0  0
  8 23  1  0  0  0  0
  9 23  2  0  0  0  0
 10 24  1  0  0  0  0
 11 12  2  0  0  0  0
 11 25  1  0  0  0  0
 12 26  1  0  0  0  0
 13 22  1  0  0  0  0
 13 24  2  0  0  0  0
 14 26  2  0  0  0  0
 14 27  1  0  0  0  0
 15 16  2  0  0  0  0
 15 63  1  0  0  0  0
 16 65  1  0  0  0  0
 17 28  1  0  0  0  0
 18 28  1  0  0  0  0
 18 29  2  0  0  0  0
 18 31  1  0  0  0  0
 19 21  2  0  0  0  0
 19 36  1  0  0  0  0
 20 22  2  0  0  0  0
 20 37  1  0  0  0  0
 21 48  1  0  0  0  0
 22 38  1  0  0  0  0
 23 80  1  0  0  0  0
 24 81  1  0  0  0  0
 25 27  2  0  0  0  0
 25 80  1  0  0  0  0
 26 82  1  0  0  0  0
 27 83  1  0  0  0  0
 28 64  2  0  0  0  0
 29 66  1  0  0  0  0
 29 69  1  0  0  0  0
 30 58  1  0  0  0  0
 30 63  2  0  0  0  0
 30 65  1  0  0  0  0
 31 70  1  0  0  0  0
 31 75  2  0  0  0  0
 32 49  1  0  0  0  0
 32 71  1  0  0  0  0
 32 76  2  0  0  0  0
 33 60  1  0  0  0  0
 33 67  1  0  0  0  0
 33 77  2  0  0  0  0
 34 61  1  0  0  0  0
 34 72  1  0  0  0  0
 34 78  2  0  0  0  0
 35 68  1  0  0  0  0
 35 73  1  0  0  0  0
 35 79  2  0  0  0  0
 36 39  1  0  0  0  0
 37 49  1  0  0  0  0
 38 67  1  0  0  0  0
 39 41  1  0  0  0  0
 40 43  1  0  0  0  0
 40 46  1  0  0  0  0
 41 48  1  0  0  0  0
 42 44  1  0  0  0  0
 42 50  1  0  0  0  0
 43 52  1  0  0  0  0
 44 51  1  0  0  0  0
 45 50  1  0  0  0  0
 45 51  1  0  0  0  0
 46 68  1  0  0  0  0
 47 52  1  0  0  0  0
 47 68  1  0  0  0  0
 48 71  1  0  0  0  0
 49 67  1  0  0  0  0
 50 59  1  0  0  0  0
 51 65  1  0  0  0  0
 52 66  1  0  0  0  0
 53 61  1  0  0  0  0
 54 62  1  0  0  0  0
 55 62  1  0  0  0  0
 56 62  1  0  0  0  0
 57 74  1  0  0  0  0
 58 73  1  0  0  0  0
 59 81  1  0  0  0  0
 60 62  1  0  0  0  0
 60 72  1  0  0  0  0
 61 74  1  0  0  0  0
 64 66  1  0  0  0  0
M  CHG  1  74   1
M  ISO  4  35 100  59 101  73 100  81 101
M  END
> <Batch ID>
0153

> <Smiles>
CNC(C)C(=O)NC(C(=O)N1Cc2cc([101O:1][101CH2:1]C3CCC(n4ccnc4C[100NH:0][100C:0](=O)N4CCCC(n5nc(-c6ccc(Oc7ccc(F)cc7F)cc6)c(C(N)=O)c5N)C4)C3)ccc2CC1C(=O)NC1CCCc2ccccc21)C(C)(C)C

> <Shape>
0.236

> <Color>
0.059

> <Negative vol penalty>
0.000

$$$$

  -OEChem-04052303303D

 91101  0     1  0  0  0  0  0999 V2000
  -18.0800  -25.4534   20.5548 C   0  0  0  0  0  0  0  0  0  0  0  0
  -19.4309  -25.3851   20.2294 C   0  0  0  0  0  0  0  0  0  0  0  0
  -23.8143   -9.4154   19.8811 C   0  0  0  0  0  0  0  0  0  0  0  0
  -24.5086   -9.5716   22.1899 C   0  0  0  0  0  0  0  0  0  0  0  0
  -17.6258  -26.4304   21.4396 C   0  0  0  0  0  0  0  0  0  0  0  0
  -20.3282  -26.2946   20.7879 C   0  0  0  0  0  0  0  0  0  0  0  0
  -24.5754  -24.0764   22.4269 C   0  0  0  0  0  0  0  0  0  0  0  0
  -23.3859   -8.1059   20.0985 C   0  0  0  0  0  0  0  0  0  0  0  0
  -24.0801   -8.2621   22.4074 C   0  0  0  0  0  0  0  0  0  0  0  0
  -25.5278  -23.7372   21.4670 C   0  0  0  0  0  0  0  0  0  0  0  0
  -21.1536   -6.6550   22.9298 C   0  0  0  0  0  0  0  0  0  0  0  0
  -20.4125   -6.4004   24.0837 C   0  0  0  0  0  0  0  0  0  0  0  0
  -30.2501  -19.0363   21.9435 C   0  0  0  0  0  0  0  0  0  0  0  0
  -26.7865  -25.7181   22.0246 C   0  0  0  0  0  0  0  0  0  0  0  0
  -22.0954   -4.8301   24.8180 C   0  0  0  0  0  0  0  0  0  0  0  0
  -24.3758  -10.1482   20.9268 C   0  0  0  0  0  0  0  0  0  0  0  0
  -30.0027  -20.2629   22.6249 C   0  0  0  0  0  0  0  0  0  0  0  0
  -24.0627  -12.6788   20.8507 C   0  0  0  0  0  0  0  0  0  0  0  0
  -18.5195  -27.3463   22.0168 C   0  0  0  0  0  0  0  0  0  0  0  0
  -24.7159  -25.2467   23.1866 C   0  0  0  0  0  0  0  0  0  0  0  0
  -19.8853  -27.2857   21.6803 C   0  0  0  0  0  0  0  0  0  0  0  0
  -25.8358  -26.0686   22.9954 C   0  0  0  0  0  0  0  0  0  0  0  0
  -23.5187   -7.5293   21.3616 C   0  0  0  0  0  0  0  0  0  0  0  0
  -26.6321  -24.5596   21.2637 C   0  0  0  0  0  0  0  0  0  0  0  0
  -22.3656   -5.9971   22.7199 C   0  0  0  0  0  0  0  0  0  0  0  0
  -20.8834   -5.4880   25.0278 C   0  0  0  0  0  0  0  0  0  0  0  0
  -22.8365   -5.0847   23.6641 C   0  0  0  0  0  0  0  0  0  0  0  0
  -24.8191  -11.5008   20.7027 C   0  0  0  0  0  0  0  0  0  0  0  0
  -24.9329  -13.6892   20.5215 C   0  0  0  0  0  0  0  0  0  0  0  0
  -28.8060  -20.2437   23.3070 C   0  0  0  0  0  0  0  0  0  0  0  0
  -29.2331  -18.1261   22.1308 C   0  0  0  0  0  0  0  0  0  0  0  0
  -30.9307  -21.4074   22.5919 C   0  0  0  0  0  0  0  0  0  0  0  0
  -22.6957  -12.8449   21.2501 C   0  0  0  0  0  0  0  0  0  0  0  0
  -23.0178  -27.9106   23.5377 C   0  0  0  0  0  0  0  0  0  0  0  0
  -25.2076  -28.5390   25.8468 C   0  0  0  0  0  0  0  0  0  0  0  0
  -28.3388  -28.0020   27.0935 C   0  0  0  0  0  0  0  0  0  0  0  0
  -29.9465  -16.0920   20.8271 C   0  0  0  0  0  0  0  0  0  0  0  0
  -17.9744  -28.4146   22.9313 C   0  0  0  0  0  0  0  0  0  0  0  0
  -23.6935  -25.5846   24.2368 C   0  0  0  0  0  0  0  0  0  0  0  0
  -26.0436  -27.3253   23.7990 C   0  0  0  0  0  0  0  0  0  0  0  0
  -19.0475  -29.1043   23.7697 C   0  0  0  0  0  0  0  0  0  0  0  0
  -28.0718  -23.2242   25.4258 C   0  0  0  0  0  0  0  0  0  0  0  0
  -26.6849  -22.6564   25.2023 C   0  0  0  0  0  0  0  0  0  0  0  0
  -29.5259  -13.5203   18.4009 C   0  0  0  0  0  0  0  0  0  0  0  0
  -20.2424  -29.4833   22.9005 C   0  0  0  0  0  0  0  0  0  0  0  0
  -28.2017  -12.8625   18.7956 C   0  0  0  0  0  0  0  0  0  0  0  0
  -31.3351  -24.0253   20.1438 C   0  0  0  0  0  0  0  0  0  0  0  0
  -28.8794  -22.5947   24.2965 C   0  0  0  0  0  0  0  0  0  0  0  0
  -26.9730  -21.2169   24.7916 C   0  0  0  0  0  0  0  0  0  0  0  0
  -30.3319  -13.9517   19.6248 C   0  0  0  0  0  0  0  0  0  0  0  0
  -31.6771  -23.4959   21.5299 C   0  0  0  0  0  0  0  0  0  0  0  0
  -28.2803  -14.1382   20.9758 C   0  0  0  0  0  0  0  0  0  0  0  0
  -29.7641  -22.2646   20.6017 C   0  0  0  0  0  0  0  0  0  0  0  0
  -20.8934  -28.2389   22.2847 C   0  0  1  0  0  0  0  0  0  0  0  0
  -23.6725  -27.0673   24.5950 C   0  0  1  0  0  0  0  0  0  0  0  0
  -27.4039  -13.7454   19.7753 C   0  0  2  0  0  0  0  0  0  0  0  0
  -29.8637  -23.6432   19.9393 C   0  0  1  0  0  0  0  0  0  0  0  0
  -29.8544  -28.6847   28.9734 C   0  0  0  0  0  0  0  0  0  0  0  0
  -25.7114  -31.2131   24.4664 C   0  0  0  0  0  0  0  0  0  0  0  0
  -27.8324  -31.4131   25.7814 C   0  0  0  0  0  0  0  0  0  0  0  0
  -25.6376  -31.3257   26.9637 C   0  0  0  0  0  0  0  0  0  0  0  0
  -28.5307  -25.2259   28.1012 C   0  0  0  0  0  0  0  0  0  0  0  0
  -29.8149  -24.7581   17.8774 C   0  0  0  0  0  0  0  0  0  0  0  0
  -28.9049  -24.6516   20.5694 C   0  0  0  0  0  0  0  0  0  1  0  0
  -26.5503  -29.2277   25.8879 C   0  0  1  0  0  0  0  0  0  0  0  0
  -28.8228  -27.6751   28.4947 C   0  0  2  0  0  0  0  0  0  0  0  0
  -26.4283  -30.7723   25.7582 C   0  0  0  0  0  0  0  0  0  0  0  0
  -26.0732  -11.7392   20.3100 N   0  0  0  0  0  0  0  0  0  0  0  0
  -26.1116  -13.0787   20.2083 N   0  0  0  0  0  0  0  0  0  0  0  0
  -28.2557  -21.2833   24.0807 N   0  0  0  0  0  0  0  0  0  0  0  0
  -30.8016  -22.3202   21.6461 N   0  0  0  0  0  0  0  0  0  0  0  0
  -25.0130  -27.6161   24.8094 N   0  0  0  0  0  0  0  0  0  0  0  0
  -29.5134  -14.7883   20.5051 N   0  0  0  0  0  0  0  0  0  0  0  0
  -24.7971  -15.0314   20.4723 N   0  0  0  0  0  0  0  0  0  0  0  0
  -21.9443  -11.7012   21.5526 N   0  0  0  0  0  0  0  0  0  0  0  0
  -29.0706  -16.8050   21.6450 N   0  0  0  0  0  0  0  0  0  0  0  0
  -21.7098  -27.5574   23.2663 N   0  0  0  0  0  0  0  0  0  0  0  0
  -27.2011  -28.7807   27.1147 N   0  0  0  0  0  0  0  0  0  0  0  0
  -31.8821  -21.5040   23.5159 N   0  3  0  0  0  0  0  0  0  0  0  0
  -29.4417  -26.3198   28.5260 N   0  3  0  0  0  0  0  0  0  0  0  0
  -22.1518  -13.9731   21.3202 O   0  0  0  0  0  0  0  0  0  0  0  0
  -23.6520  -28.8158   23.0084 O   0  0  0  0  0  0  0  0  0  0  0  0
  -24.3651  -28.8046   26.7078 O   0  0  0  0  0  0  0  0  0  0  0  0
  -28.9148  -27.6092   26.0813 O   0  0  0  0  0  0  0  0  0  0  0  0
  -31.0026  -16.5524   20.3860 O   0  0  0  0  0  0  0  0  0  0  0  0
  -23.1005   -6.2516   21.5742 O   0  0  0  0  0  0  0  0  0  0  0  0
  -27.5630  -24.2311   20.3269 O   0  0  0  0  0  0  0  0  0  1  0  0
  -29.5766  -23.5330   18.5524 O   0  0  0  0  0  0  0  0  0  0  0  0
  -20.1723   -5.2447   26.1366 F   0  0  0  0  0  0  0  0  0  0  0  0
  -24.0007   -4.4506   23.4686 F   0  0  0  0  0  0  0  0  0  0  0  0
  -27.9865  -18.7512   23.1245 S   0  0  0  0  0  0  0  0  0  0  0  0
  1  2  1  0  0  0  0
  1  5  2  0  0  0  0
  2  6  2  0  0  0  0
  3  8  2  0  0  0  0
  3 16  1  0  0  0  0
  4  9  1  0  0  0  0
  4 16  2  0  0  0  0
  5 19  1  0  0  0  0
  6 21  1  0  0  0  0
  7 10  2  0  0  0  0
  7 20  1  0  0  0  0
  8 23  1  0  0  0  0
  9 23  2  0  0  0  0
 10 24  1  0  0  0  0
 11 12  2  0  0  0  0
 11 25  1  0  0  0  0
 12 26  1  0  0  0  0
 13 17  1  0  0  0  0
 13 31  2  0  0  0  0
 14 22  1  0  0  0  0
 14 24  2  0  0  0  0
 15 26  2  0  0  0  0
 15 27  1  0  0  0  0
 16 28  1  0  0  0  0
 17 30  2  0  0  0  0
 17 32  1  0  0  0  0
 18 28  1  0  0  0  0
 18 29  2  0  0  0  0
 18 33  1  0  0  0  0
 19 21  2  0  0  0  0
 19 38  1  0  0  0  0
 20 22  2  0  0  0  0
 20 39  1  0  0  0  0
 21 54  1  0  0  0  0
 22 40  1  0  0  0  0
 23 86  1  0  0  0  0
 24 87  1  0  0  0  0
 25 27  2  0  0  0  0
 25 86  1  0  0  0  0
 26 89  1  0  0  0  0
 27 90  1  0  0  0  0
 28 68  2  0  0  0  0
 29 69  1  0  0  0  0
 29 74  1  0  0  0  0
 30 70  1  0  0  0  0
 30 91  1  0  0  0  0
 31 76  1  0  0  0  0
 31 91  1  0  0  0  0
 32 71  1  0  0  0  0
 32 79  2  0  0  0  0
 33 75  1  0  0  0  0
 33 81  2  0  0  0  0
 34 55  1  0  0  0  0
 34 77  1  0  0  0  0
 34 82  2  0  0  0  0
 35 65  1  0  0  0  0
 35 72  1  0  0  0  0
 35 83  2  0  0  0  0
 36 66  1  0  0  0  0
 36 78  1  0  0  0  0
 36 84  2  0  0  0  0
 37 73  1  0  0  0  0
 37 76  1  0  0  0  0
 37 85  2  0  0  0  0
 38 41  1  0  0  0  0
 39 55  1  0  0  0  0
 40 72  1  0  0  0  0
 41 45  1  0  0  0  0
 42 43  1  0  0  0  0
 42 48  1  0  0  0  0
 43 49  1  0  0  0  0
 44 46  1  0  0  0  0
 44 50  1  0  0  0  0
 45 54  1  0  0  0  0
 46 56  1  0  0  0  0
 47 51  1  0  0  0  0
 47 57  1  0  0  0  0
 48 70  1  0  0  0  0
 49 70  1  0  0  0  0
 50 73  1  0  0  0  0
 51 71  1  0  0  0  0
 52 56  1  0  0  0  0
 52 73  1  0  0  0  0
 53 57  1  0  0  0  0
 53 71  1  0  0  0  0
 54 77  1  0  0  0  0
 55 72  1  0  0  0  0
 56 69  1  0  0  0  0
 57 64  1  0  0  0  0
 57 88  1  0  0  0  0
 58 66  1  0  0  0  0
 59 67  1  0  0  0  0
 60 67  1  0  0  0  0
 61 67  1  0  0  0  0
 62 80  1  0  0  0  0
 63 88  1  0  0  0  0
 64 87  1  0  0  0  0
 65 67  1  0  0  0  0
 65 78  1  0  0  0  0
 66 80  1  0  0  0  0
 68 69  1  0  0  0  0
M  CHG  2  79   1  80   1
M  ISO  4  37 100  64 101  76 100  87 101
M  END
> <Batch ID>
0153

> <Smiles>
CNC(C)C(=O)NC(C(=O)N1Cc2cc([101O:1][101CH2:1]C3(OC)CCN(C(=N)c4cc([100NH:0][100C:0](=O)N5CCCC(n6nc(-c7ccc(Oc8ccc(F)cc8F)cc7)c(C(N)=O)c6N)C5)sc4N4CCCC4)C3)ccc2CC1C(=O)NC1CCCc2ccccc21)C(C)(C)C

> <Shape>
0.304

> <Color>
0.167

> <Negative vol penalty>
0.000

$$$$

  -OEChem-04052303303D

 87 96  0     1  0  0  0  0  0999 V2000
  -24.9811  -32.2248   17.9046 C   0  0  0  0  0  0  0  0  0  0  0  0
  -26.0121  -31.3110   17.7116 C   0  0  0  0  0  0  0  0  0  0  0  0
  -23.2368   -9.6244   20.1042 C   0  0  0  0  0  0  0  0  0  0  0  0
  -23.8337   -9.9597   22.4211 C   0  0  0  0  0  0  0  0  0  0  0  0
  -24.3285  -32.2881   19.1351 C   0  0  0  0  0  0  0  0  0  0  0  0
  -26.3920  -30.4606   18.7494 C   0  0  0  0  0  0  0  0  0  0  0  0
  -28.3767  -24.6894   18.2405 C   0  0  0  0  0  0  0  0  0  0  0  0
  -22.5389   -8.4677   20.4513 C   0  0  0  0  0  0  0  0  0  0  0  0
  -23.1357   -8.8030   22.7683 C   0  0  0  0  0  0  0  0  0  0  0  0
  -29.6554  -24.1338   18.2403 C   0  0  0  0  0  0  0  0  0  0  0  0
  -19.9198   -7.8907   23.2641 C   0  0  0  0  0  0  0  0  0  0  0  0
  -19.0862   -7.9492   24.3809 C   0  0  0  0  0  0  0  0  0  0  0  0
  -31.3901  -17.9965   21.4317 C   0  0  0  0  0  0  0  0  0  0  0  0
  -29.4439  -23.6611   20.5964 C   0  0  0  0  0  0  0  0  0  0  0  0
  -20.3733   -6.1961   25.4333 C   0  0  0  0  0  0  0  0  0  0  0  0
  -23.8843  -10.3704   21.0891 C   0  0  0  0  0  0  0  0  0  0  0  0
  -31.2128  -19.2908   21.9763 C   0  0  0  0  0  0  0  0  0  0  0  0
  -24.1006  -12.8777   20.6714 C   0  0  0  0  0  0  0  0  0  0  0  0
  -24.6941  -31.4315   20.1854 C   0  0  0  0  0  0  0  0  0  0  0  0
  -27.6250  -24.7449   19.4230 C   0  0  0  0  0  0  0  0  0  0  0  0
  -25.7446  -30.5135   19.9955 C   0  0  0  0  0  0  0  0  0  0  0  0
  -28.1549  -24.2156   20.6084 C   0  0  0  0  0  0  0  0  0  0  0  0
  -22.4883   -8.0570   21.7834 C   0  0  0  0  0  0  0  0  0  0  0  0
  -30.1904  -23.6222   19.4190 C   0  0  0  0  0  0  0  0  0  0  0  0
  -20.9801   -6.9848   23.2318 C   0  0  0  0  0  0  0  0  0  0  0  0
  -19.3130   -7.1019   25.4655 C   0  0  0  0  0  0  0  0  0  0  0  0
  -21.2068   -6.1376   24.3164 C   0  0  0  0  0  0  0  0  0  0  0  0
  -24.6059  -11.5651   20.7310 C   0  0  0  0  0  0  0  0  0  0  0  0
  -25.1746  -13.6418   20.2850 C   0  0  0  0  0  0  0  0  0  0  0  0
  -30.2080  -17.3266   21.6464 C   0  0  0  0  0  0  0  0  0  0  0  0
  -29.9351  -19.3196   22.4848 C   0  0  0  0  0  0  0  0  0  0  0  0
  -32.2035  -20.3819   21.9909 C   0  0  0  0  0  0  0  0  0  0  0  0
  -22.7787  -13.3629   20.9412 C   0  0  0  0  0  0  0  0  0  0  0  0
  -26.4060  -27.0829   21.1983 C   0  0  0  0  0  0  0  0  0  0  0  0
  -25.0666  -24.6189   22.8284 C   0  0  0  0  0  0  0  0  0  0  0  0
  -25.1720  -21.3190   23.6922 C   0  0  0  0  0  0  0  0  0  0  0  0
  -30.5529  -15.0312   20.6674 C   0  0  0  0  0  0  0  0  0  0  0  0
  -23.9913  -31.5693   21.5127 C   0  0  0  0  0  0  0  0  0  0  0  0
  -26.2367  -25.3232   19.4008 C   0  0  0  0  0  0  0  0  0  0  0  0
  -27.3807  -24.2327   21.9002 C   0  0  0  0  0  0  0  0  0  0  0  0
  -24.2035  -30.3762   22.4411 C   0  0  0  0  0  0  0  0  0  0  0  0
  -29.7344  -12.2812   18.5592 C   0  0  0  0  0  0  0  0  0  0  0  0
  -25.6770  -29.9836   22.4775 C   0  0  0  0  0  0  0  0  0  0  0  0
  -28.2856  -11.9577   18.9313 C   0  0  0  0  0  0  0  0  0  0  0  0
  -34.1013  -21.8589   19.3025 C   0  0  0  0  0  0  0  0  0  0  0  0
  -30.5503  -12.7113   19.7770 C   0  0  0  0  0  0  0  0  0  0  0  0
  -33.6634  -21.9305   20.7591 C   0  0  0  0  0  0  0  0  0  0  0  0
  -28.5164  -13.4829   20.9333 C   0  0  0  0  0  0  0  0  0  0  0  0
  -32.2599  -20.3308   19.5310 C   0  0  0  0  0  0  0  0  0  0  0  0
  -26.1689  -29.5573   21.0891 C   0  0  1  0  0  0  0  0  0  0  0  0
  -25.7632  -25.7932   20.7728 C   0  0  1  0  0  0  0  0  0  0  0  0
  -27.6384  -13.1072   19.7284 C   0  0  2  0  0  0  0  0  0  0  0  0
  -32.8640  -21.3462   18.5547 C   0  0  1  0  0  0  0  0  0  0  0  0
  -23.9633  -19.6033   25.0681 C   0  0  0  0  0  0  0  0  0  0  0  0
  -26.2825  -25.8004   25.3653 C   0  0  0  0  0  0  0  0  0  0  0  0
  -25.8697  -23.6077   26.5009 C   0  0  0  0  0  0  0  0  0  0  0  0
  -23.9492  -24.9401   25.6296 C   0  0  0  0  0  0  0  0  0  0  0  0
  -24.5748  -19.6628   21.3133 C   0  0  0  0  0  0  0  0  0  0  0  0
  -33.9629  -21.5663   16.4954 C   0  0  0  0  0  0  0  0  0  0  0  0
  -31.8823  -22.4653   18.2127 C   0  0  0  0  0  0  0  0  0  1  0  0
  -25.4808  -23.7612   23.9996 C   0  0  1  0  0  0  0  0  0  0  0  0
  -24.1002  -20.2440   23.6956 C   0  0  2  0  0  0  0  0  0  0  0  0
  -25.4112  -24.5286   25.3501 C   0  0  0  0  0  0  0  0  0  0  0  0
  -25.9001  -11.4956   20.4082 N   0  0  0  0  0  0  0  0  0  0  0  0
  -26.2171  -12.7741   20.1419 N   0  0  0  0  0  0  0  0  0  0  0  0
  -32.6744  -20.8460   20.8476 N   0  0  0  0  0  0  0  0  0  0  0  0
  -26.0301  -24.8144   21.8287 N   0  0  0  0  0  0  0  0  0  0  0  0
  -29.8782  -13.8063   20.4799 N   0  0  0  0  0  0  0  0  0  0  0  0
  -25.3194  -14.9644   20.0570 N   0  0  0  0  0  0  0  0  0  0  0  0
  -29.2328  -20.2856   23.1132 N   0  0  0  0  0  0  0  0  0  0  0  0
  -21.7949  -12.4423   21.3271 N   0  0  0  0  0  0  0  0  0  0  0  0
  -29.8025  -16.0088   21.3198 N   0  0  0  0  0  0  0  0  0  0  0  0
  -25.7259  -28.2132   20.7867 N   0  0  0  0  0  0  0  0  0  0  0  0
  -24.6443  -22.5671   23.9471 N   0  0  0  0  0  0  0  0  0  0  0  0
  -32.6063  -20.8832   23.1548 N   0  3  0  0  0  0  0  0  0  0  0  0
  -24.4335  -19.1770   22.7101 N   0  3  0  0  0  0  0  0  0  0  0  0
  -22.4748  -14.5746   20.8271 O   0  0  0  0  0  0  0  0  0  0  0  0
  -27.4416  -27.0547   21.8529 O   0  0  0  0  0  0  0  0  0  0  0  0
  -23.9278  -25.0920   22.7981 O   0  0  0  0  0  0  0  0  0  0  0  0
  -26.3591  -21.0753   23.4878 O   0  0  0  0  0  0  0  0  0  0  0  0
  -31.7014  -15.2095   20.2537 O   0  0  0  0  0  0  0  0  0  0  0  0
  -29.3159  -18.1262   22.2877 O   0  0  0  0  0  0  0  0  0  0  0  0
  -21.8072   -6.9285   22.1226 O   0  0  0  0  0  0  0  0  0  0  0  0
  -31.4385  -23.0799   19.4217 O   0  0  0  0  0  0  0  0  0  1  0  0
  -33.2552  -20.6892   17.3575 O   0  0  0  0  0  0  0  0  0  0  0  0
  -18.5134   -7.1593   26.5386 F   0  0  0  0  0  0  0  0  0  0  0  0
  -22.2246   -5.2662   24.2917 F   0  0  0  0  0  0  0  0  0  0  0  0
  1  2  1  0  0  0  0
  1  5  2  0  0  0  0
  2  6  2  0  0  0  0
  3  8  2  0  0  0  0
  3 16  1  0  0  0  0
  4  9  1  0  0  0  0
  4 16  2  0  0  0  0
  5 19  1  0  0  0  0
  6 21  1  0  0  0  0
  7 10  2  0  0  0  0
  7 20  1  0  0  0  0
  8 23  1  0  0  0  0
  9 23  2  0  0  0  0
 10 24  1  0  0  0  0
 11 12  2  0  0  0  0
 11 25  1  0  0  0  0
 12 26  1  0  0  0  0
 13 17  1  0  0  0  0
 13 30  2  0  0  0  0
 14 22  1  0  0  0  0
 14 24  2  0  0  0  0
 15 26  2  0  0  0  0
 15 27  1  0  0  0  0
 16 28  1  0  0  0  0
 17 31  2  0  0  0  0
 17 32  1  0  0  0  0
 18 28  1  0  0  0  0
 18 29  2  0  0  0  0
 18 33  1  0  0  0  0
 19 21  2  0  0  0  0
 19 38  1  0  0  0  0
 20 22  2  0  0  0  0
 20 39  1  0  0  0  0
 21 50  1  0  0  0  0
 22 40  1  0  0  0  0
 23 83  1  0  0  0  0
 24 84  1  0  0  0  0
 25 27  2  0  0  0  0
 25 83  1  0  0  0  0
 26 86  1  0  0  0  0
 27 87  1  0  0  0  0
 28 64  2  0  0  0  0
 29 65  1  0  0  0  0
 29 69  1  0  0  0  0
 30 72  1  0  0  0  0
 30 82  1  0  0  0  0
 31 70  1  0  0  0  0
 31 82  1  0  0  0  0
 32 66  1  0  0  0  0
 32 75  2  0  0  0  0
 33 71  1  0  0  0  0
 33 77  2  0  0  0  0
 34 51  1  0  0  0  0
 34 73  1  0  0  0  0
 34 78  2  0  0  0  0
 35 61  1  0  0  0  0
 35 67  1  0  0  0  0
 35 79  2  0  0  0  0
 36 62  1  0  0  0  0
 36 74  1  0  0  0  0
 36 80  2  0  0  0  0
 37 68  1  0  0  0  0
 37 72  1  0  0  0  0
 37 81  2  0  0  0  0
 38 41  1  0  0  0  0
 39 51  1  0  0  0  0
 40 67  1  0  0  0  0
 41 43  1  0  0  0  0
 42 44  1  0  0  0  0
 42 46  1  0  0  0  0
 43 50  1  0  0  0  0
 44 52  1  0  0  0  0
 45 47  1  0  0  0  0
 45 53  1  0  0  0  0
 46 68  1  0  0  0  0
 47 66  1  0  0  0  0
 48 52  1  0  0  0  0
 48 68  1  0  0  0  0
 49 53  1  0  0  0  0
 49 66  1  0  0  0  0
 50 73  1  0  0  0  0
 51 67  1  0  0  0  0
 52 65  1  0  0  0  0
 53 60  1  0  0  0  0
 53 85  1  0  0  0  0
 54 62  1  0  0  0  0
 55 63  1  0  0  0  0
 56 63  1  0  0  0  0
 57 63  1  0  0  0  0
 58 76  1  0  0  0  0
 59 85  1  0  0  0  0
 60 84  1  0  0  0  0
 61 63  1  0  0  0  0
 61 74  1  0  0  0  0
 62 76  1  0  0  0  0
 64 65  1  0  0  0  0
M  CHG  2  75   1  76   1
M  ISO  4  37 100  60 101  72 100  84 101
M  END
> <Batch ID>
0153

> <Smiles>
CNC(C)C(=O)NC(C(=O)N1Cc2cc([101O:1][101CH2:1]C3(OC)CCN(C(=N)c4cc([100NH:0][100C:0](=O)N5CCCC(n6nc(-c7ccc(Oc8ccc(F)cc8F)cc7)c(C(N)=O)c6N)C5)oc4N)C3)ccc2CC1C(=O)NC1CCCc2ccccc21)C(C)(C)C

> <Shape>
0.255

> <Color>
0.172

> <Negative vol penalty>
0.000

$$$$

  -OEChem-04052303303D

 91101  0     1  0  0  0  0  0999 V2000
  -19.8950  -24.3218   18.5311 C   0  0  0  0  0  0  0  0  0  0  0  0
  -20.5343  -23.6182   19.5467 C   0  0  0  0  0  0  0  0  0  0  0  0
  -23.1176   -9.8999   19.9448 C   0  0  0  0  0  0  0  0  0  0  0  0
  -23.8133   -9.9233   22.2584 C   0  0  0  0  0  0  0  0  0  0  0  0
  -20.6437  -24.8982   17.5058 C   0  0  0  0  0  0  0  0  0  0  0  0
  -21.9227  -23.4897   19.5371 C   0  0  0  0  0  0  0  0  0  0  0  0
  -25.6404  -23.3464   24.4017 C   0  0  0  0  0  0  0  0  0  0  0  0
  -22.3632   -8.7512   20.1833 C   0  0  0  0  0  0  0  0  0  0  0  0
  -23.0588   -8.7746   22.4969 C   0  0  0  0  0  0  0  0  0  0  0  0
  -26.2378  -22.2947   25.0951 C   0  0  0  0  0  0  0  0  0  0  0  0
  -19.8125   -7.9920   23.0156 C   0  0  0  0  0  0  0  0  0  0  0  0
  -19.0230   -7.9641   24.1652 C   0  0  0  0  0  0  0  0  0  0  0  0
  -31.8109  -17.8070   24.1243 C   0  0  0  0  0  0  0  0  0  0  0  0
  -30.4532  -15.8087   24.1136 C   0  0  0  0  0  0  0  0  0  0  0  0
  -28.2486  -22.5877   23.7951 C   0  0  0  0  0  0  0  0  0  0  0  0
  -31.9639  -16.2525   22.2812 C   0  0  0  0  0  0  0  0  0  0  0  0
  -20.2369   -6.0289   24.9518 C   0  0  0  0  0  0  0  0  0  0  0  0
  -23.8427  -10.4859   20.9823 C   0  0  0  0  0  0  0  0  0  0  0  0
  -30.8548  -16.9930   24.7315 C   0  0  0  0  0  0  0  0  0  0  0  0
  -24.1963  -13.0089   20.8513 C   0  0  0  0  0  0  0  0  0  0  0  0
  -22.0428  -24.7849   17.4888 C   0  0  0  0  0  0  0  0  0  0  0  0
  -26.3400  -24.0207   23.3906 C   0  0  0  0  0  0  0  0  0  0  0  0
  -22.6908  -24.0639   18.5100 C   0  0  0  0  0  0  0  0  0  0  0  0
  -27.6587  -23.6493   23.0921 C   0  0  0  0  0  0  0  0  0  0  0  0
  -32.3655  -17.4368   22.8991 C   0  0  0  0  0  0  0  0  0  0  0  0
  -31.0077  -15.4384   22.8884 C   0  0  0  0  0  0  0  0  0  0  0  0
  -22.3338   -8.1885   21.4593 C   0  0  0  0  0  0  0  0  0  0  0  0
  -27.5410  -21.9133   24.7899 C   0  0  0  0  0  0  0  0  0  0  0  0
  -20.8141   -7.0383   22.8340 C   0  0  0  0  0  0  0  0  0  0  0  0
  -19.2353   -6.9826   25.1333 C   0  0  0  0  0  0  0  0  0  0  0  0
  -21.0263   -6.0568   23.8021 C   0  0  0  0  0  0  0  0  0  0  0  0
  -24.6227  -11.6722   20.7364 C   0  0  0  0  0  0  0  0  0  0  0  0
  -25.3007  -13.7520   20.5125 C   0  0  0  0  0  0  0  0  0  0  0  0
  -32.2975  -19.5652   20.3540 C   0  0  0  0  0  0  0  0  0  0  0  0
  -30.2695  -17.3843   26.0263 C   0  0  0  0  0  0  0  0  0  0  0  0
  -22.9164  -13.5322   21.2304 C   0  0  0  0  0  0  0  0  0  0  0  0
  -25.9188  -24.4404   20.2681 C   0  0  0  0  0  0  0  0  0  0  0  0
  -28.4657  -26.4239   20.5864 C   0  0  0  0  0  0  0  0  0  0  0  0
  -31.2543  -27.2985   22.3486 C   0  0  0  0  0  0  0  0  0  0  0  0
  -31.0517  -13.7204   21.0464 C   0  0  0  0  0  0  0  0  0  0  0  0
  -22.8057  -25.3846   16.3343 C   0  0  0  0  0  0  0  0  0  0  0  0
  -25.6909  -25.1706   22.6704 C   0  0  0  0  0  0  0  0  0  0  0  0
  -28.4599  -24.3543   22.0293 C   0  0  0  0  0  0  0  0  0  0  0  0
  -31.6791  -20.9356   20.2057 C   0  0  0  0  0  0  0  0  0  0  0  0
  -24.3028  -25.5215   16.5991 C   0  0  0  0  0  0  0  0  0  0  0  0
  -32.3056  -21.7297   21.3457 C   0  0  0  0  0  0  0  0  0  0  0  0
  -29.4576  -12.8610   17.9809 C   0  0  0  0  0  0  0  0  0  0  0  0
  -24.8587  -24.2342   17.1996 C   0  0  0  0  0  0  0  0  0  0  0  0
  -28.0063  -12.5973   18.3884 C   0  0  0  0  0  0  0  0  0  0  0  0
  -27.1780  -19.0940   26.7810 C   0  0  0  0  0  0  0  0  0  0  0  0
  -32.5685  -20.6872   22.4139 C   0  0  0  0  0  0  0  0  0  0  0  0
  -30.4420  -12.3794   19.0451 C   0  0  0  0  0  0  0  0  0  0  0  0
  -28.5190  -18.5682   27.2857 C   0  0  0  0  0  0  0  0  0  0  0  0
  -28.7378  -12.6230   20.8074 C   0  0  0  0  0  0  0  0  0  0  0  0
  -28.4924  -18.5999   24.8291 C   0  0  0  0  0  0  0  0  0  0  0  0
  -24.1971  -23.9237   18.5477 C   0  0  1  0  0  0  0  0  0  0  0  0
  -26.3155  -25.4508   21.3070 C   0  0  1  0  0  0  0  0  0  0  0  0
  -27.7068  -13.1498   19.7958 C   0  0  2  0  0  0  0  0  0  0  0  0
  -27.4948  -19.6136   25.3819 C   0  0  2  0  0  0  0  0  0  1  0  0
  -33.1545  -28.9376   22.3430 C   0  0  0  0  0  0  0  0  0  0  0  0
  -29.8100  -24.8541   18.3418 C   0  0  0  0  0  0  0  0  0  0  0  0
  -31.9888  -25.8833   19.0212 C   0  0  0  0  0  0  0  0  0  0  0  0
  -30.1247  -27.3319   18.2153 C   0  0  0  0  0  0  0  0  0  0  0  0
  -30.4490  -28.4181   24.9671 C   0  0  0  0  0  0  0  0  0  0  0  0
  -33.3886  -18.3068   22.2502 C   0  0  0  0  0  0  0  0  0  0  0  0
  -29.9641  -26.2620   20.5005 C   0  0  1  0  0  0  0  0  0  0  0  0
  -31.7501  -28.6440   22.8470 C   0  0  2  0  0  0  0  0  0  0  0  0
  -30.4564  -26.0681   19.0384 C   0  0  0  0  0  0  0  0  0  0  0  0
  -25.8984  -11.5690   20.3544 N   0  0  0  0  0  0  0  0  0  0  0  0
  -26.2831  -12.8503   20.2262 N   0  0  0  0  0  0  0  0  0  0  0  0
  -32.8056  -19.4863   21.6485 N   0  0  0  0  0  0  0  0  0  0  0  0
  -29.1776  -18.1267   26.0467 N   0  0  0  0  0  0  0  0  0  0  0  0
  -27.7791  -25.4682   21.3487 N   0  0  0  0  0  0  0  0  0  0  0  0
  -30.0986  -12.9465   20.3510 N   0  0  0  0  0  0  0  0  0  0  0  0
  -25.5175  -15.0821   20.4346 N   0  0  0  0  0  0  0  0  0  0  0  0
  -21.8924  -12.6290   21.5467 N   0  0  0  0  0  0  0  0  0  0  0  0
  -30.6011  -14.2343   22.2620 N   0  0  0  0  0  0  0  0  0  0  0  0
  -24.7575  -24.7573   19.5896 N   0  0  0  0  0  0  0  0  0  0  0  0
  -30.5392  -27.4202   21.1759 N   0  0  0  0  0  0  0  0  0  0  0  0
  -30.8491  -16.9822   27.1535 N   0  3  0  0  0  0  0  0  0  0  0  0
  -31.7707  -28.6688   24.3370 N   0  3  0  0  0  0  0  0  0  0  0  0
  -32.2890  -18.7011   19.4902 O   0  0  0  0  0  0  0  0  0  0  0  0
  -22.6827  -14.7640   21.2711 O   0  0  0  0  0  0  0  0  0  0  0  0
  -26.6156  -23.4475   20.0939 O   0  0  0  0  0  0  0  0  0  0  0  0
  -27.9251  -27.3678   20.0046 O   0  0  0  0  0  0  0  0  0  0  0  0
  -31.4821  -26.2446   22.9383 O   0  0  0  0  0  0  0  0  0  0  0  0
  -32.1750  -13.9358   20.5840 O   0  0  0  0  0  0  0  0  0  0  0  0
  -21.5975   -7.0678   21.6925 O   0  0  0  0  0  0  0  0  0  0  0  0
  -28.1262  -20.8866   25.4647 O   0  0  0  0  0  0  0  0  0  1  0  0
  -18.4781   -6.9568   26.2379 F   0  0  0  0  0  0  0  0  0  0  0  0
  -21.9878   -5.1386   23.6338 F   0  0  0  0  0  0  0  0  0  0  0  0
  1  2  1  0  0  0  0
  1  5  2  0  0  0  0
  2  6  2  0  0  0  0
  3  8  2  0  0  0  0
  3 18  1  0  0  0  0
  4  9  1  0  0  0  0
  4 18  2  0  0  0  0
  5 21  1  0  0  0  0
  6 23  1  0  0  0  0
  7 10  2  0  0  0  0
  7 22  1  0  0  0  0
  8 27  1  0  0  0  0
  9 27  2  0  0  0  0
 10 28  1  0  0  0  0
 11 12  2  0  0  0  0
 11 29  1  0  0  0  0
 12 30  1  0  0  0  0
 13 19  1  0  0  0  0
 13 25  2  0  0  0  0
 14 19  2  0  0  0  0
 14 26  1  0  0  0  0
 15 24  1  0  0  0  0
 15 28  2  0  0  0  0
 16 25  1  0  0  0  0
 16 26  2  0  0  0  0
 17 30  2  0  0  0  0
 17 31  1  0  0  0  0
 18 32  1  0  0  0  0
 19 35  1  0  0  0  0
 20 32  1  0  0  0  0
 20 33  2  0  0  0  0
 20 36  1  0  0  0  0
 21 23  2  0  0  0  0
 21 41  1  0  0  0  0
 22 24  2  0  0  0  0
 22 42  1  0  0  0  0
 23 56  1  0  0  0  0
 24 43  1  0  0  0  0
 25 65  1  0  0  0  0
 26 77  1  0  0  0  0
 27 88  1  0  0  0  0
 28 89  1  0  0  0  0
 29 31  2  0  0  0  0
 29 88  1  0  0  0  0
 30 90  1  0  0  0  0
 31 91  1  0  0  0  0
 32 69  2  0  0  0  0
 33 70  1  0  0  0  0
 33 75  1  0  0  0  0
 34 44  1  0  0  0  0
 34 71  1  0  0  0  0
 34 82  2  0  0  0  0
 35 72  1  0  0  0  0
 35 80  2  0  0  0  0
 36 76  1  0  0  0  0
 36 83  2  0  0  0  0
 37 57  1  0  0  0  0
 37 78  1  0  0  0  0
 37 84  2  0  0  0  0
 38 66  1  0  0  0  0
 38 73  1  0  0  0  0
 38 85  2  0  0  0  0
 39 67  1  0  0  0  0
 39 79  1  0  0  0  0
 39 86  2  0  0  0  0
 40 74  1  0  0  0  0
 40 77  1  0  0  0  0
 40 87  2  0  0  0  0
 41 45  1  0  0  0  0
 42 57  1  0  0  0  0
 43 73  1  0  0  0  0
 44 46  1  0  0  0  0
 45 48  1  0  0  0  0
 46 51  1  0  0  0  0
 47 49  1  0  0  0  0
 47 52  1  0  0  0  0
 48 56  1  0  0  0  0
 49 58  1  0  0  0  0
 50 53  1  0  0  0  0
 50 59  1  0  0  0  0
 51 71  1  0  0  0  0
 52 74  1  0  0  0  0
 53 72  1  0  0  0  0
 54 58  1  0  0  0  0
 54 74  1  0  0  0  0
 55 59  1  0  0  0  0
 55 72  1  0  0  0  0
 56 78  1  0  0  0  0
 57 73  1  0  0  0  0
 58 70  1  0  0  0  0
 59 89  1  0  0  0  0
 60 67  1  0  0  0  0
 61 68  1  0  0  0  0
 62 68  1  0  0  0  0
 63 68  1  0  0  0  0
 64 81  1  0  0  0  0
 65 71  1  0  0  0  0
 66 68  1  0  0  0  0
 66 79  1  0  0  0  0
 67 81  1  0  0  0  0
 69 70  1  0  0  0  0
M  CHG  2  80   1  81   1
M  ISO  4  40 100  59 101  77 100  89 101
M  END
> <Batch ID>
0153

> <Smiles>
CNC(C)C(=O)NC(C(=O)N1Cc2cc([101O:1][101CH:1]3CCN(C(=N)c4cc(CN5CCCC5=O)cc([100NH:0][100C:0](=O)N5CCCC(n6nc(-c7ccc(Oc8ccc(F)cc8F)cc7)c(C(N)=O)c6N)C5)c4)C3)ccc2CC1C(=O)NC1CCCc2ccccc21)C(C)(C)C

> <Shape>
0.209

> <Color>
0.180

> <Negative vol penalty>
0.000

$$$$

  -OEChem-04052303303D

 85 94  0     1  0  0  0  0  0999 V2000
  -22.6734  -37.6183   19.9768 C   0  0  0  0  0  0  0  0  0  0  0  0
  -23.3031  -36.6612   19.1877 C   0  0  0  0  0  0  0  0  0  0  0  0
  -22.6987  -10.6649   20.7231 C   0  0  0  0  0  0  0  0  0  0  0  0
  -24.5834   -9.1566   20.8239 C   0  0  0  0  0  0  0  0  0  0  0  0
  -22.7419  -37.5292   21.3665 C   0  0  0  0  0  0  0  0  0  0  0  0
  -24.0027  -35.6149   19.7879 C   0  0  0  0  0  0  0  0  0  0  0  0
  -25.6477  -28.7120   18.8076 C   0  0  0  0  0  0  0  0  0  0  0  0
  -21.8457   -9.6235   21.0886 C   0  0  0  0  0  0  0  0  0  0  0  0
  -23.7305   -8.1152   21.1895 C   0  0  0  0  0  0  0  0  0  0  0  0
  -26.7522  -27.8618   18.7772 C   0  0  0  0  0  0  0  0  0  0  0  0
  -21.5614   -6.0189   19.6625 C   0  0  0  0  0  0  0  0  0  0  0  0
  -21.7296   -4.7895   19.0254 C   0  0  0  0  0  0  0  0  0  0  0  0
  -26.7365  -27.7651   21.1875 C   0  0  0  0  0  0  0  0  0  0  0  0
  -29.3500  -19.7011   21.2713 C   0  0  0  0  0  0  0  0  0  0  0  0
  -22.1705   -3.7445   21.1587 C   0  0  0  0  0  0  0  0  0  0  0  0
  -27.4375  -19.4718   19.9704 C   0  0  0  0  0  0  0  0  0  0  0  0
  -24.0675  -10.4314   20.5907 C   0  0  0  0  0  0  0  0  0  0  0  0
  -24.9028  -12.2676   19.0292 C   0  0  0  0  0  0  0  0  0  0  0  0
  -23.4346  -36.4759   21.9841 C   0  0  0  0  0  0  0  0  0  0  0  0
  -25.0850  -29.1045   20.0306 C   0  0  0  0  0  0  0  0  0  0  0  0
  -24.0818  -35.5123   21.1872 C   0  0  0  0  0  0  0  0  0  0  0  0
  -25.6233  -28.6183   21.2306 C   0  0  0  0  0  0  0  0  0  0  0  0
  -28.2951  -18.8430   20.8460 C   0  0  0  0  0  0  0  0  0  0  0  0
  -22.3616   -8.3487   21.3218 C   0  0  0  0  0  0  0  0  0  0  0  0
  -27.2986  -27.3905   19.9673 C   0  0  0  0  0  0  0  0  0  0  0  0
  -21.6978   -6.1112   21.0476 C   0  0  0  0  0  0  0  0  0  0  0  0
  -22.0341   -3.6523   19.7735 C   0  0  0  0  0  0  0  0  0  0  0  0
  -22.0022   -4.9739   21.7957 C   0  0  0  0  0  0  0  0  0  0  0  0
  -24.9490  -11.5067   20.2127 C   0  0  0  0  0  0  0  0  0  0  0  0
  -29.2587  -20.9534   20.7042 C   0  0  0  0  0  0  0  0  0  0  0  0
  -25.9453  -13.1537   19.1498 C   0  0  0  0  0  0  0  0  0  0  0  0
  -23.9984  -12.1812   17.9200 C   0  0  0  0  0  0  0  0  0  0  0  0
  -24.6757  -31.8809   21.5232 C   0  0  0  0  0  0  0  0  0  0  0  0
  -29.2108  -24.4083   20.4587 C   0  0  0  0  0  0  0  0  0  0  0  0
  -23.0189  -30.0577   23.6334 C   0  0  0  0  0  0  0  0  0  0  0  0
  -23.3969  -26.8206   25.1813 C   0  0  0  0  0  0  0  0  0  0  0  0
  -28.9375  -16.7770   22.1366 C   0  0  0  0  0  0  0  0  0  0  0  0
  -23.5209  -36.4479   23.4896 C   0  0  0  0  0  0  0  0  0  0  0  0
  -23.8772  -30.0008   20.0455 C   0  0  0  0  0  0  0  0  0  0  0  0
  -25.0439  -28.9936   22.5692 C   0  0  0  0  0  0  0  0  0  0  0  0
  -23.9666  -35.0994   24.0492 C   0  0  0  0  0  0  0  0  0  0  0  0
  -31.0867  -21.9989   23.2993 C   0  0  0  0  0  0  0  0  0  0  0  0
  -30.2582  -23.2261   23.6652 C   0  0  0  0  0  0  0  0  0  0  0  0
  -29.7515  -13.3281   22.4821 C   0  0  0  0  0  0  0  0  0  0  0  0
  -25.1736  -34.5741   23.2784 C   0  0  0  0  0  0  0  0  0  0  0  0
  -31.4189  -21.9703   21.8052 C   0  0  0  0  0  0  0  0  0  0  0  0
  -28.5708  -12.6093   21.8251 C   0  0  0  0  0  0  0  0  0  0  0  0
  -29.0354  -23.3571   22.7647 C   0  0  0  0  0  0  0  0  0  0  0  0
  -29.3052  -14.5793   23.2365 C   0  0  0  0  0  0  0  0  0  0  0  0
  -27.3212  -14.8058   21.7937 C   0  0  0  0  0  0  0  0  0  0  0  0
  -24.8294  -34.3487   21.8012 C   0  0  1  0  0  0  0  0  0  0  0  0
  -30.1831  -22.1546   20.8971 C   0  0  2  0  0  0  0  0  0  0  0  0
  -23.7029  -30.7468   21.3648 C   0  0  1  0  0  0  0  0  0  0  0  0
  -27.7295  -13.5751   20.9677 C   0  0  2  0  0  0  0  0  0  0  0  0
  -21.6752  -25.2274   26.0727 C   0  0  0  0  0  0  0  0  0  0  0  0
  -23.5556  -31.4278   26.3064 C   0  0  0  0  0  0  0  0  0  0  0  0
  -23.3405  -29.1937   27.4156 C   0  0  0  0  0  0  0  0  0  0  0  0
  -21.3971  -30.1699   26.1938 C   0  0  0  0  0  0  0  0  0  0  0  0
  -24.3939  -24.6111   23.4834 C   0  0  0  0  0  0  0  0  0  0  0  0
  -28.4990  -25.6196   21.0059 C   0  0  0  0  0  0  0  0  0  1  0  0
  -23.3676  -29.2831   24.8814 C   0  0  1  0  0  0  0  0  0  0  0  0
  -22.5752  -25.5761   24.8976 C   0  0  2  0  0  0  0  0  0  0  0  0
  -22.9342  -30.0227   26.1785 C   0  0  0  0  0  0  0  0  0  0  0  0
  -25.9424  -11.8769   21.0252 N   0  0  0  0  0  0  0  0  0  0  0  0
  -26.5300  -12.8801   20.3512 N   0  0  0  0  0  0  0  0  0  0  0  0
  -23.8670  -29.8774   22.5316 N   0  0  0  0  0  0  0  0  0  0  0  0
  -29.4380  -23.3554   21.3507 N   0  0  0  0  0  0  0  0  0  0  0  0
  -28.5172  -15.4488   22.3602 N   0  0  0  0  0  0  0  0  0  0  0  0
  -26.4097  -14.1324   18.3442 N   0  0  0  0  0  0  0  0  0  0  0  0
  -22.9847  -11.2141   17.9582 N   0  0  0  0  0  0  0  0  0  0  0  0
  -28.1275  -17.4982   21.2601 N   0  0  0  0  0  0  0  0  0  0  0  0
  -24.0790  -33.1219   21.6386 N   0  0  0  0  0  0  0  0  0  0  0  0
  -22.7729  -27.9606   24.7205 N   0  0  0  0  0  0  0  0  0  0  0  0
  -23.4698  -24.4147   24.6299 N   0  3  0  0  0  0  0  0  0  0  0  0
  -24.0966  -12.9283   16.9172 O   0  0  0  0  0  0  0  0  0  0  0  0
  -25.8785  -31.6472   21.5410 O   0  0  0  0  0  0  0  0  0  0  0  0
  -29.5526  -24.3976   19.2731 O   0  0  0  0  0  0  0  0  0  0  0  0
  -22.0263  -30.7901   23.6339 O   0  0  0  0  0  0  0  0  0  0  0  0
  -24.4818  -26.7854   25.7577 O   0  0  0  0  0  0  0  0  0  0  0  0
  -29.9572  -17.2320   22.6611 O   0  0  0  0  0  0  0  0  0  0  0  0
  -21.5296   -7.3323   21.6787 O   0  0  0  0  0  0  0  0  0  0  0  0
  -28.3771  -26.5610   19.9405 O   0  0  0  0  0  0  0  0  0  1  0  0
  -22.1942   -2.4715   19.1618 F   0  0  0  0  0  0  0  0  0  0  0  0
  -22.1333   -5.0561   23.1268 F   0  0  0  0  0  0  0  0  0  0  0  0
  -27.9052  -21.0904   19.6641 S   0  0  0  0  0  0  0  0  0  0  0  0
  1  2  1  0  0  0  0
  1  5  2  0  0  0  0
  2  6  2  0  0  0  0
  3  8  2  0  0  0  0
  3 17  1  0  0  0  0
  4  9  1  0  0  0  0
  4 17  2  0  0  0  0
  5 19  1  0  0  0  0
  6 21  1  0  0  0  0
  7 10  2  0  0  0  0
  7 20  1  0  0  0  0
  8 24  1  0  0  0  0
  9 24  2  0  0  0  0
 10 25  1  0  0  0  0
 11 12  2  0  0  0  0
 11 26  1  0  0  0  0
 12 27  1  0  0  0  0
 13 22  1  0  0  0  0
 13 25  2  0  0  0  0
 14 23  1  0  0  0  0
 14 30  2  0  0  0  0
 15 27  2  0  0  0  0
 15 28  1  0  0  0  0
 16 23  2  0  0  0  0
 16 85  1  0  0  0  0
 17 29  1  0  0  0  0
 18 29  1  0  0  0  0
 18 31  2  0  0  0  0
 18 32  1  0  0  0  0
 19 21  2  0  0  0  0
 19 38  1  0  0  0  0
 20 22  2  0  0  0  0
 20 39  1  0  0  0  0
 21 51  1  0  0  0  0
 22 40  1  0  0  0  0
 23 71  1  0  0  0  0
 24 81  1  0  0  0  0
 25 82  1  0  0  0  0
 26 28  2  0  0  0  0
 26 81  1  0  0  0  0
 27 83  1  0  0  0  0
 28 84  1  0  0  0  0
 29 64  2  0  0  0  0
 30 52  1  0  0  0  0
 30 85  1  0  0  0  0
 31 65  1  0  0  0  0
 31 69  1  0  0  0  0
 32 70  1  0  0  0  0
 32 75  2  0  0  0  0
 33 53  1  0  0  0  0
 33 72  1  0  0  0  0
 33 76  2  0  0  0  0
 34 60  1  0  0  0  0
 34 67  1  0  0  0  0
 34 77  2  0  0  0  0
 35 61  1  0  0  0  0
 35 66  1  0  0  0  0
 35 78  2  0  0  0  0
 36 62  1  0  0  0  0
 36 73  1  0  0  0  0
 36 79  2  0  0  0  0
 37 68  1  0  0  0  0
 37 71  1  0  0  0  0
 37 80  2  0  0  0  0
 38 41  1  0  0  0  0
 39 53  1  0  0  0  0
 40 66  1  0  0  0  0
 41 45  1  0  0  0  0
 42 43  1  0  0  0  0
 42 46  1  0  0  0  0
 43 48  1  0  0  0  0
 44 47  1  0  0  0  0
 44 49  1  0  0  0  0
 45 51  1  0  0  0  0
 46 52  1  0  0  0  0
 47 54  1  0  0  0  0
 48 67  1  0  0  0  0
 49 68  1  0  0  0  0
 50 54  1  0  0  0  0
 50 68  1  0  0  0  0
 51 72  1  0  0  0  0
 52 67  1  0  0  0  0
 53 66  1  0  0  0  0
 54 65  1  0  0  0  0
 55 62  1  0  0  0  0
 56 63  1  0  0  0  0
 57 63  1  0  0  0  0
 58 63  1  0  0  0  0
 59 74  1  0  0  0  0
 60 82  1  0  0  0  0
 61 63  1  0  0  0  0
 61 73  1  0  0  0  0
 62 74  1  0  0  0  0
 64 65  1  0  0  0  0
M  CHG  1  74   1
M  ISO  4  37 100  60 101  71 100  82 101
M  END
> <Batch ID>
0153

> <Smiles>
CNC(C)C(=O)NC(C(=O)N1Cc2cc([101O:1][101CH2:1]C(=O)N3CCCCC3c3cc([100NH:0][100C:0](=O)N4CCCC(n5nc(-c6ccc(Oc7ccc(F)cc7F)cc6)c(C(N)=O)c5N)C4)cs3)ccc2CC1C(=O)NC1CCCc2ccccc21)C(C)(C)C

> <Shape>
0.258

> <Color>
0.114

> <Negative vol penalty>
0.000

$$$$

  -OEChem-04052303303D

 84 93  0     1  0  0  0  0  0999 V2000
  -19.3820  -27.3937   26.5910 C   0  0  0  0  0  0  0  0  0  0  0  0
  -20.6360  -27.0039   26.1317 C   0  0  0  0  0  0  0  0  0  0  0  0
  -24.5858   -9.3753   21.5535 C   0  0  0  0  0  0  0  0  0  0  0  0
  -23.0063  -10.7540   20.3529 C   0  0  0  0  0  0  0  0  0  0  0  0
  -18.4378  -27.8945   25.6957 C   0  0  0  0  0  0  0  0  0  0  0  0
  -20.9462  -27.1136   24.7766 C   0  0  0  0  0  0  0  0  0  0  0  0
  -26.3982  -28.4840   22.3470 C   0  0  0  0  0  0  0  0  0  0  0  0
  -23.5948   -8.4143   21.7536 C   0  0  0  0  0  0  0  0  0  0  0  0
  -22.0153   -9.7929   20.5530 C   0  0  0  0  0  0  0  0  0  0  0  0
  -27.4106  -27.6917   21.8076 C   0  0  0  0  0  0  0  0  0  0  0  0
  -22.1163   -5.9519   19.9693 C   0  0  0  0  0  0  0  0  0  0  0  0
  -22.4537   -4.6169   19.7468 C   0  0  0  0  0  0  0  0  0  0  0  0
  -26.5302  -28.0830   19.5960 C   0  0  0  0  0  0  0  0  0  0  0  0
  -28.7244  -20.2091   19.7354 C   0  0  0  0  0  0  0  0  0  0  0  0
  -21.9137   -4.0976   22.0437 C   0  0  0  0  0  0  0  0  0  0  0  0
  -28.2653  -18.8518   17.9053 C   0  0  0  0  0  0  0  0  0  0  0  0
  -24.2915  -10.5452   20.8532 C   0  0  0  0  0  0  0  0  0  0  0  0
  -26.2109  -11.6235   19.5644 C   0  0  0  0  0  0  0  0  0  0  0  0
  -18.7398  -28.0195   24.3305 C   0  0  0  0  0  0  0  0  0  0  0  0
  -25.4362  -29.0739   21.5146 C   0  0  0  0  0  0  0  0  0  0  0  0
  -20.0046  -27.6154   23.8621 C   0  0  0  0  0  0  0  0  0  0  0  0
  -25.5081  -28.8845   20.1272 C   0  0  0  0  0  0  0  0  0  0  0  0
  -28.1713  -18.9799   19.2736 C   0  0  0  0  0  0  0  0  0  0  0  0
  -22.3096   -8.6231   21.2533 C   0  0  0  0  0  0  0  0  0  0  0  0
  -27.4750  -27.4887   20.4322 C   0  0  0  0  0  0  0  0  0  0  0  0
  -21.6778   -6.3598   21.2291 C   0  0  0  0  0  0  0  0  0  0  0  0
  -22.3523   -3.6897   20.7839 C   0  0  0  0  0  0  0  0  0  0  0  0
  -21.5764   -5.4326   22.2662 C   0  0  0  0  0  0  0  0  0  0  0  0
  -25.3145  -11.5386   20.6466 C   0  0  0  0  0  0  0  0  0  0  0  0
  -29.2203  -20.9737   18.7023 C   0  0  0  0  0  0  0  0  0  0  0  0
  -26.9725  -12.7338   19.8357 C   0  0  0  0  0  0  0  0  0  0  0  0
  -29.6385  -24.6144   19.6613 C   0  0  0  0  0  0  0  0  0  0  0  0
  -26.3431  -10.7747   18.4165 C   0  0  0  0  0  0  0  0  0  0  0  0
  -29.8548  -22.2924   18.8778 C   0  0  0  0  0  0  0  0  0  0  0  0
  -22.2792  -28.8459   21.2229 C   0  0  0  0  0  0  0  0  0  0  0  0
  -22.6926  -31.2580   19.0938 C   0  0  0  0  0  0  0  0  0  0  0  0
  -24.7719  -32.8971   16.9405 C   0  0  0  0  0  0  0  0  0  0  0  0
  -27.4480  -18.0286   21.4914 C   0  0  0  0  0  0  0  0  0  0  0  0
  -17.6703  -28.5222   23.3934 C   0  0  0  0  0  0  0  0  0  0  0  0
  -24.3662  -29.9477   22.1097 C   0  0  0  0  0  0  0  0  0  0  0  0
  -24.5115  -29.5121   19.1884 C   0  0  0  0  0  0  0  0  0  0  0  0
  -18.2081  -28.9571   22.0326 C   0  0  0  0  0  0  0  0  0  0  0  0
  -27.3274  -15.5392   24.0340 C   0  0  0  0  0  0  0  0  0  0  0  0
  -19.1736  -27.9126   21.4815 C   0  0  0  0  0  0  0  0  0  0  0  0
  -26.8667  -14.2834   23.2904 C   0  0  0  0  0  0  0  0  0  0  0  0
  -27.2891  -24.5732   19.9192 C   0  0  0  0  0  0  0  0  0  0  0  0
  -26.6485  -16.7977   23.4965 C   0  0  0  0  0  0  0  0  0  0  0  0
  -27.7687  -23.1273   19.8684 C   0  0  0  0  0  0  0  0  0  0  0  0
  -26.2987  -15.7355   21.3015 C   0  0  0  0  0  0  0  0  0  0  0  0
  -20.3872  -27.7424   22.4034 C   0  0  1  0  0  0  0  0  0  0  0  0
  -28.5222  -25.3786   20.3268 C   0  0  2  0  0  0  0  0  0  1  0  0
  -23.1369  -30.0796   21.2159 C   0  0  1  0  0  0  0  0  0  0  0  0
  -27.0038  -14.4501   21.7643 C   0  0  2  0  0  0  0  0  0  0  0  0
  -24.8144  -34.8071   15.3134 C   0  0  0  0  0  0  0  0  0  0  0  0
  -21.1705  -29.5610   17.0656 C   0  0  0  0  0  0  0  0  0  0  0  0
  -22.0557  -31.0511   15.2589 C   0  0  0  0  0  0  0  0  0  0  0  0
  -20.5848  -31.9922   17.0403 C   0  0  0  0  0  0  0  0  0  0  0  0
  -26.8605  -34.3170   18.4836 C   0  0  0  0  0  0  0  0  0  0  0  0
  -22.9602  -31.3404   17.6103 C   0  0  1  0  0  0  0  0  0  0  0  0
  -25.0631  -34.3748   16.7501 C   0  0  2  0  0  0  0  0  0  0  0  0
  -21.7106  -30.9726   16.7614 C   0  0  0  0  0  0  0  0  0  0  0  0
  -25.4894  -12.5169   21.5390 N   0  0  0  0  0  0  0  0  0  0  0  0
  -26.5045  -13.2270   21.0181 N   0  0  0  0  0  0  0  0  0  0  0  0
  -29.1641  -23.2775   19.4233 N   0  0  0  0  0  0  0  0  0  0  0  0
  -23.4804  -30.3528   19.8189 N   0  0  0  0  0  0  0  0  0  0  0  0
  -26.8236  -16.8912   22.0455 N   0  0  0  0  0  0  0  0  0  0  0  0
  -27.9903  -13.3265   19.1760 N   0  0  0  0  0  0  0  0  0  0  0  0
  -25.4798   -9.6774   18.2939 N   0  0  0  0  0  0  0  0  0  0  0  0
  -27.5885  -17.9910   20.1045 N   0  0  0  0  0  0  0  0  0  0  0  0
  -21.3200  -28.8332   22.2176 N   0  0  0  0  0  0  0  0  0  0  0  0
  -23.4770  -32.6820   17.3627 N   0  0  0  0  0  0  0  0  0  0  0  0
  -31.1132  -22.4692   18.4861 N   0  3  0  0  0  0  0  0  0  0  0  0
  -26.4833  -34.6709   17.0909 N   0  3  0  0  0  0  0  0  0  0  0  0
  -30.7532  -25.0024   19.3632 O   0  0  0  0  0  0  0  0  0  0  0  0
  -27.2123  -10.9735   17.5342 O   0  0  0  0  0  0  0  0  0  0  0  0
  -22.4722  -27.9710   20.3869 O   0  0  0  0  0  0  0  0  0  0  0  0
  -21.8217  -31.9756   19.5920 O   0  0  0  0  0  0  0  0  0  0  0  0
  -25.6083  -32.0211   16.7318 O   0  0  0  0  0  0  0  0  0  0  0  0
  -27.8544  -18.9548   22.1979 O   0  0  0  0  0  0  0  0  0  0  0  0
  -21.3425   -7.6854   21.4482 O   0  0  0  0  0  0  0  0  0  0  0  0
  -28.4617  -26.7152   19.9031 O   0  0  0  0  0  0  0  0  0  1  0  0
  -22.6748   -2.4074   20.5697 F   0  0  0  0  0  0  0  0  0  0  0  0
  -21.1545   -5.8183   23.4783 F   0  0  0  0  0  0  0  0  0  0  0  0
  -29.0180  -20.2099   17.1832 S   0  0  0  0  0  0  0  0  0  0  0  0
  1  2  1  0  0  0  0
  1  5  2  0  0  0  0
  2  6  2  0  0  0  0
  3  8  2  0  0  0  0
  3 17  1  0  0  0  0
  4  9  1  0  0  0  0
  4 17  2  0  0  0  0
  5 19  1  0  0  0  0
  6 21  1  0  0  0  0
  7 10  2  0  0  0  0
  7 20  1  0  0  0  0
  8 24  1  0  0  0  0
  9 24  2  0  0  0  0
 10 25  1  0  0  0  0
 11 12  2  0  0  0  0
 11 26  1  0  0  0  0
 12 27  1  0  0  0  0
 13 22  1  0  0  0  0
 13 25  2  0  0  0  0
 14 23  1  0  0  0  0
 14 30  2  0  0  0  0
 15 27  2  0  0  0  0
 15 28  1  0  0  0  0
 16 23  2  0  0  0  0
 16 84  1  0  0  0  0
 17 29  1  0  0  0  0
 18 29  1  0  0  0  0
 18 31  2  0  0  0  0
 18 33  1  0  0  0  0
 19 21  2  0  0  0  0
 19 39  1  0  0  0  0
 20 22  2  0  0  0  0
 20 40  1  0  0  0  0
 21 50  1  0  0  0  0
 22 41  1  0  0  0  0
 23 69  1  0  0  0  0
 24 80  1  0  0  0  0
 25 81  1  0  0  0  0
 26 28  2  0  0  0  0
 26 80  1  0  0  0  0
 27 82  1  0  0  0  0
 28 83  1  0  0  0  0
 29 62  2  0  0  0  0
 30 34  1  0  0  0  0
 30 84  1  0  0  0  0
 31 63  1  0  0  0  0
 31 67  1  0  0  0  0
 32 51  1  0  0  0  0
 32 64  1  0  0  0  0
 32 74  2  0  0  0  0
 33 68  1  0  0  0  0
 33 75  2  0  0  0  0
 34 64  1  0  0  0  0
 34 72  2  0  0  0  0
 35 52  1  0  0  0  0
 35 70  1  0  0  0  0
 35 76  2  0  0  0  0
 36 59  1  0  0  0  0
 36 65  1  0  0  0  0
 36 77  2  0  0  0  0
 37 60  1  0  0  0  0
 37 71  1  0  0  0  0
 37 78  2  0  0  0  0
 38 66  1  0  0  0  0
 38 69  1  0  0  0  0
 38 79  2  0  0  0  0
 39 42  1  0  0  0  0
 40 52  1  0  0  0  0
 41 65  1  0  0  0  0
 42 44  1  0  0  0  0
 43 45  1  0  0  0  0
 43 47  1  0  0  0  0
 44 50  1  0  0  0  0
 45 53  1  0  0  0  0
 46 48  1  0  0  0  0
 46 51  1  0  0  0  0
 47 66  1  0  0  0  0
 48 64  1  0  0  0  0
 49 53  1  0  0  0  0
 49 66  1  0  0  0  0
 50 70  1  0  0  0  0
 51 81  1  0  0  0  0
 52 65  1  0  0  0  0
 53 63  1  0  0  0  0
 54 60  1  0  0  0  0
 55 61  1  0  0  0  0
 56 61  1  0  0  0  0
 57 61  1  0  0  0  0
 58 73  1  0  0  0  0
 59 61  1  0  0  0  0
 59 71  1  0  0  0  0
 60 73  1  0  0  0  0
 62 63  1  0  0  0  0
M  CHG  2  72   1  73   1
M  ISO  4  38 100  51 101  69 100  81 101
M  END
> <Batch ID>
0153

> <Smiles>
CNC(C)C(=O)NC(C(=O)N1Cc2cc([101O:1][101CH:1]3CCN(C(=N)c4cc([100NH:0][100C:0](=O)N5CCCC(n6nc(-c7ccc(Oc8ccc(F)cc8F)cc7)c(C(N)=O)c6N)C5)cs4)C3=O)ccc2CC1C(=O)NC1CCCc2ccccc21)C(C)(C)C

> <Shape>
0.276

> <Color>
0.124

> <Negative vol penalty>
0.000

$$$$

  -OEChem-04052303303D

 84 93  0     1  0  0  0  0  0999 V2000
  -30.0836  -30.8772   26.0909 C   0  0  0  0  0  0  0  0  0  0  0  0
  -29.6142  -29.8557   25.2713 C   0  0  0  0  0  0  0  0  0  0  0  0
  -24.0068   -9.1832   21.4558 C   0  0  0  0  0  0  0  0  0  0  0  0
  -23.6698  -11.0989   22.8888 C   0  0  0  0  0  0  0  0  0  0  0  0
  -29.1845  -31.7631   26.6830 C   0  0  0  0  0  0  0  0  0  0  0  0
  -28.2452  -29.7190   25.0443 C   0  0  0  0  0  0  0  0  0  0  0  0
  -27.1580  -28.8875   20.1686 C   0  0  0  0  0  0  0  0  0  0  0  0
  -23.4214   -8.3604   22.4181 C   0  0  0  0  0  0  0  0  0  0  0  0
  -23.0843  -10.2762   23.8511 C   0  0  0  0  0  0  0  0  0  0  0  0
  -27.3602  -27.5966   19.6823 C   0  0  0  0  0  0  0  0  0  0  0  0
  -20.3024   -7.5888   23.4716 C   0  0  0  0  0  0  0  0  0  0  0  0
  -19.3674   -6.6488   23.0386 C   0  0  0  0  0  0  0  0  0  0  0  0
  -24.9998  -27.1505   19.9021 C   0  0  0  0  0  0  0  0  0  0  0  0
  -28.3454  -19.6519   22.2618 C   0  0  0  0  0  0  0  0  0  0  0  0
  -20.7504   -4.8707   23.9121 C   0  0  0  0  0  0  0  0  0  0  0  0
  -24.1311  -10.5525   21.6912 C   0  0  0  0  0  0  0  0  0  0  0  0
  -24.0871  -12.0760   19.6455 C   0  0  0  0  0  0  0  0  0  0  0  0
  -27.8045  -31.6430   26.4554 C   0  0  0  0  0  0  0  0  0  0  0  0
  -25.8746  -29.3167   20.5362 C   0  0  0  0  0  0  0  0  0  0  0  0
  -27.3266  -30.6033   25.6350 C   0  0  0  0  0  0  0  0  0  0  0  0
  -24.7835  -28.4481   20.3904 C   0  0  0  0  0  0  0  0  0  0  0  0
  -29.0318  -18.4721   22.4636 C   0  0  0  0  0  0  0  0  0  0  0  0
  -22.9601   -8.9069   23.6157 C   0  0  0  0  0  0  0  0  0  0  0  0
  -26.2815  -26.7269   19.5517 C   0  0  0  0  0  0  0  0  0  0  0  0
  -21.4616   -7.1698   24.1248 C   0  0  0  0  0  0  0  0  0  0  0  0
  -19.5913   -5.2897   23.2589 C   0  0  0  0  0  0  0  0  0  0  0  0
  -21.6855   -5.8108   24.3450 C   0  0  0  0  0  0  0  0  0  0  0  0
  -24.7362  -11.4028   20.6978 C   0  0  0  0  0  0  0  0  0  0  0  0
  -29.6823  -18.0063   21.3908 C   0  0  0  0  0  0  0  0  0  0  0  0
  -25.0941  -12.7431   18.9918 C   0  0  0  0  0  0  0  0  0  0  0  0
  -28.5391  -20.0409   20.9352 C   0  0  0  0  0  0  0  0  0  0  0  0
  -26.7503  -24.4755   19.9787 C   0  0  0  0  0  0  0  0  0  1  0  0
  -22.6981  -12.0964   19.2908 C   0  0  0  0  0  0  0  0  0  0  0  0
  -26.9588  -23.2018   19.6242 C   0  0  0  0  0  0  0  0  0  0  0  0
  -27.2516  -22.1887   20.6901 C   0  0  0  0  0  0  0  0  0  0  0  0
  -24.5275  -30.3003   23.2421 C   0  0  0  0  0  0  0  0  0  0  0  0
  -21.9938  -30.8988   21.3071 C   0  0  0  0  0  0  0  0  0  0  0  0
  -20.3401  -30.2095   18.4024 C   0  0  0  0  0  0  0  0  0  0  0  0
  -30.4644  -14.7342   20.7114 C   0  0  0  0  0  0  0  0  0  0  0  0
  -26.8677  -32.5956   27.1552 C   0  0  0  0  0  0  0  0  0  0  0  0
  -25.6690  -30.7211   21.0339 C   0  0  0  0  0  0  0  0  0  0  0  0
  -29.4439  -17.3498   23.3555 C   0  0  0  0  0  0  0  0  0  0  0  0
  -23.3826  -28.8670   20.7519 C   0  0  0  0  0  0  0  0  0  0  0  0
  -25.4606  -32.6109   26.5635 C   0  0  0  0  0  0  0  0  0  0  0  0
  -29.7811  -12.4681   18.0639 C   0  0  0  0  0  0  0  0  0  0  0  0
  -24.9592  -31.1875   26.3419 C   0  0  0  0  0  0  0  0  0  0  0  0
  -28.3507  -12.0012   18.3394 C   0  0  0  0  0  0  0  0  0  0  0  0
  -30.5692  -12.6651   19.3570 C   0  0  0  0  0  0  0  0  0  0  0  0
  -28.4976  -13.0816   20.6223 C   0  0  0  0  0  0  0  0  0  0  0  0
  -25.8507  -30.4375   25.3447 C   0  0  1  0  0  0  0  0  0  0  0  0
  -30.2256  -16.8074   22.1089 C   0  0  1  0  0  0  0  0  0  0  0  0
  -24.3981  -30.8814   21.8625 C   0  0  1  0  0  0  0  0  0  0  0  0
  -27.6446  -12.9232   19.3519 C   0  0  2  0  0  0  0  0  0  0  0  0
  -18.2776  -30.8305   17.1148 C   0  0  0  0  0  0  0  0  0  0  0  0
  -20.3018  -29.2204   23.2124 C   0  0  0  0  0  0  0  0  0  0  0  0
  -18.5518  -29.0841   21.4272 C   0  0  0  0  0  0  0  0  0  0  0  0
  -19.1865  -31.2993   22.3826 C   0  0  0  0  0  0  0  0  0  0  0  0
  -21.9287  -31.2002   16.1103 C   0  0  0  0  0  0  0  0  0  0  0  0
  -20.7959  -30.1083   20.8389 C   0  0  1  0  0  0  0  0  0  0  0  0
  -19.7544  -31.1182   17.3368 C   0  0  2  0  0  0  0  0  0  0  0  0
  -19.7356  -29.9192   21.9602 C   0  0  0  0  0  0  0  0  0  0  0  0
  -26.0537  -11.6221   20.7152 N   0  0  0  0  0  0  0  0  0  0  0  0
  -26.2405  -12.4405   19.6658 N   0  0  0  0  0  0  0  0  0  0  0  0
  -23.2339  -30.2480   21.2399 N   0  0  0  0  0  0  0  0  0  0  0  0
  -29.8456  -13.5542   20.2694 N   0  0  0  0  0  0  0  0  0  0  0  0
  -25.1018  -13.5531   17.9119 N   0  0  0  0  0  0  0  0  0  0  0  0
  -21.7987  -11.3551   20.0692 N   0  0  0  0  0  0  0  0  0  0  0  0
  -28.0607  -21.1641   20.2183 N   0  0  0  0  0  0  0  0  0  0  0  0
  -25.5514  -30.8495   23.9901 N   0  0  0  0  0  0  0  0  0  0  0  0
  -20.2945  -30.7917   19.6515 N   0  0  0  0  0  0  0  0  0  0  0  0
  -29.7129  -15.5318   21.5681 N   0  0  0  0  0  0  0  0  0  0  0  0
  -20.4698  -30.9279   16.0434 N   0  3  0  0  0  0  0  0  0  0  0  0
  -22.2695  -12.7395   18.3027 O   0  0  0  0  0  0  0  0  0  0  0  0
  -26.7965  -22.3153   21.8217 O   0  0  0  0  0  0  0  0  0  0  0  0
  -23.7547  -29.4200   23.6018 O   0  0  0  0  0  0  0  0  0  0  0  0
  -21.8360  -32.0537   21.7106 O   0  0  0  0  0  0  0  0  0  0  0  0
  -20.7895  -29.0932   18.1524 O   0  0  0  0  0  0  0  0  0  0  0  0
  -31.6037  -15.0645   20.3647 O   0  0  0  0  0  0  0  0  0  0  0  0
  -26.9138  -22.7800   18.3109 O   0  0  0  0  0  0  0  0  0  0  0  0
  -22.3886   -8.1044   24.5548 O   0  0  0  0  0  0  0  0  0  0  0  0
  -26.4763  -25.4662   19.0780 O   0  0  0  0  0  0  0  0  0  1  0  0
  -18.6925   -4.3872   22.8444 F   0  0  0  0  0  0  0  0  0  0  0  0
  -22.7966   -5.4023   24.9731 F   0  0  0  0  0  0  0  0  0  0  0  0
  -29.5559  -18.9193   20.0408 S   0  0  0  0  0  0  0  0  0  0  0  0
  1  2  1  0  0  0  0
  1  5  2  0  0  0  0
  2  6  2  0  0  0  0
  3  8  2  0  0  0  0
  3 16  1  0  0  0  0
  4  9  1  0  0  0  0
  4 16  2  0  0  0  0
  5 18  1  0  0  0  0
  6 20  1  0  0  0  0
  7 10  2  0  0  0  0
  7 19  1  0  0  0  0
  8 23  1  0  0  0  0
  9 23  2  0  0  0  0
 10 24  1  0  0  0  0
 11 12  2  0  0  0  0
 11 25  1  0  0  0  0
 12 26  1  0  0  0  0
 13 21  1  0  0  0  0
 13 24  2  0  0  0  0
 14 22  1  0  0  0  0
 14 31  2  0  0  0  0
 15 26  2  0  0  0  0
 15 27  1  0  0  0  0
 16 28  1  0  0  0  0
 17 28  1  0  0  0  0
 17 30  2  0  0  0  0
 17 33  1  0  0  0  0
 18 20  2  0  0  0  0
 18 40  1  0  0  0  0
 19 21  2  0  0  0  0
 19 41  1  0  0  0  0
 20 50  1  0  0  0  0
 21 43  1  0  0  0  0
 22 29  2  0  0  0  0
 22 42  1  0  0  0  0
 23 80  1  0  0  0  0
 24 81  1  0  0  0  0
 25 27  2  0  0  0  0
 25 80  1  0  0  0  0
 26 82  1  0  0  0  0
 27 83  1  0  0  0  0
 28 62  2  0  0  0  0
 29 51  1  0  0  0  0
 29 84  1  0  0  0  0
 30 63  1  0  0  0  0
 30 66  1  0  0  0  0
 31 68  1  0  0  0  0
 31 84  1  0  0  0  0
 32 34  2  0  0  0  0
 32 81  1  0  0  0  0
 33 67  1  0  0  0  0
 33 73  2  0  0  0  0
 34 35  1  0  0  0  0
 34 79  1  0  0  0  0
 35 68  1  0  0  0  0
 35 74  2  0  0  0  0
 36 52  1  0  0  0  0
 36 69  1  0  0  0  0
 36 75  2  0  0  0  0
 37 59  1  0  0  0  0
 37 64  1  0  0  0  0
 37 76  2  0  0  0  0
 38 60  1  0  0  0  0
 38 70  1  0  0  0  0
 38 77  2  0  0  0  0
 39 65  1  0  0  0  0
 39 71  1  0  0  0  0
 39 78  2  0  0  0  0
 40 44  1  0  0  0  0
 41 52  1  0  0  0  0
 42 51  1  0  0  0  0
 43 64  1  0  0  0  0
 44 46  1  0  0  0  0
 45 47  1  0  0  0  0
 45 48  1  0  0  0  0
 46 50  1  0  0  0  0
 47 53  1  0  0  0  0
 48 65  1  0  0  0  0
 49 53  1  0  0  0  0
 49 65  1  0  0  0  0
 50 69  1  0  0  0  0
 51 71  1  0  0  0  0
 52 64  1  0  0  0  0
 53 63  1  0  0  0  0
 54 60  1  0  0  0  0
 55 61  1  0  0  0  0
 56 61  1  0  0  0  0
 57 61  1  0  0  0  0
 58 72  1  0  0  0  0
 59 61  1  0  0  0  0
 59 70  1  0  0  0  0
 60 72  1  0  0  0  0
 62 63  1  0  0  0  0
M  CHG  1  72   1
M  ISO  4  32 101  39 100  71 100  81 101
M  END
> <Batch ID>
0153

> <Smiles>
CNC(C)C(=O)NC(C(=O)N1Cc2cc([101O:1][101CH2:1]C(=O)C(=O)Nc3cc4c(s3)C([100NH:0][100C:0](=O)N3CCCC(n5nc(-c6ccc(Oc7ccc(F)cc7F)cc6)c(C(N)=O)c5N)C3)C4)ccc2CC1C(=O)NC1CCCc2ccccc21)C(C)(C)C

> <Shape>
0.328

> <Color>
0.102

> <Negative vol penalty>
0.000

$$$$

  -OEChem-04052303303D

 82 91  0     1  0  0  0  0  0999 V2000
  -24.4564  -30.5789   31.6541 C   0  0  0  0  0  0  0  0  0  0  0  0
  -25.1726  -29.4310   31.3306 C   0  0  0  0  0  0  0  0  0  0  0  0
  -23.1444   -9.7179   20.0327 C   0  0  0  0  0  0  0  0  0  0  0  0
  -23.8287   -9.9110   22.3417 C   0  0  0  0  0  0  0  0  0  0  0  0
  -23.6599  -31.1968   30.6910 C   0  0  0  0  0  0  0  0  0  0  0  0
  -25.0918  -28.8995   30.0439 C   0  0  0  0  0  0  0  0  0  0  0  0
  -29.5619  -26.1041   26.9279 C   0  0  0  0  0  0  0  0  0  0  0  0
  -22.4266   -8.5626   20.3420 C   0  0  0  0  0  0  0  0  0  0  0  0
  -23.1108   -8.7557   22.6510 C   0  0  0  0  0  0  0  0  0  0  0  0
  -29.8607  -24.7582   26.7204 C   0  0  0  0  0  0  0  0  0  0  0  0
  -19.8893   -7.9019   23.2108 C   0  0  0  0  0  0  0  0  0  0  0  0
  -19.0961   -7.9213   24.3580 C   0  0  0  0  0  0  0  0  0  0  0  0
  -31.6063  -19.0825   22.0802 C   0  0  0  0  0  0  0  0  0  0  0  0
  -31.5762  -17.7780   21.5080 C   0  0  0  0  0  0  0  0  0  0  0  0
  -28.6848  -24.8279   24.6152 C   0  0  0  0  0  0  0  0  0  0  0  0
  -20.3686   -6.0807   25.2689 C   0  0  0  0  0  0  0  0  0  0  0  0
  -23.8455  -10.3921   21.0325 C   0  0  0  0  0  0  0  0  0  0  0  0
  -24.1176  -12.9119   20.7421 C   0  0  0  0  0  0  0  0  0  0  0  0
  -23.5768  -30.6782   29.3891 C   0  0  0  0  0  0  0  0  0  0  0  0
  -28.8117  -26.8204   25.9841 C   0  0  0  0  0  0  0  0  0  0  0  0
  -24.2923  -29.5103   29.0628 C   0  0  0  0  0  0  0  0  0  0  0  0
  -28.3801  -26.1835   24.8118 C   0  0  0  0  0  0  0  0  0  0  0  0
  -22.4098   -8.0816   21.6511 C   0  0  0  0  0  0  0  0  0  0  0  0
  -29.4197  -24.1191   25.5653 C   0  0  0  0  0  0  0  0  0  0  0  0
  -20.9222   -6.9719   23.0926 C   0  0  0  0  0  0  0  0  0  0  0  0
  -19.3358   -7.0107   25.3870 C   0  0  0  0  0  0  0  0  0  0  0  0
  -21.1618   -6.0613   24.1217 C   0  0  0  0  0  0  0  0  0  0  0  0
  -24.5877  -11.5852   20.7135 C   0  0  0  0  0  0  0  0  0  0  0  0
  -30.4287  -19.3924   22.7242 C   0  0  0  0  0  0  0  0  0  0  0  0
  -25.1987  -13.6676   20.3594 C   0  0  0  0  0  0  0  0  0  0  0  0
  -30.3766  -17.1403   21.7368 C   0  0  0  0  0  0  0  0  0  0  0  0
  -22.8197  -13.4160   21.0841 C   0  0  0  0  0  0  0  0  0  0  0  0
  -26.0074  -28.3165   26.0155 C   0  0  0  0  0  0  0  0  0  0  0  0
  -26.9014  -29.2301   23.0342 C   0  0  0  0  0  0  0  0  0  0  0  0
  -28.7924  -28.6153   20.2606 C   0  0  0  0  0  0  0  0  0  0  0  0
  -30.6237  -14.8934   20.6248 C   0  0  0  0  0  0  0  0  0  0  0  0
  -22.6655  -31.3539   28.3953 C   0  0  0  0  0  0  0  0  0  0  0  0
  -28.5207  -28.2787   26.2101 C   0  0  0  0  0  0  0  0  0  0  0  0
  -27.5889  -26.9131   23.7582 C   0  0  0  0  0  0  0  0  0  0  0  0
  -22.9283  -30.9412   26.9493 C   0  0  0  0  0  0  0  0  0  0  0  0
  -29.6575  -12.2844   18.4029 C   0  0  0  0  0  0  0  0  0  0  0  0
  -23.0633  -29.4255   26.8429 C   0  0  0  0  0  0  0  0  0  0  0  0
  -28.2137  -11.9790   18.8083 C   0  0  0  0  0  0  0  0  0  0  0  0
  -31.0653  -20.9941   24.5418 C   0  0  0  0  0  0  0  0  0  0  0  0
  -30.5260  -12.6261   19.6123 C   0  0  0  0  0  0  0  0  0  0  0  0
  -28.5549  -13.3865   20.8795 C   0  0  0  0  0  0  0  0  0  0  0  0
  -30.8152  -22.9704   23.2250 C   0  0  0  0  0  0  0  0  0  0  0  0
  -24.2499  -28.9178   27.6710 C   0  0  1  0  0  0  0  0  0  0  0  0
  -30.0698  -20.6338   23.4331 C   0  0  1  0  0  0  0  0  0  0  0  0
  -27.3106  -28.7751   25.4248 C   0  0  1  0  0  0  0  0  0  0  0  0
  -27.6263  -13.1000   19.6881 C   0  0  2  0  0  0  0  0  0  0  0  0
  -30.9224  -22.5076   24.6705 C   0  0  2  0  0  0  0  0  0  1  0  0
  -32.0785  -23.1529   25.4194 C   0  0  0  0  0  0  0  0  0  0  0  0
  -29.2818  -29.5172   17.9705 C   0  0  0  0  0  0  0  0  0  0  0  0
  -24.2389  -28.1262   22.0331 C   0  0  0  0  0  0  0  0  0  0  0  0
  -25.1704  -28.1784   19.7097 C   0  0  0  0  0  0  0  0  0  0  0  0
  -24.9221  -30.2988   20.9999 C   0  0  0  0  0  0  0  0  0  0  0  0
  -31.6497  -29.0330   20.9090 C   0  0  0  0  0  0  0  0  0  0  0  0
  -26.7352  -28.6597   21.6464 C   0  0  1  0  0  0  0  0  0  0  0  0
  -29.6923  -29.5169   19.4348 C   0  0  2  0  0  0  0  0  0  0  0  0
  -25.2799  -28.8012   21.1178 C   0  0  0  0  0  0  0  0  0  0  0  0
  -25.8677  -11.4996   20.3418 N   0  0  0  0  0  0  0  0  0  0  0  0
  -26.2111  -12.7821   20.1333 N   0  0  0  0  0  0  0  0  0  0  0  0
  -27.3243  -28.3360   24.0280 N   0  0  0  0  0  0  0  0  0  0  0  0
  -29.9091  -13.6985   20.3961 N   0  0  0  0  0  0  0  0  0  0  0  0
  -25.3726  -14.9964   20.1974 N   0  0  0  0  0  0  0  0  0  0  0  0
  -21.8241  -12.5018   21.4548 N   0  0  0  0  0  0  0  0  0  0  0  0
  -29.9234  -15.8533   21.3547 N   0  0  0  0  0  0  0  0  0  0  0  0
  -25.4947  -29.1672   26.9761 N   0  0  0  0  0  0  0  0  0  0  0  0
  -27.7395  -29.3129   20.8137 N   0  0  0  0  0  0  0  0  0  0  0  0
  -30.0672  -21.8578   22.5375 N   0  3  0  0  0  0  0  0  0  0  0  0
  -31.1078  -29.0598   19.5261 N   0  3  0  0  0  0  0  0  0  0  0  0
  -22.5460  -14.6396   21.0458 O   0  0  0  0  0  0  0  0  0  0  0  0
  -25.5035  -27.2690   25.6274 O   0  0  0  0  0  0  0  0  0  0  0  0
  -26.6716  -30.4265   23.2279 O   0  0  0  0  0  0  0  0  0  0  0  0
  -29.0005  -27.4118   20.3979 O   0  0  0  0  0  0  0  0  0  0  0  0
  -31.7620  -15.0638   20.1808 O   0  0  0  0  0  0  0  0  0  0  0  0
  -21.7093   -6.9544   21.9534 O   0  0  0  0  0  0  0  0  0  0  0  0
  -29.7094  -22.8053   25.3607 O   0  0  0  0  0  0  0  0  0  1  0  0
  -18.5750   -7.0305   26.4893 F   0  0  0  0  0  0  0  0  0  0  0  0
  -22.1534   -5.1662   24.0144 F   0  0  0  0  0  0  0  0  0  0  0  0
  -29.2933  -18.1135   22.6376 S   0  0  0  0  0  0  0  0  0  0  0  0
  1  2  1  0  0  0  0
  1  5  2  0  0  0  0
  2  6  2  0  0  0  0
  3  8  2  0  0  0  0
  3 17  1  0  0  0  0
  4  9  1  0  0  0  0
  4 17  2  0  0  0  0
  5 19  1  0  0  0  0
  6 21  1  0  0  0  0
  7 10  2  0  0  0  0
  7 20  1  0  0  0  0
  8 23  1  0  0  0  0
  9 23  2  0  0  0  0
 10 24  1  0  0  0  0
 11 12  2  0  0  0  0
 11 25  1  0  0  0  0
 12 26  1  0  0  0  0
 13 14  1  0  0  0  0
 13 29  2  0  0  0  0
 14 31  2  0  0  0  0
 15 22  1  0  0  0  0
 15 24  2  0  0  0  0
 16 26  2  0  0  0  0
 16 27  1  0  0  0  0
 17 28  1  0  0  0  0
 18 28  1  0  0  0  0
 18 30  2  0  0  0  0
 18 32  1  0  0  0  0
 19 21  2  0  0  0  0
 19 37  1  0  0  0  0
 20 22  2  0  0  0  0
 20 38  1  0  0  0  0
 21 48  1  0  0  0  0
 22 39  1  0  0  0  0
 23 78  1  0  0  0  0
 24 79  1  0  0  0  0
 25 27  2  0  0  0  0
 25 78  1  0  0  0  0
 26 80  1  0  0  0  0
 27 81  1  0  0  0  0
 28 62  2  0  0  0  0
 29 49  1  0  0  0  0
 29 82  1  0  0  0  0
 30 63  1  0  0  0  0
 30 66  1  0  0  0  0
 31 68  1  0  0  0  0
 31 82  1  0  0  0  0
 32 67  1  0  0  0  0
 32 73  2  0  0  0  0
 33 50  1  0  0  0  0
 33 69  1  0  0  0  0
 33 74  2  0  0  0  0
 34 59  1  0  0  0  0
 34 64  1  0  0  0  0
 34 75  2  0  0  0  0
 35 60  1  0  0  0  0
 35 70  1  0  0  0  0
 35 76  2  0  0  0  0
 36 65  1  0  0  0  0
 36 68  1  0  0  0  0
 36 77  2  0  0  0  0
 37 40  1  0  0  0  0
 38 50  1  0  0  0  0
 39 64  1  0  0  0  0
 40 42  1  0  0  0  0
 41 43  1  0  0  0  0
 41 45  1  0  0  0  0
 42 48  1  0  0  0  0
 43 51  1  0  0  0  0
 44 49  1  0  0  0  0
 44 52  1  0  0  0  0
 45 65  1  0  0  0  0
 46 51  1  0  0  0  0
 46 65  1  0  0  0  0
 47 52  1  0  0  0  0
 47 71  1  0  0  0  0
 48 69  1  0  0  0  0
 49 71  1  0  0  0  0
 50 64  1  0  0  0  0
 51 63  1  0  0  0  0
 52 53  1  0  0  0  0
 52 79  1  0  0  0  0
 54 60  1  0  0  0  0
 55 61  1  0  0  0  0
 56 61  1  0  0  0  0
 57 61  1  0  0  0  0
 58 72  1  0  0  0  0
 59 61  1  0  0  0  0
 59 70  1  0  0  0  0
 60 72  1  0  0  0  0
 62 63  1  0  0  0  0
M  CHG  2  71   1  72   1
M  ISO  4  36 100  52 101  68 100  79 101
M  END
> <Batch ID>
0153

> <Smiles>
CNC(C)C(=O)NC(C(=O)N1Cc2cc([101O:1][101C:1]3(C)CNC(c4ccc([100NH:0][100C:0](=O)N5CCCC(n6nc(-c7ccc(Oc8ccc(F)cc8F)cc7)c(C(N)=O)c6N)C5)s4)C3)ccc2CC1C(=O)NC1CCCc2ccccc21)C(C)(C)C

> <Shape>
0.240

> <Color>
0.191

> <Negative vol penalty>
0.000

$$$$

  -OEChem-04052303303D

 83 91  0     1  0  0  0  0  0999 V2000
  -28.0118  -31.0632   22.1608 C   0  0  0  0  0  0  0  0  0  0  0  0
  -27.9543  -30.0578   23.1206 C   0  0  0  0  0  0  0  0  0  0  0  0
  -22.9994  -15.6190   20.9245 C   0  0  0  0  0  0  0  0  0  0  0  0
  -22.5261  -14.2146   19.0164 C   0  0  0  0  0  0  0  0  0  0  0  0
  -27.4983  -30.8371   20.8844 C   0  0  0  0  0  0  0  0  0  0  0  0
  -27.3822  -28.8259   22.8049 C   0  0  0  0  0  0  0  0  0  0  0  0
  -29.1063  -23.3269   24.8771 C   0  0  0  0  0  0  0  0  0  0  0  0
  -21.9437  -16.4582   20.5687 C   0  0  0  0  0  0  0  0  0  0  0  0
  -21.4703  -15.0538   18.6606 C   0  0  0  0  0  0  0  0  0  0  0  0
  -28.6177  -22.5142   25.8991 C   0  0  0  0  0  0  0  0  0  0  0  0
  -18.4231  -16.6268   17.4528 C   0  0  0  0  0  0  0  0  0  0  0  0
  -17.2168  -16.0318   17.0837 C   0  0  0  0  0  0  0  0  0  0  0  0
  -27.2996  -21.2928   24.2897 C   0  0  0  0  0  0  0  0  0  0  0  0
  -30.3921  -17.8336   25.6651 C   0  0  0  0  0  0  0  0  0  0  0  0
  -17.0666  -14.9877   19.2573 C   0  0  0  0  0  0  0  0  0  0  0  0
  -23.2907  -14.4971   20.1483 C   0  0  0  0  0  0  0  0  0  0  0  0
  -24.3259  -12.5037   21.3576 C   0  0  0  0  0  0  0  0  0  0  0  0
  -26.9283  -29.5985   20.5500 C   0  0  0  0  0  0  0  0  0  0  0  0
  -28.6861  -23.1353   23.5530 C   0  0  0  0  0  0  0  0  0  0  0  0
  -26.8594  -28.5835   21.5233 C   0  0  0  0  0  0  0  0  0  0  0  0
  -27.7864  -22.1027   23.2523 C   0  0  0  0  0  0  0  0  0  0  0  0
  -31.3590  -17.2364   24.8056 C   0  0  0  0  0  0  0  0  0  0  0  0
  -21.1791  -16.1756   19.4368 C   0  0  0  0  0  0  0  0  0  0  0  0
  -27.7120  -21.4989   25.6060 C   0  0  0  0  0  0  0  0  0  0  0  0
  -18.9513  -16.4022   18.7242 C   0  0  0  0  0  0  0  0  0  0  0  0
  -16.5385  -15.2122   17.9859 C   0  0  0  0  0  0  0  0  0  0  0  0
  -18.2730  -15.5827   19.6264 C   0  0  0  0  0  0  0  0  0  0  0  0
  -24.3815  -13.6301   20.5150 C   0  0  0  0  0  0  0  0  0  0  0  0
  -30.7735  -16.5783   23.7465 C   0  0  0  0  0  0  0  0  0  0  0  0
  -25.6152  -12.0311   21.3845 C   0  0  0  0  0  0  0  0  0  0  0  0
  -29.1044  -17.6095   25.2299 C   0  0  0  0  0  0  0  0  0  0  0  0
  -23.2086  -11.9354   22.0536 C   0  0  0  0  0  0  0  0  0  0  0  0
  -31.4104  -15.8311   22.6316 C   0  0  0  0  0  0  0  0  0  0  0  0
  -27.1298  -24.9000   21.4158 C   0  0  0  0  0  0  0  0  0  0  0  0
  -27.8248  -22.4221   19.4411 C   0  0  0  0  0  0  0  0  0  0  0  0
  -28.5924  -19.1140   19.1032 C   0  0  0  0  0  0  0  0  0  0  0  0
  -30.9270  -14.5682   20.5592 C   0  0  0  0  0  0  0  0  0  0  0  0
  -26.3436  -29.4170   19.1717 C   0  0  0  0  0  0  0  0  0  0  0  0
  -29.2430  -24.0033   22.4580 C   0  0  0  0  0  0  0  0  0  0  0  0
  -27.3195  -21.8427   21.8442 C   0  0  0  0  0  0  0  0  0  0  0  0
  -26.0921  -27.9568   18.8042 C   0  0  0  0  0  0  0  0  0  0  0  0
  -29.5974  -11.8564   18.7220 C   0  0  0  0  0  0  0  0  0  0  0  0
  -25.3961  -27.2301   19.9507 C   0  0  0  0  0  0  0  0  0  0  0  0
  -28.1045  -11.8882   19.0605 C   0  0  0  0  0  0  0  0  0  0  0  0
  -30.1792  -13.2630   18.5886 C   0  0  0  0  0  0  0  0  0  0  0  0
  -28.4363  -14.1838   20.0626 C   0  0  0  0  0  0  0  0  0  0  0  0
  -26.2689  -27.2254   21.2115 C   0  0  1  0  0  0  0  0  0  0  0  0
  -28.3524  -24.0487   21.2203 C   0  0  1  0  0  0  0  0  0  0  0  0
  -27.8194  -12.7921   20.2767 C   0  0  1  0  0  0  0  0  0  0  0  0
  -29.0658  -17.3694   17.3625 C   0  0  0  0  0  0  0  0  0  0  0  0
  -28.1179  -20.4095   28.7923 C   0  0  0  0  0  0  0  0  0  0  0  0
  -24.8493  -22.2765   18.7814 C   0  0  0  0  0  0  0  0  0  0  0  0
  -25.2430  -19.9943   17.8302 C   0  0  0  0  0  0  0  0  0  0  0  0
  -26.3691  -21.9768   16.8180 C   0  0  0  0  0  0  0  0  0  0  0  0
  -31.3105  -18.6241   20.1666 C   0  0  0  0  0  0  0  0  0  0  0  0
  -27.8665  -18.4591   27.2227 C   0  0  0  0  0  0  0  0  0  0  0  0
  -27.1432  -21.1272   19.0699 C   0  0  1  0  0  0  0  0  0  0  0  0
  -29.6674  -18.4065   18.2980 C   0  0  2  0  0  0  0  0  0  0  0  0
  -28.1876  -19.9470   27.3442 C   0  0  1  0  0  0  0  0  0  1  0  0
  -25.9083  -21.3496   18.1518 C   0  0  0  0  0  0  0  0  0  0  0  0
  -25.6091  -13.8594   20.0410 N   0  0  0  0  0  0  0  0  0  0  0  0
  -26.3367  -12.8706   20.5877 N   0  0  0  0  0  0  0  0  0  0  0  0
  -27.8878  -22.7222   20.8093 N   0  0  0  0  0  0  0  0  0  0  0  0
  -29.8743  -14.0514   19.7840 N   0  0  0  0  0  0  0  0  0  0  0  0
  -32.6948  -17.3118   25.0140 N   0  0  0  0  0  0  0  0  0  0  0  0
  -26.1909  -10.9835   22.0119 N   0  0  0  0  0  0  0  0  0  0  0  0
  -21.9548  -12.5463   21.9160 N   0  0  0  0  0  0  0  0  0  0  0  0
  -27.9417  -18.0526   25.8378 N   0  0  0  0  0  0  0  0  0  0  0  0
  -30.5326  -15.2703   21.7035 N   0  0  0  0  0  0  0  0  0  0  0  0
  -27.3151  -26.2320   21.0983 N   0  0  0  0  0  0  0  0  0  0  0  0
  -28.1747  -20.2752   18.4881 N   0  0  0  0  0  0  0  0  0  0  0  0
  -30.6272  -17.7187   19.2072 N   0  3  0  0  0  0  0  0  0  0  0  0
  -23.3222  -10.9258   22.7893 O   0  0  0  0  0  0  0  0  0  0  0  0
  -32.6357  -15.7828   22.5671 O   0  0  0  0  0  0  0  0  0  0  0  0
  -26.0946  -24.3861   21.8231 O   0  0  0  0  0  0  0  0  0  0  0  0
  -28.2906  -23.1372   18.5506 O   0  0  0  0  0  0  0  0  0  0  0  0
  -28.1633  -18.6780   20.1692 O   0  0  0  0  0  0  0  0  0  0  0  0
  -32.1160  -14.3878   20.2781 O   0  0  0  0  0  0  0  0  0  0  0  0
  -20.1486  -16.9942   19.0895 O   0  0  0  0  0  0  0  0  0  0  0  0
  -27.2330  -20.7046   26.6018 O   0  0  0  0  0  0  0  0  0  1  0  0
  -15.3793  -14.6422   17.6318 F   0  0  0  0  0  0  0  0  0  0  0  0
  -18.7748  -15.3642   20.8496 F   0  0  0  0  0  0  0  0  0  0  0  0
  -29.0648  -16.6821   23.7909 S   0  0  0  0  0  0  0  0  0  0  0  0
  1  2  1  0  0  0  0
  1  5  2  0  0  0  0
  2  6  2  0  0  0  0
  3  8  2  0  0  0  0
  3 16  1  0  0  0  0
  4  9  1  0  0  0  0
  4 16  2  0  0  0  0
  5 18  1  0  0  0  0
  6 20  1  0  0  0  0
  7 10  2  0  0  0  0
  7 19  1  0  0  0  0
  8 23  1  0  0  0  0
  9 23  2  0  0  0  0
 10 24  1  0  0  0  0
 11 12  2  0  0  0  0
 11 25  1  0  0  0  0
 12 26  1  0  0  0  0
 13 21  1  0  0  0  0
 13 24  2  0  0  0  0
 14 22  1  0  0  0  0
 14 31  2  0  0  0  0
 15 26  2  0  0  0  0
 15 27  1  0  0  0  0
 16 28  1  0  0  0  0
 17 28  1  0  0  0  0
 17 30  2  0  0  0  0
 17 32  1  0  0  0  0
 18 20  2  0  0  0  0
 18 38  1  0  0  0  0
 19 21  2  0  0  0  0
 19 39  1  0  0  0  0
 20 47  1  0  0  0  0
 21 40  1  0  0  0  0
 22 29  2  0  0  0  0
 22 65  1  0  0  0  0
 23 79  1  0  0  0  0
 24 80  1  0  0  0  0
 25 27  2  0  0  0  0
 25 79  1  0  0  0  0
 26 81  1  0  0  0  0
 27 82  1  0  0  0  0
 28 61  2  0  0  0  0
 29 33  1  0  0  0  0
 29 83  1  0  0  0  0
 30 62  1  0  0  0  0
 30 66  1  0  0  0  0
 31 68  1  0  0  0  0
 31 83  1  0  0  0  0
 32 67  1  0  0  0  0
 32 73  2  0  0  0  0
 33 69  1  0  0  0  0
 33 74  2  0  0  0  0
 34 48  1  0  0  0  0
 34 70  1  0  0  0  0
 34 75  2  0  0  0  0
 35 57  1  0  0  0  0
 35 63  1  0  0  0  0
 35 76  2  0  0  0  0
 36 58  1  0  0  0  0
 36 71  1  0  0  0  0
 36 77  2  0  0  0  0
 37 64  1  0  0  0  0
 37 69  1  0  0  0  0
 37 78  2  0  0  0  0
 38 41  1  0  0  0  0
 39 48  1  0  0  0  0
 40 63  1  0  0  0  0
 41 43  1  0  0  0  0
 42 44  1  0  0  0  0
 42 45  1  0  0  0  0
 43 47  1  0  0  0  0
 44 49  1  0  0  0  0
 45 64  1  0  0  0  0
 46 49  1  0  0  0  0
 46 64  1  0  0  0  0
 47 70  1  0  0  0  0
 48 63  1  0  0  0  0
 49 62  1  0  0  0  0
 50 58  1  0  0  0  0
 51 59  1  0  0  0  0
 52 60  1  0  0  0  0
 53 60  1  0  0  0  0
 54 60  1  0  0  0  0
 55 72  1  0  0  0  0
 56 59  1  0  0  0  0
 56 68  1  0  0  0  0
 57 60  1  0  0  0  0
 57 71  1  0  0  0  0
 58 72  1  0  0  0  0
 59 80  1  0  0  0  0
 61 62  1  0  0  0  0
M  CHG  1  72   1
M  ISO  4  37 100  59 101  69 100  80 101
M  END
> <Batch ID>
0153

> <Smiles>
CNC(C)C(=O)NC(C(=O)N1Cc2cc([101O:1][101CH:1](C)CNc3cc(N)c(C(=O)[100NH:0][100C:0](=O)N4CCCC(n5nc(-c6ccc(Oc7ccc(F)cc7F)cc6)c(C(N)=O)c5N)C4)s3)ccc2CC1C(=O)NC1CCCc2ccccc21)C(C)(C)C

> <Shape>
0.195

> <Color>
0.099

> <Negative vol penalty>
0.000

$$$$

  -OEChem-04052303303D

 84 92  0     1  0  0  0  0  0999 V2000
  -23.1467  -20.0762   19.0265 C   0  0  0  0  0  0  0  0  0  0  0  0
  -23.9983  -21.1745   18.9630 C   0  0  0  0  0  0  0  0  0  0  0  0
  -26.6148  -12.6029   21.7343 C   0  0  0  0  0  0  0  0  0  0  0  0
  -26.0005  -13.9213   19.8052 C   0  0  0  0  0  0  0  0  0  0  0  0
  -21.7691  -20.2684   19.1219 C   0  0  0  0  0  0  0  0  0  0  0  0
  -23.4726  -22.4656   18.9936 C   0  0  0  0  0  0  0  0  0  0  0  0
  -26.0365  -25.5339   22.1012 C   0  0  0  0  0  0  0  0  0  0  0  0
  -25.3361  -12.0464   21.7613 C   0  0  0  0  0  0  0  0  0  0  0  0
  -24.7217  -13.3647   19.8321 C   0  0  0  0  0  0  0  0  0  0  0  0
  -27.2468  -26.0455   21.6351 C   0  0  0  0  0  0  0  0  0  0  0  0
  -23.6291   -9.6448   20.1026 C   0  0  0  0  0  0  0  0  0  0  0  0
  -23.5260   -8.2658   20.2848 C   0  0  0  0  0  0  0  0  0  0  0  0
  -30.2846  -22.8216   20.0522 C   0  0  0  0  0  0  0  0  0  0  0  0
  -26.1507  -28.1236   21.0880 C   0  0  0  0  0  0  0  0  0  0  0  0
  -22.2427   -8.6280   22.2995 C   0  0  0  0  0  0  0  0  0  0  0  0
  -26.9470  -13.5404   20.7563 C   0  0  0  0  0  0  0  0  0  0  0  0
  -30.0328  -23.6870   18.9486 C   0  0  0  0  0  0  0  0  0  0  0  0
  -29.3928  -13.6287   20.0367 C   0  0  0  0  0  0  0  0  0  0  0  0
  -21.2269  -21.5626   19.1634 C   0  0  0  0  0  0  0  0  0  0  0  0
  -24.8700  -26.3108   22.0540 C   0  0  0  0  0  0  0  0  0  0  0  0
  -22.0863  -22.6753   19.0882 C   0  0  0  0  0  0  0  0  0  0  0  0
  -24.9274  -27.6205   21.5565 C   0  0  0  0  0  0  0  0  0  0  0  0
  -24.3895  -12.4273   20.8102 C   0  0  0  0  0  0  0  0  0  0  0  0
  -27.3034  -27.3395   21.1258 C   0  0  0  0  0  0  0  0  0  0  0  0
  -23.0391  -10.5155   21.0188 C   0  0  0  0  0  0  0  0  0  0  0  0
  -22.8328   -7.7574   21.3833 C   0  0  0  0  0  0  0  0  0  0  0  0
  -22.3459  -10.0071   22.1173 C   0  0  0  0  0  0  0  0  0  0  0  0
  -28.2676  -14.1160   20.7282 C   0  0  0  0  0  0  0  0  0  0  0  0
  -30.3911  -14.5252   20.3303 C   0  0  0  0  0  0  0  0  0  0  0  0
  -29.7729  -21.5592   19.8471 C   0  0  0  0  0  0  0  0  0  0  0  0
  -29.3384  -23.0529   17.9418 C   0  0  0  0  0  0  0  0  0  0  0  0
  -30.4729  -25.0960   18.9073 C   0  0  0  0  0  0  0  0  0  0  0  0
  -29.5239  -12.4695   19.2032 C   0  0  0  0  0  0  0  0  0  0  0  0
  -22.0578  -26.0486   20.5957 C   0  0  0  0  0  0  0  0  0  0  0  0
  -21.3395  -28.6778   22.3547 C   0  0  0  0  0  0  0  0  0  0  0  0
  -22.4523  -31.4280   24.0413 C   0  0  0  0  0  0  0  0  0  0  0  0
  -30.3665  -20.2810   21.9352 C   0  0  0  0  0  0  0  0  0  0  0  0
  -19.7280  -21.7203   19.2192 C   0  0  0  0  0  0  0  0  0  0  0  0
  -23.5778  -25.7538   22.5854 C   0  0  0  0  0  0  0  0  0  0  0  0
  -23.7078  -28.5025   21.5027 C   0  0  0  0  0  0  0  0  0  0  0  0
  -19.2776  -23.1216   19.6236 C   0  0  0  0  0  0  0  0  0  0  0  0
  -31.8029  -17.5719   23.7448 C   0  0  0  0  0  0  0  0  0  0  0  0
  -20.0544  -24.1778   18.8440 C   0  0  0  0  0  0  0  0  0  0  0  0
  -31.1663  -16.3336   23.1096 C   0  0  0  0  0  0  0  0  0  0  0  0
  -30.8176  -18.7363   23.8287 C   0  0  0  0  0  0  0  0  0  0  0  0
  -29.5265  -17.8500   21.9269 C   0  0  0  0  0  0  0  0  0  0  0  0
  -21.5559  -24.0915   19.1437 C   0  0  1  0  0  0  0  0  0  0  0  0
  -22.3469  -26.4510   22.0143 C   0  0  1  0  0  0  0  0  0  0  0  0
  -30.4997  -16.6713   21.7616 C   0  0  2  0  0  0  0  0  0  0  0  0
  -21.6267  -33.4085   25.3427 C   0  0  0  0  0  0  0  0  0  0  0  0
  -20.5052  -30.0365   19.7531 C   0  0  0  0  0  0  0  0  0  0  0  0
  -20.6072  -32.2336   20.9493 C   0  0  0  0  0  0  0  0  0  0  0  0
  -18.9936  -30.4834   21.6948 C   0  0  0  0  0  0  0  0  0  0  0  0
  -29.0512  -29.7645   19.2950 C   0  0  0  0  0  0  0  0  0  0  0  0
  -23.8861  -30.5676   26.4831 C   0  0  0  0  0  0  0  0  0  0  0  0
  -29.8530  -27.4808   18.7470 C   0  0  0  0  0  0  0  0  0  0  0  0
  -21.4609  -30.1683   22.1480 C   0  0  1  0  0  0  0  0  0  0  0  0
  -22.1146  -31.9701   25.4184 C   0  0  2  0  0  0  0  0  0  0  0  0
  -20.4145  -30.7134   21.1354 C   0  0  0  0  0  0  0  0  0  0  0  0
  -28.6657  -28.2804   19.3112 C   0  0  2  0  0  0  0  0  0  1  0  0
  -28.5262  -15.2351   21.4100 N   0  0  0  0  0  0  0  0  0  0  0  0
  -29.8253  -15.4584   21.1484 N   0  0  0  0  0  0  0  0  0  0  0  0
  -22.4665  -27.9104   22.0282 N   0  0  0  0  0  0  0  0  0  0  0  0
  -30.2290  -19.0017   22.5142 N   0  0  0  0  0  0  0  0  0  0  0  0
  -31.6890  -14.5984   19.9661 N   0  0  0  0  0  0  0  0  0  0  0  0
  -28.9418  -23.5903   16.7599 N   0  0  0  0  0  0  0  0  0  0  0  0
  -28.3990  -11.6569   19.0071 N   0  0  0  0  0  0  0  0  0  0  0  0
  -29.7943  -20.4056   20.6696 N   0  0  0  0  0  0  0  0  0  0  0  0
  -29.5423  -26.0496   18.7813 N   0  0  0  0  0  0  0  0  0  0  0  0
  -21.8505  -24.6930   20.4266 N   0  0  0  0  0  0  0  0  0  0  0  0
  -21.3805  -30.7721   23.4736 N   0  0  0  0  0  0  0  0  0  0  0  0
  -31.7789  -25.3491   18.9953 N   0  3  0  0  0  0  0  0  0  0  0  0
  -23.3148  -31.9268   26.3008 N   0  3  0  0  0  0  0  0  0  0  0  0
  -30.6108  -12.1542   18.6621 O   0  0  0  0  0  0  0  0  0  0  0  0
  -22.0237  -26.9050   19.7198 O   0  0  0  0  0  0  0  0  0  0  0  0
  -20.2860  -28.2124   22.7964 O   0  0  0  0  0  0  0  0  0  0  0  0
  -23.5554  -31.5753   23.5196 O   0  0  0  0  0  0  0  0  0  0  0  0
  -30.9726  -21.1906   22.5073 O   0  0  0  0  0  0  0  0  0  0  0  0
  -27.5396  -28.0945   18.4546 O   0  0  0  0  0  0  0  0  0  0  0  0
  -23.1417  -11.8843   20.8361 O   0  0  0  0  0  0  0  0  0  0  0  0
  -28.4834  -27.8411   20.6696 O   0  0  0  0  0  0  0  0  0  1  0  0
  -22.7325   -6.4331   21.5573 F   0  0  0  0  0  0  0  0  0  0  0  0
  -21.7759  -10.8386   23.0002 F   0  0  0  0  0  0  0  0  0  0  0  0
  -28.9927  -21.4211   18.3290 S   0  0  0  0  0  0  0  0  0  0  0  0
  1  2  1  0  0  0  0
  1  5  2  0  0  0  0
  2  6  2  0  0  0  0
  3  8  2  0  0  0  0
  3 16  1  0  0  0  0
  4  9  1  0  0  0  0
  4 16  2  0  0  0  0
  5 19  1  0  0  0  0
  6 21  1  0  0  0  0
  7 10  2  0  0  0  0
  7 20  1  0  0  0  0
  8 23  1  0  0  0  0
  9 23  2  0  0  0  0
 10 24  1  0  0  0  0
 11 12  2  0  0  0  0
 11 25  1  0  0  0  0
 12 26  1  0  0  0  0
 13 17  1  0  0  0  0
 13 30  2  0  0  0  0
 14 22  1  0  0  0  0
 14 24  2  0  0  0  0
 15 26  2  0  0  0  0
 15 27  1  0  0  0  0
 16 28  1  0  0  0  0
 17 31  2  0  0  0  0
 17 32  1  0  0  0  0
 18 28  1  0  0  0  0
 18 29  2  0  0  0  0
 18 33  1  0  0  0  0
 19 21  2  0  0  0  0
 19 38  1  0  0  0  0
 20 22  2  0  0  0  0
 20 39  1  0  0  0  0
 21 47  1  0  0  0  0
 22 40  1  0  0  0  0
 23 80  1  0  0  0  0
 24 81  1  0  0  0  0
 25 27  2  0  0  0  0
 25 80  1  0  0  0  0
 26 82  1  0  0  0  0
 27 83  1  0  0  0  0
 28 61  2  0  0  0  0
 29 62  1  0  0  0  0
 29 65  1  0  0  0  0
 30 68  1  0  0  0  0
 30 84  1  0  0  0  0
 31 66  1  0  0  0  0
 31 84  1  0  0  0  0
 32 69  1  0  0  0  0
 32 72  2  0  0  0  0
 33 67  1  0  0  0  0
 33 74  2  0  0  0  0
 34 48  1  0  0  0  0
 34 70  1  0  0  0  0
 34 75  2  0  0  0  0
 35 57  1  0  0  0  0
 35 63  1  0  0  0  0
 35 76  2  0  0  0  0
 36 58  1  0  0  0  0
 36 71  1  0  0  0  0
 36 77  2  0  0  0  0
 37 64  1  0  0  0  0
 37 68  1  0  0  0  0
 37 78  2  0  0  0  0
 38 41  1  0  0  0  0
 39 48  1  0  0  0  0
 40 63  1  0  0  0  0
 41 43  1  0  0  0  0
 42 44  1  0  0  0  0
 42 45  1  0  0  0  0
 43 47  1  0  0  0  0
 44 49  1  0  0  0  0
 45 64  1  0  0  0  0
 46 49  1  0  0  0  0
 46 64  1  0  0  0  0
 47 70  1  0  0  0  0
 48 63  1  0  0  0  0
 49 62  1  0  0  0  0
 50 58  1  0  0  0  0
 51 59  1  0  0  0  0
 52 59  1  0  0  0  0
 53 59  1  0  0  0  0
 54 60  1  0  0  0  0
 55 73  1  0  0  0  0
 56 60  1  0  0  0  0
 56 69  1  0  0  0  0
 57 59  1  0  0  0  0
 57 71  1  0  0  0  0
 58 73  1  0  0  0  0
 60 79  1  0  0  0  0
 60 81  1  0  0  0  0
 61 62  1  0  0  0  0
M  CHG  2  72   1  73   1
M  ISO  4  37 100  60 101  68 100  81 101
M  END
> <Batch ID>
0153

> <Smiles>
CNC(C)C(=O)NC(C(=O)N1Cc2cc([101O:1][101C:1](C)(O)CNC(=N)c3cc([100NH:0][100C:0](=O)N4CCCC(n5nc(-c6ccc(Oc7ccc(F)cc7F)cc6)c(C(N)=O)c5N)C4)sc3N)ccc2CC1C(=O)NC1CCCc2ccccc21)C(C)(C)C

> <Shape>
0.266

> <Color>
0.063

> <Negative vol penalty>
0.000

$$$$
