
  -OEChem-04052303333D

 85 94  0     1  0  0  0  0  0999 V2000
  -23.2892  -38.1465   20.3117 C   0  0  0  0  0  0  0  0  0  0  0  0
  -23.7338  -37.1599   19.4375 C   0  0  0  0  0  0  0  0  0  0  0  0
  -24.6783   -9.0144   21.2222 C   0  0  0  0  0  0  0  0  0  0  0  0
  -22.9250  -10.5675   20.6298 C   0  0  0  0  0  0  0  0  0  0  0  0
  -23.5730  -38.0493   21.6733 C   0  0  0  0  0  0  0  0  0  0  0  0
  -24.4634  -36.0758   19.9243 C   0  0  0  0  0  0  0  0  0  0  0  0
  -25.5629  -29.0985   18.7308 C   0  0  0  0  0  0  0  0  0  0  0  0
  -23.7228   -8.0262   21.4594 C   0  0  0  0  0  0  0  0  0  0  0  0
  -21.9695   -9.5793   20.8669 C   0  0  0  0  0  0  0  0  0  0  0  0
  -26.6018  -28.1908   18.5296 C   0  0  0  0  0  0  0  0  0  0  0  0
  -21.8359   -5.8963   19.6329 C   0  0  0  0  0  0  0  0  0  0  0  0
  -22.0809   -4.6217   19.1220 C   0  0  0  0  0  0  0  0  0  0  0  0
  -28.6420  -20.0439   20.2899 C   0  0  0  0  0  0  0  0  0  0  0  0
  -26.9645  -28.0871   20.9123 C   0  0  0  0  0  0  0  0  0  0  0  0
  -22.0137   -3.7119   21.3591 C   0  0  0  0  0  0  0  0  0  0  0  0
  -24.2793  -10.2850   20.8075 C   0  0  0  0  0  0  0  0  0  0  0  0
  -28.8802  -20.9184   19.1905 C   0  0  0  0  0  0  0  0  0  0  0  0
  -25.9206  -11.5823   19.3476 C   0  0  0  0  0  0  0  0  0  0  0  0
  -24.2982  -36.9586   22.1784 C   0  0  0  0  0  0  0  0  0  0  0  0
  -25.2235  -29.5163   20.0257 C   0  0  0  0  0  0  0  0  0  0  0  0
  -24.7584  -35.9646   21.2937 C   0  0  0  0  0  0  0  0  0  0  0  0
  -25.9191  -28.9982   21.1274 C   0  0  0  0  0  0  0  0  0  0  0  0
  -22.3685   -8.3086   21.2817 C   0  0  0  0  0  0  0  0  0  0  0  0
  -27.3047  -27.6872   19.6202 C   0  0  0  0  0  0  0  0  0  0  0  0
  -21.6799   -6.0787   21.0070 C   0  0  0  0  0  0  0  0  0  0  0  0
  -22.1698   -3.5296   19.9850 C   0  0  0  0  0  0  0  0  0  0  0  0
  -21.7687   -4.9865   21.8701 C   0  0  0  0  0  0  0  0  0  0  0  0
  -25.2658  -11.3064   20.5629 C   0  0  0  0  0  0  0  0  0  0  0  0
  -26.7538  -12.6349   19.6377 C   0  0  0  0  0  0  0  0  0  0  0  0
  -27.9903  -18.8933   19.9040 C   0  0  0  0  0  0  0  0  0  0  0  0
  -28.4016  -20.4027   18.0060 C   0  0  0  0  0  0  0  0  0  0  0  0
  -29.3597  -24.6373   19.7279 C   0  0  0  0  0  0  0  0  0  0  0  0
  -29.5609  -22.2188   19.3246 C   0  0  0  0  0  0  0  0  0  0  0  0
  -25.7874  -10.9441   18.0706 C   0  0  0  0  0  0  0  0  0  0  0  0
  -25.2046  -32.3056   21.5499 C   0  0  0  0  0  0  0  0  0  0  0  0
  -23.8100  -30.5662   23.9061 C   0  0  0  0  0  0  0  0  0  0  0  0
  -23.3156  -27.5127   25.3479 C   0  0  0  0  0  0  0  0  0  0  0  0
  -27.7152  -17.5701   22.0300 C   0  0  0  0  0  0  0  0  0  0  0  0
  -24.6212  -36.9210   23.6511 C   0  0  0  0  0  0  0  0  0  0  0  0
  -24.0827  -30.4756   20.2277 C   0  0  0  0  0  0  0  0  0  0  0  0
  -25.5807  -29.3993   22.5391 C   0  0  0  0  0  0  0  0  0  0  0  0
  -25.0779  -35.5488   24.1397 C   0  0  0  0  0  0  0  0  0  0  0  0
  -28.0523  -14.6801   24.0821 C   0  0  0  0  0  0  0  0  0  0  0  0
  -26.1175  -34.9627   23.1897 C   0  0  0  0  0  0  0  0  0  0  0  0
  -27.4113  -13.5674   23.2495 C   0  0  0  0  0  0  0  0  0  0  0  0
  -27.0123  -24.7394   19.4690 C   0  0  0  0  0  0  0  0  0  0  0  0
  -27.3135  -16.0073   23.9198 C   0  0  0  0  0  0  0  0  0  0  0  0
  -27.3819  -23.2814   19.7159 C   0  0  0  0  0  0  0  0  0  0  0  0
  -26.4855  -15.3354   21.6990 C   0  0  0  0  0  0  0  0  0  0  0  0
  -25.5313  -34.7608   21.7871 C   0  0  1  0  0  0  0  0  0  0  0  0
  -28.1892  -25.5394   20.0263 C   0  0  2  0  0  0  0  0  0  1  0  0
  -24.1602  -31.2254   21.5540 C   0  0  1  0  0  0  0  0  0  0  0  0
  -27.2338  -13.9947   21.7793 C   0  0  2  0  0  0  0  0  0  0  0  0
  -22.1590  -26.4127   27.2843 C   0  0  0  0  0  0  0  0  0  0  0  0
  -25.9637  -31.6245   25.7906 C   0  0  0  0  0  0  0  0  0  0  0  0
  -25.3512  -29.8066   27.3993 C   0  0  0  0  0  0  0  0  0  0  0  0
  -23.6667  -31.5375   26.7756 C   0  0  0  0  0  0  0  0  0  0  0  0
  -21.6576  -25.8390   23.5566 C   0  0  0  0  0  0  0  0  0  0  0  0
  -24.3111  -29.7700   25.0867 C   0  0  1  0  0  0  0  0  0  0  0  0
  -22.0534  -26.8149   25.8215 C   0  0  2  0  0  0  0  0  0  0  0  0
  -24.8311  -30.6784   26.2365 C   0  0  0  0  0  0  0  0  0  0  0  0
  -25.6501  -12.1182   21.5515 N   0  0  0  0  0  0  0  0  0  0  0  0
  -26.5554  -12.9144   20.9578 N   0  0  0  0  0  0  0  0  0  0  0  0
  -28.8470  -23.3027   19.5707 N   0  0  0  0  0  0  0  0  0  0  0  0
  -24.4614  -30.3447   22.6844 N   0  0  0  0  0  0  0  0  0  0  0  0
  -27.1866  -16.3498   22.5016 N   0  0  0  0  0  0  0  0  0  0  0  0
  -27.6295  -13.3393   18.8899 N   0  0  0  0  0  0  0  0  0  0  0  0
  -28.4665  -20.9800   16.7790 N   0  0  0  0  0  0  0  0  0  0  0  0
  -24.8859   -9.8781   17.9471 N   0  0  0  0  0  0  0  0  0  0  0  0
  -27.5640  -17.7723   20.6586 N   0  0  0  0  0  0  0  0  0  0  0  0
  -24.7006  -33.5763   21.7522 N   0  0  0  0  0  0  0  0  0  0  0  0
  -23.2197  -28.8825   25.4735 N   0  0  0  0  0  0  0  0  0  0  0  0
  -30.8832  -22.2802   19.1975 N   0  3  0  0  0  0  0  0  0  0  0  0
  -21.8056  -25.5876   25.0133 N   0  3  0  0  0  0  0  0  0  0  0  0
  -30.5382  -24.9275   19.6321 O   0  0  0  0  0  0  0  0  0  0  0  0
  -26.4603  -11.2978   17.0728 O   0  0  0  0  0  0  0  0  0  0  0  0
  -26.3808  -32.0082   21.3775 O   0  0  0  0  0  0  0  0  0  0  0  0
  -22.8704  -31.3504   24.0605 O   0  0  0  0  0  0  0  0  0  0  0  0
  -24.2906  -26.9034   24.9137 O   0  0  0  0  0  0  0  0  0  0  0  0
  -28.2858  -18.3640   22.7824 O   0  0  0  0  0  0  0  0  0  0  0  0
  -21.4359   -7.3445   21.5127 O   0  0  0  0  0  0  0  0  0  0  0  0
  -28.3196  -26.8016   19.4266 O   0  0  0  0  0  0  0  0  0  1  0  0
  -22.4036   -2.3054   19.4940 F   0  0  0  0  0  0  0  0  0  0  0  0
  -21.6185   -5.1553   23.1910 F   0  0  0  0  0  0  0  0  0  0  0  0
  -27.6684  -18.8704   18.2223 S   0  0  0  0  0  0  0  0  0  0  0  0
  1  2  1  0  0  0  0
  1  5  2  0  0  0  0
  2  6  2  0  0  0  0
  3  8  2  0  0  0  0
  3 16  1  0  0  0  0
  4  9  1  0  0  0  0
  4 16  2  0  0  0  0
  5 19  1  0  0  0  0
  6 21  1  0  0  0  0
  7 10  2  0  0  0  0
  7 20  1  0  0  0  0
  8 23  1  0  0  0  0
  9 23  2  0  0  0  0
 10 24  1  0  0  0  0
 11 12  2  0  0  0  0
 11 25  1  0  0  0  0
 12 26  1  0  0  0  0
 13 17  1  0  0  0  0
 13 30  2  0  0  0  0
 14 22  1  0  0  0  0
 14 24  2  0  0  0  0
 15 26  2  0  0  0  0
 15 27  1  0  0  0  0
 16 28  1  0  0  0  0
 17 31  2  0  0  0  0
 17 33  1  0  0  0  0
 18 28  1  0  0  0  0
 18 29  2  0  0  0  0
 18 34  1  0  0  0  0
 19 21  2  0  0  0  0
 19 39  1  0  0  0  0
 20 22  2  0  0  0  0
 20 40  1  0  0  0  0
 21 50  1  0  0  0  0
 22 41  1  0  0  0  0
 23 81  1  0  0  0  0
 24 82  1  0  0  0  0
 25 27  2  0  0  0  0
 25 81  1  0  0  0  0
 26 83  1  0  0  0  0
 27 84  1  0  0  0  0
 28 62  2  0  0  0  0
 29 63  1  0  0  0  0
 29 67  1  0  0  0  0
 30 70  1  0  0  0  0
 30 85  1  0  0  0  0
 31 68  1  0  0  0  0
 31 85  1  0  0  0  0
 32 51  1  0  0  0  0
 32 64  1  0  0  0  0
 32 75  2  0  0  0  0
 33 64  1  0  0  0  0
 33 73  2  0  0  0  0
 34 69  1  0  0  0  0
 34 76  2  0  0  0  0
 35 52  1  0  0  0  0
 35 71  1  0  0  0  0
 35 77  2  0  0  0  0
 36 59  1  0  0  0  0
 36 65  1  0  0  0  0
 36 78  2  0  0  0  0
 37 60  1  0  0  0  0
 37 72  1  0  0  0  0
 37 79  2  0  0  0  0
 38 66  1  0  0  0  0
 38 70  1  0  0  0  0
 38 80  2  0  0  0  0
 39 42  1  0  0  0  0
 40 52  1  0  0  0  0
 41 65  1  0  0  0  0
 42 44  1  0  0  0  0
 43 45  1  0  0  0  0
 43 47  1  0  0  0  0
 44 50  1  0  0  0  0
 45 53  1  0  0  0  0
 46 48  1  0  0  0  0
 46 51  1  0  0  0  0
 47 66  1  0  0  0  0
 48 64  1  0  0  0  0
 49 53  1  0  0  0  0
 49 66  1  0  0  0  0
 50 71  1  0  0  0  0
 51 82  1  0  0  0  0
 52 65  1  0  0  0  0
 53 63  1  0  0  0  0
 54 60  1  0  0  0  0
 55 61  1  0  0  0  0
 56 61  1  0  0  0  0
 57 61  1  0  0  0  0
 58 74  1  0  0  0  0
 59 61  1  0  0  0  0
 59 72  1  0  0  0  0
 60 74  1  0  0  0  0
 62 63  1  0  0  0  0
M  CHG  2  73   1  74   1
M  ISO  4  38 100  51 101  70 100  82 101
M  END
> <Batch ID>
0154

> <Smiles>
CNC(C)C(=O)NC(C(=O)N1Cc2cc([101O:1][101CH:1]3CCN(C(=N)c4cc([100NH:0][100C:0](=O)N5CCCC(n6nc(-c7ccc(Oc8ccc(F)cc8F)cc7)c(C(N)=O)c6N)C5)sc4N)C3=O)ccc2CC1C(=O)NC1CCCc2ccccc21)C(C)(C)C

> <Shape>
0.284

> <Color>
0.110

> <Negative vol penalty>
0.000

$$$$

  -OEChem-04052303333D

 82 91  0     1  0  0  0  0  0999 V2000
  -29.8161  -32.6857   17.7010 C   0  0  0  0  0  0  0  0  0  0  0  0
  -29.7018  -31.6222   18.5906 C   0  0  0  0  0  0  0  0  0  0  0  0
  -22.9990   -9.8966   19.9805 C   0  0  0  0  0  0  0  0  0  0  0  0
  -23.7258   -9.9441   22.2841 C   0  0  0  0  0  0  0  0  0  0  0  0
  -28.7976  -32.9374   16.7827 C   0  0  0  0  0  0  0  0  0  0  0  0
  -28.5684  -30.8104   18.5631 C   0  0  0  0  0  0  0  0  0  0  0  0
  -29.7015  -25.8824   18.8376 C   0  0  0  0  0  0  0  0  0  0  0  0
  -22.2318   -8.7623   20.2460 C   0  0  0  0  0  0  0  0  0  0  0  0
  -22.9586   -8.8099   22.5496 C   0  0  0  0  0  0  0  0  0  0  0  0
  -30.0271  -25.3729   20.0939 C   0  0  0  0  0  0  0  0  0  0  0  0
  -23.2002   -5.4713   22.0734 C   0  0  0  0  0  0  0  0  0  0  0  0
  -23.7875   -4.4528   22.8238 C   0  0  0  0  0  0  0  0  0  0  0  0
  -27.7916  -24.4923   20.3095 C   0  0  0  0  0  0  0  0  0  0  0  0
  -22.0649   -4.6949   24.5005 C   0  0  0  0  0  0  0  0  0  0  0  0
  -31.8164  -17.4985   21.7163 C   0  0  0  0  0  0  0  0  0  0  0  0
  -23.7460  -10.4875   20.9996 C   0  0  0  0  0  0  0  0  0  0  0  0
  -24.1330  -13.0030   20.8265 C   0  0  0  0  0  0  0  0  0  0  0  0
  -27.6555  -32.1223   16.7375 C   0  0  0  0  0  0  0  0  0  0  0  0
  -28.4131  -25.7098   18.3116 C   0  0  0  0  0  0  0  0  0  0  0  0
  -27.5331  -31.0522   17.6442 C   0  0  0  0  0  0  0  0  0  0  0  0
  -27.4530  -24.9983   19.0452 C   0  0  0  0  0  0  0  0  0  0  0  0
  -22.2116   -8.2190   21.5305 C   0  0  0  0  0  0  0  0  0  0  0  0
  -29.0712  -24.6803   20.8313 C   0  0  0  0  0  0  0  0  0  0  0  0
  -22.0452   -6.1017   22.5365 C   0  0  0  0  0  0  0  0  0  0  0  0
  -23.2198   -4.0645   24.0373 C   0  0  0  0  0  0  0  0  0  0  0  0
  -21.4776   -5.7135   23.7500 C   0  0  0  0  0  0  0  0  0  0  0  0
  -24.5392  -11.6589   20.7259 C   0  0  0  0  0  0  0  0  0  0  0  0
  -25.2430  -13.7253   20.4622 C   0  0  0  0  0  0  0  0  0  0  0  0
  -30.5997  -16.8809   21.9169 C   0  0  0  0  0  0  0  0  0  0  0  0
  -30.8637  -19.0400   22.9517 C   0  0  0  0  0  0  0  0  0  0  0  0
  -22.8657  -13.5498   21.2145 C   0  0  0  0  0  0  0  0  0  0  0  0
  -26.0658  -27.6673   17.4388 C   0  0  0  0  0  0  0  0  0  0  0  0
  -24.6830  -24.9196   16.4090 C   0  0  0  0  0  0  0  0  0  0  0  0
  -24.4465  -21.5243   16.6598 C   0  0  0  0  0  0  0  0  0  0  0  0
  -30.7234  -14.6820   20.6938 C   0  0  0  0  0  0  0  0  0  0  0  0
  -26.5594  -32.4623   15.7589 C   0  0  0  0  0  0  0  0  0  0  0  0
  -28.0857  -26.2423   16.9436 C   0  0  0  0  0  0  0  0  0  0  0  0
  -26.0615  -24.7682   18.5167 C   0  0  0  0  0  0  0  0  0  0  0  0
  -25.5611  -31.3275   15.5442 C   0  0  0  0  0  0  0  0  0  0  0  0
  -29.6017  -12.2330   18.3654 C   0  0  0  0  0  0  0  0  0  0  0  0
  -25.1324  -30.7334   16.8821 C   0  0  0  0  0  0  0  0  0  0  0  0
  -31.9727  -20.8498   24.2833 C   0  0  0  0  0  0  0  0  0  0  0  0
  -32.1972  -22.1876   23.5855 C   0  0  0  0  0  0  0  0  0  0  0  0
  -28.1512  -11.9759   18.7802 C   0  0  0  0  0  0  0  0  0  0  0  0
  -30.0858  -21.4075   22.8103 C   0  0  0  0  0  0  0  0  0  0  0  0
  -30.5033  -12.4742   19.5749 C   0  0  0  0  0  0  0  0  0  0  0  0
  -28.5894  -13.2627   20.9108 C   0  0  0  0  0  0  0  0  0  0  0  0
  -26.3302  -30.1340   17.6287 C   0  0  1  0  0  0  0  0  0  0  0  0
  -30.6523  -20.2934   23.7103 C   0  0  1  0  0  0  0  0  0  0  0  0
  -26.5904  -26.4528   16.7264 C   0  0  1  0  0  0  0  0  0  0  0  0
  -30.7841  -22.6783   23.2901 C   0  0  2  0  0  0  0  0  0  0  0  0
  -27.6308  -13.0786   19.7230 C   0  0  2  0  0  0  0  0  0  0  0  0
  -23.2013  -19.5612   15.7147 C   0  0  0  0  0  0  0  0  0  0  0  0
  -22.2353  -25.6777   18.0655 C   0  0  0  0  0  0  0  0  0  0  0  0
  -21.4484  -23.3099   17.8585 C   0  0  0  0  0  0  0  0  0  0  0  0
  -21.7156  -24.7167   15.8158 C   0  0  0  0  0  0  0  0  0  0  0  0
  -26.9350  -20.2896   15.6391 C   0  0  0  0  0  0  0  0  0  0  0  0
  -30.7439  -23.8004   22.2749 C   0  0  0  0  0  0  0  0  0  1  0  0
  -23.7738  -23.8840   17.0253 C   0  0  1  0  0  0  0  0  0  0  0  0
  -24.4417  -20.4341   15.6034 C   0  0  2  0  0  0  0  0  0  0  0  0
  -22.3188  -24.4029   17.2024 C   0  0  0  0  0  0  0  0  0  0  0  0
  -31.9695  -18.7369   22.3086 N   0  0  0  0  0  0  0  0  0  0  0  0
  -25.8081  -11.5319   20.3287 N   0  0  0  0  0  0  0  0  0  0  0  0
  -26.2089  -12.8056   20.1764 N   0  0  0  0  0  0  0  0  0  0  0  0
  -25.7879  -25.3137   17.1768 N   0  0  0  0  0  0  0  0  0  0  0  0
  -29.9496  -13.5344   20.4200 N   0  0  0  0  0  0  0  0  0  0  0  0
  -25.4774  -15.0509   20.3617 N   0  0  0  0  0  0  0  0  0  0  0  0
  -21.8335  -12.6660   21.5576 N   0  0  0  0  0  0  0  0  0  0  0  0
  -30.0804  -15.6366   21.4810 N   0  0  0  0  0  0  0  0  0  0  0  0
  -26.6826  -28.8470   17.0684 N   0  0  0  0  0  0  0  0  0  0  0  0
  -23.8860  -22.6932   16.1900 N   0  0  0  0  0  0  0  0  0  0  0  0
  -25.6430  -19.5647   15.7508 N   0  3  0  0  0  0  0  0  0  0  0  0
  -22.6499  -14.7853   21.2400 O   0  0  0  0  0  0  0  0  0  0  0  0
  -25.1669  -27.5434   18.2624 O   0  0  0  0  0  0  0  0  0  0  0  0
  -24.4264  -25.3572   15.2846 O   0  0  0  0  0  0  0  0  0  0  0  0
  -24.8986  -21.3547   17.7900 O   0  0  0  0  0  0  0  0  0  0  0  0
  -31.8619  -14.8207   20.2392 O   0  0  0  0  0  0  0  0  0  0  0  0
  -21.4629   -7.1123   21.7899 O   0  0  0  0  0  0  0  0  0  0  0  0
  -29.3862  -24.1825   22.0580 O   0  0  0  0  0  0  0  0  0  1  0  0
  -23.7831   -3.0853   24.7571 F   0  0  0  0  0  0  0  0  0  0  0  0
  -20.3674   -6.3146   24.1995 F   0  0  0  0  0  0  0  0  0  0  0  0
  -29.5996  -17.8813   22.8866 S   0  0  0  0  0  0  0  0  0  0  0  0
  1  2  1  0  0  0  0
  1  5  2  0  0  0  0
  2  6  2  0  0  0  0
  3  8  2  0  0  0  0
  3 16  1  0  0  0  0
  4  9  1  0  0  0  0
  4 16  2  0  0  0  0
  5 18  1  0  0  0  0
  6 20  1  0  0  0  0
  7 10  2  0  0  0  0
  7 19  1  0  0  0  0
  8 22  1  0  0  0  0
  9 22  2  0  0  0  0
 10 23  1  0  0  0  0
 11 12  2  0  0  0  0
 11 24  1  0  0  0  0
 12 25  1  0  0  0  0
 13 21  1  0  0  0  0
 13 23  2  0  0  0  0
 14 25  2  0  0  0  0
 14 26  1  0  0  0  0
 15 29  2  0  0  0  0
 15 62  1  0  0  0  0
 16 27  1  0  0  0  0
 17 27  1  0  0  0  0
 17 28  2  0  0  0  0
 17 31  1  0  0  0  0
 18 20  2  0  0  0  0
 18 36  1  0  0  0  0
 19 21  2  0  0  0  0
 19 37  1  0  0  0  0
 20 48  1  0  0  0  0
 21 38  1  0  0  0  0
 22 78  1  0  0  0  0
 23 79  1  0  0  0  0
 24 26  2  0  0  0  0
 24 78  1  0  0  0  0
 25 80  1  0  0  0  0
 26 81  1  0  0  0  0
 27 63  2  0  0  0  0
 28 64  1  0  0  0  0
 28 67  1  0  0  0  0
 29 69  1  0  0  0  0
 29 82  1  0  0  0  0
 30 49  1  0  0  0  0
 30 62  2  0  0  0  0
 30 82  1  0  0  0  0
 31 68  1  0  0  0  0
 31 73  2  0  0  0  0
 32 50  1  0  0  0  0
 32 70  1  0  0  0  0
 32 74  2  0  0  0  0
 33 59  1  0  0  0  0
 33 65  1  0  0  0  0
 33 75  2  0  0  0  0
 34 60  1  0  0  0  0
 34 71  1  0  0  0  0
 34 76  2  0  0  0  0
 35 66  1  0  0  0  0
 35 69  1  0  0  0  0
 35 77  2  0  0  0  0
 36 39  1  0  0  0  0
 37 50  1  0  0  0  0
 38 65  1  0  0  0  0
 39 41  1  0  0  0  0
 40 44  1  0  0  0  0
 40 46  1  0  0  0  0
 41 48  1  0  0  0  0
 42 43  1  0  0  0  0
 42 49  1  0  0  0  0
 43 51  1  0  0  0  0
 44 52  1  0  0  0  0
 45 49  1  0  0  0  0
 45 51  1  0  0  0  0
 46 66  1  0  0  0  0
 47 52  1  0  0  0  0
 47 66  1  0  0  0  0
 48 70  1  0  0  0  0
 50 65  1  0  0  0  0
 51 58  1  0  0  0  0
 52 64  1  0  0  0  0
 53 60  1  0  0  0  0
 54 61  1  0  0  0  0
 55 61  1  0  0  0  0
 56 61  1  0  0  0  0
 57 72  1  0  0  0  0
 58 79  1  0  0  0  0
 59 61  1  0  0  0  0
 59 71  1  0  0  0  0
 60 72  1  0  0  0  0
 63 64  1  0  0  0  0
M  CHG  1  72   1
M  ISO  4  35 100  58 101  69 100  79 101
M  END
> <Batch ID>
0154

> <Smiles>
CNC(C)C(=O)NC(C(=O)N1Cc2cc([101O:1][101CH2:1]C3CCC(c4ncc([100NH:0][100C:0](=O)N5CCCC(n6nc(-c7ccc(Oc8ccc(F)cc8F)cc7)c(C(N)=O)c6N)C5)s4)C3)ccc2CC1C(=O)NC1CCCc2ccccc21)C(C)(C)C

> <Shape>
0.211

> <Color>
0.198

> <Negative vol penalty>
0.000

$$$$

  -OEChem-04052303333D

 89 99  0     1  0  0  0  0  0999 V2000
  -34.2403  -34.4444   24.5024 C   0  0  0  0  0  0  0  0  0  0  0  0
  -34.0613  -33.0782   24.6947 C   0  0  0  0  0  0  0  0  0  0  0  0
  -23.0746   -9.8672   19.9427 C   0  0  0  0  0  0  0  0  0  0  0  0
  -23.8317   -9.8777   22.2370 C   0  0  0  0  0  0  0  0  0  0  0  0
  -33.4956  -35.1141   23.5325 C   0  0  0  0  0  0  0  0  0  0  0  0
  -33.1364  -32.3812   23.9180 C   0  0  0  0  0  0  0  0  0  0  0  0
  -33.6079  -26.6089   21.9272 C   0  0  0  0  0  0  0  0  0  0  0  0
  -22.3302   -8.7146   20.1936 C   0  0  0  0  0  0  0  0  0  0  0  0
  -23.0872   -8.7251   22.4879 C   0  0  0  0  0  0  0  0  0  0  0  0
  -33.0806  -25.4077   22.3995 C   0  0  0  0  0  0  0  0  0  0  0  0
  -19.3800   -7.9209   21.6426 C   0  0  0  0  0  0  0  0  0  0  0  0
  -18.0737   -7.8742   21.1559 C   0  0  0  0  0  0  0  0  0  0  0  0
  -31.2513  -25.6043   20.8393 C   0  0  0  0  0  0  0  0  0  0  0  0
  -31.8460  -18.3642   24.2009 C   0  0  0  0  0  0  0  0  0  0  0  0
  -29.8747  -17.4606   23.1360 C   0  0  0  0  0  0  0  0  0  0  0  0
  -32.0598  -16.6113   22.5521 C   0  0  0  0  0  0  0  0  0  0  0  0
  -18.6346   -5.9288   19.8374 C   0  0  0  0  0  0  0  0  0  0  0  0
  -23.8254  -10.4487   20.9644 C   0  0  0  0  0  0  0  0  0  0  0  0
  -24.1679  -12.9736   20.8407 C   0  0  0  0  0  0  0  0  0  0  0  0
  -32.5681  -34.4232   22.7369 C   0  0  0  0  0  0  0  0  0  0  0  0
  -32.9539  -27.3234   20.9132 C   0  0  0  0  0  0  0  0  0  0  0  0
  -32.3776  -33.0427   22.9375 C   0  0  0  0  0  0  0  0  0  0  0  0
  -31.7737  -26.8129   20.3541 C   0  0  0  0  0  0  0  0  0  0  0  0
  -30.4605  -18.3462   24.0405 C   0  0  0  0  0  0  0  0  0  0  0  0
  -32.6456  -17.4969   23.4566 C   0  0  0  0  0  0  0  0  0  0  0  0
  -30.6743  -16.5932   22.3917 C   0  0  0  0  0  0  0  0  0  0  0  0
  -22.3365   -8.1436   21.4662 C   0  0  0  0  0  0  0  0  0  0  0  0
  -31.9006  -24.9067   21.8576 C   0  0  0  0  0  0  0  0  0  0  0  0
  -20.3137   -6.9717   21.2267 C   0  0  0  0  0  0  0  0  0  0  0  0
  -17.7010   -6.8781   20.2533 C   0  0  0  0  0  0  0  0  0  0  0  0
  -19.9410   -5.9756   20.3242 C   0  0  0  0  0  0  0  0  0  0  0  0
  -24.5950  -11.6390   20.7056 C   0  0  0  0  0  0  0  0  0  0  0  0
  -25.2606  -13.7223   20.4775 C   0  0  0  0  0  0  0  0  0  0  0  0
  -29.5243  -22.6648   23.3430 C   0  0  0  0  0  0  0  0  0  0  0  0
  -30.1298  -23.7544   22.8611 C   0  0  0  0  0  0  0  0  0  1  0  0
  -22.8970  -13.4903   21.2572 C   0  0  0  0  0  0  0  0  0  0  0  0
  -31.6236  -30.2022   20.6978 C   0  0  0  0  0  0  0  0  0  0  0  0
  -31.3126  -29.3958   17.5712 C   0  0  0  0  0  0  0  0  0  0  0  0
  -31.0972  -26.9287   15.2231 C   0  0  0  0  0  0  0  0  0  0  0  0
  -30.7268  -14.7671   20.6571 C   0  0  0  0  0  0  0  0  0  0  0  0
  -31.7521  -35.1991   21.7335 C   0  0  0  0  0  0  0  0  0  0  0  0
  -33.5499  -28.6040   20.3962 C   0  0  0  0  0  0  0  0  0  0  0  0
  -31.0440  -27.5314   19.2497 C   0  0  0  0  0  0  0  0  0  0  0  0
  -28.1533  -22.6273   23.9496 C   0  0  0  0  0  0  0  0  0  0  0  0
  -30.1346  -21.3013   23.4154 C   0  0  0  0  0  0  0  0  0  0  0  0
  -31.0624  -34.3164   20.6964 C   0  0  0  0  0  0  0  0  0  0  0  0
  -36.2354  -18.2611   24.1215 C   0  0  0  0  0  0  0  0  0  0  0  0
  -36.3110  -16.8288   23.6327 C   0  0  0  0  0  0  0  0  0  0  0  0
  -29.6148  -12.3496   18.2914 C   0  0  0  0  0  0  0  0  0  0  0  0
  -30.3802  -33.1315   21.3727 C   0  0  0  0  0  0  0  0  0  0  0  0
  -28.1745  -12.0590   18.7197 C   0  0  0  0  0  0  0  0  0  0  0  0
  -34.7749  -18.3986   24.5360 C   0  0  0  0  0  0  0  0  0  0  0  0
  -34.9881  -16.6546   22.8956 C   0  0  0  0  0  0  0  0  0  0  0  0
  -30.5285  -12.5802   19.4938 C   0  0  0  0  0  0  0  0  0  0  0  0
  -28.6200  -13.3073   20.8716 C   0  0  0  0  0  0  0  0  0  0  0  0
  -28.1801  -21.3693   24.8075 C   0  0  0  0  0  0  0  0  0  0  0  0
  -31.4018  -32.2471   22.0978 C   0  0  1  0  0  0  0  0  0  0  0  0
  -32.5259  -29.5082   19.7171 C   0  0  1  0  0  0  0  0  0  0  0  0
  -27.6485  -13.1323   19.6929 C   0  0  2  0  0  0  0  0  0  0  0  0
  -30.8094  -26.5779   12.7550 C   0  0  0  0  0  0  0  0  0  0  0  0
  -28.3437  -30.0521   17.8266 C   0  0  0  0  0  0  0  0  0  0  0  0
  -27.9560  -28.8073   15.6892 C   0  0  0  0  0  0  0  0  0  0  0  0
  -29.4067  -30.8366   15.7031 C   0  0  0  0  0  0  0  0  0  0  0  0
  -33.7117  -25.5605   14.9951 C   0  0  0  0  0  0  0  0  0  0  0  0
  -29.6006  -19.2792   24.8411 C   0  0  0  0  0  0  0  0  0  0  0  0
  -30.2582  -28.6972   16.7471 C   0  0  1  0  0  0  0  0  0  0  0  0
  -31.8048  -26.7390   13.8935 C   0  0  2  0  0  0  0  0  0  0  0  0
  -29.0036  -29.5855   16.5137 C   0  0  0  0  0  0  0  0  0  0  0  0
  -25.8604  -11.5423   20.2890 N   0  0  0  0  0  0  0  0  0  0  0  0
  -26.2377  -12.8255   20.1591 N   0  0  0  0  0  0  0  0  0  0  0  0
  -34.0441  -17.5155   23.6187 N   0  0  0  0  0  0  0  0  0  0  0  0
  -31.6632  -28.7827   18.7825 N   0  0  0  0  0  0  0  0  0  0  0  0
  -29.9686  -13.6126   20.3688 N   0  0  0  0  0  0  0  0  0  0  0  0
  -25.4714  -15.0536   20.4026 N   0  0  0  0  0  0  0  0  0  0  0  0
  -21.8845  -12.5819   21.5947 N   0  0  0  0  0  0  0  0  0  0  0  0
  -30.0786  -15.6936   21.4732 N   0  0  0  0  0  0  0  0  0  0  0  0
  -32.1108  -31.4133   21.1509 N   0  0  0  0  0  0  0  0  0  0  0  0
  -30.9194  -28.2631   15.5213 N   0  0  0  0  0  0  0  0  0  0  0  0
  -29.0741  -20.4224   24.0392 N   0  3  2  0  0  0  0  0  0  0  0  0
  -32.6707  -25.5269   13.9358 N   0  3  0  0  0  0  0  0  0  0  0  0
  -22.6609  -14.7211   21.3123 O   0  0  0  0  0  0  0  0  0  0  0  0
  -30.5632  -29.6784   21.0184 O   0  0  0  0  0  0  0  0  0  0  0  0
  -31.8121  -30.4430   17.1522 O   0  0  0  0  0  0  0  0  0  0  0  0
  -30.7350  -25.9871   15.9251 O   0  0  0  0  0  0  0  0  0  0  0  0
  -31.8565  -14.9348   20.1906 O   0  0  0  0  0  0  0  0  0  0  0  0
  -21.6100   -7.0190   21.7115 O   0  0  0  0  0  0  0  0  0  0  0  0
  -31.3834  -23.7349   22.3172 O   0  0  0  0  0  0  0  0  0  1  0  0
  -16.4461   -6.8324   19.7872 F   0  0  0  0  0  0  0  0  0  0  0  0
  -20.8332   -5.0603   19.9219 F   0  0  0  0  0  0  0  0  0  0  0  0
  1  2  1  0  0  0  0
  1  5  2  0  0  0  0
  2  6  2  0  0  0  0
  3  8  2  0  0  0  0
  3 18  1  0  0  0  0
  4  9  1  0  0  0  0
  4 18  2  0  0  0  0
  5 20  1  0  0  0  0
  6 22  1  0  0  0  0
  7 10  2  0  0  0  0
  7 21  1  0  0  0  0
  8 27  1  0  0  0  0
  9 27  2  0  0  0  0
 10 28  1  0  0  0  0
 11 12  2  0  0  0  0
 11 29  1  0  0  0  0
 12 30  1  0  0  0  0
 13 23  1  0  0  0  0
 13 28  2  0  0  0  0
 14 24  2  0  0  0  0
 14 25  1  0  0  0  0
 15 24  1  0  0  0  0
 15 26  2  0  0  0  0
 16 25  2  0  0  0  0
 16 26  1  0  0  0  0
 17 30  2  0  0  0  0
 17 31  1  0  0  0  0
 18 32  1  0  0  0  0
 19 32  1  0  0  0  0
 19 33  2  0  0  0  0
 19 36  1  0  0  0  0
 20 22  2  0  0  0  0
 20 41  1  0  0  0  0
 21 23  2  0  0  0  0
 21 42  1  0  0  0  0
 22 57  1  0  0  0  0
 23 43  1  0  0  0  0
 24 65  1  0  0  0  0
 25 71  1  0  0  0  0
 26 76  1  0  0  0  0
 27 86  1  0  0  0  0
 28 87  1  0  0  0  0
 29 31  2  0  0  0  0
 29 86  1  0  0  0  0
 30 88  1  0  0  0  0
 31 89  1  0  0  0  0
 32 69  2  0  0  0  0
 33 70  1  0  0  0  0
 33 74  1  0  0  0  0
 34 35  2  0  0  0  0
 34 44  1  0  0  0  0
 34 45  1  0  0  0  0
 35 87  1  0  0  0  0
 36 75  1  0  0  0  0
 36 81  2  0  0  0  0
 37 58  1  0  0  0  0
 37 77  1  0  0  0  0
 37 82  2  0  0  0  0
 38 66  1  0  0  0  0
 38 72  1  0  0  0  0
 38 83  2  0  0  0  0
 39 67  1  0  0  0  0
 39 78  1  0  0  0  0
 39 84  2  0  0  0  0
 40 73  1  0  0  0  0
 40 76  1  0  0  0  0
 40 85  2  0  0  0  0
 41 46  1  0  0  0  0
 42 58  1  0  0  0  0
 43 72  1  0  0  0  0
 44 56  1  0  0  0  0
 45 79  1  0  0  0  0
 46 50  1  0  0  0  0
 47 48  1  0  0  0  0
 47 52  1  0  0  0  0
 48 53  1  0  0  0  0
 49 51  1  0  0  0  0
 49 54  1  0  0  0  0
 50 57  1  0  0  0  0
 51 59  1  0  0  0  0
 52 71  1  0  0  0  0
 53 71  1  0  0  0  0
 54 73  1  0  0  0  0
 55 59  1  0  0  0  0
 55 73  1  0  0  0  0
 56 79  1  0  0  0  0
 57 77  1  0  0  0  0
 58 72  1  0  0  0  0
 59 70  1  0  0  0  0
 60 67  1  0  0  0  0
 61 68  1  0  0  0  0
 62 68  1  0  0  0  0
 63 68  1  0  0  0  0
 64 80  1  0  0  0  0
 65 79  1  0  0  0  0
 66 68  1  0  0  0  0
 66 78  1  0  0  0  0
 67 80  1  0  0  0  0
 69 70  1  0  0  0  0
M  CHG  2  79   1  80   1
M  ISO  4  35 101  40 100  76 100  87 101
M  END
> <Batch ID>
0154

> <Smiles>
CNC(C)C(=O)NC(C(=O)N1Cc2cc([101O:1][101CH:1]=C3CCN(Cc4cc([100NH:0][100C:0](=O)N5CCCC(n6nc(-c7ccc(Oc8ccc(F)cc8F)cc7)c(C(N)=O)c6N)C5)cc(N5CCCC5)c4)C3)ccc2CC1C(=O)NC1CCCc2ccccc21)C(C)(C)C

> <Shape>
0.165

> <Color>
0.184

> <Negative vol penalty>
0.000

$$$$

  -OEChem-04052303333D

 86 95  0     1  0  0  0  0  0999 V2000
  -21.3792  -20.8097   22.5942 C   0  0  0  0  0  0  0  0  0  0  0  0
  -22.4343  -21.5037   22.0105 C   0  0  0  0  0  0  0  0  0  0  0  0
  -24.5675  -13.8110   21.1888 C   0  0  0  0  0  0  0  0  0  0  0  0
  -26.5246  -13.4741   19.8128 C   0  0  0  0  0  0  0  0  0  0  0  0
  -20.1232  -21.4069   22.6928 C   0  0  0  0  0  0  0  0  0  0  0  0
  -22.2336  -22.7950   21.5239 C   0  0  0  0  0  0  0  0  0  0  0  0
  -25.9529  -25.9682   22.8440 C   0  0  0  0  0  0  0  0  0  0  0  0
  -24.0587  -12.5831   20.7657 C   0  0  0  0  0  0  0  0  0  0  0  0
  -26.0158  -12.2462   19.3898 C   0  0  0  0  0  0  0  0  0  0  0  0
  -27.1433  -25.8892   22.1225 C   0  0  0  0  0  0  0  0  0  0  0  0
  -24.5422   -9.3111   21.4679 C   0  0  0  0  0  0  0  0  0  0  0  0
  -24.0011   -8.4654   22.4361 C   0  0  0  0  0  0  0  0  0  0  0  0
  -26.4732  -27.8050   20.8187 C   0  0  0  0  0  0  0  0  0  0  0  0
  -21.8713   -8.5239   21.2969 C   0  0  0  0  0  0  0  0  0  0  0  0
  -32.0692  -23.5083   22.5430 C   0  0  0  0  0  0  0  0  0  0  0  0
  -25.8005  -14.2565   20.7123 C   0  0  0  0  0  0  0  0  0  0  0  0
  -27.1517  -15.7651   22.2634 C   0  0  0  0  0  0  0  0  0  0  0  0
  -19.9095  -22.7098   22.2159 C   0  0  0  0  0  0  0  0  0  0  0  0
  -25.0072  -26.9612   22.5504 C   0  0  0  0  0  0  0  0  0  0  0  0
  -20.9732  -23.4097   21.6150 C   0  0  0  0  0  0  0  0  0  0  0  0
  -25.2727  -27.8960   21.5395 C   0  0  0  0  0  0  0  0  0  0  0  0
  -24.7828  -11.8007   19.8662 C   0  0  0  0  0  0  0  0  0  0  0  0
  -27.4023  -26.8059   21.1078 C   0  0  0  0  0  0  0  0  0  0  0  0
  -23.7478   -9.7634   20.4142 C   0  0  0  0  0  0  0  0  0  0  0  0
  -22.6657   -8.0717   22.3506 C   0  0  0  0  0  0  0  0  0  0  0  0
  -22.4124   -9.3697   20.3287 C   0  0  0  0  0  0  0  0  0  0  0  0
  -26.3263  -15.5251   21.1486 C   0  0  0  0  0  0  0  0  0  0  0  0
  -31.7578  -24.2168   21.4014 C   0  0  0  0  0  0  0  0  0  0  0  0
  -27.3714  -17.1208   22.2425 C   0  0  0  0  0  0  0  0  0  0  0  0
  -30.3452  -22.5573   21.1552 C   0  0  0  0  0  0  0  0  0  0  0  0
  -27.6733  -14.8449   23.2314 C   0  0  0  0  0  0  0  0  0  0  0  0
  -21.9936  -26.9602   21.5395 C   0  0  0  0  0  0  0  0  0  0  0  0
  -29.5699  -28.4644   19.0520 C   0  0  0  0  0  0  0  0  0  0  0  0
  -22.2291  -30.1541   22.0551 C   0  0  0  0  0  0  0  0  0  0  0  0
  -24.2303  -32.9049   22.3283 C   0  0  0  0  0  0  0  0  0  0  0  0
  -28.5885  -21.8163   19.5087 C   0  0  0  0  0  0  0  0  0  0  0  0
  -18.5224  -23.2959   22.3019 C   0  0  0  0  0  0  0  0  0  0  0  0
  -23.7399  -27.0494   23.3557 C   0  0  0  0  0  0  0  0  0  0  0  0
  -24.2992  -28.9936   21.1988 C   0  0  0  0  0  0  0  0  0  0  0  0
  -18.4868  -24.8086   22.1005 C   0  0  0  0  0  0  0  0  0  0  0  0
  -25.1852  -20.7700   19.4993 C   0  0  0  0  0  0  0  0  0  0  0  0
  -33.1465  -25.9107   18.6751 C   0  0  0  0  0  0  0  0  0  0  0  0
  -19.3309  -25.2065   20.8939 C   0  0  0  0  0  0  0  0  0  0  0  0
  -33.5993  -25.3516   20.0139 C   0  0  0  0  0  0  0  0  0  0  0  0
  -25.2466  -19.3320   20.0193 C   0  0  0  0  0  0  0  0  0  0  0  0
  -26.3831  -21.1039   18.6121 C   0  0  0  0  0  0  0  0  0  0  0  0
  -27.7567  -19.3927   19.7319 C   0  0  0  0  0  0  0  0  0  0  0  0
  -32.2171  -27.0372   19.0646 C   0  0  0  0  0  0  0  0  0  0  0  0
  -20.8012  -24.8215   21.0980 C   0  0  1  0  0  0  0  0  0  0  0  0
  -32.3999  -25.5130   20.9646 C   0  0  1  0  0  0  0  0  0  0  0  0
  -22.6195  -27.7857   22.6278 C   0  0  1  0  0  0  0  0  0  0  0  0
  -26.6045  -19.0302   20.6831 C   0  0  2  0  0  0  0  0  0  0  0  0
  -30.3866  -29.7249   18.9251 C   0  0  0  0  0  0  0  0  0  0  0  0
  -24.1313  -35.3824   22.7150 C   0  0  0  0  0  0  0  0  0  0  0  0
  -21.2719  -30.5611   19.1866 C   0  0  0  0  0  0  0  0  0  0  0  0
  -22.0907  -32.9232   19.3224 C   0  0  0  0  0  0  0  0  0  0  0  0
  -20.2809  -32.1425   20.8514 C   0  0  0  0  0  0  0  0  0  0  0  0
  -25.8462  -32.7009   24.7994 C   0  0  0  0  0  0  0  0  0  0  0  0
  -30.7533  -27.4548   21.0691 C   0  0  0  0  0  0  0  0  0  0  0  0
  -29.4261  -27.8662   20.4475 C   0  0  2  0  0  0  0  0  0  1  0  0
  -22.6500  -31.3428   21.2252 C   0  0  1  0  0  0  0  0  0  0  0  0
  -24.2814  -34.0147   23.3628 C   0  0  2  0  0  0  0  0  0  0  0  0
  -21.5911  -31.7207   20.1513 C   0  0  0  0  0  0  0  0  0  0  0  0
  -26.0409  -16.6390   20.4690 N   0  0  0  0  0  0  0  0  0  0  0  0
  -30.7697  -23.6728   20.6042 N   0  0  0  0  0  0  0  0  0  0  0  0
  -26.6905  -17.5920   21.1588 N   0  0  0  0  0  0  0  0  0  0  0  0
  -23.0715  -29.0342   22.0104 N   0  0  0  0  0  0  0  0  0  0  0  0
  -27.6344  -20.7963   19.3081 N   0  0  0  0  0  0  0  0  0  0  0  0
  -28.0785  -17.9437   23.0457 N   0  0  0  0  0  0  0  0  0  0  0  0
  -27.3496  -13.4872   23.1047 N   0  0  0  0  0  0  0  0  0  0  0  0
  -29.3416  -21.6802   20.6744 N   0  0  0  0  0  0  0  0  0  0  0  0
  -21.4535  -25.7666   21.9788 N   0  0  0  0  0  0  0  0  0  0  0  0
  -22.9519  -32.4134   22.1693 N   0  0  0  0  0  0  0  0  0  0  0  0
  -31.4396  -26.4404   20.2105 N   0  3  1  0  0  0  0  0  0  0  0  0
  -25.5790  -33.9812   24.0949 N   0  3  0  0  0  0  0  0  0  0  0  0
  -28.3912  -15.2180   24.1899 O   0  0  0  0  0  0  0  0  0  0  0  0
  -21.9990  -27.3761   20.3868 O   0  0  0  0  0  0  0  0  0  0  0  0
  -29.0392  -27.9540   18.0653 O   0  0  0  0  0  0  0  0  0  0  0  0
  -21.1948  -30.2194   22.7242 O   0  0  0  0  0  0  0  0  0  0  0  0
  -25.2244  -32.5158   21.7193 O   0  0  0  0  0  0  0  0  0  0  0  0
  -28.7085  -22.7568   18.7194 O   0  0  0  0  0  0  0  0  0  0  0  0
  -24.2867  -10.6024   19.4533 O   0  0  0  0  0  0  0  0  0  0  0  0
  -28.5631  -26.7306   20.4016 O   0  0  0  0  0  0  0  0  0  1  0  0
  -22.1466   -7.2583   23.2796 F   0  0  0  0  0  0  0  0  0  0  0  0
  -21.6446   -9.8000   19.3182 F   0  0  0  0  0  0  0  0  0  0  0  0
  -31.0900  -22.1032   22.6330 S   0  0  0  0  0  0  0  0  0  0  0  0
  1  2  1  0  0  0  0
  1  5  2  0  0  0  0
  2  6  2  0  0  0  0
  3  8  2  0  0  0  0
  3 16  1  0  0  0  0
  4  9  1  0  0  0  0
  4 16  2  0  0  0  0
  5 18  1  0  0  0  0
  6 20  1  0  0  0  0
  7 10  2  0  0  0  0
  7 19  1  0  0  0  0
  8 22  1  0  0  0  0
  9 22  2  0  0  0  0
 10 23  1  0  0  0  0
 11 12  2  0  0  0  0
 11 24  1  0  0  0  0
 12 25  1  0  0  0  0
 13 21  1  0  0  0  0
 13 23  2  0  0  0  0
 14 25  2  0  0  0  0
 14 26  1  0  0  0  0
 15 28  2  0  0  0  0
 15 86  1  0  0  0  0
 16 27  1  0  0  0  0
 17 27  1  0  0  0  0
 17 29  2  0  0  0  0
 17 31  1  0  0  0  0
 18 20  2  0  0  0  0
 18 37  1  0  0  0  0
 19 21  2  0  0  0  0
 19 38  1  0  0  0  0
 20 49  1  0  0  0  0
 21 39  1  0  0  0  0
 22 82  1  0  0  0  0
 23 83  1  0  0  0  0
 24 26  2  0  0  0  0
 24 82  1  0  0  0  0
 25 84  1  0  0  0  0
 26 85  1  0  0  0  0
 27 64  2  0  0  0  0
 28 50  1  0  0  0  0
 28 65  1  0  0  0  0
 29 66  1  0  0  0  0
 29 69  1  0  0  0  0
 30 65  2  0  0  0  0
 30 71  1  0  0  0  0
 30 86  1  0  0  0  0
 31 70  1  0  0  0  0
 31 76  2  0  0  0  0
 32 51  1  0  0  0  0
 32 72  1  0  0  0  0
 32 77  2  0  0  0  0
 33 53  1  0  0  0  0
 33 60  1  0  0  0  0
 33 78  2  0  0  0  0
 34 61  1  0  0  0  0
 34 67  1  0  0  0  0
 34 79  2  0  0  0  0
 35 62  1  0  0  0  0
 35 73  1  0  0  0  0
 35 80  2  0  0  0  0
 36 68  1  0  0  0  0
 36 71  1  0  0  0  0
 36 81  2  0  0  0  0
 37 40  1  0  0  0  0
 38 51  1  0  0  0  0
 39 67  1  0  0  0  0
 40 43  1  0  0  0  0
 41 45  1  0  0  0  0
 41 46  1  0  0  0  0
 42 44  1  0  0  0  0
 42 48  1  0  0  0  0
 43 49  1  0  0  0  0
 44 50  1  0  0  0  0
 45 52  1  0  0  0  0
 46 68  1  0  0  0  0
 47 52  1  0  0  0  0
 47 68  1  0  0  0  0
 48 74  1  0  0  0  0
 49 72  1  0  0  0  0
 50 74  1  0  0  0  0
 51 67  1  0  0  0  0
 52 66  1  0  0  0  0
 54 62  1  0  0  0  0
 55 63  1  0  0  0  0
 56 63  1  0  0  0  0
 57 63  1  0  0  0  0
 58 75  1  0  0  0  0
 59 60  1  0  0  0  0
 59 74  1  0  0  0  0
 60 83  1  0  0  0  0
 61 63  1  0  0  0  0
 61 73  1  0  0  0  0
 62 75  1  0  0  0  0
 64 66  1  0  0  0  0
M  CHG  2  74   1  75   1
M  ISO  4  36 100  60 101  71 100  83 101
M  END
> <Batch ID>
0154

> <Smiles>
CNC(C)C(=O)NC(C(=O)N1Cc2cc([101O:1][101CH:1](CN3CCCC3c3csc([100NH:0][100C:0](=O)N4CCCC(n5nc(-c6ccc(Oc7ccc(F)cc7F)cc6)c(C(N)=O)c5N)C4)n3)C(C)=O)ccc2CC1C(=O)NC1CCCc2ccccc21)C(C)(C)C

> <Shape>
0.242

> <Color>
0.081

> <Negative vol penalty>
0.000

$$$$

  -OEChem-04052303333D

 87 96  0     1  0  0  0  0  0999 V2000
  -27.1304  -11.0153   17.8462 C   0  0  0  0  0  0  0  0  0  0  0  0
  -27.0533  -12.3264   17.3873 C   0  0  0  0  0  0  0  0  0  0  0  0
  -27.4605  -28.6733   16.9190 C   0  0  0  0  0  0  0  0  0  0  0  0
  -25.0548  -28.4543   16.8811 C   0  0  0  0  0  0  0  0  0  0  0  0
  -26.4881  -10.6532   19.0295 C   0  0  0  0  0  0  0  0  0  0  0  0
  -26.3329  -13.2760   18.1110 C   0  0  0  0  0  0  0  0  0  0  0  0
  -26.3412  -20.2575   19.7155 C   0  0  0  0  0  0  0  0  0  0  0  0
  -27.4775  -28.7278   15.5253 C   0  0  0  0  0  0  0  0  0  0  0  0
  -25.0717  -28.5089   15.4874 C   0  0  0  0  0  0  0  0  0  0  0  0
  -25.5001  -21.3692   19.6914 C   0  0  0  0  0  0  0  0  0  0  0  0
  -25.7517  -26.4162   12.9204 C   0  0  0  0  0  0  0  0  0  0  0  0
  -24.9709  -25.4922   12.2262 C   0  0  0  0  0  0  0  0  0  0  0  0
  -24.4971  -20.6477   21.7633 C   0  0  0  0  0  0  0  0  0  0  0  0
  -18.9533  -26.4052   21.6889 C   0  0  0  0  0  0  0  0  0  0  0  0
  -23.7323  -27.3013   11.2112 C   0  0  0  0  0  0  0  0  0  0  0  0
  -26.2491  -28.5365   17.5969 C   0  0  0  0  0  0  0  0  0  0  0  0
  -26.8673  -27.5297   19.8578 C   0  0  0  0  0  0  0  0  0  0  0  0
  -25.7675  -11.6011   19.7732 C   0  0  0  0  0  0  0  0  0  0  0  0
  -26.2589  -19.3252   20.7598 C   0  0  0  0  0  0  0  0  0  0  0  0
  -25.6793  -12.9259   19.3047 C   0  0  0  0  0  0  0  0  0  0  0  0
  -25.3400  -19.5264   21.7997 C   0  0  0  0  0  0  0  0  0  0  0  0
  -20.0376  -27.2005   22.1305 C   0  0  0  0  0  0  0  0  0  0  0  0
  -26.2832  -28.6456   14.8095 C   0  0  0  0  0  0  0  0  0  0  0  0
  -24.5759  -21.5629   20.7139 C   0  0  0  0  0  0  0  0  0  0  0  0
  -25.5228  -27.7829   12.7602 C   0  0  0  0  0  0  0  0  0  0  0  0
  -23.9613  -25.9347   11.3715 C   0  0  0  0  0  0  0  0  0  0  0  0
  -24.5131  -28.2254   11.9056 C   0  0  0  0  0  0  0  0  0  0  0  0
  -26.2309  -28.4796   19.0365 C   0  0  0  0  0  0  0  0  0  0  0  0
  -19.4837  -28.2453   22.8330 C   0  0  0  0  0  0  0  0  0  0  0  0
  -26.5462  -27.9120   21.1374 C   0  0  0  0  0  0  0  0  0  0  0  0
  -17.8142  -27.0206   22.1532 C   0  0  0  0  0  0  0  0  0  0  0  0
  -27.6765  -26.4026   19.4964 C   0  0  0  0  0  0  0  0  0  0  0  0
  -20.0957  -29.4026   23.5351 C   0  0  0  0  0  0  0  0  0  0  0  0
  -25.5608  -16.2303   20.9540 C   0  0  0  0  0  0  0  0  0  0  0  0
  -26.4118  -16.6319   24.0583 C   0  0  0  0  0  0  0  0  0  0  0  0
  -25.9067  -19.1144   26.6272 C   0  0  0  0  0  0  0  0  0  0  0  0
  -22.0172  -30.9613   23.4874 C   0  0  0  0  0  0  0  0  0  0  0  0
  -25.0505  -11.1516   21.0216 C   0  0  0  0  0  0  0  0  0  0  0  0
  -27.1916  -18.1455   20.7851 C   0  0  0  0  0  0  0  0  0  0  0  0
  -25.2259  -18.5657   22.9540 C   0  0  0  0  0  0  0  0  0  0  0  0
  -24.6200  -12.3043   21.9251 C   0  0  0  0  0  0  0  0  0  0  0  0
  -25.4444  -31.7960   23.7216 C   0  0  0  0  0  0  0  0  0  0  0  0
  -23.9548  -13.4054   21.1053 C   0  0  0  0  0  0  0  0  0  0  0  0
  -26.0991  -30.9426   22.6319 C   0  0  0  0  0  0  0  0  0  0  0  0
  -22.6500  -25.2830   23.1485 C   0  0  0  0  0  0  0  0  0  0  0  0
  -22.1480  -24.9946   20.6759 C   0  0  0  0  0  0  0  0  0  0  0  0
  -24.0784  -32.3236   23.2849 C   0  0  0  0  0  0  0  0  0  0  0  0
  -22.3439  -26.7736   22.9922 C   0  0  0  0  0  0  0  0  0  0  0  0
  -21.8521  -26.4963   20.5900 C   0  0  0  0  0  0  0  0  0  0  0  0
  -23.7987  -30.4549   21.7077 C   0  0  0  0  0  0  0  0  0  0  0  0
  -24.9281  -13.9903   20.0747 C   0  0  1  0  0  0  0  0  0  0  0  0
  -26.6683  -16.9880   21.6300 C   0  0  1  0  0  0  0  0  0  0  0  0
  -25.1451  -29.8421   22.1257 C   0  0  1  0  0  0  0  0  0  0  0  0
  -23.1158  -24.6699   21.8212 C   0  0  0  0  0  0  0  0  0  0  0  0
  -27.3021  -19.6969   28.6300 C   0  0  0  0  0  0  0  0  0  0  0  0
  -24.5804  -14.6906   25.5373 C   0  0  0  0  0  0  0  0  0  0  0  0
  -24.6384  -16.2416   27.5018 C   0  0  0  0  0  0  0  0  0  0  0  0
  -26.7434  -15.1726   26.6963 C   0  0  0  0  0  0  0  0  0  0  0  0
  -26.0827  -21.9570   25.8227 C   0  0  0  0  0  0  0  0  0  0  0  0
  -23.3324  -23.1676   21.9526 C   0  0  0  0  0  0  0  0  0  1  0  0
  -25.6852  -17.0144   25.3251 C   0  0  1  0  0  0  0  0  0  0  0  0
  -26.9501  -20.0593   27.1956 C   0  0  2  0  0  0  0  0  0  0  0  0
  -25.4032  -15.7890   26.2396 C   0  0  0  0  0  0  0  0  0  0  0  0
  -25.5564  -29.3962   19.7356 N   0  0  0  0  0  0  0  0  0  0  0  0
  -25.7670  -29.0241   21.0097 N   0  0  0  0  0  0  0  0  0  0  0  0
  -21.3899  -26.9687   21.8986 N   0  0  0  0  0  0  0  0  0  0  0  0
  -26.1554  -17.4242   22.9303 N   0  0  0  0  0  0  0  0  0  0  0  0
  -23.2323  -31.2193   22.8291 N   0  0  0  0  0  0  0  0  0  0  0  0
  -26.8570  -27.4019   22.3480 N   0  0  0  0  0  0  0  0  0  0  0  0
  -16.5081  -26.7059   22.0329 N   0  0  0  0  0  0  0  0  0  0  0  0
  -27.0472  -25.1679   19.2873 N   0  0  0  0  0  0  0  0  0  0  0  0
  -21.3025  -29.8594   23.0046 N   0  0  0  0  0  0  0  0  0  0  0  0
  -25.8534  -14.9013   20.7137 N   0  0  0  0  0  0  0  0  0  0  0  0
  -26.4857  -18.0587   25.9553 N   0  0  0  0  0  0  0  0  0  0  0  0
  -26.4451  -21.4612   27.1754 N   0  3  0  0  0  0  0  0  0  0  0  0
  -28.9227  -26.4842   19.3790 O   0  0  0  0  0  0  0  0  0  0  0  0
  -19.5061  -29.9036   24.4886 O   0  0  0  0  0  0  0  0  0  0  0  0
  -24.5174  -16.8082   20.6726 O   0  0  0  0  0  0  0  0  0  0  0  0
  -27.1839  -15.6700   24.0710 O   0  0  0  0  0  0  0  0  0  0  0  0
  -24.6990  -19.2928   26.7687 O   0  0  0  0  0  0  0  0  0  0  0  0
  -21.6209  -31.6304   24.4469 O   0  0  0  0  0  0  0  0  0  0  0  0
  -18.1289  -28.1430   22.8516 O   0  0  0  0  0  0  0  0  0  0  0  0
  -26.2994  -28.6990   13.4496 O   0  0  0  0  0  0  0  0  0  0  0  0
  -23.7533  -22.6467   20.6925 O   0  0  0  0  0  0  0  0  0  1  0  0
  -23.2125  -25.0473   10.7037 F   0  0  0  0  0  0  0  0  0  0  0  0
  -24.2893  -29.5371   11.7467 F   0  0  0  0  0  0  0  0  0  0  0  0
  -24.3262  -25.2266   21.5101 F   0  0  0  0  0  0  0  0  0  0  0  0
  1  2  1  0  0  0  0
  1  5  2  0  0  0  0
  2  6  2  0  0  0  0
  3  8  2  0  0  0  0
  3 16  1  0  0  0  0
  4  9  1  0  0  0  0
  4 16  2  0  0  0  0
  5 18  1  0  0  0  0
  6 20  1  0  0  0  0
  7 10  2  0  0  0  0
  7 19  1  0  0  0  0
  8 23  1  0  0  0  0
  9 23  2  0  0  0  0
 10 24  1  0  0  0  0
 11 12  2  0  0  0  0
 11 25  1  0  0  0  0
 12 26  1  0  0  0  0
 13 21  1  0  0  0  0
 13 24  2  0  0  0  0
 14 22  1  0  0  0  0
 14 31  2  0  0  0  0
 15 26  2  0  0  0  0
 15 27  1  0  0  0  0
 16 28  1  0  0  0  0
 17 28  1  0  0  0  0
 17 30  2  0  0  0  0
 17 32  1  0  0  0  0
 18 20  2  0  0  0  0
 18 38  1  0  0  0  0
 19 21  2  0  0  0  0
 19 39  1  0  0  0  0
 20 51  1  0  0  0  0
 21 40  1  0  0  0  0
 22 29  2  0  0  0  0
 22 66  1  0  0  0  0
 23 83  1  0  0  0  0
 24 84  1  0  0  0  0
 25 27  2  0  0  0  0
 25 83  1  0  0  0  0
 26 85  1  0  0  0  0
 27 86  1  0  0  0  0
 28 64  2  0  0  0  0
 29 33  1  0  0  0  0
 29 82  1  0  0  0  0
 30 65  1  0  0  0  0
 30 69  1  0  0  0  0
 31 70  1  0  0  0  0
 31 82  1  0  0  0  0
 32 71  1  0  0  0  0
 32 76  2  0  0  0  0
 33 72  1  0  0  0  0
 33 77  2  0  0  0  0
 34 52  1  0  0  0  0
 34 73  1  0  0  0  0
 34 78  2  0  0  0  0
 35 61  1  0  0  0  0
 35 67  1  0  0  0  0
 35 79  2  0  0  0  0
 36 62  1  0  0  0  0
 36 74  1  0  0  0  0
 36 80  2  0  0  0  0
 37 68  1  0  0  0  0
 37 72  1  0  0  0  0
 37 81  2  0  0  0  0
 38 41  1  0  0  0  0
 39 52  1  0  0  0  0
 40 67  1  0  0  0  0
 41 43  1  0  0  0  0
 42 44  1  0  0  0  0
 42 47  1  0  0  0  0
 43 51  1  0  0  0  0
 44 53  1  0  0  0  0
 45 48  1  0  0  0  0
 45 54  1  0  0  0  0
 46 49  1  0  0  0  0
 46 54  1  0  0  0  0
 47 68  1  0  0  0  0
 48 66  1  0  0  0  0
 49 66  1  0  0  0  0
 50 53  1  0  0  0  0
 50 68  1  0  0  0  0
 51 73  1  0  0  0  0
 52 67  1  0  0  0  0
 53 65  1  0  0  0  0
 54 60  1  0  0  0  0
 54 87  1  0  0  0  0
 55 62  1  0  0  0  0
 56 63  1  0  0  0  0
 57 63  1  0  0  0  0
 58 63  1  0  0  0  0
 59 75  1  0  0  0  0
 60 84  1  0  0  0  0
 61 63  1  0  0  0  0
 61 74  1  0  0  0  0
 62 75  1  0  0  0  0
 64 65  1  0  0  0  0
M  CHG  1  75   1
M  ISO  4  37 100  60 101  72 100  84 101
M  END
> <Batch ID>
0154

> <Smiles>
CNC(C)C(=O)NC(C(=O)N1Cc2cc([101O:1][101CH2:1]C3(F)CCN(c4cc(N)oc4C(=O)[100NH:0][100C:0](=O)N4CCCC(n5nc(-c6ccc(Oc7ccc(F)cc7F)cc6)c(C(N)=O)c5N)C4)CC3)ccc2CC1C(=O)NC1CCCc2ccccc21)C(C)(C)C

> <Shape>
0.181

> <Color>
0.079

> <Negative vol penalty>
0.000

$$$$

  -OEChem-04052303333D

 83 92  0     1  0  0  0  0  0999 V2000
  -28.8850  -36.8290   26.7275 C   0  0  0  0  0  0  0  0  0  0  0  0
  -29.6937  -35.7062   26.8709 C   0  0  0  0  0  0  0  0  0  0  0  0
  -23.0047   -9.8856   19.9815 C   0  0  0  0  0  0  0  0  0  0  0  0
  -23.7203   -9.9501   22.2882 C   0  0  0  0  0  0  0  0  0  0  0  0
  -27.5428  -36.6802   26.3806 C   0  0  0  0  0  0  0  0  0  0  0  0
  -29.1605  -34.4338   26.6686 C   0  0  0  0  0  0  0  0  0  0  0  0
  -30.9770  -27.9383   24.2551 C   0  0  0  0  0  0  0  0  0  0  0  0
  -22.2389   -8.7514   20.2507 C   0  0  0  0  0  0  0  0  0  0  0  0
  -22.9544   -8.8158   22.5575 C   0  0  0  0  0  0  0  0  0  0  0  0
  -30.9448  -26.5985   24.6396 C   0  0  0  0  0  0  0  0  0  0  0  0
  -23.2059   -5.4748   22.1044 C   0  0  0  0  0  0  0  0  0  0  0  0
  -23.7919   -4.4625   22.8644 C   0  0  0  0  0  0  0  0  0  0  0  0
  -31.8994  -18.7694   22.3173 C   0  0  0  0  0  0  0  0  0  0  0  0
  -31.8048  -17.4926   21.6920 C   0  0  0  0  0  0  0  0  0  0  0  0
  -28.6322  -26.4671   23.9659 C   0  0  0  0  0  0  0  0  0  0  0  0
  -22.0607   -4.7117   24.5311 C   0  0  0  0  0  0  0  0  0  0  0  0
  -23.7455  -10.4850   21.0002 C   0  0  0  0  0  0  0  0  0  0  0  0
  -24.1276  -13.0002   20.8123 C   0  0  0  0  0  0  0  0  0  0  0  0
  -26.9952  -35.4059   26.1645 C   0  0  0  0  0  0  0  0  0  0  0  0
  -29.8321  -28.5565   23.7323 C   0  0  0  0  0  0  0  0  0  0  0  0
  -27.8094  -34.2677   26.3197 C   0  0  0  0  0  0  0  0  0  0  0  0
  -28.6533  -27.8140   23.5731 C   0  0  0  0  0  0  0  0  0  0  0  0
  -22.2137   -8.2164   21.5387 C   0  0  0  0  0  0  0  0  0  0  0  0
  -29.7715  -25.8635   24.4978 C   0  0  0  0  0  0  0  0  0  0  0  0
  -22.0473   -6.1055   22.5578 C   0  0  0  0  0  0  0  0  0  0  0  0
  -23.2193   -4.0810   24.0777 C   0  0  0  0  0  0  0  0  0  0  0  0
  -21.4747   -5.7240   23.7712 C   0  0  0  0  0  0  0  0  0  0  0  0
  -24.5372  -11.6563   20.7226 C   0  0  0  0  0  0  0  0  0  0  0  0
  -25.2377  -13.7226   20.4487 C   0  0  0  0  0  0  0  0  0  0  0  0
  -30.7433  -19.1043   22.9874 C   0  0  0  0  0  0  0  0  0  0  0  0
  -30.5801  -16.9001   21.9083 C   0  0  0  0  0  0  0  0  0  0  0  0
  -30.6588  -22.3791   24.5414 C   0  0  0  0  0  0  0  0  0  0  0  0
  -31.0134  -21.5767   23.5188 C   0  0  0  0  0  0  0  0  0  0  0  0
  -22.8572  -13.5466   21.1907 C   0  0  0  0  0  0  0  0  0  0  0  0
  -27.9917  -30.9899   24.6239 C   0  0  0  0  0  0  0  0  0  0  0  0
  -26.5702  -30.4581   21.7570 C   0  0  0  0  0  0  0  0  0  0  0  0
  -25.8879  -28.2780   19.2216 C   0  0  0  0  0  0  0  0  0  0  0  0
  -30.7147  -14.6935   20.7003 C   0  0  0  0  0  0  0  0  0  0  0  0
  -25.5273  -35.2925   25.8373 C   0  0  0  0  0  0  0  0  0  0  0  0
  -29.8908  -29.9951   23.2974 C   0  0  0  0  0  0  0  0  0  0  0  0
  -27.4026  -28.4254   22.9983 C   0  0  0  0  0  0  0  0  0  0  0  0
  -29.8452  -21.6165   25.5531 C   0  0  0  0  0  0  0  0  0  0  0  0
  -25.1322  -33.9298   25.2739 C   0  0  0  0  0  0  0  0  0  0  0  0
  -29.6099  -12.2266   18.3828 C   0  0  0  0  0  0  0  0  0  0  0  0
  -25.7418  -32.8093   26.1105 C   0  0  0  0  0  0  0  0  0  0  0  0
  -28.1580  -11.9688   18.7923 C   0  0  0  0  0  0  0  0  0  0  0  0
  -29.6418  -20.2426   24.8935 C   0  0  0  0  0  0  0  0  0  0  0  0
  -30.5050  -12.4778   19.5949 C   0  0  0  0  0  0  0  0  0  0  0  0
  -28.5829  -13.2707   20.9164 C   0  0  0  0  0  0  0  0  0  0  0  0
  -27.2737  -32.8721   26.0843 C   0  0  1  0  0  0  0  0  0  0  0  0
  -28.5199  -30.6632   23.2557 C   0  0  1  0  0  0  0  0  0  0  0  0
  -27.6304  -13.0765   19.7252 C   0  0  2  0  0  0  0  0  0  0  0  0
  -31.7397  -22.0145   22.2898 C   0  0  0  0  0  0  0  0  0  0  0  0
  -24.6716  -28.1212   17.0322 C   0  0  0  0  0  0  0  0  0  0  0  0
  -23.9141  -30.2798   23.2481 C   0  0  0  0  0  0  0  0  0  0  0  0
  -22.9246  -29.2050   21.2149 C   0  0  0  0  0  0  0  0  0  0  0  0
  -23.8144  -31.5318   21.0855 C   0  0  0  0  0  0  0  0  0  0  0  0
  -28.3823  -27.6773   17.7464 C   0  0  0  0  0  0  0  0  0  0  0  0
  -30.9550  -23.8190   24.7723 C   0  0  0  0  0  0  0  0  0  1  0  0
  -25.4296  -29.5958   21.2729 C   0  0  1  0  0  0  0  0  0  0  0  0
  -25.9977  -28.4199   17.7142 C   0  0  2  0  0  0  0  0  0  0  0  0
  -24.0435  -30.1418   21.7180 C   0  0  0  0  0  0  0  0  0  0  0  0
  -25.8083  -11.5297   20.3324 N   0  0  0  0  0  0  0  0  0  0  0  0
  -26.2070  -12.8033   20.1736 N   0  0  0  0  0  0  0  0  0  0  0  0
  -30.5072  -20.2895   23.7064 N   0  0  0  0  0  0  0  0  0  0  0  0
  -27.5084  -29.8370   22.5936 N   0  0  0  0  0  0  0  0  0  0  0  0
  -29.9448  -13.5423   20.4303 N   0  0  0  0  0  0  0  0  0  0  0  0
  -25.4695  -15.0481   20.3405 N   0  0  0  0  0  0  0  0  0  0  0  0
  -21.8253  -12.6627   21.5347 N   0  0  0  0  0  0  0  0  0  0  0  0
  -30.0657  -15.6518   21.4781 N   0  0  0  0  0  0  0  0  0  0  0  0
  -27.7802  -32.3386   24.8380 N   0  0  0  0  0  0  0  0  0  0  0  0
  -25.5902  -29.4803   19.8275 N   0  0  0  0  0  0  0  0  0  0  0  0
  -27.0235  -27.4807   17.1789 N   0  3  0  0  0  0  0  0  0  0  0  0
  -22.6384  -14.7817   21.2069 O   0  0  0  0  0  0  0  0  0  0  0  0
  -27.7895  -30.0853   25.4254 O   0  0  0  0  0  0  0  0  0  0  0  0
  -26.6306  -31.6374   21.4001 O   0  0  0  0  0  0  0  0  0  0  0  0
  -26.0464  -27.2069   19.8032 O   0  0  0  0  0  0  0  0  0  0  0  0
  -31.8550  -14.8318   20.2502 O   0  0  0  0  0  0  0  0  0  0  0  0
  -21.4663   -7.1098   21.8018 O   0  0  0  0  0  0  0  0  0  0  0  0
  -29.7371  -24.5558   24.8729 O   0  0  0  0  0  0  0  0  0  1  0  0
  -23.7812   -3.1078   24.8067 F   0  0  0  0  0  0  0  0  0  0  0  0
  -20.3610   -6.3254   24.2114 F   0  0  0  0  0  0  0  0  0  0  0  0
  -29.5507  -17.8820   22.8614 S   0  0  0  0  0  0  0  0  0  0  0  0
  1  2  1  0  0  0  0
  1  5  2  0  0  0  0
  2  6  2  0  0  0  0
  3  8  2  0  0  0  0
  3 17  1  0  0  0  0
  4  9  1  0  0  0  0
  4 17  2  0  0  0  0
  5 19  1  0  0  0  0
  6 21  1  0  0  0  0
  7 10  2  0  0  0  0
  7 20  1  0  0  0  0
  8 23  1  0  0  0  0
  9 23  2  0  0  0  0
 10 24  1  0  0  0  0
 11 12  2  0  0  0  0
 11 25  1  0  0  0  0
 12 26  1  0  0  0  0
 13 14  1  0  0  0  0
 13 30  2  0  0  0  0
 14 31  2  0  0  0  0
 15 22  1  0  0  0  0
 15 24  2  0  0  0  0
 16 26  2  0  0  0  0
 16 27  1  0  0  0  0
 17 28  1  0  0  0  0
 18 28  1  0  0  0  0
 18 29  2  0  0  0  0
 18 34  1  0  0  0  0
 19 21  2  0  0  0  0
 19 39  1  0  0  0  0
 20 22  2  0  0  0  0
 20 40  1  0  0  0  0
 21 50  1  0  0  0  0
 22 41  1  0  0  0  0
 23 79  1  0  0  0  0
 24 80  1  0  0  0  0
 25 27  2  0  0  0  0
 25 79  1  0  0  0  0
 26 81  1  0  0  0  0
 27 82  1  0  0  0  0
 28 63  2  0  0  0  0
 29 64  1  0  0  0  0
 29 68  1  0  0  0  0
 30 65  1  0  0  0  0
 30 83  1  0  0  0  0
 31 70  1  0  0  0  0
 31 83  1  0  0  0  0
 32 33  2  0  0  0  0
 32 42  1  0  0  0  0
 32 59  1  0  0  0  0
 33 53  1  0  0  0  0
 33 65  1  0  0  0  0
 34 69  1  0  0  0  0
 34 74  2  0  0  0  0
 35 51  1  0  0  0  0
 35 71  1  0  0  0  0
 35 75  2  0  0  0  0
 36 60  1  0  0  0  0
 36 66  1  0  0  0  0
 36 76  2  0  0  0  0
 37 61  1  0  0  0  0
 37 72  1  0  0  0  0
 37 77  2  0  0  0  0
 38 67  1  0  0  0  0
 38 70  1  0  0  0  0
 38 78  2  0  0  0  0
 39 43  1  0  0  0  0
 40 51  1  0  0  0  0
 41 66  1  0  0  0  0
 42 47  1  0  0  0  0
 43 45  1  0  0  0  0
 44 46  1  0  0  0  0
 44 48  1  0  0  0  0
 45 50  1  0  0  0  0
 46 52  1  0  0  0  0
 47 65  1  0  0  0  0
 48 67  1  0  0  0  0
 49 52  1  0  0  0  0
 49 67  1  0  0  0  0
 50 71  1  0  0  0  0
 51 66  1  0  0  0  0
 52 64  1  0  0  0  0
 54 61  1  0  0  0  0
 55 62  1  0  0  0  0
 56 62  1  0  0  0  0
 57 62  1  0  0  0  0
 58 73  1  0  0  0  0
 59 80  1  0  0  0  0
 60 62  1  0  0  0  0
 60 72  1  0  0  0  0
 61 73  1  0  0  0  0
 63 64  1  0  0  0  0
M  CHG  1  73   1
M  ISO  4  38 100  59 101  70 100  80 101
M  END
> <Batch ID>
0154

> <Smiles>
CNC(C)C(=O)NC(C(=O)N1Cc2cc([101O:1][101CH2:1]C3=C(C)N(c4ccc([100NH:0][100C:0](=O)N5CCCC(n6nc(-c7ccc(Oc8ccc(F)cc8F)cc7)c(C(N)=O)c6N)C5)s4)CC3)ccc2CC1C(=O)NC1CCCc2ccccc21)C(C)(C)C

> <Shape>
0.312

> <Color>
0.202

> <Negative vol penalty>
0.000

$$$$

  -OEChem-04052303333D

 85 94  0     1  0  0  0  0  0999 V2000
  -30.2176  -25.1210   20.0897 C   0  0  0  0  0  0  0  0  0  0  0  0
  -28.8519  -25.0207   20.3352 C   0  0  0  0  0  0  0  0  0  0  0  0
  -23.3698  -25.4116   25.4724 C   0  0  0  0  0  0  0  0  0  0  0  0
  -24.1205  -14.2074   21.5175 C   0  0  0  0  0  0  0  0  0  0  0  0
  -26.0947  -14.3762   20.1351 C   0  0  0  0  0  0  0  0  0  0  0  0
  -30.9690  -26.1065   20.7283 C   0  0  0  0  0  0  0  0  0  0  0  0
  -28.2370  -25.9055   21.2204 C   0  0  0  0  0  0  0  0  0  0  0  0
  -21.9842  -25.3500   25.3246 C   0  0  0  0  0  0  0  0  0  0  0  0
  -23.8036  -27.7724   19.3898 C   0  0  0  0  0  0  0  0  0  0  0  0
  -24.1894  -24.5683   24.7222 C   0  0  0  0  0  0  0  0  0  0  0  0
  -24.3263  -12.8336   21.6437 C   0  0  0  0  0  0  0  0  0  0  0  0
  -26.3005  -13.0024   20.2613 C   0  0  0  0  0  0  0  0  0  0  0  0
  -22.6703  -26.9622   19.4455 C   0  0  0  0  0  0  0  0  0  0  0  0
  -23.8098  -10.0571   19.7867 C   0  0  0  0  0  0  0  0  0  0  0  0
  -22.7048   -9.2202   19.6320 C   0  0  0  0  0  0  0  0  0  0  0  0
  -22.2378  -23.6015   23.6766 C   0  0  0  0  0  0  0  0  0  0  0  0
  -21.9660  -28.0959   21.4547 C   0  0  0  0  0  0  0  0  0  0  0  0
  -23.0224   -8.3860   21.8771 C   0  0  0  0  0  0  0  0  0  0  0  0
  -25.0047  -14.9787   20.7632 C   0  0  0  0  0  0  0  0  0  0  0  0
  -23.6671  -17.0418   20.0833 C   0  0  0  0  0  0  0  0  0  0  0  0
  -21.4182  -24.4449   24.4268 C   0  0  0  0  0  0  0  0  0  0  0  0
  -30.3612  -27.0099   21.6145 C   0  0  0  0  0  0  0  0  0  0  0  0
  -24.0327  -28.7453   20.3735 C   0  0  0  0  0  0  0  0  0  0  0  0
  -28.9812  -26.9032   21.8725 C   0  0  0  0  0  0  0  0  0  0  0  0
  -23.1005  -28.9202   21.4065 C   0  0  0  0  0  0  0  0  0  0  0  0
  -23.6234  -23.6632   23.8244 C   0  0  0  0  0  0  0  0  0  0  0  0
  -25.4163  -12.2311   21.0157 C   0  0  0  0  0  0  0  0  0  0  0  0
  -21.7525  -27.1224   20.4793 C   0  0  0  0  0  0  0  0  0  0  0  0
  -24.5212  -10.0585   20.9865 C   0  0  0  0  0  0  0  0  0  0  0  0
  -22.3111   -8.3846   20.6772 C   0  0  0  0  0  0  0  0  0  0  0  0
  -24.1275   -9.2230   22.0317 C   0  0  0  0  0  0  0  0  0  0  0  0
  -24.7923  -16.3978   20.6319 C   0  0  0  0  0  0  0  0  0  0  0  0
  -23.9519  -18.3812   20.1903 C   0  0  0  0  0  0  0  0  0  0  0  0
  -22.4713  -16.4796   19.5267 C   0  0  0  0  0  0  0  0  0  0  0  0
  -26.2988  -29.3520   22.5512 C   0  0  0  0  0  0  0  0  0  0  0  0
  -19.4612  -24.6919   21.7615 C   0  0  0  0  0  0  0  0  0  0  0  0
  -24.4363  -32.0741   22.9692 C   0  0  0  0  0  0  0  0  0  0  0  0
  -26.9657  -33.4641   24.7886 C   0  0  0  0  0  0  0  0  0  0  0  0
  -25.8490  -22.7412   23.0876 C   0  0  0  0  0  0  0  0  0  0  0  0
  -31.2233  -28.0285   22.3173 C   0  0  0  0  0  0  0  0  0  0  0  0
  -25.2464  -29.6297   20.2782 C   0  0  0  0  0  0  0  0  0  0  0  0
  -23.2987  -29.9523   22.4836 C   0  0  0  0  0  0  0  0  0  0  0  0
  -30.4272  -29.1645   22.9545 C   0  0  0  0  0  0  0  0  0  0  0  0
  -19.1635  -22.0850   24.3639 C   0  0  0  0  0  0  0  0  0  0  0  0
  -28.2626  -20.7462   21.3929 C   0  0  0  0  0  0  0  0  0  0  0  0
  -19.2826  -23.3464   25.2141 C   0  0  0  0  0  0  0  0  0  0  0  0
  -29.2377  -28.6116   23.7330 C   0  0  0  0  0  0  0  0  0  0  0  0
  -27.4824  -19.4901   20.9988 C   0  0  0  0  0  0  0  0  0  0  0  0
  -18.8609  -22.6219   22.9757 C   0  0  0  0  0  0  0  0  0  0  0  0
  -27.8300  -21.2775   22.7584 C   0  0  0  0  0  0  0  0  0  0  0  0
  -25.6062  -20.2457   22.5141 C   0  0  0  0  0  0  0  0  0  0  0  0
  -19.9100  -24.3782   24.2663 C   0  0  2  0  0  0  0  0  0  0  0  0
  -28.2735  -27.8602   22.8072 C   0  0  1  0  0  0  0  0  0  0  0  0
  -25.6207  -30.2969   21.6001 C   0  0  1  0  0  0  0  0  0  0  0  0
  -25.9616  -19.7110   21.1171 C   0  0  2  0  0  0  0  0  0  0  0  0
  -27.6757  -35.6283   25.8418 C   0  0  0  0  0  0  0  0  0  0  0  0
  -25.1897  -33.1608   20.2203 C   0  0  0  0  0  0  0  0  0  0  0  0
  -26.6981  -34.8018   21.3604 C   0  0  0  0  0  0  0  0  0  0  0  0
  -24.2416  -34.8609   21.7904 C   0  0  0  0  0  0  0  0  0  0  0  0
  -26.9985  -32.2697   27.4962 C   0  0  0  0  0  0  0  0  0  0  0  0
  -20.1159  -26.0485   21.8300 C   0  0  0  0  0  0  0  0  0  1  0  0
  -25.6245  -32.9789   22.7587 C   0  0  1  0  0  0  0  0  0  0  0  0
  -26.9533  -34.3066   26.0513 C   0  0  2  0  0  0  0  0  0  0  0  0
  -25.4417  -33.9227   21.5367 C   0  0  0  0  0  0  0  0  0  0  0  0
  -25.7226  -17.2573   21.0559 N   0  0  0  0  0  0  0  0  0  0  0  0
  -25.1826  -18.4551   20.7735 N   0  0  0  0  0  0  0  0  0  0  0  0
  -24.4511  -30.8440   22.2994 N   0  0  0  0  0  0  0  0  0  0  0  0
  -19.4629  -23.9484   22.9318 N   0  0  0  0  0  0  0  0  0  0  0  0
  -26.3781  -21.4663   22.7951 N   0  0  0  0  0  0  0  0  0  0  0  0
  -23.2673  -19.4911   19.8414 N   0  0  0  0  0  0  0  0  0  0  0  0
  -22.4430  -16.1940   18.1549 N   0  0  0  0  0  0  0  0  0  0  0  0
  -24.4563  -22.8072   23.0620 N   0  0  0  0  0  0  0  0  0  0  0  0
  -27.4623  -28.7945   22.0565 N   0  0  0  0  0  0  0  0  0  0  0  0
  -25.8377  -33.6737   24.0237 N   0  0  0  0  0  0  0  0  0  0  0  0
  -27.6208  -33.5778   27.1668 N   0  3  0  0  0  0  0  0  0  0  0  0
  -21.4522  -16.2530   20.2222 O   0  0  0  0  0  0  0  0  0  0  0  0
  -25.8038  -29.1452   23.6530 O   0  0  0  0  0  0  0  0  0  0  0  0
  -18.9658  -24.2994   20.7027 O   0  0  0  0  0  0  0  0  0  0  0  0
  -23.5155  -32.4485   23.7008 O   0  0  0  0  0  0  0  0  0  0  0  0
  -27.8858  -32.6994   24.5070 O   0  0  0  0  0  0  0  0  0  0  0  0
  -26.5783  -23.7098   23.3153 O   0  0  0  0  0  0  0  0  0  0  0  0
  -25.6176  -10.8906   21.1388 O   0  0  0  0  0  0  0  0  0  0  0  0
  -20.6452  -26.3333   20.5357 O   0  0  0  0  0  0  0  0  0  1  0  0
  -21.2489   -7.5820   20.5291 F   0  0  0  0  0  0  0  0  0  0  0  0
  -24.8063   -9.2208   23.1872 F   0  0  0  0  0  0  0  0  0  0  0  0
  1  2  1  0  0  0  0
  1  6  2  0  0  0  0
  2  7  2  0  0  0  0
  3  8  2  0  0  0  0
  3 10  1  0  0  0  0
  4 11  2  0  0  0  0
  4 19  1  0  0  0  0
  5 12  1  0  0  0  0
  5 19  2  0  0  0  0
  6 22  1  0  0  0  0
  7 24  1  0  0  0  0
  8 21  1  0  0  0  0
  9 13  2  0  0  0  0
  9 23  1  0  0  0  0
 10 26  2  0  0  0  0
 11 27  1  0  0  0  0
 12 27  2  0  0  0  0
 13 28  1  0  0  0  0
 14 15  2  0  0  0  0
 14 29  1  0  0  0  0
 15 30  1  0  0  0  0
 16 21  2  0  0  0  0
 16 26  1  0  0  0  0
 17 25  1  0  0  0  0
 17 28  2  0  0  0  0
 18 30  2  0  0  0  0
 18 31  1  0  0  0  0
 19 32  1  0  0  0  0
 20 32  1  0  0  0  0
 20 33  2  0  0  0  0
 20 34  1  0  0  0  0
 21 52  1  0  0  0  0
 22 24  2  0  0  0  0
 22 40  1  0  0  0  0
 23 25  2  0  0  0  0
 23 41  1  0  0  0  0
 24 53  1  0  0  0  0
 25 42  1  0  0  0  0
 26 72  1  0  0  0  0
 27 82  1  0  0  0  0
 28 83  1  0  0  0  0
 29 31  2  0  0  0  0
 29 82  1  0  0  0  0
 30 84  1  0  0  0  0
 31 85  1  0  0  0  0
 32 65  2  0  0  0  0
 33 66  1  0  0  0  0
 33 70  1  0  0  0  0
 34 71  1  0  0  0  0
 34 76  2  0  0  0  0
 35 54  1  0  0  0  0
 35 73  1  0  0  0  0
 35 77  2  0  0  0  0
 36 61  1  0  0  0  0
 36 68  1  0  0  0  0
 36 78  2  0  0  0  0
 37 62  1  0  0  0  0
 37 67  1  0  0  0  0
 37 79  2  0  0  0  0
 38 63  1  0  0  0  0
 38 74  1  0  0  0  0
 38 80  2  0  0  0  0
 39 69  1  0  0  0  0
 39 72  1  0  0  0  0
 39 81  2  0  0  0  0
 40 43  1  0  0  0  0
 41 54  1  0  0  0  0
 42 67  1  0  0  0  0
 43 47  1  0  0  0  0
 44 46  1  0  0  0  0
 44 49  1  0  0  0  0
 45 48  1  0  0  0  0
 45 50  1  0  0  0  0
 46 52  1  0  0  0  0
 47 53  1  0  0  0  0
 48 55  1  0  0  0  0
 49 68  1  0  0  0  0
 50 69  1  0  0  0  0
 51 55  1  0  0  0  0
 51 69  1  0  0  0  0
 52 68  1  0  0  0  0
 53 73  1  0  0  0  0
 54 67  1  0  0  0  0
 55 66  1  0  0  0  0
 56 63  1  0  0  0  0
 57 64  1  0  0  0  0
 58 64  1  0  0  0  0
 59 64  1  0  0  0  0
 60 75  1  0  0  0  0
 61 83  1  0  0  0  0
 62 64  1  0  0  0  0
 62 74  1  0  0  0  0
 63 75  1  0  0  0  0
 65 66  1  0  0  0  0
M  CHG  1  75   1
M  ISO  4  39 100  61 101  72 100  83 101
M  END
> <Batch ID>
0154

> <Smiles>
CNC(C)C(=O)NC(C(=O)N1Cc2cc([101O:1][101CH2:1]C(=O)N3CCCC3c3cccc([100NH:0][100C:0](=O)N4CCCC(n5nc(-c6ccc(Oc7ccc(F)cc7F)cc6)c(C(N)=O)c5N)C4)c3)ccc2CC1C(=O)NC1CCCc2ccccc21)C(C)(C)C

> <Shape>
0.231

> <Color>
0.076

> <Negative vol penalty>
0.000

$$$$

  -OEChem-04052303333D

 84 93  0     1  0  0  0  0  0999 V2000
  -29.2196  -36.1820   20.8193 C   0  0  0  0  0  0  0  0  0  0  0  0
  -29.3401  -34.7971   20.8734 C   0  0  0  0  0  0  0  0  0  0  0  0
  -24.1540   -9.1522   22.5172 C   0  0  0  0  0  0  0  0  0  0  0  0
  -23.4531  -10.0212   20.3747 C   0  0  0  0  0  0  0  0  0  0  0  0
  -28.1914  -36.8188   21.5131 C   0  0  0  0  0  0  0  0  0  0  0  0
  -28.4332  -34.0482   21.6224 C   0  0  0  0  0  0  0  0  0  0  0  0
  -26.7965  -29.9420   19.1514 C   0  0  0  0  0  0  0  0  0  0  0  0
  -23.1896   -8.1486   22.4257 C   0  0  0  0  0  0  0  0  0  0  0  0
  -22.4886   -9.0176   20.2831 C   0  0  0  0  0  0  0  0  0  0  0  0
  -27.6537  -28.8435   19.1043 C   0  0  0  0  0  0  0  0  0  0  0  0
  -22.8208   -5.1855   20.8393 C   0  0  0  0  0  0  0  0  0  0  0  0
  -23.2043   -3.8858   21.1698 C   0  0  0  0  0  0  0  0  0  0  0  0
  -26.4131  -27.8063   20.8945 C   0  0  0  0  0  0  0  0  0  0  0  0
  -27.5213  -20.0869   20.1185 C   0  0  0  0  0  0  0  0  0  0  0  0
  -29.2934  -19.6751   18.4794 C   0  0  0  0  0  0  0  0  0  0  0  0
  -21.5383   -3.8388   22.9189 C   0  0  0  0  0  0  0  0  0  0  0  0
  -24.2857  -10.0885   21.4917 C   0  0  0  0  0  0  0  0  0  0  0  0
  -26.6116  -11.0712   21.1285 C   0  0  0  0  0  0  0  0  0  0  0  0
  -27.2657  -36.0764   22.2631 C   0  0  0  0  0  0  0  0  0  0  0  0
  -25.7460  -29.9859   20.0794 C   0  0  0  0  0  0  0  0  0  0  0  0
  -27.3925  -34.6757   22.3280 C   0  0  0  0  0  0  0  0  0  0  0  0
  -25.5425  -28.9054   20.9496 C   0  0  0  0  0  0  0  0  0  0  0  0
  -28.1276  -17.8420   19.3974 C   0  0  0  0  0  0  0  0  0  0  0  0
  -27.3800  -18.7285   20.1323 C   0  0  0  0  0  0  0  0  0  0  0  0
  -28.5107  -20.5642   19.2569 C   0  0  0  0  0  0  0  0  0  0  0  0
  -29.1037  -18.2875   18.5483 C   0  0  0  0  0  0  0  0  0  0  0  0
  -22.3569   -8.0813   21.3087 C   0  0  0  0  0  0  0  0  0  0  0  0
  -27.4638  -27.7767   19.9778 C   0  0  0  0  0  0  0  0  0  0  0  0
  -21.7960   -5.8119   21.5487 C   0  0  0  0  0  0  0  0  0  0  0  0
  -22.5631   -3.2124   22.2095 C   0  0  0  0  0  0  0  0  0  0  0  0
  -21.1548   -5.1386   22.5884 C   0  0  0  0  0  0  0  0  0  0  0  0
  -25.2814  -11.1257   21.5859 C   0  0  0  0  0  0  0  0  0  0  0  0
  -27.1369  -12.2980   21.4532 C   0  0  0  0  0  0  0  0  0  0  0  0
  -27.3100  -10.0069   20.4688 C   0  0  0  0  0  0  0  0  0  0  0  0
  -24.9784  -31.8843   22.5105 C   0  0  0  0  0  0  0  0  0  0  0  0
  -28.4799  -24.3136   19.5789 C   0  0  0  0  0  0  0  0  0  0  0  0
  -22.2775  -30.0883   22.5526 C   0  0  0  0  0  0  0  0  0  0  0  0
  -20.7484  -27.1370   21.7789 C   0  0  0  0  0  0  0  0  0  0  0  0
  -25.7533  -17.8455   21.7742 C   0  0  0  0  0  0  0  0  0  0  0  0
  -26.1994  -36.8130   23.0347 C   0  0  0  0  0  0  0  0  0  0  0  0
  -24.8139  -31.1662   20.0994 C   0  0  0  0  0  0  0  0  0  0  0  0
  -24.4173  -28.8946   21.9507 C   0  0  0  0  0  0  0  0  0  0  0  0
  -27.3794  -16.6856   19.9931 C   0  0  0  0  0  0  0  0  0  0  0  0
  -25.0559  -35.9159   23.5015 C   0  0  0  0  0  0  0  0  0  0  0  0
  -25.9243  -15.8665   24.6717 C   0  0  0  0  0  0  0  0  0  0  0  0
  -25.6024  -34.6369   24.1279 C   0  0  0  0  0  0  0  0  0  0  0  0
  -25.9314  -14.4317   24.1362 C   0  0  0  0  0  0  0  0  0  0  0  0
  -24.9933  -16.7720   23.8643 C   0  0  0  0  0  0  0  0  0  0  0  0
  -25.2015  -15.3343   21.8970 C   0  0  0  0  0  0  0  0  0  0  0  0
  -26.4134  -33.8267   23.1095 C   0  0  1  0  0  0  0  0  0  0  0  0
  -24.0897  -31.3330   21.4317 C   0  0  1  0  0  0  0  0  0  0  0  0
  -26.1843  -14.3969   22.6155 C   0  0  2  0  0  0  0  0  0  0  0  0
  -18.5460  -25.9497   21.9715 C   0  0  0  0  0  0  0  0  0  0  0  0
  -22.8198  -29.5672   25.5097 C   0  0  0  0  0  0  0  0  0  0  0  0
  -21.1886  -27.6709   25.4031 C   0  0  0  0  0  0  0  0  0  0  0  0
  -20.4213  -30.0007   24.9495 C   0  0  0  0  0  0  0  0  0  0  0  0
  -20.4812  -26.9117   18.8400 C   0  0  0  0  0  0  0  0  0  0  0  0
  -27.9948  -22.9174   19.9064 C   0  0  0  0  0  0  0  0  0  0  0  0
  -27.7690  -25.4406   20.3027 C   0  0  0  0  0  0  0  0  0  1  0  0
  -21.8529  -28.8120   23.2380 C   0  0  1  0  0  0  0  0  0  0  0  0
  -19.4235  -26.8363   21.1015 C   0  0  2  0  0  0  0  0  0  0  0  0
  -21.5931  -29.0135   24.7576 C   0  0  0  0  0  0  0  0  0  0  0  0
  -24.9803  -12.2946   22.1580 N   0  0  0  0  0  0  0  0  0  0  0  0
  -26.1288  -12.9858   22.0621 N   0  0  0  0  0  0  0  0  0  0  0  0
  -26.6525  -17.7278   20.7446 N   0  0  0  0  0  0  0  0  0  0  0  0
  -23.5366  -30.0744   21.9358 N   0  0  0  0  0  0  0  0  0  0  0  0
  -25.3252  -16.6911   22.4374 N   0  0  0  0  0  0  0  0  0  0  0  0
  -29.8757  -17.4028   17.7854 N   0  0  0  0  0  0  0  0  0  0  0  0
  -28.3583  -12.8447   21.2746 N   0  0  0  0  0  0  0  0  0  0  0  0
  -26.6206   -8.8141   20.2114 N   0  0  0  0  0  0  0  0  0  0  0  0
  -28.7388  -21.9552   19.1568 N   0  0  0  0  0  0  0  0  0  0  0  0
  -25.5299  -33.1154   22.2107 N   0  0  0  0  0  0  0  0  0  0  0  0
  -20.7000  -28.3140   22.4955 N   0  0  0  0  0  0  0  0  0  0  0  0
  -19.6516  -26.1421   19.8027 N   0  3  0  0  0  0  0  0  0  0  0  0
  -28.5146  -10.1046   20.1328 O   0  0  0  0  0  0  0  0  0  0  0  0
  -25.1500  -31.2411   23.5394 O   0  0  0  0  0  0  0  0  0  0  0  0
  -29.3897  -24.5315   18.7798 O   0  0  0  0  0  0  0  0  0  0  0  0
  -21.5170  -31.0594   22.5579 O   0  0  0  0  0  0  0  0  0  0  0  0
  -21.7271  -26.3996   21.6848 O   0  0  0  0  0  0  0  0  0  0  0  0
  -25.3608  -18.9657   22.1325 O   0  0  0  0  0  0  0  0  0  0  0  0
  -21.4159   -7.1020   21.2189 O   0  0  0  0  0  0  0  0  0  0  0  0
  -28.3081  -26.6924   19.9339 O   0  0  0  0  0  0  0  0  0  1  0  0
  -22.9305   -1.9637   22.5257 F   0  0  0  0  0  0  0  0  0  0  0  0
  -20.1689   -5.7348   23.2728 F   0  0  0  0  0  0  0  0  0  0  0  0
  1  2  1  0  0  0  0
  1  5  2  0  0  0  0
  2  6  2  0  0  0  0
  3  8  2  0  0  0  0
  3 17  1  0  0  0  0
  4  9  1  0  0  0  0
  4 17  2  0  0  0  0
  5 19  1  0  0  0  0
  6 21  1  0  0  0  0
  7 10  2  0  0  0  0
  7 20  1  0  0  0  0
  8 27  1  0  0  0  0
  9 27  2  0  0  0  0
 10 28  1  0  0  0  0
 11 12  2  0  0  0  0
 11 29  1  0  0  0  0
 12 30  1  0  0  0  0
 13 22  1  0  0  0  0
 13 28  2  0  0  0  0
 14 24  1  0  0  0  0
 14 25  2  0  0  0  0
 15 25  1  0  0  0  0
 15 26  2  0  0  0  0
 16 30  2  0  0  0  0
 16 31  1  0  0  0  0
 17 32  1  0  0  0  0
 18 32  1  0  0  0  0
 18 33  2  0  0  0  0
 18 34  1  0  0  0  0
 19 21  2  0  0  0  0
 19 40  1  0  0  0  0
 20 22  2  0  0  0  0
 20 41  1  0  0  0  0
 21 50  1  0  0  0  0
 22 42  1  0  0  0  0
 23 24  2  0  0  0  0
 23 26  1  0  0  0  0
 23 43  1  0  0  0  0
 24 65  1  0  0  0  0
 25 71  1  0  0  0  0
 26 68  1  0  0  0  0
 27 81  1  0  0  0  0
 28 82  1  0  0  0  0
 29 31  2  0  0  0  0
 29 81  1  0  0  0  0
 30 83  1  0  0  0  0
 31 84  1  0  0  0  0
 32 63  2  0  0  0  0
 33 64  1  0  0  0  0
 33 69  1  0  0  0  0
 34 70  1  0  0  0  0
 34 75  2  0  0  0  0
 35 51  1  0  0  0  0
 35 72  1  0  0  0  0
 35 76  2  0  0  0  0
 36 58  1  0  0  0  0
 36 59  1  0  0  0  0
 36 77  2  0  0  0  0
 37 60  1  0  0  0  0
 37 66  1  0  0  0  0
 37 78  2  0  0  0  0
 38 61  1  0  0  0  0
 38 73  1  0  0  0  0
 38 79  2  0  0  0  0
 39 65  1  0  0  0  0
 39 67  1  0  0  0  0
 39 80  2  0  0  0  0
 40 44  1  0  0  0  0
 41 51  1  0  0  0  0
 42 66  1  0  0  0  0
 43 65  1  0  0  0  0
 44 46  1  0  0  0  0
 45 47  1  0  0  0  0
 45 48  1  0  0  0  0
 46 50  1  0  0  0  0
 47 52  1  0  0  0  0
 48 67  1  0  0  0  0
 49 52  1  0  0  0  0
 49 67  1  0  0  0  0
 50 72  1  0  0  0  0
 51 66  1  0  0  0  0
 52 64  1  0  0  0  0
 53 61  1  0  0  0  0
 54 62  1  0  0  0  0
 55 62  1  0  0  0  0
 56 62  1  0  0  0  0
 57 74  1  0  0  0  0
 58 71  1  0  0  0  0
 59 82  1  0  0  0  0
 60 62  1  0  0  0  0
 60 73  1  0  0  0  0
 61 74  1  0  0  0  0
 63 64  1  0  0  0  0
M  CHG  1  74   1
M  ISO  4  39 100  59 101  65 100  82 101
M  END
> <Batch ID>
0154

> <Smiles>
CNC(C)C(=O)NC(C(=O)N1Cc2cc([101O:1][101CH2:1]C(=O)CNc3cc(N)c4c(c3)[100N:0]([100C:0](=O)N3CCCC(n5nc(-c6ccc(Oc7ccc(F)cc7F)cc6)c(C(N)=O)c5N)C3)C4)ccc2CC1C(=O)NC1CCCc2ccccc21)C(C)(C)C

> <Shape>
0.311

> <Color>
0.090

> <Negative vol penalty>
0.000

$$$$

  -OEChem-04052303333D

 87 96  0     1  0  0  0  0  0999 V2000
  -28.1527  -29.9011   18.7651 C   0  0  0  0  0  0  0  0  0  0  0  0
  -28.1929  -28.8239   19.6445 C   0  0  0  0  0  0  0  0  0  0  0  0
  -23.1064   -9.8365   19.8875 C   0  0  0  0  0  0  0  0  0  0  0  0
  -23.9143   -9.7505   22.1627 C   0  0  0  0  0  0  0  0  0  0  0  0
  -27.1004  -30.8135   18.8299 C   0  0  0  0  0  0  0  0  0  0  0  0
  -27.1814  -28.6590   20.5900 C   0  0  0  0  0  0  0  0  0  0  0  0
  -25.5619  -23.8701   20.8879 C   0  0  0  0  0  0  0  0  0  0  0  0
  -22.3996   -8.6517   20.0936 C   0  0  0  0  0  0  0  0  0  0  0  0
  -23.2075   -8.5658   22.3690 C   0  0  0  0  0  0  0  0  0  0  0  0
  -26.3593  -22.9711   21.5948 C   0  0  0  0  0  0  0  0  0  0  0  0
  -20.0158   -7.6480   22.9944 C   0  0  0  0  0  0  0  0  0  0  0  0
  -19.2853   -7.5284   24.1766 C   0  0  0  0  0  0  0  0  0  0  0  0
  -29.7657  -17.4463   23.3278 C   0  0  0  0  0  0  0  0  0  0  0  0
  -31.7347  -18.3503   24.3968 C   0  0  0  0  0  0  0  0  0  0  0  0
  -24.9041  -23.1925   23.5059 C   0  0  0  0  0  0  0  0  0  0  0  0
  -31.9599  -16.6913   22.6549 C   0  0  0  0  0  0  0  0  0  0  0  0
  -20.5943   -5.5925   24.7896 C   0  0  0  0  0  0  0  0  0  0  0  0
  -23.8638  -10.3859   20.9220 C   0  0  0  0  0  0  0  0  0  0  0  0
  -30.3470  -18.3006   24.2648 C   0  0  0  0  0  0  0  0  0  0  0  0
  -24.1341  -12.9225   20.9227 C   0  0  0  0  0  0  0  0  0  0  0  0
  -26.0704  -30.6544   19.7704 C   0  0  0  0  0  0  0  0  0  0  0  0
  -24.4339  -24.4464   21.4894 C   0  0  0  0  0  0  0  0  0  0  0  0
  -26.1151  -29.5709   20.6684 C   0  0  0  0  0  0  0  0  0  0  0  0
  -24.0925  -24.0965   22.8036 C   0  0  0  0  0  0  0  0  0  0  0  0
  -30.5722  -16.6416   22.5229 C   0  0  0  0  0  0  0  0  0  0  0  0
  -22.4502   -8.0164   21.3344 C   0  0  0  0  0  0  0  0  0  0  0  0
  -26.0321  -22.6344   22.9050 C   0  0  0  0  0  0  0  0  0  0  0  0
  -21.0356   -6.7399   22.7097 C   0  0  0  0  0  0  0  0  0  0  0  0
  -19.5745   -6.5006   25.0742 C   0  0  0  0  0  0  0  0  0  0  0  0
  -21.3249   -5.7121   23.6073 C   0  0  0  0  0  0  0  0  0  0  0  0
  -32.5412  -17.5456   23.5918 C   0  0  0  0  0  0  0  0  0  0  0  0
  -24.5945  -11.6094   20.7095 C   0  0  0  0  0  0  0  0  0  0  0  0
  -25.1975  -13.7197   20.5761 C   0  0  0  0  0  0  0  0  0  0  0  0
  -29.4948  -19.1504   25.1155 C   0  0  0  0  0  0  0  0  0  0  0  0
  -22.8592  -13.3807   21.3923 C   0  0  0  0  0  0  0  0  0  0  0  0
  -23.5476  -27.4111   22.2164 C   0  0  0  0  0  0  0  0  0  0  0  0
  -20.7616  -25.9625   23.0300 C   0  0  0  0  0  0  0  0  0  0  0  0
  -19.1540  -23.1144   24.0051 C   0  0  0  0  0  0  0  0  0  0  0  0
  -30.6356  -14.9094   20.6949 C   0  0  0  0  0  0  0  0  0  0  0  0
  -24.9785  -31.6928   19.8337 C   0  0  0  0  0  0  0  0  0  0  0  0
  -23.5689  -25.3939   20.7043 C   0  0  0  0  0  0  0  0  0  0  0  0
  -22.8804  -24.6717   23.4880 C   0  0  0  0  0  0  0  0  0  0  0  0
  -23.7500  -31.2378   20.6173 C   0  0  0  0  0  0  0  0  0  0  0  0
  -29.5373  -12.5861   18.2304 C   0  0  0  0  0  0  0  0  0  0  0  0
  -24.1663  -30.5924   21.9352 C   0  0  0  0  0  0  0  0  0  0  0  0
  -28.1156  -12.2329   18.6732 C   0  0  0  0  0  0  0  0  0  0  0  0
  -29.1410  -22.3594   23.4653 C   0  0  0  0  0  0  0  0  0  0  0  0
  -30.4712  -12.7805   19.4237 C   0  0  0  0  0  0  0  0  0  0  0  0
  -29.6133  -20.9096   23.4089 C   0  0  0  0  0  0  0  0  0  0  0  0
  -28.5750  -13.3810   20.8773 C   0  0  0  0  0  0  0  0  0  0  0  0
  -25.0234  -29.3444   21.6917 C   0  0  1  0  0  0  0  0  0  0  0  0
  -22.7342  -26.3141   21.5897 C   0  0  1  0  0  0  0  0  0  0  0  0
  -27.5824  -13.2393   19.7118 C   0  0  2  0  0  0  0  0  0  0  0  0
  -28.2639  -21.2769   25.4459 C   0  0  2  0  0  0  0  0  0  0  0  0
  -27.8933  -22.3058   24.3558 C   0  0  1  0  0  0  0  0  0  1  0  0
  -29.0264  -21.8325   26.6425 C   0  0  0  0  0  0  0  0  0  0  0  0
  -27.4690  -23.6778   24.8613 C   0  0  0  0  0  0  0  0  0  0  0  0
  -16.8824  -22.2501   24.6299 C   0  0  0  0  0  0  0  0  0  0  0  0
  -20.9984  -27.3161   25.7542 C   0  0  0  0  0  0  0  0  0  0  0  0
  -19.2844  -25.7113   26.6229 C   0  0  0  0  0  0  0  0  0  0  0  0
  -18.6891  -27.3003   24.7945 C   0  0  0  0  0  0  0  0  0  0  0  0
  -19.1486  -21.1763   21.7685 C   0  0  0  0  0  0  0  0  0  0  0  0
  -20.2071  -25.3425   24.2898 C   0  0  1  0  0  0  0  0  0  0  0  0
  -17.8833  -22.4527   23.5030 C   0  0  2  0  0  0  0  0  0  0  0  0
  -19.8188  -26.4080   25.3534 C   0  0  0  0  0  0  0  0  0  0  0  0
  -25.8523  -11.5703   20.2619 N   0  0  0  0  0  0  0  0  0  0  0  0
  -26.1913  -12.8688   20.1910 N   0  0  0  0  0  0  0  0  0  0  0  0
  -29.1642  -20.3613   24.7000 N   0  0  0  0  0  0  0  0  0  0  0  0
  -22.0698  -25.5985   22.6809 N   0  0  0  0  0  0  0  0  0  0  0  0
  -29.9031  -13.7501   20.3629 N   0  0  0  0  0  0  0  0  0  0  0  0
  -25.3699  -15.0586   20.5662 N   0  0  0  0  0  0  0  0  0  0  0  0
  -21.8798  -12.4276   21.7033 N   0  0  0  0  0  0  0  0  0  0  0  0
  -29.9808  -15.7738   21.5716 N   0  0  0  0  0  0  0  0  0  0  0  0
  -24.1900  -28.2265   21.3042 N   0  0  0  0  0  0  0  0  0  0  0  0
  -19.1028  -24.4858   23.8713 N   0  0  0  0  0  0  0  0  0  0  0  0
  -29.0704  -18.6854   26.2867 N   0  3  0  0  0  0  0  0  0  0  0  0
  -18.1931  -21.1234   22.9049 N   0  3  0  0  0  0  0  0  0  0  0  0
  -22.5908  -14.5997   21.5163 O   0  0  0  0  0  0  0  0  0  0  0  0
  -23.5881  -27.5113   23.4370 O   0  0  0  0  0  0  0  0  0  0  0  0
  -20.0572  -26.7355   22.3758 O   0  0  0  0  0  0  0  0  0  0  0  0
  -20.0960  -22.4786   24.4729 O   0  0  0  0  0  0  0  0  0  0  0  0
  -31.7495  -15.1330   20.2140 O   0  0  0  0  0  0  0  0  0  0  0  0
  -21.7605   -6.8605   21.5360 O   0  0  0  0  0  0  0  0  0  0  0  0
  -26.8091  -21.7577   23.5975 O   0  0  0  0  0  0  0  0  0  1  0  0
  -18.8739   -6.3868   26.2101 F   0  0  0  0  0  0  0  0  0  0  0  0
  -22.3042   -4.8373   23.3399 F   0  0  0  0  0  0  0  0  0  0  0  0
  -34.2536  -17.6066   23.7546 Cl  0  0  0  0  0  0  0  0  0  0  0  0
  1  2  1  0  0  0  0
  1  5  2  0  0  0  0
  2  6  2  0  0  0  0
  3  8  2  0  0  0  0
  3 18  1  0  0  0  0
  4  9  1  0  0  0  0
  4 18  2  0  0  0  0
  5 21  1  0  0  0  0
  6 23  1  0  0  0  0
  7 10  2  0  0  0  0
  7 22  1  0  0  0  0
  8 26  1  0  0  0  0
  9 26  2  0  0  0  0
 10 27  1  0  0  0  0
 11 12  2  0  0  0  0
 11 28  1  0  0  0  0
 12 29  1  0  0  0  0
 13 19  2  0  0  0  0
 13 25  1  0  0  0  0
 14 19  1  0  0  0  0
 14 31  2  0  0  0  0
 15 24  1  0  0  0  0
 15 27  2  0  0  0  0
 16 25  2  0  0  0  0
 16 31  1  0  0  0  0
 17 29  2  0  0  0  0
 17 30  1  0  0  0  0
 18 32  1  0  0  0  0
 19 34  1  0  0  0  0
 20 32  1  0  0  0  0
 20 33  2  0  0  0  0
 20 35  1  0  0  0  0
 21 23  2  0  0  0  0
 21 40  1  0  0  0  0
 22 24  2  0  0  0  0
 22 41  1  0  0  0  0
 23 51  1  0  0  0  0
 24 42  1  0  0  0  0
 25 73  1  0  0  0  0
 26 83  1  0  0  0  0
 27 84  1  0  0  0  0
 28 30  2  0  0  0  0
 28 83  1  0  0  0  0
 29 85  1  0  0  0  0
 30 86  1  0  0  0  0
 31 87  1  0  0  0  0
 32 66  2  0  0  0  0
 33 67  1  0  0  0  0
 33 71  1  0  0  0  0
 34 68  1  0  0  0  0
 34 76  2  0  0  0  0
 35 72  1  0  0  0  0
 35 78  2  0  0  0  0
 36 52  1  0  0  0  0
 36 74  1  0  0  0  0
 36 79  2  0  0  0  0
 37 63  1  0  0  0  0
 37 69  1  0  0  0  0
 37 80  2  0  0  0  0
 38 64  1  0  0  0  0
 38 75  1  0  0  0  0
 38 81  2  0  0  0  0
 39 70  1  0  0  0  0
 39 73  1  0  0  0  0
 39 82  2  0  0  0  0
 40 43  1  0  0  0  0
 41 52  1  0  0  0  0
 42 69  1  0  0  0  0
 43 45  1  0  0  0  0
 44 46  1  0  0  0  0
 44 48  1  0  0  0  0
 45 51  1  0  0  0  0
 46 53  1  0  0  0  0
 47 49  1  0  0  0  0
 47 55  1  0  0  0  0
 48 70  1  0  0  0  0
 49 68  1  0  0  0  0
 50 53  1  0  0  0  0
 50 70  1  0  0  0  0
 51 74  1  0  0  0  0
 52 69  1  0  0  0  0
 53 67  1  0  0  0  0
 54 55  1  0  0  0  0
 54 56  1  0  0  0  0
 54 68  1  0  0  0  0
 55 57  1  0  0  0  0
 55 84  1  0  0  0  0
 58 64  1  0  0  0  0
 59 65  1  0  0  0  0
 60 65  1  0  0  0  0
 61 65  1  0  0  0  0
 62 77  1  0  0  0  0
 63 65  1  0  0  0  0
 63 75  1  0  0  0  0
 64 77  1  0  0  0  0
 66 67  1  0  0  0  0
M  CHG  2  76   1  77   1
M  ISO  4  39 100  55 101  73 100  84 101
M  END
> <Batch ID>
0154

> <Smiles>
CNC(C)C(=O)NC(C(=O)N1Cc2cc([101O:1][101C:1]3(C)CCN(C(=N)c4cc(Cl)cc([100NH:0][100C:0](=O)N5CCCC(n6nc(-c7ccc(Oc8ccc(F)cc8F)cc7)c(C(N)=O)c6N)C5)c4)C3C)ccc2CC1C(=O)NC1CCCc2ccccc21)C(C)(C)C

> <Shape>
0.243

> <Color>
0.204

> <Negative vol penalty>
0.000

$$$$

  -OEChem-04052303333D

 87 96  0     1  0  0  0  0  0999 V2000
  -30.0655  -29.4892   26.4031 C   0  0  0  0  0  0  0  0  0  0  0  0
  -29.4508  -28.6913   25.4434 C   0  0  0  0  0  0  0  0  0  0  0  0
  -24.4475   -8.5045   21.3618 C   0  0  0  0  0  0  0  0  0  0  0  0
  -24.2534  -10.2675   23.0023 C   0  0  0  0  0  0  0  0  0  0  0  0
  -29.3197  -30.4392   27.0997 C   0  0  0  0  0  0  0  0  0  0  0  0
  -28.0897  -28.8422   25.1806 C   0  0  0  0  0  0  0  0  0  0  0  0
  -27.0616  -28.8859   20.2222 C   0  0  0  0  0  0  0  0  0  0  0  0
  -23.9576   -7.5863   22.2905 C   0  0  0  0  0  0  0  0  0  0  0  0
  -23.7633   -9.3493   23.9311 C   0  0  0  0  0  0  0  0  0  0  0  0
  -27.0449  -27.6567   19.5645 C   0  0  0  0  0  0  0  0  0  0  0  0
  -20.9550   -6.6884   23.5599 C   0  0  0  0  0  0  0  0  0  0  0  0
  -19.9813   -5.7874   23.1290 C   0  0  0  0  0  0  0  0  0  0  0  0
  -24.6359  -27.6304   19.6875 C   0  0  0  0  0  0  0  0  0  0  0  0
  -29.2559  -19.9715   19.1162 C   0  0  0  0  0  0  0  0  0  0  0  0
  -21.4408   -3.9442   23.6852 C   0  0  0  0  0  0  0  0  0  0  0  0
  -24.5955   -9.8451   21.7178 C   0  0  0  0  0  0  0  0  0  0  0  0
  -24.3545  -11.5615   19.8460 C   0  0  0  0  0  0  0  0  0  0  0  0
  -27.9509  -30.6085   26.8385 C   0  0  0  0  0  0  0  0  0  0  0  0
  -25.8641  -29.4925   20.6278 C   0  0  0  0  0  0  0  0  0  0  0  0
  -27.3247  -29.7945   25.8754 C   0  0  0  0  0  0  0  0  0  0  0  0
  -24.6399  -28.8686   20.3479 C   0  0  0  0  0  0  0  0  0  0  0  0
  -29.7408  -18.6325   19.1619 C   0  0  0  0  0  0  0  0  0  0  0  0
  -23.6154   -8.0087   23.5751 C   0  0  0  0  0  0  0  0  0  0  0  0
  -25.8321  -27.0274   19.2997 C   0  0  0  0  0  0  0  0  0  0  0  0
  -22.1717   -6.2173   24.0534 C   0  0  0  0  0  0  0  0  0  0  0  0
  -20.2242   -4.4153   23.1916 C   0  0  0  0  0  0  0  0  0  0  0  0
  -22.4145   -4.8452   24.1160 C   0  0  0  0  0  0  0  0  0  0  0  0
  -25.1021  -10.7939   20.7591 C   0  0  0  0  0  0  0  0  0  0  0  0
  -25.2939  -12.2981   19.1667 C   0  0  0  0  0  0  0  0  0  0  0  0
  -27.9012  -20.0232   18.8719 C   0  0  0  0  0  0  0  0  0  0  0  0
  -28.7380  -17.7117   18.9510 C   0  0  0  0  0  0  0  0  0  0  0  0
  -22.9376  -11.6047   19.6311 C   0  0  0  0  0  0  0  0  0  0  0  0
  -24.6131  -30.3381   23.4249 C   0  0  0  0  0  0  0  0  0  0  0  0
  -26.5293  -23.5131   18.7281 C   0  0  0  0  0  0  0  0  0  0  0  0
  -22.3081  -31.6489   21.5565 C   0  0  0  0  0  0  0  0  0  0  0  0
  -20.6719  -31.6725   18.5617 C   0  0  0  0  0  0  0  0  0  0  0  0
  -29.8721  -15.4662   19.0849 C   0  0  0  0  0  0  0  0  0  0  0  0
  -27.1761  -31.6159   27.6505 C   0  0  0  0  0  0  0  0  0  0  0  0
  -25.8977  -30.8313   21.3124 C   0  0  0  0  0  0  0  0  0  0  0  0
  -23.3254  -29.4877   20.7444 C   0  0  0  0  0  0  0  0  0  0  0  0
  -25.8195  -31.9707   27.0472 C   0  0  0  0  0  0  0  0  0  0  0  0
  -33.3459  -19.0235   20.4508 C   0  0  0  0  0  0  0  0  0  0  0  0
  -30.3423  -11.9369   19.0958 C   0  0  0  0  0  0  0  0  0  0  0  0
  -34.0532  -18.7848   19.1196 C   0  0  0  0  0  0  0  0  0  0  0  0
  -25.0769  -30.7074   26.6234 C   0  0  0  0  0  0  0  0  0  0  0  0
  -31.8677  -19.3544   20.2480 C   0  0  0  0  0  0  0  0  0  0  0  0
  -28.9594  -11.3880   19.4544 C   0  0  0  0  0  0  0  0  0  0  0  0
  -30.6502  -13.2320   19.8452 C   0  0  0  0  0  0  0  0  0  0  0  0
  -28.2489  -13.7330   20.0733 C   0  0  0  0  0  0  0  0  0  0  0  0
  -33.3456  -17.7246   18.2916 C   0  0  0  0  0  0  0  0  0  0  0  0
  -25.8557  -29.9454   25.5445 C   0  0  1  0  0  0  0  0  0  0  0  0
  -31.1606  -18.2833   19.4086 C   0  0  2  0  0  0  0  0  0  0  0  0
  -24.6456  -31.1121   22.1375 C   0  0  1  0  0  0  0  0  0  0  0  0
  -27.8673  -12.4638   19.2943 C   0  0  2  0  0  0  0  0  0  0  0  0
  -18.8087  -32.8314   17.3440 C   0  0  0  0  0  0  0  0  0  0  0  0
  -20.2660  -30.0738   23.1871 C   0  0  0  0  0  0  0  0  0  0  0  0
  -18.5917  -30.5041   21.3761 C   0  0  0  0  0  0  0  0  0  0  0  0
  -19.5803  -32.4154   22.6381 C   0  0  0  0  0  0  0  0  0  0  0  0
  -22.5027  -32.6490   16.4513 C   0  0  0  0  0  0  0  0  0  0  0  0
  -27.6451  -22.5050   18.9032 C   0  0  0  0  0  0  0  0  0  0  0  0
  -26.9358  -24.9685   18.8539 C   0  0  0  0  0  0  0  0  0  1  0  0
  -21.0058  -31.1639   20.9667 C   0  0  1  0  0  0  0  0  0  0  0  0
  -20.3032  -32.8082   17.6242 C   0  0  2  0  0  0  0  0  0  0  0  0
  -19.8857  -31.0264   22.0361 C   0  0  0  0  0  0  0  0  0  0  0  0
  -26.4153  -11.0217   20.6704 N   0  0  0  0  0  0  0  0  0  0  0  0
  -26.5001  -11.9407   19.6935 N   0  0  0  0  0  0  0  0  0  0  0  0
  -23.4110  -30.7945   21.4170 N   0  0  0  0  0  0  0  0  0  0  0  0
  -29.5746  -14.2054   19.6440 N   0  0  0  0  0  0  0  0  0  0  0  0
  -25.1975  -13.2102   18.1762 N   0  0  0  0  0  0  0  0  0  0  0  0
  -22.1174  -10.7829   20.4161 N   0  0  0  0  0  0  0  0  0  0  0  0
  -28.7647  -16.2955   18.9108 N   0  0  0  0  0  0  0  0  0  0  0  0
  -27.1250  -21.1685   18.7669 N   0  0  0  0  0  0  0  0  0  0  0  0
  -25.6896  -30.5830   24.2559 N   0  0  0  0  0  0  0  0  0  0  0  0
  -20.6839  -32.0809   19.8786 N   0  0  0  0  0  0  0  0  0  0  0  0
  -31.9141  -18.1140   18.1130 N   0  3  0  0  0  0  0  0  0  0  0  0
  -21.0224  -32.6632   16.3270 N   0  3  0  0  0  0  0  0  0  0  0  0
  -22.4157  -12.3380   18.7573 O   0  0  0  0  0  0  0  0  0  0  0  0
  -23.6797  -29.5762   23.6484 O   0  0  0  0  0  0  0  0  0  0  0  0
  -25.3659  -23.1847   18.4991 O   0  0  0  0  0  0  0  0  0  0  0  0
  -22.3471  -32.7486   22.1140 O   0  0  0  0  0  0  0  0  0  0  0  0
  -20.9204  -30.5359   18.1656 O   0  0  0  0  0  0  0  0  0  0  0  0
  -31.0205  -15.7763   18.7576 O   0  0  0  0  0  0  0  0  0  0  0  0
  -23.1370   -7.1131   24.4815 O   0  0  0  0  0  0  0  0  0  0  0  0
  -25.8130  -25.8272   18.6585 O   0  0  0  0  0  0  0  0  0  1  0  0
  -19.2884   -3.5501   22.7792 F   0  0  0  0  0  0  0  0  0  0  0  0
  -23.5810   -4.3866   24.5902 F   0  0  0  0  0  0  0  0  0  0  0  0
  -27.2195  -18.4619   18.6990 S   0  0  0  0  0  0  0  0  0  0  0  0
  1  2  1  0  0  0  0
  1  5  2  0  0  0  0
  2  6  2  0  0  0  0
  3  8  2  0  0  0  0
  3 16  1  0  0  0  0
  4  9  1  0  0  0  0
  4 16  2  0  0  0  0
  5 18  1  0  0  0  0
  6 20  1  0  0  0  0
  7 10  2  0  0  0  0
  7 19  1  0  0  0  0
  8 23  1  0  0  0  0
  9 23  2  0  0  0  0
 10 24  1  0  0  0  0
 11 12  2  0  0  0  0
 11 25  1  0  0  0  0
 12 26  1  0  0  0  0
 13 21  1  0  0  0  0
 13 24  2  0  0  0  0
 14 22  1  0  0  0  0
 14 30  2  0  0  0  0
 15 26  2  0  0  0  0
 15 27  1  0  0  0  0
 16 28  1  0  0  0  0
 17 28  1  0  0  0  0
 17 29  2  0  0  0  0
 17 32  1  0  0  0  0
 18 20  2  0  0  0  0
 18 38  1  0  0  0  0
 19 21  2  0  0  0  0
 19 39  1  0  0  0  0
 20 51  1  0  0  0  0
 21 40  1  0  0  0  0
 22 31  2  0  0  0  0
 22 52  1  0  0  0  0
 23 83  1  0  0  0  0
 24 84  1  0  0  0  0
 25 27  2  0  0  0  0
 25 83  1  0  0  0  0
 26 85  1  0  0  0  0
 27 86  1  0  0  0  0
 28 65  2  0  0  0  0
 29 66  1  0  0  0  0
 29 69  1  0  0  0  0
 30 72  1  0  0  0  0
 30 87  1  0  0  0  0
 31 71  1  0  0  0  0
 31 87  1  0  0  0  0
 32 70  1  0  0  0  0
 32 77  2  0  0  0  0
 33 53  1  0  0  0  0
 33 73  1  0  0  0  0
 33 78  2  0  0  0  0
 34 60  1  0  0  0  0
 34 61  1  0  0  0  0
 34 79  2  0  0  0  0
 35 62  1  0  0  0  0
 35 67  1  0  0  0  0
 35 80  2  0  0  0  0
 36 63  1  0  0  0  0
 36 74  1  0  0  0  0
 36 81  2  0  0  0  0
 37 68  1  0  0  0  0
 37 71  1  0  0  0  0
 37 82  2  0  0  0  0
 38 41  1  0  0  0  0
 39 53  1  0  0  0  0
 40 67  1  0  0  0  0
 41 45  1  0  0  0  0
 42 44  1  0  0  0  0
 42 46  1  0  0  0  0
 43 47  1  0  0  0  0
 43 48  1  0  0  0  0
 44 50  1  0  0  0  0
 45 51  1  0  0  0  0
 46 52  1  0  0  0  0
 47 54  1  0  0  0  0
 48 68  1  0  0  0  0
 49 54  1  0  0  0  0
 49 68  1  0  0  0  0
 50 75  1  0  0  0  0
 51 73  1  0  0  0  0
 52 75  1  0  0  0  0
 53 67  1  0  0  0  0
 54 66  1  0  0  0  0
 55 63  1  0  0  0  0
 56 64  1  0  0  0  0
 57 64  1  0  0  0  0
 58 64  1  0  0  0  0
 59 76  1  0  0  0  0
 60 72  1  0  0  0  0
 61 84  1  0  0  0  0
 62 64  1  0  0  0  0
 62 74  1  0  0  0  0
 63 76  1  0  0  0  0
 65 66  1  0  0  0  0
M  CHG  2  75   1  76   1
M  ISO  4  37 100  61 101  71 100  84 101
M  END
> <Batch ID>
0154

> <Smiles>
CNC(C)C(=O)NC(C(=O)N1Cc2cc([101O:1][101CH2:1]C(=O)CNc3cc(C4CCCCN4)c([100NH:0][100C:0](=O)N4CCCC(n5nc(-c6ccc(Oc7ccc(F)cc7F)cc6)c(C(N)=O)c5N)C4)s3)ccc2CC1C(=O)NC1CCCc2ccccc21)C(C)(C)C

> <Shape>
0.278

> <Color>
0.091

> <Negative vol penalty>
0.000

$$$$

  -OEChem-04052303333D

 85 94  0     1  0  0  0  0  0999 V2000
  -30.4400  -30.8774   11.4247 C   0  0  0  0  0  0  0  0  0  0  0  0
  -30.7378  -29.8813   12.3492 C   0  0  0  0  0  0  0  0  0  0  0  0
  -23.0948   -9.8787   19.9712 C   0  0  0  0  0  0  0  0  0  0  0  0
  -23.8361   -9.9444   22.2697 C   0  0  0  0  0  0  0  0  0  0  0  0
  -29.1937  -31.5018   11.4517 C   0  0  0  0  0  0  0  0  0  0  0  0
  -29.7898  -29.5098   13.3019 C   0  0  0  0  0  0  0  0  0  0  0  0
  -28.8644  -23.9020   15.5827 C   0  0  0  0  0  0  0  0  0  0  0  0
  -22.3494   -8.7318   20.2444 C   0  0  0  0  0  0  0  0  0  0  0  0
  -23.0907   -8.7975   22.5429 C   0  0  0  0  0  0  0  0  0  0  0  0
  -29.2808  -23.2893   16.7637 C   0  0  0  0  0  0  0  0  0  0  0  0
  -19.8581   -8.0132   23.1394 C   0  0  0  0  0  0  0  0  0  0  0  0
  -19.0917   -8.0025   24.3048 C   0  0  0  0  0  0  0  0  0  0  0  0
  -31.8808  -18.8867   22.2415 C   0  0  0  0  0  0  0  0  0  0  0  0
  -31.7980  -17.6110   21.6123 C   0  0  0  0  0  0  0  0  0  0  0  0
  -27.1752  -23.8581   17.7942 C   0  0  0  0  0  0  0  0  0  0  0  0
  -20.3279   -6.0852   25.1002 C   0  0  0  0  0  0  0  0  0  0  0  0
  -23.8382  -10.4850   20.9839 C   0  0  0  0  0  0  0  0  0  0  0  0
  -24.1799  -13.0065   20.8025 C   0  0  0  0  0  0  0  0  0  0  0  0
  -28.2264  -31.1310   12.3990 C   0  0  0  0  0  0  0  0  0  0  0  0
  -27.6023  -24.5080   15.5018 C   0  0  0  0  0  0  0  0  0  0  0  0
  -28.5298  -30.1308   13.3424 C   0  0  0  0  0  0  0  0  0  0  0  0
  -26.7441  -24.4756   16.6102 C   0  0  0  0  0  0  0  0  0  0  0  0
  -22.3473   -8.1912   21.5302 C   0  0  0  0  0  0  0  0  0  0  0  0
  -28.4374  -23.2698   17.8706 C   0  0  0  0  0  0  0  0  0  0  0  0
  -20.8594   -7.0598   22.9544 C   0  0  0  0  0  0  0  0  0  0  0  0
  -19.3266   -7.0386   25.2852 C   0  0  0  0  0  0  0  0  0  0  0  0
  -21.0943   -6.0958   23.9348 C   0  0  0  0  0  0  0  0  0  0  0  0
  -24.6088  -11.6694   20.7022 C   0  0  0  0  0  0  0  0  0  0  0  0
  -30.7279  -19.2017   22.9264 C   0  0  0  0  0  0  0  0  0  0  0  0
  -25.2746  -13.7472   20.4292 C   0  0  0  0  0  0  0  0  0  0  0  0
  -30.5848  -16.9994   21.8405 C   0  0  0  0  0  0  0  0  0  0  0  0
  -22.9058  -13.5319   21.1979 C   0  0  0  0  0  0  0  0  0  0  0  0
  -30.5229  -20.4553   23.6738 C   0  0  0  0  0  0  0  0  0  0  0  0
  -26.5639  -27.4671   14.9833 C   0  0  0  0  0  0  0  0  0  0  0  0
  -23.6570  -26.0276   14.9703 C   0  0  0  0  0  0  0  0  0  0  0  0
  -21.7262  -23.3890   15.9484 C   0  0  0  0  0  0  0  0  0  0  0  0
  -30.7388  -14.8002   20.6214 C   0  0  0  0  0  0  0  0  0  0  0  0
  -26.9103  -31.8674   12.4192 C   0  0  0  0  0  0  0  0  0  0  0  0
  -27.1574  -25.1414   14.2122 C   0  0  0  0  0  0  0  0  0  0  0  0
  -25.3714  -25.0940   16.5686 C   0  0  0  0  0  0  0  0  0  0  0  0
  -25.8257  -31.1544   13.2226 C   0  0  0  0  0  0  0  0  0  0  0  0
  -29.6445  -12.3265   18.3062 C   0  0  0  0  0  0  0  0  0  0  0  0
  -26.3764  -30.6878   14.5664 C   0  0  0  0  0  0  0  0  0  0  0  0
  -28.2016  -12.0450   18.7314 C   0  0  0  0  0  0  0  0  0  0  0  0
  -28.8744  -23.5193   22.7081 C   0  0  0  0  0  0  0  0  0  0  0  0
  -30.5498  -12.5862   19.5090 C   0  0  0  0  0  0  0  0  0  0  0  0
  -29.7629  -22.7938   23.7150 C   0  0  0  0  0  0  0  0  0  0  0  0
  -28.6315  -13.3443   20.8560 C   0  0  0  0  0  0  0  0  0  0  0  0
  -29.6110  -21.4929   21.6335 C   0  0  0  0  0  0  0  0  0  0  0  0
  -27.5188  -29.6828   14.3754 C   0  0  1  0  0  0  0  0  0  0  0  0
  -26.0543  -26.1774   14.4047 C   0  0  1  0  0  0  0  0  0  0  0  0
  -27.6683  -13.1406   19.6752 C   0  0  2  0  0  0  0  0  0  0  0  0
  -29.3385  -22.9749   21.3540 C   0  0  1  0  0  0  0  0  0  0  0  0
  -19.3791  -22.5105   15.8184 C   0  0  0  0  0  0  0  0  0  0  0  0
  -22.7864  -28.0473   17.0852 C   0  0  0  0  0  0  0  0  0  0  0  0
  -20.8307  -26.5687   17.5921 C   0  0  0  0  0  0  0  0  0  0  0  0
  -21.0743  -27.5778   15.3238 C   0  0  0  0  0  0  0  0  0  0  0  0
  -22.5944  -20.9521   14.5109 C   0  0  0  0  0  0  0  0  0  0  0  0
  -28.3224  -23.2001   20.2451 C   0  0  0  0  0  0  0  0  0  1  0  0
  -22.6205  -25.7020   16.0184 C   0  0  1  0  0  0  0  0  0  0  0  0
  -20.7585  -22.5088   15.1782 C   0  0  2  0  0  0  0  0  0  0  0  0
  -21.8545  -26.9639   16.5066 C   0  0  0  0  0  0  0  0  0  0  0  0
  -25.8770  -11.5638   20.2967 N   0  0  0  0  0  0  0  0  0  0  0  0
  -26.2544  -12.8439   20.1389 N   0  0  0  0  0  0  0  0  0  0  0  0
  -30.0054  -21.5016   23.0561 N   0  0  0  0  0  0  0  0  0  0  0  0
  -24.9846  -25.7068   15.2870 N   0  0  0  0  0  0  0  0  0  0  0  0
  -29.9834  -13.6386   20.3554 N   0  0  0  0  0  0  0  0  0  0  0  0
  -25.4850  -15.0765   20.3240 N   0  0  0  0  0  0  0  0  0  0  0  0
  -21.8916  -12.6310   21.5500 N   0  0  0  0  0  0  0  0  0  0  0  0
  -30.0845  -15.7453   21.4109 N   0  0  0  0  0  0  0  0  0  0  0  0
  -26.9926  -28.3779   14.0367 N   0  0  0  0  0  0  0  0  0  0  0  0
  -21.7658  -24.6704   15.4407 N   0  0  0  0  0  0  0  0  0  0  0  0
  -30.8604  -20.5126   24.9587 N   0  3  0  0  0  0  0  0  0  0  0  0
  -21.2560  -21.1045   15.1373 N   0  3  0  0  0  0  0  0  0  0  0  0
  -22.6686  -14.7635   21.2221 O   0  0  0  0  0  0  0  0  0  0  0  0
  -26.5664  -27.6248   16.1986 O   0  0  0  0  0  0  0  0  0  0  0  0
  -23.3008  -26.5410   13.9067 O   0  0  0  0  0  0  0  0  0  0  0  0
  -22.3786  -22.9818   16.9070 O   0  0  0  0  0  0  0  0  0  0  0  0
  -31.8716  -14.9577   20.1588 O   0  0  0  0  0  0  0  0  0  0  0  0
  -30.5605  -23.6215   20.9987 O   0  0  0  0  0  0  0  0  0  0  0  0
  -21.6199   -7.0722   21.7972 O   0  0  0  0  0  0  0  0  0  0  0  0
  -28.8417  -22.6729   19.0248 O   0  0  0  0  0  0  0  0  0  1  0  0
  -18.5916   -7.0294   26.4050 F   0  0  0  0  0  0  0  0  0  0  0  0
  -22.0556   -5.1781   23.7632 F   0  0  0  0  0  0  0  0  0  0  0  0
  -29.5522  -17.9622   22.8094 S   0  0  0  0  0  0  0  0  0  0  0  0
  1  2  1  0  0  0  0
  1  5  2  0  0  0  0
  2  6  2  0  0  0  0
  3  8  2  0  0  0  0
  3 17  1  0  0  0  0
  4  9  1  0  0  0  0
  4 17  2  0  0  0  0
  5 19  1  0  0  0  0
  6 21  1  0  0  0  0
  7 10  2  0  0  0  0
  7 20  1  0  0  0  0
  8 23  1  0  0  0  0
  9 23  2  0  0  0  0
 10 24  1  0  0  0  0
 11 12  2  0  0  0  0
 11 25  1  0  0  0  0
 12 26  1  0  0  0  0
 13 14  1  0  0  0  0
 13 29  2  0  0  0  0
 14 31  2  0  0  0  0
 15 22  1  0  0  0  0
 15 24  2  0  0  0  0
 16 26  2  0  0  0  0
 16 27  1  0  0  0  0
 17 28  1  0  0  0  0
 18 28  1  0  0  0  0
 18 30  2  0  0  0  0
 18 32  1  0  0  0  0
 19 21  2  0  0  0  0
 19 38  1  0  0  0  0
 20 22  2  0  0  0  0
 20 39  1  0  0  0  0
 21 50  1  0  0  0  0
 22 40  1  0  0  0  0
 23 81  1  0  0  0  0
 24 82  1  0  0  0  0
 25 27  2  0  0  0  0
 25 81  1  0  0  0  0
 26 83  1  0  0  0  0
 27 84  1  0  0  0  0
 28 63  2  0  0  0  0
 29 33  1  0  0  0  0
 29 85  1  0  0  0  0
 30 64  1  0  0  0  0
 30 68  1  0  0  0  0
 31 70  1  0  0  0  0
 31 85  1  0  0  0  0
 32 69  1  0  0  0  0
 32 75  2  0  0  0  0
 33 65  1  0  0  0  0
 33 73  2  0  0  0  0
 34 51  1  0  0  0  0
 34 71  1  0  0  0  0
 34 76  2  0  0  0  0
 35 60  1  0  0  0  0
 35 66  1  0  0  0  0
 35 77  2  0  0  0  0
 36 61  1  0  0  0  0
 36 72  1  0  0  0  0
 36 78  2  0  0  0  0
 37 67  1  0  0  0  0
 37 70  1  0  0  0  0
 37 79  2  0  0  0  0
 38 41  1  0  0  0  0
 39 51  1  0  0  0  0
 40 66  1  0  0  0  0
 41 43  1  0  0  0  0
 42 44  1  0  0  0  0
 42 46  1  0  0  0  0
 43 50  1  0  0  0  0
 44 52  1  0  0  0  0
 45 47  1  0  0  0  0
 45 53  1  0  0  0  0
 46 67  1  0  0  0  0
 47 65  1  0  0  0  0
 48 52  1  0  0  0  0
 48 67  1  0  0  0  0
 49 53  1  0  0  0  0
 49 65  1  0  0  0  0
 50 71  1  0  0  0  0
 51 66  1  0  0  0  0
 52 64  1  0  0  0  0
 53 59  1  0  0  0  0
 53 80  1  0  0  0  0
 54 61  1  0  0  0  0
 55 62  1  0  0  0  0
 56 62  1  0  0  0  0
 57 62  1  0  0  0  0
 58 74  1  0  0  0  0
 59 82  1  0  0  0  0
 60 62  1  0  0  0  0
 60 72  1  0  0  0  0
 61 74  1  0  0  0  0
 63 64  1  0  0  0  0
M  CHG  2  73   1  74   1
M  ISO  4  37 100  59 101  70 100  82 101
M  END
> <Batch ID>
0154

> <Smiles>
CNC(C)C(=O)NC(C(=O)N1Cc2cc([101O:1][101CH2:1]C3(O)CCN(C(=N)c4ccc([100NH:0][100C:0](=O)N5CCCC(n6nc(-c7ccc(Oc8ccc(F)cc8F)cc7)c(C(N)=O)c6N)C5)s4)C3)ccc2CC1C(=O)NC1CCCc2ccccc21)C(C)(C)C

> <Shape>
0.202

> <Color>
0.200

> <Negative vol penalty>
0.000

$$$$

  -OEChem-04052303333D

 85 94  0     1  0  0  0  0  0999 V2000
  -18.8541  -21.7000   22.9917 C   0  0  0  0  0  0  0  0  0  0  0  0
  -20.1100  -21.9124   22.4322 C   0  0  0  0  0  0  0  0  0  0  0  0
  -26.5357  -12.5742   21.6371 C   0  0  0  0  0  0  0  0  0  0  0  0
  -26.0926  -13.6171   19.5033 C   0  0  0  0  0  0  0  0  0  0  0  0
  -18.0113  -22.7823   23.2413 C   0  0  0  0  0  0  0  0  0  0  0  0
  -20.5234  -23.2072   22.1209 C   0  0  0  0  0  0  0  0  0  0  0  0
  -26.2138  -25.4420   22.4828 C   0  0  0  0  0  0  0  0  0  0  0  0
  -25.2587  -12.0130   21.6279 C   0  0  0  0  0  0  0  0  0  0  0  0
  -24.8157  -13.0559   19.4941 C   0  0  0  0  0  0  0  0  0  0  0  0
  -27.2088  -25.6339   21.5252 C   0  0  0  0  0  0  0  0  0  0  0  0
  -23.6993   -9.3940   20.1643 C   0  0  0  0  0  0  0  0  0  0  0  0
  -23.5791   -8.0506   20.5197 C   0  0  0  0  0  0  0  0  0  0  0  0
  -30.3498  -22.5152   18.9264 C   0  0  0  0  0  0  0  0  0  0  0  0
  -26.5173  -27.9315   21.2759 C   0  0  0  0  0  0  0  0  0  0  0  0
  -22.1262   -8.6647   22.3498 C   0  0  0  0  0  0  0  0  0  0  0  0
  -26.9526  -13.3763   20.5748 C   0  0  0  0  0  0  0  0  0  0  0  0
  -30.1958  -23.2231   17.6995 C   0  0  0  0  0  0  0  0  0  0  0  0
  -29.4517  -13.3934   20.0633 C   0  0  0  0  0  0  0  0  0  0  0  0
  -18.4185  -24.0920   22.9418 C   0  0  0  0  0  0  0  0  0  0  0  0
  -25.3546  -26.4922   22.8367 C   0  0  0  0  0  0  0  0  0  0  0  0
  -19.6848  -24.3079   22.3654 C   0  0  0  0  0  0  0  0  0  0  0  0
  -25.5138  -27.7510   22.2400 C   0  0  0  0  0  0  0  0  0  0  0  0
  -24.3988  -12.2538   20.5564 C   0  0  0  0  0  0  0  0  0  0  0  0
  -27.3588  -26.8780   20.9195 C   0  0  0  0  0  0  0  0  0  0  0  0
  -23.0330  -10.3729   20.9017 C   0  0  0  0  0  0  0  0  0  0  0  0
  -22.7925   -7.6859   21.6124 C   0  0  0  0  0  0  0  0  0  0  0  0
  -22.2465  -10.0082   21.9943 C   0  0  0  0  0  0  0  0  0  0  0  0
  -28.2713  -13.9568   20.5839 C   0  0  0  0  0  0  0  0  0  0  0  0
  -30.4218  -14.3314   20.3194 C   0  0  0  0  0  0  0  0  0  0  0  0
  -29.8563  -21.2314   18.8486 C   0  0  0  0  0  0  0  0  0  0  0  0
  -29.5906  -22.4532   16.7305 C   0  0  0  0  0  0  0  0  0  0  0  0
  -30.6387  -24.6158   17.5087 C   0  0  0  0  0  0  0  0  0  0  0  0
  -29.6533  -12.1349   19.4068 C   0  0  0  0  0  0  0  0  0  0  0  0
  -22.2187  -26.9809   22.6608 C   0  0  0  0  0  0  0  0  0  0  0  0
  -22.9402  -29.6790   24.3107 C   0  0  0  0  0  0  0  0  0  0  0  0
  -25.2713  -32.0265   25.1485 C   0  0  0  0  0  0  0  0  0  0  0  0
  -30.2650  -20.2492   21.1322 C   0  0  0  0  0  0  0  0  0  0  0  0
  -17.4541  -25.2256   23.1858 C   0  0  0  0  0  0  0  0  0  0  0  0
  -24.3035  -26.2763   23.8908 C   0  0  0  0  0  0  0  0  0  0  0  0
  -24.6303  -28.9166   22.5997 C   0  0  0  0  0  0  0  0  0  0  0  0
  -18.1156  -26.6013   23.1735 C   0  0  0  0  0  0  0  0  0  0  0  0
  -31.5356  -17.8206   23.4047 C   0  0  0  0  0  0  0  0  0  0  0  0
  -19.0485  -26.7344   21.9740 C   0  0  0  0  0  0  0  0  0  0  0  0
  -30.9551  -16.5021   22.8883 C   0  0  0  0  0  0  0  0  0  0  0  0
  -28.7881  -27.7039   17.6815 C   0  0  0  0  0  0  0  0  0  0  0  0
  -30.5481  -18.9755   23.2470 C   0  0  0  0  0  0  0  0  0  0  0  0
  -30.1500  -27.0241   17.6120 C   0  0  0  0  0  0  0  0  0  0  0  0
  -29.4259  -17.8302   21.3766 C   0  0  0  0  0  0  0  0  0  0  0  0
  -28.4247  -25.3961   18.2532 C   0  0  0  0  0  0  0  0  0  0  0  0
  -20.1789  -25.7000   22.0368 C   0  0  1  0  0  0  0  0  0  0  0  0
  -23.1530  -27.2740   23.8005 C   0  0  1  0  0  0  0  0  0  0  0  0
  -30.4084  -16.6502   21.4548 C   0  0  2  0  0  0  0  0  0  0  0  0
  -27.9801  -26.8127   18.6289 C   0  0  2  0  0  0  0  0  0  1  0  0
  -25.5549  -34.1320   26.4841 C   0  0  0  0  0  0  0  0  0  0  0  0
  -21.4612  -31.2458   22.1502 C   0  0  0  0  0  0  0  0  0  0  0  0
  -22.5692  -33.3249   22.9976 C   0  0  0  0  0  0  0  0  0  0  0  0
  -21.0380  -32.0347   24.4854 C   0  0  0  0  0  0  0  0  0  0  0  0
  -27.3311  -30.7903   26.8771 C   0  0  0  0  0  0  0  0  0  0  0  0
  -23.3188  -31.0918   23.9368 C   0  0  1  0  0  0  0  0  0  0  0  0
  -25.6708  -32.6157   26.4893 C   0  0  2  0  0  0  0  0  0  0  0  0
  -22.1124  -31.9020   23.3841 C   0  0  0  0  0  0  0  0  0  0  0  0
  -28.4711  -15.1594   21.1297 N   0  0  0  0  0  0  0  0  0  0  0  0
  -29.7883  -15.3594   20.9535 N   0  0  0  0  0  0  0  0  0  0  0  0
  -29.8028  -25.6040   17.7705 N   0  0  0  0  0  0  0  0  0  0  0  0
  -23.6133  -28.6538   23.6312 N   0  0  0  0  0  0  0  0  0  0  0  0
  -30.0762  -19.0571   21.8630 N   0  0  0  0  0  0  0  0  0  0  0  0
  -31.7465  -14.3689   20.0619 N   0  0  0  0  0  0  0  0  0  0  0  0
  -29.2988  -22.8242   15.4576 N   0  0  0  0  0  0  0  0  0  0  0  0
  -28.5486  -11.2917   19.2248 N   0  0  0  0  0  0  0  0  0  0  0  0
  -29.8049  -20.1981   19.8167 N   0  0  0  0  0  0  0  0  0  0  0  0
  -21.1915  -26.1148   22.9839 N   0  0  0  0  0  0  0  0  0  0  0  0
  -23.9381  -31.6756   25.1217 N   0  0  0  0  0  0  0  0  0  0  0  0
  -31.8736  -24.8554   17.0776 N   0  3  0  0  0  0  0  0  0  0  0  0
  -27.0790  -32.2531   26.8155 N   0  3  0  0  0  0  0  0  0  0  0  0
  -30.7827  -11.7616   19.0083 O   0  0  0  0  0  0  0  0  0  0  0  0
  -22.4143  -27.5031   21.5696 O   0  0  0  0  0  0  0  0  0  0  0  0
  -22.0841  -29.4920   25.1789 O   0  0  0  0  0  0  0  0  0  0  0  0
  -26.0619  -31.8945   24.2167 O   0  0  0  0  0  0  0  0  0  0  0  0
  -30.8202  -21.2332   21.6277 O   0  0  0  0  0  0  0  0  0  0  0  0
  -26.5928  -26.9993   18.4120 O   0  0  0  0  0  0  0  0  0  0  0  0
  -23.1527  -11.7061   20.5471 O   0  0  0  0  0  0  0  0  0  0  0  0
  -28.3288  -27.0678   19.9841 O   0  0  0  0  0  0  0  0  0  1  0  0
  -22.6759   -6.3957   21.9527 F   0  0  0  0  0  0  0  0  0  0  0  0
  -21.6030  -10.9440   22.7058 F   0  0  0  0  0  0  0  0  0  0  0  0
  -29.2107  -20.8840   17.3011 S   0  0  0  0  0  0  0  0  0  0  0  0
  1  2  1  0  0  0  0
  1  5  2  0  0  0  0
  2  6  2  0  0  0  0
  3  8  2  0  0  0  0
  3 16  1  0  0  0  0
  4  9  1  0  0  0  0
  4 16  2  0  0  0  0
  5 19  1  0  0  0  0
  6 21  1  0  0  0  0
  7 10  2  0  0  0  0
  7 20  1  0  0  0  0
  8 23  1  0  0  0  0
  9 23  2  0  0  0  0
 10 24  1  0  0  0  0
 11 12  2  0  0  0  0
 11 25  1  0  0  0  0
 12 26  1  0  0  0  0
 13 17  1  0  0  0  0
 13 30  2  0  0  0  0
 14 22  1  0  0  0  0
 14 24  2  0  0  0  0
 15 26  2  0  0  0  0
 15 27  1  0  0  0  0
 16 28  1  0  0  0  0
 17 31  2  0  0  0  0
 17 32  1  0  0  0  0
 18 28  1  0  0  0  0
 18 29  2  0  0  0  0
 18 33  1  0  0  0  0
 19 21  2  0  0  0  0
 19 38  1  0  0  0  0
 20 22  2  0  0  0  0
 20 39  1  0  0  0  0
 21 50  1  0  0  0  0
 22 40  1  0  0  0  0
 23 81  1  0  0  0  0
 24 82  1  0  0  0  0
 25 27  2  0  0  0  0
 25 81  1  0  0  0  0
 26 83  1  0  0  0  0
 27 84  1  0  0  0  0
 28 62  2  0  0  0  0
 29 63  1  0  0  0  0
 29 67  1  0  0  0  0
 30 70  1  0  0  0  0
 30 85  1  0  0  0  0
 31 68  1  0  0  0  0
 31 85  1  0  0  0  0
 32 64  1  0  0  0  0
 32 73  2  0  0  0  0
 33 69  1  0  0  0  0
 33 75  2  0  0  0  0
 34 51  1  0  0  0  0
 34 71  1  0  0  0  0
 34 76  2  0  0  0  0
 35 59  1  0  0  0  0
 35 65  1  0  0  0  0
 35 77  2  0  0  0  0
 36 60  1  0  0  0  0
 36 72  1  0  0  0  0
 36 78  2  0  0  0  0
 37 66  1  0  0  0  0
 37 70  1  0  0  0  0
 37 79  2  0  0  0  0
 38 41  1  0  0  0  0
 39 51  1  0  0  0  0
 40 65  1  0  0  0  0
 41 43  1  0  0  0  0
 42 44  1  0  0  0  0
 42 46  1  0  0  0  0
 43 50  1  0  0  0  0
 44 52  1  0  0  0  0
 45 47  1  0  0  0  0
 45 53  1  0  0  0  0
 46 66  1  0  0  0  0
 47 64  1  0  0  0  0
 48 52  1  0  0  0  0
 48 66  1  0  0  0  0
 49 53  1  0  0  0  0
 49 64  1  0  0  0  0
 50 71  1  0  0  0  0
 51 65  1  0  0  0  0
 52 63  1  0  0  0  0
 53 80  1  0  0  0  0
 53 82  1  0  0  0  0
 54 60  1  0  0  0  0
 55 61  1  0  0  0  0
 56 61  1  0  0  0  0
 57 61  1  0  0  0  0
 58 74  1  0  0  0  0
 59 61  1  0  0  0  0
 59 72  1  0  0  0  0
 60 74  1  0  0  0  0
 62 63  1  0  0  0  0
M  CHG  2  73   1  74   1
M  ISO  4  37 100  53 101  70 100  82 101
M  END
> <Batch ID>
0154

> <Smiles>
CNC(C)C(=O)NC(C(=O)N1Cc2cc([101O:1][101C:1]3(O)CCN(C(=N)c4cc([100NH:0][100C:0](=O)N5CCCC(n6nc(-c7ccc(Oc8ccc(F)cc8F)cc7)c(C(N)=O)c6N)C5)sc4N)C3)ccc2CC1C(=O)NC1CCCc2ccccc21)C(C)(C)C

> <Shape>
0.304

> <Color>
0.062

> <Negative vol penalty>
0.000

$$$$

  -OEChem-04052303333D

 86 95  0     1  0  0  0  0  0999 V2000
  -17.0298  -30.4499   22.8942 C   0  0  0  0  0  0  0  0  0  0  0  0
  -18.3082  -29.9425   22.6850 C   0  0  0  0  0  0  0  0  0  0  0  0
  -22.9999   -9.9569   20.0343 C   0  0  0  0  0  0  0  0  0  0  0  0
  -23.7414  -10.0320   22.3325 C   0  0  0  0  0  0  0  0  0  0  0  0
  -16.1756  -29.8302   23.8054 C   0  0  0  0  0  0  0  0  0  0  0  0
  -18.7334  -28.8156   23.3876 C   0  0  0  0  0  0  0  0  0  0  0  0
  -22.4476  -24.3923   21.3517 C   0  0  0  0  0  0  0  0  0  0  0  0
  -31.3971  -17.4585   20.4290 C   0  0  0  0  0  0  0  0  0  0  0  0
  -22.2054   -8.8484   20.3268 C   0  0  0  0  0  0  0  0  0  0  0  0
  -22.9468   -8.9234   22.6250 C   0  0  0  0  0  0  0  0  0  0  0  0
  -23.8124  -24.1621   21.5200 C   0  0  0  0  0  0  0  0  0  0  0  0
  -19.6829   -8.2904   23.2302 C   0  0  0  0  0  0  0  0  0  0  0  0
  -31.6252  -18.8336   20.3786 C   0  0  0  0  0  0  0  0  0  0  0  0
  -18.9157   -8.3339   24.3943 C   0  0  0  0  0  0  0  0  0  0  0  0
  -29.7627  -17.7935   22.1764 C   0  0  0  0  0  0  0  0  0  0  0  0
  -23.3282  -22.6637   23.3474 C   0  0  0  0  0  0  0  0  0  0  0  0
  -20.0673   -6.3796   25.2261 C   0  0  0  0  0  0  0  0  0  0  0  0
  -23.7679  -10.5487   21.0371 C   0  0  0  0  0  0  0  0  0  0  0  0
  -29.9908  -19.1687   22.1261 C   0  0  0  0  0  0  0  0  0  0  0  0
  -24.2185  -13.0494   20.8110 C   0  0  0  0  0  0  0  0  0  0  0  0
  -16.5872  -28.6895   24.5125 C   0  0  0  0  0  0  0  0  0  0  0  0
  -21.5119  -23.7673   22.1885 C   0  0  0  0  0  0  0  0  0  0  0  0
  -17.8844  -28.1809   24.3101 C   0  0  0  0  0  0  0  0  0  0  0  0
  -21.9521  -22.8856   23.1860 C   0  0  0  0  0  0  0  0  0  0  0  0
  -30.4658  -16.9384   21.3279 C   0  0  0  0  0  0  0  0  0  0  0  0
  -22.1789   -8.3317   21.6221 C   0  0  0  0  0  0  0  0  0  0  0  0
  -24.2530  -23.3000   22.5198 C   0  0  0  0  0  0  0  0  0  0  0  0
  -20.6422   -7.2915   23.0640 C   0  0  0  0  0  0  0  0  0  0  0  0
  -19.1080   -7.3785   25.3923 C   0  0  0  0  0  0  0  0  0  0  0  0
  -30.9221  -19.6887   21.2271 C   0  0  0  0  0  0  0  0  0  0  0  0
  -20.8344   -6.3361   24.0619 C   0  0  0  0  0  0  0  0  0  0  0  0
  -24.5893  -11.6934   20.7355 C   0  0  0  0  0  0  0  0  0  0  0  0
  -25.3445  -13.7353   20.4262 C   0  0  0  0  0  0  0  0  0  0  0  0
  -27.2522  -21.4644   23.3825 C   0  0  0  0  0  0  0  0  0  0  0  0
  -29.2472  -20.0700   23.0243 C   0  0  0  0  0  0  0  0  0  0  0  0
  -22.9680  -13.6364   21.1948 C   0  0  0  0  0  0  0  0  0  0  0  0
  -19.3324  -24.7817   24.2680 C   0  0  0  0  0  0  0  0  0  0  0  0
  -18.5371  -21.6387   24.3742 C   0  0  0  0  0  0  0  0  0  0  0  0
  -19.4877  -18.3927   23.9194 C   0  0  0  0  0  0  0  0  0  0  0  0
  -30.8489  -14.5547   20.6084 C   0  0  0  0  0  0  0  0  0  0  0  0
  -15.6455  -28.0820   25.5218 C   0  0  0  0  0  0  0  0  0  0  0  0
  -20.0419  -24.0053   21.9768 C   0  0  0  0  0  0  0  0  0  0  0  0
  -20.9871  -22.1741   24.0976 C   0  0  0  0  0  0  0  0  0  0  0  0
  -16.0390  -26.6705   25.9496 C   0  0  0  0  0  0  0  0  0  0  0  0
  -29.6508  -12.0890   18.3364 C   0  0  0  0  0  0  0  0  0  0  0  0
  -17.5292  -26.6055   26.2691 C   0  0  0  0  0  0  0  0  0  0  0  0
  -28.1967  -11.8779   18.7642 C   0  0  0  0  0  0  0  0  0  0  0  0
  -26.5225  -21.4389   21.1343 C   0  0  0  0  0  0  0  0  0  0  0  0
  -30.5654  -12.3312   19.5358 C   0  0  0  0  0  0  0  0  0  0  0  0
  -27.5020  -20.2844   21.3100 C   0  0  0  0  0  0  0  0  0  0  0  0
  -28.6804  -13.1956   20.8658 C   0  0  0  0  0  0  0  0  0  0  0  0
  -18.3733  -26.9457   25.0349 C   0  0  1  0  0  0  0  0  0  0  0  0
  -26.0303  -21.7506   22.5470 C   0  0  2  0  0  0  0  0  0  1  0  0
  -19.2046  -23.7142   23.2183 C   0  0  1  0  0  0  0  0  0  0  0  0
  -27.7104  -13.0124   19.6872 C   0  0  2  0  0  0  0  0  0  0  0  0
  -18.6319  -16.0424   24.1232 C   0  0  0  0  0  0  0  0  0  0  0  0
  -18.8470  -21.7913   27.4058 C   0  0  0  0  0  0  0  0  0  0  0  0
  -18.9247  -19.2893   27.4540 C   0  0  0  0  0  0  0  0  0  0  0  0
  -16.8822  -20.4562   26.6239 C   0  0  0  0  0  0  0  0  0  0  0  0
  -19.8722  -17.8787   21.0303 C   0  0  0  0  0  0  0  0  0  0  0  0
  -18.9722  -20.4531   25.2013 C   0  0  1  0  0  0  0  0  0  0  0  0
  -18.8148  -17.2373   23.2004 C   0  0  2  0  0  0  0  0  0  0  0  0
  -18.4251  -20.5122   26.6555 C   0  0  0  0  0  0  0  0  0  0  0  0
  -25.8521  -11.5258   20.3340 N   0  0  0  0  0  0  0  0  0  0  0  0
  -26.2846  -12.7854   20.1538 N   0  0  0  0  0  0  0  0  0  0  0  0
  -28.0930  -20.5750   22.6268 N   0  0  0  0  0  0  0  0  0  0  0  0
  -19.5603  -22.4445   23.8550 N   0  0  0  0  0  0  0  0  0  0  0  0
  -30.0442  -13.4222   20.3622 N   0  0  0  0  0  0  0  0  0  0  0  0
  -25.6123  -15.0521   20.2976 N   0  0  0  0  0  0  0  0  0  0  0  0
  -21.9154  -12.7866   21.5614 N   0  0  0  0  0  0  0  0  0  0  0  0
  -30.2353  -15.5413   21.3796 N   0  0  0  0  0  0  0  0  0  0  0  0
  -18.4263  -25.8160   24.1318 N   0  0  0  0  0  0  0  0  0  0  0  0
  -18.5659  -19.2655   24.4578 N   0  0  0  0  0  0  0  0  0  0  0  0
  -29.7488  -20.3593   24.2213 N   0  3  0  0  0  0  0  0  0  0  0  0
  -19.6333  -16.8075   22.0316 N   0  3  0  0  0  0  0  0  0  0  0  0
  -27.5258  -21.8755   24.4953 O   0  0  0  0  0  0  0  0  0  0  0  0
  -22.7841  -14.8773   21.1964 O   0  0  0  0  0  0  0  0  0  0  0  0
  -20.1887  -24.6740   25.1380 O   0  0  0  0  0  0  0  0  0  0  0  0
  -17.3339  -21.8382   24.1894 O   0  0  0  0  0  0  0  0  0  0  0  0
  -20.7088  -18.5073   23.9990 O   0  0  0  0  0  0  0  0  0  0  0  0
  -31.9878  -14.6548   20.1449 O   0  0  0  0  0  0  0  0  0  0  0  0
  -21.4035   -7.2501   21.9080 O   0  0  0  0  0  0  0  0  0  0  0  0
  -25.5845  -23.0741   22.6866 O   0  0  0  0  0  0  0  0  0  1  0  0
  -18.3723   -7.4213   26.5108 F   0  0  0  0  0  0  0  0  0  0  0  0
  -31.1482  -21.0087   21.1717 F   0  0  0  0  0  0  0  0  0  0  0  0
  -21.7553   -5.3748   23.9085 F   0  0  0  0  0  0  0  0  0  0  0  0
  1  2  1  0  0  0  0
  1  5  2  0  0  0  0
  2  6  2  0  0  0  0
  3  9  2  0  0  0  0
  3 18  1  0  0  0  0
  4 10  1  0  0  0  0
  4 18  2  0  0  0  0
  5 21  1  0  0  0  0
  6 23  1  0  0  0  0
  7 11  2  0  0  0  0
  7 22  1  0  0  0  0
  8 13  2  0  0  0  0
  8 25  1  0  0  0  0
  9 26  1  0  0  0  0
 10 26  2  0  0  0  0
 11 27  1  0  0  0  0
 12 14  2  0  0  0  0
 12 28  1  0  0  0  0
 13 30  1  0  0  0  0
 14 29  1  0  0  0  0
 15 19  1  0  0  0  0
 15 25  2  0  0  0  0
 16 24  1  0  0  0  0
 16 27  2  0  0  0  0
 17 29  2  0  0  0  0
 17 31  1  0  0  0  0
 18 32  1  0  0  0  0
 19 30  2  0  0  0  0
 19 35  1  0  0  0  0
 20 32  1  0  0  0  0
 20 33  2  0  0  0  0
 20 36  1  0  0  0  0
 21 23  2  0  0  0  0
 21 41  1  0  0  0  0
 22 24  2  0  0  0  0
 22 42  1  0  0  0  0
 23 52  1  0  0  0  0
 24 43  1  0  0  0  0
 25 71  1  0  0  0  0
 26 82  1  0  0  0  0
 27 83  1  0  0  0  0
 28 31  2  0  0  0  0
 28 82  1  0  0  0  0
 29 84  1  0  0  0  0
 30 85  1  0  0  0  0
 31 86  1  0  0  0  0
 32 64  2  0  0  0  0
 33 65  1  0  0  0  0
 33 69  1  0  0  0  0
 34 53  1  0  0  0  0
 34 66  1  0  0  0  0
 34 76  2  0  0  0  0
 35 66  1  0  0  0  0
 35 74  2  0  0  0  0
 36 70  1  0  0  0  0
 36 77  2  0  0  0  0
 37 54  1  0  0  0  0
 37 72  1  0  0  0  0
 37 78  2  0  0  0  0
 38 61  1  0  0  0  0
 38 67  1  0  0  0  0
 38 79  2  0  0  0  0
 39 62  1  0  0  0  0
 39 73  1  0  0  0  0
 39 80  2  0  0  0  0
 40 68  1  0  0  0  0
 40 71  1  0  0  0  0
 40 81  2  0  0  0  0
 41 44  1  0  0  0  0
 42 54  1  0  0  0  0
 43 67  1  0  0  0  0
 44 46  1  0  0  0  0
 45 47  1  0  0  0  0
 45 49  1  0  0  0  0
 46 52  1  0  0  0  0
 47 55  1  0  0  0  0
 48 50  1  0  0  0  0
 48 53  1  0  0  0  0
 49 68  1  0  0  0  0
 50 66  1  0  0  0  0
 51 55  1  0  0  0  0
 51 68  1  0  0  0  0
 52 72  1  0  0  0  0
 53 83  1  0  0  0  0
 54 67  1  0  0  0  0
 55 65  1  0  0  0  0
 56 62  1  0  0  0  0
 57 63  1  0  0  0  0
 58 63  1  0  0  0  0
 59 63  1  0  0  0  0
 60 75  1  0  0  0  0
 61 63  1  0  0  0  0
 61 73  1  0  0  0  0
 62 75  1  0  0  0  0
 64 65  1  0  0  0  0
M  CHG  2  74   1  75   1
M  ISO  4  40 100  53 101  71 100  83 101
M  END
> <Batch ID>
0154

> <Smiles>
CNC(C)C(=O)NC(C(=O)N1Cc2cc([101O:1][101CH:1]3CCN(C(=N)c4cc([100NH:0][100C:0](=O)N5CCCC(n6nc(-c7ccc(Oc8ccc(F)cc8F)cc7)c(C(N)=O)c6N)C5)ccc4F)C3=O)ccc2CC1C(=O)NC1CCCc2ccccc21)C(C)(C)C

> <Shape>
0.211

> <Color>
0.199

> <Negative vol penalty>
0.000

$$$$

  -OEChem-04052303333D

 85 94  0     1  0  0  0  0  0999 V2000
  -26.8926  -37.0130   17.6803 C   0  0  0  0  0  0  0  0  0  0  0  0
  -27.2788  -35.6856   17.5248 C   0  0  0  0  0  0  0  0  0  0  0  0
  -24.2604  -11.2162   23.8216 C   0  0  0  0  0  0  0  0  0  0  0  0
  -24.2380  -13.5923   24.2582 C   0  0  0  0  0  0  0  0  0  0  0  0
  -26.5648  -37.4989   18.9453 C   0  0  0  0  0  0  0  0  0  0  0  0
  -27.3384  -34.8434   18.6346 C   0  0  0  0  0  0  0  0  0  0  0  0
  -26.0428  -28.8598   18.7893 C   0  0  0  0  0  0  0  0  0  0  0  0
  -23.8179  -10.9731   25.1218 C   0  0  0  0  0  0  0  0  0  0  0  0
  -23.7954  -13.3492   25.5585 C   0  0  0  0  0  0  0  0  0  0  0  0
  -26.8501  -27.7239   18.7472 C   0  0  0  0  0  0  0  0  0  0  0  0
  -20.8972  -11.0888   26.8215 C   0  0  0  0  0  0  0  0  0  0  0  0
  -19.8700  -10.1610   26.9938 C   0  0  0  0  0  0  0  0  0  0  0  0
  -31.6126  -19.5546   19.8535 C   0  0  0  0  0  0  0  0  0  0  0  0
  -31.6792  -18.1582   19.6322 C   0  0  0  0  0  0  0  0  0  0  0  0
  -26.8057  -27.6104   21.1564 C   0  0  0  0  0  0  0  0  0  0  0  0
  -21.3178   -8.8163   28.3840 C   0  0  0  0  0  0  0  0  0  0  0  0
  -24.4705  -12.5259   23.3898 C   0  0  0  0  0  0  0  0  0  0  0  0
  -24.1343  -12.9807   20.9022 C   0  0  0  0  0  0  0  0  0  0  0  0
  -26.6111  -36.6597   20.0697 C   0  0  0  0  0  0  0  0  0  0  0  0
  -25.6192  -29.3868   20.0178 C   0  0  0  0  0  0  0  0  0  0  0  0
  -27.0122  -35.3189   19.9161 C   0  0  0  0  0  0  0  0  0  0  0  0
  -25.9910  -28.7516   21.2113 C   0  0  0  0  0  0  0  0  0  0  0  0
  -23.5853  -12.0396   25.9902 C   0  0  0  0  0  0  0  0  0  0  0  0
  -27.2341  -27.1007   19.9309 C   0  0  0  0  0  0  0  0  0  0  0  0
  -22.1347  -10.8803   27.4304 C   0  0  0  0  0  0  0  0  0  0  0  0
  -20.0803   -9.0248   27.7751 C   0  0  0  0  0  0  0  0  0  0  0  0
  -22.3450   -9.7441   28.2117 C   0  0  0  0  0  0  0  0  0  0  0  0
  -24.9282  -12.7776   22.0469 C   0  0  0  0  0  0  0  0  0  0  0  0
  -30.4295  -19.7800   20.5179 C   0  0  0  0  0  0  0  0  0  0  0  0
  -25.0388  -13.1766   19.8874 C   0  0  0  0  0  0  0  0  0  0  0  0
  -30.5322  -17.6299   20.1774 C   0  0  0  0  0  0  0  0  0  0  0  0
  -22.7069  -12.9914   20.7683 C   0  0  0  0  0  0  0  0  0  0  0  0
  -29.9436  -21.1013   20.9539 C   0  0  0  0  0  0  0  0  0  0  0  0
  -26.0399  -32.1454   21.5399 C   0  0  0  0  0  0  0  0  0  0  0  0
  -23.9209  -30.8647   23.6357 C   0  0  0  0  0  0  0  0  0  0  0  0
  -22.4881  -28.0649   24.9604 C   0  0  0  0  0  0  0  0  0  0  0  0
  -30.6784  -15.1482   19.7696 C   0  0  0  0  0  0  0  0  0  0  0  0
  -26.2933  -37.2425   21.4240 C   0  0  0  0  0  0  0  0  0  0  0  0
  -24.7267  -30.5972   20.0451 C   0  0  0  0  0  0  0  0  0  0  0  0
  -25.5462  -29.2659   22.5552 C   0  0  0  0  0  0  0  0  0  0  0  0
  -26.0207  -36.1869   22.4926 C   0  0  0  0  0  0  0  0  0  0  0  0
  -29.4924  -12.0148   18.5644 C   0  0  0  0  0  0  0  0  0  0  0  0
  -26.3315  -21.0924   20.6985 C   0  0  0  0  0  0  0  0  0  0  0  0
  -27.0813  -35.0917   22.4438 C   0  0  0  0  0  0  0  0  0  0  0  0
  -28.1126  -11.8761   19.2117 C   0  0  0  0  0  0  0  0  0  0  0  0
  -26.5848  -22.1918   21.7247 C   0  0  0  0  0  0  0  0  0  0  0  0
  -27.6353  -20.3046   20.6827 C   0  0  0  0  0  0  0  0  0  0  0  0
  -30.4945  -12.6844   19.5031 C   0  0  0  0  0  0  0  0  0  0  0  0
  -28.6784  -13.8318   20.7091 C   0  0  0  0  0  0  0  0  0  0  0  0
  -27.0651  -34.3678   21.0921 C   0  0  1  0  0  0  0  0  0  0  0  0
  -24.7778  -31.3475   21.3725 C   0  0  1  0  0  0  0  0  0  0  0  0
  -27.6180  -13.2216   19.7780 C   0  0  2  0  0  0  0  0  0  0  0  0
  -28.0451  -22.5914   21.4925 C   0  0  2  0  0  0  0  0  0  0  0  0
  -20.8163  -27.3346   26.6835 C   0  0  0  0  0  0  0  0  0  0  0  0
  -25.9499  -31.4345   25.8423 C   0  0  0  0  0  0  0  0  0  0  0  0
  -24.6764  -29.8670   27.3220 C   0  0  0  0  0  0  0  0  0  0  0  0
  -23.5763  -31.9308   26.4541 C   0  0  0  0  0  0  0  0  0  0  0  0
  -20.7712  -26.7822   22.9193 C   0  0  0  0  0  0  0  0  0  0  0  0
  -28.2080  -23.6601   20.4220 C   0  0  0  0  0  0  0  0  0  0  0  0
  -27.8631  -25.0451   20.9480 C   0  0  0  0  0  0  0  0  0  1  0  0
  -24.0271  -30.0087   24.8747 C   0  0  1  0  0  0  0  0  0  0  0  0
  -21.0373  -27.7048   25.2251 C   0  0  2  0  0  0  0  0  0  0  0  0
  -24.5676  -30.8015   26.0982 C   0  0  0  0  0  0  0  0  0  0  0  0
  -26.2365  -12.8387   21.7845 N   0  0  0  0  0  0  0  0  0  0  0  0
  -26.2715  -13.0822   20.4634 N   0  0  0  0  0  0  0  0  0  0  0  0
  -28.6426  -21.3241   21.0236 N   0  0  0  0  0  0  0  0  0  0  0  0
  -24.6796  -30.4558   22.5299 N   0  0  0  0  0  0  0  0  0  0  0  0
  -29.9598  -13.9554   19.9968 N   0  0  0  0  0  0  0  0  0  0  0  0
  -24.8921  -13.4185   18.5674 N   0  0  0  0  0  0  0  0  0  0  0  0
  -21.9268  -12.7731   21.9121 N   0  0  0  0  0  0  0  0  0  0  0  0
  -30.0562  -16.2976   20.2559 N   0  0  0  0  0  0  0  0  0  0  0  0
  -25.9650  -33.4293   21.0345 N   0  0  0  0  0  0  0  0  0  0  0  0
  -22.7076  -29.4210   25.0791 N   0  0  0  0  0  0  0  0  0  0  0  0
  -30.8215  -22.0480   21.2722 N   0  3  0  0  0  0  0  0  0  0  0  0
  -20.6281  -26.5480   24.3793 N   0  3  0  0  0  0  0  0  0  0  0  0
  -22.1400  -13.1724   19.6640 O   0  0  0  0  0  0  0  0  0  0  0  0
  -27.0093  -31.6347   22.0885 O   0  0  0  0  0  0  0  0  0  0  0  0
  -23.1862  -31.8555   23.6464 O   0  0  0  0  0  0  0  0  0  0  0  0
  -23.3421  -27.2266   24.6803 O   0  0  0  0  0  0  0  0  0  0  0  0
  -31.7524  -15.1533   19.1627 O   0  0  0  0  0  0  0  0  0  0  0  0
  -29.7651  -18.6119   20.7193 O   0  0  0  0  0  0  0  0  0  0  0  0
  -23.1533  -11.8027   27.2590 O   0  0  0  0  0  0  0  0  0  0  0  0
  -28.0226  -25.9923   19.8927 O   0  0  0  0  0  0  0  0  0  1  0  0
  -19.0933   -8.1347   27.9417 F   0  0  0  0  0  0  0  0  0  0  0  0
  -23.5314   -9.5389   28.8001 F   0  0  0  0  0  0  0  0  0  0  0  0
  1  2  1  0  0  0  0
  1  5  2  0  0  0  0
  2  6  2  0  0  0  0
  3  8  2  0  0  0  0
  3 17  1  0  0  0  0
  4  9  1  0  0  0  0
  4 17  2  0  0  0  0
  5 19  1  0  0  0  0
  6 21  1  0  0  0  0
  7 10  2  0  0  0  0
  7 20  1  0  0  0  0
  8 23  1  0  0  0  0
  9 23  2  0  0  0  0
 10 24  1  0  0  0  0
 11 12  2  0  0  0  0
 11 25  1  0  0  0  0
 12 26  1  0  0  0  0
 13 14  1  0  0  0  0
 13 29  2  0  0  0  0
 14 31  2  0  0  0  0
 15 22  1  0  0  0  0
 15 24  2  0  0  0  0
 16 26  2  0  0  0  0
 16 27  1  0  0  0  0
 17 28  1  0  0  0  0
 18 28  1  0  0  0  0
 18 30  2  0  0  0  0
 18 32  1  0  0  0  0
 19 21  2  0  0  0  0
 19 38  1  0  0  0  0
 20 22  2  0  0  0  0
 20 39  1  0  0  0  0
 21 50  1  0  0  0  0
 22 40  1  0  0  0  0
 23 82  1  0  0  0  0
 24 83  1  0  0  0  0
 25 27  2  0  0  0  0
 25 82  1  0  0  0  0
 26 84  1  0  0  0  0
 27 85  1  0  0  0  0
 28 64  2  0  0  0  0
 29 33  1  0  0  0  0
 29 81  1  0  0  0  0
 30 65  1  0  0  0  0
 30 69  1  0  0  0  0
 31 71  1  0  0  0  0
 31 81  1  0  0  0  0
 32 70  1  0  0  0  0
 32 76  2  0  0  0  0
 33 66  1  0  0  0  0
 33 74  2  0  0  0  0
 34 51  1  0  0  0  0
 34 72  1  0  0  0  0
 34 77  2  0  0  0  0
 35 61  1  0  0  0  0
 35 67  1  0  0  0  0
 35 78  2  0  0  0  0
 36 62  1  0  0  0  0
 36 73  1  0  0  0  0
 36 79  2  0  0  0  0
 37 68  1  0  0  0  0
 37 71  1  0  0  0  0
 37 80  2  0  0  0  0
 38 41  1  0  0  0  0
 39 51  1  0  0  0  0
 40 67  1  0  0  0  0
 41 44  1  0  0  0  0
 42 45  1  0  0  0  0
 42 48  1  0  0  0  0
 43 46  1  0  0  0  0
 43 47  1  0  0  0  0
 44 50  1  0  0  0  0
 45 52  1  0  0  0  0
 46 53  1  0  0  0  0
 47 66  1  0  0  0  0
 48 68  1  0  0  0  0
 49 52  1  0  0  0  0
 49 68  1  0  0  0  0
 50 72  1  0  0  0  0
 51 67  1  0  0  0  0
 52 65  1  0  0  0  0
 53 59  1  0  0  0  0
 53 66  1  0  0  0  0
 54 62  1  0  0  0  0
 55 63  1  0  0  0  0
 56 63  1  0  0  0  0
 57 63  1  0  0  0  0
 58 75  1  0  0  0  0
 59 60  1  0  0  0  0
 60 83  1  0  0  0  0
 61 63  1  0  0  0  0
 61 73  1  0  0  0  0
 62 75  1  0  0  0  0
 64 65  1  0  0  0  0
M  CHG  2  74   1  75   1
M  ISO  4  37 100  60 101  71 100  83 101
M  END
> <Batch ID>
0154

> <Smiles>
CNC(C)C(=O)NC(C(=O)N1Cc2cc([101O:1][101CH2:1]CC3CCCN3C(=N)c3ccc([100NH:0][100C:0](=O)N4CCCC(n5nc(-c6ccc(Oc7ccc(F)cc7F)cc6)c(C(N)=O)c5N)C4)o3)ccc2CC1C(=O)NC1CCCc2ccccc21)C(C)(C)C

> <Shape>
0.243

> <Color>
0.121

> <Negative vol penalty>
0.000

$$$$

  -OEChem-04052303333D

 83 92  0     1  0  0  0  0  0999 V2000
  -29.3629  -35.4283   23.5607 C   0  0  0  0  0  0  0  0  0  0  0  0
  -29.2174  -34.0450   23.5338 C   0  0  0  0  0  0  0  0  0  0  0  0
  -22.1430  -10.6341   21.3596 C   0  0  0  0  0  0  0  0  0  0  0  0
  -24.0174   -9.5252   20.3138 C   0  0  0  0  0  0  0  0  0  0  0  0
  -28.2426  -36.2429   23.7202 C   0  0  0  0  0  0  0  0  0  0  0  0
  -27.9516  -33.4755   23.6675 C   0  0  0  0  0  0  0  0  0  0  0  0
  -27.1332  -29.7548   20.3310 C   0  0  0  0  0  0  0  0  0  0  0  0
  -21.6263   -9.3973   21.7453 C   0  0  0  0  0  0  0  0  0  0  0  0
  -23.5008   -8.2882   20.6995 C   0  0  0  0  0  0  0  0  0  0  0  0
  -27.7116  -28.5160   20.6042 C   0  0  0  0  0  0  0  0  0  0  0  0
  -22.1966   -7.1041   24.1639 C   0  0  0  0  0  0  0  0  0  0  0  0
  -21.7270   -6.9769   25.4711 C   0  0  0  0  0  0  0  0  0  0  0  0
  -25.5964  -27.7217   21.4495 C   0  0  0  0  0  0  0  0  0  0  0  0
  -25.1817  -21.7116   18.8064 C   0  0  0  0  0  0  0  0  0  0  0  0
  -19.5313   -6.4236   24.6284 C   0  0  0  0  0  0  0  0  0  0  0  0
  -23.3385  -10.6981   20.6438 C   0  0  0  0  0  0  0  0  0  0  0  0
  -24.7605  -12.7904   20.9719 C   0  0  0  0  0  0  0  0  0  0  0  0
  -26.9614  -35.6834   23.8462 C   0  0  0  0  0  0  0  0  0  0  0  0
  -25.7826  -29.9903   20.6256 C   0  0  0  0  0  0  0  0  0  0  0  0
  -26.8134  -34.2833   23.8301 C   0  0  0  0  0  0  0  0  0  0  0  0
  -25.0027  -28.9636   21.1768 C   0  0  0  0  0  0  0  0  0  0  0  0
  -24.5643  -20.4950   18.4527 C   0  0  0  0  0  0  0  0  0  0  0  0
  -22.3052   -8.2243   21.4153 C   0  0  0  0  0  0  0  0  0  0  0  0
  -26.9439  -27.5001   21.1662 C   0  0  0  0  0  0  0  0  0  0  0  0
  -21.3336   -6.8912   23.0889 C   0  0  0  0  0  0  0  0  0  0  0  0
  -20.3944   -6.6366   25.7034 C   0  0  0  0  0  0  0  0  0  0  0  0
  -20.0009   -6.5509   23.3212 C   0  0  0  0  0  0  0  0  0  0  0  0
  -23.8724  -11.9755   20.2447 C   0  0  0  0  0  0  0  0  0  0  0  0
  -25.3500  -19.4156   18.7342 C   0  0  0  0  0  0  0  0  0  0  0  0
  -24.9599  -13.8850   20.1665 C   0  0  0  0  0  0  0  0  0  0  0  0
  -26.4341  -21.4806   19.3536 C   0  0  0  0  0  0  0  0  0  0  0  0
  -25.3525  -12.5770   22.2602 C   0  0  0  0  0  0  0  0  0  0  0  0
  -24.2197  -31.9898   22.5395 C   0  0  0  0  0  0  0  0  0  0  0  0
  -21.6107  -30.7281   21.0823 C   0  0  0  0  0  0  0  0  0  0  0  0
  -27.3299  -23.7702   19.9007 C   0  0  0  0  0  0  0  0  0  0  0  0
  -20.2222  -28.1161   19.3804 C   0  0  0  0  0  0  0  0  0  0  0  0
  -22.6209  -17.8548   16.9276 C   0  0  0  0  0  0  0  0  0  0  0  0
  -25.7859  -36.6029   24.0639 C   0  0  0  0  0  0  0  0  0  0  0  0
  -25.1670  -31.3235   20.3002 C   0  0  0  0  0  0  0  0  0  0  0  0
  -23.5432  -29.1590   21.4930 C   0  0  0  0  0  0  0  0  0  0  0  0
  -23.2864  -20.0820   17.8455 C   0  0  0  0  0  0  0  0  0  0  0  0
  -24.7310  -18.1240   18.3885 C   0  0  0  0  0  0  0  0  0  0  0  0
  -24.4356  -35.9329   23.8230 C   0  0  0  0  0  0  0  0  0  0  0  0
  -23.6839  -14.7176   15.3423 C   0  0  0  0  0  0  0  0  0  0  0  0
  -24.3846  -34.5723   24.5108 C   0  0  0  0  0  0  0  0  0  0  0  0
  -23.8546  -13.7820   16.5412 C   0  0  0  0  0  0  0  0  0  0  0  0
  -22.6139  -15.7788   15.5906 C   0  0  0  0  0  0  0  0  0  0  0  0
  -22.9517  -15.6077   18.0247 C   0  0  0  0  0  0  0  0  0  0  0  0
  -25.4540  -33.6287   23.9471 C   0  0  1  0  0  0  0  0  0  0  0  0
  -23.9123  -31.6175   21.1166 C   0  0  1  0  0  0  0  0  0  0  0  0
  -24.0735  -14.5768   17.8430 C   0  0  1  0  0  0  0  0  0  0  0  0
  -18.0601  -27.3592   18.3559 C   0  0  0  0  0  0  0  0  0  0  0  0
  -20.5151  -30.1047   23.8609 C   0  0  0  0  0  0  0  0  0  0  0  0
  -18.8756  -28.5458   22.7886 C   0  0  0  0  0  0  0  0  0  0  0  0
  -18.8202  -30.9794   22.2434 C   0  0  0  0  0  0  0  0  0  0  0  0
  -21.4238  -27.9549   16.6805 C   0  0  0  0  0  0  0  0  0  0  0  0
  -28.6010  -24.3529   20.5079 C   0  0  0  0  0  0  0  0  0  0  0  0
  -28.5800  -25.8715   20.5948 C   0  0  0  0  0  0  0  0  0  1  0  0
  -20.7034  -29.5508   21.3462 C   0  0  1  0  0  0  0  0  0  0  0  0
  -19.3831  -28.0698   18.1162 C   0  0  2  0  0  0  0  0  0  0  0  0
  -19.7565  -29.7918   22.5557 C   0  0  0  0  0  0  0  0  0  0  0  0
  -23.5309  -12.5071   19.0679 N   0  0  0  0  0  0  0  0  0  0  0  0
  -24.2080  -13.6678   19.0495 N   0  0  0  0  0  0  0  0  0  0  0  0
  -22.9887  -30.4821   21.1623 N   0  0  0  0  0  0  0  0  0  0  0  0
  -23.4516  -18.5998   17.7719 N   0  0  0  0  0  0  0  0  0  0  0  0
  -22.8597  -16.4793   16.8500 N   0  0  0  0  0  0  0  0  0  0  0  0
  -25.7031  -15.0025   20.3120 N   0  0  0  0  0  0  0  0  0  0  0  0
  -25.0404  -11.3987   22.9520 N   0  0  0  0  0  0  0  0  0  0  0  0
  -27.3751  -22.3509   19.8309 N   0  0  0  0  0  0  0  0  0  0  0  0
  -25.0356  -33.0976   22.6675 N   0  0  0  0  0  0  0  0  0  0  0  0
  -20.0117  -29.2790   20.0908 N   0  0  0  0  0  0  0  0  0  0  0  0
  -20.1142  -27.3500   17.0353 N   0  3  0  0  0  0  0  0  0  0  0  0
  -26.1222  -13.4142   22.7896 O   0  0  0  0  0  0  0  0  0  0  0  0
  -23.7502  -31.3223   23.4536 O   0  0  0  0  0  0  0  0  0  0  0  0
  -21.1152  -31.8240   20.8079 O   0  0  0  0  0  0  0  0  0  0  0  0
  -26.4004  -24.4783   19.5280 O   0  0  0  0  0  0  0  0  0  0  0  0
  -20.9852  -27.2096   19.7070 O   0  0  0  0  0  0  0  0  0  0  0  0
  -21.7488  -18.3976   16.2376 O   0  0  0  0  0  0  0  0  0  0  0  0
  -21.8015   -7.0172   21.7916 O   0  0  0  0  0  0  0  0  0  0  0  0
  -27.5101  -26.2817   21.4364 O   0  0  0  0  0  0  0  0  0  1  0  0
  -19.9439   -6.5129   26.9588 F   0  0  0  0  0  0  0  0  0  0  0  0
  -19.1674   -6.3439   22.2925 F   0  0  0  0  0  0  0  0  0  0  0  0
  -26.8260  -19.7957   19.4198 S   0  0  0  0  0  0  0  0  0  0  0  0
  1  2  1  0  0  0  0
  1  5  2  0  0  0  0
  2  6  2  0  0  0  0
  3  8  2  0  0  0  0
  3 16  1  0  0  0  0
  4  9  1  0  0  0  0
  4 16  2  0  0  0  0
  5 18  1  0  0  0  0
  6 20  1  0  0  0  0
  7 10  2  0  0  0  0
  7 19  1  0  0  0  0
  8 23  1  0  0  0  0
  9 23  2  0  0  0  0
 10 24  1  0  0  0  0
 11 12  2  0  0  0  0
 11 25  1  0  0  0  0
 12 26  1  0  0  0  0
 13 21  1  0  0  0  0
 13 24  2  0  0  0  0
 14 22  1  0  0  0  0
 14 31  2  0  0  0  0
 15 26  2  0  0  0  0
 15 27  1  0  0  0  0
 16 28  1  0  0  0  0
 17 28  1  0  0  0  0
 17 30  2  0  0  0  0
 17 32  1  0  0  0  0
 18 20  2  0  0  0  0
 18 38  1  0  0  0  0
 19 21  2  0  0  0  0
 19 39  1  0  0  0  0
 20 49  1  0  0  0  0
 21 40  1  0  0  0  0
 22 29  2  0  0  0  0
 22 41  1  0  0  0  0
 23 79  1  0  0  0  0
 24 80  1  0  0  0  0
 25 27  2  0  0  0  0
 25 79  1  0  0  0  0
 26 81  1  0  0  0  0
 27 82  1  0  0  0  0
 28 62  2  0  0  0  0
 29 42  1  0  0  0  0
 29 83  1  0  0  0  0
 30 63  1  0  0  0  0
 30 67  1  0  0  0  0
 31 69  1  0  0  0  0
 31 83  1  0  0  0  0
 32 68  1  0  0  0  0
 32 73  2  0  0  0  0
 33 50  1  0  0  0  0
 33 70  1  0  0  0  0
 33 74  2  0  0  0  0
 34 59  1  0  0  0  0
 34 64  1  0  0  0  0
 34 75  2  0  0  0  0
 35 57  1  0  0  0  0
 35 69  1  0  0  0  0
 35 76  2  0  0  0  0
 36 60  1  0  0  0  0
 36 71  1  0  0  0  0
 36 77  2  0  0  0  0
 37 65  1  0  0  0  0
 37 66  1  0  0  0  0
 37 78  2  0  0  0  0
 38 43  1  0  0  0  0
 39 50  1  0  0  0  0
 40 64  1  0  0  0  0
 41 65  1  0  0  0  0
 42 65  1  0  0  0  0
 43 45  1  0  0  0  0
 44 46  1  0  0  0  0
 44 47  1  0  0  0  0
 45 49  1  0  0  0  0
 46 51  1  0  0  0  0
 47 66  1  0  0  0  0
 48 51  1  0  0  0  0
 48 66  1  0  0  0  0
 49 70  1  0  0  0  0
 50 64  1  0  0  0  0
 51 63  1  0  0  0  0
 52 60  1  0  0  0  0
 53 61  1  0  0  0  0
 54 61  1  0  0  0  0
 55 61  1  0  0  0  0
 56 72  1  0  0  0  0
 57 58  1  0  0  0  0
 58 80  1  0  0  0  0
 59 61  1  0  0  0  0
 59 71  1  0  0  0  0
 60 72  1  0  0  0  0
 62 63  1  0  0  0  0
M  CHG  1  72   1
M  ISO  4  37 100  58 101  65 100  80 101
M  END
> <Batch ID>
0154

> <Smiles>
CNC(C)C(=O)NC(C(=O)N1Cc2cc([101O:1][101CH2:1]CC(=O)Nc3cc4c(s3)C[100N:0]([100C:0](=O)N3CCCC(n5nc(-c6ccc(Oc7ccc(F)cc7F)cc6)c(C(N)=O)c5N)C3)C4)ccc2CC1C(=O)NC1CCCc2ccccc21)C(C)(C)C

> <Shape>
0.232

> <Color>
0.108

> <Negative vol penalty>
0.000

$$$$

  -OEChem-04052303333D

 88 97  0     1  0  0  0  0  0999 V2000
  -20.7064  -29.3428   25.3826 C   0  0  0  0  0  0  0  0  0  0  0  0
  -21.8893  -28.8012   24.8899 C   0  0  0  0  0  0  0  0  0  0  0  0
  -27.2656  -12.7548   18.7262 C   0  0  0  0  0  0  0  0  0  0  0  0
  -28.2322  -13.4634   20.8240 C   0  0  0  0  0  0  0  0  0  0  0  0
  -19.4917  -29.0326   24.7724 C   0  0  0  0  0  0  0  0  0  0  0  0
  -21.8581  -27.9481   23.7873 C   0  0  0  0  0  0  0  0  0  0  0  0
  -25.4650  -29.0204   20.3983 C   0  0  0  0  0  0  0  0  0  0  0  0
  -28.4001  -11.9873   18.4627 C   0  0  0  0  0  0  0  0  0  0  0  0
  -29.3667  -12.6958   20.5605 C   0  0  0  0  0  0  0  0  0  0  0  0
  -26.7587  -28.5882   20.6870 C   0  0  0  0  0  0  0  0  0  0  0  0
  -32.1608  -12.9462   18.6735 C   0  0  0  0  0  0  0  0  0  0  0  0
  -33.4063  -13.5291   18.9071 C   0  0  0  0  0  0  0  0  0  0  0  0
  -26.4514  -26.7034   19.2131 C   0  0  0  0  0  0  0  0  0  0  0  0
  -27.2774  -21.1769   23.6916 C   0  0  0  0  0  0  0  0  0  0  0  0
  -33.9186  -11.7931   20.5073 C   0  0  0  0  0  0  0  0  0  0  0  0
  -26.9048  -22.7589   22.1334 C   0  0  0  0  0  0  0  0  0  0  0  0
  -27.1817  -13.4929   19.9069 C   0  0  0  0  0  0  0  0  0  0  0  0
  -24.8447  -13.8775   20.8548 C   0  0  0  0  0  0  0  0  0  0  0  0
  -19.4466  -28.1829   23.6559 C   0  0  0  0  0  0  0  0  0  0  0  0
  -24.6496  -28.2902   19.5218 C   0  0  0  0  0  0  0  0  0  0  0  0
  -20.6415  -27.6251   23.1625 C   0  0  0  0  0  0  0  0  0  0  0  0
  -25.1487  -27.1299   18.9129 C   0  0  0  0  0  0  0  0  0  0  0  0
  -26.6188  -21.4538   22.4682 C   0  0  0  0  0  0  0  0  0  0  0  0
  -29.4506  -11.9578   19.3798 C   0  0  0  0  0  0  0  0  0  0  0  0
  -27.2511  -27.4280   20.0966 C   0  0  0  0  0  0  0  0  0  0  0  0
  -31.7942  -11.7867   19.3568 C   0  0  0  0  0  0  0  0  0  0  0  0
  -34.2852  -12.9526   19.8240 C   0  0  0  0  0  0  0  0  0  0  0  0
  -32.6731  -11.2101   20.2737 C   0  0  0  0  0  0  0  0  0  0  0  0
  -26.0103  -14.2864   20.1794 C   0  0  0  0  0  0  0  0  0  0  0  0
  -27.9456  -22.3213   24.0673 C   0  0  0  0  0  0  0  0  0  0  0  0
  -24.0382  -14.9893   20.8518 C   0  0  0  0  0  0  0  0  0  0  0  0
  -24.5202  -12.6063   21.4332 C   0  0  0  0  0  0  0  0  0  0  0  0
  -28.7492  -22.5194   25.2347 C   0  0  0  0  0  0  0  0  0  0  0  0
  -21.8724  -26.7666   19.7860 C   0  0  0  0  0  0  0  0  0  0  0  0
  -29.4193  -24.8810   22.1645 C   0  0  0  0  0  0  0  0  0  0  0  0
  -22.2047  -26.4148   16.5785 C   0  0  0  0  0  0  0  0  0  0  0  0
  -24.2873  -26.2918   13.8777 C   0  0  0  0  0  0  0  0  0  0  0  0
  -25.1630  -20.8474   20.5037 C   0  0  0  0  0  0  0  0  0  0  0  0
  -18.1049  -27.8390   23.0591 C   0  0  0  0  0  0  0  0  0  0  0  0
  -23.2658  -28.7843   19.2001 C   0  0  0  0  0  0  0  0  0  0  0  0
  -24.3207  -26.3211   17.9492 C   0  0  0  0  0  0  0  0  0  0  0  0
  -18.1979  -27.2246   21.6648 C   0  0  0  0  0  0  0  0  0  0  0  0
  -23.1139  -18.9383   18.3052 C   0  0  0  0  0  0  0  0  0  0  0  0
  -19.2678  -26.1378   21.6306 C   0  0  0  0  0  0  0  0  0  0  0  0
  -31.1983  -22.0304   25.8234 C   0  0  0  0  0  0  0  0  0  0  0  0
  -31.0949  -22.0159   24.3280 C   0  0  0  0  0  0  0  0  0  0  0  0
  -23.5137  -17.4912   18.6021 C   0  0  0  0  0  0  0  0  0  0  0  0
  -24.3117  -19.8837   18.3773 C   0  0  0  0  0  0  0  0  0  0  0  0
  -25.4860  -18.3635   19.9197 C   0  0  0  0  0  0  0  0  0  0  0  0
  -20.6512  -26.7153   21.9532 C   0  0  1  0  0  0  0  0  0  0  0  0
  -30.2380  -22.9012   25.1300 C   0  0  0  0  0  0  0  0  0  0  0  0
  -22.3413  -27.6826   18.6911 C   0  0  1  0  0  0  0  0  0  0  0  0
  -24.3013  -17.3837   19.9226 C   0  0  2  0  0  0  0  0  0  0  0  0
  -24.2709  -25.9530   11.3913 C   0  0  0  0  0  0  0  0  0  0  0  0
  -30.6483  -26.6588   23.4788 C   0  0  0  0  0  0  0  0  0  0  0  0
  -31.2446  -26.2454   21.0950 C   0  0  0  0  0  0  0  0  0  0  0  0
  -21.8053  -23.4182   16.9919 C   0  0  0  0  0  0  0  0  0  0  0  0
  -22.7281  -23.0489   14.6940 C   0  0  0  0  0  0  0  0  0  0  0  0
  -20.6289  -24.3620   14.9969 C   0  0  0  0  0  0  0  0  0  0  0  0
  -25.4172  -28.9827   13.3869 C   0  0  0  0  0  0  0  0  0  0  0  0
  -28.2509  -24.6842   23.1223 C   0  0  0  0  0  0  0  0  0  0  0  0
  -29.0330  -27.3199   21.6680 C   0  0  0  0  0  0  0  0  0  1  0  0
  -22.8393  -25.3843   15.6761 C   0  0  1  0  0  0  0  0  0  0  0  0
  -24.2188  -26.9696   12.5211 C   0  0  2  0  0  0  0  0  0  0  0  0
  -30.0797  -26.2780   22.1034 C   0  0  0  0  0  0  0  0  0  0  0  0
  -22.0156  -24.0673   15.6093 C   0  0  0  0  0  0  0  0  0  0  0  0
  -25.9532  -15.5586   19.7765 N   0  0  0  0  0  0  0  0  0  0  0  0
  -28.2743  -22.3742   26.4634 N   0  0  0  0  0  0  0  0  0  0  0  0
  -27.7118  -23.2765   23.1128 N   0  0  0  0  0  0  0  0  0  0  0  0
  -24.7422  -15.9587   20.2000 N   0  0  0  0  0  0  0  0  0  0  0  0
  -22.9719  -26.8417   17.6716 N   0  0  0  0  0  0  0  0  0  0  0  0
  -25.0065  -19.7295   19.6573 N   0  0  0  0  0  0  0  0  0  0  0  0
  -22.8027  -15.2224   21.3432 N   0  0  0  0  0  0  0  0  0  0  0  0
  -25.4629  -11.5728   21.3470 N   0  0  0  0  0  0  0  0  0  0  0  0
  -25.8104  -20.5728   21.7079 N   0  0  0  0  0  0  0  0  0  0  0  0
  -21.1907  -27.4078   20.8026 N   0  0  0  0  0  0  0  0  0  0  0  0
  -23.0309  -26.0353   14.3846 N   0  0  0  0  0  0  0  0  0  0  0  0
  -25.3592  -27.9146   12.3560 N   0  3  0  0  0  0  0  0  0  0  0  0
  -23.4199  -12.3885   21.9949 O   0  0  0  0  0  0  0  0  0  0  0  0
  -22.1102  -25.5667   19.7130 O   0  0  0  0  0  0  0  0  0  0  0  0
  -29.8207  -23.9550   21.4547 O   0  0  0  0  0  0  0  0  0  0  0  0
  -21.0729  -26.8310   16.3189 O   0  0  0  0  0  0  0  0  0  0  0  0
  -25.3493  -26.0140   14.4306 O   0  0  0  0  0  0  0  0  0  0  0  0
  -24.7288  -21.9604   20.1958 O   0  0  0  0  0  0  0  0  0  0  0  0
  -30.5577  -11.2088   19.1231 O   0  0  0  0  0  0  0  0  0  0  0  0
  -28.5132  -27.0036   20.3772 O   0  0  0  0  0  0  0  0  0  1  0  0
  -35.4818  -13.5116   20.0472 F   0  0  0  0  0  0  0  0  0  0  0  0
  -32.3270  -10.0956   20.9323 F   0  0  0  0  0  0  0  0  0  0  0  0
  1  2  1  0  0  0  0
  1  5  2  0  0  0  0
  2  6  2  0  0  0  0
  3  8  2  0  0  0  0
  3 17  1  0  0  0  0
  4  9  1  0  0  0  0
  4 17  2  0  0  0  0
  5 19  1  0  0  0  0
  6 21  1  0  0  0  0
  7 10  2  0  0  0  0
  7 20  1  0  0  0  0
  8 24  1  0  0  0  0
  9 24  2  0  0  0  0
 10 25  1  0  0  0  0
 11 12  2  0  0  0  0
 11 26  1  0  0  0  0
 12 27  1  0  0  0  0
 13 22  1  0  0  0  0
 13 25  2  0  0  0  0
 14 23  1  0  0  0  0
 14 30  2  0  0  0  0
 15 27  2  0  0  0  0
 15 28  1  0  0  0  0
 16 23  2  0  0  0  0
 16 69  1  0  0  0  0
 17 29  1  0  0  0  0
 18 29  1  0  0  0  0
 18 31  2  0  0  0  0
 18 32  1  0  0  0  0
 19 21  2  0  0  0  0
 19 39  1  0  0  0  0
 20 22  2  0  0  0  0
 20 40  1  0  0  0  0
 21 50  1  0  0  0  0
 22 41  1  0  0  0  0
 23 75  1  0  0  0  0
 24 85  1  0  0  0  0
 25 86  1  0  0  0  0
 26 28  2  0  0  0  0
 26 85  1  0  0  0  0
 27 87  1  0  0  0  0
 28 88  1  0  0  0  0
 29 67  2  0  0  0  0
 30 33  1  0  0  0  0
 30 69  1  0  0  0  0
 31 70  1  0  0  0  0
 31 73  1  0  0  0  0
 32 74  1  0  0  0  0
 32 79  2  0  0  0  0
 33 51  1  0  0  0  0
 33 68  2  0  0  0  0
 34 52  1  0  0  0  0
 34 76  1  0  0  0  0
 34 80  2  0  0  0  0
 35 61  1  0  0  0  0
 35 65  1  0  0  0  0
 35 81  2  0  0  0  0
 36 63  1  0  0  0  0
 36 71  1  0  0  0  0
 36 82  2  0  0  0  0
 37 64  1  0  0  0  0
 37 77  1  0  0  0  0
 37 83  2  0  0  0  0
 38 72  1  0  0  0  0
 38 75  1  0  0  0  0
 38 84  2  0  0  0  0
 39 42  1  0  0  0  0
 40 52  1  0  0  0  0
 41 71  1  0  0  0  0
 42 44  1  0  0  0  0
 43 47  1  0  0  0  0
 43 48  1  0  0  0  0
 44 50  1  0  0  0  0
 45 46  1  0  0  0  0
 45 51  1  0  0  0  0
 46 51  1  0  0  0  0
 47 53  1  0  0  0  0
 48 72  1  0  0  0  0
 49 53  1  0  0  0  0
 49 72  1  0  0  0  0
 50 76  1  0  0  0  0
 52 71  1  0  0  0  0
 53 70  1  0  0  0  0
 54 64  1  0  0  0  0
 55 65  1  0  0  0  0
 56 65  1  0  0  0  0
 57 66  1  0  0  0  0
 58 66  1  0  0  0  0
 59 66  1  0  0  0  0
 60 78  1  0  0  0  0
 61 69  1  0  0  0  0
 62 65  1  0  0  0  0
 62 86  1  0  0  0  0
 63 66  1  0  0  0  0
 63 77  1  0  0  0  0
 64 78  1  0  0  0  0
 67 70  1  0  0  0  0
M  CHG  1  78   1
M  ISO  4  38 100  62 101  75 100  86 101
M  END
> <Batch ID>
0154

> <Smiles>
CNC(C)C(=O)NC(C(=O)N1Cc2cc([101O:1][101CH2:1]C(C)(C)C(=O)Cn3cc([100NH:0][100C:0](=O)N4CCCC(n5nc(-c6ccc(Oc7ccc(F)cc7F)cc6)c(C(N)=O)c5N)C4)cc3C(=N)C3CC3)ccc2CC1C(=O)NC1CCCc2ccccc21)C(C)(C)C

> <Shape>
0.201

> <Color>
0.071

> <Negative vol penalty>
0.000

$$$$

  -OEChem-04052303333D

 85 94  0     1  0  0  0  0  0999 V2000
  -26.8746  -36.4401   24.2980 C   0  0  0  0  0  0  0  0  0  0  0  0
  -27.4777  -35.3094   23.7565 C   0  0  0  0  0  0  0  0  0  0  0  0
  -23.4583  -10.0758   22.4168 C   0  0  0  0  0  0  0  0  0  0  0  0
  -23.4256   -9.9478   20.0044 C   0  0  0  0  0  0  0  0  0  0  0  0
  -25.6314  -36.3352   24.9205 C   0  0  0  0  0  0  0  0  0  0  0  0
  -26.8384  -34.0729   23.8380 C   0  0  0  0  0  0  0  0  0  0  0  0
  -26.9771  -29.5757   19.6833 C   0  0  0  0  0  0  0  0  0  0  0  0
  -22.6654   -8.9305   22.4884 C   0  0  0  0  0  0  0  0  0  0  0  0
  -22.6327   -8.8024   20.0760 C   0  0  0  0  0  0  0  0  0  0  0  0
  -27.7300  -28.4057   19.5922 C   0  0  0  0  0  0  0  0  0  0  0  0
  -23.0878   -5.5872   22.2113 C   0  0  0  0  0  0  0  0  0  0  0  0
  -23.4508   -4.6039   23.1317 C   0  0  0  0  0  0  0  0  0  0  0  0
  -25.9209  -27.1702   20.6022 C   0  0  0  0  0  0  0  0  0  0  0  0
  -27.6464  -19.8553   17.4544 C   0  0  0  0  0  0  0  0  0  0  0  0
  -21.3147   -4.8473   24.2341 C   0  0  0  0  0  0  0  0  0  0  0  0
  -28.7618  -17.8454   17.1102 C   0  0  0  0  0  0  0  0  0  0  0  0
  -23.8384  -10.5845   21.1748 C   0  0  0  0  0  0  0  0  0  0  0  0
  -26.0632  -11.8288   21.0777 C   0  0  0  0  0  0  0  0  0  0  0  0
  -24.9721  -35.0984   25.0011 C   0  0  0  0  0  0  0  0  0  0  0  0
  -25.6927  -29.5536   20.2455 C   0  0  0  0  0  0  0  0  0  0  0  0
  -25.5858  -33.9511   24.4633 C   0  0  0  0  0  0  0  0  0  0  0  0
  -25.1529  -28.3407   20.6969 C   0  0  0  0  0  0  0  0  0  0  0  0
  -27.6392  -18.4426   17.6400 C   0  0  0  0  0  0  0  0  0  0  0  0
  -22.2526   -8.2938   21.3180 C   0  0  0  0  0  0  0  0  0  0  0  0
  -27.2030  -27.2033   20.0543 C   0  0  0  0  0  0  0  0  0  0  0  0
  -21.8383   -6.2006   22.3024 C   0  0  0  0  0  0  0  0  0  0  0  0
  -22.5643   -4.2340   24.1430 C   0  0  0  0  0  0  0  0  0  0  0  0
  -20.9518   -5.8306   23.3137 C   0  0  0  0  0  0  0  0  0  0  0  0
  -24.6569  -11.7679   21.1002 C   0  0  0  0  0  0  0  0  0  0  0  0
  -28.7745  -20.2840   16.7899 C   0  0  0  0  0  0  0  0  0  0  0  0
  -26.3476  -13.1704   21.0018 C   0  0  0  0  0  0  0  0  0  0  0  0
  -29.0591  -24.5407   18.5122 C   0  0  0  0  0  0  0  0  0  0  0  0
  -28.8409  -23.9243   17.3388 C   0  0  0  0  0  0  0  0  0  0  0  0
  -27.0263  -10.7676   21.1214 C   0  0  0  0  0  0  0  0  0  0  0  0
  -29.0572  -21.6925   16.4605 C   0  0  0  0  0  0  0  0  0  0  0  0
  -24.3245  -30.9196   22.7685 C   0  0  0  0  0  0  0  0  0  0  0  0
  -21.6353  -29.5784   21.5473 C   0  0  0  0  0  0  0  0  0  0  0  0
  -20.2357  -27.1472   19.6037 C   0  0  0  0  0  0  0  0  0  0  0  0
  -25.4428  -18.2276   18.8549 C   0  0  0  0  0  0  0  0  0  0  0  0
  -23.6512  -35.0259   25.7253 C   0  0  0  0  0  0  0  0  0  0  0  0
  -24.8829  -30.8194   20.3121 C   0  0  0  0  0  0  0  0  0  0  0  0
  -23.7708  -28.2598   21.2902 C   0  0  0  0  0  0  0  0  0  0  0  0
  -29.5742  -23.5698   19.5391 C   0  0  0  0  0  0  0  0  0  0  0  0
  -22.8690  -33.7466   25.4390 C   0  0  0  0  0  0  0  0  0  0  0  0
  -23.3462  -17.2098   21.5466 C   0  0  0  0  0  0  0  0  0  0  0  0
  -23.7813  -32.5285   25.5431 C   0  0  0  0  0  0  0  0  0  0  0  0
  -23.6160  -15.7083   21.6686 C   0  0  0  0  0  0  0  0  0  0  0  0
  -29.6369  -22.2384   18.7868 C   0  0  0  0  0  0  0  0  0  0  0  0
  -23.3597  -17.6720   20.0907 C   0  0  0  0  0  0  0  0  0  0  0  0
  -24.8326  -15.8022   19.4555 C   0  0  0  0  0  0  0  0  0  0  0  0
  -24.9125  -32.5966   24.5100 C   0  0  1  0  0  0  0  0  0  0  0  0
  -23.7875  -30.7729   21.3729 C   0  0  1  0  0  0  0  0  0  0  0  0
  -24.8932  -15.3016   20.9078 C   0  0  2  0  0  0  0  0  0  0  0  0
  -28.3339  -24.5127   16.0677 C   0  0  0  0  0  0  0  0  0  0  0  0
  -18.0113  -26.2828   18.8278 C   0  0  0  0  0  0  0  0  0  0  0  0
  -21.1791  -28.3045   24.2820 C   0  0  0  0  0  0  0  0  0  0  0  0
  -19.5425  -26.7454   23.2054 C   0  0  0  0  0  0  0  0  0  0  0  0
  -19.1152  -29.2030   23.1924 C   0  0  0  0  0  0  0  0  0  0  0  0
  -20.8966  -27.6593   16.7647 C   0  0  0  0  0  0  0  0  0  0  0  0
  -28.8645  -25.9644   18.8878 C   0  0  0  0  0  0  0  0  0  1  0  0
  -20.9317  -28.2530   21.7126 C   0  0  1  0  0  0  0  0  0  0  0  0
  -19.1759  -27.2106   18.5188 C   0  0  2  0  0  0  0  0  0  0  0  0
  -20.2189  -28.1280   23.0887 C   0  0  0  0  0  0  0  0  0  0  0  0
  -24.0876  -12.9748   21.0434 N   0  0  0  0  0  0  0  0  0  0  0  0
  -25.1414  -13.8068   20.9845 N   0  0  0  0  0  0  0  0  0  0  0  0
  -29.1587  -22.5788   17.4345 N   0  0  0  0  0  0  0  0  0  0  0  0
  -23.0208  -29.5258   21.3393 N   0  0  0  0  0  0  0  0  0  0  0  0
  -24.6011  -17.2550   19.4350 N   0  0  0  0  0  0  0  0  0  0  0  0
  -27.5093  -13.8560   20.9490 N   0  0  0  0  0  0  0  0  0  0  0  0
  -26.5625   -9.4472   21.1985 N   0  0  0  0  0  0  0  0  0  0  0  0
  -26.6105  -17.7162   18.2895 N   0  0  0  0  0  0  0  0  0  0  0  0
  -24.4223  -32.2291   23.1989 N   0  0  0  0  0  0  0  0  0  0  0  0
  -20.0420  -28.1172   20.5644 N   0  0  0  0  0  0  0  0  0  0  0  0
  -29.2075  -22.0485   15.1881 N   0  3  0  0  0  0  0  0  0  0  0  0
  -19.7560  -26.8150   17.2042 N   0  3  0  0  0  0  0  0  0  0  0  0
  -28.2617  -10.9846   21.1095 O   0  0  0  0  0  0  0  0  0  0  0  0
  -24.6263  -29.9189   23.4081 O   0  0  0  0  0  0  0  0  0  0  0  0
  -20.9786  -30.6216   21.5936 O   0  0  0  0  0  0  0  0  0  0  0  0
  -21.1425  -26.3175   19.6014 O   0  0  0  0  0  0  0  0  0  0  0  0
  -25.1625  -19.4287   18.8834 O   0  0  0  0  0  0  0  0  0  0  0  0
  -21.4791   -7.1760   21.3874 O   0  0  0  0  0  0  0  0  0  0  0  0
  -27.9360  -26.0600   19.9672 O   0  0  0  0  0  0  0  0  0  1  0  0
  -22.9124   -3.2886   25.0259 F   0  0  0  0  0  0  0  0  0  0  0  0
  -19.7496   -6.4154   23.4055 F   0  0  0  0  0  0  0  0  0  0  0  0
  -29.8183  -18.9860   16.3926 S   0  0  0  0  0  0  0  0  0  0  0  0
  1  2  1  0  0  0  0
  1  5  2  0  0  0  0
  2  6  2  0  0  0  0
  3  8  2  0  0  0  0
  3 17  1  0  0  0  0
  4  9  1  0  0  0  0
  4 17  2  0  0  0  0
  5 19  1  0  0  0  0
  6 21  1  0  0  0  0
  7 10  2  0  0  0  0
  7 20  1  0  0  0  0
  8 24  1  0  0  0  0
  9 24  2  0  0  0  0
 10 25  1  0  0  0  0
 11 12  2  0  0  0  0
 11 26  1  0  0  0  0
 12 27  1  0  0  0  0
 13 22  1  0  0  0  0
 13 25  2  0  0  0  0
 14 23  1  0  0  0  0
 14 30  2  0  0  0  0
 15 27  2  0  0  0  0
 15 28  1  0  0  0  0
 16 23  2  0  0  0  0
 16 85  1  0  0  0  0
 17 29  1  0  0  0  0
 18 29  1  0  0  0  0
 18 31  2  0  0  0  0
 18 34  1  0  0  0  0
 19 21  2  0  0  0  0
 19 40  1  0  0  0  0
 20 22  2  0  0  0  0
 20 41  1  0  0  0  0
 21 51  1  0  0  0  0
 22 42  1  0  0  0  0
 23 71  1  0  0  0  0
 24 81  1  0  0  0  0
 25 82  1  0  0  0  0
 26 28  2  0  0  0  0
 26 81  1  0  0  0  0
 27 83  1  0  0  0  0
 28 84  1  0  0  0  0
 29 64  2  0  0  0  0
 30 35  1  0  0  0  0
 30 85  1  0  0  0  0
 31 65  1  0  0  0  0
 31 69  1  0  0  0  0
 32 33  2  0  0  0  0
 32 43  1  0  0  0  0
 32 60  1  0  0  0  0
 33 54  1  0  0  0  0
 33 66  1  0  0  0  0
 34 70  1  0  0  0  0
 34 76  2  0  0  0  0
 35 66  1  0  0  0  0
 35 74  2  0  0  0  0
 36 52  1  0  0  0  0
 36 72  1  0  0  0  0
 36 77  2  0  0  0  0
 37 61  1  0  0  0  0
 37 67  1  0  0  0  0
 37 78  2  0  0  0  0
 38 62  1  0  0  0  0
 38 73  1  0  0  0  0
 38 79  2  0  0  0  0
 39 68  1  0  0  0  0
 39 71  1  0  0  0  0
 39 80  2  0  0  0  0
 40 44  1  0  0  0  0
 41 52  1  0  0  0  0
 42 67  1  0  0  0  0
 43 48  1  0  0  0  0
 44 46  1  0  0  0  0
 45 47  1  0  0  0  0
 45 49  1  0  0  0  0
 46 51  1  0  0  0  0
 47 53  1  0  0  0  0
 48 66  1  0  0  0  0
 49 68  1  0  0  0  0
 50 53  1  0  0  0  0
 50 68  1  0  0  0  0
 51 72  1  0  0  0  0
 52 67  1  0  0  0  0
 53 65  1  0  0  0  0
 55 62  1  0  0  0  0
 56 63  1  0  0  0  0
 57 63  1  0  0  0  0
 58 63  1  0  0  0  0
 59 75  1  0  0  0  0
 60 82  1  0  0  0  0
 61 63  1  0  0  0  0
 61 73  1  0  0  0  0
 62 75  1  0  0  0  0
 64 65  1  0  0  0  0
M  CHG  2  74   1  75   1
M  ISO  4  39 100  60 101  71 100  82 101
M  END
> <Batch ID>
0154

> <Smiles>
CNC(C)C(=O)NC(C(=O)N1Cc2cc([101O:1][101CH2:1]C3=C(C)N(C(=N)c4cc([100NH:0][100C:0](=O)N5CCCC(n6nc(-c7ccc(Oc8ccc(F)cc8F)cc7)c(C(N)=O)c6N)C5)cs4)CC3)ccc2CC1C(=O)NC1CCCc2ccccc21)C(C)(C)C

> <Shape>
0.319

> <Color>
0.104

> <Negative vol penalty>
0.000

$$$$

  -OEChem-04052303333D

 85 94  0     1  0  0  0  0  0999 V2000
  -18.3887  -26.9742   23.4234 C   0  0  0  0  0  0  0  0  0  0  0  0
  -19.0175  -26.4594   22.2943 C   0  0  0  0  0  0  0  0  0  0  0  0
  -24.7046   -8.8838   21.7991 C   0  0  0  0  0  0  0  0  0  0  0  0
  -23.0913  -10.1460   20.5180 C   0  0  0  0  0  0  0  0  0  0  0  0
  -18.6649  -28.2752   23.8416 C   0  0  0  0  0  0  0  0  0  0  0  0
  -19.9222  -27.2459   21.5820 C   0  0  0  0  0  0  0  0  0  0  0  0
  -24.1302  -24.7199   20.3341 C   0  0  0  0  0  0  0  0  0  0  0  0
  -23.6679   -8.2859   22.5156 C   0  0  0  0  0  0  0  0  0  0  0  0
  -22.0546   -9.5481   21.2345 C   0  0  0  0  0  0  0  0  0  0  0  0
  -24.0501  -23.8446   19.2519 C   0  0  0  0  0  0  0  0  0  0  0  0
  -21.4251   -5.7996   22.0454 C   0  0  0  0  0  0  0  0  0  0  0  0
  -21.4895   -4.4215   22.2506 C   0  0  0  0  0  0  0  0  0  0  0  0
  -25.0735  -25.5094   17.8375 C   0  0  0  0  0  0  0  0  0  0  0  0
  -27.5810  -19.4559   18.2181 C   0  0  0  0  0  0  0  0  0  0  0  0
  -29.3161  -21.1835   18.2512 C   0  0  0  0  0  0  0  0  0  0  0  0
  -21.4950   -4.7775   24.6402 C   0  0  0  0  0  0  0  0  0  0  0  0
  -24.4163   -9.8138   20.8003 C   0  0  0  0  0  0  0  0  0  0  0  0
  -26.0727   -9.9699   18.8665 C   0  0  0  0  0  0  0  0  0  0  0  0
  -19.5807  -29.0747   23.1397 C   0  0  0  0  0  0  0  0  0  0  0  0
  -24.6735  -26.0026   20.1735 C   0  0  0  0  0  0  0  0  0  0  0  0
  -20.2100  -28.5594   21.9904 C   0  0  0  0  0  0  0  0  0  0  0  0
  -25.1617  -26.3981   18.9199 C   0  0  0  0  0  0  0  0  0  0  0  0
  -29.5589  -19.2832   19.6268 C   0  0  0  0  0  0  0  0  0  0  0  0
  -28.3593  -18.8219   19.1445 C   0  0  0  0  0  0  0  0  0  0  0  0
  -28.0846  -20.6773   17.7669 C   0  0  0  0  0  0  0  0  0  0  0  0
  -30.0718  -20.4769   19.1977 C   0  0  0  0  0  0  0  0  0  0  0  0
  -22.3429   -8.6181   22.2334 C   0  0  0  0  0  0  0  0  0  0  0  0
  -24.5191  -24.2404   18.0027 C   0  0  0  0  0  0  0  0  0  0  0  0
  -21.3957   -6.6668   23.1376 C   0  0  0  0  0  0  0  0  0  0  0  0
  -21.5244   -3.9104   23.5480 C   0  0  0  0  0  0  0  0  0  0  0  0
  -21.4306   -6.1557   24.4350 C   0  0  0  0  0  0  0  0  0  0  0  0
  -25.4868  -10.4322   20.0601 C   0  0  0  0  0  0  0  0  0  0  0  0
  -27.0357  -10.9041   18.5725 C   0  0  0  0  0  0  0  0  0  0  0  0
  -25.7732   -8.8007   18.0926 C   0  0  0  0  0  0  0  0  0  0  0  0
  -23.5671  -28.9644   20.5009 C   0  0  0  0  0  0  0  0  0  0  0  0
  -26.6605  -29.7651   19.9424 C   0  0  0  0  0  0  0  0  0  0  0  0
  -26.1341  -21.0950   16.2300 C   0  0  0  0  0  0  0  0  0  0  0  0
  -29.6760  -28.9103   18.5922 C   0  0  0  0  0  0  0  0  0  0  0  0
  -27.5654  -16.5875   19.8481 C   0  0  0  0  0  0  0  0  0  0  0  0
  -19.8114  -30.4915   23.6026 C   0  0  0  0  0  0  0  0  0  0  0  0
  -24.7772  -26.9251   21.3570 C   0  0  0  0  0  0  0  0  0  0  0  0
  -25.7724  -27.7571   18.6995 C   0  0  0  0  0  0  0  0  0  0  0  0
  -29.7003  -18.0671   20.4946 C   0  0  0  0  0  0  0  0  0  0  0  0
  -21.0646  -31.1297   23.0091 C   0  0  0  0  0  0  0  0  0  0  0  0
  -29.9558  -14.0570   20.6939 C   0  0  0  0  0  0  0  0  0  0  0  0
  -21.1334  -30.8743   21.5068 C   0  0  0  0  0  0  0  0  0  0  0  0
  -29.1336  -12.7838   20.4783 C   0  0  0  0  0  0  0  0  0  0  0  0
  -29.1065  -15.1512   21.3320 C   0  0  0  0  0  0  0  0  0  0  0  0
  -27.0477  -14.2328   20.3834 C   0  0  0  0  0  0  0  0  0  0  0  0
  -21.2161  -29.3730   21.2057 C   0  0  1  0  0  0  0  0  0  0  0  0
  -24.8790  -28.3950   20.9617 C   0  0  1  0  0  0  0  0  0  0  0  0
  -27.8242  -13.0782   19.7205 C   0  0  2  0  0  0  0  0  0  0  0  0
  -32.0046  -29.7848   18.2602 C   0  0  0  0  0  0  0  0  0  0  0  0
  -25.6551  -31.5888   17.7124 C   0  0  0  0  0  0  0  0  0  0  0  0
  -27.9953  -31.6806   16.8273 C   0  0  0  0  0  0  0  0  0  0  0  0
  -27.4903  -32.5599   19.1065 C   0  0  0  0  0  0  0  0  0  0  0  0
  -30.8566  -26.6912   20.1544 C   0  0  0  0  0  0  0  0  0  0  0  0
  -25.4439  -23.5117   15.9363 C   0  0  0  0  0  0  0  0  0  1  0  0
  -27.4823  -30.0627   18.7115 C   0  0  1  0  0  0  0  0  0  0  0  0
  -25.6828  -22.1711   15.2496 C   0  0  2  0  0  0  0  0  0  0  0  0
  -31.0846  -28.9689   19.1551 C   0  0  2  0  0  0  0  0  0  0  0  0
  -27.1426  -31.4480   18.0928 C   0  0  0  0  0  0  0  0  0  0  0  0
  -26.0321  -11.5713   20.4948 N   0  0  0  0  0  0  0  0  0  0  0  0
  -26.9709  -11.8327   19.5693 N   0  0  0  0  0  0  0  0  0  0  0  0
  -28.4135  -17.6642   19.8951 N   0  0  0  0  0  0  0  0  0  0  0  0
  -25.8457  -28.6254   19.8862 N   0  0  0  0  0  0  0  0  0  0  0  0
  -27.9178  -15.4098   20.5154 N   0  0  0  0  0  0  0  0  0  0  0  0
  -31.2902  -20.9706   19.6800 N   0  0  0  0  0  0  0  0  0  0  0  0
  -27.9233  -11.0134   17.5612 N   0  0  0  0  0  0  0  0  0  0  0  0
  -24.7538   -7.9480   18.5376 N   0  0  0  0  0  0  0  0  0  0  0  0
  -27.3633  -21.4151   16.8264 N   0  0  0  0  0  0  0  0  0  0  0  0
  -22.5575  -28.8834   21.4409 N   0  0  0  0  0  0  0  0  0  0  0  0
  -28.8785  -29.9108   19.1064 N   0  0  0  0  0  0  0  0  0  0  0  0
  -24.4284  -21.7532   14.5592 N   0  3  0  0  0  0  0  0  0  0  0  0
  -31.6492  -27.5956   19.2821 N   0  3  0  0  0  0  0  0  0  0  0  0
  -26.4023   -8.5118   17.0465 O   0  0  0  0  0  0  0  0  0  0  0  0
  -23.4778  -29.4432   19.3764 O   0  0  0  0  0  0  0  0  0  0  0  0
  -26.7440  -30.5121   20.9205 O   0  0  0  0  0  0  0  0  0  0  0  0
  -25.4604  -20.0894   16.4346 O   0  0  0  0  0  0  0  0  0  0  0  0
  -29.3198  -28.0641   17.7751 O   0  0  0  0  0  0  0  0  0  0  0  0
  -26.5164  -16.6538   19.1901 O   0  0  0  0  0  0  0  0  0  0  0  0
  -21.3310   -8.0347   22.9322 O   0  0  0  0  0  0  0  0  0  0  0  0
  -24.4410  -23.3826   16.9374 O   0  0  0  0  0  0  0  0  0  1  0  0
  -21.5847   -2.5869   23.7449 F   0  0  0  0  0  0  0  0  0  0  0  0
  -21.4014   -6.9838   25.4882 F   0  0  0  0  0  0  0  0  0  0  0  0
  1  2  1  0  0  0  0
  1  5  2  0  0  0  0
  2  6  2  0  0  0  0
  3  8  2  0  0  0  0
  3 17  1  0  0  0  0
  4  9  1  0  0  0  0
  4 17  2  0  0  0  0
  5 19  1  0  0  0  0
  6 21  1  0  0  0  0
  7 10  2  0  0  0  0
  7 20  1  0  0  0  0
  8 27  1  0  0  0  0
  9 27  2  0  0  0  0
 10 28  1  0  0  0  0
 11 12  2  0  0  0  0
 11 29  1  0  0  0  0
 12 30  1  0  0  0  0
 13 22  1  0  0  0  0
 13 28  2  0  0  0  0
 14 24  1  0  0  0  0
 14 25  2  0  0  0  0
 15 25  1  0  0  0  0
 15 26  2  0  0  0  0
 16 30  2  0  0  0  0
 16 31  1  0  0  0  0
 17 32  1  0  0  0  0
 18 32  1  0  0  0  0
 18 33  2  0  0  0  0
 18 34  1  0  0  0  0
 19 21  2  0  0  0  0
 19 40  1  0  0  0  0
 20 22  2  0  0  0  0
 20 41  1  0  0  0  0
 21 50  1  0  0  0  0
 22 42  1  0  0  0  0
 23 24  2  0  0  0  0
 23 26  1  0  0  0  0
 23 43  1  0  0  0  0
 24 65  1  0  0  0  0
 25 71  1  0  0  0  0
 26 68  1  0  0  0  0
 27 82  1  0  0  0  0
 28 83  1  0  0  0  0
 29 31  2  0  0  0  0
 29 82  1  0  0  0  0
 30 84  1  0  0  0  0
 31 85  1  0  0  0  0
 32 63  2  0  0  0  0
 33 64  1  0  0  0  0
 33 69  1  0  0  0  0
 34 70  1  0  0  0  0
 34 76  2  0  0  0  0
 35 51  1  0  0  0  0
 35 72  1  0  0  0  0
 35 77  2  0  0  0  0
 36 59  1  0  0  0  0
 36 66  1  0  0  0  0
 36 78  2  0  0  0  0
 37 60  1  0  0  0  0
 37 71  1  0  0  0  0
 37 79  2  0  0  0  0
 38 61  1  0  0  0  0
 38 73  1  0  0  0  0
 38 80  2  0  0  0  0
 39 65  1  0  0  0  0
 39 67  1  0  0  0  0
 39 81  2  0  0  0  0
 40 44  1  0  0  0  0
 41 51  1  0  0  0  0
 42 66  1  0  0  0  0
 43 65  1  0  0  0  0
 44 46  1  0  0  0  0
 45 47  1  0  0  0  0
 45 48  1  0  0  0  0
 46 50  1  0  0  0  0
 47 52  1  0  0  0  0
 48 67  1  0  0  0  0
 49 52  1  0  0  0  0
 49 67  1  0  0  0  0
 50 72  1  0  0  0  0
 51 66  1  0  0  0  0
 52 64  1  0  0  0  0
 53 61  1  0  0  0  0
 54 62  1  0  0  0  0
 55 62  1  0  0  0  0
 56 62  1  0  0  0  0
 57 75  1  0  0  0  0
 58 60  1  0  0  0  0
 58 83  1  0  0  0  0
 59 62  1  0  0  0  0
 59 73  1  0  0  0  0
 60 74  1  0  0  0  0
 61 75  1  0  0  0  0
 63 64  1  0  0  0  0
M  CHG  2  74   1  75   1
M  ISO  4  39 100  58 101  65 100  83 101
M  END
> <Batch ID>
0154

> <Smiles>
CNC(C)C(=O)NC(C(=O)N1Cc2cc([101O:1][101CH2:1]C(N)C(=O)Nc3cc(N)c4c(c3)[100N:0]([100C:0](=O)N3CCCC(n5nc(-c6ccc(Oc7ccc(F)cc7F)cc6)c(C(N)=O)c5N)C3)C4)ccc2CC1C(=O)NC1CCCc2ccccc21)C(C)(C)C

> <Shape>
0.280

> <Color>
0.073

> <Negative vol penalty>
0.000

$$$$

  -OEChem-04052303333D

 86 94  0     1  0  0  0  0  0999 V2000
  -23.8024  -38.2118   19.2743 C   0  0  0  0  0  0  0  0  0  0  0  0
  -24.1062  -37.0983   18.4976 C   0  0  0  0  0  0  0  0  0  0  0  0
  -22.5170  -10.0791   22.8906 C   0  0  0  0  0  0  0  0  0  0  0  0
  -24.1018   -9.8048   21.0877 C   0  0  0  0  0  0  0  0  0  0  0  0
  -24.2241  -38.2702   20.6020 C   0  0  0  0  0  0  0  0  0  0  0  0
  -24.8328  -36.0430   19.0479 C   0  0  0  0  0  0  0  0  0  0  0  0
  -25.4786  -28.9182   18.6785 C   0  0  0  0  0  0  0  0  0  0  0  0
  -21.9821   -8.8214   22.6118 C   0  0  0  0  0  0  0  0  0  0  0  0
  -23.5669   -8.5471   20.8089 C   0  0  0  0  0  0  0  0  0  0  0  0
  -26.4477  -27.9325   18.4964 C   0  0  0  0  0  0  0  0  0  0  0  0
  -22.7784   -5.5889   23.2032 C   0  0  0  0  0  0  0  0  0  0  0  0
  -22.5268   -4.7384   24.2796 C   0  0  0  0  0  0  0  0  0  0  0  0
  -30.0201  -19.7454   20.9468 C   0  0  0  0  0  0  0  0  0  0  0  0
  -27.0556  -28.1085   20.8242 C   0  0  0  0  0  0  0  0  0  0  0  0
  -20.1859   -4.6782   23.6848 C   0  0  0  0  0  0  0  0  0  0  0  0
  -23.5769  -10.5708   22.1286 C   0  0  0  0  0  0  0  0  0  0  0  0
  -29.3436  -18.5111   21.0953 C   0  0  0  0  0  0  0  0  0  0  0  0
  -25.1851  -12.1688   23.2979 C   0  0  0  0  0  0  0  0  0  0  0  0
  -24.9479  -37.2109   21.1716 C   0  0  0  0  0  0  0  0  0  0  0  0
  -25.2979  -29.5151   19.9345 C   0  0  0  0  0  0  0  0  0  0  0  0
  -25.2657  -36.0879   20.3840 C   0  0  0  0  0  0  0  0  0  0  0  0
  -26.0818  -29.0997   21.0203 C   0  0  0  0  0  0  0  0  0  0  0  0
  -22.5070   -8.0554   21.5710 C   0  0  0  0  0  0  0  0  0  0  0  0
  -27.2383  -27.5296   19.5686 C   0  0  0  0  0  0  0  0  0  0  0  0
  -21.7338   -5.9842   22.3675 C   0  0  0  0  0  0  0  0  0  0  0  0
  -21.2305   -4.2829   24.5204 C   0  0  0  0  0  0  0  0  0  0  0  0
  -20.4376   -5.5288   22.6083 C   0  0  0  0  0  0  0  0  0  0  0  0
  -24.1295  -11.8701   22.4157 C   0  0  0  0  0  0  0  0  0  0  0  0
  -25.3271  -13.5324   23.2141 C   0  0  0  0  0  0  0  0  0  0  0  0
  -29.0853  -20.6396   20.4795 C   0  0  0  0  0  0  0  0  0  0  0  0
  -28.0435  -18.7391   20.7084 C   0  0  0  0  0  0  0  0  0  0  0  0
  -27.8232  -25.2651   19.5890 C   0  0  0  0  0  0  0  0  0  1  0  0
  -29.8729  -17.2597   21.5530 C   0  0  0  0  0  0  0  0  0  0  0  0
  -25.9674  -11.2921   24.1195 C   0  0  0  0  0  0  0  0  0  0  0  0
  -28.6721  -24.2403   19.4445 C   0  0  0  0  0  0  0  0  0  0  0  0
  -28.1756  -22.8454   19.6812 C   0  0  0  0  0  0  0  0  0  0  0  0
  -25.5684  -32.4704   21.0733 C   0  0  0  0  0  0  0  0  0  0  0  0
  -24.3529  -31.1272   23.7641 C   0  0  0  0  0  0  0  0  0  0  0  0
  -23.8745  -28.3143   25.6365 C   0  0  0  0  0  0  0  0  0  0  0  0
  -25.6241  -18.2245   20.2310 C   0  0  0  0  0  0  0  0  0  0  0  0
  -25.4230  -37.3401   22.5972 C   0  0  0  0  0  0  0  0  0  0  0  0
  -24.2300  -30.5580   20.1207 C   0  0  0  0  0  0  0  0  0  0  0  0
  -25.9135  -29.6948   22.3936 C   0  0  0  0  0  0  0  0  0  0  0  0
  -25.8655  -36.0158   23.2142 C   0  0  0  0  0  0  0  0  0  0  0  0
  -22.3726  -17.0249   21.0474 C   0  0  0  0  0  0  0  0  0  0  0  0
  -26.7706  -35.2542   22.2511 C   0  0  0  0  0  0  0  0  0  0  0  0
  -22.6267  -15.6015   21.5487 C   0  0  0  0  0  0  0  0  0  0  0  0
  -23.3055  -17.3956   19.8958 C   0  0  0  0  0  0  0  0  0  0  0  0
  -24.9890  -15.7705   20.6666 C   0  0  0  0  0  0  0  0  0  0  0  0
  -26.0306  -34.9123   20.9523 C   0  0  1  0  0  0  0  0  0  0  0  0
  -24.4819  -31.4630   21.3228 C   0  0  1  0  0  0  0  0  0  0  0  0
  -24.1171  -15.3745   21.8694 C   0  0  2  0  0  0  0  0  0  0  0  0
  -31.7925  -15.7961   22.4408 C   0  0  0  0  0  0  0  0  0  0  0  0
  -22.8804  -27.5373   27.8056 C   0  0  0  0  0  0  0  0  0  0  0  0
  -26.7404  -32.2853   25.2704 C   0  0  0  0  0  0  0  0  0  0  0  0
  -26.2190  -30.7239   27.1567 C   0  0  0  0  0  0  0  0  0  0  0  0
  -24.5590  -32.4591   26.4811 C   0  0  0  0  0  0  0  0  0  0  0  0
  -21.9612  -26.5293   24.2538 C   0  0  0  0  0  0  0  0  0  0  0  0
  -31.3629  -17.1707   21.9526 C   0  0  0  0  0  0  0  0  0  0  0  0
  -24.9392  -30.4578   24.9836 C   0  0  1  0  0  0  0  0  0  0  0  0
  -22.6389  -27.7576   26.3204 C   0  0  2  0  0  0  0  0  0  0  0  0
  -25.6191  -31.4715   25.9468 C   0  0  0  0  0  0  0  0  0  0  0  0
  -23.6358  -12.9565   21.8158 N   0  0  0  0  0  0  0  0  0  0  0  0
  -24.3844  -13.9512   22.3219 N   0  0  0  0  0  0  0  0  0  0  0  0
  -24.8604  -30.7154   22.5237 N   0  0  0  0  0  0  0  0  0  0  0  0
  -24.7005  -17.1586   20.2735 N   0  0  0  0  0  0  0  0  0  0  0  0
  -26.1651  -14.4020   23.8175 N   0  0  0  0  0  0  0  0  0  0  0  0
  -25.6893   -9.9189   24.0850 N   0  0  0  0  0  0  0  0  0  0  0  0
  -29.1830  -22.0127   20.1486 N   0  0  0  0  0  0  0  0  0  0  0  0
  -26.9129  -17.8875   20.6433 N   0  0  0  0  0  0  0  0  0  0  0  0
  -25.1474  -33.7840   21.1558 N   0  0  0  0  0  0  0  0  0  0  0  0
  -23.8554  -29.6923   25.5898 N   0  0  0  0  0  0  0  0  0  0  0  0
  -22.2510  -26.4551   25.7090 N   0  3  0  0  0  0  0  0  0  0  0  0
  -29.1931  -16.2105   21.6519 O   0  0  0  0  0  0  0  0  0  0  0  0
  -26.8750  -11.7159   24.8747 O   0  0  0  0  0  0  0  0  0  0  0  0
  -27.0056  -22.5481   19.4656 O   0  0  0  0  0  0  0  0  0  0  0  0
  -26.7049  -32.0846   20.8257 O   0  0  0  0  0  0  0  0  0  0  0  0
  -23.4719  -31.9788   23.9065 O   0  0  0  0  0  0  0  0  0  0  0  0
  -24.7692  -27.5986   25.1917 O   0  0  0  0  0  0  0  0  0  0  0  0
  -25.2894  -19.3596   19.8825 O   0  0  0  0  0  0  0  0  0  0  0  0
  -27.8777  -20.0342   20.3316 O   0  0  0  0  0  0  0  0  0  0  0  0
  -29.9925  -24.4157   19.0833 O   0  0  0  0  0  0  0  0  0  0  0  0
  -21.9854   -6.8281   21.2988 O   0  0  0  0  0  0  0  0  0  0  0  0
  -28.1854  -26.5682   19.3935 O   0  0  0  0  0  0  0  0  0  1  0  0
  -20.9892   -3.4649   25.5533 F   0  0  0  0  0  0  0  0  0  0  0  0
  -19.4302   -5.9041   21.8083 F   0  0  0  0  0  0  0  0  0  0  0  0
  1  2  1  0  0  0  0
  1  5  2  0  0  0  0
  2  6  2  0  0  0  0
  3  8  2  0  0  0  0
  3 16  1  0  0  0  0
  4  9  1  0  0  0  0
  4 16  2  0  0  0  0
  5 19  1  0  0  0  0
  6 21  1  0  0  0  0
  7 10  2  0  0  0  0
  7 20  1  0  0  0  0
  8 23  1  0  0  0  0
  9 23  2  0  0  0  0
 10 24  1  0  0  0  0
 11 12  2  0  0  0  0
 11 25  1  0  0  0  0
 12 26  1  0  0  0  0
 13 17  1  0  0  0  0
 13 30  2  0  0  0  0
 14 22  1  0  0  0  0
 14 24  2  0  0  0  0
 15 26  2  0  0  0  0
 15 27  1  0  0  0  0
 16 28  1  0  0  0  0
 17 31  2  0  0  0  0
 17 33  1  0  0  0  0
 18 28  1  0  0  0  0
 18 29  2  0  0  0  0
 18 34  1  0  0  0  0
 19 21  2  0  0  0  0
 19 41  1  0  0  0  0
 20 22  2  0  0  0  0
 20 42  1  0  0  0  0
 21 50  1  0  0  0  0
 22 43  1  0  0  0  0
 23 83  1  0  0  0  0
 24 84  1  0  0  0  0
 25 27  2  0  0  0  0
 25 83  1  0  0  0  0
 26 85  1  0  0  0  0
 27 86  1  0  0  0  0
 28 63  2  0  0  0  0
 29 64  1  0  0  0  0
 29 67  1  0  0  0  0
 30 69  1  0  0  0  0
 30 81  1  0  0  0  0
 31 70  1  0  0  0  0
 31 81  1  0  0  0  0
 32 35  2  0  0  0  0
 32 84  1  0  0  0  0
 33 59  1  0  0  0  0
 33 74  2  0  0  0  0
 34 68  1  0  0  0  0
 34 75  2  0  0  0  0
 35 36  1  0  0  0  0
 35 82  1  0  0  0  0
 36 69  1  0  0  0  0
 36 76  2  0  0  0  0
 37 51  1  0  0  0  0
 37 71  1  0  0  0  0
 37 77  2  0  0  0  0
 38 60  1  0  0  0  0
 38 65  1  0  0  0  0
 38 78  2  0  0  0  0
 39 61  1  0  0  0  0
 39 72  1  0  0  0  0
 39 79  2  0  0  0  0
 40 66  1  0  0  0  0
 40 70  1  0  0  0  0
 40 80  2  0  0  0  0
 41 44  1  0  0  0  0
 42 51  1  0  0  0  0
 43 65  1  0  0  0  0
 44 46  1  0  0  0  0
 45 47  1  0  0  0  0
 45 48  1  0  0  0  0
 46 50  1  0  0  0  0
 47 52  1  0  0  0  0
 48 66  1  0  0  0  0
 49 52  1  0  0  0  0
 49 66  1  0  0  0  0
 50 71  1  0  0  0  0
 51 65  1  0  0  0  0
 52 64  1  0  0  0  0
 53 59  1  0  0  0  0
 54 61  1  0  0  0  0
 55 62  1  0  0  0  0
 56 62  1  0  0  0  0
 57 62  1  0  0  0  0
 58 73  1  0  0  0  0
 60 62  1  0  0  0  0
 60 72  1  0  0  0  0
 61 73  1  0  0  0  0
 63 64  1  0  0  0  0
M  CHG  1  73   1
M  ISO  4  32 101  40 100  70 100  84 101
M  END
> <Batch ID>
0154

> <Smiles>
CCC(=O)c1cc(NC(=O)C(=O)[101CH2:1][101O:1]c2ccc3c(c2)CN(C(=O)C(NC(=O)C(C)NC)C(C)(C)C)C(C(=O)NC2CCCc4ccccc42)C3)oc1[100NH:0][100C:0](=O)N1CCCC(n2nc(-c3ccc(Oc4ccc(F)cc4F)cc3)c(C(N)=O)c2N)C1

> <Shape>
0.277

> <Color>
0.110

> <Negative vol penalty>
0.000

$$$$

  -OEChem-04052303333D

 81 90  0     1  0  0  0  0  0999 V2000
  -16.0248  -21.7813   26.3910 C   0  0  0  0  0  0  0  0  0  0  0  0
  -17.1445  -21.0671   25.9768 C   0  0  0  0  0  0  0  0  0  0  0  0
  -23.0690   -9.9019   19.9720 C   0  0  0  0  0  0  0  0  0  0  0  0
  -23.9756   -9.8818   22.2114 C   0  0  0  0  0  0  0  0  0  0  0  0
  -15.4042  -22.6717   25.5157 C   0  0  0  0  0  0  0  0  0  0  0  0
  -17.6437  -21.2421   24.6866 C   0  0  0  0  0  0  0  0  0  0  0  0
  -23.5154  -21.0645   22.9555 C   0  0  0  0  0  0  0  0  0  0  0  0
  -22.3625   -8.7312   20.2475 C   0  0  0  0  0  0  0  0  0  0  0  0
  -23.2690   -8.7111   22.4869 C   0  0  0  0  0  0  0  0  0  0  0  0
  -24.2931  -20.0618   22.3779 C   0  0  0  0  0  0  0  0  0  0  0  0
  -20.1006   -7.8445   23.2810 C   0  0  0  0  0  0  0  0  0  0  0  0
  -19.4219   -7.7701   24.4973 C   0  0  0  0  0  0  0  0  0  0  0  0
  -23.8668  -20.9967   20.1954 C   0  0  0  0  0  0  0  0  0  0  0  0
  -20.7409   -5.8426   25.1154 C   0  0  0  0  0  0  0  0  0  0  0  0
  -23.8757  -10.4772   20.9539 C   0  0  0  0  0  0  0  0  0  0  0  0
  -24.1663  -13.0098   20.8599 C   0  0  0  0  0  0  0  0  0  0  0  0
  -15.9018  -22.8648   24.2174 C   0  0  0  0  0  0  0  0  0  0  0  0
  -22.8976  -22.0360   22.1550 C   0  0  0  0  0  0  0  0  0  0  0  0
  -17.0284  -22.1349   23.7927 C   0  0  0  0  0  0  0  0  0  0  0  0
  -23.0839  -22.0121   20.7654 C   0  0  0  0  0  0  0  0  0  0  0  0
  -22.4625   -8.1358   21.5050 C   0  0  0  0  0  0  0  0  0  0  0  0
  -24.4666  -20.0261   20.9974 C   0  0  0  0  0  0  0  0  0  0  0  0
  -21.0995   -6.9179   22.9819 C   0  0  0  0  0  0  0  0  0  0  0  0
  -19.7420   -6.7692   25.4145 C   0  0  0  0  0  0  0  0  0  0  0  0
  -21.4196   -5.9170   23.8991 C   0  0  0  0  0  0  0  0  0  0  0  0
  -24.6062  -11.6861   20.6697 C   0  0  0  0  0  0  0  0  0  0  0  0
  -25.2198  -13.7853   20.4413 C   0  0  0  0  0  0  0  0  0  0  0  0
  -30.2244  -18.2837   21.1764 C   0  0  0  0  0  0  0  0  0  0  0  0
  -29.0576  -17.9776   20.5971 C   0  0  0  0  0  0  0  0  0  0  0  0
  -22.9171  -13.4950   21.3695 C   0  0  0  0  0  0  0  0  0  0  0  0
  -19.8894  -22.8854   21.5781 C   0  0  0  0  0  0  0  0  0  0  0  0
  -21.2970  -25.2830   19.9070 C   0  0  0  0  0  0  0  0  0  0  0  0
  -24.0384  -26.4180   18.2208 C   0  0  0  0  0  0  0  0  0  0  0  0
  -30.7538  -14.7371   20.5977 C   0  0  0  0  0  0  0  0  0  0  0  0
  -15.1691  -23.8029   23.2912 C   0  0  0  0  0  0  0  0  0  0  0  0
  -22.0837  -23.1267   22.7957 C   0  0  0  0  0  0  0  0  0  0  0  0
  -22.4588  -23.0438   19.8636 C   0  0  0  0  0  0  0  0  0  0  0  0
  -30.6827  -19.6484   21.5503 C   0  0  0  0  0  0  0  0  0  0  0  0
  -31.0509  -17.0655   21.4014 C   0  0  0  0  0  0  0  0  0  0  0  0
  -28.9076  -16.5053   20.4142 C   0  0  0  0  0  0  0  0  0  0  0  0
  -15.9841  -24.2093   22.0661 C   0  0  0  0  0  0  0  0  0  0  0  0
  -29.5581  -20.6700   21.3843 C   0  0  0  0  0  0  0  0  0  0  0  0
  -29.4542  -12.5585   17.9549 C   0  0  0  0  0  0  0  0  0  0  0  0
  -16.6412  -22.9870   21.4327 C   0  0  0  0  0  0  0  0  0  0  0  0
  -28.0531  -12.2135   18.4659 C   0  0  0  0  0  0  0  0  0  0  0  0
  -30.4392  -12.7995   19.0975 C   0  0  0  0  0  0  0  0  0  0  0  0
  -28.5969  -13.4226   20.6079 C   0  0  0  0  0  0  0  0  0  0  0  0
  -28.6875  -20.3537   20.1722 C   0  0  0  0  0  0  0  0  0  0  0  0
  -17.6144  -22.3157   22.4092 C   0  0  1  0  0  0  0  0  0  0  0  0
  -21.0802  -23.7637   21.8394 C   0  0  1  0  0  0  0  0  0  0  0  0
  -27.5598  -13.2543   19.4899 C   0  0  2  0  0  0  0  0  0  0  0  0
  -24.8772  -28.4015   16.9326 C   0  0  0  0  0  0  0  0  0  0  0  0
  -19.5966  -24.4460   17.5158 C   0  0  0  0  0  0  0  0  0  0  0  0
  -21.1224  -25.7852   16.0506 C   0  0  0  0  0  0  0  0  0  0  0  0
  -19.8001  -26.9178   17.8371 C   0  0  0  0  0  0  0  0  0  0  0  0
  -26.2489  -26.8730   20.1355 C   0  0  0  0  0  0  0  0  0  0  0  0
  -27.2168  -18.6136   19.1498 C   0  0  0  0  0  0  0  0  0  0  0  0
  -25.9058  -19.3715   19.2209 C   0  0  0  0  0  0  0  0  0  1  0  0
  -21.7641  -25.4625   18.4827 C   0  0  1  0  0  0  0  0  0  0  0  0
  -24.7943  -27.7323   18.2957 C   0  0  2  0  0  0  0  0  0  0  0  0
  -20.5811  -25.6322   17.4881 C   0  0  0  0  0  0  0  0  0  0  0  0
  -25.8428  -11.6206   20.1691 N   0  0  0  0  0  0  0  0  0  0  0  0
  -26.1888  -12.9129   20.0410 N   0  0  0  0  0  0  0  0  0  0  0  0
  -21.6668  -24.0863   20.5371 N   0  0  0  0  0  0  0  0  0  0  0  0
  -30.2030  -15.9902   20.8821 N   0  0  0  0  0  0  0  0  0  0  0  0
  -29.9031  -13.7751   20.0449 N   0  0  0  0  0  0  0  0  0  0  0  0
  -25.4025  -15.1214   20.3800 N   0  0  0  0  0  0  0  0  0  0  0  0
  -21.9446  -12.5619   21.7540 N   0  0  0  0  0  0  0  0  0  0  0  0
  -18.8546  -23.0584   22.4775 N   0  0  0  0  0  0  0  0  0  0  0  0
  -22.6978  -26.5833   18.4975 N   0  0  0  0  0  0  0  0  0  0  0  0
  -28.0652  -18.9769   20.3370 N   0  3  1  0  0  0  0  0  0  0  0  0
  -26.1808  -27.5049   18.7927 N   0  3  0  0  0  0  0  0  0  0  0  0
  -22.6643  -14.7200   21.4652 O   0  0  0  0  0  0  0  0  0  0  0  0
  -19.9074  -22.1095   20.6298 O   0  0  0  0  0  0  0  0  0  0  0  0
  -20.6348  -26.1749   20.4432 O   0  0  0  0  0  0  0  0  0  0  0  0
  -24.5822  -25.3519   17.9409 O   0  0  0  0  0  0  0  0  0  0  0  0
  -31.9568  -14.5069   20.7751 O   0  0  0  0  0  0  0  0  0  0  0  0
  -21.7730   -6.9936   21.7743 O   0  0  0  0  0  0  0  0  0  0  0  0
  -25.2301  -19.0411   20.4270 O   0  0  0  0  0  0  0  0  0  1  0  0
  -19.0912   -6.6987   26.5831 F   0  0  0  0  0  0  0  0  0  0  0  0
  -22.3791   -5.0248   23.6179 F   0  0  0  0  0  0  0  0  0  0  0  0
  1  2  1  0  0  0  0
  1  5  2  0  0  0  0
  2  6  2  0  0  0  0
  3  8  2  0  0  0  0
  3 15  1  0  0  0  0
  4  9  1  0  0  0  0
  4 15  2  0  0  0  0
  5 17  1  0  0  0  0
  6 19  1  0  0  0  0
  7 10  2  0  0  0  0
  7 18  1  0  0  0  0
  8 21  1  0  0  0  0
  9 21  2  0  0  0  0
 10 22  1  0  0  0  0
 11 12  2  0  0  0  0
 11 23  1  0  0  0  0
 12 24  1  0  0  0  0
 13 20  1  0  0  0  0
 13 22  2  0  0  0  0
 14 24  2  0  0  0  0
 14 25  1  0  0  0  0
 15 26  1  0  0  0  0
 16 26  1  0  0  0  0
 16 27  2  0  0  0  0
 16 30  1  0  0  0  0
 17 19  2  0  0  0  0
 17 35  1  0  0  0  0
 18 20  2  0  0  0  0
 18 36  1  0  0  0  0
 19 49  1  0  0  0  0
 20 37  1  0  0  0  0
 21 78  1  0  0  0  0
 22 79  1  0  0  0  0
 23 25  2  0  0  0  0
 23 78  1  0  0  0  0
 24 80  1  0  0  0  0
 25 81  1  0  0  0  0
 26 62  2  0  0  0  0
 27 63  1  0  0  0  0
 27 67  1  0  0  0  0
 28 29  2  0  0  0  0
 28 38  1  0  0  0  0
 28 39  1  0  0  0  0
 29 40  1  0  0  0  0
 29 71  1  0  0  0  0
 30 68  1  0  0  0  0
 30 73  2  0  0  0  0
 31 50  1  0  0  0  0
 31 69  1  0  0  0  0
 31 74  2  0  0  0  0
 32 59  1  0  0  0  0
 32 64  1  0  0  0  0
 32 75  2  0  0  0  0
 33 60  1  0  0  0  0
 33 70  1  0  0  0  0
 33 76  2  0  0  0  0
 34 65  1  0  0  0  0
 34 66  1  0  0  0  0
 34 77  2  0  0  0  0
 35 41  1  0  0  0  0
 36 50  1  0  0  0  0
 37 64  1  0  0  0  0
 38 42  1  0  0  0  0
 39 65  1  0  0  0  0
 40 65  1  0  0  0  0
 41 44  1  0  0  0  0
 42 48  1  0  0  0  0
 43 45  1  0  0  0  0
 43 46  1  0  0  0  0
 44 49  1  0  0  0  0
 45 51  1  0  0  0  0
 46 66  1  0  0  0  0
 47 51  1  0  0  0  0
 47 66  1  0  0  0  0
 48 71  1  0  0  0  0
 49 69  1  0  0  0  0
 50 64  1  0  0  0  0
 51 63  1  0  0  0  0
 52 60  1  0  0  0  0
 53 61  1  0  0  0  0
 54 61  1  0  0  0  0
 55 61  1  0  0  0  0
 56 72  1  0  0  0  0
 57 58  1  0  0  0  0
 57 71  1  0  0  0  0
 58 79  1  0  0  0  0
 59 61  1  0  0  0  0
 59 70  1  0  0  0  0
 60 72  1  0  0  0  0
 62 63  1  0  0  0  0
M  CHG  2  71   1  72   1
M  ISO  4  34 100  58 101  65 100  79 101
M  END
> <Batch ID>
0154

> <Smiles>
CNC(C)C(=O)NC(C(=O)N1Cc2cc([101O:1][101CH2:1]CN3CCCC4=C3C[100N:0]([100C:0](=O)N3CCCC(n5nc(-c6ccc(Oc7ccc(F)cc7F)cc6)c(C(N)=O)c5N)C3)C4)ccc2CC1C(=O)NC1CCCc2ccccc21)C(C)(C)C

> <Shape>
0.229

> <Color>
0.177

> <Negative vol penalty>
0.000

$$$$

  -OEChem-04052303333D

 82 90  0     1  0  0  0  0  0999 V2000
  -32.9699  -24.4917   20.8118 C   0  0  0  0  0  0  0  0  0  0  0  0
  -31.7449  -25.0147   20.4133 C   0  0  0  0  0  0  0  0  0  0  0  0
  -24.3844  -14.1566   20.3737 C   0  0  0  0  0  0  0  0  0  0  0  0
  -26.6724  -14.0184   21.1372 C   0  0  0  0  0  0  0  0  0  0  0  0
  -33.4487  -24.7480   22.0948 C   0  0  0  0  0  0  0  0  0  0  0  0
  -31.0040  -25.8041   21.2936 C   0  0  0  0  0  0  0  0  0  0  0  0
  -26.9692  -27.9711   19.4968 C   0  0  0  0  0  0  0  0  0  0  0  0
  -24.3540  -12.7713   20.2138 C   0  0  0  0  0  0  0  0  0  0  0  0
  -26.6420  -12.6330   20.9773 C   0  0  0  0  0  0  0  0  0  0  0  0
  -25.8085  -27.2638   19.1864 C   0  0  0  0  0  0  0  0  0  0  0  0
  -24.0057  -10.0437   22.1815 C   0  0  0  0  0  0  0  0  0  0  0  0
  -22.8857   -9.3609   22.6556 C   0  0  0  0  0  0  0  0  0  0  0  0
  -27.9844  -23.0095   23.0670 C   0  0  0  0  0  0  0  0  0  0  0  0
  -26.7476  -23.6025   23.4163 C   0  0  0  0  0  0  0  0  0  0  0  0
  -24.7777  -28.0794   21.2091 C   0  0  0  0  0  0  0  0  0  0  0  0
  -22.4357   -8.5500   20.4246 C   0  0  0  0  0  0  0  0  0  0  0  0
  -25.5436  -14.7802   20.8353 C   0  0  0  0  0  0  0  0  0  0  0  0
  -25.2350  -16.9419   22.1543 C   0  0  0  0  0  0  0  0  0  0  0  0
  -32.7069  -25.5307   22.9948 C   0  0  0  0  0  0  0  0  0  0  0  0
  -27.0468  -28.7304   20.6732 C   0  0  0  0  0  0  0  0  0  0  0  0
  -31.4814  -26.0940   22.5845 C   0  0  0  0  0  0  0  0  0  0  0  0
  -25.9396  -28.7974   21.5309 C   0  0  0  0  0  0  0  0  0  0  0  0
  -25.4828  -12.0095   20.5156 C   0  0  0  0  0  0  0  0  0  0  0  0
  -24.7136  -27.3155   20.0440 C   0  0  0  0  0  0  0  0  0  0  0  0
  -24.3407   -9.9798   20.8289 C   0  0  0  0  0  0  0  0  0  0  0  0
  -22.1007   -8.6139   21.7772 C   0  0  0  0  0  0  0  0  0  0  0  0
  -23.5557   -9.2329   19.9505 C   0  0  0  0  0  0  0  0  0  0  0  0
  -25.5758  -16.2112   21.0002 C   0  0  0  0  0  0  0  0  0  0  0  0
  -27.9421  -22.8108   21.7067 C   0  0  0  0  0  0  0  0  0  0  0  0
  -25.4332  -18.2542   21.8008 C   0  0  0  0  0  0  0  0  0  0  0  0
  -26.0378  -23.7240   22.2444 C   0  0  0  0  0  0  0  0  0  0  0  0
  -24.7802  -16.4759   23.4316 C   0  0  0  0  0  0  0  0  0  0  0  0
  -28.8923  -22.2541   20.8054 C   0  0  0  0  0  0  0  0  0  0  0  0
  -28.6323  -22.1352   19.3523 C   0  0  0  0  0  0  0  0  0  0  0  0
  -28.8624  -28.6472   23.2809 C   0  0  0  0  0  0  0  0  0  0  0  0
  -27.2940  -31.3974   23.9874 C   0  0  0  0  0  0  0  0  0  0  0  0
  -24.5259  -33.3465   23.5571 C   0  0  0  0  0  0  0  0  0  0  0  0
  -33.2761  -25.7831   24.3687 C   0  0  0  0  0  0  0  0  0  0  0  0
  -28.2965  -29.5091   20.9803 C   0  0  0  0  0  0  0  0  0  0  0  0
  -25.9648  -29.6143   22.7961 C   0  0  0  0  0  0  0  0  0  0  0  0
  -32.2259  -26.2524   25.3703 C   0  0  0  0  0  0  0  0  0  0  0  0
  -26.2854  -20.3696   17.2952 C   0  0  0  0  0  0  0  0  0  0  0  0
  -31.4156  -27.3951   24.7767 C   0  0  0  0  0  0  0  0  0  0  0  0
  -25.8940  -19.1693   18.1565 C   0  0  0  0  0  0  0  0  0  0  0  0
  -27.7439  -20.7601   17.5115 C   0  0  0  0  0  0  0  0  0  0  0  0
  -27.7001  -19.8278   19.8088 C   0  0  0  0  0  0  0  0  0  0  0  0
  -30.6438  -26.9300   23.5353 C   0  0  1  0  0  0  0  0  0  0  0  0
  -28.4471  -29.8370   22.4626 C   0  0  1  0  0  0  0  0  0  0  0  0
  -26.2260  -19.4212   19.6381 C   0  0  2  0  0  0  0  0  0  0  0  0
  -23.5139  -35.5212   24.2945 C   0  0  0  0  0  0  0  0  0  0  0  0
  -21.4240  -26.8283   20.7735 C   0  0  0  0  0  0  0  0  0  0  0  0
  -26.5654  -30.1450   26.6727 C   0  0  0  0  0  0  0  0  0  0  0  0
  -24.8179  -31.9170   26.9460 C   0  0  0  0  0  0  0  0  0  0  0  0
  -27.2245  -32.5547   26.7899 C   0  0  0  0  0  0  0  0  0  0  0  0
  -24.4882  -34.4000   20.7917 C   0  0  0  0  0  0  0  0  0  0  0  0
  -22.6731  -24.6329   20.7943 C   0  0  0  0  0  0  0  0  0  0  0  0
  -24.0227  -23.9148   20.7855 C   0  0  0  0  0  0  0  0  0  0  0  0
  -26.0203  -31.7438   24.7200 C   0  0  1  0  0  0  0  0  0  0  0  0
  -24.3730  -34.8253   23.2503 C   0  0  2  0  0  0  0  0  0  0  0  0
  -22.7921  -26.1620   20.8397 C   0  0  1  0  0  0  0  0  0  1  0  0
  -26.1569  -31.5731   26.2594 C   0  0  0  0  0  0  0  0  0  0  0  0
  -25.9610  -16.9944   19.9891 N   0  0  0  0  0  0  0  0  0  0  0  0
  -30.0817  -21.7963   21.1612 N   0  0  0  0  0  0  0  0  0  0  0  0
  -25.8635  -18.2308   20.5067 N   0  0  0  0  0  0  0  0  0  0  0  0
  -28.0337  -20.9562   18.9305 N   0  0  0  0  0  0  0  0  0  0  0  0
  -27.2117  -30.3529   23.0557 N   0  0  0  0  0  0  0  0  0  0  0  0
  -25.2795  -19.4144   22.4736 N   0  0  0  0  0  0  0  0  0  0  0  0
  -24.6314  -15.0958   23.6252 N   0  0  0  0  0  0  0  0  0  0  0  0
  -24.7755  -24.2297   21.9756 N   0  0  0  0  0  0  0  0  0  0  0  0
  -30.0591  -28.0815   22.8841 N   0  0  0  0  0  0  0  0  0  0  0  0
  -25.6608  -33.0933   24.2980 N   0  0  0  0  0  0  0  0  0  0  0  0
  -23.7364  -35.0144   21.9161 N   0  3  0  0  0  0  0  0  0  0  0  0
  -24.4979  -17.2612   24.3682 O   0  0  0  0  0  0  0  0  0  0  0  0
  -28.9756  -23.0951   18.6748 O   0  0  0  0  0  0  0  0  0  0  0  0
  -28.1507  -28.2713   24.2050 O   0  0  0  0  0  0  0  0  0  0  0  0
  -28.3224  -32.0349   24.2276 O   0  0  0  0  0  0  0  0  0  0  0  0
  -23.7172  -32.5010   23.1806 O   0  0  0  0  0  0  0  0  0  0  0  0
  -26.7589  -23.2438   21.1975 O   0  0  0  0  0  0  0  0  0  0  0  0
  -25.4534  -10.6577   20.3599 O   0  0  0  0  0  0  0  0  0  0  0  0
  -23.5797  -26.6256   19.7437 O   0  0  0  0  0  0  0  0  0  1  0  0
  -21.0260   -7.9570   22.2329 F   0  0  0  0  0  0  0  0  0  0  0  0
  -23.8733   -9.1667   18.6503 F   0  0  0  0  0  0  0  0  0  0  0  0
  1  2  1  0  0  0  0
  1  5  2  0  0  0  0
  2  6  2  0  0  0  0
  3  8  2  0  0  0  0
  3 17  1  0  0  0  0
  4  9  1  0  0  0  0
  4 17  2  0  0  0  0
  5 19  1  0  0  0  0
  6 21  1  0  0  0  0
  7 10  2  0  0  0  0
  7 20  1  0  0  0  0
  8 23  1  0  0  0  0
  9 23  2  0  0  0  0
 10 24  1  0  0  0  0
 11 12  2  0  0  0  0
 11 25  1  0  0  0  0
 12 26  1  0  0  0  0
 13 14  1  0  0  0  0
 13 29  2  0  0  0  0
 14 31  2  0  0  0  0
 15 22  1  0  0  0  0
 15 24  2  0  0  0  0
 16 26  2  0  0  0  0
 16 27  1  0  0  0  0
 17 28  1  0  0  0  0
 18 28  1  0  0  0  0
 18 30  2  0  0  0  0
 18 32  1  0  0  0  0
 19 21  2  0  0  0  0
 19 38  1  0  0  0  0
 20 22  2  0  0  0  0
 20 39  1  0  0  0  0
 21 47  1  0  0  0  0
 22 40  1  0  0  0  0
 23 79  1  0  0  0  0
 24 80  1  0  0  0  0
 25 27  2  0  0  0  0
 25 79  1  0  0  0  0
 26 81  1  0  0  0  0
 27 82  1  0  0  0  0
 28 62  2  0  0  0  0
 29 33  1  0  0  0  0
 29 78  1  0  0  0  0
 30 64  1  0  0  0  0
 30 67  1  0  0  0  0
 31 69  1  0  0  0  0
 31 78  1  0  0  0  0
 32 68  1  0  0  0  0
 32 73  2  0  0  0  0
 33 34  1  0  0  0  0
 33 63  2  0  0  0  0
 34 65  1  0  0  0  0
 34 74  2  0  0  0  0
 35 48  1  0  0  0  0
 35 70  1  0  0  0  0
 35 75  2  0  0  0  0
 36 58  1  0  0  0  0
 36 66  1  0  0  0  0
 36 76  2  0  0  0  0
 37 59  1  0  0  0  0
 37 71  1  0  0  0  0
 37 77  2  0  0  0  0
 38 41  1  0  0  0  0
 39 48  1  0  0  0  0
 40 66  1  0  0  0  0
 41 43  1  0  0  0  0
 42 44  1  0  0  0  0
 42 45  1  0  0  0  0
 43 47  1  0  0  0  0
 44 49  1  0  0  0  0
 45 65  1  0  0  0  0
 46 49  1  0  0  0  0
 46 65  1  0  0  0  0
 47 70  1  0  0  0  0
 48 66  1  0  0  0  0
 49 64  1  0  0  0  0
 50 59  1  0  0  0  0
 51 60  1  0  0  0  0
 52 61  1  0  0  0  0
 53 61  1  0  0  0  0
 54 61  1  0  0  0  0
 55 72  1  0  0  0  0
 56 57  1  0  0  0  0
 56 60  1  0  0  0  0
 57 69  1  0  0  0  0
 58 61  1  0  0  0  0
 58 71  1  0  0  0  0
 59 72  1  0  0  0  0
 60 80  1  0  0  0  0
 62 64  1  0  0  0  0
M  CHG  1  72   1
M  ISO  4  33 100  34 100  60 101  80 101
M  END
> <Batch ID>
0154

> <Smiles>
CNC(C)C(=O)NC(C(=O)N1Cc2cc([101O:1][101CH:1](C)CCNc3ccc([100C:0](=N)[100C:0](=O)N4CCCC(n5nc(-c6ccc(Oc7ccc(F)cc7F)cc6)c(C(N)=O)c5N)C4)o3)ccc2CC1C(=O)NC1CCCc2ccccc21)C(C)(C)C

> <Shape>
0.231

> <Color>
0.095

> <Negative vol penalty>
0.000

$$$$

  -OEChem-04052303333D

 83 92  0     1  0  0  0  0  0999 V2000
  -28.0275  -34.7157   15.5109 C   0  0  0  0  0  0  0  0  0  0  0  0
  -28.2760  -33.4947   16.1297 C   0  0  0  0  0  0  0  0  0  0  0  0
  -24.6540   -8.3865   21.4590 C   0  0  0  0  0  0  0  0  0  0  0  0
  -22.9150  -10.0582   21.3242 C   0  0  0  0  0  0  0  0  0  0  0  0
  -27.6084  -35.8079   16.2694 C   0  0  0  0  0  0  0  0  0  0  0  0
  -28.1065  -33.3656   17.5077 C   0  0  0  0  0  0  0  0  0  0  0  0
  -25.6514  -29.1212   18.7738 C   0  0  0  0  0  0  0  0  0  0  0  0
  -23.8743   -7.6471   22.3483 C   0  0  0  0  0  0  0  0  0  0  0  0
  -22.1352   -9.3187   22.2135 C   0  0  0  0  0  0  0  0  0  0  0  0
  -26.3827  -27.9343   18.7597 C   0  0  0  0  0  0  0  0  0  0  0  0
  -21.2365   -5.5377   22.1885 C   0  0  0  0  0  0  0  0  0  0  0  0
  -21.1417   -4.1620   21.9782 C   0  0  0  0  0  0  0  0  0  0  0  0
  -27.9239  -20.9621   19.6130 C   0  0  0  0  0  0  0  0  0  0  0  0
  -26.6308  -28.0659   21.1556 C   0  0  0  0  0  0  0  0  0  0  0  0
  -27.0961  -20.7887   17.3057 C   0  0  0  0  0  0  0  0  0  0  0  0
  -22.0952   -3.7624   24.1618 C   0  0  0  0  0  0  0  0  0  0  0  0
  -24.1744   -9.5922   20.9470 C   0  0  0  0  0  0  0  0  0  0  0  0
  -24.9933  -10.2580   18.6246 C   0  0  0  0  0  0  0  0  0  0  0  0
  -27.4244  -35.6894   17.6561 C   0  0  0  0  0  0  0  0  0  0  0  0
  -25.4132  -29.7962   19.9796 C   0  0  0  0  0  0  0  0  0  0  0  0
  -27.6859  -34.4575   18.2858 C   0  0  0  0  0  0  0  0  0  0  0  0
  -28.0408  -19.5990   19.6017 C   0  0  0  0  0  0  0  0  0  0  0  0
  -25.8940  -29.2598   21.1826 C   0  0  0  0  0  0  0  0  0  0  0  0
  -27.7049  -18.8769   18.4830 C   0  0  0  0  0  0  0  0  0  0  0  0
  -27.4442  -21.5630   18.4401 C   0  0  0  0  0  0  0  0  0  0  0  0
  -27.2218  -19.3984   17.3169 C   0  0  0  0  0  0  0  0  0  0  0  0
  -22.6149   -8.1131   22.7255 C   0  0  0  0  0  0  0  0  0  0  0  0
  -26.8750  -27.4080   19.9504 C   0  0  0  0  0  0  0  0  0  0  0  0
  -21.7608   -6.0257   23.3855 C   0  0  0  0  0  0  0  0  0  0  0  0
  -21.5710   -3.2744   22.9649 C   0  0  0  0  0  0  0  0  0  0  0  0
  -22.1902   -5.1381   24.3721 C   0  0  0  0  0  0  0  0  0  0  0  0
  -24.9796  -10.3568   20.0288 C   0  0  0  0  0  0  0  0  0  0  0  0
  -25.9191  -11.1901   18.2238 C   0  0  0  0  0  0  0  0  0  0  0  0
  -24.2367   -9.4005   17.7598 C   0  0  0  0  0  0  0  0  0  0  0  0
  -26.1721  -32.6581   21.1360 C   0  0  0  0  0  0  0  0  0  0  0  0
  -24.2611  -31.7415   23.5916 C   0  0  0  0  0  0  0  0  0  0  0  0
  -27.5860  -23.8876   19.3941 C   0  0  0  0  0  0  0  0  0  0  0  0
  -22.8496  -29.1928   25.3689 C   0  0  0  0  0  0  0  0  0  0  0  0
  -27.7408  -16.4036   18.6141 C   0  0  0  0  0  0  0  0  0  0  0  0
  -27.0156  -36.9106   18.4411 C   0  0  0  0  0  0  0  0  0  0  0  0
  -24.5997  -31.0614   19.9810 C   0  0  0  0  0  0  0  0  0  0  0  0
  -28.4086  -18.3392   20.3311 C   0  0  0  0  0  0  0  0  0  0  0  0
  -25.6484  -29.9352   22.5062 C   0  0  0  0  0  0  0  0  0  0  0  0
  -26.4992  -36.5899   19.8413 C   0  0  0  0  0  0  0  0  0  0  0  0
  -29.3021  -13.8349   20.8349 C   0  0  0  0  0  0  0  0  0  0  0  0
  -27.4265  -35.5995   20.5384 C   0  0  0  0  0  0  0  0  0  0  0  0
  -28.2518  -12.7341   20.7716 C   0  0  0  0  0  0  0  0  0  0  0  0
  -28.6991  -15.2304   20.6744 C   0  0  0  0  0  0  0  0  0  0  0  0
  -26.8030  -14.2616   19.3940 C   0  0  0  0  0  0  0  0  0  0  0  0
  -27.4896  -34.2712   19.7747 C   0  0  1  0  0  0  0  0  0  0  0  0
  -24.8565  -31.9355   21.2047 C   0  0  1  0  0  0  0  0  0  0  0  0
  -27.4295  -12.8638   19.4835 C   0  0  2  0  0  0  0  0  0  0  0  0
  -21.3660  -28.7545   27.3448 C   0  0  0  0  0  0  0  0  0  0  0  0
  -26.5762  -32.3893   25.4705 C   0  0  0  0  0  0  0  0  0  0  0  0
  -25.4105  -31.0685   27.2495 C   0  0  0  0  0  0  0  0  0  0  0  0
  -24.3281  -33.1054   26.2996 C   0  0  0  0  0  0  0  0  0  0  0  0
  -20.8244  -27.8325   23.6934 C   0  0  0  0  0  0  0  0  0  0  0  0
  -27.2911  -25.3013   18.9282 C   0  0  0  0  0  0  0  0  0  1  0  0
  -24.4720  -31.0086   24.8944 C   0  0  1  0  0  0  0  0  0  0  0  0
  -21.4250  -28.9609   25.8392 C   0  0  2  0  0  0  0  0  0  0  0  0
  -25.2032  -31.8810   25.9535 C   0  0  0  0  0  0  0  0  0  0  0  0
  -25.8294  -11.2786   20.4892 N   0  0  0  0  0  0  0  0  0  0  0  0
  -26.3858  -11.7677   19.3679 N   0  0  0  0  0  0  0  0  0  0  0  0
  -28.0043  -17.6690   19.0782 N   0  0  0  0  0  0  0  0  0  0  0  0
  -24.8530  -31.1730   22.4548 N   0  0  0  0  0  0  0  0  0  0  0  0
  -27.8009  -15.3337   19.5193 N   0  0  0  0  0  0  0  0  0  0  0  0
  -26.8844  -18.6396   16.1951 N   0  0  0  0  0  0  0  0  0  0  0  0
  -26.3715  -11.5636   17.0080 N   0  0  0  0  0  0  0  0  0  0  0  0
  -23.3292   -8.5019   18.3370 N   0  0  0  0  0  0  0  0  0  0  0  0
  -27.3028  -22.9513   18.3895 N   0  0  0  0  0  0  0  0  0  0  0  0
  -26.3046  -33.4821   20.0346 N   0  0  0  0  0  0  0  0  0  0  0  0
  -23.1573  -30.5358   25.3143 N   0  0  0  0  0  0  0  0  0  0  0  0
  -20.8504  -27.7560   25.1768 N   0  3  0  0  0  0  0  0  0  0  0  0
  -24.3736   -9.4188   16.5130 O   0  0  0  0  0  0  0  0  0  0  0  0
  -27.0048  -32.4824   22.0178 O   0  0  0  0  0  0  0  0  0  0  0  0
  -23.5897  -32.7762   23.5817 O   0  0  0  0  0  0  0  0  0  0  0  0
  -28.0161  -23.6587   20.5198 O   0  0  0  0  0  0  0  0  0  0  0  0
  -23.6143  -28.2742   25.0823 O   0  0  0  0  0  0  0  0  0  0  0  0
  -27.4103  -16.2243   17.4333 O   0  0  0  0  0  0  0  0  0  0  0  0
  -21.8537   -7.3917   23.5931 O   0  0  0  0  0  0  0  0  0  0  0  0
  -27.5971  -26.2379   19.9393 O   0  0  0  0  0  0  0  0  0  1  0  0
  -21.4784   -1.9534   22.7634 F   0  0  0  0  0  0  0  0  0  0  0  0
  -22.6936   -5.6010   25.5245 F   0  0  0  0  0  0  0  0  0  0  0  0
  1  2  1  0  0  0  0
  1  5  2  0  0  0  0
  2  6  2  0  0  0  0
  3  8  2  0  0  0  0
  3 17  1  0  0  0  0
  4  9  1  0  0  0  0
  4 17  2  0  0  0  0
  5 19  1  0  0  0  0
  6 21  1  0  0  0  0
  7 10  2  0  0  0  0
  7 20  1  0  0  0  0
  8 27  1  0  0  0  0
  9 27  2  0  0  0  0
 10 28  1  0  0  0  0
 11 12  2  0  0  0  0
 11 29  1  0  0  0  0
 12 30  1  0  0  0  0
 13 22  1  0  0  0  0
 13 25  2  0  0  0  0
 14 23  1  0  0  0  0
 14 28  2  0  0  0  0
 15 25  1  0  0  0  0
 15 26  2  0  0  0  0
 16 30  2  0  0  0  0
 16 31  1  0  0  0  0
 17 32  1  0  0  0  0
 18 32  1  0  0  0  0
 18 33  2  0  0  0  0
 18 34  1  0  0  0  0
 19 21  2  0  0  0  0
 19 40  1  0  0  0  0
 20 23  2  0  0  0  0
 20 41  1  0  0  0  0
 21 50  1  0  0  0  0
 22 24  2  0  0  0  0
 22 42  1  0  0  0  0
 23 43  1  0  0  0  0
 24 26  1  0  0  0  0
 24 64  1  0  0  0  0
 25 70  1  0  0  0  0
 26 67  1  0  0  0  0
 27 80  1  0  0  0  0
 28 81  1  0  0  0  0
 29 31  2  0  0  0  0
 29 80  1  0  0  0  0
 30 82  1  0  0  0  0
 31 83  1  0  0  0  0
 32 62  2  0  0  0  0
 33 63  1  0  0  0  0
 33 68  1  0  0  0  0
 34 69  1  0  0  0  0
 34 74  2  0  0  0  0
 35 51  1  0  0  0  0
 35 71  1  0  0  0  0
 35 75  2  0  0  0  0
 36 59  1  0  0  0  0
 36 65  1  0  0  0  0
 36 76  2  0  0  0  0
 37 58  1  0  0  0  0
 37 70  1  0  0  0  0
 37 77  2  0  0  0  0
 38 60  1  0  0  0  0
 38 72  1  0  0  0  0
 38 78  2  0  0  0  0
 39 64  1  0  0  0  0
 39 66  1  0  0  0  0
 39 79  2  0  0  0  0
 40 44  1  0  0  0  0
 41 51  1  0  0  0  0
 42 64  1  0  0  0  0
 43 65  1  0  0  0  0
 44 46  1  0  0  0  0
 45 47  1  0  0  0  0
 45 48  1  0  0  0  0
 46 50  1  0  0  0  0
 47 52  1  0  0  0  0
 48 66  1  0  0  0  0
 49 52  1  0  0  0  0
 49 66  1  0  0  0  0
 50 71  1  0  0  0  0
 51 65  1  0  0  0  0
 52 63  1  0  0  0  0
 53 60  1  0  0  0  0
 54 61  1  0  0  0  0
 55 61  1  0  0  0  0
 56 61  1  0  0  0  0
 57 73  1  0  0  0  0
 58 81  1  0  0  0  0
 59 61  1  0  0  0  0
 59 72  1  0  0  0  0
 60 73  1  0  0  0  0
 62 63  1  0  0  0  0
M  CHG  1  73   1
M  ISO  4  39 100  58 101  64 100  81 101
M  END
> <Batch ID>
0154

> <Smiles>
CNC(C)C(=O)NC(C(=O)N1Cc2cc([101O:1][101CH2:1]C(=O)Nc3cc(N)c4c(c3)C[100N:0]4[100C:0](=O)N3CCCC(n4nc(-c5ccc(Oc6ccc(F)cc6F)cc5)c(C(N)=O)c4N)C3)ccc2CC1C(=O)NC1CCCc2ccccc21)C(C)(C)C

> <Shape>
0.253

> <Color>
0.089

> <Negative vol penalty>
0.000

$$$$

  -OEChem-04052303333D

 87 95  0     1  0  0  0  0  0999 V2000
  -26.8056  -32.8152   26.3542 C   0  0  0  0  0  0  0  0  0  0  0  0
  -26.6947  -32.0852   25.1752 C   0  0  0  0  0  0  0  0  0  0  0  0
  -27.1841  -12.7988   21.4109 C   0  0  0  0  0  0  0  0  0  0  0  0
  -26.7518  -13.8460   19.2770 C   0  0  0  0  0  0  0  0  0  0  0  0
  -26.5658  -32.1970   27.5807 C   0  0  0  0  0  0  0  0  0  0  0  0
  -26.3451  -30.7361   25.2220 C   0  0  0  0  0  0  0  0  0  0  0  0
  -22.8520  -29.5133   21.7654 C   0  0  0  0  0  0  0  0  0  0  0  0
  -26.4078  -11.7040   21.0309 C   0  0  0  0  0  0  0  0  0  0  0  0
  -25.9755  -12.7512   18.8970 C   0  0  0  0  0  0  0  0  0  0  0  0
  -23.2874  -29.3474   20.4513 C   0  0  0  0  0  0  0  0  0  0  0  0
  -24.2442   -8.7938   20.7600 C   0  0  0  0  0  0  0  0  0  0  0  0
  -23.3314   -8.2911   21.6871 C   0  0  0  0  0  0  0  0  0  0  0  0
  -31.2266  -24.7917   18.7449 C   0  0  0  0  0  0  0  0  0  0  0  0
  -29.6393  -24.0221   20.3957 C   0  0  0  0  0  0  0  0  0  0  0  0
  -23.2860  -26.9549   20.7593 C   0  0  0  0  0  0  0  0  0  0  0  0
  -31.2469  -22.4828   19.4559 C   0  0  0  0  0  0  0  0  0  0  0  0
  -22.2090  -10.4299   21.7417 C   0  0  0  0  0  0  0  0  0  0  0  0
  -27.3560  -13.8698   20.5340 C   0  0  0  0  0  0  0  0  0  0  0  0
  -30.1616  -25.0482   19.6084 C   0  0  0  0  0  0  0  0  0  0  0  0
  -29.5408  -15.1722   20.7295 C   0  0  0  0  0  0  0  0  0  0  0  0
  -26.2037  -30.8421   27.6420 C   0  0  0  0  0  0  0  0  0  0  0  0
  -22.6405  -28.3998   22.5910 C   0  0  0  0  0  0  0  0  0  0  0  0
  -26.1016  -30.0989   26.4506 C   0  0  0  0  0  0  0  0  0  0  0  0
  -22.8455  -27.1092   22.0826 C   0  0  0  0  0  0  0  0  0  0  0  0
  -31.7692  -23.5089   18.6686 C   0  0  0  0  0  0  0  0  0  0  0  0
  -30.1820  -22.7393   20.3195 C   0  0  0  0  0  0  0  0  0  0  0  0
  -25.8035  -11.6802   19.7739 C   0  0  0  0  0  0  0  0  0  0  0  0
  -23.5072  -28.0682   19.9490 C   0  0  0  0  0  0  0  0  0  0  0  0
  -24.1395  -10.1146   20.3238 C   0  0  0  0  0  0  0  0  0  0  0  0
  -22.3137   -9.1091   22.1780 C   0  0  0  0  0  0  0  0  0  0  0  0
  -23.1219  -10.9326   20.8146 C   0  0  0  0  0  0  0  0  0  0  0  0
  -28.1574  -15.0013   20.9261 C   0  0  0  0  0  0  0  0  0  0  0  0
  -29.8160  -16.4017   21.2763 C   0  0  0  0  0  0  0  0  0  0  0  0
  -27.4394  -26.5480   18.9938 C   0  0  0  0  0  0  0  0  0  0  0  0
  -29.5840  -26.4167   19.6906 C   0  0  0  0  0  0  0  0  0  0  0  0
  -30.4921  -14.2977   20.1081 C   0  0  0  0  0  0  0  0  0  0  0  0
  -23.9016  -27.3557   25.3156 C   0  0  0  0  0  0  0  0  0  0  0  0
  -21.5653  -25.1171   25.0861 C   0  0  0  0  0  0  0  0  0  0  0  0
  -19.4133  -23.3689   23.0963 C   0  0  0  0  0  0  0  0  0  0  0  0
  -28.5956  -21.7823   22.0265 C   0  0  0  0  0  0  0  0  0  0  0  0
  -26.0006  -30.2054   28.9941 C   0  0  0  0  0  0  0  0  0  0  0  0
  -22.1452  -28.5945   23.9979 C   0  0  0  0  0  0  0  0  0  0  0  0
  -22.6136  -25.8802   22.9218 C   0  0  0  0  0  0  0  0  0  0  0  0
  -25.2690  -28.8670   28.9333 C   0  0  0  0  0  0  0  0  0  0  0  0
  -26.9683  -19.4382   24.1558 C   0  0  0  0  0  0  0  0  0  0  0  0
  -25.8585  -27.9857   27.8367 C   0  0  0  0  0  0  0  0  0  0  0  0
  -27.2463  -18.0890   23.4892 C   0  0  0  0  0  0  0  0  0  0  0  0
  -26.7430  -20.5439   23.1260 C   0  0  0  0  0  0  0  0  0  0  0  0
  -28.0801  -19.3290   21.4511 C   0  0  0  0  0  0  0  0  0  0  0  0
  -25.7003  -28.6397   26.4587 C   0  0  1  0  0  0  0  0  0  0  0  0
  -22.4559  -27.4117   24.9098 C   0  0  1  0  0  0  0  0  0  0  0  0
  -28.3778  -18.1973   22.4482 C   0  0  2  0  0  0  0  0  0  0  0  0
  -17.6546  -21.5813   23.1903 C   0  0  0  0  0  0  0  0  0  0  0  0
  -23.7392  -22.9978   25.3906 C   0  0  0  0  0  0  0  0  0  0  0  0
  -22.1071  -21.3011   24.5389 C   0  0  0  0  0  0  0  0  0  0  0  0
  -21.6371  -22.5259   26.6606 C   0  0  0  0  0  0  0  0  0  0  0  0
  -25.9192  -29.2163   18.9307 C   0  0  0  0  0  0  0  0  0  0  0  0
  -25.5843  -27.7429   16.9388 C   0  0  0  0  0  0  0  0  0  0  0  0
  -17.3326  -25.1988   22.0564 C   0  0  0  0  0  0  0  0  0  0  0  0
  -25.9503  -26.6791   19.2116 C   0  0  1  0  0  0  0  0  0  0  0  0
  -21.4530  -23.7498   24.4560 C   0  0  1  0  0  0  0  0  0  0  0  0
  -17.9297  -23.0764   23.2301 C   0  0  2  0  0  0  0  0  0  0  0  0
  -22.2404  -22.6667   25.2461 C   0  0  0  0  0  0  0  0  0  0  0  0
  -25.3428  -27.8776   18.4489 C   0  0  0  0  0  0  0  0  0  1  0  0
  -27.5930  -16.0392   21.5493 N   0  0  0  0  0  0  0  0  0  0  0  0
  -28.2517  -26.5422   20.0014 N   0  0  0  0  0  0  0  0  0  0  0  0
  -28.6271  -16.8740   21.7491 N   0  0  0  0  0  0  0  0  0  0  0  0
  -22.1354  -26.1229   24.2929 N   0  0  0  0  0  0  0  0  0  0  0  0
  -27.8564  -20.5898   22.1757 N   0  0  0  0  0  0  0  0  0  0  0  0
  -32.8457  -23.2491   17.7953 N   0  0  0  0  0  0  0  0  0  0  0  0
  -30.9566  -17.1141   21.3940 N   0  0  0  0  0  0  0  0  0  0  0  0
  -30.0403  -13.0725   19.5992 N   0  0  0  0  0  0  0  0  0  0  0  0
  -29.6507  -21.6969   21.1187 N   0  0  0  0  0  0  0  0  0  0  0  0
  -24.3440  -28.4847   25.9784 N   0  0  0  0  0  0  0  0  0  0  0  0
  -20.0258  -23.4759   24.3269 N   0  0  0  0  0  0  0  0  0  0  0  0
  -30.2755  -27.4730   19.4442 N   0  3  0  0  0  0  0  0  0  0  0  0
  -25.3157  -25.4033   18.7697 N   0  3  0  0  0  0  0  0  0  0  0  0
  -17.1721  -23.7234   22.1218 N   0  3  0  0  0  0  0  0  0  0  0  0
  -31.7096  -14.5869   20.0219 O   0  0  0  0  0  0  0  0  0  0  0  0
  -24.5660  -26.3613   25.0486 O   0  0  0  0  0  0  0  0  0  0  0  0
  -21.1556  -25.2881   26.2370 O   0  0  0  0  0  0  0  0  0  0  0  0
  -19.9735  -23.4867   22.0087 O   0  0  0  0  0  0  0  0  0  0  0  0
  -28.3304  -22.7960   22.6777 O   0  0  0  0  0  0  0  0  0  0  0  0
  -25.0461  -10.6120   19.4027 O   0  0  0  0  0  0  0  0  0  0  0  0
  -23.9328  -27.9035   18.6669 O   0  0  0  0  0  0  0  0  0  1  0  0
  -21.4363   -8.6257   23.0671 F   0  0  0  0  0  0  0  0  0  0  0  0
  -23.0155  -12.2019   20.3984 F   0  0  0  0  0  0  0  0  0  0  0  0
  1  2  1  0  0  0  0
  1  5  2  0  0  0  0
  2  6  2  0  0  0  0
  3  8  2  0  0  0  0
  3 18  1  0  0  0  0
  4  9  1  0  0  0  0
  4 18  2  0  0  0  0
  5 21  1  0  0  0  0
  6 23  1  0  0  0  0
  7 10  2  0  0  0  0
  7 22  1  0  0  0  0
  8 27  1  0  0  0  0
  9 27  2  0  0  0  0
 10 28  1  0  0  0  0
 11 12  2  0  0  0  0
 11 29  1  0  0  0  0
 12 30  1  0  0  0  0
 13 19  1  0  0  0  0
 13 25  2  0  0  0  0
 14 19  2  0  0  0  0
 14 26  1  0  0  0  0
 15 24  1  0  0  0  0
 15 28  2  0  0  0  0
 16 25  1  0  0  0  0
 16 26  2  0  0  0  0
 17 30  2  0  0  0  0
 17 31  1  0  0  0  0
 18 32  1  0  0  0  0
 19 35  1  0  0  0  0
 20 32  1  0  0  0  0
 20 33  2  0  0  0  0
 20 36  1  0  0  0  0
 21 23  2  0  0  0  0
 21 41  1  0  0  0  0
 22 24  2  0  0  0  0
 22 42  1  0  0  0  0
 23 50  1  0  0  0  0
 24 43  1  0  0  0  0
 25 70  1  0  0  0  0
 26 73  1  0  0  0  0
 27 84  1  0  0  0  0
 28 85  1  0  0  0  0
 29 31  2  0  0  0  0
 29 84  1  0  0  0  0
 30 86  1  0  0  0  0
 31 87  1  0  0  0  0
 32 65  2  0  0  0  0
 33 67  1  0  0  0  0
 33 71  1  0  0  0  0
 34 60  1  0  0  0  0
 34 66  2  0  0  0  0
 35 66  1  0  0  0  0
 35 76  2  0  0  0  0
 36 72  1  0  0  0  0
 36 79  2  0  0  0  0
 37 51  1  0  0  0  0
 37 74  1  0  0  0  0
 37 80  2  0  0  0  0
 38 61  1  0  0  0  0
 38 68  1  0  0  0  0
 38 81  2  0  0  0  0
 39 62  1  0  0  0  0
 39 75  1  0  0  0  0
 39 82  2  0  0  0  0
 40 69  1  0  0  0  0
 40 73  1  0  0  0  0
 40 83  2  0  0  0  0
 41 44  1  0  0  0  0
 42 51  1  0  0  0  0
 43 68  1  0  0  0  0
 44 46  1  0  0  0  0
 45 47  1  0  0  0  0
 45 48  1  0  0  0  0
 46 50  1  0  0  0  0
 47 52  1  0  0  0  0
 48 69  1  0  0  0  0
 49 52  1  0  0  0  0
 49 69  1  0  0  0  0
 50 74  1  0  0  0  0
 51 68  1  0  0  0  0
 52 67  1  0  0  0  0
 53 62  1  0  0  0  0
 54 63  1  0  0  0  0
 55 63  1  0  0  0  0
 56 63  1  0  0  0  0
 57 64  1  0  0  0  0
 58 64  1  0  0  0  0
 59 78  1  0  0  0  0
 60 64  1  0  0  0  0
 60 77  1  0  0  0  0
 61 63  1  0  0  0  0
 61 75  1  0  0  0  0
 62 78  1  0  0  0  0
 64 85  1  0  0  0  0
 65 67  1  0  0  0  0
M  CHG  3  76   1  77   1  78   1
M  ISO  4  40 100  64 101  73 100  85 101
M  END
> <Batch ID>
0154

> <Smiles>
CNC(C)C(=O)NC(C(=O)N1Cc2cc([101O:1][101C:1](C)(C)C(=N)CNC(=N)c3cc(N)cc([100NH:0][100C:0](=O)N4CCCC(n5nc(-c6ccc(Oc7ccc(F)cc7F)cc6)c(C(N)=O)c5N)C4)c3)ccc2CC1C(=O)NC1CCCc2ccccc21)C(C)(C)C

> <Shape>
0.253

> <Color>
0.051

> <Negative vol penalty>
0.000

$$$$

  -OEChem-04052303333D

 86 95  0     1  0  0  0  0  0999 V2000
  -26.6390  -37.8944   24.7414 C   0  0  0  0  0  0  0  0  0  0  0  0
  -27.5878  -36.9971   25.2209 C   0  0  0  0  0  0  0  0  0  0  0  0
  -23.6143   -9.7454   19.7696 C   0  0  0  0  0  0  0  0  0  0  0  0
  -23.7241   -9.9168   22.1770 C   0  0  0  0  0  0  0  0  0  0  0  0
  -25.4119  -37.4259   24.2737 C   0  0  0  0  0  0  0  0  0  0  0  0
  -27.3097  -35.6308   25.2341 C   0  0  0  0  0  0  0  0  0  0  0  0
  -30.5279  -29.2711   24.5176 C   0  0  0  0  0  0  0  0  0  0  0  0
  -22.9662   -8.5158   19.8867 C   0  0  0  0  0  0  0  0  0  0  0  0
  -23.0759   -8.6872   22.2941 C   0  0  0  0  0  0  0  0  0  0  0  0
  -30.6553  -28.0482   25.1750 C   0  0  0  0  0  0  0  0  0  0  0  0
  -19.9165   -7.5079   22.0748 C   0  0  0  0  0  0  0  0  0  0  0  0
  -18.8823   -7.4082   23.0055 C   0  0  0  0  0  0  0  0  0  0  0  0
  -30.6107  -18.5166   23.2846 C   0  0  0  0  0  0  0  0  0  0  0  0
  -28.5326  -27.3468   24.2687 C   0  0  0  0  0  0  0  0  0  0  0  0
  -20.0913   -5.6653   24.1622 C   0  0  0  0  0  0  0  0  0  0  0  0
  -29.0543  -19.9671   24.2206 C   0  0  0  0  0  0  0  0  0  0  0  0
  -23.9933  -10.4459   20.9148 C   0  0  0  0  0  0  0  0  0  0  0  0
  -30.3743  -19.7960   23.8655 C   0  0  0  0  0  0  0  0  0  0  0  0
  -24.0665  -12.9892   20.7313 C   0  0  0  0  0  0  0  0  0  0  0  0
  -25.1223  -36.0523   24.2722 C   0  0  0  0  0  0  0  0  0  0  0  0
  -29.3949  -29.5456   23.7382 C   0  0  0  0  0  0  0  0  0  0  0  0
  -26.0770  -35.1436   24.7673 C   0  0  0  0  0  0  0  0  0  0  0  0
  -28.3945  -28.5729   23.6003 C   0  0  0  0  0  0  0  0  0  0  0  0
  -22.6970   -7.9867   21.1489 C   0  0  0  0  0  0  0  0  0  0  0  0
  -29.6562  -27.0870   25.0529 C   0  0  0  0  0  0  0  0  0  0  0  0
  -21.0381   -6.6863   22.1878 C   0  0  0  0  0  0  0  0  0  0  0  0
  -18.9697   -6.4869   24.0492 C   0  0  0  0  0  0  0  0  0  0  0  0
  -21.1255   -5.7651   23.2315 C   0  0  0  0  0  0  0  0  0  0  0  0
  -24.6633  -11.7158   20.7946 C   0  0  0  0  0  0  0  0  0  0  0  0
  -25.1239  -13.8589   20.6220 C   0  0  0  0  0  0  0  0  0  0  0  0
  -29.4623  -17.7585   23.2180 C   0  0  0  0  0  0  0  0  0  0  0  0
  -31.0848  -23.8939   25.9552 C   0  0  0  0  0  0  0  0  0  0  0  0
  -31.2469  -23.0683   24.8908 C   0  0  0  0  0  0  0  0  0  0  0  0
  -31.4202  -20.8154   24.0625 C   0  0  0  0  0  0  0  0  0  0  0  0
  -22.6802  -13.3534   20.7682 C   0  0  0  0  0  0  0  0  0  0  0  0
  -27.0621  -31.7017   23.8531 C   0  0  0  0  0  0  0  0  0  0  0  0
  -26.2214  -30.3707   21.0168 C   0  0  0  0  0  0  0  0  0  0  0  0
  -26.3181  -27.6588   18.9472 C   0  0  0  0  0  0  0  0  0  0  0  0
  -30.1872  -15.5887   22.1629 C   0  0  0  0  0  0  0  0  0  0  0  0
  -23.7639  -35.5973   23.8007 C   0  0  0  0  0  0  0  0  0  0  0  0
  -29.2852  -30.8593   23.0138 C   0  0  0  0  0  0  0  0  0  0  0  0
  -27.1679  -28.8106   22.7591 C   0  0  0  0  0  0  0  0  0  0  0  0
  -30.8569  -23.3568   27.3515 C   0  0  0  0  0  0  0  0  0  0  0  0
  -23.6925  -34.1023   23.5005 C   0  0  0  0  0  0  0  0  0  0  0  0
  -30.4352  -21.8959   27.3542 C   0  0  0  0  0  0  0  0  0  0  0  0
  -30.0310  -12.9841   19.7405 C   0  0  0  0  0  0  0  0  0  0  0  0
  -24.3368  -33.3003   24.6268 C   0  0  0  0  0  0  0  0  0  0  0  0
  -28.5715  -12.5267   19.7935 C   0  0  0  0  0  0  0  0  0  0  0  0
  -31.3472  -21.0977   26.4475 C   0  0  0  0  0  0  0  0  0  0  0  0
  -30.5575  -13.3621   21.1238 C   0  0  0  0  0  0  0  0  0  0  0  0
  -28.2802  -13.8819   21.9067 C   0  0  0  0  0  0  0  0  0  0  0  0
  -25.8220  -33.6519   24.7747 C   0  0  1  0  0  0  0  0  0  0  0  0
  -27.8476  -31.2295   22.6623 C   0  0  1  0  0  0  0  0  0  0  0  0
  -27.6858  -13.5524   20.5277 C   0  0  2  0  0  0  0  0  0  0  0  0
  -31.3620  -23.5810   23.4754 C   0  0  0  0  0  0  0  0  0  0  0  0
  -25.5079  -26.8572   16.7116 C   0  0  0  0  0  0  0  0  0  0  0  0
  -23.4278  -29.9688   22.1761 C   0  0  0  0  0  0  0  0  0  0  0  0
  -22.9641  -28.3569   20.3173 C   0  0  0  0  0  0  0  0  0  0  0  0
  -23.4691  -30.7441   19.7988 C   0  0  0  0  0  0  0  0  0  0  0  0
  -29.0797  -27.2827   17.9516 C   0  0  0  0  0  0  0  0  0  0  0  0
  -31.1003  -25.3999   25.9039 C   0  0  0  0  0  0  0  0  0  1  0  0
  -25.3295  -29.2283   20.5946 C   0  0  1  0  0  0  0  0  0  0  0  0
  -26.6414  -27.5305   17.4696 C   0  0  2  0  0  0  0  0  0  0  0  0
  -23.8197  -29.5705   20.7392 C   0  0  0  0  0  0  0  0  0  0  0  0
  -25.9965  -11.7674   20.7306 N   0  0  0  0  0  0  0  0  0  0  0  0
  -26.2461  -13.0837   20.6259 N   0  0  0  0  0  0  0  0  0  0  0  0
  -31.3177  -21.6698   25.0785 N   0  0  0  0  0  0  0  0  0  0  0  0
  -27.1037  -30.1130   22.0756 N   0  0  0  0  0  0  0  0  0  0  0  0
  -29.6703  -14.3402   21.7571 N   0  0  0  0  0  0  0  0  0  0  0  0
  -25.1940  -15.2035   20.5239 N   0  0  0  0  0  0  0  0  0  0  0  0
  -21.7247  -12.3346   20.8835 N   0  0  0  0  0  0  0  0  0  0  0  0
  -29.2433  -16.4491   22.7228 N   0  0  0  0  0  0  0  0  0  0  0  0
  -26.6009  -32.9997   23.7440 N   0  0  0  0  0  0  0  0  0  0  0  0
  -25.7346  -28.8737   19.2387 N   0  0  0  0  0  0  0  0  0  0  0  0
  -32.4508  -20.8647   23.2236 N   0  3  0  0  0  0  0  0  0  0  0  0
  -27.8794  -26.7231   17.2784 N   0  3  0  0  0  0  0  0  0  0  0  0
  -22.2995  -14.5456   20.6843 O   0  0  0  0  0  0  0  0  0  0  0  0
  -26.8863  -30.9439   24.7999 O   0  0  0  0  0  0  0  0  0  0  0  0
  -26.1434  -31.4497   20.4242 O   0  0  0  0  0  0  0  0  0  0  0  0
  -26.5558  -26.7689   19.7609 O   0  0  0  0  0  0  0  0  0  0  0  0
  -31.3737  -15.8841   21.9992 O   0  0  0  0  0  0  0  0  0  0  0  0
  -22.0644   -6.7871   21.2635 O   0  0  0  0  0  0  0  0  0  0  0  0
  -29.7777  -25.8928   25.6941 O   0  0  0  0  0  0  0  0  0  1  0  0
  -17.9772   -6.3924   24.9437 F   0  0  0  0  0  0  0  0  0  0  0  0
  -22.2010   -4.9739   23.3459 F   0  0  0  0  0  0  0  0  0  0  0  0
  -28.1065  -18.5889   23.8539 S   0  0  0  0  0  0  0  0  0  0  0  0
  1  2  1  0  0  0  0
  1  5  2  0  0  0  0
  2  6  2  0  0  0  0
  3  8  2  0  0  0  0
  3 17  1  0  0  0  0
  4  9  1  0  0  0  0
  4 17  2  0  0  0  0
  5 20  1  0  0  0  0
  6 22  1  0  0  0  0
  7 10  2  0  0  0  0
  7 21  1  0  0  0  0
  8 24  1  0  0  0  0
  9 24  2  0  0  0  0
 10 25  1  0  0  0  0
 11 12  2  0  0  0  0
 11 26  1  0  0  0  0
 12 27  1  0  0  0  0
 13 18  1  0  0  0  0
 13 31  2  0  0  0  0
 14 23  1  0  0  0  0
 14 25  2  0  0  0  0
 15 27  2  0  0  0  0
 15 28  1  0  0  0  0
 16 18  2  0  0  0  0
 16 86  1  0  0  0  0
 17 29  1  0  0  0  0
 18 34  1  0  0  0  0
 19 29  1  0  0  0  0
 19 30  2  0  0  0  0
 19 35  1  0  0  0  0
 20 22  2  0  0  0  0
 20 40  1  0  0  0  0
 21 23  2  0  0  0  0
 21 41  1  0  0  0  0
 22 52  1  0  0  0  0
 23 42  1  0  0  0  0
 24 82  1  0  0  0  0
 25 83  1  0  0  0  0
 26 28  2  0  0  0  0
 26 82  1  0  0  0  0
 27 84  1  0  0  0  0
 28 85  1  0  0  0  0
 29 65  2  0  0  0  0
 30 66  1  0  0  0  0
 30 70  1  0  0  0  0
 31 72  1  0  0  0  0
 31 86  1  0  0  0  0
 32 33  2  0  0  0  0
 32 43  1  0  0  0  0
 32 61  1  0  0  0  0
 33 55  1  0  0  0  0
 33 67  1  0  0  0  0
 34 67  1  0  0  0  0
 34 75  2  0  0  0  0
 35 71  1  0  0  0  0
 35 77  2  0  0  0  0
 36 53  1  0  0  0  0
 36 73  1  0  0  0  0
 36 78  2  0  0  0  0
 37 62  1  0  0  0  0
 37 68  1  0  0  0  0
 37 79  2  0  0  0  0
 38 63  1  0  0  0  0
 38 74  1  0  0  0  0
 38 80  2  0  0  0  0
 39 69  1  0  0  0  0
 39 72  1  0  0  0  0
 39 81  2  0  0  0  0
 40 44  1  0  0  0  0
 41 53  1  0  0  0  0
 42 68  1  0  0  0  0
 43 45  1  0  0  0  0
 44 47  1  0  0  0  0
 45 49  1  0  0  0  0
 46 48  1  0  0  0  0
 46 50  1  0  0  0  0
 47 52  1  0  0  0  0
 48 54  1  0  0  0  0
 49 67  1  0  0  0  0
 50 69  1  0  0  0  0
 51 54  1  0  0  0  0
 51 69  1  0  0  0  0
 52 73  1  0  0  0  0
 53 68  1  0  0  0  0
 54 66  1  0  0  0  0
 56 63  1  0  0  0  0
 57 64  1  0  0  0  0
 58 64  1  0  0  0  0
 59 64  1  0  0  0  0
 60 76  1  0  0  0  0
 61 83  1  0  0  0  0
 62 64  1  0  0  0  0
 62 74  1  0  0  0  0
 63 76  1  0  0  0  0
 65 66  1  0  0  0  0
M  CHG  2  75   1  76   1
M  ISO  4  39 100  61 101  72 100  83 101
M  END
> <Batch ID>
0154

> <Smiles>
CNC(C)C(=O)NC(C(=O)N1Cc2cc([101O:1][101CH2:1]C3=C(C)N(C(=N)c4csc([100NH:0][100C:0](=O)N5CCCC(n6nc(-c7ccc(Oc8ccc(F)cc8F)cc7)c(C(N)=O)c6N)C5)c4)CCC3)ccc2CC1C(=O)NC1CCCc2ccccc21)C(C)(C)C

> <Shape>
0.304

> <Color>
0.143

> <Negative vol penalty>
0.000

$$$$

  -OEChem-04052303333D

 86 95  0     1  0  0  0  0  0999 V2000
  -16.8055  -30.2112   24.2761 C   0  0  0  0  0  0  0  0  0  0  0  0
  -18.0050  -30.4833   24.9262 C   0  0  0  0  0  0  0  0  0  0  0  0
  -29.4228  -16.9514   19.3421 C   0  0  0  0  0  0  0  0  0  0  0  0
  -27.3724  -17.4701   20.5099 C   0  0  0  0  0  0  0  0  0  0  0  0
  -16.7821  -29.3221   23.2023 C   0  0  0  0  0  0  0  0  0  0  0  0
  -19.1816  -29.8657   24.5036 C   0  0  0  0  0  0  0  0  0  0  0  0
  -24.8129  -32.2727   24.5175 C   0  0  0  0  0  0  0  0  0  0  0  0
  -29.3020  -15.6152   19.7237 C   0  0  0  0  0  0  0  0  0  0  0  0
  -27.2516  -16.1339   20.8914 C   0  0  0  0  0  0  0  0  0  0  0  0
  -25.8823  -32.1523   25.4040 C   0  0  0  0  0  0  0  0  0  0  0  0
  -26.2446  -13.2271   19.4925 C   0  0  0  0  0  0  0  0  0  0  0  0
  -24.9911  -12.6288   19.3642 C   0  0  0  0  0  0  0  0  0  0  0  0
  -26.3711  -25.5476   26.6889 C   0  0  0  0  0  0  0  0  0  0  0  0
  -28.4050  -25.5294   25.3853 C   0  0  0  0  0  0  0  0  0  0  0  0
  -26.8252  -30.4151   24.0211 C   0  0  0  0  0  0  0  0  0  0  0  0
  -26.4078  -24.4790   24.5224 C   0  0  0  0  0  0  0  0  0  0  0  0
  -24.9565  -12.1916   21.7400 C   0  0  0  0  0  0  0  0  0  0  0  0
  -28.4580  -17.8789   19.7353 C   0  0  0  0  0  0  0  0  0  0  0  0
  -27.7148  -25.8916   26.5421 C   0  0  0  0  0  0  0  0  0  0  0  0
  -28.0706  -19.8608   18.1766 C   0  0  0  0  0  0  0  0  0  0  0  0
  -17.9607  -28.7007   22.7602 C   0  0  0  0  0  0  0  0  0  0  0  0
  -24.7360  -31.4563   23.3800 C   0  0  0  0  0  0  0  0  0  0  0  0
  -19.1737  -28.9665   23.4238 C   0  0  0  0  0  0  0  0  0  0  0  0
  -25.7551  -30.5289   23.1204 C   0  0  0  0  0  0  0  0  0  0  0  0
  -25.7175  -24.8413   25.6791 C   0  0  0  0  0  0  0  0  0  0  0  0
  -27.7515  -24.8231   24.3755 C   0  0  0  0  0  0  0  0  0  0  0  0
  -28.2164  -15.2064   20.4983 C   0  0  0  0  0  0  0  0  0  0  0  0
  -26.8871  -31.2214   25.1574 C   0  0  0  0  0  0  0  0  0  0  0  0
  -26.8541  -13.3076   20.7446 C   0  0  0  0  0  0  0  0  0  0  0  0
  -24.3471  -12.1111   20.4879 C   0  0  0  0  0  0  0  0  0  0  0  0
  -26.2100  -12.7899   21.8684 C   0  0  0  0  0  0  0  0  0  0  0  0
  -28.5824  -19.2595   19.3420 C   0  0  0  0  0  0  0  0  0  0  0  0
  -28.4561  -21.1757   18.2711 C   0  0  0  0  0  0  0  0  0  0  0  0
  -28.4055  -26.6378   27.6090 C   0  0  0  0  0  0  0  0  0  0  0  0
  -27.3142  -19.2826   17.1046 C   0  0  0  0  0  0  0  0  0  0  0  0
  -22.6895  -29.2639   22.3268 C   0  0  0  0  0  0  0  0  0  0  0  0
  -24.5679  -29.3434   19.6834 C   0  0  0  0  0  0  0  0  0  0  0  0
  -27.6186  -30.0306   18.3166 C   0  0  0  0  0  0  0  0  0  0  0  0
  -29.7878  -24.7171   22.8960 C   0  0  0  0  0  0  0  0  0  0  0  0
  -17.8777  -27.7108   21.6253 C   0  0  0  0  0  0  0  0  0  0  0  0
  -23.5896  -31.6170   22.4196 C   0  0  0  0  0  0  0  0  0  0  0  0
  -25.7298  -29.6428   21.9028 C   0  0  0  0  0  0  0  0  0  0  0  0
  -19.2321  -27.3852   21.0009 C   0  0  0  0  0  0  0  0  0  0  0  0
  -31.8918  -23.9467   20.1290 C   0  0  0  0  0  0  0  0  0  0  0  0
  -20.2670  -27.1062   22.0861 C   0  0  0  0  0  0  0  0  0  0  0  0
  -31.2319  -22.7156   19.5035 C   0  0  0  0  0  0  0  0  0  0  0  0
  -29.0482  -30.1698   27.9584 C   0  0  0  0  0  0  0  0  0  0  0  0
  -31.7910  -23.9313   21.6532 C   0  0  0  0  0  0  0  0  0  0  0  0
  -29.0613  -28.7898   28.6018 C   0  0  0  0  0  0  0  0  0  0  0  0
  -29.7738  -22.5203   21.5584 C   0  0  0  0  0  0  0  0  0  0  0  0
  -27.7334  -28.7477   26.5349 C   0  0  0  0  0  0  0  0  0  0  0  0
  -20.4752  -28.3354   22.9790 C   0  0  1  0  0  0  0  0  0  0  0  0
  -23.3491  -30.3774   21.5634 C   0  0  1  0  0  0  0  0  0  0  0  0
  -29.7929  -22.5234   20.0211 C   0  0  2  0  0  0  0  0  0  0  0  0
  -27.7847  -30.1758   27.0889 C   0  0  1  0  0  0  0  0  0  1  0  0
  -26.5289  -30.5264   27.8848 C   0  0  0  0  0  0  0  0  0  0  0  0
  -28.8622  -29.9597   16.1381 C   0  0  0  0  0  0  0  0  0  0  0  0
  -24.8495  -26.3165   19.9454 C   0  0  0  0  0  0  0  0  0  0  0  0
  -26.8027  -26.4329   18.3835 C   0  0  0  0  0  0  0  0  0  0  0  0
  -24.5403  -27.1365   17.6031 C   0  0  0  0  0  0  0  0  0  0  0  0
  -28.0702  -32.9553   18.3460 C   0  0  0  0  0  0  0  0  0  0  0  0
  -25.8035  -28.6056   19.2273 C   0  0  1  0  0  0  0  0  0  0  0  0
  -28.0135  -30.8070   17.0733 C   0  0  2  0  0  0  0  0  0  0  0  0
  -25.4988  -27.1381   18.8139 C   0  0  0  0  0  0  0  0  0  0  0  0
  -29.2428  -20.1215   20.1197 N   0  0  0  0  0  0  0  0  0  0  0  0
  -29.1487  -21.2780   19.4415 N   0  0  0  0  0  0  0  0  0  0  0  0
  -28.4015  -27.9583   27.5842 N   0  0  0  0  0  0  0  0  0  0  0  0
  -24.5849  -29.8332   20.9970 N   0  0  0  0  0  0  0  0  0  0  0  0
  -30.3988  -23.7500   22.0701 N   0  0  0  0  0  0  0  0  0  0  0  0
  -24.3590  -24.4929   25.8278 N   0  0  0  0  0  0  0  0  0  0  0  0
  -28.2668  -22.2429   17.4662 N   0  0  0  0  0  0  0  0  0  0  0  0
  -27.0046  -17.9170   17.1660 N   0  0  0  0  0  0  0  0  0  0  0  0
  -28.4525  -24.4547   23.2004 N   0  0  0  0  0  0  0  0  0  0  0  0
  -21.3086  -29.3110   22.3096 N   0  0  0  0  0  0  0  0  0  0  0  0
  -26.3940  -29.4148   18.1667 N   0  0  0  0  0  0  0  0  0  0  0  0
  -29.0202  -25.9699   28.5807 N   0  3  0  0  0  0  0  0  0  0  0  0
  -28.7939  -32.0205   17.4465 N   0  3  0  0  0  0  0  0  0  0  0  0
  -26.9386  -19.9533   16.1133 O   0  0  0  0  0  0  0  0  0  0  0  0
  -23.3821  -28.4234   22.8884 O   0  0  0  0  0  0  0  0  0  0  0  0
  -23.6254  -29.4861   18.9005 O   0  0  0  0  0  0  0  0  0  0  0  0
  -28.3274  -29.9729   19.3190 O   0  0  0  0  0  0  0  0  0  0  0  0
  -30.3956  -25.7193   23.2808 O   0  0  0  0  0  0  0  0  0  0  0  0
  -28.0982  -13.9026   20.8705 O   0  0  0  0  0  0  0  0  0  0  0  0
  -27.9317  -31.1014   26.0213 O   0  0  0  0  0  0  0  0  0  1  0  0
  -23.1427  -11.5380   20.3647 F   0  0  0  0  0  0  0  0  0  0  0  0
  -26.7900  -12.8654   23.0741 F   0  0  0  0  0  0  0  0  0  0  0  0
  1  2  1  0  0  0  0
  1  5  2  0  0  0  0
  2  6  2  0  0  0  0
  3  8  2  0  0  0  0
  3 18  1  0  0  0  0
  4  9  1  0  0  0  0
  4 18  2  0  0  0  0
  5 21  1  0  0  0  0
  6 23  1  0  0  0  0
  7 10  2  0  0  0  0
  7 22  1  0  0  0  0
  8 27  1  0  0  0  0
  9 27  2  0  0  0  0
 10 28  1  0  0  0  0
 11 12  2  0  0  0  0
 11 29  1  0  0  0  0
 12 30  1  0  0  0  0
 13 19  1  0  0  0  0
 13 25  2  0  0  0  0
 14 19  2  0  0  0  0
 14 26  1  0  0  0  0
 15 24  1  0  0  0  0
 15 28  2  0  0  0  0
 16 25  1  0  0  0  0
 16 26  2  0  0  0  0
 17 30  2  0  0  0  0
 17 31  1  0  0  0  0
 18 32  1  0  0  0  0
 19 34  1  0  0  0  0
 20 32  1  0  0  0  0
 20 33  2  0  0  0  0
 20 35  1  0  0  0  0
 21 23  2  0  0  0  0
 21 40  1  0  0  0  0
 22 24  2  0  0  0  0
 22 41  1  0  0  0  0
 23 52  1  0  0  0  0
 24 42  1  0  0  0  0
 25 70  1  0  0  0  0
 26 73  1  0  0  0  0
 27 83  1  0  0  0  0
 28 84  1  0  0  0  0
 29 31  2  0  0  0  0
 29 83  1  0  0  0  0
 30 85  1  0  0  0  0
 31 86  1  0  0  0  0
 32 65  2  0  0  0  0
 33 66  1  0  0  0  0
 33 71  1  0  0  0  0
 34 67  1  0  0  0  0
 34 76  2  0  0  0  0
 35 72  1  0  0  0  0
 35 78  2  0  0  0  0
 36 53  1  0  0  0  0
 36 74  1  0  0  0  0
 36 79  2  0  0  0  0
 37 62  1  0  0  0  0
 37 68  1  0  0  0  0
 37 80  2  0  0  0  0
 38 63  1  0  0  0  0
 38 75  1  0  0  0  0
 38 81  2  0  0  0  0
 39 69  1  0  0  0  0
 39 73  1  0  0  0  0
 39 82  2  0  0  0  0
 40 43  1  0  0  0  0
 41 53  1  0  0  0  0
 42 68  1  0  0  0  0
 43 45  1  0  0  0  0
 44 46  1  0  0  0  0
 44 48  1  0  0  0  0
 45 52  1  0  0  0  0
 46 54  1  0  0  0  0
 47 49  1  0  0  0  0
 47 55  1  0  0  0  0
 48 69  1  0  0  0  0
 49 67  1  0  0  0  0
 50 54  1  0  0  0  0
 50 69  1  0  0  0  0
 51 55  1  0  0  0  0
 51 67  1  0  0  0  0
 52 74  1  0  0  0  0
 53 68  1  0  0  0  0
 54 66  1  0  0  0  0
 55 56  1  0  0  0  0
 55 84  1  0  0  0  0
 57 63  1  0  0  0  0
 58 64  1  0  0  0  0
 59 64  1  0  0  0  0
 60 64  1  0  0  0  0
 61 77  1  0  0  0  0
 62 64  1  0  0  0  0
 62 75  1  0  0  0  0
 63 77  1  0  0  0  0
 65 66  1  0  0  0  0
M  CHG  2  76   1  77   1
M  ISO  4  39 100  55 101  73 100  84 101
M  END
> <Batch ID>
0154

> <Smiles>
CNC(C)C(=O)NC(C(=O)N1Cc2cc([101O:1][101C:1]3(C)CCN(C(=N)c4cc(N)cc([100NH:0][100C:0](=O)N5CCCC(n6nc(-c7ccc(Oc8ccc(F)cc8F)cc7)c(C(N)=O)c6N)C5)c4)C3)ccc2CC1C(=O)NC1CCCc2ccccc21)C(C)(C)C

> <Shape>
0.280

> <Color>
0.098

> <Negative vol penalty>
0.000

$$$$

  -OEChem-04052303333D

 84 92  0     1  0  0  0  0  0999 V2000
  -30.1371  -20.6871   23.1342 C   0  0  0  0  0  0  0  0  0  0  0  0
  -28.9242  -20.7939   22.4612 C   0  0  0  0  0  0  0  0  0  0  0  0
  -24.4790  -28.9030   22.3560 C   0  0  0  0  0  0  0  0  0  0  0  0
  -24.9628  -30.5114   20.6194 C   0  0  0  0  0  0  0  0  0  0  0  0
  -30.7580  -19.4448   23.2566 C   0  0  0  0  0  0  0  0  0  0  0  0
  -28.3321  -19.6584   21.9091 C   0  0  0  0  0  0  0  0  0  0  0  0
  -23.3652  -19.3996   22.8615 C   0  0  0  0  0  0  0  0  0  0  0  0
  -24.0646  -29.9357   23.1971 C   0  0  0  0  0  0  0  0  0  0  0  0
  -24.5483  -31.5441   21.4604 C   0  0  0  0  0  0  0  0  0  0  0  0
  -22.5263  -20.2030   22.0905 C   0  0  0  0  0  0  0  0  0  0  0  0
  -25.8111  -33.2991   24.0597 C   0  0  0  0  0  0  0  0  0  0  0  0
  -26.6097  -34.4408   24.1262 C   0  0  0  0  0  0  0  0  0  0  0  0
  -21.9848  -18.3013   20.7087 C   0  0  0  0  0  0  0  0  0  0  0  0
  -25.7453  -20.8118   18.5837 C   0  0  0  0  0  0  0  0  0  0  0  0
  -24.7588  -35.7812   23.3422 C   0  0  0  0  0  0  0  0  0  0  0  0
  -25.0517  -18.7409   17.7885 C   0  0  0  0  0  0  0  0  0  0  0  0
  -24.9282  -29.1908   21.0672 C   0  0  0  0  0  0  0  0  0  0  0  0
  -24.5625  -27.3908   19.2970 C   0  0  0  0  0  0  0  0  0  0  0  0
  -30.1685  -18.2920   22.7142 C   0  0  0  0  0  0  0  0  0  0  0  0
  -23.5289  -18.0411   22.5548 C   0  0  0  0  0  0  0  0  0  0  0  0
  -28.9465  -18.3998   22.0232 C   0  0  0  0  0  0  0  0  0  0  0  0
  -22.8244  -17.4821   21.4790 C   0  0  0  0  0  0  0  0  0  0  0  0
  -24.6484  -19.9339   18.3466 C   0  0  0  0  0  0  0  0  0  0  0  0
  -24.0992  -31.2563   22.7493 C   0  0  0  0  0  0  0  0  0  0  0  0
  -21.8382  -19.6546   21.0122 C   0  0  0  0  0  0  0  0  0  0  0  0
  -24.4864  -33.3985   23.6343 C   0  0  0  0  0  0  0  0  0  0  0  0
  -26.0836  -35.6818   23.7675 C   0  0  0  0  0  0  0  0  0  0  0  0
  -23.9602  -34.6395   23.2756 C   0  0  0  0  0  0  0  0  0  0  0  0
  -25.3570  -28.1245   20.1982 C   0  0  0  0  0  0  0  0  0  0  0  0
  -26.9455  -20.2561   18.1979 C   0  0  0  0  0  0  0  0  0  0  0  0
  -25.4339  -26.5023   18.7157 C   0  0  0  0  0  0  0  0  0  0  0  0
  -23.1620  -27.5023   19.0108 C   0  0  0  0  0  0  0  0  0  0  0  0
  -28.3096  -20.8392   18.2755 C   0  0  0  0  0  0  0  0  0  0  0  0
  -25.9840  -16.2169   21.6895 C   0  0  0  0  0  0  0  0  0  0  0  0
  -23.8150  -13.8254   22.0035 C   0  0  0  0  0  0  0  0  0  0  0  0
  -20.5391  -12.8686   22.0184 C   0  0  0  0  0  0  0  0  0  0  0  0
  -22.1841  -19.4198   18.4354 C   0  0  0  0  0  0  0  0  0  0  0  0
  -29.5750  -22.8334   19.0139 C   0  0  0  0  0  0  0  0  0  0  0  0
  -30.9007  -16.9786   22.8309 C   0  0  0  0  0  0  0  0  0  0  0  0
  -24.4168  -17.1818   23.4125 C   0  0  0  0  0  0  0  0  0  0  0  0
  -22.9499  -16.0247   21.1204 C   0  0  0  0  0  0  0  0  0  0  0  0
  -30.0225  -15.7639   22.5422 C   0  0  0  0  0  0  0  0  0  0  0  0
  -30.4892  -26.2462   18.8949 C   0  0  0  0  0  0  0  0  0  0  0  0
  -29.2023  -15.9870   21.2755 C   0  0  0  0  0  0  0  0  0  0  0  0
  -29.1695  -26.9824   19.1412 C   0  0  0  0  0  0  0  0  0  0  0  0
  -30.5951  -24.9746   19.7355 C   0  0  0  0  0  0  0  0  0  0  0  0
  -28.1441  -24.7894   19.8649 C   0  0  0  0  0  0  0  0  0  0  0  0
  -28.2606  -17.1871   21.4323 C   0  0  1  0  0  0  0  0  0  0  0  0
  -24.9068  -15.9272   22.6962 C   0  0  1  0  0  0  0  0  0  0  0  0
  -27.9589  -26.0395   18.9895 C   0  0  1  0  0  0  0  0  0  0  0  0
  -19.0801  -10.8415   22.2621 C   0  0  0  0  0  0  0  0  0  0  0  0
  -20.6185  -21.3825   18.1185 C   0  0  0  0  0  0  0  0  0  0  0  0
  -19.6826  -19.1299   18.7637 C   0  0  0  0  0  0  0  0  0  0  0  0
  -24.5342  -12.9694   19.1645 C   0  0  0  0  0  0  0  0  0  0  0  0
  -22.4391  -11.5994   19.1213 C   0  0  0  0  0  0  0  0  0  0  0  0
  -24.2313  -11.0826   20.7778 C   0  0  0  0  0  0  0  0  0  0  0  0
  -19.2053  -13.9740   24.4179 C   0  0  0  0  0  0  0  0  0  0  0  0
  -22.8197  -13.1574   21.0857 C   0  0  1  0  0  0  0  0  0  0  0  0
  -19.7468  -12.0035   22.9818 C   0  0  2  0  0  0  0  0  0  0  0  0
  -20.8701  -20.0843   18.8828 C   0  0  0  0  0  0  0  0  0  1  0  0
  -23.5050  -12.2301   20.0426 C   0  0  0  0  0  0  0  0  0  0  0  0
  -26.6349  -27.7359   20.1935 N   0  0  0  0  0  0  0  0  0  0  0  0
  -26.6500  -26.7482   19.2823 N   0  0  0  0  0  0  0  0  0  0  0  0
  -23.8350  -15.2272   21.9853 N   0  0  0  0  0  0  0  0  0  0  0  0
  -29.4159  -24.1321   19.5281 N   0  0  0  0  0  0  0  0  0  0  0  0
  -25.2709  -25.5426   17.7805 N   0  0  0  0  0  0  0  0  0  0  0  0
  -22.4145  -28.4683   19.6982 N   0  0  0  0  0  0  0  0  0  0  0  0
  -23.2957  -20.2296   18.6417 N   0  0  0  0  0  0  0  0  0  0  0  0
  -28.3854  -22.1248   18.8121 N   0  0  0  0  0  0  0  0  0  0  0  0
  -27.1051  -16.8228   22.2237 N   0  0  0  0  0  0  0  0  0  0  0  0
  -21.8598  -12.4784   21.9494 N   0  0  0  0  0  0  0  0  0  0  0  0
  -18.6885  -12.8105   23.6523 N   0  3  0  0  0  0  0  0  0  0  0  0
  -22.5872  -26.7562   18.1823 O   0  0  0  0  0  0  0  0  0  0  0  0
  -29.2696  -20.1651   17.9123 O   0  0  0  0  0  0  0  0  0  0  0  0
  -25.8113  -15.9119   20.5153 O   0  0  0  0  0  0  0  0  0  0  0  0
  -24.5427  -13.1291   22.7157 O   0  0  0  0  0  0  0  0  0  0  0  0
  -20.0359  -13.7953   21.3871 O   0  0  0  0  0  0  0  0  0  0  0  0
  -22.1829  -18.2892   17.9528 O   0  0  0  0  0  0  0  0  0  0  0  0
  -30.6778  -22.3594   18.7234 O   0  0  0  0  0  0  0  0  0  0  0  0
  -23.6946  -32.2642   23.5696 O   0  0  0  0  0  0  0  0  0  0  0  0
  -21.0192  -20.4367   20.2576 O   0  0  0  0  0  0  0  0  0  1  0  0
  -26.8501  -36.7783   23.8329 F   0  0  0  0  0  0  0  0  0  0  0  0
  -22.6879  -34.7413   22.8673 F   0  0  0  0  0  0  0  0  0  0  0  0
  -26.7468  -18.6824   17.5527 S   0  0  0  0  0  0  0  0  0  0  0  0
  1  2  1  0  0  0  0
  1  5  2  0  0  0  0
  2  6  2  0  0  0  0
  3  8  2  0  0  0  0
  3 17  1  0  0  0  0
  4  9  1  0  0  0  0
  4 17  2  0  0  0  0
  5 19  1  0  0  0  0
  6 21  1  0  0  0  0
  7 10  2  0  0  0  0
  7 20  1  0  0  0  0
  8 24  1  0  0  0  0
  9 24  2  0  0  0  0
 10 25  1  0  0  0  0
 11 12  2  0  0  0  0
 11 26  1  0  0  0  0
 12 27  1  0  0  0  0
 13 22  1  0  0  0  0
 13 25  2  0  0  0  0
 14 23  1  0  0  0  0
 14 30  2  0  0  0  0
 15 27  2  0  0  0  0
 15 28  1  0  0  0  0
 16 23  2  0  0  0  0
 16 84  1  0  0  0  0
 17 29  1  0  0  0  0
 18 29  1  0  0  0  0
 18 31  2  0  0  0  0
 18 32  1  0  0  0  0
 19 21  2  0  0  0  0
 19 39  1  0  0  0  0
 20 22  2  0  0  0  0
 20 40  1  0  0  0  0
 21 48  1  0  0  0  0
 22 41  1  0  0  0  0
 23 68  1  0  0  0  0
 24 80  1  0  0  0  0
 25 81  1  0  0  0  0
 26 28  2  0  0  0  0
 26 80  1  0  0  0  0
 27 82  1  0  0  0  0
 28 83  1  0  0  0  0
 29 62  2  0  0  0  0
 30 33  1  0  0  0  0
 30 84  1  0  0  0  0
 31 63  1  0  0  0  0
 31 66  1  0  0  0  0
 32 67  1  0  0  0  0
 32 73  2  0  0  0  0
 33 69  1  0  0  0  0
 33 74  2  0  0  0  0
 34 49  1  0  0  0  0
 34 70  1  0  0  0  0
 34 75  2  0  0  0  0
 35 58  1  0  0  0  0
 35 64  1  0  0  0  0
 35 76  2  0  0  0  0
 36 59  1  0  0  0  0
 36 71  1  0  0  0  0
 36 77  2  0  0  0  0
 37 60  1  0  0  0  0
 37 68  1  0  0  0  0
 37 78  2  0  0  0  0
 38 65  1  0  0  0  0
 38 69  1  0  0  0  0
 38 79  2  0  0  0  0
 39 42  1  0  0  0  0
 40 49  1  0  0  0  0
 41 64  1  0  0  0  0
 42 44  1  0  0  0  0
 43 45  1  0  0  0  0
 43 46  1  0  0  0  0
 44 48  1  0  0  0  0
 45 50  1  0  0  0  0
 46 65  1  0  0  0  0
 47 50  1  0  0  0  0
 47 65  1  0  0  0  0
 48 70  1  0  0  0  0
 49 64  1  0  0  0  0
 50 63  1  0  0  0  0
 51 59  1  0  0  0  0
 52 60  1  0  0  0  0
 53 60  1  0  0  0  0
 54 61  1  0  0  0  0
 55 61  1  0  0  0  0
 56 61  1  0  0  0  0
 57 72  1  0  0  0  0
 58 61  1  0  0  0  0
 58 71  1  0  0  0  0
 59 72  1  0  0  0  0
 60 81  1  0  0  0  0
 62 63  1  0  0  0  0
M  CHG  1  72   1
M  ISO  4  38 100  60 101  69 100  81 101
M  END
> <Batch ID>
0154

> <Smiles>
CNC(C)C(=O)NC(C(=O)N1Cc2cc([101O:1][101C:1](C)(C)C(=O)Nc3csc(C(=O)[100NH:0][100C:0](=O)N4CCCC(n5nc(-c6ccc(Oc7ccc(F)cc7F)cc6)c(C(N)=O)c5N)C4)c3)ccc2CC1C(=O)NC1CCCc2ccccc21)C(C)(C)C

> <Shape>
0.229

> <Color>
0.055

> <Negative vol penalty>
0.000

$$$$

  -OEChem-04052303333D

 84 93  0     1  0  0  0  0  0999 V2000
  -29.6621  -35.6055   15.2823 C   0  0  0  0  0  0  0  0  0  0  0  0
  -30.1759  -34.6162   16.1146 C   0  0  0  0  0  0  0  0  0  0  0  0
  -23.0455   -9.8641   19.9758 C   0  0  0  0  0  0  0  0  0  0  0  0
  -23.7900   -9.9089   22.2737 C   0  0  0  0  0  0  0  0  0  0  0  0
  -28.4381  -35.4111   14.6436 C   0  0  0  0  0  0  0  0  0  0  0  0
  -29.4654  -33.4323   16.3095 C   0  0  0  0  0  0  0  0  0  0  0  0
  -30.4832  -26.4388   17.4806 C   0  0  0  0  0  0  0  0  0  0  0  0
  -22.2771   -8.7319   20.2468 C   0  0  0  0  0  0  0  0  0  0  0  0
  -23.0216   -8.7768   22.5448 C   0  0  0  0  0  0  0  0  0  0  0  0
  -30.0970  -25.4262   18.3577 C   0  0  0  0  0  0  0  0  0  0  0  0
  -19.7743   -8.0571   23.1424 C   0  0  0  0  0  0  0  0  0  0  0  0
  -19.0089   -8.0591   24.3085 C   0  0  0  0  0  0  0  0  0  0  0  0
  -31.6442  -18.3189   19.9093 C   0  0  0  0  0  0  0  0  0  0  0  0
  -31.1116  -19.3793   19.1207 C   0  0  0  0  0  0  0  0  0  0  0  0
  -28.0307  -25.1677   17.1400 C   0  0  0  0  0  0  0  0  0  0  0  0
  -20.2065   -6.1150   25.0980 C   0  0  0  0  0  0  0  0  0  0  0  0
  -23.8020  -10.4526   20.9892 C   0  0  0  0  0  0  0  0  0  0  0  0
  -24.1949  -12.9670   20.8138 C   0  0  0  0  0  0  0  0  0  0  0  0
  -27.7169  -34.2203   14.8231 C   0  0  0  0  0  0  0  0  0  0  0  0
  -29.6398  -26.8315   16.4313 C   0  0  0  0  0  0  0  0  0  0  0  0
  -28.2299  -33.2224   15.6735 C   0  0  0  0  0  0  0  0  0  0  0  0
  -28.4096  -26.1837   16.2494 C   0  0  0  0  0  0  0  0  0  0  0  0
  -22.2652   -8.1883   21.5313 C   0  0  0  0  0  0  0  0  0  0  0  0
  -28.8694  -24.7925   18.1892 C   0  0  0  0  0  0  0  0  0  0  0  0
  -20.7557   -7.0839   22.9540 C   0  0  0  0  0  0  0  0  0  0  0  0
  -19.2250   -7.0881   25.2863 C   0  0  0  0  0  0  0  0  0  0  0  0
  -20.9719   -6.1129   23.9319 C   0  0  0  0  0  0  0  0  0  0  0  0
  -24.5963  -11.6217   20.7097 C   0  0  0  0  0  0  0  0  0  0  0  0
  -30.7366  -17.8579   20.8374 C   0  0  0  0  0  0  0  0  0  0  0  0
  -25.3041  -13.6862   20.4412 C   0  0  0  0  0  0  0  0  0  0  0  0
  -29.8169  -19.6883   19.4760 C   0  0  0  0  0  0  0  0  0  0  0  0
  -22.9321  -13.5174   21.2117 C   0  0  0  0  0  0  0  0  0  0  0  0
  -29.5210  -21.2682   16.5673 C   0  0  0  0  0  0  0  0  0  0  0  0
  -28.1582  -29.5283   15.6337 C   0  0  0  0  0  0  0  0  0  0  0  0
  -27.3802  -27.8543   12.9664 C   0  0  0  0  0  0  0  0  0  0  0  0
  -26.9014  -24.8148   11.4903 C   0  0  0  0  0  0  0  0  0  0  0  0
  -30.8057  -14.6007   20.6452 C   0  0  0  0  0  0  0  0  0  0  0  0
  -26.3756  -34.0752   14.1488 C   0  0  0  0  0  0  0  0  0  0  0  0
  -30.0827  -27.9072   15.4777 C   0  0  0  0  0  0  0  0  0  0  0  0
  -27.4767  -26.5543   15.1265 C   0  0  0  0  0  0  0  0  0  0  0  0
  -25.8643  -32.6373   14.1127 C   0  0  0  0  0  0  0  0  0  0  0  0
  -29.6368  -12.1847   18.3057 C   0  0  0  0  0  0  0  0  0  0  0  0
  -26.0248  -31.9792   15.4794 C   0  0  0  0  0  0  0  0  0  0  0  0
  -28.1909  -11.9295   18.7350 C   0  0  0  0  0  0  0  0  0  0  0  0
  -30.5501  -12.4150   19.5077 C   0  0  0  0  0  0  0  0  0  0  0  0
  -28.6541  -13.2153   20.8636 C   0  0  0  0  0  0  0  0  0  0  0  0
  -28.0121  -21.3794   19.5637 C   0  0  0  0  0  0  0  0  0  0  0  0
  -27.5007  -31.9142   15.8905 C   0  0  1  0  0  0  0  0  0  0  0  0
  -29.4513  -21.6816   18.0398 C   0  0  1  0  0  0  0  0  0  0  0  0
  -28.9203  -28.5789   14.7531 C   0  0  1  0  0  0  0  0  0  0  0  0
  -27.6845  -13.0329   19.6834 C   0  0  2  0  0  0  0  0  0  0  0  0
  -28.2236  -22.4814   18.5223 C   0  0  2  0  0  0  0  0  0  1  0  0
  -30.4248  -22.0793   15.6787 C   0  0  0  0  0  0  0  0  0  0  0  0
  -26.2321  -23.7671    9.3104 C   0  0  0  0  0  0  0  0  0  0  0  0
  -24.4651  -28.5623   13.5239 C   0  0  0  0  0  0  0  0  0  0  0  0
  -23.7933  -26.7543   11.9277 C   0  0  0  0  0  0  0  0  0  0  0  0
  -25.1296  -28.6984   11.1168 C   0  0  0  0  0  0  0  0  0  0  0  0
  -29.5052  -23.4338   11.2214 C   0  0  0  0  0  0  0  0  0  0  0  0
  -30.9062  -16.7775   21.8329 C   0  0  0  0  0  0  0  0  0  0  0  0
  -26.2396  -26.9497   12.5667 C   0  0  1  0  0  0  0  0  0  0  0  0
  -27.3909  -24.2480   10.1698 C   0  0  2  0  0  0  0  0  0  0  0  0
  -24.9234  -27.7353   12.3062 C   0  0  0  0  0  0  0  0  0  0  0  0
  -25.8618  -11.4913   20.3028 N   0  0  0  0  0  0  0  0  0  0  0  0
  -26.2651  -12.7639   20.1478 N   0  0  0  0  0  0  0  0  0  0  0  0
  -29.0426  -20.6358   18.9244 N   0  0  1  0  0  0  0  0  0  0  0  0
  -27.9519  -27.6162   14.2243 N   0  0  0  0  0  0  0  0  0  0  0  0
  -30.0142  -13.4744   20.3659 N   0  0  0  0  0  0  0  0  0  0  0  0
  -25.5415  -15.0112   20.3392 N   0  0  0  0  0  0  0  0  0  0  0  0
  -21.9001  -12.6364   21.5625 N   0  0  0  0  0  0  0  0  0  0  0  0
  -28.1725  -30.8382   15.1939 N   0  0  0  0  0  0  0  0  0  0  0  0
  -26.7120  -26.1788   11.4217 N   0  0  0  0  0  0  0  0  0  0  0  0
  -30.2196  -15.5603   21.4615 N   0  0  0  0  0  0  0  0  0  0  0  0
  -28.3083  -23.0979   10.4081 N   0  3  0  0  0  0  0  0  0  0  0  0
  -22.7201  -14.7534   21.2391 O   0  0  0  0  0  0  0  0  0  0  0  0
  -28.8717  -20.3183   16.1324 O   0  0  0  0  0  0  0  0  0  0  0  0
  -27.5974  -29.1036   16.6372 O   0  0  0  0  0  0  0  0  0  0  0  0
  -27.7549  -28.7349   12.1881 O   0  0  0  0  0  0  0  0  0  0  0  0
  -26.7031  -24.1167   12.4822 O   0  0  0  0  0  0  0  0  0  0  0  0
  -31.9479  -14.7431   20.1958 O   0  0  0  0  0  0  0  0  0  0  0  0
  -21.5153   -7.0837   21.7962 O   0  0  0  0  0  0  0  0  0  0  0  0
  -28.4897  -23.8043   19.0443 O   0  0  0  0  0  0  0  0  0  1  0  0
  -18.4910   -7.0911   26.4067 F   0  0  0  0  0  0  0  0  0  0  0  0
  -21.9141   -5.1762   23.7571 F   0  0  0  0  0  0  0  0  0  0  0  0
  -29.2491  -18.7023   20.7557 S   0  0  0  0  0  0  0  0  0  0  0  0
  1  2  1  0  0  0  0
  1  5  2  0  0  0  0
  2  6  2  0  0  0  0
  3  8  2  0  0  0  0
  3 17  1  0  0  0  0
  4  9  1  0  0  0  0
  4 17  2  0  0  0  0
  5 19  1  0  0  0  0
  6 21  1  0  0  0  0
  7 10  2  0  0  0  0
  7 20  1  0  0  0  0
  8 23  1  0  0  0  0
  9 23  2  0  0  0  0
 10 24  1  0  0  0  0
 11 12  2  0  0  0  0
 11 25  1  0  0  0  0
 12 26  1  0  0  0  0
 13 14  1  0  0  0  0
 13 29  2  0  0  0  0
 14 31  2  0  0  0  0
 15 22  1  0  0  0  0
 15 24  2  0  0  0  0
 16 26  2  0  0  0  0
 16 27  1  0  0  0  0
 17 28  1  0  0  0  0
 18 28  1  0  0  0  0
 18 30  2  0  0  0  0
 18 32  1  0  0  0  0
 19 21  2  0  0  0  0
 19 38  1  0  0  0  0
 20 22  2  0  0  0  0
 20 39  1  0  0  0  0
 21 48  1  0  0  0  0
 22 40  1  0  0  0  0
 23 80  1  0  0  0  0
 24 81  1  0  0  0  0
 25 27  2  0  0  0  0
 25 80  1  0  0  0  0
 26 82  1  0  0  0  0
 27 83  1  0  0  0  0
 28 63  2  0  0  0  0
 29 59  1  0  0  0  0
 29 84  1  0  0  0  0
 30 64  1  0  0  0  0
 30 68  1  0  0  0  0
 31 65  1  0  0  0  0
 31 84  1  0  0  0  0
 32 69  1  0  0  0  0
 32 74  2  0  0  0  0
 33 49  1  0  0  0  0
 33 53  1  0  0  0  0
 33 75  2  0  0  0  0
 34 50  1  0  0  0  0
 34 70  1  0  0  0  0
 34 76  2  0  0  0  0
 35 60  1  0  0  0  0
 35 66  1  0  0  0  0
 35 77  2  0  0  0  0
 36 61  1  0  0  0  0
 36 71  1  0  0  0  0
 36 78  2  0  0  0  0
 37 67  1  0  0  0  0
 37 72  1  0  0  0  0
 37 79  2  0  0  0  0
 38 41  1  0  0  0  0
 39 50  1  0  0  0  0
 40 66  1  0  0  0  0
 41 43  1  0  0  0  0
 42 44  1  0  0  0  0
 42 45  1  0  0  0  0
 43 48  1  0  0  0  0
 44 51  1  0  0  0  0
 45 67  1  0  0  0  0
 46 51  1  0  0  0  0
 46 67  1  0  0  0  0
 47 52  1  0  0  0  0
 47 65  1  0  0  0  0
 48 70  1  0  0  0  0
 49 52  1  0  0  0  0
 49 65  1  0  0  0  0
 50 66  1  0  0  0  0
 51 64  1  0  0  0  0
 52 81  1  0  0  0  0
 54 61  1  0  0  0  0
 55 62  1  0  0  0  0
 56 62  1  0  0  0  0
 57 62  1  0  0  0  0
 58 73  1  0  0  0  0
 59 72  1  0  0  0  0
 60 62  1  0  0  0  0
 60 71  1  0  0  0  0
 61 73  1  0  0  0  0
 63 64  1  0  0  0  0
M  CHG  1  73   1
M  ISO  4  37 100  52 101  72 100  81 101
M  END
> <Batch ID>
0154

> <Smiles>
CNC(C)C(=O)NC(C(=O)N1Cc2cc([101O:1][101CH:1]3CN(c4ccc(C[100NH:0][100C:0](=O)N5CCCC(n6nc(-c7ccc(Oc8ccc(F)cc8F)cc7)c(C(N)=O)c6N)C5)s4)C3C(C)=O)ccc2CC1C(=O)NC1CCCc2ccccc21)C(C)(C)C

> <Shape>
0.219

> <Color>
0.199

> <Negative vol penalty>
0.000

$$$$

  -OEChem-04052303333D

 85 94  0     1  0  0  0  0  0999 V2000
  -19.0887  -12.0611   24.9320 C   0  0  0  0  0  0  0  0  0  0  0  0
  -20.2296  -12.1035   25.7270 C   0  0  0  0  0  0  0  0  0  0  0  0
  -22.9996   -9.8943   19.9820 C   0  0  0  0  0  0  0  0  0  0  0  0
  -23.7296   -9.9442   22.2845 C   0  0  0  0  0  0  0  0  0  0  0  0
  -18.6076  -13.2293   24.3423 C   0  0  0  0  0  0  0  0  0  0  0  0
  -20.8907  -13.3140   25.9318 C   0  0  0  0  0  0  0  0  0  0  0  0
  -30.0984  -16.7821   24.3837 C   0  0  0  0  0  0  0  0  0  0  0  0
  -24.6871  -16.8337   30.8831 C   0  0  0  0  0  0  0  0  0  0  0  0
  -29.7259  -17.5521   25.4880 C   0  0  0  0  0  0  0  0  0  0  0  0
  -22.2346   -8.7589   20.2491 C   0  0  0  0  0  0  0  0  0  0  0  0
  -22.9646   -8.8089   22.5517 C   0  0  0  0  0  0  0  0  0  0  0  0
  -25.9003  -17.5036   31.0350 C   0  0  0  0  0  0  0  0  0  0  0  0
  -21.4883   -5.7136   23.7560 C   0  0  0  0  0  0  0  0  0  0  0  0
  -22.0768   -4.6978   24.5092 C   0  0  0  0  0  0  0  0  0  0  0  0
  -29.9173  -19.5970   24.1849 C   0  0  0  0  0  0  0  0  0  0  0  0
  -24.9326  -19.4717   30.0304 C   0  0  0  0  0  0  0  0  0  0  0  0
  -23.7999   -4.4534   22.8333 C   0  0  0  0  0  0  0  0  0  0  0  0
  -23.7471  -10.4869   20.9997 C   0  0  0  0  0  0  0  0  0  0  0  0
  -24.1299  -13.0029   20.8246 C   0  0  0  0  0  0  0  0  0  0  0  0
  -19.2576  -14.4565   24.5479 C   0  0  0  0  0  0  0  0  0  0  0  0
  -23.5888  -17.4754   30.2928 C   0  0  0  0  0  0  0  0  0  0  0  0
  -20.4186  -14.4995   25.3432 C   0  0  0  0  0  0  0  0  0  0  0  0
  -30.3610  -17.4292   23.1864 C   0  0  0  0  0  0  0  0  0  0  0  0
  -30.2733  -18.8249   23.0916 C   0  0  0  0  0  0  0  0  0  0  0  0
  -23.7058  -18.8086   29.8745 C   0  0  0  0  0  0  0  0  0  0  0  0
  -29.6355  -18.9492   25.3891 C   0  0  0  0  0  0  0  0  0  0  0  0
  -22.2171   -8.2162   21.5340 C   0  0  0  0  0  0  0  0  0  0  0  0
  -26.0241  -18.8218   30.6060 C   0  0  0  0  0  0  0  0  0  0  0  0
  -22.0555   -6.0993   22.5413 C   0  0  0  0  0  0  0  0  0  0  0  0
  -23.2326   -4.0677   24.0479 C   0  0  0  0  0  0  0  0  0  0  0  0
  -23.2113   -5.4692   22.0800 C   0  0  0  0  0  0  0  0  0  0  0  0
  -24.5380  -11.6594   20.7242 C   0  0  0  0  0  0  0  0  0  0  0  0
  -25.2382  -13.7268   20.4584 C   0  0  0  0  0  0  0  0  0  0  0  0
  -29.5305  -19.3415   27.7457 C   0  0  0  0  0  0  0  0  0  0  0  0
  -22.8623  -13.5480   21.2142 C   0  0  0  0  0  0  0  0  0  0  0  0
  -21.8334  -16.9783   27.6899 C   0  0  0  0  0  0  0  0  0  0  0  0
  -20.0568  -19.4087   28.8980 C   0  0  0  0  0  0  0  0  0  0  0  0
  -19.9041  -22.1698   30.8979 C   0  0  0  0  0  0  0  0  0  0  0  0
  -30.7343  -14.6659   20.6959 C   0  0  0  0  0  0  0  0  0  0  0  0
  -18.7273  -15.6845   23.8512 C   0  0  0  0  0  0  0  0  0  0  0  0
  -22.2791  -16.7477   30.1605 C   0  0  0  0  0  0  0  0  0  0  0  0
  -30.6569  -19.2946   21.7230 C   0  0  0  0  0  0  0  0  0  0  0  0
  -22.5508  -19.5490   29.2530 C   0  0  0  0  0  0  0  0  0  0  0  0
  -19.2709  -16.9915   24.4226 C   0  0  0  0  0  0  0  0  0  0  0  0
  -30.5075  -17.9981   20.9119 C   0  0  0  0  0  0  0  0  0  0  0  0
  -29.5907  -12.2430   18.3511 C   0  0  0  0  0  0  0  0  0  0  0  0
  -20.7818  -16.9036   24.6124 C   0  0  0  0  0  0  0  0  0  0  0  0
  -28.1434  -11.9817   18.7716 C   0  0  0  0  0  0  0  0  0  0  0  0
  -30.4955  -12.4783   19.5586 C   0  0  0  0  0  0  0  0  0  0  0  0
  -28.5875  -13.2712   20.9020 C   0  0  0  0  0  0  0  0  0  0  0  0
  -30.8177  -16.8441   21.8825 C   0  0  2  0  0  0  0  0  0  0  0  0
  -21.1493  -15.7978   25.6092 C   0  0  1  0  0  0  0  0  0  0  0  0
  -21.3777  -17.3319   29.0773 C   0  0  1  0  0  0  0  0  0  0  0  0
  -27.6262  -13.0835   19.7159 C   0  0  2  0  0  0  0  0  0  0  0  0
  -18.3273  -23.9696   31.6541 C   0  0  0  0  0  0  0  0  0  0  0  0
  -20.3629  -20.8058   26.2027 C   0  0  0  0  0  0  0  0  0  0  0  0
  -19.6211  -22.9311   27.2987 C   0  0  0  0  0  0  0  0  0  0  0  0
  -18.0800  -20.9715   27.2104 C   0  0  0  0  0  0  0  0  0  0  0  0
  -20.1351  -21.3434   33.7303 C   0  0  0  0  0  0  0  0  0  0  0  0
  -29.5403  -19.5397   30.1948 C   0  0  0  0  0  0  0  0  0  0  0  0
  -28.3964  -18.6898   30.7097 C   0  0  0  0  0  0  0  0  0  1  0  0
  -20.0722  -20.9124   28.7659 C   0  0  1  0  0  0  0  0  0  0  0  0
  -18.9004  -22.5935   31.9551 C   0  0  2  0  0  0  0  0  0  0  0  0
  -19.5566  -21.3909   27.3793 C   0  0  0  0  0  0  0  0  0  0  0  0
  -25.8065  -11.5343   20.3252 N   0  0  0  0  0  0  0  0  0  0  0  0
  -26.2051  -12.8085   20.1717 N   0  0  0  0  0  0  0  0  0  0  0  0
  -21.2929  -18.7925   29.1396 N   0  0  0  0  0  0  0  0  0  0  0  0
  -29.9496  -13.5359   20.4126 N   0  0  0  0  0  0  0  0  0  0  0  0
  -25.4703  -15.0527   20.3568 N   0  0  0  0  0  0  0  0  0  0  0  0
  -21.8320  -12.6627   21.5593 N   0  0  0  0  0  0  0  0  0  0  0  0
  -29.2745  -19.6852   26.4893 N   0  0  0  0  0  0  0  0  0  0  0  0
  -20.9146  -16.2423   26.9663 N   0  0  0  0  0  0  0  0  0  0  0  0
  -19.3103  -21.4294   29.8976 N   0  0  0  0  0  0  0  0  0  0  0  0
  -30.1388  -15.6236   21.5077 N   0  0  0  0  0  0  0  0  0  0  0  0
  -29.2073  -20.0120   28.8486 N   0  3  0  0  0  0  0  0  0  0  0  0
  -19.5484  -22.6374   33.2964 N   0  3  0  0  0  0  0  0  0  0  0  0
  -22.6445  -14.7831   21.2393 O   0  0  0  0  0  0  0  0  0  0  0  0
  -22.9364  -17.3473   27.3038 O   0  0  0  0  0  0  0  0  0  0  0  0
  -18.9865  -18.8037   28.7977 O   0  0  0  0  0  0  0  0  0  0  0  0
  -21.0949  -22.4691   30.9519 O   0  0  0  0  0  0  0  0  0  0  0  0
  -31.8787  -14.8132   20.2535 O   0  0  0  0  0  0  0  0  0  0  0  0
  -21.4705   -7.1085   21.7951 O   0  0  0  0  0  0  0  0  0  0  0  0
  -27.2074  -19.4777   30.7524 O   0  0  0  0  0  0  0  0  0  1  0  0
  -23.7985   -3.0933   24.7721 F   0  0  0  0  0  0  0  0  0  0  0  0
  -23.7614   -5.8362   20.9145 F   0  0  0  0  0  0  0  0  0  0  0  0
  1  2  1  0  0  0  0
  1  5  2  0  0  0  0
  2  6  2  0  0  0  0
  3 10  2  0  0  0  0
  3 18  1  0  0  0  0
  4 11  1  0  0  0  0
  4 18  2  0  0  0  0
  5 20  1  0  0  0  0
  6 22  1  0  0  0  0
  7  9  2  0  0  0  0
  7 23  1  0  0  0  0
  8 12  2  0  0  0  0
  8 21  1  0  0  0  0
  9 26  1  0  0  0  0
 10 27  1  0  0  0  0
 11 27  2  0  0  0  0
 12 28  1  0  0  0  0
 13 14  2  0  0  0  0
 13 29  1  0  0  0  0
 14 30  1  0  0  0  0
 15 24  1  0  0  0  0
 15 26  2  0  0  0  0
 16 25  1  0  0  0  0
 16 28  2  0  0  0  0
 17 30  2  0  0  0  0
 17 31  1  0  0  0  0
 18 32  1  0  0  0  0
 19 32  1  0  0  0  0
 19 33  2  0  0  0  0
 19 35  1  0  0  0  0
 20 22  2  0  0  0  0
 20 40  1  0  0  0  0
 21 25  2  0  0  0  0
 21 41  1  0  0  0  0
 22 52  1  0  0  0  0
 23 24  2  0  0  0  0
 23 51  1  0  0  0  0
 24 42  1  0  0  0  0
 25 43  1  0  0  0  0
 26 71  1  0  0  0  0
 27 82  1  0  0  0  0
 28 83  1  0  0  0  0
 29 31  2  0  0  0  0
 29 82  1  0  0  0  0
 30 84  1  0  0  0  0
 31 85  1  0  0  0  0
 32 65  2  0  0  0  0
 33 66  1  0  0  0  0
 33 69  1  0  0  0  0
 34 71  1  0  0  0  0
 34 75  2  0  0  0  0
 35 70  1  0  0  0  0
 35 77  2  0  0  0  0
 36 53  1  0  0  0  0
 36 72  1  0  0  0  0
 36 78  2  0  0  0  0
 37 62  1  0  0  0  0
 37 67  1  0  0  0  0
 37 79  2  0  0  0  0
 38 63  1  0  0  0  0
 38 73  1  0  0  0  0
 38 80  2  0  0  0  0
 39 68  1  0  0  0  0
 39 74  1  0  0  0  0
 39 81  2  0  0  0  0
 40 44  1  0  0  0  0
 41 53  1  0  0  0  0
 42 45  1  0  0  0  0
 43 67  1  0  0  0  0
 44 47  1  0  0  0  0
 45 51  1  0  0  0  0
 46 48  1  0  0  0  0
 46 49  1  0  0  0  0
 47 52  1  0  0  0  0
 48 54  1  0  0  0  0
 49 68  1  0  0  0  0
 50 54  1  0  0  0  0
 50 68  1  0  0  0  0
 51 74  1  0  0  0  0
 52 72  1  0  0  0  0
 53 67  1  0  0  0  0
 54 66  1  0  0  0  0
 55 63  1  0  0  0  0
 56 64  1  0  0  0  0
 57 64  1  0  0  0  0
 58 64  1  0  0  0  0
 59 76  1  0  0  0  0
 60 61  1  0  0  0  0
 60 75  1  0  0  0  0
 61 83  1  0  0  0  0
 62 64  1  0  0  0  0
 62 73  1  0  0  0  0
 63 76  1  0  0  0  0
 65 66  1  0  0  0  0
M  CHG  2  75   1  76   1
M  ISO  4  39 100  61 101  74 100  83 101
M  END
> <Batch ID>
0154

> <Smiles>
CNC(C)C(=O)NC(C(=O)N1Cc2cc([101O:1][101CH2:1]CN=CNc3ccc4c(c3)CCC4[100NH:0][100C:0](=O)N3CCCC(n4nc(-c5ccc(Oc6ccc(F)cc6F)cc5)c(C(N)=O)c4N)C3)ccc2CC1C(=O)NC1CCCc2ccccc21)C(C)(C)C

> <Shape>
0.175

> <Color>
0.189

> <Negative vol penalty>
0.000

$$$$

  -OEChem-04052303333D

 84 93  0     1  0  0  0  0  0999 V2000
  -24.1691  -33.1371   26.4662 C   0  0  0  0  0  0  0  0  0  0  0  0
  -25.1764  -32.2240   26.1710 C   0  0  0  0  0  0  0  0  0  0  0  0
  -23.1295   -9.7901   20.8208 C   0  0  0  0  0  0  0  0  0  0  0  0
  -23.8412  -10.4212   23.0417 C   0  0  0  0  0  0  0  0  0  0  0  0
  -22.8787  -32.9311   25.9801 C   0  0  0  0  0  0  0  0  0  0  0  0
  -24.8934  -31.1037   25.3904 C   0  0  0  0  0  0  0  0  0  0  0  0
  -28.6180  -28.3921   21.3555 C   0  0  0  0  0  0  0  0  0  0  0  0
  -22.4047   -8.7252   21.3557 C   0  0  0  0  0  0  0  0  0  0  0  0
  -23.1163   -9.3563   23.5766 C   0  0  0  0  0  0  0  0  0  0  0  0
  -29.4381  -27.2681   21.4442 C   0  0  0  0  0  0  0  0  0  0  0  0
  -19.8935   -8.6637   24.3212 C   0  0  0  0  0  0  0  0  0  0  0  0
  -19.1133   -8.9148   25.4499 C   0  0  0  0  0  0  0  0  0  0  0  0
  -27.6925  -25.9244   20.4610 C   0  0  0  0  0  0  0  0  0  0  0  0
  -29.8563  -18.4543   21.4887 C   0  0  0  0  0  0  0  0  0  0  0  0
  -20.3789   -7.2726   26.6902 C   0  0  0  0  0  0  0  0  0  0  0  0
  -23.8479  -10.6381   21.6638 C   0  0  0  0  0  0  0  0  0  0  0  0
  -24.1398  -13.0500   20.8859 C   0  0  0  0  0  0  0  0  0  0  0  0
  -22.5820  -31.8128   25.1852 C   0  0  0  0  0  0  0  0  0  0  0  0
  -27.3228  -28.2884   20.8280 C   0  0  0  0  0  0  0  0  0  0  0  0
  -23.5975  -30.8818   24.8944 C   0  0  0  0  0  0  0  0  0  0  0  0
  -26.8589  -27.0491   20.3643 C   0  0  0  0  0  0  0  0  0  0  0  0
  -30.8069  -19.4928   21.3434 C   0  0  0  0  0  0  0  0  0  0  0  0
  -22.3980   -8.5083   22.7336 C   0  0  0  0  0  0  0  0  0  0  0  0
  -28.9743  -26.0334   20.9996 C   0  0  0  0  0  0  0  0  0  0  0  0
  -20.9164   -7.7170   24.3770 C   0  0  0  0  0  0  0  0  0  0  0  0
  -19.3560   -8.2193   26.6343 C   0  0  0  0  0  0  0  0  0  0  0  0
  -21.1591   -7.0215   25.5615 C   0  0  0  0  0  0  0  0  0  0  0  0
  -24.5973  -11.7380   21.1119 C   0  0  0  0  0  0  0  0  0  0  0  0
  -31.9118  -18.9200   20.7575 C   0  0  0  0  0  0  0  0  0  0  0  0
  -25.2235  -13.7046   20.3535 C   0  0  0  0  0  0  0  0  0  0  0  0
  -30.4480  -17.3211   20.9810 C   0  0  0  0  0  0  0  0  0  0  0  0
  -22.8504  -13.6255   21.1350 C   0  0  0  0  0  0  0  0  0  0  0  0
  -33.1711  -19.4625   20.3715 C   0  0  0  0  0  0  0  0  0  0  0  0
  -24.3938  -28.7834   21.9593 C   0  0  0  0  0  0  0  0  0  0  0  0
  -23.5318  -28.2178   18.8837 C   0  0  0  0  0  0  0  0  0  0  0  0
  -24.2836  -26.7787   15.8819 C   0  0  0  0  0  0  0  0  0  0  0  0
  -30.6621  -14.8981   20.3257 C   0  0  0  0  0  0  0  0  0  0  0  0
  -21.1615  -31.6077   24.7220 C   0  0  0  0  0  0  0  0  0  0  0  0
  -26.4604  -29.5155   20.7146 C   0  0  0  0  0  0  0  0  0  0  0  0
  -25.4839  -26.8885   19.7712 C   0  0  0  0  0  0  0  0  0  0  0  0
  -21.0306  -30.5919   23.5900 C   0  0  0  0  0  0  0  0  0  0  0  0
  -29.6474  -11.9175   18.6632 C   0  0  0  0  0  0  0  0  0  0  0  0
  -21.8433  -29.3390   23.9004 C   0  0  0  0  0  0  0  0  0  0  0  0
  -28.2054  -11.7130   19.1334 C   0  0  0  0  0  0  0  0  0  0  0  0
  -30.5324  -12.4784   19.7749 C   0  0  0  0  0  0  0  0  0  0  0  0
  -28.5825  -13.4927   20.8877 C   0  0  0  0  0  0  0  0  0  0  0  0
  -31.1759  -22.0579   21.2224 C   0  0  0  0  0  0  0  0  0  0  0  0
  -23.3355  -29.6674   24.0303 C   0  0  1  0  0  0  0  0  0  0  0  0
  -24.9713  -29.1939   20.6342 C   0  0  1  0  0  0  0  0  0  0  0  0
  -27.6382  -12.9902   19.7834 C   0  0  2  0  0  0  0  0  0  0  0  0
  -30.0536  -22.7568   22.0282 C   0  0  1  0  0  0  0  0  0  0  0  0
  -34.1922  -18.5400   19.7374 C   0  0  0  0  0  0  0  0  0  0  0  0
  -23.3677  -26.4551   13.5680 C   0  0  0  0  0  0  0  0  0  0  0  0
  -21.6085  -26.0994   19.9437 C   0  0  0  0  0  0  0  0  0  0  0  0
  -21.4462  -25.1836   17.6193 C   0  0  0  0  0  0  0  0  0  0  0  0
  -20.6892  -27.5122   18.0962 C   0  0  0  0  0  0  0  0  0  0  0  0
  -26.5659  -28.2073   14.6534 C   0  0  0  0  0  0  0  0  0  0  0  0
  -29.1261  -23.6744   21.2597 C   0  0  0  0  0  0  0  0  0  1  0  0
  -23.1631  -26.9909   18.0851 C   0  0  1  0  0  0  0  0  0  0  0  0
  -24.2380  -27.3216   14.4650 C   0  0  2  0  0  0  0  0  0  0  0  0
  -21.7520  -26.4488   18.4490 C   0  0  0  0  0  0  0  0  0  0  0  0
  -25.8723  -11.5674   20.7523 N   0  0  0  0  0  0  0  0  0  0  0  0
  -26.2252  -12.7808   20.2949 N   0  0  0  0  0  0  0  0  0  0  0  0
  -29.4864  -21.4103   22.2110 N   0  0  0  0  0  0  0  0  0  0  0  0
  -30.6498  -20.8312   21.7230 N   0  0  1  0  0  0  0  0  0  0  0  0
  -24.6760  -28.1165   19.6876 N   0  0  0  0  0  0  0  0  0  0  0  0
  -29.9340  -13.6895   20.3406 N   0  0  0  0  0  0  0  0  0  0  0  0
  -25.4078  -14.9746   19.9343 N   0  0  0  0  0  0  0  0  0  0  0  0
  -21.8507  -12.8120   21.6856 N   0  0  0  0  0  0  0  0  0  0  0  0
  -29.9788  -15.9894   20.8611 N   0  0  0  0  0  0  0  0  0  0  0  0
  -23.9311  -29.8383   22.7224 N   0  0  0  0  0  0  0  0  0  0  0  0
  -23.3193  -27.3555   16.6811 N   0  0  0  0  0  0  0  0  0  0  0  0
  -25.6097  -27.3698   13.8844 N   0  3  0  0  0  0  0  0  0  0  0  0
  -22.5876  -14.8212   20.8616 O   0  0  0  0  0  0  0  0  0  0  0  0
  -33.5342  -20.6508   20.5088 O   0  0  0  0  0  0  0  0  0  0  0  0
  -24.3685  -27.5972   22.2659 O   0  0  0  0  0  0  0  0  0  0  0  0
  -22.8344  -29.2311   18.7919 O   0  0  0  0  0  0  0  0  0  0  0  0
  -25.0912  -25.9253   16.2426 O   0  0  0  0  0  0  0  0  0  0  0  0
  -31.7969  -14.9661   19.8467 O   0  0  0  0  0  0  0  0  0  0  0  0
  -31.7010  -17.5965   20.5332 O   0  0  0  0  0  0  0  0  0  0  0  0
  -21.6906   -7.4694   23.2559 O   0  0  0  0  0  0  0  0  0  0  0  0
  -29.7725  -24.9346   21.0856 O   0  0  0  0  0  0  0  0  0  1  0  0
  -18.6077   -8.4617   27.7185 F   0  0  0  0  0  0  0  0  0  0  0  0
  -22.1412   -6.1116   25.6215 F   0  0  0  0  0  0  0  0  0  0  0  0
  1  2  1  0  0  0  0
  1  5  2  0  0  0  0
  2  6  2  0  0  0  0
  3  8  2  0  0  0  0
  3 16  1  0  0  0  0
  4  9  1  0  0  0  0
  4 16  2  0  0  0  0
  5 18  1  0  0  0  0
  6 20  1  0  0  0  0
  7 10  2  0  0  0  0
  7 19  1  0  0  0  0
  8 23  1  0  0  0  0
  9 23  2  0  0  0  0
 10 24  1  0  0  0  0
 11 12  2  0  0  0  0
 11 25  1  0  0  0  0
 12 26  1  0  0  0  0
 13 21  1  0  0  0  0
 13 24  2  0  0  0  0
 14 22  1  0  0  0  0
 14 31  2  0  0  0  0
 15 26  2  0  0  0  0
 15 27  1  0  0  0  0
 16 28  1  0  0  0  0
 17 28  1  0  0  0  0
 17 30  2  0  0  0  0
 17 32  1  0  0  0  0
 18 20  2  0  0  0  0
 18 38  1  0  0  0  0
 19 21  2  0  0  0  0
 19 39  1  0  0  0  0
 20 48  1  0  0  0  0
 21 40  1  0  0  0  0
 22 29  2  0  0  0  0
 22 65  1  0  0  0  0
 23 81  1  0  0  0  0
 24 82  1  0  0  0  0
 25 27  2  0  0  0  0
 25 81  1  0  0  0  0
 26 83  1  0  0  0  0
 27 84  1  0  0  0  0
 28 62  2  0  0  0  0
 29 33  1  0  0  0  0
 29 80  1  0  0  0  0
 30 63  1  0  0  0  0
 30 68  1  0  0  0  0
 31 70  1  0  0  0  0
 31 80  1  0  0  0  0
 32 69  1  0  0  0  0
 32 74  2  0  0  0  0
 33 52  1  0  0  0  0
 33 75  2  0  0  0  0
 34 49  1  0  0  0  0
 34 71  1  0  0  0  0
 34 76  2  0  0  0  0
 35 59  1  0  0  0  0
 35 66  1  0  0  0  0
 35 77  2  0  0  0  0
 36 60  1  0  0  0  0
 36 72  1  0  0  0  0
 36 78  2  0  0  0  0
 37 67  1  0  0  0  0
 37 70  1  0  0  0  0
 37 79  2  0  0  0  0
 38 41  1  0  0  0  0
 39 49  1  0  0  0  0
 40 66  1  0  0  0  0
 41 43  1  0  0  0  0
 42 44  1  0  0  0  0
 42 45  1  0  0  0  0
 43 48  1  0  0  0  0
 44 50  1  0  0  0  0
 45 67  1  0  0  0  0
 46 50  1  0  0  0  0
 46 67  1  0  0  0  0
 47 51  1  0  0  0  0
 47 65  1  0  0  0  0
 48 71  1  0  0  0  0
 49 66  1  0  0  0  0
 50 63  1  0  0  0  0
 51 58  1  0  0  0  0
 51 64  1  0  0  0  0
 53 60  1  0  0  0  0
 54 61  1  0  0  0  0
 55 61  1  0  0  0  0
 56 61  1  0  0  0  0
 57 73  1  0  0  0  0
 58 82  1  0  0  0  0
 59 61  1  0  0  0  0
 59 72  1  0  0  0  0
 60 73  1  0  0  0  0
 62 63  1  0  0  0  0
 64 65  1  0  0  0  0
M  CHG  1  73   1
M  ISO  4  37 100  58 101  70 100  82 101
M  END
> <Batch ID>
0154

> <Smiles>
CNC(C)C(=O)NC(C(=O)N1Cc2cc([101O:1][101CH2:1]C3CN(c4cc([100NH:0][100C:0](=O)N5CCCC(n6nc(-c7ccc(Oc8ccc(F)cc8F)cc7)c(C(N)=O)c6N)C5)oc4C(C)=O)N3)ccc2CC1C(=O)NC1CCCc2ccccc21)C(C)(C)C

> <Shape>
0.280

> <Color>
0.172

> <Negative vol penalty>
0.000

$$$$

  -OEChem-04052303333D

 83 92  0     1  0  0  0  0  0999 V2000
  -29.8068  -35.3401   18.1674 C   0  0  0  0  0  0  0  0  0  0  0  0
  -29.8163  -34.0224   18.6135 C   0  0  0  0  0  0  0  0  0  0  0  0
  -26.1267  -11.1252   20.0916 C   0  0  0  0  0  0  0  0  0  0  0  0
  -25.2207  -10.7004   22.2907 C   0  0  0  0  0  0  0  0  0  0  0  0
  -28.9435  -36.2663   18.7513 C   0  0  0  0  0  0  0  0  0  0  0  0
  -28.9633  -33.6304   19.6446 C   0  0  0  0  0  0  0  0  0  0  0  0
  -26.6556  -29.2254   18.6878 C   0  0  0  0  0  0  0  0  0  0  0  0
  -26.1446   -9.7545   19.8342 C   0  0  0  0  0  0  0  0  0  0  0  0
  -25.2386   -9.3297   22.0333 C   0  0  0  0  0  0  0  0  0  0  0  0
  -27.4018  -28.0623   18.8726 C   0  0  0  0  0  0  0  0  0  0  0  0
  -24.7078   -5.7392   21.8204 C   0  0  0  0  0  0  0  0  0  0  0  0
  -23.5801   -4.9977   22.1726 C   0  0  0  0  0  0  0  0  0  0  0  0
  -26.3413  -27.7293   21.0136 C   0  0  0  0  0  0  0  0  0  0  0  0
  -22.2306   -6.3462   20.6902 C   0  0  0  0  0  0  0  0  0  0  0  0
  -25.6648  -11.5982   21.3199 C   0  0  0  0  0  0  0  0  0  0  0  0
  -24.5958  -13.9144   21.3279 C   0  0  0  0  0  0  0  0  0  0  0  0
  -28.0726  -35.8831   19.7834 C   0  0  0  0  0  0  0  0  0  0  0  0
  -25.7531  -29.6557   19.6710 C   0  0  0  0  0  0  0  0  0  0  0  0
  -28.0885  -34.5526   20.2437 C   0  0  0  0  0  0  0  0  0  0  0  0
  -25.5829  -28.8968   20.8377 C   0  0  0  0  0  0  0  0  0  0  0  0
  -29.3740  -19.5938   18.5030 C   0  0  0  0  0  0  0  0  0  0  0  0
  -29.0482  -20.8543   19.0466 C   0  0  0  0  0  0  0  0  0  0  0  0
  -25.7005   -8.8567   20.8050 C   0  0  0  0  0  0  0  0  0  0  0  0
  -27.2469  -27.3156   20.0369 C   0  0  0  0  0  0  0  0  0  0  0  0
  -24.5969   -6.7843   20.9032 C   0  0  0  0  0  0  0  0  0  0  0  0
  -22.3415   -5.3012   21.6075 C   0  0  0  0  0  0  0  0  0  0  0  0
  -23.3583   -7.0878   20.3381 C   0  0  0  0  0  0  0  0  0  0  0  0
  -25.6466  -13.0141   21.5867 C   0  0  0  0  0  0  0  0  0  0  0  0
  -25.0704  -15.1291   21.7590 C   0  0  0  0  0  0  0  0  0  0  0  0
  -29.6899  -19.6445   17.1722 C   0  0  0  0  0  0  0  0  0  0  0  0
  -29.1146  -21.8704   18.1320 C   0  0  0  0  0  0  0  0  0  0  0  0
  -23.3060  -13.6743   20.7497 C   0  0  0  0  0  0  0  0  0  0  0  0
  -25.4969  -32.2400   21.5039 C   0  0  0  0  0  0  0  0  0  0  0  0
  -22.6866  -30.8703   22.3690 C   0  0  0  0  0  0  0  0  0  0  0  0
  -28.4976  -23.9674   19.3793 C   0  0  0  0  0  0  0  0  0  0  0  0
  -20.8204  -28.0290   22.6714 C   0  0  0  0  0  0  0  0  0  0  0  0
  -29.1627  -18.8843   22.0709 C   0  0  0  0  0  0  0  0  0  0  0  0
  -27.1911  -36.9308   20.4158 C   0  0  0  0  0  0  0  0  0  0  0  0
  -24.9360  -30.8982   19.4445 C   0  0  0  0  0  0  0  0  0  0  0  0
  -24.6123  -29.3048   21.9146 C   0  0  0  0  0  0  0  0  0  0  0  0
  -29.2787  -18.5254   19.5182 C   0  0  0  0  0  0  0  0  0  0  0  0
  -28.7278  -20.7566   20.4819 C   0  0  0  0  0  0  0  0  0  0  0  0
  -26.0526  -36.3470   21.2486 C   0  0  0  0  0  0  0  0  0  0  0  0
  -29.1407  -16.3149   24.4839 C   0  0  0  0  0  0  0  0  0  0  0  0
  -26.5715  -35.2394   22.1601 C   0  0  0  0  0  0  0  0  0  0  0  0
  -28.1732  -15.2792   23.9177 C   0  0  0  0  0  0  0  0  0  0  0  0
  -29.9680  -16.9451   23.3719 C   0  0  0  0  0  0  0  0  0  0  0  0
  -28.1374  -16.5917   21.7331 C   0  0  0  0  0  0  0  0  0  0  0  0
  -27.1605  -34.0832   21.3430 C   0  0  1  0  0  0  0  0  0  0  0  0
  -24.4223  -31.5197   20.7396 C   0  0  1  0  0  0  0  0  0  0  0  0
  -27.2920  -15.9029   22.8244 C   0  0  1  0  0  0  0  0  0  0  0  0
  -18.5744  -27.2205   23.4455 C   0  0  0  0  0  0  0  0  0  0  0  0
  -23.5920  -31.1403   25.2703 C   0  0  0  0  0  0  0  0  0  0  0  0
  -21.8077  -29.5033   25.9065 C   0  0  0  0  0  0  0  0  0  0  0  0
  -21.1839  -31.6867   24.8738 C   0  0  0  0  0  0  0  0  0  0  0  0
  -20.1258  -27.0202   19.9772 C   0  0  0  0  0  0  0  0  0  0  0  0
  -28.3490  -25.4448   19.0668 C   0  0  0  0  0  0  0  0  0  1  0  0
  -22.2560  -29.8997   23.4421 C   0  0  1  0  0  0  0  0  0  0  0  0
  -19.3931  -27.7131   22.2623 C   0  0  2  0  0  0  0  0  0  0  0  0
  -22.2297  -30.5506   24.8539 C   0  0  0  0  0  0  0  0  0  0  0  0
  -26.7087  -13.6062   22.1392 N   0  0  0  0  0  0  0  0  0  0  0  0
  -26.3278  -14.8917   22.2310 N   0  0  0  0  0  0  0  0  0  0  0  0
  -23.8411  -30.5306   21.6496 N   0  0  0  0  0  0  0  0  0  0  0  0
  -28.9661  -19.3112   20.7522 N   0  0  0  0  0  0  0  0  0  0  0  0
  -29.1244  -17.5077   22.3169 N   0  0  0  0  0  0  0  0  0  0  0  0
  -24.5307  -16.3664   21.7765 N   0  0  0  0  0  0  0  0  0  0  0  0
  -30.0415  -18.6131   16.3665 N   0  0  0  0  0  0  0  0  0  0  0  0
  -22.9803  -12.3673   20.3622 N   0  0  0  0  0  0  0  0  0  0  0  0
  -28.8856  -23.2127   18.2393 N   0  0  0  0  0  0  0  0  0  0  0  0
  -26.1028  -33.2605   20.7962 N   0  0  0  0  0  0  0  0  0  0  0  0
  -20.9725  -29.3569   23.0104 N   0  0  0  0  0  0  0  0  0  0  0  0
  -19.3774  -26.6592   21.2087 N   0  3  0  0  0  0  0  0  0  0  0  0
  -22.4733  -14.5944   20.5665 O   0  0  0  0  0  0  0  0  0  0  0  0
  -25.7560  -31.8964   22.6513 O   0  0  0  0  0  0  0  0  0  0  0  0
  -22.0191  -31.8886   22.1714 O   0  0  0  0  0  0  0  0  0  0  0  0
  -28.2939  -23.5252   20.5052 O   0  0  0  0  0  0  0  0  0  0  0  0
  -21.7104  -27.1817   22.6921 O   0  0  0  0  0  0  0  0  0  0  0  0
  -29.4108  -19.6913   22.9763 O   0  0  0  0  0  0  0  0  0  0  0  0
  -25.7176   -7.5190   20.5540 O   0  0  0  0  0  0  0  0  0  0  0  0
  -27.9821  -26.1685   20.2221 O   0  0  0  0  0  0  0  0  0  1  0  0
  -21.2589   -4.5880   21.9446 F   0  0  0  0  0  0  0  0  0  0  0  0
  -23.2457   -8.0899   19.4555 F   0  0  0  0  0  0  0  0  0  0  0  0
  -29.5833  -21.2630   16.5879 S   0  0  0  0  0  0  0  0  0  0  0  0
  1  2  1  0  0  0  0
  1  5  2  0  0  0  0
  2  6  2  0  0  0  0
  3  8  2  0  0  0  0
  3 15  1  0  0  0  0
  4  9  1  0  0  0  0
  4 15  2  0  0  0  0
  5 17  1  0  0  0  0
  6 19  1  0  0  0  0
  7 10  2  0  0  0  0
  7 18  1  0  0  0  0
  8 23  1  0  0  0  0
  9 23  2  0  0  0  0
 10 24  1  0  0  0  0
 11 12  2  0  0  0  0
 11 25  1  0  0  0  0
 12 26  1  0  0  0  0
 13 20  1  0  0  0  0
 13 24  2  0  0  0  0
 14 26  2  0  0  0  0
 14 27  1  0  0  0  0
 15 28  1  0  0  0  0
 16 28  1  0  0  0  0
 16 29  2  0  0  0  0
 16 32  1  0  0  0  0
 17 19  2  0  0  0  0
 17 38  1  0  0  0  0
 18 20  2  0  0  0  0
 18 39  1  0  0  0  0
 19 49  1  0  0  0  0
 20 40  1  0  0  0  0
 21 22  1  0  0  0  0
 21 30  2  0  0  0  0
 21 41  1  0  0  0  0
 22 31  2  0  0  0  0
 22 42  1  0  0  0  0
 23 79  1  0  0  0  0
 24 80  1  0  0  0  0
 25 27  2  0  0  0  0
 25 79  1  0  0  0  0
 26 81  1  0  0  0  0
 27 82  1  0  0  0  0
 28 61  2  0  0  0  0
 29 62  1  0  0  0  0
 29 66  1  0  0  0  0
 30 67  1  0  0  0  0
 30 83  1  0  0  0  0
 31 69  1  0  0  0  0
 31 83  1  0  0  0  0
 32 68  1  0  0  0  0
 32 73  2  0  0  0  0
 33 50  1  0  0  0  0
 33 70  1  0  0  0  0
 33 74  2  0  0  0  0
 34 58  1  0  0  0  0
 34 63  1  0  0  0  0
 34 75  2  0  0  0  0
 35 57  1  0  0  0  0
 35 69  1  0  0  0  0
 35 76  2  0  0  0  0
 36 59  1  0  0  0  0
 36 71  1  0  0  0  0
 36 77  2  0  0  0  0
 37 64  1  0  0  0  0
 37 65  1  0  0  0  0
 37 78  2  0  0  0  0
 38 43  1  0  0  0  0
 39 50  1  0  0  0  0
 40 63  1  0  0  0  0
 41 64  1  0  0  0  0
 42 64  1  0  0  0  0
 43 45  1  0  0  0  0
 44 46  1  0  0  0  0
 44 47  1  0  0  0  0
 45 49  1  0  0  0  0
 46 51  1  0  0  0  0
 47 65  1  0  0  0  0
 48 51  1  0  0  0  0
 48 65  1  0  0  0  0
 49 70  1  0  0  0  0
 50 63  1  0  0  0  0
 51 62  1  0  0  0  0
 52 59  1  0  0  0  0
 53 60  1  0  0  0  0
 54 60  1  0  0  0  0
 55 60  1  0  0  0  0
 56 72  1  0  0  0  0
 57 80  1  0  0  0  0
 58 60  1  0  0  0  0
 58 71  1  0  0  0  0
 59 72  1  0  0  0  0
 61 62  1  0  0  0  0
M  CHG  1  72   1
M  ISO  4  37 100  57 101  64 100  80 101
M  END
> <Batch ID>
0154

> <Smiles>
CNC(C)C(=O)NC(C(=O)N1Cc2cc([101O:1][101CH2:1]C(=O)Nc3sc(N)c4c3C[100N:0]([100C:0](=O)N3CCCC(n5nc(-c6ccc(Oc7ccc(F)cc7F)cc6)c(C(N)=O)c5N)C3)C4)ccc2CC1C(=O)NC1CCCc2ccccc21)C(C)(C)C

> <Shape>
0.255

> <Color>
0.071

> <Negative vol penalty>
0.000

$$$$

  -OEChem-04052303333D

 82 91  0     1  0  0  0  0  0999 V2000
  -29.8553  -35.4830   22.5890 C   0  0  0  0  0  0  0  0  0  0  0  0
  -30.1150  -34.1174   22.6451 C   0  0  0  0  0  0  0  0  0  0  0  0
  -23.1419   -9.7138   20.5833 C   0  0  0  0  0  0  0  0  0  0  0  0
  -23.7790  -10.2609   22.8486 C   0  0  0  0  0  0  0  0  0  0  0  0
  -28.5455  -35.9475   22.7003 C   0  0  0  0  0  0  0  0  0  0  0  0
  -29.0649  -33.2155   22.8136 C   0  0  0  0  0  0  0  0  0  0  0  0
  -28.6149  -27.5990   20.4141 C   0  0  0  0  0  0  0  0  0  0  0  0
  -31.4431  -18.0556   20.2032 C   0  0  0  0  0  0  0  0  0  0  0  0
  -31.2682  -19.4369   20.3050 C   0  0  0  0  0  0  0  0  0  0  0  0
  -22.3992   -8.6309   21.0537 C   0  0  0  0  0  0  0  0  0  0  0  0
  -23.0363   -9.1780   23.3191 C   0  0  0  0  0  0  0  0  0  0  0  0
  -28.8741  -26.3325   20.9361 C   0  0  0  0  0  0  0  0  0  0  0  0
  -22.9935   -5.4803   22.1237 C   0  0  0  0  0  0  0  0  0  0  0  0
  -23.1219   -4.2657   21.4500 C   0  0  0  0  0  0  0  0  0  0  0  0
  -29.0925  -19.1598   21.4122 C   0  0  0  0  0  0  0  0  0  0  0  0
  -26.5381  -26.0874   21.4856 C   0  0  0  0  0  0  0  0  0  0  0  0
  -20.7576   -4.2913   20.9534 C   0  0  0  0  0  0  0  0  0  0  0  0
  -23.8319  -10.5288   21.4808 C   0  0  0  0  0  0  0  0  0  0  0  0
  -24.1504  -12.9674   20.8031 C   0  0  0  0  0  0  0  0  0  0  0  0
  -27.4778  -35.0503   22.8606 C   0  0  0  0  0  0  0  0  0  0  0  0
  -27.3150  -28.1246   20.4339 C   0  0  0  0  0  0  0  0  0  0  0  0
  -27.7396  -33.6686   22.9285 C   0  0  0  0  0  0  0  0  0  0  0  0
  -29.2854  -17.8096   21.3034 C   0  0  0  0  0  0  0  0  0  0  0  0
  -26.2645  -27.3598   20.9609 C   0  0  0  0  0  0  0  0  0  0  0  0
  -30.4252  -17.3090   20.7250 C   0  0  0  0  0  0  0  0  0  0  0  0
  -30.1064  -19.9840   20.9033 C   0  0  0  0  0  0  0  0  0  0  0  0
  -22.3463   -8.3630   22.4216 C   0  0  0  0  0  0  0  0  0  0  0  0
  -27.8362  -25.5776   21.4745 C   0  0  0  0  0  0  0  0  0  0  0  0
  -21.7472   -6.1003   22.2124 C   0  0  0  0  0  0  0  0  0  0  0  0
  -22.0040   -3.6713   20.8648 C   0  0  0  0  0  0  0  0  0  0  0  0
  -20.6293   -5.5059   21.6272 C   0  0  0  0  0  0  0  0  0  0  0  0
  -24.5997  -11.6472   20.9954 C   0  0  0  0  0  0  0  0  0  0  0  0
  -25.2515  -13.6397   20.3319 C   0  0  0  0  0  0  0  0  0  0  0  0
  -22.8536  -13.5353   21.0302 C   0  0  0  0  0  0  0  0  0  0  0  0
  -25.9383  -30.6539   21.7796 C   0  0  0  0  0  0  0  0  0  0  0  0
  -23.3692  -29.6874   20.0510 C   0  0  0  0  0  0  0  0  0  0  0  0
  -28.9076  -22.1054   21.5332 C   0  0  0  0  0  0  0  0  0  0  0  0
  -21.7337  -27.1457   18.4661 C   0  0  0  0  0  0  0  0  0  0  0  0
  -30.6331  -14.8635   20.4131 C   0  0  0  0  0  0  0  0  0  0  0  0
  -26.0838  -35.6025   23.0238 C   0  0  0  0  0  0  0  0  0  0  0  0
  -27.0472  -29.4815   19.8426 C   0  0  0  0  0  0  0  0  0  0  0  0
  -28.7748  -16.4199   21.5482 C   0  0  0  0  0  0  0  0  0  0  0  0
  -24.8477  -27.8701   20.9875 C   0  0  0  0  0  0  0  0  0  0  0  0
  -24.9880  -34.5586   22.8245 C   0  0  0  0  0  0  0  0  0  0  0  0
  -29.7431  -11.9097   18.7466 C   0  0  0  0  0  0  0  0  0  0  0  0
  -25.3197  -33.2831   23.5925 C   0  0  0  0  0  0  0  0  0  0  0  0
  -28.2798  -11.6913   19.1423 C   0  0  0  0  0  0  0  0  0  0  0  0
  -30.5746  -12.4463   19.9125 C   0  0  0  0  0  0  0  0  0  0  0  0
  -28.5884  -13.4008   20.9711 C   0  0  0  0  0  0  0  0  0  0  0  0
  -26.6247  -32.6575   23.0855 C   0  0  1  0  0  0  0  0  0  0  0  0
  -25.7747  -30.1276   20.3818 C   0  0  1  0  0  0  0  0  0  0  0  0
  -27.6832  -12.9431   19.8169 C   0  0  2  0  0  0  0  0  0  0  0  0
  -19.6378  -26.6533   17.1769 C   0  0  0  0  0  0  0  0  0  0  0  0
  -21.7671  -29.7206   22.6476 C   0  0  0  0  0  0  0  0  0  0  0  0
  -20.0157  -28.3455   21.5030 C   0  0  0  0  0  0  0  0  0  0  0  0
  -20.5522  -30.6314   20.6604 C   0  0  0  0  0  0  0  0  0  0  0  0
  -23.2624  -26.3439   16.0622 C   0  0  0  0  0  0  0  0  0  0  0  0
  -29.1535  -23.5983   21.4184 C   0  0  0  0  0  0  0  0  0  1  0  0
  -22.2068  -28.7553   20.2937 C   0  0  1  0  0  0  0  0  0  0  0  0
  -21.1008  -27.0592   17.0891 C   0  0  2  0  0  0  0  0  0  0  0  0
  -21.1624  -29.3541   21.2776 C   0  0  0  0  0  0  0  0  0  0  0  0
  -25.8860  -11.4881   20.6725 N   0  0  0  0  0  0  0  0  0  0  0  0
  -26.2543  -12.7171   20.2726 N   0  0  0  0  0  0  0  0  0  0  0  0
  -30.0283  -15.9974   20.8932 N   0  0  0  0  0  0  0  0  0  0  0  0
  -24.6377  -29.2051   20.4032 N   0  0  0  0  0  0  0  0  0  0  0  0
  -29.9431  -13.6483   20.4690 N   0  0  0  0  0  0  0  0  0  0  0  0
  -25.4501  -14.9240   19.9666 N   0  0  0  0  0  0  0  0  0  0  0  0
  -21.8358  -12.7035   21.5166 N   0  0  0  0  0  0  0  0  0  0  0  0
  -29.9686  -21.3711   20.9842 N   0  0  0  0  0  0  0  0  0  0  0  0
  -26.3983  -31.9556   21.8404 N   0  0  0  0  0  0  0  0  0  0  0  0
  -21.6679  -28.4239   18.9791 N   0  0  0  0  0  0  0  0  0  0  0  0
  -21.8174  -26.0560   16.2517 N   0  3  0  0  0  0  0  0  0  0  0  0
  -22.6005  -14.7407   20.7929 O   0  0  0  0  0  0  0  0  0  0  0  0
  -25.6659  -29.9331   22.7324 O   0  0  0  0  0  0  0  0  0  0  0  0
  -23.1603  -30.7996   19.5602 O   0  0  0  0  0  0  0  0  0  0  0  0
  -27.8889  -21.6600   22.0513 O   0  0  0  0  0  0  0  0  0  0  0  0
  -22.2330  -26.1756   19.0319 O   0  0  0  0  0  0  0  0  0  0  0  0
  -31.7611  -14.9297   19.9024 O   0  0  0  0  0  0  0  0  0  0  0  0
  -21.6215   -7.3065   22.8810 O   0  0  0  0  0  0  0  0  0  0  0  0
  -28.0892  -24.3285   21.9906 O   0  0  0  0  0  0  0  0  0  1  0  0
  -22.1277   -2.5057   20.2165 F   0  0  0  0  0  0  0  0  0  0  0  0
  -19.4295   -6.0974   21.7081 F   0  0  0  0  0  0  0  0  0  0  0  0
  1  2  1  0  0  0  0
  1  5  2  0  0  0  0
  2  6  2  0  0  0  0
  3 10  2  0  0  0  0
  3 18  1  0  0  0  0
  4 11  1  0  0  0  0
  4 18  2  0  0  0  0
  5 20  1  0  0  0  0
  6 22  1  0  0  0  0
  7 12  2  0  0  0  0
  7 21  1  0  0  0  0
  8  9  2  0  0  0  0
  8 25  1  0  0  0  0
  9 26  1  0  0  0  0
 10 27  1  0  0  0  0
 11 27  2  0  0  0  0
 12 28  1  0  0  0  0
 13 14  2  0  0  0  0
 13 29  1  0  0  0  0
 14 30  1  0  0  0  0
 15 23  1  0  0  0  0
 15 26  2  0  0  0  0
 16 24  1  0  0  0  0
 16 28  2  0  0  0  0
 17 30  2  0  0  0  0
 17 31  1  0  0  0  0
 18 32  1  0  0  0  0
 19 32  1  0  0  0  0
 19 33  2  0  0  0  0
 19 34  1  0  0  0  0
 20 22  2  0  0  0  0
 20 40  1  0  0  0  0
 21 24  2  0  0  0  0
 21 41  1  0  0  0  0
 22 50  1  0  0  0  0
 23 25  2  0  0  0  0
 23 42  1  0  0  0  0
 24 43  1  0  0  0  0
 25 64  1  0  0  0  0
 26 69  1  0  0  0  0
 27 79  1  0  0  0  0
 28 80  1  0  0  0  0
 29 31  2  0  0  0  0
 29 79  1  0  0  0  0
 30 81  1  0  0  0  0
 31 82  1  0  0  0  0
 32 62  2  0  0  0  0
 33 63  1  0  0  0  0
 33 67  1  0  0  0  0
 34 68  1  0  0  0  0
 34 73  2  0  0  0  0
 35 51  1  0  0  0  0
 35 70  1  0  0  0  0
 35 74  2  0  0  0  0
 36 59  1  0  0  0  0
 36 65  1  0  0  0  0
 36 75  2  0  0  0  0
 37 58  1  0  0  0  0
 37 69  1  0  0  0  0
 37 76  2  0  0  0  0
 38 60  1  0  0  0  0
 38 71  1  0  0  0  0
 38 77  2  0  0  0  0
 39 64  1  0  0  0  0
 39 66  1  0  0  0  0
 39 78  2  0  0  0  0
 40 44  1  0  0  0  0
 41 51  1  0  0  0  0
 42 64  1  0  0  0  0
 43 65  1  0  0  0  0
 44 46  1  0  0  0  0
 45 47  1  0  0  0  0
 45 48  1  0  0  0  0
 46 50  1  0  0  0  0
 47 52  1  0  0  0  0
 48 66  1  0  0  0  0
 49 52  1  0  0  0  0
 49 66  1  0  0  0  0
 50 70  1  0  0  0  0
 51 65  1  0  0  0  0
 52 63  1  0  0  0  0
 53 60  1  0  0  0  0
 54 61  1  0  0  0  0
 55 61  1  0  0  0  0
 56 61  1  0  0  0  0
 57 72  1  0  0  0  0
 58 80  1  0  0  0  0
 59 61  1  0  0  0  0
 59 71  1  0  0  0  0
 60 72  1  0  0  0  0
 62 63  1  0  0  0  0
M  CHG  1  72   1
M  ISO  4  39 100  58 101  64 100  80 101
M  END
> <Batch ID>
0154

> <Smiles>
CNC(C)C(=O)NC(C(=O)N1Cc2cc([101O:1][101CH2:1]C(=O)Nc3ccc4c(c3)C[100N:0]4[100C:0](=O)N3CCCC(n4nc(-c5ccc(Oc6ccc(F)cc6F)cc5)c(C(N)=O)c4N)C3)ccc2CC1C(=O)NC1CCCc2ccccc21)C(C)(C)C

> <Shape>
0.341

> <Color>
0.175

> <Negative vol penalty>
0.000

$$$$

  -OEChem-04052303333D

 85 94  0     1  0  0  0  0  0999 V2000
  -18.5867  -28.3267   22.0888 C   0  0  0  0  0  0  0  0  0  0  0  0
  -18.2907  -27.0675   21.5768 C   0  0  0  0  0  0  0  0  0  0  0  0
  -27.9197  -22.3959   17.6861 C   0  0  0  0  0  0  0  0  0  0  0  0
  -30.1705  -22.9833   18.3389 C   0  0  0  0  0  0  0  0  0  0  0  0
  -19.7085  -28.5031   22.8976 C   0  0  0  0  0  0  0  0  0  0  0  0
  -19.1171  -25.9840   21.8726 C   0  0  0  0  0  0  0  0  0  0  0  0
  -25.7521  -12.8321   18.9266 C   0  0  0  0  0  0  0  0  0  0  0  0
  -18.8680  -18.9103   22.9759 C   0  0  0  0  0  0  0  0  0  0  0  0
  -24.9169  -13.5890   19.7456 C   0  0  0  0  0  0  0  0  0  0  0  0
  -28.0669  -23.1358   16.5129 C   0  0  0  0  0  0  0  0  0  0  0  0
  -30.3177  -23.7232   17.1657 C   0  0  0  0  0  0  0  0  0  0  0  0
  -19.4669  -17.7301   22.5375 C   0  0  0  0  0  0  0  0  0  0  0  0
  -27.9661  -26.3855   15.5890 C   0  0  0  0  0  0  0  0  0  0  0  0
  -26.9171  -27.2268   15.2184 C   0  0  0  0  0  0  0  0  0  0  0  0
  -26.8504  -14.4656   20.8913 C   0  0  0  0  0  0  0  0  0  0  0  0
  -21.3335  -18.1373   24.0103 C   0  0  0  0  0  0  0  0  0  0  0  0
  -26.6731  -26.0093   13.1459 C   0  0  0  0  0  0  0  0  0  0  0  0
  -28.9715  -22.3197   18.5992 C   0  0  0  0  0  0  0  0  0  0  0  0
  -27.8699  -21.7583   20.8305 C   0  0  0  0  0  0  0  0  0  0  0  0
  -20.5437  -27.4192   23.2113 C   0  0  0  0  0  0  0  0  0  0  0  0
  -27.1469  -12.8786   19.0851 C   0  0  0  0  0  0  0  0  0  0  0  0
  -19.5035  -19.7198   23.9284 C   0  0  0  0  0  0  0  0  0  0  0  0
  -20.2520  -26.1462   22.6853 C   0  0  0  0  0  0  0  0  0  0  0  0
  -27.7112  -13.7278   20.0587 C   0  0  0  0  0  0  0  0  0  0  0  0
  -20.7394  -19.3260   24.4610 C   0  0  0  0  0  0  0  0  0  0  0  0
  -25.4657  -14.4009   20.7317 C   0  0  0  0  0  0  0  0  0  0  0  0
  -29.2658  -23.7994   16.2527 C   0  0  0  0  0  0  0  0  0  0  0  0
  -20.7012  -17.3449   23.0526 C   0  0  0  0  0  0  0  0  0  0  0  0
  -28.3687  -25.3562   14.7381 C   0  0  0  0  0  0  0  0  0  0  0  0
  -26.2705  -27.0386   13.9968 C   0  0  0  0  0  0  0  0  0  0  0  0
  -27.7222  -25.1680   13.5165 C   0  0  0  0  0  0  0  0  0  0  0  0
  -28.8199  -21.5559   19.8116 C   0  0  0  0  0  0  0  0  0  0  0  0
  -28.1424  -20.7784   21.7536 C   0  0  0  0  0  0  0  0  0  0  0  0
  -26.8337  -22.7439   20.9335 C   0  0  0  0  0  0  0  0  0  0  0  0
  -20.6182  -22.6964   23.9571 C   0  0  0  0  0  0  0  0  0  0  0  0
  -21.1075  -22.0682   27.1017 C   0  0  0  0  0  0  0  0  0  0  0  0
  -23.2303  -15.2123   21.5554 C   0  0  0  0  0  0  0  0  0  0  0  0
  -21.5983  -19.7409   29.5490 C   0  0  0  0  0  0  0  0  0  0  0  0
  -30.7568  -15.4071   21.3468 C   0  0  0  0  0  0  0  0  0  0  0  0
  -21.7716  -27.6682   24.0511 C   0  0  0  0  0  0  0  0  0  0  0  0
  -28.0045  -12.0443   18.1666 C   0  0  0  0  0  0  0  0  0  0  0  0
  -18.8318  -20.9763   24.4106 C   0  0  0  0  0  0  0  0  0  0  0  0
  -21.4535  -20.1495   25.5004 C   0  0  0  0  0  0  0  0  0  0  0  0
  -22.3868  -26.3938   24.6233 C   0  0  0  0  0  0  0  0  0  0  0  0
  -29.4211  -11.8426   18.6949 C   0  0  0  0  0  0  0  0  0  0  0  0
  -31.7444  -18.1161   23.4355 C   0  0  0  0  0  0  0  0  0  0  0  0
  -22.4944  -25.3215   23.5437 C   0  0  0  0  0  0  0  0  0  0  0  0
  -30.0158  -13.1800   19.1144 C   0  0  0  0  0  0  0  0  0  0  0  0
  -31.0211  -19.3231   22.8356 C   0  0  0  0  0  0  0  0  0  0  0  0
  -32.2092  -17.1423   22.3550 C   0  0  0  0  0  0  0  0  0  0  0  0
  -30.4291  -17.9013   20.8289 C   0  0  0  0  0  0  0  0  0  0  0  0
  -21.1104  -24.9414   23.0038 C   0  0  1  0  0  0  0  0  0  0  0  0
  -29.2129  -13.7891   20.2708 C   0  0  1  0  0  0  0  0  0  0  0  0
  -19.8090  -21.9859   25.0049 C   0  0  1  0  0  0  0  0  0  0  0  0
  -29.8923  -18.8842   21.8835 C   0  0  2  0  0  0  0  0  0  0  0  0
  -22.0049  -19.5328   32.0166 C   0  0  0  0  0  0  0  0  0  0  0  0
  -24.0061  -22.9297   26.6943 C   0  0  0  0  0  0  0  0  0  0  0  0
  -24.5677  -21.8225   28.8684 C   0  0  0  0  0  0  0  0  0  0  0  0
  -22.9675  -23.7355   28.8218 C   0  0  0  0  0  0  0  0  0  0  0  0
  -19.1060  -18.1953   29.9470 C   0  0  0  0  0  0  0  0  0  0  0  0
  -22.7147  -16.1522   22.6293 C   0  0  0  0  0  0  0  0  0  1  0  0
  -22.2423  -21.4906   27.9126 C   0  0  1  0  0  0  0  0  0  0  0  0
  -20.9579  -19.5641   30.9140 C   0  0  2  0  0  0  0  0  0  0  0  0
  -23.4336  -22.4798   28.0533 C   0  0  0  0  0  0  0  0  0  0  0  0
  -29.6351  -20.5283   20.0633 N   0  0  0  0  0  0  0  0  0  0  0  0
  -29.1982  -20.0762   21.2511 N   0  0  0  0  0  0  0  0  0  0  0  0
  -20.7591  -21.3727   25.9352 N   0  0  0  0  0  0  0  0  0  0  0  0
  -31.0911  -16.7642   21.4872 N   0  0  0  0  0  0  0  0  0  0  0  0
  -27.5796  -20.4576   22.9380 N   0  0  0  0  0  0  0  0  0  0  0  0
  -27.1308  -23.9631   21.5577 N   0  0  0  0  0  0  0  0  0  0  0  0
  -24.6200  -15.1603   21.5745 N   0  0  0  0  0  0  0  0  0  0  0  0
  -20.4290  -24.0650   23.9323 N   0  0  0  0  0  0  0  0  0  0  0  0
  -21.6627  -21.0688   29.1832 N   0  0  0  0  0  0  0  0  0  0  0  0
  -29.6804  -15.1362   20.5108 N   0  0  0  0  0  0  0  0  0  0  0  0
  -20.1857  -18.2905   30.9629 N   0  3  0  0  0  0  0  0  0  0  0  0
  -25.6739  -22.5428   20.4998 O   0  0  0  0  0  0  0  0  0  0  0  0
  -21.3606  -22.0510   23.2264 O   0  0  0  0  0  0  0  0  0  0  0  0
  -20.5460  -23.0946   27.4927 O   0  0  0  0  0  0  0  0  0  0  0  0
  -22.4668  -14.6120   20.8063 O   0  0  0  0  0  0  0  0  0  0  0  0
  -22.0044  -18.7958   28.8764 O   0  0  0  0  0  0  0  0  0  0  0  0
  -31.3687  -14.5043   21.9277 O   0  0  0  0  0  0  0  0  0  0  0  0
  -29.4099  -24.5214   15.1078 O   0  0  0  0  0  0  0  0  0  0  0  0
  -21.2883  -16.1937   22.6259 O   0  0  0  0  0  0  0  0  0  1  0  0
  -25.2621  -27.8456   13.6417 F   0  0  0  0  0  0  0  0  0  0  0  0
  -28.1037  -24.1801   12.6954 F   0  0  0  0  0  0  0  0  0  0  0  0
  1  2  1  0  0  0  0
  1  5  2  0  0  0  0
  2  6  2  0  0  0  0
  3 10  2  0  0  0  0
  3 18  1  0  0  0  0
  4 11  1  0  0  0  0
  4 18  2  0  0  0  0
  5 20  1  0  0  0  0
  6 23  1  0  0  0  0
  7  9  2  0  0  0  0
  7 21  1  0  0  0  0
  8 12  2  0  0  0  0
  8 22  1  0  0  0  0
  9 26  1  0  0  0  0
 10 27  1  0  0  0  0
 11 27  2  0  0  0  0
 12 28  1  0  0  0  0
 13 14  2  0  0  0  0
 13 29  1  0  0  0  0
 14 30  1  0  0  0  0
 15 24  1  0  0  0  0
 15 26  2  0  0  0  0
 16 25  1  0  0  0  0
 16 28  2  0  0  0  0
 17 30  2  0  0  0  0
 17 31  1  0  0  0  0
 18 32  1  0  0  0  0
 19 32  1  0  0  0  0
 19 33  2  0  0  0  0
 19 34  1  0  0  0  0
 20 23  2  0  0  0  0
 20 40  1  0  0  0  0
 21 24  2  0  0  0  0
 21 41  1  0  0  0  0
 22 25  2  0  0  0  0
 22 42  1  0  0  0  0
 23 52  1  0  0  0  0
 24 53  1  0  0  0  0
 25 43  1  0  0  0  0
 26 71  1  0  0  0  0
 27 82  1  0  0  0  0
 28 83  1  0  0  0  0
 29 31  2  0  0  0  0
 29 82  1  0  0  0  0
 30 84  1  0  0  0  0
 31 85  1  0  0  0  0
 32 65  2  0  0  0  0
 33 66  1  0  0  0  0
 33 69  1  0  0  0  0
 34 70  1  0  0  0  0
 34 76  2  0  0  0  0
 35 54  1  0  0  0  0
 35 72  1  0  0  0  0
 35 77  2  0  0  0  0
 36 62  1  0  0  0  0
 36 67  1  0  0  0  0
 36 78  2  0  0  0  0
 37 61  1  0  0  0  0
 37 71  1  0  0  0  0
 37 79  2  0  0  0  0
 38 63  1  0  0  0  0
 38 73  1  0  0  0  0
 38 80  2  0  0  0  0
 39 68  1  0  0  0  0
 39 74  1  0  0  0  0
 39 81  2  0  0  0  0
 40 44  1  0  0  0  0
 41 45  1  0  0  0  0
 42 54  1  0  0  0  0
 43 67  1  0  0  0  0
 44 47  1  0  0  0  0
 45 48  1  0  0  0  0
 46 49  1  0  0  0  0
 46 50  1  0  0  0  0
 47 52  1  0  0  0  0
 48 53  1  0  0  0  0
 49 55  1  0  0  0  0
 50 68  1  0  0  0  0
 51 55  1  0  0  0  0
 51 68  1  0  0  0  0
 52 72  1  0  0  0  0
 53 74  1  0  0  0  0
 54 67  1  0  0  0  0
 55 66  1  0  0  0  0
 56 63  1  0  0  0  0
 57 64  1  0  0  0  0
 58 64  1  0  0  0  0
 59 64  1  0  0  0  0
 60 75  1  0  0  0  0
 61 83  1  0  0  0  0
 62 64  1  0  0  0  0
 62 73  1  0  0  0  0
 63 75  1  0  0  0  0
 65 66  1  0  0  0  0
M  CHG  1  75   1
M  ISO  4  39 100  61 101  74 100  83 101
M  END
> <Batch ID>
0154

> <Smiles>
CNC(C)C(=O)NC(C(=O)N1Cc2cc([101O:1][101CH2:1]C(=O)Nc3ccc4c(c3)C([100NH:0][100C:0](=O)N3CCCC(n5nc(-c6ccc(Oc7ccc(F)cc7F)cc6)c(C(N)=O)c5N)C3)CCC4)ccc2CC1C(=O)NC1CCCc2ccccc21)C(C)(C)C

> <Shape>
0.182

> <Color>
0.068

> <Negative vol penalty>
0.000

$$$$

  -OEChem-04052303333D

 82 91  0     1  0  0  0  0  0999 V2000
  -35.5679  -26.9401    9.6141 C   0  0  0  0  0  0  0  0  0  0  0  0
  -36.0683  -25.9117   10.4061 C   0  0  0  0  0  0  0  0  0  0  0  0
  -23.1642   -9.8609   19.9030 C   0  0  0  0  0  0  0  0  0  0  0  0
  -23.8347   -9.8940   22.2239 C   0  0  0  0  0  0  0  0  0  0  0  0
  -34.3917  -27.5923    9.9816 C   0  0  0  0  0  0  0  0  0  0  0  0
  -35.3932  -25.5355   11.5667 C   0  0  0  0  0  0  0  0  0  0  0  0
  -34.9326  -19.8883   13.8913 C   0  0  0  0  0  0  0  0  0  0  0  0
  -32.2048  -17.8183   20.9585 C   0  0  0  0  0  0  0  0  0  0  0  0
  -33.2185  -18.7168   20.6207 C   0  0  0  0  0  0  0  0  0  0  0  0
  -22.4363   -8.6929   20.1299 C   0  0  0  0  0  0  0  0  0  0  0  0
  -23.1067   -8.7260   22.4508 C   0  0  0  0  0  0  0  0  0  0  0  0
  -35.6263  -19.2329   14.9077 C   0  0  0  0  0  0  0  0  0  0  0  0
  -19.8757   -7.8607   22.9325 C   0  0  0  0  0  0  0  0  0  0  0  0
  -19.0751   -7.8092   24.0736 C   0  0  0  0  0  0  0  0  0  0  0  0
  -34.4187  -17.0019   19.3343 C   0  0  0  0  0  0  0  0  0  0  0  0
  -33.8833  -19.8210   16.4683 C   0  0  0  0  0  0  0  0  0  0  0  0
  -20.3287   -5.9023   24.8670 C   0  0  0  0  0  0  0  0  0  0  0  0
  -23.8635  -10.4614   20.9500 C   0  0  0  0  0  0  0  0  0  0  0  0
  -24.1551  -12.9929   20.8305 C   0  0  0  0  0  0  0  0  0  0  0  0
  -33.6966  -27.2174   11.1422 C   0  0  0  0  0  0  0  0  0  0  0  0
  -33.7124  -20.5254   14.1587 C   0  0  0  0  0  0  0  0  0  0  0  0
  -34.2073  -26.1841   11.9508 C   0  0  0  0  0  0  0  0  0  0  0  0
  -33.4148  -16.1381   19.6784 C   0  0  0  0  0  0  0  0  0  0  0  0
  -33.1749  -20.4816   15.4530 C   0  0  0  0  0  0  0  0  0  0  0  0
  -32.3693  -16.5559   20.4635 C   0  0  0  0  0  0  0  0  0  0  0  0
  -34.3142  -18.3139   19.8181 C   0  0  0  0  0  0  0  0  0  0  0  0
  -22.4075   -8.1254   21.4038 C   0  0  0  0  0  0  0  0  0  0  0  0
  -35.1031  -19.2017   16.1971 C   0  0  0  0  0  0  0  0  0  0  0  0
  -20.9027   -6.9329   22.7586 C   0  0  0  0  0  0  0  0  0  0  0  0
  -19.3016   -6.8300   25.0409 C   0  0  0  0  0  0  0  0  0  0  0  0
  -21.1292   -5.9538   23.7259 C   0  0  0  0  0  0  0  0  0  0  0  0
  -24.6161  -11.6677   20.7161 C   0  0  0  0  0  0  0  0  0  0  0  0
  -25.2441  -13.7644   20.5058 C   0  0  0  0  0  0  0  0  0  0  0  0
  -22.8586  -13.4827   21.1976 C   0  0  0  0  0  0  0  0  0  0  0  0
  -32.6629  -23.5214   13.9948 C   0  0  0  0  0  0  0  0  0  0  0  0
  -29.8131  -22.1507   14.7174 C   0  0  0  0  0  0  0  0  0  0  0  0
  -28.6194  -19.5738   16.9427 C   0  0  0  0  0  0  0  0  0  0  0  0
  -30.5121  -14.9865   20.9182 C   0  0  0  0  0  0  0  0  0  0  0  0
  -32.4547  -27.9833   11.5239 C   0  0  0  0  0  0  0  0  0  0  0  0
  -32.9634  -21.2053   13.0454 C   0  0  0  0  0  0  0  0  0  0  0  0
  -32.8281  -14.7594   19.5957 C   0  0  0  0  0  0  0  0  0  0  0  0
  -31.8586  -21.1327   15.7875 C   0  0  0  0  0  0  0  0  0  0  0  0
  -31.5984  -27.2732   12.5693 C   0  0  0  0  0  0  0  0  0  0  0  0
  -29.7116  -12.4687   18.5014 C   0  0  0  0  0  0  0  0  0  0  0  0
  -32.4687  -26.7561   13.7104 C   0  0  0  0  0  0  0  0  0  0  0  0
  -28.2532  -12.1660   18.8553 C   0  0  0  0  0  0  0  0  0  0  0  0
  -30.5431  -12.6842   19.7615 C   0  0  0  0  0  0  0  0  0  0  0  0
  -28.5927  -13.4364   21.0306 C   0  0  0  0  0  0  0  0  0  0  0  0
  -33.4902  -25.7307   13.2040 C   0  0  1  0  0  0  0  0  0  0  0  0
  -31.9810  -22.2608   13.5437 C   0  0  1  0  0  0  0  0  0  0  0  0
  -27.6720  -13.2250   19.8128 C   0  0  2  0  0  0  0  0  0  0  0  0
  -26.6201  -18.0670   16.7705 C   0  0  0  0  0  0  0  0  0  0  0  0
  -28.4229  -24.2837   16.3989 C   0  0  0  0  0  0  0  0  0  0  0  0
  -27.2406  -22.4481   17.6240 C   0  0  0  0  0  0  0  0  0  0  0  0
  -26.8749  -22.7476   15.1747 C   0  0  0  0  0  0  0  0  0  0  0  0
  -37.5131  -18.4580   18.8239 C   0  0  0  0  0  0  0  0  0  0  0  0
  -36.6888  -20.6573   18.0633 C   0  0  0  0  0  0  0  0  0  0  0  0
  -30.2830  -17.1421   17.2218 C   0  0  0  0  0  0  0  0  0  0  0  0
  -29.0792  -21.8196   15.9944 C   0  0  1  0  0  0  0  0  0  0  0  0
  -28.1195  -18.1949   16.5513 C   0  0  2  0  0  0  0  0  0  0  0  0
  -27.9328  -22.8255   16.2969 C   0  0  0  0  0  0  0  0  0  0  0  0
  -36.2444  -19.2183   18.3892 C   0  0  0  0  0  0  0  0  0  1  0  0
  -25.8979  -11.5976   20.3473 N   0  0  0  0  0  0  0  0  0  0  0  0
  -26.2517  -12.8885   20.2271 N   0  0  0  0  0  0  0  0  0  0  0  0
  -31.7479  -15.3231   20.4281 N   0  0  0  0  0  0  0  0  0  0  0  0
  -31.1671  -21.7903   14.6664 N   0  0  0  0  0  0  0  0  0  0  0  0
  -29.9557  -13.7488   20.5787 N   0  0  0  0  0  0  0  0  0  0  0  0
  -25.4284  -15.0998   20.4343 N   0  0  0  0  0  0  0  0  0  0  0  0
  -21.8542  -12.5531   21.5002 N   0  0  0  0  0  0  0  0  0  0  0  0
  -35.3215  -19.2546   19.5026 N   0  0  0  0  0  0  0  0  0  0  0  0
  -32.8549  -24.4484   12.9882 N   0  0  0  0  0  0  0  0  0  0  0  0
  -28.6402  -20.4344   15.8655 N   0  0  0  0  0  0  0  0  0  0  0  0
  -28.8039  -17.1470   17.3602 N   0  3  0  0  0  0  0  0  0  0  0  0
  -22.5938  -14.7081   21.2396 O   0  0  0  0  0  0  0  0  0  0  0  0
  -32.9894  -23.6445   15.1695 O   0  0  0  0  0  0  0  0  0  0  0  0
  -29.2055  -22.7021   13.7963 O   0  0  0  0  0  0  0  0  0  0  0  0
  -28.9540  -19.8601   18.0902 O   0  0  0  0  0  0  0  0  0  0  0  0
  -29.8863  -15.7905   21.6252 O   0  0  0  0  0  0  0  0  0  0  0  0
  -21.6971   -6.9858   21.6256 O   0  0  0  0  0  0  0  0  0  0  0  0
  -35.7808  -18.5609   17.1946 O   0  0  0  0  0  0  0  0  0  1  0  0
  -18.5338   -6.7816   26.1373 F   0  0  0  0  0  0  0  0  0  0  0  0
  -22.1151   -5.0605   23.5650 F   0  0  0  0  0  0  0  0  0  0  0  0
  1  2  1  0  0  0  0
  1  5  2  0  0  0  0
  2  6  2  0  0  0  0
  3 10  2  0  0  0  0
  3 18  1  0  0  0  0
  4 11  1  0  0  0  0
  4 18  2  0  0  0  0
  5 20  1  0  0  0  0
  6 22  1  0  0  0  0
  7 12  2  0  0  0  0
  7 21  1  0  0  0  0
  8  9  2  0  0  0  0
  8 25  1  0  0  0  0
  9 26  1  0  0  0  0
 10 27  1  0  0  0  0
 11 27  2  0  0  0  0
 12 28  1  0  0  0  0
 13 14  2  0  0  0  0
 13 29  1  0  0  0  0
 14 30  1  0  0  0  0
 15 23  1  0  0  0  0
 15 26  2  0  0  0  0
 16 24  1  0  0  0  0
 16 28  2  0  0  0  0
 17 30  2  0  0  0  0
 17 31  1  0  0  0  0
 18 32  1  0  0  0  0
 19 32  1  0  0  0  0
 19 33  2  0  0  0  0
 19 34  1  0  0  0  0
 20 22  2  0  0  0  0
 20 39  1  0  0  0  0
 21 24  2  0  0  0  0
 21 40  1  0  0  0  0
 22 49  1  0  0  0  0
 23 25  2  0  0  0  0
 23 41  1  0  0  0  0
 24 42  1  0  0  0  0
 25 65  1  0  0  0  0
 26 70  1  0  0  0  0
 27 79  1  0  0  0  0
 28 80  1  0  0  0  0
 29 31  2  0  0  0  0
 29 79  1  0  0  0  0
 30 81  1  0  0  0  0
 31 82  1  0  0  0  0
 32 63  2  0  0  0  0
 33 64  1  0  0  0  0
 33 68  1  0  0  0  0
 34 69  1  0  0  0  0
 34 74  2  0  0  0  0
 35 50  1  0  0  0  0
 35 71  1  0  0  0  0
 35 75  2  0  0  0  0
 36 59  1  0  0  0  0
 36 66  1  0  0  0  0
 36 76  2  0  0  0  0
 37 60  1  0  0  0  0
 37 72  1  0  0  0  0
 37 77  2  0  0  0  0
 38 65  1  0  0  0  0
 38 67  1  0  0  0  0
 38 78  2  0  0  0  0
 39 43  1  0  0  0  0
 40 50  1  0  0  0  0
 41 65  1  0  0  0  0
 42 66  1  0  0  0  0
 43 45  1  0  0  0  0
 44 46  1  0  0  0  0
 44 47  1  0  0  0  0
 45 49  1  0  0  0  0
 46 51  1  0  0  0  0
 47 67  1  0  0  0  0
 48 51  1  0  0  0  0
 48 67  1  0  0  0  0
 49 71  1  0  0  0  0
 50 66  1  0  0  0  0
 51 64  1  0  0  0  0
 52 60  1  0  0  0  0
 53 61  1  0  0  0  0
 54 61  1  0  0  0  0
 55 61  1  0  0  0  0
 56 62  1  0  0  0  0
 57 62  1  0  0  0  0
 58 73  1  0  0  0  0
 59 61  1  0  0  0  0
 59 72  1  0  0  0  0
 60 73  1  0  0  0  0
 62 70  1  0  0  0  0
 62 80  1  0  0  0  0
 63 64  1  0  0  0  0
M  CHG  1  73   1
M  ISO  4  38 100  62 101  65 100  80 101
M  END
> <Batch ID>
0154

> <Smiles>
CNC(C)C(=O)NC(C(=O)N1Cc2cc([101O:1][101C:1](C)(C)Nc3ccc4c(c3)C[100N:0]4[100C:0](=O)N3CCCC(n4nc(-c5ccc(Oc6ccc(F)cc6F)cc5)c(C(N)=O)c4N)C3)ccc2CC1C(=O)NC1CCCc2ccccc21)C(C)(C)C

> <Shape>
0.168

> <Color>
0.171

> <Negative vol penalty>
0.000

$$$$

  -OEChem-04052303333D

 84 92  0     1  0  0  0  0  0999 V2000
  -20.6527  -31.5797   19.6829 C   0  0  0  0  0  0  0  0  0  0  0  0
  -20.7956  -30.4334   18.9077 C   0  0  0  0  0  0  0  0  0  0  0  0
  -23.3141   -9.8820   19.7432 C   0  0  0  0  0  0  0  0  0  0  0  0
  -23.8267   -9.6970   22.0969 C   0  0  0  0  0  0  0  0  0  0  0  0
  -27.3323  -18.9605   15.8826 C   0  0  0  0  0  0  0  0  0  0  0  0
  -21.7735  -32.3397   20.0147 C   0  0  0  0  0  0  0  0  0  0  0  0
  -22.0594  -30.0470   18.4628 C   0  0  0  0  0  0  0  0  0  0  0  0
  -22.8907  -25.0855   19.0439 C   0  0  0  0  0  0  0  0  0  0  0  0
  -22.6401   -8.6618   19.7940 C   0  0  0  0  0  0  0  0  0  0  0  0
  -23.1527   -8.4768   22.1478 C   0  0  0  0  0  0  0  0  0  0  0  0
  -22.3082  -24.2288   18.1109 C   0  0  0  0  0  0  0  0  0  0  0  0
  -20.4751   -5.7703   19.3853 C   0  0  0  0  0  0  0  0  0  0  0  0
  -19.2355   -5.6873   18.7513 C   0  0  0  0  0  0  0  0  0  0  0  0
  -26.1710  -19.6713   15.6008 C   0  0  0  0  0  0  0  0  0  0  0  0
  -24.4166  -24.0700   16.9496 C   0  0  0  0  0  0  0  0  0  0  0  0
  -18.3857   -7.4376   20.1836 C   0  0  0  0  0  0  0  0  0  0  0  0
  -23.9075  -10.3995   20.8946 C   0  0  0  0  0  0  0  0  0  0  0  0
  -27.5421  -18.4620   17.1635 C   0  0  0  0  0  0  0  0  0  0  0  0
  -24.0625  -12.9404   21.0614 C   0  0  0  0  0  0  0  0  0  0  0  0
  -23.0529  -31.9571   19.5817 C   0  0  0  0  0  0  0  0  0  0  0  0
  -24.2400  -25.4502   18.9303 C   0  0  0  0  0  0  0  0  0  0  0  0
  -23.1982  -30.8033   18.7879 C   0  0  0  0  0  0  0  0  0  0  0  0
  -25.0145  -24.9295   17.8839 C   0  0  0  0  0  0  0  0  0  0  0  0
  -22.5594   -7.9593   20.9963 C   0  0  0  0  0  0  0  0  0  0  0  0
  -23.0704  -23.7231   17.0619 C   0  0  0  0  0  0  0  0  0  0  0  0
  -20.6701   -6.6870   20.4185 C   0  0  0  0  0  0  0  0  0  0  0  0
  -18.1908   -6.5209   19.1504 C   0  0  0  0  0  0  0  0  0  0  0  0
  -19.6254   -7.5206   20.8176 C   0  0  0  0  0  0  0  0  0  0  0  0
  -24.6043  -11.6596   20.8425 C   0  0  0  0  0  0  0  0  0  0  0  0
  -25.2579  -19.8547   16.6266 C   0  0  0  0  0  0  0  0  0  0  0  0
  -26.5676  -18.6997   18.1194 C   0  0  0  0  0  0  0  0  0  0  0  0
  -25.1250  -13.7952   20.8980 C   0  0  0  0  0  0  0  0  0  0  0  0
  -28.7858  -17.7035   17.4545 C   0  0  0  0  0  0  0  0  0  0  0  0
  -22.7188  -13.3231   21.3837 C   0  0  0  0  0  0  0  0  0  0  0  0
  -25.7951  -28.1899   18.5070 C   0  0  0  0  0  0  0  0  0  0  0  0
  -28.4105  -26.3243   18.9562 C   0  0  0  0  0  0  0  0  0  0  0  0
  -29.8041  -23.2114   18.8356 C   0  0  0  0  0  0  0  0  0  0  0  0
  -29.6396  -15.4946   18.1725 C   0  0  0  0  0  0  0  0  0  0  0  0
  -24.2288  -32.8365   19.9258 C   0  0  0  0  0  0  0  0  0  0  0  0
  -24.8602  -26.3542   19.9602 C   0  0  0  0  0  0  0  0  0  0  0  0
  -26.4724  -25.2741   17.7289 C   0  0  0  0  0  0  0  0  0  0  0  0
  -25.5792  -32.1525   19.7288 C   0  0  0  0  0  0  0  0  0  0  0  0
  -30.0829  -12.8494   20.4754 C   0  0  0  0  0  0  0  0  0  0  0  0
  -25.6234  -31.4360   18.3829 C   0  0  0  0  0  0  0  0  0  0  0  0
  -28.6526  -12.4120   20.8027 C   0  0  0  0  0  0  0  0  0  0  0  0
  -30.2355  -13.2369   19.0052 C   0  0  0  0  0  0  0  0  0  0  0  0
  -27.8419  -13.7874   18.8443 C   0  0  0  0  0  0  0  0  0  0  0  0
  -24.5556  -30.3380   18.3071 C   0  0  1  0  0  0  0  0  0  0  0  0
  -26.1105  -27.0670   19.4542 C   0  0  1  0  0  0  0  0  0  0  0  0
  -27.6199  -13.4542   20.3285 C   0  0  1  0  0  0  0  0  0  0  0  0
  -31.9709  -22.0068   19.2243 C   0  0  0  0  0  0  0  0  0  0  0  0
  -21.3412  -20.9275   15.4603 C   0  0  0  0  0  0  0  0  0  0  0  0
  -29.4879  -27.4162   16.3186 C   0  0  0  0  0  0  0  0  0  0  0  0
  -31.1307  -25.5273   16.2880 C   0  0  0  0  0  0  0  0  0  0  0  0
  -31.1943  -27.2034   18.1344 C   0  0  0  0  0  0  0  0  0  0  0  0
  -28.6187  -21.5231   20.9577 C   0  0  0  0  0  0  0  0  0  0  0  0
  -23.0625  -20.8355   17.2931 C   0  0  0  0  0  0  0  0  0  0  0  0
  -29.3138  -25.5153   18.0571 C   0  0  1  0  0  0  0  0  0  0  0  0
  -30.6508  -22.4473   19.8375 C   0  0  2  0  0  0  0  0  0  0  0  0
  -21.9581  -21.6637   16.6406 C   0  0  1  0  0  0  0  0  0  1  0  0
  -30.2537  -26.4104   17.2011 C   0  0  0  0  0  0  0  0  0  0  0  0
  -25.9096  -11.6931   20.5614 N   0  0  0  0  0  0  0  0  0  0  0  0
  -25.4268  -19.3856   17.8831 N   0  0  0  0  0  0  0  0  0  0  0  0
  -26.1969  -13.0053   20.6024 N   0  0  0  0  0  0  0  0  0  0  0  0
  -27.0315  -26.1667   18.7576 N   0  0  0  0  0  0  0  0  0  0  0  0
  -29.2280  -14.2336   18.6382 N   0  0  0  0  0  0  0  0  0  0  0  0
  -26.7747  -18.1953   19.4277 N   0  0  0  0  0  0  0  0  0  0  0  0
  -25.2377  -15.1380   20.9797 N   0  0  0  0  0  0  0  0  0  0  0  0
  -21.7510  -12.3179   21.5147 N   0  0  0  0  0  0  0  0  0  0  0  0
  -24.1055  -20.5633   16.3302 N   0  0  0  0  0  0  0  0  0  0  0  0
  -28.6027  -16.3905   17.8891 N   0  0  0  0  0  0  0  0  0  0  0  0
  -24.9806  -29.1679   19.0451 N   0  0  0  0  0  0  0  0  0  0  0  0
  -30.0126  -24.5716   18.9229 N   0  0  0  0  0  0  0  0  0  0  0  0
  -29.9249  -21.2351   20.3113 N   0  3  0  0  0  0  0  0  0  0  0  0
  -29.8729  -18.2420   17.2647 O   0  0  0  0  0  0  0  0  0  0  0  0
  -22.3828  -14.5222   21.5343 O   0  0  0  0  0  0  0  0  0  0  0  0
  -26.2578  -28.1712   17.3724 O   0  0  0  0  0  0  0  0  0  0  0  0
  -28.9098  -27.0633   19.8084 O   0  0  0  0  0  0  0  0  0  0  0  0
  -29.0373  -22.6568   18.0513 O   0  0  0  0  0  0  0  0  0  0  0  0
  -30.8281  -15.8092   18.0554 O   0  0  0  0  0  0  0  0  0  0  0  0
  -21.9016   -6.7687   21.0464 O   0  0  0  0  0  0  0  0  0  0  0  0
  -22.5043  -22.8872   16.1495 O   0  0  0  0  0  0  0  0  0  1  0  0
  -17.0009   -6.4421   18.5405 F   0  0  0  0  0  0  0  0  0  0  0  0
  -19.8070   -8.4040   21.8088 F   0  0  0  0  0  0  0  0  0  0  0  0
  1  2  1  0  0  0  0
  1  6  2  0  0  0  0
  2  7  2  0  0  0  0
  3  9  2  0  0  0  0
  3 17  1  0  0  0  0
  4 10  1  0  0  0  0
  4 17  2  0  0  0  0
  5 14  2  0  0  0  0
  5 18  1  0  0  0  0
  6 20  1  0  0  0  0
  7 22  1  0  0  0  0
  8 11  2  0  0  0  0
  8 21  1  0  0  0  0
  9 24  1  0  0  0  0
 10 24  2  0  0  0  0
 11 25  1  0  0  0  0
 12 13  2  0  0  0  0
 12 26  1  0  0  0  0
 13 27  1  0  0  0  0
 14 30  1  0  0  0  0
 15 23  1  0  0  0  0
 15 25  2  0  0  0  0
 16 27  2  0  0  0  0
 16 28  1  0  0  0  0
 17 29  1  0  0  0  0
 18 31  2  0  0  0  0
 18 33  1  0  0  0  0
 19 29  1  0  0  0  0
 19 32  2  0  0  0  0
 19 34  1  0  0  0  0
 20 22  2  0  0  0  0
 20 39  1  0  0  0  0
 21 23  2  0  0  0  0
 21 40  1  0  0  0  0
 22 48  1  0  0  0  0
 23 41  1  0  0  0  0
 24 81  1  0  0  0  0
 25 82  1  0  0  0  0
 26 28  2  0  0  0  0
 26 81  1  0  0  0  0
 27 83  1  0  0  0  0
 28 84  1  0  0  0  0
 29 62  2  0  0  0  0
 30 63  2  0  0  0  0
 30 70  1  0  0  0  0
 31 63  1  0  0  0  0
 31 67  1  0  0  0  0
 32 64  1  0  0  0  0
 32 68  1  0  0  0  0
 33 71  1  0  0  0  0
 33 75  2  0  0  0  0
 34 69  1  0  0  0  0
 34 76  2  0  0  0  0
 35 49  1  0  0  0  0
 35 72  1  0  0  0  0
 35 77  2  0  0  0  0
 36 58  1  0  0  0  0
 36 65  1  0  0  0  0
 36 78  2  0  0  0  0
 37 59  1  0  0  0  0
 37 73  1  0  0  0  0
 37 79  2  0  0  0  0
 38 66  1  0  0  0  0
 38 71  1  0  0  0  0
 38 80  2  0  0  0  0
 39 42  1  0  0  0  0
 40 49  1  0  0  0  0
 41 65  1  0  0  0  0
 42 44  1  0  0  0  0
 43 45  1  0  0  0  0
 43 46  1  0  0  0  0
 44 48  1  0  0  0  0
 45 50  1  0  0  0  0
 46 66  1  0  0  0  0
 47 50  1  0  0  0  0
 47 66  1  0  0  0  0
 48 72  1  0  0  0  0
 49 65  1  0  0  0  0
 50 64  1  0  0  0  0
 51 59  1  0  0  0  0
 52 60  1  0  0  0  0
 53 61  1  0  0  0  0
 54 61  1  0  0  0  0
 55 61  1  0  0  0  0
 56 74  1  0  0  0  0
 57 60  1  0  0  0  0
 57 70  1  0  0  0  0
 58 61  1  0  0  0  0
 58 73  1  0  0  0  0
 59 74  1  0  0  0  0
 60 82  1  0  0  0  0
 62 64  1  0  0  0  0
M  CHG  1  74   1
M  ISO  4  38 100  60 101  71 100  82 101
M  END
> <Batch ID>
0154

> <Smiles>
CNC(C)C(=O)NC(C(=O)N1Cc2cc([101O:1][101CH:1](C)CNc3ccc(C(=O)[100NH:0][100C:0](=O)N4CCCC(n5nc(-c6ccc(Oc7ccc(F)cc7F)cc6)c(C(N)=O)c5N)C4)c(N)n3)ccc2CC1C(=O)NC1CCCc2ccccc21)C(C)(C)C

> <Shape>
0.220

> <Color>
0.156

> <Negative vol penalty>
0.000

$$$$

  -OEChem-04052303333D

 86 95  0     1  0  0  0  0  0999 V2000
  -28.0283  -30.0554   28.0022 C   0  0  0  0  0  0  0  0  0  0  0  0
  -27.9114  -29.2102   26.9034 C   0  0  0  0  0  0  0  0  0  0  0  0
  -24.7152   -8.4198   21.4193 C   0  0  0  0  0  0  0  0  0  0  0  0
  -23.0470  -10.1652   21.3337 C   0  0  0  0  0  0  0  0  0  0  0  0
  -26.9749  -30.9025   28.3438 C   0  0  0  0  0  0  0  0  0  0  0  0
  -26.7405  -29.2108   26.1462 C   0  0  0  0  0  0  0  0  0  0  0  0
  -27.6488  -29.2256   21.1642 C   0  0  0  0  0  0  0  0  0  0  0  0
  -23.9503   -7.7349   22.3635 C   0  0  0  0  0  0  0  0  0  0  0  0
  -22.2820   -9.4803   22.2778 C   0  0  0  0  0  0  0  0  0  0  0  0
  -28.0171  -28.0142   20.5806 C   0  0  0  0  0  0  0  0  0  0  0  0
  -22.2650   -5.3497   24.5281 C   0  0  0  0  0  0  0  0  0  0  0  0
  -22.1018   -3.9751   24.3569 C   0  0  0  0  0  0  0  0  0  0  0  0
  -25.7569  -27.7134   19.7931 C   0  0  0  0  0  0  0  0  0  0  0  0
  -27.2213  -19.0372   20.1099 C   0  0  0  0  0  0  0  0  0  0  0  0
  -21.0554   -4.3662   22.2146 C   0  0  0  0  0  0  0  0  0  0  0  0
  -24.2636   -9.6350   20.9044 C   0  0  0  0  0  0  0  0  0  0  0  0
  -24.9909  -10.2148   18.5290 C   0  0  0  0  0  0  0  0  0  0  0  0
  -25.7942  -30.9204   27.5847 C   0  0  0  0  0  0  0  0  0  0  0  0
  -26.3270  -29.6855   21.0759 C   0  0  0  0  0  0  0  0  0  0  0  0
  -25.6698  -30.0580   26.4788 C   0  0  0  0  0  0  0  0  0  0  0  0
  -25.3750  -28.9322   20.3743 C   0  0  0  0  0  0  0  0  0  0  0  0
  -26.3406  -20.1525   20.0074 C   0  0  0  0  0  0  0  0  0  0  0  0
  -22.7337   -8.2652   22.7927 C   0  0  0  0  0  0  0  0  0  0  0  0
  -27.0704  -27.2565   19.8974 C   0  0  0  0  0  0  0  0  0  0  0  0
  -21.8234   -6.2326   23.5427 C   0  0  0  0  0  0  0  0  0  0  0  0
  -21.4971   -3.4833   23.2001 C   0  0  0  0  0  0  0  0  0  0  0  0
  -21.2186   -5.7409   22.3859 C   0  0  0  0  0  0  0  0  0  0  0  0
  -25.0536  -10.3432   19.9295 C   0  0  0  0  0  0  0  0  0  0  0  0
  -25.0203  -19.7651   19.9437 C   0  0  0  0  0  0  0  0  0  0  0  0
  -25.9352  -11.0955   18.0609 C   0  0  0  0  0  0  0  0  0  0  0  0
  -26.5404  -17.8396   20.1208 C   0  0  0  0  0  0  0  0  0  0  0  0
  -24.1539   -9.3746   17.7233 C   0  0  0  0  0  0  0  0  0  0  0  0
  -23.9076  -20.6575   19.8377 C   0  0  0  0  0  0  0  0  0  0  0  0
  -24.0326  -30.3345   23.1778 C   0  0  0  0  0  0  0  0  0  0  0  0
  -22.4658  -31.4090   20.5486 C   0  0  0  0  0  0  0  0  0  0  0  0
  -22.0804  -31.3004   17.1594 C   0  0  0  0  0  0  0  0  0  0  0  0
  -28.3363  -16.0832   20.3109 C   0  0  0  0  0  0  0  0  0  0  0  0
  -24.6643  -31.8192   28.0208 C   0  0  0  0  0  0  0  0  0  0  0  0
  -25.9520  -31.0072   21.6880 C   0  0  0  0  0  0  0  0  0  0  0  0
  -23.9475  -29.3915   20.2334 C   0  0  0  0  0  0  0  0  0  0  0  0
  -23.6025  -32.0289   26.9443 C   0  0  0  0  0  0  0  0  0  0  0  0
  -30.0807  -13.1489   19.2988 C   0  0  0  0  0  0  0  0  0  0  0  0
  -23.2188  -30.6974   26.3064 C   0  0  0  0  0  0  0  0  0  0  0  0
  -28.9828  -12.0862   19.2123 C   0  0  0  0  0  0  0  0  0  0  0  0
  -27.8778  -23.4586   20.5699 C   0  0  0  0  0  0  0  0  0  0  0  0
  -29.8453  -14.1144   20.4590 C   0  0  0  0  0  0  0  0  0  0  0  0
  -27.9874  -21.9344   20.6385 C   0  0  0  0  0  0  0  0  0  0  0  0
  -27.4209  -13.6811   20.3971 C   0  0  0  0  0  0  0  0  0  0  0  0
  -26.0741  -22.5412   19.2780 C   0  0  0  0  0  0  0  0  0  0  0  0
  -24.4252  -30.0475   25.6180 C   0  0  1  0  0  0  0  0  0  0  0  0
  -24.4590  -31.1300   21.9765 C   0  0  1  0  0  0  0  0  0  0  0  0
  -27.5799  -12.7245   19.2040 C   0  0  2  0  0  0  0  0  0  0  0  0
  -27.0815  -23.6982   19.2887 C   0  0  1  0  0  0  0  0  0  0  0  0
  -20.6931  -32.2624   15.3028 C   0  0  0  0  0  0  0  0  0  0  0  0
  -20.1506  -29.5845   21.3364 C   0  0  0  0  0  0  0  0  0  0  0  0
  -19.2409  -29.8545   19.0196 C   0  0  0  0  0  0  0  0  0  0  0  0
  -19.4644  -31.8427   20.5095 C   0  0  0  0  0  0  0  0  0  0  0  0
  -24.4478  -32.5148   15.8635 C   0  0  0  0  0  0  0  0  0  0  0  0
  -26.4200  -25.0665   19.2365 C   0  0  0  0  0  0  0  0  0  1  0  0
  -21.5426  -30.7903   19.5269 C   0  0  1  0  0  0  0  0  0  0  0  0
  -21.9660  -32.4034   16.1228 C   0  0  2  0  0  0  0  0  0  0  0  0
  -20.1260  -30.5081   20.1022 C   0  0  0  0  0  0  0  0  0  0  0  0
  -25.9657  -11.2351   20.3252 N   0  0  0  0  0  0  0  0  0  0  0  0
  -26.4849  -11.6750   19.1664 N   0  0  0  0  0  0  0  0  0  0  0  0
  -26.7743  -21.4613   19.9773 N   0  0  3  0  0  0  0  0  0  0  0  0
  -23.6283  -30.6875   20.8547 N   0  0  0  0  0  0  0  0  0  0  0  0
  -28.4979  -14.6834   20.3832 N   0  0  0  0  0  0  0  0  0  0  0  0
  -26.3406  -11.4229   16.8156 N   0  0  0  0  0  0  0  0  0  0  0  0
  -23.2384   -8.5301   18.3661 N   0  0  0  0  0  0  0  0  0  0  0  0
  -23.4358  -21.0426   18.6309 N   0  0  0  0  0  0  0  0  0  0  0  0
  -27.0114  -16.5062   20.2095 N   0  0  0  0  0  0  0  0  0  0  0  0
  -24.6844  -30.6849   24.3448 N   0  0  0  0  0  0  0  0  0  0  0  0
  -21.5521  -31.6841   18.3739 N   0  0  0  0  0  0  0  0  0  0  0  0
  -23.2939  -21.1405   20.9410 N   0  3  0  0  0  0  0  0  0  0  0  0
  -23.1305  -32.3637   15.1936 N   0  3  0  0  0  0  0  0  0  0  0  0
  -24.2274   -9.3608   16.4712 O   0  0  0  0  0  0  0  0  0  0  0  0
  -23.1747  -29.4681   23.0554 O   0  0  0  0  0  0  0  0  0  0  0  0
  -22.1700  -32.4960   21.0511 O   0  0  0  0  0  0  0  0  0  0  0  0
  -22.5843  -30.2063   16.9152 O   0  0  0  0  0  0  0  0  0  0  0  0
  -29.3036  -16.8489   20.3094 O   0  0  0  0  0  0  0  0  0  0  0  0
  -27.9429  -23.5600   18.1583 O   0  0  0  0  0  0  0  0  0  0  0  0
  -21.9868   -7.5971   23.7138 O   0  0  0  0  0  0  0  0  0  0  0  0
  -27.4271  -26.0734   19.3273 O   0  0  0  0  0  0  0  0  0  1  0  0
  -21.3418   -2.1632   23.0351 F   0  0  0  0  0  0  0  0  0  0  0  0
  -20.7934   -6.5841   21.4352 F   0  0  0  0  0  0  0  0  0  0  0  0
  -24.8464  -18.0628   20.0075 S   0  0  0  0  0  0  0  0  0  0  0  0
  1  2  1  0  0  0  0
  1  5  2  0  0  0  0
  2  6  2  0  0  0  0
  3  8  2  0  0  0  0
  3 16  1  0  0  0  0
  4  9  1  0  0  0  0
  4 16  2  0  0  0  0
  5 18  1  0  0  0  0
  6 20  1  0  0  0  0
  7 10  2  0  0  0  0
  7 19  1  0  0  0  0
  8 23  1  0  0  0  0
  9 23  2  0  0  0  0
 10 24  1  0  0  0  0
 11 12  2  0  0  0  0
 11 25  1  0  0  0  0
 12 26  1  0  0  0  0
 13 21  1  0  0  0  0
 13 24  2  0  0  0  0
 14 22  1  0  0  0  0
 14 31  2  0  0  0  0
 15 26  2  0  0  0  0
 15 27  1  0  0  0  0
 16 28  1  0  0  0  0
 17 28  1  0  0  0  0
 17 30  2  0  0  0  0
 17 32  1  0  0  0  0
 18 20  2  0  0  0  0
 18 38  1  0  0  0  0
 19 21  2  0  0  0  0
 19 39  1  0  0  0  0
 20 50  1  0  0  0  0
 21 40  1  0  0  0  0
 22 29  2  0  0  0  0
 22 65  1  0  0  0  0
 23 82  1  0  0  0  0
 24 83  1  0  0  0  0
 25 27  2  0  0  0  0
 25 82  1  0  0  0  0
 26 84  1  0  0  0  0
 27 85  1  0  0  0  0
 28 63  2  0  0  0  0
 29 33  1  0  0  0  0
 29 86  1  0  0  0  0
 30 64  1  0  0  0  0
 30 68  1  0  0  0  0
 31 71  1  0  0  0  0
 31 86  1  0  0  0  0
 32 69  1  0  0  0  0
 32 76  2  0  0  0  0
 33 70  1  0  0  0  0
 33 74  2  0  0  0  0
 34 51  1  0  0  0  0
 34 72  1  0  0  0  0
 34 77  2  0  0  0  0
 35 60  1  0  0  0  0
 35 66  1  0  0  0  0
 35 78  2  0  0  0  0
 36 61  1  0  0  0  0
 36 73  1  0  0  0  0
 36 79  2  0  0  0  0
 37 67  1  0  0  0  0
 37 71  1  0  0  0  0
 37 80  2  0  0  0  0
 38 41  1  0  0  0  0
 39 51  1  0  0  0  0
 40 66  1  0  0  0  0
 41 43  1  0  0  0  0
 42 44  1  0  0  0  0
 42 46  1  0  0  0  0
 43 50  1  0  0  0  0
 44 52  1  0  0  0  0
 45 47  1  0  0  0  0
 45 53  1  0  0  0  0
 46 67  1  0  0  0  0
 47 65  1  0  0  0  0
 48 52  1  0  0  0  0
 48 67  1  0  0  0  0
 49 53  1  0  0  0  0
 49 65  1  0  0  0  0
 50 72  1  0  0  0  0
 51 66  1  0  0  0  0
 52 64  1  0  0  0  0
 53 59  1  0  0  0  0
 53 81  1  0  0  0  0
 54 61  1  0  0  0  0
 55 62  1  0  0  0  0
 56 62  1  0  0  0  0
 57 62  1  0  0  0  0
 58 75  1  0  0  0  0
 59 83  1  0  0  0  0
 60 62  1  0  0  0  0
 60 73  1  0  0  0  0
 61 75  1  0  0  0  0
 63 64  1  0  0  0  0
M  CHG  2  74   1  75   1
M  ISO  4  37 100  59 101  71 100  83 101
M  END
> <Batch ID>
0154

> <Smiles>
CNC(C)C(=O)NC(C(=O)N1Cc2cc([101O:1][101CH2:1]C3(O)CCN(c4cc([100NH:0][100C:0](=O)N5CCCC(n6nc(-c7ccc(Oc8ccc(F)cc8F)cc7)c(C(N)=O)c6N)C5)sc4C(=N)N)C3)ccc2CC1C(=O)NC1CCCc2ccccc21)C(C)(C)C

> <Shape>
0.258

> <Color>
0.097

> <Negative vol penalty>
0.000

$$$$

  -OEChem-04052303333D

 82 91  0     1  0  0  0  0  0999 V2000
  -27.0200  -37.0284   20.3364 C   0  0  0  0  0  0  0  0  0  0  0  0
  -27.4832  -35.7978   19.8820 C   0  0  0  0  0  0  0  0  0  0  0  0
  -23.2117  -10.1401   19.8074 C   0  0  0  0  0  0  0  0  0  0  0  0
  -23.8728   -9.7349   22.0956 C   0  0  0  0  0  0  0  0  0  0  0  0
  -26.4216  -37.1264   21.5919 C   0  0  0  0  0  0  0  0  0  0  0  0
  -27.3492  -34.6646   20.6834 C   0  0  0  0  0  0  0  0  0  0  0  0
  -26.2927  -28.9319   18.8057 C   0  0  0  0  0  0  0  0  0  0  0  0
  -22.5010   -8.9400   19.8002 C   0  0  0  0  0  0  0  0  0  0  0  0
  -23.1620   -8.5347   22.0884 C   0  0  0  0  0  0  0  0  0  0  0  0
  -27.1369  -27.8415   18.6003 C   0  0  0  0  0  0  0  0  0  0  0  0
  -23.5988   -5.3876   20.9327 C   0  0  0  0  0  0  0  0  0  0  0  0
  -24.2207   -4.2629   21.4747 C   0  0  0  0  0  0  0  0  0  0  0  0
  -26.6066  -27.0230   20.8067 C   0  0  0  0  0  0  0  0  0  0  0  0
  -28.7378  -20.4217   18.3192 C   0  0  0  0  0  0  0  0  0  0  0  0
  -22.4432   -4.0626   23.0987 C   0  0  0  0  0  0  0  0  0  0  0  0
  -23.8977  -10.5376   20.9551 C   0  0  0  0  0  0  0  0  0  0  0  0
  -24.1509  -13.0485   21.3276 C   0  0  0  0  0  0  0  0  0  0  0  0
  -26.2714  -35.9919   22.4050 C   0  0  0  0  0  0  0  0  0  0  0  0
  -25.6064  -29.0820   20.0193 C   0  0  0  0  0  0  0  0  0  0  0  0
  -26.7494  -34.7477   21.9515 C   0  0  0  0  0  0  0  0  0  0  0  0
  -25.7523  -28.1148   21.0240 C   0  0  0  0  0  0  0  0  0  0  0  0
  -28.7436  -19.0123   18.3135 C   0  0  0  0  0  0  0  0  0  0  0  0
  -22.4761   -8.1373   20.9406 C   0  0  0  0  0  0  0  0  0  0  0  0
  -27.2962  -26.8884   19.6020 C   0  0  0  0  0  0  0  0  0  0  0  0
  -22.3991   -5.8499   21.4737 C   0  0  0  0  0  0  0  0  0  0  0  0
  -23.6429   -3.6003   22.5576 C   0  0  0  0  0  0  0  0  0  0  0  0
  -21.8213   -5.1874   22.5567 C   0  0  0  0  0  0  0  0  0  0  0  0
  -24.6325  -11.7770   20.9630 C   0  0  0  0  0  0  0  0  0  0  0  0
  -28.1568  -18.4884   19.4283 C   0  0  0  0  0  0  0  0  0  0  0  0
  -25.2290  -13.8837   21.1649 C   0  0  0  0  0  0  0  0  0  0  0  0
  -28.1281  -20.9011   19.4681 C   0  0  0  0  0  0  0  0  0  0  0  0
  -22.8456  -13.4397   21.7735 C   0  0  0  0  0  0  0  0  0  0  0  0
  -25.5956  -31.2585   22.3358 C   0  0  0  0  0  0  0  0  0  0  0  0
  -23.1473  -29.4633   23.4783 C   0  0  0  0  0  0  0  0  0  0  0  0
  -28.2345  -23.4065   19.2550 C   0  0  0  0  0  0  0  0  0  0  0  0
  -21.5889  -26.4295   23.5976 C   0  0  0  0  0  0  0  0  0  0  0  0
  -29.4924  -15.5042   17.8605 C   0  0  0  0  0  0  0  0  0  0  0  0
  -25.6607  -36.1559   23.7742 C   0  0  0  0  0  0  0  0  0  0  0  0
  -24.6787  -30.2497   20.2150 C   0  0  0  0  0  0  0  0  0  0  0  0
  -25.0222  -28.2192   22.3372 C   0  0  0  0  0  0  0  0  0  0  0  0
  -29.2296  -17.9493   17.4157 C   0  0  0  0  0  0  0  0  0  0  0  0
  -28.1339  -17.0154   19.4511 C   0  0  0  0  0  0  0  0  0  0  0  0
  -25.2188  -34.8383   24.4059 C   0  0  0  0  0  0  0  0  0  0  0  0
  -30.1116  -12.8564   20.3286 C   0  0  0  0  0  0  0  0  0  0  0  0
  -26.3105  -33.7831   24.2586 C   0  0  0  0  0  0  0  0  0  0  0  0
  -28.6950  -12.4170   20.7053 C   0  0  0  0  0  0  0  0  0  0  0  0
  -30.1895  -13.3721   18.8931 C   0  0  0  0  0  0  0  0  0  0  0  0
  -27.8010  -13.9733   18.9367 C   0  0  0  0  0  0  0  0  0  0  0  0
  -26.5998  -33.4910   22.7813 C   0  0  1  0  0  0  0  0  0  0  0  0
  -24.4276  -30.5735   21.6845 C   0  0  1  0  0  0  0  0  0  0  0  0
  -27.6670  -13.5227   20.3973 C   0  0  1  0  0  0  0  0  0  0  0  0
  -19.6317  -25.2602   24.6461 C   0  0  0  0  0  0  0  0  0  0  0  0
  -24.6586  -29.3117   26.1246 C   0  0  0  0  0  0  0  0  0  0  0  0
  -23.1746  -27.4058   26.7830 C   0  0  0  0  0  0  0  0  0  0  0  0
  -22.1921  -29.6575   26.3503 C   0  0  0  0  0  0  0  0  0  0  0  0
  -20.3779  -25.8444   20.9613 C   0  0  0  0  0  0  0  0  0  0  0  0
  -27.8010  -24.6117   20.0687 C   0  0  0  0  0  0  0  0  0  1  0  0
  -23.0330  -28.2777   24.4058 C   0  0  1  0  0  0  0  0  0  0  0  0
  -20.1305  -26.0394   23.4391 C   0  0  2  0  0  0  0  0  0  0  0  0
  -23.2800  -28.6619   25.8920 C   0  0  0  0  0  0  0  0  0  0  0  0
  -25.9167  -11.7977   20.5962 N   0  0  0  0  0  0  0  0  0  0  0  0
  -26.2510  -13.0925   20.7294 N   0  0  0  0  0  0  0  0  0  0  0  0
  -24.1316  -29.3824   22.4831 N   0  0  0  0  0  0  0  0  0  0  0  0
  -28.8796  -16.7192   18.1863 N   0  0  0  0  0  0  0  0  0  0  0  0
  -29.1752  -14.3974   18.6540 N   0  0  0  0  0  0  0  0  0  0  0  0
  -25.3930  -15.2104   21.3532 N   0  0  0  0  0  0  0  0  0  0  0  0
  -21.8545  -12.4550   21.8846 N   0  0  0  0  0  0  0  0  0  0  0  0
  -27.9010  -22.1816   19.8914 N   0  0  0  0  0  0  0  0  0  0  0  0
  -25.5734  -32.6357   22.2249 N   0  0  0  0  0  0  0  0  0  0  0  0
  -21.7244  -27.6850   24.1514 N   0  0  0  0  0  0  0  0  0  0  0  0
  -19.9496  -25.1930   22.2259 N   0  3  0  0  0  0  0  0  0  0  0  0
  -22.5618  -14.6301   22.0491 O   0  0  0  0  0  0  0  0  0  0  0  0
  -26.4526  -30.5874   22.8986 O   0  0  0  0  0  0  0  0  0  0  0  0
  -22.3864  -30.4228   23.6268 O   0  0  0  0  0  0  0  0  0  0  0  0
  -28.8051  -23.5311   18.1764 O   0  0  0  0  0  0  0  0  0  0  0  0
  -22.5153  -25.6926   23.2670 O   0  0  0  0  0  0  0  0  0  0  0  0
  -30.3211  -15.4247   16.9450 O   0  0  0  0  0  0  0  0  0  0  0  0
  -21.7825   -6.9662   20.9340 O   0  0  0  0  0  0  0  0  0  0  0  0
  -28.1287  -25.8124   19.4023 O   0  0  0  0  0  0  0  0  0  1  0  0
  -24.2394   -2.5193   23.0770 F   0  0  0  0  0  0  0  0  0  0  0  0
  -20.6682   -5.6261   23.0800 F   0  0  0  0  0  0  0  0  0  0  0  0
  -27.5832  -19.6285   20.5075 S   0  0  0  0  0  0  0  0  0  0  0  0
  1  2  1  0  0  0  0
  1  5  2  0  0  0  0
  2  6  2  0  0  0  0
  3  8  2  0  0  0  0
  3 16  1  0  0  0  0
  4  9  1  0  0  0  0
  4 16  2  0  0  0  0
  5 18  1  0  0  0  0
  6 20  1  0  0  0  0
  7 10  2  0  0  0  0
  7 19  1  0  0  0  0
  8 23  1  0  0  0  0
  9 23  2  0  0  0  0
 10 24  1  0  0  0  0
 11 12  2  0  0  0  0
 11 25  1  0  0  0  0
 12 26  1  0  0  0  0
 13 21  1  0  0  0  0
 13 24  2  0  0  0  0
 14 22  1  0  0  0  0
 14 31  2  0  0  0  0
 15 26  2  0  0  0  0
 15 27  1  0  0  0  0
 16 28  1  0  0  0  0
 17 28  1  0  0  0  0
 17 30  2  0  0  0  0
 17 32  1  0  0  0  0
 18 20  2  0  0  0  0
 18 38  1  0  0  0  0
 19 21  2  0  0  0  0
 19 39  1  0  0  0  0
 20 49  1  0  0  0  0
 21 40  1  0  0  0  0
 22 29  2  0  0  0  0
 22 41  1  0  0  0  0
 23 78  1  0  0  0  0
 24 79  1  0  0  0  0
 25 27  2  0  0  0  0
 25 78  1  0  0  0  0
 26 80  1  0  0  0  0
 27 81  1  0  0  0  0
 28 61  2  0  0  0  0
 29 42  1  0  0  0  0
 29 82  1  0  0  0  0
 30 62  1  0  0  0  0
 30 66  1  0  0  0  0
 31 68  1  0  0  0  0
 31 82  1  0  0  0  0
 32 67  1  0  0  0  0
 32 72  2  0  0  0  0
 33 50  1  0  0  0  0
 33 69  1  0  0  0  0
 33 73  2  0  0  0  0
 34 58  1  0  0  0  0
 34 63  1  0  0  0  0
 34 74  2  0  0  0  0
 35 57  1  0  0  0  0
 35 68  1  0  0  0  0
 35 75  2  0  0  0  0
 36 59  1  0  0  0  0
 36 70  1  0  0  0  0
 36 76  2  0  0  0  0
 37 64  1  0  0  0  0
 37 65  1  0  0  0  0
 37 77  2  0  0  0  0
 38 43  1  0  0  0  0
 39 50  1  0  0  0  0
 40 63  1  0  0  0  0
 41 64  1  0  0  0  0
 42 64  1  0  0  0  0
 43 45  1  0  0  0  0
 44 46  1  0  0  0  0
 44 47  1  0  0  0  0
 45 49  1  0  0  0  0
 46 51  1  0  0  0  0
 47 65  1  0  0  0  0
 48 51  1  0  0  0  0
 48 65  1  0  0  0  0
 49 69  1  0  0  0  0
 50 63  1  0  0  0  0
 51 62  1  0  0  0  0
 52 59  1  0  0  0  0
 53 60  1  0  0  0  0
 54 60  1  0  0  0  0
 55 60  1  0  0  0  0
 56 71  1  0  0  0  0
 57 79  1  0  0  0  0
 58 60  1  0  0  0  0
 58 70  1  0  0  0  0
 59 71  1  0  0  0  0
 61 62  1  0  0  0  0
M  CHG  1  71   1
M  ISO  4  37 100  57 101  64 100  79 101
M  END
> <Batch ID>
0154

> <Smiles>
CNC(C)C(=O)NC(C(=O)N1Cc2cc([101O:1][101CH2:1]C(=O)Nc3cc4c(s3)C[100N:0]([100C:0](=O)N3CCCC(n5nc(-c6ccc(Oc7ccc(F)cc7F)cc6)c(C(N)=O)c5N)C3)C4)ccc2CC1C(=O)NC1CCCc2ccccc21)C(C)(C)C

> <Shape>
0.337

> <Color>
0.166

> <Negative vol penalty>
0.000

$$$$

  -OEChem-04052303333D

 86 95  0     1  0  0  0  0  0999 V2000
  -28.7525  -34.4292   26.3332 C   0  0  0  0  0  0  0  0  0  0  0  0
  -28.6581  -33.0994   25.9356 C   0  0  0  0  0  0  0  0  0  0  0  0
  -23.3236   -9.6036   20.4999 C   0  0  0  0  0  0  0  0  0  0  0  0
  -23.9792  -10.1424   22.7619 C   0  0  0  0  0  0  0  0  0  0  0  0
  -27.6251  -35.2487   26.2951 C   0  0  0  0  0  0  0  0  0  0  0  0
  -27.4360  -32.5880   25.5006 C   0  0  0  0  0  0  0  0  0  0  0  0
  -27.8855  -29.7821   21.3089 C   0  0  0  0  0  0  0  0  0  0  0  0
  -22.6791   -8.4554   20.9601 C   0  0  0  0  0  0  0  0  0  0  0  0
  -23.3346   -8.9943   23.2222 C   0  0  0  0  0  0  0  0  0  0  0  0
  -28.3669  -28.4826   21.4612 C   0  0  0  0  0  0  0  0  0  0  0  0
  -20.1706   -8.0167   23.8960 C   0  0  0  0  0  0  0  0  0  0  0  0
  -19.3703   -8.1359   25.0322 C   0  0  0  0  0  0  0  0  0  0  0  0
  -29.3790  -18.6851   21.7709 C   0  0  0  0  0  0  0  0  0  0  0  0
  -26.1103  -27.6388   21.3389 C   0  0  0  0  0  0  0  0  0  0  0  0
  -20.7518   -6.5167   26.1752 C   0  0  0  0  0  0  0  0  0  0  0  0
  -23.9737  -10.4471   21.4008 C   0  0  0  0  0  0  0  0  0  0  0  0
  -30.2493  -19.7990   21.6998 C   0  0  0  0  0  0  0  0  0  0  0  0
  -24.0862  -12.9189   20.7803 C   0  0  0  0  0  0  0  0  0  0  0  0
  -26.3907  -34.7496   25.8502 C   0  0  0  0  0  0  0  0  0  0  0  0
  -26.5096  -30.0211   21.1812 C   0  0  0  0  0  0  0  0  0  0  0  0
  -26.2907  -33.4012   25.4577 C   0  0  0  0  0  0  0  0  0  0  0  0
  -25.6142  -28.9421   21.1825 C   0  0  0  0  0  0  0  0  0  0  0  0
  -22.6845   -8.1508   22.3213 C   0  0  0  0  0  0  0  0  0  0  0  0
  -27.4790  -27.4109   21.4791 C   0  0  0  0  0  0  0  0  0  0  0  0
  -21.2614   -7.1473   23.8994 C   0  0  0  0  0  0  0  0  0  0  0  0
  -19.6609   -7.3860   26.1718 C   0  0  0  0  0  0  0  0  0  0  0  0
  -21.5521   -6.3974   25.0390 C   0  0  0  0  0  0  0  0  0  0  0  0
  -24.6402  -11.6330   20.9258 C   0  0  0  0  0  0  0  0  0  0  0  0
  -25.1193  -13.6855   20.2992 C   0  0  0  0  0  0  0  0  0  0  0  0
  -30.0558  -17.6343   21.1967 C   0  0  0  0  0  0  0  0  0  0  0  0
  -31.3959  -19.3494   21.0874 C   0  0  0  0  0  0  0  0  0  0  0  0
  -29.6485  -24.0507   19.4693 C   0  0  0  0  0  0  0  0  0  0  0  0
  -29.3530  -24.4221   20.7274 C   0  0  0  0  0  0  0  0  0  0  0  0
  -29.9740  -21.1625   22.1868 C   0  0  0  0  0  0  0  0  0  0  0  0
  -22.7565  -13.3794   21.0554 C   0  0  0  0  0  0  0  0  0  0  0  0
  -24.3433  -31.6163   22.8742 C   0  0  0  0  0  0  0  0  0  0  0  0
  -22.4130  -30.8732   20.3754 C   0  0  0  0  0  0  0  0  0  0  0  0
  -21.7462  -28.8037   17.7449 C   0  0  0  0  0  0  0  0  0  0  0  0
  -30.4531  -15.2811   20.3900 C   0  0  0  0  0  0  0  0  0  0  0  0
  -25.1892  -35.6609   25.8714 C   0  0  0  0  0  0  0  0  0  0  0  0
  -26.0086  -31.4265   20.9909 C   0  0  0  0  0  0  0  0  0  0  0  0
  -24.1295  -29.1434   21.0287 C   0  0  0  0  0  0  0  0  0  0  0  0
  -29.7367  -22.6194   19.0315 C   0  0  0  0  0  0  0  0  0  0  0  0
  -29.1216  -23.4213   21.8303 C   0  0  0  0  0  0  0  0  0  0  0  0
  -24.0167  -35.1423   25.0427 C   0  0  0  0  0  0  0  0  0  0  0  0
  -29.6700  -12.3458   18.5332 C   0  0  0  0  0  0  0  0  0  0  0  0
  -23.7687  -33.6657   25.3342 C   0  0  0  0  0  0  0  0  0  0  0  0
  -28.2460  -12.0044   18.9782 C   0  0  0  0  0  0  0  0  0  0  0  0
  -29.0334  -21.6746   19.9963 C   0  0  0  0  0  0  0  0  0  0  0  0
  -30.5070  -12.8987   19.6853 C   0  0  0  0  0  0  0  0  0  0  0  0
  -28.4831  -13.6912   20.8451 C   0  0  0  0  0  0  0  0  0  0  0  0
  -24.9882  -32.8163   24.9562 C   0  0  1  0  0  0  0  0  0  0  0  0
  -24.5449  -31.5975   21.3853 C   0  0  1  0  0  0  0  0  0  0  0  0
  -27.5825  -13.1914   19.7037 C   0  0  2  0  0  0  0  0  0  0  0  0
  -20.0775  -28.4264   15.9090 C   0  0  0  0  0  0  0  0  0  0  0  0
  -20.4568  -29.6947   22.3989 C   0  0  0  0  0  0  0  0  0  0  0  0
  -19.3153  -28.5191   20.5060 C   0  0  0  0  0  0  0  0  0  0  0  0
  -19.3890  -31.0119   20.5606 C   0  0  0  0  0  0  0  0  0  0  0  0
  -23.7943  -29.1955   15.6448 C   0  0  0  0  0  0  0  0  0  0  0  0
  -29.2517  -25.8662   21.1221 C   0  0  0  0  0  0  0  0  0  1  0  0
  -21.4986  -29.7207   20.0367 C   0  0  1  0  0  0  0  0  0  0  0  0
  -21.3860  -29.0959   16.2995 C   0  0  2  0  0  0  0  0  0  0  0  0
  -20.1926  -29.7327   20.8804 C   0  0  0  0  0  0  0  0  0  0  0  0
  -25.9255  -11.5815   20.5662 N   0  0  0  0  0  0  0  0  0  0  0  0
  -26.1877  -12.8447   20.1897 N   0  0  0  0  0  0  0  0  0  0  0  0
  -29.4109  -22.0444   21.3716 N   0  0  0  0  0  0  0  0  0  0  0  0
  -23.6880  -30.5367   20.8518 N   0  0  0  0  0  0  0  0  0  0  0  0
  -29.8178  -14.0231   20.3222 N   0  0  0  0  0  0  0  0  0  0  0  0
  -25.2091  -14.9899   19.9632 N   0  0  0  0  0  0  0  0  0  0  0  0
  -32.5499  -19.9684   20.7610 N   0  0  0  0  0  0  0  0  0  0  0  0
  -21.8190  -12.4599   21.5453 N   0  0  0  0  0  0  0  0  0  0  0  0
  -29.6882  -16.2818   20.9885 N   0  0  0  0  0  0  0  0  0  0  0  0
  -25.0408  -32.6168   23.5238 N   0  0  0  0  0  0  0  0  0  0  0  0
  -21.2796  -29.7833   18.5957 N   0  0  0  0  0  0  0  0  0  0  0  0
  -30.2928  -21.4867   23.4365 N   0  3  0  0  0  0  0  0  0  0  0  0
  -22.4569  -28.6015   15.3887 N   0  3  0  0  0  0  0  0  0  0  0  0
  -22.4056  -14.5672   20.8567 O   0  0  0  0  0  0  0  0  0  0  0  0
  -23.6083  -30.7855   23.3949 O   0  0  0  0  0  0  0  0  0  0  0  0
  -22.0133  -32.0293   20.2162 O   0  0  0  0  0  0  0  0  0  0  0  0
  -22.3751  -27.8042   18.0857 O   0  0  0  0  0  0  0  0  0  0  0  0
  -31.5811  -15.4643   19.9252 O   0  0  0  0  0  0  0  0  0  0  0  0
  -31.2861  -18.0309   20.7775 O   0  0  0  0  0  0  0  0  0  0  0  0
  -22.0554   -7.0306   22.7708 O   0  0  0  0  0  0  0  0  0  0  0  0
  -27.9462  -26.1415   21.6282 O   0  0  0  0  0  0  0  0  0  1  0  0
  -18.8933   -7.5018   27.2633 F   0  0  0  0  0  0  0  0  0  0  0  0
  -22.5994   -5.5615   25.0486 F   0  0  0  0  0  0  0  0  0  0  0  0
  1  2  1  0  0  0  0
  1  5  2  0  0  0  0
  2  6  2  0  0  0  0
  3  8  2  0  0  0  0
  3 16  1  0  0  0  0
  4  9  1  0  0  0  0
  4 16  2  0  0  0  0
  5 19  1  0  0  0  0
  6 21  1  0  0  0  0
  7 10  2  0  0  0  0
  7 20  1  0  0  0  0
  8 23  1  0  0  0  0
  9 23  2  0  0  0  0
 10 24  1  0  0  0  0
 11 12  2  0  0  0  0
 11 25  1  0  0  0  0
 12 26  1  0  0  0  0
 13 17  1  0  0  0  0
 13 30  2  0  0  0  0
 14 22  1  0  0  0  0
 14 24  2  0  0  0  0
 15 26  2  0  0  0  0
 15 27  1  0  0  0  0
 16 28  1  0  0  0  0
 17 31  2  0  0  0  0
 17 34  1  0  0  0  0
 18 28  1  0  0  0  0
 18 29  2  0  0  0  0
 18 35  1  0  0  0  0
 19 21  2  0  0  0  0
 19 40  1  0  0  0  0
 20 22  2  0  0  0  0
 20 41  1  0  0  0  0
 21 52  1  0  0  0  0
 22 42  1  0  0  0  0
 23 83  1  0  0  0  0
 24 84  1  0  0  0  0
 25 27  2  0  0  0  0
 25 83  1  0  0  0  0
 26 85  1  0  0  0  0
 27 86  1  0  0  0  0
 28 64  2  0  0  0  0
 29 65  1  0  0  0  0
 29 69  1  0  0  0  0
 30 72  1  0  0  0  0
 30 82  1  0  0  0  0
 31 70  1  0  0  0  0
 31 82  1  0  0  0  0
 32 33  2  0  0  0  0
 32 43  1  0  0  0  0
 33 44  1  0  0  0  0
 33 60  1  0  0  0  0
 34 66  1  0  0  0  0
 34 75  2  0  0  0  0
 35 71  1  0  0  0  0
 35 77  2  0  0  0  0
 36 53  1  0  0  0  0
 36 73  1  0  0  0  0
 36 78  2  0  0  0  0
 37 61  1  0  0  0  0
 37 67  1  0  0  0  0
 37 79  2  0  0  0  0
 38 62  1  0  0  0  0
 38 74  1  0  0  0  0
 38 80  2  0  0  0  0
 39 68  1  0  0  0  0
 39 72  1  0  0  0  0
 39 81  2  0  0  0  0
 40 45  1  0  0  0  0
 41 53  1  0  0  0  0
 42 67  1  0  0  0  0
 43 49  1  0  0  0  0
 44 66  1  0  0  0  0
 45 47  1  0  0  0  0
 46 48  1  0  0  0  0
 46 50  1  0  0  0  0
 47 52  1  0  0  0  0
 48 54  1  0  0  0  0
 49 66  1  0  0  0  0
 50 68  1  0  0  0  0
 51 54  1  0  0  0  0
 51 68  1  0  0  0  0
 52 73  1  0  0  0  0
 53 67  1  0  0  0  0
 54 65  1  0  0  0  0
 55 62  1  0  0  0  0
 56 63  1  0  0  0  0
 57 63  1  0  0  0  0
 58 63  1  0  0  0  0
 59 76  1  0  0  0  0
 60 84  1  0  0  0  0
 61 63  1  0  0  0  0
 61 74  1  0  0  0  0
 62 76  1  0  0  0  0
 64 65  1  0  0  0  0
M  CHG  2  75   1  76   1
M  ISO  4  39 100  60 101  72 100  84 101
M  END
> <Batch ID>
0154

> <Smiles>
CNC(C)C(=O)NC(C(=O)N1Cc2cc([101O:1][101CH2:1]C3=CCCN(C(=N)c4cc([100NH:0][100C:0](=O)N5CCCC(n6nc(-c7ccc(Oc8ccc(F)cc8F)cc7)c(C(N)=O)c6N)C5)oc4N)C3)ccc2CC1C(=O)NC1CCCc2ccccc21)C(C)(C)C

> <Shape>
0.357

> <Color>
0.171

> <Negative vol penalty>
0.000

$$$$

  -OEChem-04052303333D

 82 90  0     1  0  0  0  0  0999 V2000
  -32.7913  -31.2668   15.5592 C   0  0  0  0  0  0  0  0  0  0  0  0
  -33.4144  -30.3048   16.3477 C   0  0  0  0  0  0  0  0  0  0  0  0
  -22.9738  -10.0344   19.8749 C   0  0  0  0  0  0  0  0  0  0  0  0
  -23.8035   -9.8069   22.1326 C   0  0  0  0  0  0  0  0  0  0  0  0
  -31.3994  -31.3262   15.5037 C   0  0  0  0  0  0  0  0  0  0  0  0
  -32.6458  -29.4023   17.0821 C   0  0  0  0  0  0  0  0  0  0  0  0
  -33.9907  -23.5506   18.2885 C   0  0  0  0  0  0  0  0  0  0  0  0
  -22.1785   -8.9024   20.0531 C   0  0  0  0  0  0  0  0  0  0  0  0
  -23.0082   -8.6749   22.3108 C   0  0  0  0  0  0  0  0  0  0  0  0
  -34.5444  -22.9265   19.4054 C   0  0  0  0  0  0  0  0  0  0  0  0
  -19.7628   -7.9896   22.9575 C   0  0  0  0  0  0  0  0  0  0  0  0
  -19.0413   -7.8869   24.1468 C   0  0  0  0  0  0  0  0  0  0  0  0
  -32.3294  -22.3910   20.1968 C   0  0  0  0  0  0  0  0  0  0  0  0
  -32.1361  -17.0969   21.9732 C   0  0  0  0  0  0  0  0  0  0  0  0
  -20.2016   -5.8342   24.6735 C   0  0  0  0  0  0  0  0  0  0  0  0
  -23.7863  -10.4866   20.9147 C   0  0  0  0  0  0  0  0  0  0  0  0
  -24.2563  -12.9927   20.9954 C   0  0  0  0  0  0  0  0  0  0  0  0
  -30.6135  -30.4178   16.2302 C   0  0  0  0  0  0  0  0  0  0  0  0
  -32.5995  -23.6093   18.1225 C   0  0  0  0  0  0  0  0  0  0  0  0
  -31.2421  -29.4505   17.0373 C   0  0  0  0  0  0  0  0  0  0  0  0
  -31.7606  -23.0142   19.0756 C   0  0  0  0  0  0  0  0  0  0  0  0
  -32.3106  -18.2892   22.7336 C   0  0  0  0  0  0  0  0  0  0  0  0
  -22.1957   -8.2227   21.2710 C   0  0  0  0  0  0  0  0  0  0  0  0
  -33.7137  -22.3491   20.3613 C   0  0  0  0  0  0  0  0  0  0  0  0
  -20.7036   -7.0145   22.6261 C   0  0  0  0  0  0  0  0  0  0  0  0
  -19.2607   -6.8093   25.0048 C   0  0  0  0  0  0  0  0  0  0  0  0
  -20.9230   -5.9369   23.4841 C   0  0  0  0  0  0  0  0  0  0  0  0
  -24.6085  -11.6556   20.7310 C   0  0  0  0  0  0  0  0  0  0  0  0
  -25.3745  -13.7154   20.6582 C   0  0  0  0  0  0  0  0  0  0  0  0
  -30.9014  -16.5240   22.1852 C   0  0  0  0  0  0  0  0  0  0  0  0
  -31.2023  -18.5823   23.4977 C   0  0  0  0  0  0  0  0  0  0  0  0
  -23.0281  -13.5331   21.5007 C   0  0  0  0  0  0  0  0  0  0  0  0
  -30.4598  -25.9523   17.9337 C   0  0  0  0  0  0  0  0  0  0  0  0
  -28.4251  -23.5142   17.2720 C   0  0  0  0  0  0  0  0  0  0  0  0
  -34.6430  -18.8607   21.9740 C   0  0  0  0  0  0  0  0  0  0  0  0
  -27.7086  -20.1875   17.5301 C   0  0  0  0  0  0  0  0  0  0  0  0
  -30.8908  -14.4694   20.7275 C   0  0  0  0  0  0  0  0  0  0  0  0
  -29.1122  -30.5513   16.1756 C   0  0  0  0  0  0  0  0  0  0  0  0
  -32.0186  -24.2628   16.8986 C   0  0  0  0  0  0  0  0  0  0  0  0
  -30.2613  -23.0322   18.9338 C   0  0  0  0  0  0  0  0  0  0  0  0
  -28.3721  -29.3194   16.6904 C   0  0  0  0  0  0  0  0  0  0  0  0
  -29.5786  -12.3262   18.2053 C   0  0  0  0  0  0  0  0  0  0  0  0
  -28.9757  -28.8461   18.0088 C   0  0  0  0  0  0  0  0  0  0  0  0
  -28.1396  -12.0706   18.6593 C   0  0  0  0  0  0  0  0  0  0  0  0
  -30.5412  -12.4052   19.3889 C   0  0  0  0  0  0  0  0  0  0  0  0
  -28.7185  -13.1022   20.8926 C   0  0  0  0  0  0  0  0  0  0  0  0
  -30.4430  -28.4382   17.8289 C   0  0  1  0  0  0  0  0  0  0  0  0
  -30.5740  -24.7138   17.0907 C   0  0  1  0  0  0  0  0  0  0  0  0
  -27.7020  -13.0793   19.7394 C   0  0  2  0  0  0  0  0  0  0  0  0
  -25.9556  -18.4972   16.9241 C   0  0  0  0  0  0  0  0  0  0  0  0
  -26.6526  -24.5460   19.5311 C   0  0  0  0  0  0  0  0  0  0  0  0
  -25.4617  -22.3439   19.5088 C   0  0  0  0  0  0  0  0  0  0  0  0
  -25.4141  -23.8061   17.4883 C   0  0  0  0  0  0  0  0  0  0  0  0
  -29.6074  -18.6431   15.8663 C   0  0  0  0  0  0  0  0  0  0  0  0
  -35.6645  -19.9595   22.2445 C   0  0  0  0  0  0  0  0  0  0  0  0
  -35.5371  -21.1409   21.2947 C   0  0  0  0  0  0  0  0  0  1  0  0
  -27.5509  -22.5982   18.0940 C   0  0  1  0  0  0  0  0  0  0  0  0
  -27.2498  -19.1729   16.4983 C   0  0  2  0  0  0  0  0  0  0  0  0
  -26.2980  -23.3247   18.6595 C   0  0  0  0  0  0  0  0  0  0  0  0
  -25.8530  -11.5333   20.2618 N   0  0  0  0  0  0  0  0  0  0  0  0
  -26.2926  -12.8029   20.2287 N   0  0  0  0  0  0  0  0  0  0  0  0
  -29.7412  -23.6886   17.7230 N   0  0  0  0  0  0  0  0  0  0  0  0
  -30.0644  -13.3834   20.3691 N   0  0  0  0  0  0  0  0  0  0  0  0
  -25.6521  -15.0361   20.6900 N   0  0  0  0  0  0  0  0  0  0  0  0
  -31.0386  -19.6407   24.3331 N   0  0  0  0  0  0  0  0  0  0  0  0
  -21.9808  -12.6497   21.7958 N   0  0  0  0  0  0  0  0  0  0  0  0
  -33.4828  -19.0818   22.7112 N   0  0  0  0  0  0  0  0  0  0  0  0
  -30.3185  -15.3518   21.6432 N   0  0  0  0  0  0  0  0  0  0  0  0
  -30.5324  -27.1305   17.2154 N   0  0  0  0  0  0  0  0  0  0  0  0
  -27.2446  -21.4537   17.2427 N   0  0  0  0  0  0  0  0  0  0  0  0
  -28.2886  -18.1214   16.3083 N   0  3  0  0  0  0  0  0  0  0  0  0
  -22.8586  -14.7644   21.6697 O   0  0  0  0  0  0  0  0  0  0  0  0
  -30.3150  -25.8468   19.1460 O   0  0  0  0  0  0  0  0  0  0  0  0
  -27.9596  -24.0493   16.2627 O   0  0  0  0  0  0  0  0  0  0  0  0
  -34.8696  -17.9343   21.2029 O   0  0  0  0  0  0  0  0  0  0  0  0
  -28.4056  -19.8861   18.4965 O   0  0  0  0  0  0  0  0  0  0  0  0
  -32.0122  -14.6214   20.2362 O   0  0  0  0  0  0  0  0  0  0  0  0
  -21.4196   -7.1182   21.4453 O   0  0  0  0  0  0  0  0  0  0  0  0
  -34.2516  -21.7398   21.4528 O   0  0  0  0  0  0  0  0  0  1  0  0
  -18.5689   -6.7117   26.1477 F   0  0  0  0  0  0  0  0  0  0  0  0
  -21.8264   -4.9976   23.1717 F   0  0  0  0  0  0  0  0  0  0  0  0
  -29.9586  -17.4225   23.2970 S   0  0  0  0  0  0  0  0  0  0  0  0
  1  2  1  0  0  0  0
  1  5  2  0  0  0  0
  2  6  2  0  0  0  0
  3  8  2  0  0  0  0
  3 16  1  0  0  0  0
  4  9  1  0  0  0  0
  4 16  2  0  0  0  0
  5 18  1  0  0  0  0
  6 20  1  0  0  0  0
  7 10  2  0  0  0  0
  7 19  1  0  0  0  0
  8 23  1  0  0  0  0
  9 23  2  0  0  0  0
 10 24  1  0  0  0  0
 11 12  2  0  0  0  0
 11 25  1  0  0  0  0
 12 26  1  0  0  0  0
 13 21  1  0  0  0  0
 13 24  2  0  0  0  0
 14 22  1  0  0  0  0
 14 30  2  0  0  0  0
 15 26  2  0  0  0  0
 15 27  1  0  0  0  0
 16 28  1  0  0  0  0
 17 28  1  0  0  0  0
 17 29  2  0  0  0  0
 17 32  1  0  0  0  0
 18 20  2  0  0  0  0
 18 38  1  0  0  0  0
 19 21  2  0  0  0  0
 19 39  1  0  0  0  0
 20 47  1  0  0  0  0
 21 40  1  0  0  0  0
 22 31  2  0  0  0  0
 22 67  1  0  0  0  0
 23 78  1  0  0  0  0
 24 79  1  0  0  0  0
 25 27  2  0  0  0  0
 25 78  1  0  0  0  0
 26 80  1  0  0  0  0
 27 81  1  0  0  0  0
 28 60  2  0  0  0  0
 29 61  1  0  0  0  0
 29 64  1  0  0  0  0
 30 68  1  0  0  0  0
 30 82  1  0  0  0  0
 31 65  1  0  0  0  0
 31 82  1  0  0  0  0
 32 66  1  0  0  0  0
 32 72  2  0  0  0  0
 33 48  1  0  0  0  0
 33 69  1  0  0  0  0
 33 73  2  0  0  0  0
 34 57  1  0  0  0  0
 34 62  1  0  0  0  0
 34 74  2  0  0  0  0
 35 55  1  0  0  0  0
 35 67  1  0  0  0  0
 35 75  2  0  0  0  0
 36 58  1  0  0  0  0
 36 70  1  0  0  0  0
 36 76  2  0  0  0  0
 37 63  1  0  0  0  0
 37 68  1  0  0  0  0
 37 77  2  0  0  0  0
 38 41  1  0  0  0  0
 39 48  1  0  0  0  0
 40 62  1  0  0  0  0
 41 43  1  0  0  0  0
 42 44  1  0  0  0  0
 42 45  1  0  0  0  0
 43 47  1  0  0  0  0
 44 49  1  0  0  0  0
 45 63  1  0  0  0  0
 46 49  1  0  0  0  0
 46 63  1  0  0  0  0
 47 69  1  0  0  0  0
 48 62  1  0  0  0  0
 49 61  1  0  0  0  0
 50 58  1  0  0  0  0
 51 59  1  0  0  0  0
 52 59  1  0  0  0  0
 53 59  1  0  0  0  0
 54 71  1  0  0  0  0
 55 56  1  0  0  0  0
 56 79  1  0  0  0  0
 57 59  1  0  0  0  0
 57 70  1  0  0  0  0
 58 71  1  0  0  0  0
 60 61  1  0  0  0  0
M  CHG  1  71   1
M  ISO  4  37 100  56 101  68 100  79 101
M  END
> <Batch ID>
0154

> <Smiles>
CNC(C)C(=O)NC(C(=O)N1Cc2cc([101O:1][101CH2:1]CC(=O)Nc3cc([100NH:0][100C:0](=O)N4CCCC(n5nc(-c6ccc(Oc7ccc(F)cc7F)cc6)c(C(N)=O)c5N)C4)sc3N)ccc2CC1C(=O)NC1CCCc2ccccc21)C(C)(C)C

> <Shape>
0.225

> <Color>
0.187

> <Negative vol penalty>
0.000

$$$$

  -OEChem-04052303333D

 82 91  0     1  0  0  0  0  0999 V2000
  -27.0200  -37.0284   20.3364 C   0  0  0  0  0  0  0  0  0  0  0  0
  -27.4832  -35.7978   19.8820 C   0  0  0  0  0  0  0  0  0  0  0  0
  -23.2117  -10.1401   19.8074 C   0  0  0  0  0  0  0  0  0  0  0  0
  -23.8728   -9.7349   22.0956 C   0  0  0  0  0  0  0  0  0  0  0  0
  -26.4216  -37.1264   21.5919 C   0  0  0  0  0  0  0  0  0  0  0  0
  -27.3492  -34.6646   20.6834 C   0  0  0  0  0  0  0  0  0  0  0  0
  -26.2927  -28.9319   18.8057 C   0  0  0  0  0  0  0  0  0  0  0  0
  -22.5010   -8.9400   19.8002 C   0  0  0  0  0  0  0  0  0  0  0  0
  -23.1620   -8.5347   22.0884 C   0  0  0  0  0  0  0  0  0  0  0  0
  -27.1369  -27.8415   18.6003 C   0  0  0  0  0  0  0  0  0  0  0  0
  -23.5988   -5.3876   20.9327 C   0  0  0  0  0  0  0  0  0  0  0  0
  -24.2207   -4.2629   21.4747 C   0  0  0  0  0  0  0  0  0  0  0  0
  -26.6066  -27.0230   20.8067 C   0  0  0  0  0  0  0  0  0  0  0  0
  -28.7378  -20.4217   18.3192 C   0  0  0  0  0  0  0  0  0  0  0  0
  -22.4432   -4.0626   23.0987 C   0  0  0  0  0  0  0  0  0  0  0  0
  -23.8977  -10.5376   20.9551 C   0  0  0  0  0  0  0  0  0  0  0  0
  -24.1509  -13.0485   21.3276 C   0  0  0  0  0  0  0  0  0  0  0  0
  -26.2714  -35.9919   22.4050 C   0  0  0  0  0  0  0  0  0  0  0  0
  -25.6064  -29.0820   20.0193 C   0  0  0  0  0  0  0  0  0  0  0  0
  -26.7494  -34.7477   21.9515 C   0  0  0  0  0  0  0  0  0  0  0  0
  -25.7523  -28.1148   21.0240 C   0  0  0  0  0  0  0  0  0  0  0  0
  -28.7436  -19.0123   18.3135 C   0  0  0  0  0  0  0  0  0  0  0  0
  -22.4761   -8.1373   20.9406 C   0  0  0  0  0  0  0  0  0  0  0  0
  -27.2962  -26.8884   19.6020 C   0  0  0  0  0  0  0  0  0  0  0  0
  -22.3991   -5.8499   21.4737 C   0  0  0  0  0  0  0  0  0  0  0  0
  -23.6429   -3.6003   22.5576 C   0  0  0  0  0  0  0  0  0  0  0  0
  -21.8213   -5.1874   22.5567 C   0  0  0  0  0  0  0  0  0  0  0  0
  -24.6325  -11.7770   20.9630 C   0  0  0  0  0  0  0  0  0  0  0  0
  -28.1568  -18.4884   19.4283 C   0  0  0  0  0  0  0  0  0  0  0  0
  -25.2290  -13.8837   21.1649 C   0  0  0  0  0  0  0  0  0  0  0  0
  -28.1281  -20.9011   19.4681 C   0  0  0  0  0  0  0  0  0  0  0  0
  -22.8456  -13.4397   21.7735 C   0  0  0  0  0  0  0  0  0  0  0  0
  -25.5956  -31.2585   22.3358 C   0  0  0  0  0  0  0  0  0  0  0  0
  -23.1473  -29.4633   23.4783 C   0  0  0  0  0  0  0  0  0  0  0  0
  -28.2345  -23.4065   19.2550 C   0  0  0  0  0  0  0  0  0  0  0  0
  -21.5889  -26.4295   23.5976 C   0  0  0  0  0  0  0  0  0  0  0  0
  -29.4924  -15.5042   17.8605 C   0  0  0  0  0  0  0  0  0  0  0  0
  -25.6607  -36.1559   23.7742 C   0  0  0  0  0  0  0  0  0  0  0  0
  -24.6787  -30.2497   20.2150 C   0  0  0  0  0  0  0  0  0  0  0  0
  -25.0222  -28.2192   22.3372 C   0  0  0  0  0  0  0  0  0  0  0  0
  -29.2296  -17.9493   17.4157 C   0  0  0  0  0  0  0  0  0  0  0  0
  -28.1339  -17.0154   19.4511 C   0  0  0  0  0  0  0  0  0  0  0  0
  -25.2188  -34.8383   24.4059 C   0  0  0  0  0  0  0  0  0  0  0  0
  -30.1116  -12.8564   20.3286 C   0  0  0  0  0  0  0  0  0  0  0  0
  -26.3105  -33.7831   24.2586 C   0  0  0  0  0  0  0  0  0  0  0  0
  -28.6950  -12.4170   20.7053 C   0  0  0  0  0  0  0  0  0  0  0  0
  -30.1895  -13.3721   18.8931 C   0  0  0  0  0  0  0  0  0  0  0  0
  -27.8010  -13.9733   18.9367 C   0  0  0  0  0  0  0  0  0  0  0  0
  -26.5998  -33.4910   22.7813 C   0  0  1  0  0  0  0  0  0  0  0  0
  -24.4276  -30.5735   21.6845 C   0  0  1  0  0  0  0  0  0  0  0  0
  -27.6670  -13.5227   20.3973 C   0  0  1  0  0  0  0  0  0  0  0  0
  -19.6317  -25.2602   24.6461 C   0  0  0  0  0  0  0  0  0  0  0  0
  -24.6586  -29.3117   26.1246 C   0  0  0  0  0  0  0  0  0  0  0  0
  -23.1746  -27.4058   26.7830 C   0  0  0  0  0  0  0  0  0  0  0  0
  -22.1921  -29.6575   26.3503 C   0  0  0  0  0  0  0  0  0  0  0  0
  -20.3779  -25.8444   20.9613 C   0  0  0  0  0  0  0  0  0  0  0  0
  -27.8010  -24.6117   20.0687 C   0  0  0  0  0  0  0  0  0  1  0  0
  -23.0330  -28.2777   24.4058 C   0  0  1  0  0  0  0  0  0  0  0  0
  -20.1305  -26.0394   23.4391 C   0  0  2  0  0  0  0  0  0  0  0  0
  -23.2800  -28.6619   25.8920 C   0  0  0  0  0  0  0  0  0  0  0  0
  -25.9167  -11.7977   20.5962 N   0  0  0  0  0  0  0  0  0  0  0  0
  -26.2510  -13.0925   20.7294 N   0  0  0  0  0  0  0  0  0  0  0  0
  -24.1316  -29.3824   22.4831 N   0  0  0  0  0  0  0  0  0  0  0  0
  -28.8796  -16.7192   18.1863 N   0  0  0  0  0  0  0  0  0  0  0  0
  -29.1752  -14.3974   18.6540 N   0  0  0  0  0  0  0  0  0  0  0  0
  -25.3930  -15.2104   21.3532 N   0  0  0  0  0  0  0  0  0  0  0  0
  -21.8545  -12.4550   21.8846 N   0  0  0  0  0  0  0  0  0  0  0  0
  -27.9010  -22.1816   19.8914 N   0  0  0  0  0  0  0  0  0  0  0  0
  -25.5734  -32.6357   22.2249 N   0  0  0  0  0  0  0  0  0  0  0  0
  -21.7244  -27.6850   24.1514 N   0  0  0  0  0  0  0  0  0  0  0  0
  -19.9496  -25.1930   22.2259 N   0  3  0  0  0  0  0  0  0  0  0  0
  -22.5618  -14.6301   22.0491 O   0  0  0  0  0  0  0  0  0  0  0  0
  -26.4526  -30.5874   22.8986 O   0  0  0  0  0  0  0  0  0  0  0  0
  -22.3864  -30.4228   23.6268 O   0  0  0  0  0  0  0  0  0  0  0  0
  -28.8051  -23.5311   18.1764 O   0  0  0  0  0  0  0  0  0  0  0  0
  -22.5153  -25.6926   23.2670 O   0  0  0  0  0  0  0  0  0  0  0  0
  -30.3211  -15.4247   16.9450 O   0  0  0  0  0  0  0  0  0  0  0  0
  -21.7825   -6.9662   20.9340 O   0  0  0  0  0  0  0  0  0  0  0  0
  -28.1287  -25.8124   19.4023 O   0  0  0  0  0  0  0  0  0  1  0  0
  -24.2394   -2.5193   23.0770 F   0  0  0  0  0  0  0  0  0  0  0  0
  -20.6682   -5.6261   23.0800 F   0  0  0  0  0  0  0  0  0  0  0  0
  -27.5832  -19.6285   20.5075 S   0  0  0  0  0  0  0  0  0  0  0  0
  1  2  1  0  0  0  0
  1  5  2  0  0  0  0
  2  6  2  0  0  0  0
  3  8  2  0  0  0  0
  3 16  1  0  0  0  0
  4  9  1  0  0  0  0
  4 16  2  0  0  0  0
  5 18  1  0  0  0  0
  6 20  1  0  0  0  0
  7 10  2  0  0  0  0
  7 19  1  0  0  0  0
  8 23  1  0  0  0  0
  9 23  2  0  0  0  0
 10 24  1  0  0  0  0
 11 12  2  0  0  0  0
 11 25  1  0  0  0  0
 12 26  1  0  0  0  0
 13 21  1  0  0  0  0
 13 24  2  0  0  0  0
 14 22  1  0  0  0  0
 14 31  2  0  0  0  0
 15 26  2  0  0  0  0
 15 27  1  0  0  0  0
 16 28  1  0  0  0  0
 17 28  1  0  0  0  0
 17 30  2  0  0  0  0
 17 32  1  0  0  0  0
 18 20  2  0  0  0  0
 18 38  1  0  0  0  0
 19 21  2  0  0  0  0
 19 39  1  0  0  0  0
 20 49  1  0  0  0  0
 21 40  1  0  0  0  0
 22 29  2  0  0  0  0
 22 41  1  0  0  0  0
 23 78  1  0  0  0  0
 24 79  1  0  0  0  0
 25 27  2  0  0  0  0
 25 78  1  0  0  0  0
 26 80  1  0  0  0  0
 27 81  1  0  0  0  0
 28 61  2  0  0  0  0
 29 42  1  0  0  0  0
 29 82  1  0  0  0  0
 30 62  1  0  0  0  0
 30 66  1  0  0  0  0
 31 68  1  0  0  0  0
 31 82  1  0  0  0  0
 32 67  1  0  0  0  0
 32 72  2  0  0  0  0
 33 50  1  0  0  0  0
 33 69  1  0  0  0  0
 33 73  2  0  0  0  0
 34 58  1  0  0  0  0
 34 63  1  0  0  0  0
 34 74  2  0  0  0  0
 35 57  1  0  0  0  0
 35 68  1  0  0  0  0
 35 75  2  0  0  0  0
 36 59  1  0  0  0  0
 36 70  1  0  0  0  0
 36 76  2  0  0  0  0
 37 64  1  0  0  0  0
 37 65  1  0  0  0  0
 37 77  2  0  0  0  0
 38 43  1  0  0  0  0
 39 50  1  0  0  0  0
 40 63  1  0  0  0  0
 41 64  1  0  0  0  0
 42 64  1  0  0  0  0
 43 45  1  0  0  0  0
 44 46  1  0  0  0  0
 44 47  1  0  0  0  0
 45 49  1  0  0  0  0
 46 51  1  0  0  0  0
 47 65  1  0  0  0  0
 48 51  1  0  0  0  0
 48 65  1  0  0  0  0
 49 69  1  0  0  0  0
 50 63  1  0  0  0  0
 51 62  1  0  0  0  0
 52 59  1  0  0  0  0
 53 60  1  0  0  0  0
 54 60  1  0  0  0  0
 55 60  1  0  0  0  0
 56 71  1  0  0  0  0
 57 79  1  0  0  0  0
 58 60  1  0  0  0  0
 58 70  1  0  0  0  0
 59 71  1  0  0  0  0
 61 62  1  0  0  0  0
M  CHG  1  71   1
M  ISO  4  37 100  57 101  64 100  79 101
M  END
> <Batch ID>
0154

> <Smiles>
CNC(C)C(=O)NC(C(=O)N1Cc2cc([101O:1][101CH2:1]C(=O)Nc3cc4c(s3)C[100N:0]([100C:0](=O)N3CCCC(n5nc(-c6ccc(Oc7ccc(F)cc7F)cc6)c(C(N)=O)c5N)C3)C4)ccc2CC1C(=O)NC1CCCc2ccccc21)C(C)(C)C

> <Shape>
0.337

> <Color>
0.166

> <Negative vol penalty>
0.000

$$$$

  -OEChem-04052303333D

 87 96  0     1  0  0  0  0  0999 V2000
  -24.7922  -38.3557   19.4632 C   0  0  0  0  0  0  0  0  0  0  0  0
  -25.1022  -37.2369   18.6966 C   0  0  0  0  0  0  0  0  0  0  0  0
  -29.7364  -18.1815   20.8434 C   0  0  0  0  0  0  0  0  0  0  0  0
  -21.1611  -11.3808   20.9885 C   0  0  0  0  0  0  0  0  0  0  0  0
  -23.5340  -11.7300   20.6980 C   0  0  0  0  0  0  0  0  0  0  0  0
  -30.2346  -19.0519   19.8740 C   0  0  0  0  0  0  0  0  0  0  0  0
  -25.0259  -38.3441   20.8376 C   0  0  0  0  0  0  0  0  0  0  0  0
  -25.6471  -36.1061   19.3040 C   0  0  0  0  0  0  0  0  0  0  0  0
  -25.7019  -28.9625   18.7727 C   0  0  0  0  0  0  0  0  0  0  0  0
  -28.3592  -18.0166   20.9911 C   0  0  0  0  0  0  0  0  0  0  0  0
  -21.2991  -10.0681   20.5376 C   0  0  0  0  0  0  0  0  0  0  0  0
  -23.6720  -10.4172   20.2471 C   0  0  0  0  0  0  0  0  0  0  0  0
  -26.5954  -27.8954   18.6912 C   0  0  0  0  0  0  0  0  0  0  0  0
  -22.3440   -7.1033   21.7832 C   0  0  0  0  0  0  0  0  0  0  0  0
  -21.6917   -6.1000   22.4996 C   0  0  0  0  0  0  0  0  0  0  0  0
  -27.9784  -19.5928   19.2001 C   0  0  0  0  0  0  0  0  0  0  0  0
  -26.8821  -27.9604   21.0855 C   0  0  0  0  0  0  0  0  0  0  0  0
  -20.4325   -5.5081   20.5244 C   0  0  0  0  0  0  0  0  0  0  0  0
  -22.2786  -12.2118   21.0686 C   0  0  0  0  0  0  0  0  0  0  0  0
  -29.3556  -19.7575   19.0524 C   0  0  0  0  0  0  0  0  0  0  0  0
  -21.6570  -13.9909   22.7880 C   0  0  0  0  0  0  0  0  0  0  0  0
  -25.5650  -37.2091   21.4636 C   0  0  0  0  0  0  0  0  0  0  0  0
  -25.3996  -29.5447   20.0121 C   0  0  0  0  0  0  0  0  0  0  0  0
  -25.8895  -36.0798   20.6879 C   0  0  0  0  0  0  0  0  0  0  0  0
  -25.9825  -29.0332   21.1804 C   0  0  0  0  0  0  0  0  0  0  0  0
  -27.4802  -18.7223   20.1695 C   0  0  0  0  0  0  0  0  0  0  0  0
  -22.5545   -9.5863   20.1670 C   0  0  0  0  0  0  0  0  0  0  0  0
  -27.1878  -27.3960   19.8474 C   0  0  0  0  0  0  0  0  0  0  0  0
  -22.0405   -7.3092   20.4373 C   0  0  0  0  0  0  0  0  0  0  0  0
  -20.7360   -5.3023   21.8703 C   0  0  0  0  0  0  0  0  0  0  0  0
  -21.0848   -6.5116   19.8080 C   0  0  0  0  0  0  0  0  0  0  0  0
  -22.1367  -13.5681   21.5338 C   0  0  0  0  0  0  0  0  0  0  0  0
  -21.7191  -15.3620   22.7349 C   0  0  0  0  0  0  0  0  0  0  0  0
  -29.8811  -20.6771   18.0274 C   0  0  0  0  0  0  0  0  0  0  0  0
  -21.1966  -13.2138   23.9014 C   0  0  0  0  0  0  0  0  0  0  0  0
  -25.7688  -32.4350   21.2824 C   0  0  0  0  0  0  0  0  0  0  0  0
  -24.0714  -31.1493   23.7295 C   0  0  0  0  0  0  0  0  0  0  0  0
  -23.0853  -28.3509   25.4158 C   0  0  0  0  0  0  0  0  0  0  0  0
  -25.0718  -19.1778   19.5878 C   0  0  0  0  0  0  0  0  0  0  0  0
  -25.8440  -37.2608   22.9449 C   0  0  0  0  0  0  0  0  0  0  0  0
  -24.4133  -30.6779   20.0861 C   0  0  0  0  0  0  0  0  0  0  0  0
  -25.6758  -29.6097   22.5376 C   0  0  0  0  0  0  0  0  0  0  0  0
  -26.0754  -35.8872   23.5694 C   0  0  0  0  0  0  0  0  0  0  0  0
  -21.5159  -19.0024   19.6301 C   0  0  0  0  0  0  0  0  0  0  0  0
  -27.0359  -35.0669   22.7141 C   0  0  0  0  0  0  0  0  0  0  0  0
  -21.2278  -17.6300   20.2428 C   0  0  0  0  0  0  0  0  0  0  0  0
  -29.6396  -24.0679   17.2287 C   0  0  0  0  0  0  0  0  0  0  0  0
  -28.8401  -23.6216   19.5901 C   0  0  0  0  0  0  0  0  0  0  0  0
  -22.7490  -18.9737   18.7288 C   0  0  0  0  0  0  0  0  0  0  0  0
  -30.6169  -22.9037   17.3467 C   0  0  0  0  0  0  0  0  0  0  0  0
  -29.8210  -22.4592   19.6956 C   0  0  0  0  0  0  0  0  0  0  0  0
  -23.6725  -17.0528   19.9643 C   0  0  0  0  0  0  0  0  0  0  0  0
  -26.4589  -34.8253   21.3140 C   0  0  1  0  0  0  0  0  0  0  0  0
  -24.5727  -31.5276   21.3431 C   0  0  1  0  0  0  0  0  0  0  0  0
  -22.4773  -17.0468   20.9314 C   0  0  2  0  0  0  0  0  0  0  0  0
  -29.3297  -24.6841   18.5984 C   0  0  0  0  0  0  0  0  0  0  0  0
  -21.7300  -27.6202   27.3973 C   0  0  0  0  0  0  0  0  0  0  0  0
  -26.3160  -32.0451   25.5920 C   0  0  0  0  0  0  0  0  0  0  0  0
  -25.3969  -30.4961   27.3310 C   0  0  0  0  0  0  0  0  0  0  0  0
  -24.0099  -32.3934   26.4948 C   0  0  0  0  0  0  0  0  0  0  0  0
  -21.2348  -26.7841   23.7188 C   0  0  0  0  0  0  0  0  0  0  0  0
  -28.3240  -25.8224   18.4731 C   0  0  0  0  0  0  0  0  0  1  0  0
  -24.4179  -30.4004   24.9936 C   0  0  1  0  0  0  0  0  0  0  0  0
  -21.7210  -27.8962   25.9018 C   0  0  2  0  0  0  0  0  0  0  0  0
  -25.0427  -31.3239   26.0772 C   0  0  0  0  0  0  0  0  0  0  0  0
  -22.4781  -14.5880   20.7418 N   0  0  0  0  0  0  0  0  0  0  0  0
  -22.2126  -15.6653   21.5002 N   0  0  0  0  0  0  0  0  0  0  0  0
  -30.0924  -21.9480   18.3395 N   0  0  0  0  0  0  0  0  0  0  0  0
  -24.7100  -30.7207   22.5572 N   0  0  0  0  0  0  0  0  0  0  0  0
  -23.8941  -18.4132   19.4495 N   0  0  0  0  0  0  0  0  0  0  0  0
  -21.3991  -16.3257   23.6245 N   0  0  0  0  0  0  0  0  0  0  0  0
  -21.1993  -11.8168   23.7878 N   0  0  0  0  0  0  0  0  0  0  0  0
  -26.0814  -18.5543   20.3203 N   0  0  0  0  0  0  0  0  0  0  0  0
  -25.4590  -33.7798   21.3529 N   0  0  0  0  0  0  0  0  0  0  0  0
  -23.1956  -29.7254   25.4163 N   0  0  0  0  0  0  0  0  0  0  0  0
  -30.1367  -20.2170   16.8062 N   0  3  0  0  0  0  0  0  0  0  0  0
  -21.3088  -26.6498   25.1964 N   0  3  0  0  0  0  0  0  0  0  0  0
  -20.7793  -13.7429   24.9594 O   0  0  0  0  0  0  0  0  0  0  0  0
  -26.8899  -31.9508   21.1808 O   0  0  0  0  0  0  0  0  0  0  0  0
  -23.2584  -32.0757   23.7790 O   0  0  0  0  0  0  0  0  0  0  0  0
  -23.9664  -27.5654   25.0736 O   0  0  0  0  0  0  0  0  0  0  0  0
  -25.1671  -20.3138   19.1162 O   0  0  0  0  0  0  0  0  0  0  0  0
  -22.6895   -8.3053   19.7272 O   0  0  0  0  0  0  0  0  0  0  0  0
  -28.0608  -26.3549   19.7706 O   0  0  0  0  0  0  0  0  0  1  0  0
  -20.1108   -4.3378   22.5580 F   0  0  0  0  0  0  0  0  0  0  0  0
  -20.7899   -6.7038   18.5150 F   0  0  0  0  0  0  0  0  0  0  0  0
  -30.4869  -25.2186   19.0911 F   0  0  0  0  0  0  0  0  0  0  0  0
  1  2  1  0  0  0  0
  1  7  2  0  0  0  0
  2  8  2  0  0  0  0
  3  6  2  0  0  0  0
  3 10  1  0  0  0  0
  4 11  2  0  0  0  0
  4 19  1  0  0  0  0
  5 12  1  0  0  0  0
  5 19  2  0  0  0  0
  6 20  1  0  0  0  0
  7 22  1  0  0  0  0
  8 24  1  0  0  0  0
  9 13  2  0  0  0  0
  9 23  1  0  0  0  0
 10 26  2  0  0  0  0
 11 27  1  0  0  0  0
 12 27  2  0  0  0  0
 13 28  1  0  0  0  0
 14 15  2  0  0  0  0
 14 29  1  0  0  0  0
 15 30  1  0  0  0  0
 16 20  2  0  0  0  0
 16 26  1  0  0  0  0
 17 25  1  0  0  0  0
 17 28  2  0  0  0  0
 18 30  2  0  0  0  0
 18 31  1  0  0  0  0
 19 32  1  0  0  0  0
 20 34  1  0  0  0  0
 21 32  1  0  0  0  0
 21 33  2  0  0  0  0
 21 35  1  0  0  0  0
 22 24  2  0  0  0  0
 22 40  1  0  0  0  0
 23 25  2  0  0  0  0
 23 41  1  0  0  0  0
 24 53  1  0  0  0  0
 25 42  1  0  0  0  0
 26 73  1  0  0  0  0
 27 83  1  0  0  0  0
 28 84  1  0  0  0  0
 29 31  2  0  0  0  0
 29 83  1  0  0  0  0
 30 85  1  0  0  0  0
 31 86  1  0  0  0  0
 32 66  2  0  0  0  0
 33 67  1  0  0  0  0
 33 71  1  0  0  0  0
 34 68  1  0  0  0  0
 34 76  2  0  0  0  0
 35 72  1  0  0  0  0
 35 78  2  0  0  0  0
 36 54  1  0  0  0  0
 36 74  1  0  0  0  0
 36 79  2  0  0  0  0
 37 63  1  0  0  0  0
 37 69  1  0  0  0  0
 37 80  2  0  0  0  0
 38 64  1  0  0  0  0
 38 75  1  0  0  0  0
 38 81  2  0  0  0  0
 39 70  1  0  0  0  0
 39 73  1  0  0  0  0
 39 82  2  0  0  0  0
 40 43  1  0  0  0  0
 41 54  1  0  0  0  0
 42 69  1  0  0  0  0
 43 45  1  0  0  0  0
 44 46  1  0  0  0  0
 44 49  1  0  0  0  0
 45 53  1  0  0  0  0
 46 55  1  0  0  0  0
 47 50  1  0  0  0  0
 47 56  1  0  0  0  0
 48 51  1  0  0  0  0
 48 56  1  0  0  0  0
 49 70  1  0  0  0  0
 50 68  1  0  0  0  0
 51 68  1  0  0  0  0
 52 55  1  0  0  0  0
 52 70  1  0  0  0  0
 53 74  1  0  0  0  0
 54 69  1  0  0  0  0
 55 67  1  0  0  0  0
 56 62  1  0  0  0  0
 56 87  1  0  0  0  0
 57 64  1  0  0  0  0
 58 65  1  0  0  0  0
 59 65  1  0  0  0  0
 60 65  1  0  0  0  0
 61 77  1  0  0  0  0
 62 84  1  0  0  0  0
 63 65  1  0  0  0  0
 63 75  1  0  0  0  0
 64 77  1  0  0  0  0
 66 67  1  0  0  0  0
M  CHG  2  76   1  77   1
M  ISO  4  39 100  62 101  73 100  84 101
M  END
> <Batch ID>
0154

> <Smiles>
CNC(C)C(=O)NC(C(=O)N1Cc2cc([101O:1][101CH2:1]C3(F)CCN(C(=N)c4cccc([100NH:0][100C:0](=O)N5CCCC(n6nc(-c7ccc(Oc8ccc(F)cc8F)cc7)c(C(N)=O)c6N)C5)c4)CC3)ccc2CC1C(=O)NC1CCCc2ccccc21)C(C)(C)C

> <Shape>
0.264

> <Color>
0.083

> <Negative vol penalty>
0.000

$$$$

  -OEChem-04052303333D

 91101  0     1  0  0  0  0  0999 V2000
  -26.2799  -38.4060   20.6228 C   0  0  0  0  0  0  0  0  0  0  0  0
  -26.6208  -37.1026   20.9697 C   0  0  0  0  0  0  0  0  0  0  0  0
  -24.5537   -8.4968   21.3937 C   0  0  0  0  0  0  0  0  0  0  0  0
  -23.4255  -10.3716   22.4182 C   0  0  0  0  0  0  0  0  0  0  0  0
  -25.0418  -38.9251   20.9988 C   0  0  0  0  0  0  0  0  0  0  0  0
  -25.7239  -36.3178   21.6938 C   0  0  0  0  0  0  0  0  0  0  0  0
  -25.3310  -31.6165   19.8532 C   0  0  0  0  0  0  0  0  0  0  0  0
  -24.0542   -7.6538   22.3864 C   0  0  0  0  0  0  0  0  0  0  0  0
  -22.9260   -9.5285   23.4109 C   0  0  0  0  0  0  0  0  0  0  0  0
  -26.3544  -30.7227   20.1659 C   0  0  0  0  0  0  0  0  0  0  0  0
  -21.1401   -6.0913   23.0933 C   0  0  0  0  0  0  0  0  0  0  0  0
  -20.6078   -4.8652   22.6949 C   0  0  0  0  0  0  0  0  0  0  0  0
  -27.2787  -19.5733   22.4272 C   0  0  0  0  0  0  0  0  0  0  0  0
  -26.8403  -18.2448   22.2124 C   0  0  0  0  0  0  0  0  0  0  0  0
  -30.0374  -24.5548   20.5008 C   0  0  0  0  0  0  0  0  0  0  0  0
  -24.9781  -29.7624   21.8988 C   0  0  0  0  0  0  0  0  0  0  0  0
  -31.5614  -23.1422   19.2684 C   0  0  0  0  0  0  0  0  0  0  0  0
  -30.9891  -25.3308   18.4201 C   0  0  0  0  0  0  0  0  0  0  0  0
  -22.2464   -3.7145   24.0470 C   0  0  0  0  0  0  0  0  0  0  0  0
  -24.2394   -9.8558   21.4096 C   0  0  0  0  0  0  0  0  0  0  0  0
  -24.1530  -11.0390   19.1513 C   0  0  0  0  0  0  0  0  0  0  0  0
  -24.1255  -38.1431   21.7195 C   0  0  0  0  0  0  0  0  0  0  0  0
  -24.1256  -31.5971   20.5694 C   0  0  0  0  0  0  0  0  0  0  0  0
  -24.4729  -36.8274   22.0809 C   0  0  0  0  0  0  0  0  0  0  0  0
  -30.7361  -23.3544   20.3727 C   0  0  0  0  0  0  0  0  0  0  0  0
  -23.9400  -30.6553   21.5915 C   0  0  0  0  0  0  0  0  0  0  0  0
  -30.1639  -25.5430   19.5245 C   0  0  0  0  0  0  0  0  0  0  0  0
  -23.2404   -8.1696   23.3949 C   0  0  0  0  0  0  0  0  0  0  0  0
  -26.1791  -29.7974   21.1907 C   0  0  0  0  0  0  0  0  0  0  0  0
  -22.2257   -6.1291   23.9684 C   0  0  0  0  0  0  0  0  0  0  0  0
  -21.1608   -3.6767   23.1718 C   0  0  0  0  0  0  0  0  0  0  0  0
  -31.6879  -24.1304   18.2921 C   0  0  0  0  0  0  0  0  0  0  0  0
  -22.7788   -4.9406   24.4453 C   0  0  0  0  0  0  0  0  0  0  0  0
  -24.7555  -10.7272   20.3848 C   0  0  0  0  0  0  0  0  0  0  0  0
  -25.0348  -11.9012   18.5466 C   0  0  0  0  0  0  0  0  0  0  0  0
  -28.5793  -19.6230   21.9823 C   0  0  0  0  0  0  0  0  0  0  0  0
  -27.9042  -17.5775   21.6513 C   0  0  0  0  0  0  0  0  0  0  0  0
  -22.9075  -10.5896   18.6013 C   0  0  0  0  0  0  0  0  0  0  0  0
  -22.5803  -33.6717   22.4165 C   0  0  0  0  0  0  0  0  0  0  0  0
  -20.2697  -31.3955   22.3719 C   0  0  0  0  0  0  0  0  0  0  0  0
  -28.5970  -27.1364   20.6821 C   0  0  0  0  0  0  0  0  0  0  0  0
  -19.4481  -28.1089   21.9598 C   0  0  0  0  0  0  0  0  0  0  0  0
  -29.1832  -15.6454   20.6625 C   0  0  0  0  0  0  0  0  0  0  0  0
  -22.8181  -38.7636   22.1445 C   0  0  0  0  0  0  0  0  0  0  0  0
  -23.0214  -32.5501   20.2021 C   0  0  0  0  0  0  0  0  0  0  0  0
  -22.6572  -30.5800   22.3771 C   0  0  0  0  0  0  0  0  0  0  0  0
  -21.7741  -37.7415   22.5867 C   0  0  0  0  0  0  0  0  0  0  0  0
  -29.6992  -12.9715   18.3688 C   0  0  0  0  0  0  0  0  0  0  0  0
  -22.3946  -36.7207   23.5352 C   0  0  0  0  0  0  0  0  0  0  0  0
  -28.4325  -12.1242   18.5088 C   0  0  0  0  0  0  0  0  0  0  0  0
  -30.1391  -13.5595   19.7083 C   0  0  0  0  0  0  0  0  0  0  0  0
  -30.5221  -20.7887   20.9958 C   0  0  0  0  0  0  0  0  0  0  0  0
  -29.2018  -22.0131   22.0650 C   0  0  0  0  0  0  0  0  0  0  0  0
  -27.8335  -13.4579   20.5702 C   0  0  0  0  0  0  0  0  0  0  0  0
  -30.5956  -22.2555   21.4577 C   0  0  0  0  0  0  0  0  0  0  0  0
  -23.5170  -35.9367   22.8445 C   0  0  1  0  0  0  0  0  0  0  0  0
  -22.0298  -32.7821   21.3380 C   0  0  1  0  0  0  0  0  0  0  0  0
  -27.3148  -12.8974   19.2358 C   0  0  2  0  0  0  0  0  0  0  0  0
  -17.4854  -26.5463   22.0214 C   0  0  0  0  0  0  0  0  0  0  0  0
  -20.2954  -31.4873   25.4216 C   0  0  0  0  0  0  0  0  0  0  0  0
  -19.0639  -29.3074   25.4282 C   0  0  0  0  0  0  0  0  0  0  0  0
  -18.0175  -31.3260   24.4020 C   0  0  0  0  0  0  0  0  0  0  0  0
  -19.8109  -27.3555   19.1209 C   0  0  0  0  0  0  0  0  0  0  0  0
  -28.0429  -28.5274   20.4361 C   0  0  0  0  0  0  0  0  0  1  0  0
  -19.9406  -30.1894   23.2181 C   0  0  1  0  0  0  0  0  0  0  0  0
  -18.3545  -27.4380   21.1483 C   0  0  2  0  0  0  0  0  0  0  0  0
  -19.3544  -30.5800   24.6041 C   0  0  0  0  0  0  0  0  0  0  0  0
  -25.9294  -11.3412   20.5551 N   0  0  0  0  0  0  0  0  0  0  0  0
  -26.0717  -12.0474   19.4205 N   0  0  0  0  0  0  0  0  0  0  0  0
  -29.4751  -20.6222   21.9443 N   0  0  0  0  0  0  0  0  0  0  0  0
  -21.6097  -31.5372   21.9846 N   0  0  0  0  0  0  0  0  0  0  0  0
  -29.0304  -14.2810   20.3369 N   0  0  0  0  0  0  0  0  0  0  0  0
  -25.0167  -12.5408   17.3579 N   0  0  0  0  0  0  0  0  0  0  0  0
  -22.1244   -9.7052   19.3555 N   0  0  0  0  0  0  0  0  0  0  0  0
  -29.4552  -26.7610   19.6542 N   0  0  0  0  0  0  0  0  0  0  0  0
  -28.0514  -16.2340   21.2257 N   0  0  0  0  0  0  0  0  0  0  0  0
  -22.9630  -34.9231   21.9727 N   0  0  0  0  0  0  0  0  0  0  0  0
  -19.0594  -29.3525   22.4109 N   0  0  0  0  0  0  0  0  0  0  0  0
  -18.9500  -26.6016   20.0682 N   0  3  0  0  0  0  0  0  0  0  0  0
  -22.5089  -10.9483   17.4673 O   0  0  0  0  0  0  0  0  0  0  0  0
  -22.6511  -33.2543   23.5665 O   0  0  0  0  0  0  0  0  0  0  0  0
  -19.3695  -32.1791   22.0599 O   0  0  0  0  0  0  0  0  0  0  0  0
  -28.2862  -26.4873   21.6754 O   0  0  0  0  0  0  0  0  0  0  0  0
  -20.5367  -27.5807   22.1754 O   0  0  0  0  0  0  0  0  0  0  0  0
  -30.2311  -16.2543   20.4318 O   0  0  0  0  0  0  0  0  0  0  0  0
  -28.9681  -18.4105   21.5077 O   0  0  0  0  0  0  0  0  0  0  0  0
  -22.7526   -7.3472   24.3636 O   0  0  0  0  0  0  0  0  0  0  0  0
  -27.1766  -28.9243   21.4984 O   0  0  0  0  0  0  0  0  0  1  0  0
  -20.6485   -2.4993   22.7904 F   0  0  0  0  0  0  0  0  0  0  0  0
  -32.4805  -23.9265   17.2315 F   0  0  0  0  0  0  0  0  0  0  0  0
  -23.8209   -4.9706   25.2872 F   0  0  0  0  0  0  0  0  0  0  0  0
  1  2  1  0  0  0  0
  1  5  2  0  0  0  0
  2  6  2  0  0  0  0
  3  8  2  0  0  0  0
  3 20  1  0  0  0  0
  4  9  1  0  0  0  0
  4 20  2  0  0  0  0
  5 22  1  0  0  0  0
  6 24  1  0  0  0  0
  7 10  2  0  0  0  0
  7 23  1  0  0  0  0
  8 28  1  0  0  0  0
  9 28  2  0  0  0  0
 10 29  1  0  0  0  0
 11 12  2  0  0  0  0
 11 30  1  0  0  0  0
 12 31  1  0  0  0  0
 13 14  1  0  0  0  0
 13 36  2  0  0  0  0
 14 37  2  0  0  0  0
 15 25  1  0  0  0  0
 15 27  2  0  0  0  0
 16 26  1  0  0  0  0
 16 29  2  0  0  0  0
 17 25  2  0  0  0  0
 17 32  1  0  0  0  0
 18 27  1  0  0  0  0
 18 32  2  0  0  0  0
 19 31  2  0  0  0  0
 19 33  1  0  0  0  0
 20 34  1  0  0  0  0
 21 34  1  0  0  0  0
 21 35  2  0  0  0  0
 21 38  1  0  0  0  0
 22 24  2  0  0  0  0
 22 44  1  0  0  0  0
 23 26  2  0  0  0  0
 23 45  1  0  0  0  0
 24 56  1  0  0  0  0
 25 55  1  0  0  0  0
 26 46  1  0  0  0  0
 27 75  1  0  0  0  0
 28 87  1  0  0  0  0
 29 88  1  0  0  0  0
 30 33  2  0  0  0  0
 30 87  1  0  0  0  0
 31 89  1  0  0  0  0
 32 90  1  0  0  0  0
 33 91  1  0  0  0  0
 34 68  2  0  0  0  0
 35 69  1  0  0  0  0
 35 73  1  0  0  0  0
 36 70  1  0  0  0  0
 36 86  1  0  0  0  0
 37 76  1  0  0  0  0
 37 86  1  0  0  0  0
 38 74  1  0  0  0  0
 38 80  2  0  0  0  0
 39 57  1  0  0  0  0
 39 77  1  0  0  0  0
 39 81  2  0  0  0  0
 40 65  1  0  0  0  0
 40 71  1  0  0  0  0
 40 82  2  0  0  0  0
 41 64  1  0  0  0  0
 41 75  1  0  0  0  0
 41 83  2  0  0  0  0
 42 66  1  0  0  0  0
 42 78  1  0  0  0  0
 42 84  2  0  0  0  0
 43 72  1  0  0  0  0
 43 76  1  0  0  0  0
 43 85  2  0  0  0  0
 44 47  1  0  0  0  0
 45 57  1  0  0  0  0
 46 71  1  0  0  0  0
 47 49  1  0  0  0  0
 48 50  1  0  0  0  0
 48 51  1  0  0  0  0
 49 56  1  0  0  0  0
 50 58  1  0  0  0  0
 51 72  1  0  0  0  0
 52 55  1  0  0  0  0
 52 70  1  0  0  0  0
 53 55  1  0  0  0  0
 53 70  1  0  0  0  0
 54 58  1  0  0  0  0
 54 72  1  0  0  0  0
 56 77  1  0  0  0  0
 57 71  1  0  0  0  0
 58 69  1  0  0  0  0
 59 66  1  0  0  0  0
 60 67  1  0  0  0  0
 61 67  1  0  0  0  0
 62 67  1  0  0  0  0
 63 79  1  0  0  0  0
 64 88  1  0  0  0  0
 65 67  1  0  0  0  0
 65 78  1  0  0  0  0
 66 79  1  0  0  0  0
 68 69  1  0  0  0  0
M  CHG  1  79   1
M  ISO  4  43 100  64 101  76 100  88 101
M  END
> <Batch ID>
0154

> <Smiles>
CNC(C)C(=O)NC(C(=O)N1Cc2cc([101O:1][101CH2:1]C(=O)Nc3cc(F)cc(C4CN(c5ccc([100NH:0][100C:0](=O)N6CCCC(n7nc(-c8ccc(Oc9ccc(F)cc9F)cc8)c(C(N)=O)c7N)C6)o5)C4)c3)ccc2CC1C(=O)NC1CCCc2ccccc21)C(C)(C)C

> <Shape>
0.317

> <Color>
0.066

> <Negative vol penalty>
0.000

$$$$

  -OEChem-04052303333D

 86 95  0     1  0  0  0  0  0999 V2000
  -30.5003  -24.6401   18.8354 C   0  0  0  0  0  0  0  0  0  0  0  0
  -29.1113  -24.7128   18.8048 C   0  0  0  0  0  0  0  0  0  0  0  0
  -16.2734  -22.2840   19.3904 C   0  0  0  0  0  0  0  0  0  0  0  0
  -26.4041  -13.5207   20.0413 C   0  0  0  0  0  0  0  0  0  0  0  0
  -24.0260  -13.4884   19.6158 C   0  0  0  0  0  0  0  0  0  0  0  0
  -31.2052  -25.2312   19.8831 C   0  0  0  0  0  0  0  0  0  0  0  0
  -28.4264  -25.3757   19.8225 C   0  0  0  0  0  0  0  0  0  0  0  0
  -17.4043  -21.4828   19.2332 C   0  0  0  0  0  0  0  0  0  0  0  0
  -23.2676  -28.6304   19.2746 C   0  0  0  0  0  0  0  0  0  0  0  0
  -16.3742  -23.5123   20.0437 C   0  0  0  0  0  0  0  0  0  0  0  0
  -26.2539  -12.4817   20.9597 C   0  0  0  0  0  0  0  0  0  0  0  0
  -23.8758  -12.4493   20.5342 C   0  0  0  0  0  0  0  0  0  0  0  0
  -21.9311  -28.3182   19.5197 C   0  0  0  0  0  0  0  0  0  0  0  0
  -22.9168   -9.5453   22.5002 C   0  0  0  0  0  0  0  0  0  0  0  0
  -22.1090   -8.4682   22.1357 C   0  0  0  0  0  0  0  0  0  0  0  0
  -18.7368  -23.1380   20.3829 C   0  0  0  0  0  0  0  0  0  0  0  0
  -22.1081  -29.3088   21.7121 C   0  0  0  0  0  0  0  0  0  0  0  0
  -23.5503   -8.0261   20.2477 C   0  0  0  0  0  0  0  0  0  0  0  0
  -25.2901  -14.0241   19.3693 C   0  0  0  0  0  0  0  0  0  0  0  0
  -25.6930  -14.9830   17.0400 C   0  0  0  0  0  0  0  0  0  0  0  0
  -18.6360  -21.9098   19.7295 C   0  0  0  0  0  0  0  0  0  0  0  0
  -30.5291  -25.9101   20.9091 C   0  0  0  0  0  0  0  0  0  0  0  0
  -24.0387  -29.2754   20.2522 C   0  0  0  0  0  0  0  0  0  0  0  0
  -29.1228  -25.9753   20.8856 C   0  0  0  0  0  0  0  0  0  0  0  0
  -23.4535  -29.6303   21.4760 C   0  0  0  0  0  0  0  0  0  0  0  0
  -17.6059  -23.9393   20.5400 C   0  0  0  0  0  0  0  0  0  0  0  0
  -24.9898  -11.9460   21.2062 C   0  0  0  0  0  0  0  0  0  0  0  0
  -21.3520  -28.6548   20.7397 C   0  0  0  0  0  0  0  0  0  0  0  0
  -24.0414   -9.8628   21.7385 C   0  0  0  0  0  0  0  0  0  0  0  0
  -22.4257   -7.7086   21.0095 C   0  0  0  0  0  0  0  0  0  0  0  0
  -24.3582   -9.1032   20.6123 C   0  0  0  0  0  0  0  0  0  0  0  0
  -25.4445  -15.0977   18.4209 C   0  0  0  0  0  0  0  0  0  0  0  0
  -25.7544  -16.2803   16.5932 C   0  0  0  0  0  0  0  0  0  0  0  0
  -25.8537  -13.8087   16.2332 C   0  0  0  0  0  0  0  0  0  0  0  0
  -26.6533  -28.5302   21.8991 C   0  0  0  0  0  0  0  0  0  0  0  0
  -26.3898  -31.5872   22.9514 C   0  0  0  0  0  0  0  0  0  0  0  0
  -18.8483  -25.7627   21.7548 C   0  0  0  0  0  0  0  0  0  0  0  0
  -24.3896  -34.2933   23.5199 C   0  0  0  0  0  0  0  0  0  0  0  0
  -23.4578  -21.3959   18.6804 C   0  0  0  0  0  0  0  0  0  0  0  0
  -31.3314  -26.4926   22.0456 C   0  0  0  0  0  0  0  0  0  0  0  0
  -25.4716  -29.6291   19.9621 C   0  0  0  0  0  0  0  0  0  0  0  0
  -24.2325  -30.3417   22.5509 C   0  0  0  0  0  0  0  0  0  0  0  0
  -30.5521  -27.4991   22.8882 C   0  0  0  0  0  0  0  0  0  0  0  0
  -26.8558  -20.6956   18.0125 C   0  0  0  0  0  0  0  0  0  0  0  0
  -29.1689  -26.9531   23.2282 C   0  0  0  0  0  0  0  0  0  0  0  0
  -26.9199  -19.1723   17.9449 C   0  0  0  0  0  0  0  0  0  0  0  0
  -20.5975  -20.6193   20.8414 C   0  0  0  0  0  0  0  0  0  0  0  0
  -25.8808  -21.1487   19.0909 C   0  0  0  0  0  0  0  0  0  0  0  0
  -21.9452  -20.1373   20.3212 C   0  0  0  0  0  0  0  0  0  0  0  0
  -21.0008  -21.6930   18.7623 C   0  0  0  0  0  0  0  0  0  0  0  0
  -24.5243  -19.0917   18.8096 C   0  0  0  0  0  0  0  0  0  0  0  0
  -19.8621  -21.0404   19.5587 C   0  0  2  0  0  0  0  0  0  0  0  0
  -28.3454  -26.7070   21.9582 C   0  0  1  0  0  0  0  0  0  0  0  0
  -26.3055  -29.8268   21.2242 C   0  0  1  0  0  0  0  0  0  0  0  0
  -25.5164  -18.5795   17.7450 C   0  0  2  0  0  0  0  0  0  0  0  0
  -24.4519  -36.6340   24.4224 C   0  0  0  0  0  0  0  0  0  0  0  0
  -26.4968  -30.4854   25.7948 C   0  0  0  0  0  0  0  0  0  0  0  0
  -25.6157  -32.6842   26.6055 C   0  0  0  0  0  0  0  0  0  0  0  0
  -27.8170  -32.5791   25.4369 C   0  0  0  0  0  0  0  0  0  0  0  0
  -23.5296  -35.4388   20.9300 C   0  0  0  0  0  0  0  0  0  0  0  0
  -18.5155  -27.1155   22.3736 C   0  0  0  0  0  0  0  0  0  0  0  0
  -19.6805  -28.0929   22.3355 C   0  0  0  0  0  0  0  0  0  1  0  0
  -25.6908  -32.2640   24.1057 C   0  0  1  0  0  0  0  0  0  0  0  0
  -24.5628  -35.7629   23.1809 C   0  0  2  0  0  0  0  0  0  0  0  0
  -26.3907  -31.9880   25.4664 C   0  0  0  0  0  0  0  0  0  0  0  0
  -25.3545  -16.3677   18.8249 N   0  0  0  0  0  0  0  0  0  0  0  0
  -25.5475  -17.0628   17.6910 N   0  0  0  0  0  0  0  0  0  0  0  0
  -25.6318  -30.6603   22.2220 N   0  0  0  0  0  0  0  0  0  0  0  0
  -24.5542  -20.5568   18.9082 N   0  0  0  0  0  0  0  0  0  0  0  0
  -22.2151  -20.9917   19.1668 N   0  0  0  0  0  0  0  0  0  0  0  0
  -25.9648  -16.8167   15.3724 N   0  0  0  0  0  0  0  0  0  0  0  0
  -25.7607  -12.5548   16.8524 N   0  0  0  0  0  0  0  0  0  0  0  0
  -17.7065  -25.1682   21.1929 N   0  0  0  0  0  0  0  0  0  0  0  0
  -27.8246  -27.9554   21.4438 N   0  0  0  0  0  0  0  0  0  0  0  0
  -25.6005  -33.6775   23.7561 N   0  0  0  0  0  0  0  0  0  0  0  0
  -23.5204  -36.1963   22.2079 N   0  3  0  0  0  0  0  0  0  0  0  0
  -26.0897  -13.8698   15.0027 O   0  0  0  0  0  0  0  0  0  0  0  0
  -25.9145  -28.0850   22.7696 O   0  0  0  0  0  0  0  0  0  0  0  0
  -27.5628  -31.8758   22.7016 O   0  0  0  0  0  0  0  0  0  0  0  0
  -19.9833  -25.2981   21.7727 O   0  0  0  0  0  0  0  0  0  0  0  0
  -23.2899  -33.7473   23.5737 O   0  0  0  0  0  0  0  0  0  0  0  0
  -23.5896  -22.4830   18.1019 O   0  0  0  0  0  0  0  0  0  0  0  0
  -24.8429  -10.9320   22.1021 O   0  0  0  0  0  0  0  0  0  0  0  0
  -20.0386  -28.3485   20.9835 O   0  0  0  0  0  0  0  0  0  1  0  0
  -21.6507   -6.6734   20.6604 F   0  0  0  0  0  0  0  0  0  0  0  0
  -25.4379   -9.4027   19.8773 F   0  0  0  0  0  0  0  0  0  0  0  0
  1  2  1  0  0  0  0
  1  6  2  0  0  0  0
  2  7  2  0  0  0  0
  3  8  1  0  0  0  0
  3 10  2  0  0  0  0
  4 11  2  0  0  0  0
  4 19  1  0  0  0  0
  5 12  1  0  0  0  0
  5 19  2  0  0  0  0
  6 22  1  0  0  0  0
  7 24  1  0  0  0  0
  8 21  2  0  0  0  0
  9 13  2  0  0  0  0
  9 23  1  0  0  0  0
 10 26  1  0  0  0  0
 11 27  1  0  0  0  0
 12 27  2  0  0  0  0
 13 28  1  0  0  0  0
 14 15  2  0  0  0  0
 14 29  1  0  0  0  0
 15 30  1  0  0  0  0
 16 21  1  0  0  0  0
 16 26  2  0  0  0  0
 17 25  1  0  0  0  0
 17 28  2  0  0  0  0
 18 30  2  0  0  0  0
 18 31  1  0  0  0  0
 19 32  1  0  0  0  0
 20 32  1  0  0  0  0
 20 33  2  0  0  0  0
 20 34  1  0  0  0  0
 21 52  1  0  0  0  0
 22 24  2  0  0  0  0
 22 40  1  0  0  0  0
 23 25  2  0  0  0  0
 23 41  1  0  0  0  0
 24 53  1  0  0  0  0
 25 42  1  0  0  0  0
 26 73  1  0  0  0  0
 27 83  1  0  0  0  0
 28 84  1  0  0  0  0
 29 31  2  0  0  0  0
 29 83  1  0  0  0  0
 30 85  1  0  0  0  0
 31 86  1  0  0  0  0
 32 66  2  0  0  0  0
 33 67  1  0  0  0  0
 33 71  1  0  0  0  0
 34 72  1  0  0  0  0
 34 77  2  0  0  0  0
 35 54  1  0  0  0  0
 35 74  1  0  0  0  0
 35 78  2  0  0  0  0
 36 63  1  0  0  0  0
 36 68  1  0  0  0  0
 36 79  2  0  0  0  0
 37 61  1  0  0  0  0
 37 73  1  0  0  0  0
 37 80  2  0  0  0  0
 38 64  1  0  0  0  0
 38 75  1  0  0  0  0
 38 81  2  0  0  0  0
 39 69  1  0  0  0  0
 39 70  1  0  0  0  0
 39 82  2  0  0  0  0
 40 43  1  0  0  0  0
 41 54  1  0  0  0  0
 42 68  1  0  0  0  0
 43 45  1  0  0  0  0
 44 46  1  0  0  0  0
 44 48  1  0  0  0  0
 45 53  1  0  0  0  0
 46 55  1  0  0  0  0
 47 49  1  0  0  0  0
 47 52  1  0  0  0  0
 48 69  1  0  0  0  0
 49 70  1  0  0  0  0
 50 52  1  0  0  0  0
 50 70  1  0  0  0  0
 51 55  1  0  0  0  0
 51 69  1  0  0  0  0
 53 74  1  0  0  0  0
 54 68  1  0  0  0  0
 55 67  1  0  0  0  0
 56 64  1  0  0  0  0
 57 65  1  0  0  0  0
 58 65  1  0  0  0  0
 59 65  1  0  0  0  0
 60 76  1  0  0  0  0
 61 62  1  0  0  0  0
 62 84  1  0  0  0  0
 63 65  1  0  0  0  0
 63 75  1  0  0  0  0
 64 76  1  0  0  0  0
 66 67  1  0  0  0  0
M  CHG  1  76   1
M  ISO  4  39 100  62 101  70 100  84 101
M  END
> <Batch ID>
0154

> <Smiles>
CNC(C)C(=O)NC(C(=O)N1Cc2cc([101O:1][101CH2:1]CC(=O)Nc3cccc(C4CC[100N:0]([100C:0](=O)N5CCCC(n6nc(-c7ccc(Oc8ccc(F)cc8F)cc7)c(C(N)=O)c6N)C5)C4)c3)ccc2CC1C(=O)NC1CCCc2ccccc21)C(C)(C)C

> <Shape>
0.261

> <Color>
0.076

> <Negative vol penalty>
0.000

$$$$

  -OEChem-04052303333D

 85 94  0     1  0  0  0  0  0999 V2000
  -22.6782  -32.4446   25.9037 C   0  0  0  0  0  0  0  0  0  0  0  0
  -23.5887  -31.4700   25.5079 C   0  0  0  0  0  0  0  0  0  0  0  0
  -23.1622   -9.7681   20.5857 C   0  0  0  0  0  0  0  0  0  0  0  0
  -23.7859  -10.3417   22.8482 C   0  0  0  0  0  0  0  0  0  0  0  0
  -21.3128  -32.2427   25.7063 C   0  0  0  0  0  0  0  0  0  0  0  0
  -23.1342  -30.2923   24.9155 C   0  0  0  0  0  0  0  0  0  0  0  0
  -25.9215  -27.0710   20.5155 C   0  0  0  0  0  0  0  0  0  0  0  0
  -22.4336   -8.6786   21.0627 C   0  0  0  0  0  0  0  0  0  0  0  0
  -23.0572   -9.2521   23.3253 C   0  0  0  0  0  0  0  0  0  0  0  0
  -26.7219  -25.9301   20.5523 C   0  0  0  0  0  0  0  0  0  0  0  0
  -19.8199   -8.4967   23.9332 C   0  0  0  0  0  0  0  0  0  0  0  0
  -18.9967   -8.7040   25.0400 C   0  0  0  0  0  0  0  0  0  0  0  0
  -24.7901  -24.5666   20.0747 C   0  0  0  0  0  0  0  0  0  0  0  0
  -31.5649  -17.9903   20.9365 C   0  0  0  0  0  0  0  0  0  0  0  0
  -20.2402   -7.0417   26.2761 C   0  0  0  0  0  0  0  0  0  0  0  0
  -23.8384  -10.5997   21.4785 C   0  0  0  0  0  0  0  0  0  0  0  0
  -24.1244  -13.0372   20.7826 C   0  0  0  0  0  0  0  0  0  0  0  0
  -20.8420  -31.0661   25.1023 C   0  0  0  0  0  0  0  0  0  0  0  0
  -24.5450  -26.9671   20.2684 C   0  0  0  0  0  0  0  0  0  0  0  0
  -21.7611  -30.0739   24.7111 C   0  0  0  0  0  0  0  0  0  0  0  0
  -23.9748  -25.7079   20.0327 C   0  0  0  0  0  0  0  0  0  0  0  0
  -31.4304  -19.3410   21.3377 C   0  0  0  0  0  0  0  0  0  0  0  0
  -22.3810   -8.4206   22.4325 C   0  0  0  0  0  0  0  0  0  0  0  0
  -26.1558  -24.6774   20.3348 C   0  0  0  0  0  0  0  0  0  0  0  0
  -20.8531   -7.5618   23.9978 C   0  0  0  0  0  0  0  0  0  0  0  0
  -19.2069   -7.9766   26.2115 C   0  0  0  0  0  0  0  0  0  0  0  0
  -21.0633   -6.8344   25.1692 C   0  0  0  0  0  0  0  0  0  0  0  0
  -24.5917  -11.7250   20.9863 C   0  0  0  0  0  0  0  0  0  0  0  0
  -30.1585  -19.4633   21.8469 C   0  0  0  0  0  0  0  0  0  0  0  0
  -25.2172  -13.7212   20.3089 C   0  0  0  0  0  0  0  0  0  0  0  0
  -30.3657  -17.3836   21.2294 C   0  0  0  0  0  0  0  0  0  0  0  0
  -27.7884  -22.3895   22.2441 C   0  0  0  0  0  0  0  0  0  0  0  0
  -22.8192  -13.5886   21.0021 C   0  0  0  0  0  0  0  0  0  0  0  0
  -29.5685  -20.7000   22.3898 C   0  0  0  0  0  0  0  0  0  0  0  0
  -21.9127  -27.6780   21.9022 C   0  0  0  0  0  0  0  0  0  0  0  0
  -20.4399  -26.8568   19.1312 C   0  0  0  0  0  0  0  0  0  0  0  0
  -20.5465  -25.1122   16.2000 C   0  0  0  0  0  0  0  0  0  0  0  0
  -30.6364  -14.9842   20.5113 C   0  0  0  0  0  0  0  0  0  0  0  0
  -19.3538  -30.8722   24.9529 C   0  0  0  0  0  0  0  0  0  0  0  0
  -23.7000  -28.2098   20.2055 C   0  0  0  0  0  0  0  0  0  0  0  0
  -22.5059  -25.5443   19.7431 C   0  0  0  0  0  0  0  0  0  0  0  0
  -18.9795  -29.7595   23.9772 C   0  0  0  0  0  0  0  0  0  0  0  0
  -29.7225  -12.0419   18.7266 C   0  0  0  0  0  0  0  0  0  0  0  0
  -19.8150  -28.5116   24.2446 C   0  0  0  0  0  0  0  0  0  0  0  0
  -28.2678  -11.8051   19.1386 C   0  0  0  0  0  0  0  0  0  0  0  0
  -26.4300  -21.1985   20.7043 C   0  0  0  0  0  0  0  0  0  0  0  0
  -30.5597  -12.5805   19.8854 C   0  0  0  0  0  0  0  0  0  0  0  0
  -27.8269  -20.5836   20.6667 C   0  0  0  0  0  0  0  0  0  0  0  0
  -28.5578  -13.5363   20.9568 C   0  0  0  0  0  0  0  0  0  0  0  0
  -21.3086  -28.7939   24.0424 C   0  0  1  0  0  0  0  0  0  0  0  0
  -26.6082  -22.5816   21.3312 C   0  0  2  0  0  0  0  0  0  1  0  0
  -22.2195  -27.9389   20.4546 C   0  0  1  0  0  0  0  0  0  0  0  0
  -27.6602  -13.0550   19.8051 C   0  0  2  0  0  0  0  0  0  0  0  0
  -19.1785  -24.6060   14.1580 C   0  0  0  0  0  0  0  0  0  0  0  0
  -18.7305  -24.9231   20.7587 C   0  0  0  0  0  0  0  0  0  0  0  0
  -18.0876  -23.7980   18.6166 C   0  0  0  0  0  0  0  0  0  0  0  0
  -17.4846  -26.1883   18.9977 C   0  0  0  0  0  0  0  0  0  0  0  0
  -22.5611  -26.3302   14.4063 C   0  0  0  0  0  0  0  0  0  0  0  0
  -19.8958  -25.5747   18.5488 C   0  0  1  0  0  0  0  0  0  0  0  0
  -20.2271  -25.5198   14.7730 C   0  0  2  0  0  0  0  0  0  0  0  0
  -18.5770  -25.1236   19.2378 C   0  0  0  0  0  0  0  0  0  0  0  0
  -25.8809  -11.5815   20.6678 N   0  0  0  0  0  0  0  0  0  0  0  0
  -26.2330  -12.8124   20.2592 N   0  0  0  0  0  0  0  0  0  0  0  0
  -28.4790  -21.1983   21.8326 N   0  0  0  0  0  0  0  0  0  0  0  0
  -21.7203  -26.7886   19.6983 N   0  0  0  0  0  0  0  0  0  0  0  0
  -29.9250  -13.7666   20.4645 N   0  0  0  0  0  0  0  0  0  0  0  0
  -32.3671  -20.3066   21.2363 N   0  0  0  0  0  0  0  0  0  0  0  0
  -25.3987  -15.0054   19.9341 N   0  0  0  0  0  0  0  0  0  0  0  0
  -21.8120  -12.7464   21.4925 N   0  0  0  0  0  0  0  0  0  0  0  0
  -29.9196  -16.0503   21.0537 N   0  0  0  0  0  0  0  0  0  0  0  0
  -21.6322  -28.8174   22.6321 N   0  0  0  0  0  0  0  0  0  0  0  0
  -19.7733  -25.7984   17.1124 N   0  0  0  0  0  0  0  0  0  0  0  0
  -30.1408  -21.2938   23.4329 N   0  3  0  0  0  0  0  0  0  0  0  0
  -21.4547  -25.4606   13.9302 N   0  3  0  0  0  0  0  0  0  0  0  0
  -28.1663  -23.1133   23.1478 O   0  0  0  0  0  0  0  0  0  0  0  0
  -22.5498  -14.7885   20.7548 O   0  0  0  0  0  0  0  0  0  0  0  0
  -21.9279  -26.5280   22.3253 O   0  0  0  0  0  0  0  0  0  0  0  0
  -19.7569  -27.8827   19.0782 O   0  0  0  0  0  0  0  0  0  0  0  0
  -21.3944  -24.2668   16.4773 O   0  0  0  0  0  0  0  0  0  0  0  0
  -31.7865  -15.0810   20.0755 O   0  0  0  0  0  0  0  0  0  0  0  0
  -29.5030  -18.2747   21.7847 O   0  0  0  0  0  0  0  0  0  0  0  0
  -21.6699   -7.3576   22.8983 O   0  0  0  0  0  0  0  0  0  0  0  0
  -26.9347  -23.5621   20.3708 O   0  0  0  0  0  0  0  0  0  1  0  0
  -18.4173   -8.1769   27.2748 F   0  0  0  0  0  0  0  0  0  0  0  0
  -22.0550   -5.9357   25.2377 F   0  0  0  0  0  0  0  0  0  0  0  0
  1  2  1  0  0  0  0
  1  5  2  0  0  0  0
  2  6  2  0  0  0  0
  3  8  2  0  0  0  0
  3 16  1  0  0  0  0
  4  9  1  0  0  0  0
  4 16  2  0  0  0  0
  5 18  1  0  0  0  0
  6 20  1  0  0  0  0
  7 10  2  0  0  0  0
  7 19  1  0  0  0  0
  8 23  1  0  0  0  0
  9 23  2  0  0  0  0
 10 24  1  0  0  0  0
 11 12  2  0  0  0  0
 11 25  1  0  0  0  0
 12 26  1  0  0  0  0
 13 21  1  0  0  0  0
 13 24  2  0  0  0  0
 14 22  1  0  0  0  0
 14 31  2  0  0  0  0
 15 26  2  0  0  0  0
 15 27  1  0  0  0  0
 16 28  1  0  0  0  0
 17 28  1  0  0  0  0
 17 30  2  0  0  0  0
 17 33  1  0  0  0  0
 18 20  2  0  0  0  0
 18 39  1  0  0  0  0
 19 21  2  0  0  0  0
 19 40  1  0  0  0  0
 20 50  1  0  0  0  0
 21 41  1  0  0  0  0
 22 29  2  0  0  0  0
 22 67  1  0  0  0  0
 23 82  1  0  0  0  0
 24 83  1  0  0  0  0
 25 27  2  0  0  0  0
 25 82  1  0  0  0  0
 26 84  1  0  0  0  0
 27 85  1  0  0  0  0
 28 62  2  0  0  0  0
 29 34  1  0  0  0  0
 29 81  1  0  0  0  0
 30 63  1  0  0  0  0
 30 68  1  0  0  0  0
 31 70  1  0  0  0  0
 31 81  1  0  0  0  0
 32 51  1  0  0  0  0
 32 64  1  0  0  0  0
 32 75  2  0  0  0  0
 33 69  1  0  0  0  0
 33 76  2  0  0  0  0
 34 64  1  0  0  0  0
 34 73  2  0  0  0  0
 35 52  1  0  0  0  0
 35 71  1  0  0  0  0
 35 77  2  0  0  0  0
 36 59  1  0  0  0  0
 36 65  1  0  0  0  0
 36 78  2  0  0  0  0
 37 60  1  0  0  0  0
 37 72  1  0  0  0  0
 37 79  2  0  0  0  0
 38 66  1  0  0  0  0
 38 70  1  0  0  0  0
 38 80  2  0  0  0  0
 39 42  1  0  0  0  0
 40 52  1  0  0  0  0
 41 65  1  0  0  0  0
 42 44  1  0  0  0  0
 43 45  1  0  0  0  0
 43 47  1  0  0  0  0
 44 50  1  0  0  0  0
 45 53  1  0  0  0  0
 46 48  1  0  0  0  0
 46 51  1  0  0  0  0
 47 66  1  0  0  0  0
 48 64  1  0  0  0  0
 49 53  1  0  0  0  0
 49 66  1  0  0  0  0
 50 71  1  0  0  0  0
 51 83  1  0  0  0  0
 52 65  1  0  0  0  0
 53 63  1  0  0  0  0
 54 60  1  0  0  0  0
 55 61  1  0  0  0  0
 56 61  1  0  0  0  0
 57 61  1  0  0  0  0
 58 74  1  0  0  0  0
 59 61  1  0  0  0  0
 59 72  1  0  0  0  0
 60 74  1  0  0  0  0
 62 63  1  0  0  0  0
M  CHG  2  73   1  74   1
M  ISO  4  38 100  51 101  70 100  83 101
M  END
> <Batch ID>
0154

> <Smiles>
CNC(C)C(=O)NC(C(=O)N1Cc2cc([101O:1][101CH:1]3CCN(C(=N)c4oc([100NH:0][100C:0](=O)N5CCCC(n6nc(-c7ccc(Oc8ccc(F)cc8F)cc7)c(C(N)=O)c6N)C5)cc4N)C3=O)ccc2CC1C(=O)NC1CCCc2ccccc21)C(C)(C)C

> <Shape>
0.250

> <Color>
0.159

> <Negative vol penalty>
0.000

$$$$

  -OEChem-04052303333D

 85 94  0     1  0  0  0  0  0999 V2000
  -27.1774  -39.0427   25.3325 C   0  0  0  0  0  0  0  0  0  0  0  0
  -27.9606  -38.1139   24.6547 C   0  0  0  0  0  0  0  0  0  0  0  0
  -24.3896   -8.6164   21.3849 C   0  0  0  0  0  0  0  0  0  0  0  0
  -24.3720  -10.1552   23.2474 C   0  0  0  0  0  0  0  0  0  0  0  0
  -26.0754  -38.6159   26.0725 C   0  0  0  0  0  0  0  0  0  0  0  0
  -27.6429  -36.7576   24.7174 C   0  0  0  0  0  0  0  0  0  0  0  0
  -29.2681  -20.3018   20.0380 C   0  0  0  0  0  0  0  0  0  0  0  0
  -27.8912  -30.7778   20.7808 C   0  0  0  0  0  0  0  0  0  0  0  0
  -29.3177  -18.9253   19.8182 C   0  0  0  0  0  0  0  0  0  0  0  0
  -24.0434   -7.5731   22.2435 C   0  0  0  0  0  0  0  0  0  0  0  0
  -24.0257   -9.1119   24.1061 C   0  0  0  0  0  0  0  0  0  0  0  0
  -28.3471  -29.4620   20.8483 C   0  0  0  0  0  0  0  0  0  0  0  0
  -21.2498   -6.4144   23.7555 C   0  0  0  0  0  0  0  0  0  0  0  0
  -20.2478   -5.5378   23.3394 C   0  0  0  0  0  0  0  0  0  0  0  0
  -26.3738  -28.8486   22.0928 C   0  0  0  0  0  0  0  0  0  0  0  0
  -26.9061  -18.8590   19.6889 C   0  0  0  0  0  0  0  0  0  0  0  0
  -21.8056   -3.6957   23.4690 C   0  0  0  0  0  0  0  0  0  0  0  0
  -24.5540   -9.9074   21.8869 C   0  0  0  0  0  0  0  0  0  0  0  0
  -24.0368  -11.8314   20.2936 C   0  0  0  0  0  0  0  0  0  0  0  0
  -25.7384  -37.2546   26.1364 C   0  0  0  0  0  0  0  0  0  0  0  0
  -26.6764  -31.1418   21.3792 C   0  0  0  0  0  0  0  0  0  0  0  0
  -26.5362  -36.3121   25.4600 C   0  0  0  0  0  0  0  0  0  0  0  0
  -28.0374  -20.9570   20.0834 C   0  0  0  0  0  0  0  0  0  0  0  0
  -25.9035  -30.1691   22.0292 C   0  0  0  0  0  0  0  0  0  0  0  0
  -28.1367  -18.2039   19.6436 C   0  0  0  0  0  0  0  0  0  0  0  0
  -26.8564  -20.2355   19.9088 C   0  0  0  0  0  0  0  0  0  0  0  0
  -23.8614   -7.8208   23.6041 C   0  0  0  0  0  0  0  0  0  0  0  0
  -27.5898  -28.4978   21.5069 C   0  0  0  0  0  0  0  0  0  0  0  0
  -22.5297   -5.9317   24.0284 C   0  0  0  0  0  0  0  0  0  0  0  0
  -20.5257   -4.1785   23.1962 C   0  0  0  0  0  0  0  0  0  0  0  0
  -22.8076   -4.5723   23.8851 C   0  0  0  0  0  0  0  0  0  0  0  0
  -24.9123  -10.9855   21.0005 C   0  0  0  0  0  0  0  0  0  0  0  0
  -24.8646  -12.6807   19.6009 C   0  0  0  0  0  0  0  0  0  0  0  0
  -28.2248  -24.7175   19.1939 C   0  0  0  0  0  0  0  0  0  0  0  0
  -28.6755  -25.2637   20.3366 C   0  0  0  0  0  0  0  0  0  0  0  0
  -22.6034  -11.8481   20.2657 C   0  0  0  0  0  0  0  0  0  0  0  0
  -25.8299  -33.1398   23.7019 C   0  0  0  0  0  0  0  0  0  0  0  0
  -22.8292  -32.3147   22.7868 C   0  0  0  0  0  0  0  0  0  0  0  0
  -20.7821  -30.0329   21.2869 C   0  0  0  0  0  0  0  0  0  0  0  0
  -29.3258  -16.0028   19.3476 C   0  0  0  0  0  0  0  0  0  0  0  0
  -24.5658  -36.8363   26.9876 C   0  0  0  0  0  0  0  0  0  0  0  0
  -26.1857  -32.5598   21.2744 C   0  0  0  0  0  0  0  0  0  0  0  0
  -24.5825  -30.5042   22.6705 C   0  0  0  0  0  0  0  0  0  0  0  0
  -28.0086  -23.2441   19.0005 C   0  0  0  0  0  0  0  0  0  0  0  0
  -29.0413  -24.4236   21.5347 C   0  0  0  0  0  0  0  0  0  0  0  0
  -24.0771  -35.4196   26.6973 C   0  0  0  0  0  0  0  0  0  0  0  0
  -29.1661  -22.9283   21.2227 C   0  0  0  0  0  0  0  0  0  0  0  0
  -29.8680  -12.5191   18.8511 C   0  0  0  0  0  0  0  0  0  0  0  0
  -25.2551  -34.4534   26.6219 C   0  0  0  0  0  0  0  0  0  0  0  0
  -28.5550  -11.8791   19.3079 C   0  0  0  0  0  0  0  0  0  0  0  0
  -30.2428  -13.7225   19.7142 C   0  0  0  0  0  0  0  0  0  0  0  0
  -27.8811  -14.1019   20.3039 C   0  0  0  0  0  0  0  0  0  0  0  0
  -28.0132  -22.4549   20.3238 C   0  0  2  0  0  0  0  0  0  0  0  0
  -26.2093  -34.8347   25.4836 C   0  0  1  0  0  0  0  0  0  0  0  0
  -25.1820  -32.9267   22.3631 C   0  0  1  0  0  0  0  0  0  0  0  0
  -27.4288  -12.9250   19.4241 C   0  0  2  0  0  0  0  0  0  0  0  0
  -18.3720  -29.6194   20.7234 C   0  0  0  0  0  0  0  0  0  0  0  0
  -22.2753  -31.5899   25.6985 C   0  0  0  0  0  0  0  0  0  0  0  0
  -20.2563  -30.3264   24.9271 C   0  0  0  0  0  0  0  0  0  0  0  0
  -20.4055  -32.7873   24.5476 C   0  0  0  0  0  0  0  0  0  0  0  0
  -21.3527  -29.9623   18.3837 C   0  0  0  0  0  0  0  0  0  0  0  0
  -28.8406  -26.7463   20.4950 C   0  0  0  0  0  0  0  0  0  1  0  0
  -21.8523  -31.2318   23.1768 C   0  0  1  0  0  0  0  0  0  0  0  0
  -19.6955  -30.1903   20.2386 C   0  0  2  0  0  0  0  0  0  0  0  0
  -21.2231  -31.4776   24.5772 C   0  0  0  0  0  0  0  0  0  0  0  0
  -26.1978  -11.2712   20.7772 N   0  0  0  0  0  0  0  0  0  0  0  0
  -26.1361  -12.3062   19.9222 N   0  0  0  0  0  0  0  0  0  0  0  0
  -24.1486  -31.9056   22.5465 N   0  0  0  0  0  0  0  0  0  0  0  0
  -29.1298  -14.6725   19.7750 N   0  0  0  0  0  0  0  0  0  0  0  0
  -25.6018  -20.8828   19.9527 N   0  0  0  0  0  0  0  0  0  0  0  0
  -24.6217  -13.7037   18.7543 N   0  0  0  0  0  0  0  0  0  0  0  0
  -21.9091  -10.9058   21.0366 N   0  0  0  0  0  0  0  0  0  0  0  0
  -28.1879  -16.8055   19.4208 N   0  0  0  0  0  0  0  0  0  0  0  0
  -25.6681  -34.4152   24.2086 N   0  0  0  0  0  0  0  0  0  0  0  0
  -20.8809  -31.1483   22.0915 N   0  0  0  0  0  0  0  0  0  0  0  0
  -20.0803  -29.4846   18.9837 N   0  3  0  0  0  0  0  0  0  0  0  0
  -21.9575  -12.6635   19.5647 O   0  0  0  0  0  0  0  0  0  0  0  0
  -26.4308  -32.2152   24.2364 O   0  0  0  0  0  0  0  0  0  0  0  0
  -22.4346  -33.4795   22.6916 O   0  0  0  0  0  0  0  0  0  0  0  0
  -21.4716  -29.0202   21.3847 O   0  0  0  0  0  0  0  0  0  0  0  0
  -30.4154  -16.3934   18.9207 O   0  0  0  0  0  0  0  0  0  0  0  0
  -23.5232   -6.8031   24.4422 O   0  0  0  0  0  0  0  0  0  0  0  0
  -28.0328  -27.2128   21.5749 O   0  0  0  0  0  0  0  0  0  1  0  0
  -19.5629   -3.3365   22.7980 F   0  0  0  0  0  0  0  0  0  0  0  0
  -24.0350   -4.1024   24.1469 F   0  0  0  0  0  0  0  0  0  0  0  0
  1  2  1  0  0  0  0
  1  5  2  0  0  0  0
  2  6  2  0  0  0  0
  3 10  2  0  0  0  0
  3 18  1  0  0  0  0
  4 11  1  0  0  0  0
  4 18  2  0  0  0  0
  5 20  1  0  0  0  0
  6 22  1  0  0  0  0
  7  9  2  0  0  0  0
  7 23  1  0  0  0  0
  8 12  2  0  0  0  0
  8 21  1  0  0  0  0
  9 25  1  0  0  0  0
 10 27  1  0  0  0  0
 11 27  2  0  0  0  0
 12 28  1  0  0  0  0
 13 14  2  0  0  0  0
 13 29  1  0  0  0  0
 14 30  1  0  0  0  0
 15 24  1  0  0  0  0
 15 28  2  0  0  0  0
 16 25  2  0  0  0  0
 16 26  1  0  0  0  0
 17 30  2  0  0  0  0
 17 31  1  0  0  0  0
 18 32  1  0  0  0  0
 19 32  1  0  0  0  0
 19 33  2  0  0  0  0
 19 36  1  0  0  0  0
 20 22  2  0  0  0  0
 20 41  1  0  0  0  0
 21 24  2  0  0  0  0
 21 42  1  0  0  0  0
 22 54  1  0  0  0  0
 23 26  2  0  0  0  0
 23 53  1  0  0  0  0
 24 43  1  0  0  0  0
 25 73  1  0  0  0  0
 26 70  1  0  0  0  0
 27 82  1  0  0  0  0
 28 83  1  0  0  0  0
 29 31  2  0  0  0  0
 29 82  1  0  0  0  0
 30 84  1  0  0  0  0
 31 85  1  0  0  0  0
 32 66  2  0  0  0  0
 33 67  1  0  0  0  0
 33 71  1  0  0  0  0
 34 35  2  0  0  0  0
 34 44  1  0  0  0  0
 35 45  1  0  0  0  0
 35 62  1  0  0  0  0
 36 72  1  0  0  0  0
 36 77  2  0  0  0  0
 37 55  1  0  0  0  0
 37 74  1  0  0  0  0
 37 78  2  0  0  0  0
 38 63  1  0  0  0  0
 38 68  1  0  0  0  0
 38 79  2  0  0  0  0
 39 64  1  0  0  0  0
 39 75  1  0  0  0  0
 39 80  2  0  0  0  0
 40 69  1  0  0  0  0
 40 73  1  0  0  0  0
 40 81  2  0  0  0  0
 41 46  1  0  0  0  0
 42 55  1  0  0  0  0
 43 68  1  0  0  0  0
 44 53  1  0  0  0  0
 45 47  1  0  0  0  0
 46 49  1  0  0  0  0
 47 53  1  0  0  0  0
 48 50  1  0  0  0  0
 48 51  1  0  0  0  0
 49 54  1  0  0  0  0
 50 56  1  0  0  0  0
 51 69  1  0  0  0  0
 52 56  1  0  0  0  0
 52 69  1  0  0  0  0
 54 74  1  0  0  0  0
 55 68  1  0  0  0  0
 56 67  1  0  0  0  0
 57 64  1  0  0  0  0
 58 65  1  0  0  0  0
 59 65  1  0  0  0  0
 60 65  1  0  0  0  0
 61 76  1  0  0  0  0
 62 83  1  0  0  0  0
 63 65  1  0  0  0  0
 63 75  1  0  0  0  0
 64 76  1  0  0  0  0
 66 67  1  0  0  0  0
M  CHG  1  76   1
M  ISO  4  40 100  62 101  73 100  83 101
M  END
> <Batch ID>
0154

> <Smiles>
CNC(C)C(=O)NC(C(=O)N1Cc2cc([101O:1][101CH2:1]C3=CCC(c4ccc([100NH:0][100C:0](=O)N5CCCC(n6nc(-c7ccc(Oc8ccc(F)cc8F)cc7)c(C(N)=O)c6N)C5)cc4N)CC3)ccc2CC1C(=O)NC1CCCc2ccccc21)C(C)(C)C

> <Shape>
0.316

> <Color>
0.073

> <Negative vol penalty>
0.000

$$$$

  -OEChem-04052303333D

 86 95  0     1  0  0  0  0  0999 V2000
  -14.7125  -20.0154   20.7413 C   0  0  0  0  0  0  0  0  0  0  0  0
  -16.0075  -19.8370   21.2175 C   0  0  0  0  0  0  0  0  0  0  0  0
  -22.8533  -10.1061   20.2642 C   0  0  0  0  0  0  0  0  0  0  0  0
  -23.6678  -10.2363   22.5351 C   0  0  0  0  0  0  0  0  0  0  0  0
  -14.4079  -21.1233   19.9517 C   0  0  0  0  0  0  0  0  0  0  0  0
  -16.9988  -20.7660   20.9033 C   0  0  0  0  0  0  0  0  0  0  0  0
  -21.6596  -22.5232   24.4664 C   0  0  0  0  0  0  0  0  0  0  0  0
  -22.0065   -9.0591   20.6280 C   0  0  0  0  0  0  0  0  0  0  0  0
  -22.8210   -9.1893   22.8988 C   0  0  0  0  0  0  0  0  0  0  0  0
  -22.9995  -22.1408   24.5144 C   0  0  0  0  0  0  0  0  0  0  0  0
  -19.5464   -8.7733   23.6230 C   0  0  0  0  0  0  0  0  0  0  0  0
  -18.8189   -8.9111   24.8052 C   0  0  0  0  0  0  0  0  0  0  0  0
  -23.5819  -24.0301   23.1321 C   0  0  0  0  0  0  0  0  0  0  0  0
  -19.8826   -6.9306   25.6904 C   0  0  0  0  0  0  0  0  0  0  0  0
  -23.6840  -10.6947   21.2178 C   0  0  0  0  0  0  0  0  0  0  0  0
  -24.2687  -13.1530   20.8681 C   0  0  0  0  0  0  0  0  0  0  0  0
  -15.3937  -22.0715   19.6357 C   0  0  0  0  0  0  0  0  0  0  0  0
  -21.2687  -23.6576   23.7406 C   0  0  0  0  0  0  0  0  0  0  0  0
  -16.7073  -21.8870   20.1076 C   0  0  0  0  0  0  0  0  0  0  0  0
  -22.2368  -24.4261   23.0785 C   0  0  0  0  0  0  0  0  0  0  0  0
  -21.9903   -8.6007   21.9453 C   0  0  0  0  0  0  0  0  0  0  0  0
  -23.9605  -22.8927   23.8449 C   0  0  0  0  0  0  0  0  0  0  0  0
  -20.4419   -7.7142   23.4745 C   0  0  0  0  0  0  0  0  0  0  0  0
  -18.9870   -7.9897   25.8389 C   0  0  0  0  0  0  0  0  0  0  0  0
  -20.6100   -6.7929   24.5082 C   0  0  0  0  0  0  0  0  0  0  0  0
  -24.5594  -11.7758   20.8425 C   0  0  0  0  0  0  0  0  0  0  0  0
  -30.7930  -20.0757   20.7591 C   0  0  0  0  0  0  0  0  0  0  0  0
  -31.0674  -20.9151   19.6997 C   0  0  0  0  0  0  0  0  0  0  0  0
  -25.4196  -13.7552   20.4217 C   0  0  0  0  0  0  0  0  0  0  0  0
  -29.1457  -21.4980   21.0300 C   0  0  0  0  0  0  0  0  0  0  0  0
  -23.0659  -13.8276   21.2604 C   0  0  0  0  0  0  0  0  0  0  0  0
  -19.3741  -24.1791   21.2421 C   0  0  0  0  0  0  0  0  0  0  0  0
  -19.9809  -27.2915   21.9256 C   0  0  0  0  0  0  0  0  0  0  0  0
  -27.2066  -21.8496   22.5953 C   0  0  0  0  0  0  0  0  0  0  0  0
  -22.0546  -29.5920   23.3590 C   0  0  0  0  0  0  0  0  0  0  0  0
  -30.9798  -14.2338   20.4282 C   0  0  0  0  0  0  0  0  0  0  0  0
  -15.0278  -23.2281   18.7396 C   0  0  0  0  0  0  0  0  0  0  0  0
  -19.8229  -24.0718   23.7206 C   0  0  0  0  0  0  0  0  0  0  0  0
  -21.8717  -25.6640   22.3021 C   0  0  0  0  0  0  0  0  0  0  0  0
  -16.0480  -24.3634   18.7634 C   0  0  0  0  0  0  0  0  0  0  0  0
  -29.5540  -11.7767   18.2820 C   0  0  0  0  0  0  0  0  0  0  0  0
  -17.4641  -23.8114   18.6347 C   0  0  0  0  0  0  0  0  0  0  0  0
  -31.5608  -18.5220   22.6570 C   0  0  0  0  0  0  0  0  0  0  0  0
  -28.1061  -11.6668   18.7630 C   0  0  0  0  0  0  0  0  0  0  0  0
  -30.9167  -17.1437   22.7790 C   0  0  0  0  0  0  0  0  0  0  0  0
  -31.0764  -17.5724   20.4409 C   0  0  0  0  0  0  0  0  0  0  0  0
  -30.5184  -12.0082   19.4432 C   0  0  0  0  0  0  0  0  0  0  0  0
  -28.7331  -13.0433   20.7905 C   0  0  0  0  0  0  0  0  0  0  0  0
  -17.8043  -22.8858   19.8091 C   0  0  1  0  0  0  0  0  0  0  0  0
  -31.5816  -18.8452   21.1474 C   0  0  1  0  0  0  0  0  0  0  0  0
  -19.4703  -24.9531   22.5264 C   0  0  1  0  0  0  0  0  0  0  0  0
  -27.7171  -12.8653   19.6493 C   0  0  2  0  0  0  0  0  0  0  0  0
  -31.2874  -16.4663   21.4677 C   0  0  2  0  0  0  0  0  0  0  0  0
  -32.1495  -20.8587   18.6968 C   0  0  0  0  0  0  0  0  0  0  0  0
  -22.3041  -32.0622   23.7235 C   0  0  0  0  0  0  0  0  0  0  0  0
  -20.8518  -27.6297   19.0209 C   0  0  0  0  0  0  0  0  0  0  0  0
  -21.9566  -29.7790   19.6753 C   0  0  0  0  0  0  0  0  0  0  0  0
  -19.4885  -29.5199   19.9282 C   0  0  0  0  0  0  0  0  0  0  0  0
  -21.9780  -29.2829   26.3013 C   0  0  0  0  0  0  0  0  0  0  0  0
  -26.0759  -22.8483   22.7591 C   0  0  0  0  0  0  0  0  0  1  0  0
  -21.0321  -28.2921   21.5099 C   0  0  1  0  0  0  0  0  0  0  0  0
  -21.7759  -30.7551   24.2937 C   0  0  2  0  0  0  0  0  0  0  0  0
  -20.8392  -28.7808   20.0465 C   0  0  0  0  0  0  0  0  0  0  0  0
  -25.7978  -11.5182   20.4136 N   0  0  0  0  0  0  0  0  0  0  0  0
  -29.6916  -20.4086   21.5233 N   0  0  0  0  0  0  0  0  0  0  0  0
  -26.2955  -12.7416   20.1655 N   0  0  0  0  0  0  0  0  0  0  0  0
  -20.4443  -26.0244   22.3073 N   0  0  0  0  0  0  0  0  0  0  0  0
  -30.0939  -13.1596   20.2432 N   0  0  0  0  0  0  0  0  0  0  0  0
  -25.7576  -15.0476   20.2271 N   0  0  0  0  0  0  0  0  0  0  0  0
  -21.9785  -13.0568   21.6938 N   0  0  0  0  0  0  0  0  0  0  0  0
  -28.0014  -22.1826   21.5038 N   0  0  0  0  0  0  0  0  0  0  0  0
  -18.1179  -23.6618   20.9897 N   0  0  0  0  0  0  0  0  0  0  0  0
  -20.9973  -29.3581   22.5053 N   0  0  0  0  0  0  0  0  0  0  0  0
  -30.4961  -15.2875   21.1941 N   0  0  0  0  0  0  0  0  0  0  0  0
  -22.4231  -30.5236   25.6160 N   0  3  0  0  0  0  0  0  0  0  0  0
  -22.9530  -15.0760   21.2120 O   0  0  0  0  0  0  0  0  0  0  0  0
  -20.3659  -24.0613   20.5320 O   0  0  0  0  0  0  0  0  0  0  0  0
  -18.7931  -27.6242   21.9190 O   0  0  0  0  0  0  0  0  0  0  0  0
  -27.3406  -20.8998   23.3598 O   0  0  0  0  0  0  0  0  0  0  0  0
  -23.1067  -28.9569   23.3811 O   0  0  0  0  0  0  0  0  0  0  0  0
  -32.1157  -14.2549   19.9421 O   0  0  0  0  0  0  0  0  0  0  0  0
  -21.1639   -7.5793   22.3006 O   0  0  0  0  0  0  0  0  0  0  0  0
  -25.2689  -22.5213   23.8896 O   0  0  0  0  0  0  0  0  0  1  0  0
  -18.2896   -8.1230   26.9746 F   0  0  0  0  0  0  0  0  0  0  0  0
  -21.4697   -5.7740   24.3718 F   0  0  0  0  0  0  0  0  0  0  0  0
  -29.9047  -22.1747   19.6477 S   0  0  0  0  0  0  0  0  0  0  0  0
  1  2  1  0  0  0  0
  1  5  2  0  0  0  0
  2  6  2  0  0  0  0
  3  8  2  0  0  0  0
  3 15  1  0  0  0  0
  4  9  1  0  0  0  0
  4 15  2  0  0  0  0
  5 17  1  0  0  0  0
  6 19  1  0  0  0  0
  7 10  2  0  0  0  0
  7 18  1  0  0  0  0
  8 21  1  0  0  0  0
  9 21  2  0  0  0  0
 10 22  1  0  0  0  0
 11 12  2  0  0  0  0
 11 23  1  0  0  0  0
 12 24  1  0  0  0  0
 13 20  1  0  0  0  0
 13 22  2  0  0  0  0
 14 24  2  0  0  0  0
 14 25  1  0  0  0  0
 15 26  1  0  0  0  0
 16 26  1  0  0  0  0
 16 29  2  0  0  0  0
 16 31  1  0  0  0  0
 17 19  2  0  0  0  0
 17 37  1  0  0  0  0
 18 20  2  0  0  0  0
 18 38  1  0  0  0  0
 19 49  1  0  0  0  0
 20 39  1  0  0  0  0
 21 82  1  0  0  0  0
 22 83  1  0  0  0  0
 23 25  2  0  0  0  0
 23 82  1  0  0  0  0
 24 84  1  0  0  0  0
 25 85  1  0  0  0  0
 26 64  2  0  0  0  0
 27 28  2  0  0  0  0
 27 50  1  0  0  0  0
 27 65  1  0  0  0  0
 28 54  1  0  0  0  0
 28 86  1  0  0  0  0
 29 66  1  0  0  0  0
 29 69  1  0  0  0  0
 30 65  2  0  0  0  0
 30 71  1  0  0  0  0
 30 86  1  0  0  0  0
 31 70  1  0  0  0  0
 31 76  2  0  0  0  0
 32 51  1  0  0  0  0
 32 72  1  0  0  0  0
 32 77  2  0  0  0  0
 33 61  1  0  0  0  0
 33 67  1  0  0  0  0
 33 78  2  0  0  0  0
 34 60  1  0  0  0  0
 34 71  1  0  0  0  0
 34 79  2  0  0  0  0
 35 62  1  0  0  0  0
 35 73  1  0  0  0  0
 35 80  2  0  0  0  0
 36 68  1  0  0  0  0
 36 74  1  0  0  0  0
 36 81  2  0  0  0  0
 37 40  1  0  0  0  0
 38 51  1  0  0  0  0
 39 67  1  0  0  0  0
 40 42  1  0  0  0  0
 41 44  1  0  0  0  0
 41 47  1  0  0  0  0
 42 49  1  0  0  0  0
 43 45  1  0  0  0  0
 43 50  1  0  0  0  0
 44 52  1  0  0  0  0
 45 53  1  0  0  0  0
 46 50  1  0  0  0  0
 46 53  1  0  0  0  0
 47 68  1  0  0  0  0
 48 52  1  0  0  0  0
 48 68  1  0  0  0  0
 49 72  1  0  0  0  0
 51 67  1  0  0  0  0
 52 66  1  0  0  0  0
 53 74  1  0  0  0  0
 55 62  1  0  0  0  0
 56 63  1  0  0  0  0
 57 63  1  0  0  0  0
 58 63  1  0  0  0  0
 59 75  1  0  0  0  0
 60 83  1  0  0  0  0
 61 63  1  0  0  0  0
 61 73  1  0  0  0  0
 62 75  1  0  0  0  0
 64 66  1  0  0  0  0
M  CHG  1  75   1
M  ISO  4  36 100  60 101  74 100  83 101
M  END
> <Batch ID>
0154

> <Smiles>
CNC(C)C(=O)NC(C(=O)N1Cc2cc([101O:1][101CH2:1]C(=O)Nc3nc(C4CCC([100NH:0][100C:0](=O)N5CCCC(n6nc(-c7ccc(Oc8ccc(F)cc8F)cc7)c(C(N)=O)c6N)C5)C4)c(C)s3)ccc2CC1C(=O)NC1CCCc2ccccc21)C(C)(C)C

> <Shape>
0.247

> <Color>
0.187

> <Negative vol penalty>
0.000

$$$$

  -OEChem-04052303333D

 84 92  0     1  0  0  0  0  0999 V2000
  -20.5712  -30.3016   31.8896 C   0  0  0  0  0  0  0  0  0  0  0  0
  -21.0826  -29.1878   31.2313 C   0  0  0  0  0  0  0  0  0  0  0  0
  -23.2756   -9.6696   19.9911 C   0  0  0  0  0  0  0  0  0  0  0  0
  -23.7797   -9.9548   22.3366 C   0  0  0  0  0  0  0  0  0  0  0  0
  -20.0385  -31.3604   31.1554 C   0  0  0  0  0  0  0  0  0  0  0  0
  -21.0605  -29.1318   29.8381 C   0  0  0  0  0  0  0  0  0  0  0  0
  -25.2482  -26.5497   26.1910 C   0  0  0  0  0  0  0  0  0  0  0  0
  -22.5611   -8.5085   20.2858 C   0  0  0  0  0  0  0  0  0  0  0  0
  -23.0652   -8.7937   22.6313 C   0  0  0  0  0  0  0  0  0  0  0  0
  -25.3003  -25.3114   25.5523 C   0  0  0  0  0  0  0  0  0  0  0  0
  -19.8294   -7.8827   22.9785 C   0  0  0  0  0  0  0  0  0  0  0  0
  -18.9518   -7.9211   24.0619 C   0  0  0  0  0  0  0  0  0  0  0  0
  -27.8007  -19.8767   21.2361 C   0  0  0  0  0  0  0  0  0  0  0  0
  -24.4340  -26.3200   23.5395 C   0  0  0  0  0  0  0  0  0  0  0  0
  -20.1907   -6.1421   25.1285 C   0  0  0  0  0  0  0  0  0  0  0  0
  -23.8850  -10.3927   21.0165 C   0  0  0  0  0  0  0  0  0  0  0  0
  -28.6488  -18.7900   20.8758 C   0  0  0  0  0  0  0  0  0  0  0  0
  -24.1248  -12.9073   20.6601 C   0  0  0  0  0  0  0  0  0  0  0  0
  -20.0188  -31.3215   29.7523 C   0  0  0  0  0  0  0  0  0  0  0  0
  -24.7776  -27.6821   25.5108 C   0  0  0  0  0  0  0  0  0  0  0  0
  -20.5259  -30.1905   29.0844 C   0  0  0  0  0  0  0  0  0  0  0  0
  -24.3794  -27.5719   24.1709 C   0  0  0  0  0  0  0  0  0  0  0  0
  -22.4559   -8.0705   21.6059 C   0  0  0  0  0  0  0  0  0  0  0  0
  -24.8904  -25.1959   24.2273 C   0  0  0  0  0  0  0  0  0  0  0  0
  -20.8877   -6.9740   22.9699 C   0  0  0  0  0  0  0  0  0  0  0  0
  -19.1325   -7.0509   25.1370 C   0  0  0  0  0  0  0  0  0  0  0  0
  -21.0683   -6.1037   24.0450 C   0  0  0  0  0  0  0  0  0  0  0  0
  -24.6237  -11.5920   20.7126 C   0  0  0  0  0  0  0  0  0  0  0  0
  -29.4273  -18.3690   21.9315 C   0  0  0  0  0  0  0  0  0  0  0  0
  -25.2155  -13.6754   20.3331 C   0  0  0  0  0  0  0  0  0  0  0  0
  -27.9631  -20.2449   22.5537 C   0  0  0  0  0  0  0  0  0  0  0  0
  -28.7048  -18.1844   19.5702 C   0  0  0  0  0  0  0  0  0  0  0  0
  -22.7945  -13.3916   20.8867 C   0  0  0  0  0  0  0  0  0  0  0  0
  -22.3405  -29.6841   25.9058 C   0  0  0  0  0  0  0  0  0  0  0  0
  -23.7626  -31.2802   23.4660 C   0  0  0  0  0  0  0  0  0  0  0  0
  -26.3602  -22.1553   22.8929 C   0  0  0  0  0  0  0  0  0  0  0  0
  -25.8278  -31.1780   20.7510 C   0  0  0  0  0  0  0  0  0  0  0  0
  -30.5950  -15.0135   20.9780 C   0  0  0  0  0  0  0  0  0  0  0  0
  -19.3897  -32.4693   29.0030 C   0  0  0  0  0  0  0  0  0  0  0  0
  -24.7528  -29.0159   26.2057 C   0  0  0  0  0  0  0  0  0  0  0  0
  -23.8852  -28.7613   23.3901 C   0  0  0  0  0  0  0  0  0  0  0  0
  -19.7451  -32.4956   27.5187 C   0  0  0  0  0  0  0  0  0  0  0  0
  -29.8321  -12.3364   18.7581 C   0  0  0  0  0  0  0  0  0  0  0  0
  -19.5918  -31.1060   26.9084 C   0  0  0  0  0  0  0  0  0  0  0  0
  -28.3706  -12.0088   19.0688 C   0  0  0  0  0  0  0  0  0  0  0  0
  -30.6020  -12.7304   20.0167 C   0  0  0  0  0  0  0  0  0  0  0  0
  -28.5297  -13.4926   21.1112 C   0  0  0  0  0  0  0  0  0  0  0  0
  -20.5424  -30.1034   27.5737 C   0  0  1  0  0  0  0  0  0  0  0  0
  -23.7719  -29.9998   25.5755 C   0  0  1  0  0  0  0  0  0  0  0  0
  -27.6985  -13.1437   19.8647 C   0  0  2  0  0  0  0  0  0  0  0  0
  -27.4510  -18.1907   18.7330 C   0  0  0  0  0  0  0  0  0  0  0  0
  -26.7676  -32.6328   18.9350 C   0  0  0  0  0  0  0  0  0  0  0  0
  -21.0817  -31.1925   22.0117 C   0  0  0  0  0  0  0  0  0  0  0  0
  -22.2885  -31.7764   19.8973 C   0  0  0  0  0  0  0  0  0  0  0  0
  -22.3023  -33.3667   21.8191 C   0  0  0  0  0  0  0  0  0  0  0  0
  -28.6074  -30.7043   21.6502 C   0  0  0  0  0  0  0  0  0  0  0  0
  -30.4295  -17.2801   21.9751 C   0  0  0  0  0  0  0  0  0  0  0  0
  -25.9524  -23.0774   24.0269 C   0  0  0  0  0  0  0  0  0  1  0  0
  -23.6626  -31.2403   21.9602 C   0  0  1  0  0  0  0  0  0  0  0  0
  -26.9834  -32.0680   20.3304 C   0  0  2  0  0  0  0  0  0  0  0  0
  -22.3412  -31.8710   21.4371 C   0  0  0  0  0  0  0  0  0  0  0  0
  -25.9296  -11.5245   20.4406 N   0  0  0  0  0  0  0  0  0  0  0  0
  -26.2606  -12.8071   20.2140 N   0  0  0  0  0  0  0  0  0  0  0  0
  -23.8737  -30.0425   24.1154 N   0  0  0  0  0  0  0  0  0  0  0  0
  -29.9128  -13.8121   20.7243 N   0  0  0  0  0  0  0  0  0  0  0  0
  -25.3730  -15.0020   20.1387 N   0  0  0  0  0  0  0  0  0  0  0  0
  -21.7934  -12.4668   21.2135 N   0  0  0  0  0  0  0  0  0  0  0  0
  -27.3337  -21.2570   23.3166 N   0  0  0  0  0  0  0  0  0  0  0  0
  -21.8889  -30.2735   27.0712 N   0  0  0  0  0  0  0  0  0  0  0  0
  -24.8717  -31.8804   21.4537 N   0  0  0  0  0  0  0  0  0  0  0  0
  -29.8668  -15.9890   21.6479 N   0  0  0  0  0  0  0  0  0  0  0  0
  -28.2588  -31.2970   20.3333 N   0  3  0  0  0  0  0  0  0  0  0  0
  -29.7039  -17.6467   19.0676 O   0  0  0  0  0  0  0  0  0  0  0  0
  -22.4987  -14.6064   20.7857 O   0  0  0  0  0  0  0  0  0  0  0  0
  -21.6932  -28.9607   25.1579 O   0  0  0  0  0  0  0  0  0  0  0  0
  -23.7500  -32.3697   24.0442 O   0  0  0  0  0  0  0  0  0  0  0  0
  -25.8573  -22.2467   21.7779 O   0  0  0  0  0  0  0  0  0  0  0  0
  -25.7765  -29.9804   20.4799 O   0  0  0  0  0  0  0  0  0  0  0  0
  -31.7647  -15.2046   20.6283 O   0  0  0  0  0  0  0  0  0  0  0  0
  -21.7585   -6.9377   21.8939 O   0  0  0  0  0  0  0  0  0  0  0  0
  -24.9396  -23.9883   23.6017 O   0  0  0  0  0  0  0  0  0  1  0  0
  -18.2905   -7.0889   26.1780 F   0  0  0  0  0  0  0  0  0  0  0  0
  -22.0838   -5.2293   24.0430 F   0  0  0  0  0  0  0  0  0  0  0  0
  -29.1343  -19.2824   23.3500 S   0  0  0  0  0  0  0  0  0  0  0  0
  1  2  1  0  0  0  0
  1  5  2  0  0  0  0
  2  6  2  0  0  0  0
  3  8  2  0  0  0  0
  3 16  1  0  0  0  0
  4  9  1  0  0  0  0
  4 16  2  0  0  0  0
  5 19  1  0  0  0  0
  6 21  1  0  0  0  0
  7 10  2  0  0  0  0
  7 20  1  0  0  0  0
  8 23  1  0  0  0  0
  9 23  2  0  0  0  0
 10 24  1  0  0  0  0
 11 12  2  0  0  0  0
 11 25  1  0  0  0  0
 12 26  1  0  0  0  0
 13 17  1  0  0  0  0
 13 31  2  0  0  0  0
 14 22  1  0  0  0  0
 14 24  2  0  0  0  0
 15 26  2  0  0  0  0
 15 27  1  0  0  0  0
 16 28  1  0  0  0  0
 17 29  2  0  0  0  0
 17 32  1  0  0  0  0
 18 28  1  0  0  0  0
 18 30  2  0  0  0  0
 18 33  1  0  0  0  0
 19 21  2  0  0  0  0
 19 39  1  0  0  0  0
 20 22  2  0  0  0  0
 20 40  1  0  0  0  0
 21 48  1  0  0  0  0
 22 41  1  0  0  0  0
 23 80  1  0  0  0  0
 24 81  1  0  0  0  0
 25 27  2  0  0  0  0
 25 80  1  0  0  0  0
 26 82  1  0  0  0  0
 27 83  1  0  0  0  0
 28 62  2  0  0  0  0
 29 57  1  0  0  0  0
 29 84  1  0  0  0  0
 30 63  1  0  0  0  0
 30 66  1  0  0  0  0
 31 68  1  0  0  0  0
 31 84  1  0  0  0  0
 32 51  1  0  0  0  0
 32 73  2  0  0  0  0
 33 67  1  0  0  0  0
 33 74  2  0  0  0  0
 34 49  1  0  0  0  0
 34 69  1  0  0  0  0
 34 75  2  0  0  0  0
 35 59  1  0  0  0  0
 35 64  1  0  0  0  0
 35 76  2  0  0  0  0
 36 58  1  0  0  0  0
 36 68  1  0  0  0  0
 36 77  2  0  0  0  0
 37 60  1  0  0  0  0
 37 70  1  0  0  0  0
 37 78  2  0  0  0  0
 38 65  1  0  0  0  0
 38 71  1  0  0  0  0
 38 79  2  0  0  0  0
 39 42  1  0  0  0  0
 40 49  1  0  0  0  0
 41 64  1  0  0  0  0
 42 44  1  0  0  0  0
 43 45  1  0  0  0  0
 43 46  1  0  0  0  0
 44 48  1  0  0  0  0
 45 50  1  0  0  0  0
 46 65  1  0  0  0  0
 47 50  1  0  0  0  0
 47 65  1  0  0  0  0
 48 69  1  0  0  0  0
 49 64  1  0  0  0  0
 50 63  1  0  0  0  0
 52 60  1  0  0  0  0
 53 61  1  0  0  0  0
 54 61  1  0  0  0  0
 55 61  1  0  0  0  0
 56 72  1  0  0  0  0
 57 71  1  0  0  0  0
 58 81  1  0  0  0  0
 59 61  1  0  0  0  0
 59 70  1  0  0  0  0
 60 72  1  0  0  0  0
 62 63  1  0  0  0  0
M  CHG  1  72   1
M  ISO  4  38 100  58 101  71 100  81 101
M  END
> <Batch ID>
0154

> <Smiles>
CNC(C)C(=O)NC(C(=O)N1Cc2cc([101O:1][101CH2:1]C(=O)Nc3cc(C(C)=O)c(C[100NH:0][100C:0](=O)N4CCCC(n5nc(-c6ccc(Oc7ccc(F)cc7F)cc6)c(C(N)=O)c5N)C4)s3)ccc2CC1C(=O)NC1CCCc2ccccc21)C(C)(C)C

> <Shape>
0.257

> <Color>
0.199

> <Negative vol penalty>
0.000

$$$$

  -OEChem-04052303333D

 87 97  0     1  0  0  0  0  0999 V2000
  -21.2685  -38.3369   20.4770 C   0  0  0  0  0  0  0  0  0  0  0  0
  -22.5598  -37.8900   20.7382 C   0  0  0  0  0  0  0  0  0  0  0  0
  -25.0569  -18.9986   19.1254 C   0  0  0  0  0  0  0  0  0  0  0  0
  -22.7695   -9.4434   20.0578 C   0  0  0  0  0  0  0  0  0  0  0  0
  -24.5478   -8.5071   21.3987 C   0  0  0  0  0  0  0  0  0  0  0  0
  -20.1750  -37.6546   21.0086 C   0  0  0  0  0  0  0  0  0  0  0  0
  -22.7583  -36.7611   21.5322 C   0  0  0  0  0  0  0  0  0  0  0  0
  -25.9787  -20.0362   19.2635 C   0  0  0  0  0  0  0  0  0  0  0  0
  -26.2785  -31.0128   18.9912 C   0  0  0  0  0  0  0  0  0  0  0  0
  -25.4550  -17.6788   19.3387 C   0  0  0  0  0  0  0  0  0  0  0  0
  -21.8260   -8.8141   20.8697 C   0  0  0  0  0  0  0  0  0  0  0  0
  -23.6042   -7.8778   22.2107 C   0  0  0  0  0  0  0  0  0  0  0  0
  -27.1240  -29.9573   18.6490 C   0  0  0  0  0  0  0  0  0  0  0  0
  -21.6454   -5.1252   22.0807 C   0  0  0  0  0  0  0  0  0  0  0  0
  -21.8707   -3.7917   22.4223 C   0  0  0  0  0  0  0  0  0  0  0  0
  -27.6970  -18.4343   19.8281 C   0  0  0  0  0  0  0  0  0  0  0  0
  -26.6489  -28.8782   20.7603 C   0  0  0  0  0  0  0  0  0  0  0  0
  -21.8993   -4.3958   24.7615 C   0  0  0  0  0  0  0  0  0  0  0  0
  -24.1305   -9.2899   20.3223 C   0  0  0  0  0  0  0  0  0  0  0  0
  -25.2923   -9.7583   18.1000 C   0  0  0  0  0  0  0  0  0  0  0  0
  -27.2988  -19.7541   19.6148 C   0  0  0  0  0  0  0  0  0  0  0  0
  -20.3599  -36.5111   21.8016 C   0  0  0  0  0  0  0  0  0  0  0  0
  -25.6022  -30.9976   20.2142 C   0  0  0  0  0  0  0  0  0  0  0  0
  -21.6663  -36.0636   22.0761 C   0  0  0  0  0  0  0  0  0  0  0  0
  -25.7910  -29.9267   21.1032 C   0  0  0  0  0  0  0  0  0  0  0  0
  -26.7751  -17.3967   19.6900 C   0  0  0  0  0  0  0  0  0  0  0  0
  -22.2433   -8.0313   21.9462 C   0  0  0  0  0  0  0  0  0  0  0  0
  -27.3089  -28.8927   19.5315 C   0  0  0  0  0  0  0  0  0  0  0  0
  -21.5472   -6.0940   23.0795 C   0  0  0  0  0  0  0  0  0  0  0  0
  -21.9976   -3.4270   23.7627 C   0  0  0  0  0  0  0  0  0  0  0  0
  -21.6741   -5.7293   24.4198 C   0  0  0  0  0  0  0  0  0  0  0  0
  -25.1057   -9.9392   19.4836 C   0  0  0  0  0  0  0  0  0  0  0  0
  -26.3334  -10.5956   17.7816 C   0  0  0  0  0  0  0  0  0  0  0  0
  -24.5875   -8.9093   17.1845 C   0  0  0  0  0  0  0  0  0  0  0  0
  -23.1998  -32.7308   22.5164 C   0  0  0  0  0  0  0  0  0  0  0  0
  -22.5481  -29.7357   22.6391 C   0  0  0  0  0  0  0  0  0  0  0  0
  -21.8787  -26.4238   22.1695 C   0  0  0  0  0  0  0  0  0  0  0  0
  -28.4496  -15.6034   20.2612 C   0  0  0  0  0  0  0  0  0  0  0  0
  -19.1488  -35.8344   22.3932 C   0  0  0  0  0  0  0  0  0  0  0  0
  -24.7295  -32.1428   20.6506 C   0  0  0  0  0  0  0  0  0  0  0  0
  -25.0698  -29.9695   22.4226 C   0  0  0  0  0  0  0  0  0  0  0  0
  -19.4314  -34.4282   22.9158 C   0  0  0  0  0  0  0  0  0  0  0  0
  -30.2521  -12.5882   19.6811 C   0  0  0  0  0  0  0  0  0  0  0  0
  -28.5179  -21.6345   18.4397 C   0  0  0  0  0  0  0  0  0  0  0  0
  -27.9094  -21.8490   20.8969 C   0  0  0  0  0  0  0  0  0  0  0  0
  -20.7068  -34.4159   23.7524 C   0  0  0  0  0  0  0  0  0  0  0  0
  -29.1541  -11.5515   19.4326 C   0  0  0  0  0  0  0  0  0  0  0  0
  -29.5372  -22.7651   18.5945 C   0  0  0  0  0  0  0  0  0  0  0  0
  -28.9289  -22.9797   21.0496 C   0  0  0  0  0  0  0  0  0  0  0  0
  -29.8428  -13.6037   20.7464 C   0  0  0  0  0  0  0  0  0  0  0  0
  -27.4565  -13.2308   20.2605 C   0  0  0  0  0  0  0  0  0  0  0  0
  -27.7954  -25.6308   20.3294 C   0  0  0  0  0  0  0  0  0  0  0  0
  -28.3270  -25.5026   18.3136 C   0  0  0  0  0  0  0  0  0  0  0  0
  -28.3018  -20.8837   19.7650 C   0  0  0  0  0  0  0  0  0  0  0  0
  -21.9216  -34.8285   22.9124 C   0  0  1  0  0  0  0  0  0  0  0  0
  -23.5128  -31.6928   21.4791 C   0  0  1  0  0  0  0  0  0  0  0  0
  -27.7970  -12.2249   19.1488 C   0  0  2  0  0  0  0  0  0  0  0  0
  -29.2062  -23.7200   19.7412 C   0  0  0  0  0  0  0  0  0  0  0  0
  -27.5465  -26.5532   19.1227 C   0  0  0  0  0  0  0  0  0  1  0  0
  -20.3285  -24.6010   22.9257 C   0  0  0  0  0  0  0  0  0  0  0  0
  -24.0764  -29.5329   25.2711 C   0  0  0  0  0  0  0  0  0  0  0  0
  -23.1776  -27.2108   25.5322 C   0  0  0  0  0  0  0  0  0  0  0  0
  -21.6122  -29.1518   25.4631 C   0  0  0  0  0  0  0  0  0  0  0  0
  -20.8404  -26.0109   19.4290 C   0  0  0  0  0  0  0  0  0  0  0  0
  -22.7733  -28.4199   23.3399 C   0  0  1  0  0  0  0  0  0  0  0  0
  -20.5803  -25.6878   21.8921 C   0  0  2  0  0  0  0  0  0  0  0  0
  -22.9247  -28.5861   24.8784 C   0  0  0  0  0  0  0  0  0  0  0  0
  -25.9599  -10.8220   20.0080 N   0  0  0  0  0  0  0  0  0  0  0  0
  -26.6934  -11.2032   18.9484 N   0  0  0  0  0  0  0  0  0  0  0  0
  -23.6882  -30.4351   22.2251 N   0  0  0  0  0  0  0  0  0  0  0  0
  -28.5502  -14.2038   20.4086 N   0  0  0  0  0  0  0  0  0  0  0  0
  -26.9670  -10.8640   16.6201 N   0  0  0  0  0  0  0  0  0  0  0  0
  -23.5444   -8.1142   17.6785 N   0  0  0  0  0  0  0  0  0  0  0  0
  -27.1790  -16.0561   19.9072 N   0  0  0  0  0  0  0  0  0  0  0  0
  -22.3536  -33.7300   22.0749 N   0  0  0  0  0  0  0  0  0  0  0  0
  -21.6732  -27.5499   22.9383 N   0  0  0  0  0  0  0  0  0  0  0  0
  -28.0216  -24.5279   19.3772 N   0  3  0  0  0  0  0  0  0  0  0  0
  -20.6222  -25.0538   20.5441 N   0  3  0  0  0  0  0  0  0  0  0  0
  -24.8849   -8.8451   15.9676 O   0  0  0  0  0  0  0  0  0  0  0  0
  -23.6883  -32.6327   23.6360 O   0  0  0  0  0  0  0  0  0  0  0  0
  -21.3939  -30.1377   22.4672 O   0  0  0  0  0  0  0  0  0  0  0  0
  -22.9669  -26.0364   21.7496 O   0  0  0  0  0  0  0  0  0  0  0  0
  -29.4256  -16.3434   20.4095 O   0  0  0  0  0  0  0  0  0  0  0  0
  -21.3228   -7.4173   22.7388 O   0  0  0  0  0  0  0  0  0  0  0  0
  -28.1322  -27.8633   19.1892 O   0  0  0  0  0  0  0  0  0  1  0  0
  -22.2123   -2.1462   24.0906 F   0  0  0  0  0  0  0  0  0  0  0  0
  -21.5795   -6.6554   25.3838 F   0  0  0  0  0  0  0  0  0  0  0  0
  1  2  1  0  0  0  0
  1  6  2  0  0  0  0
  2  7  2  0  0  0  0
  3  8  2  0  0  0  0
  3 10  1  0  0  0  0
  4 11  2  0  0  0  0
  4 19  1  0  0  0  0
  5 12  1  0  0  0  0
  5 19  2  0  0  0  0
  6 22  1  0  0  0  0
  7 24  1  0  0  0  0
  8 21  1  0  0  0  0
  9 13  2  0  0  0  0
  9 23  1  0  0  0  0
 10 26  2  0  0  0  0
 11 27  1  0  0  0  0
 12 27  2  0  0  0  0
 13 28  1  0  0  0  0
 14 15  2  0  0  0  0
 14 29  1  0  0  0  0
 15 30  1  0  0  0  0
 16 21  2  0  0  0  0
 16 26  1  0  0  0  0
 17 25  1  0  0  0  0
 17 28  2  0  0  0  0
 18 30  2  0  0  0  0
 18 31  1  0  0  0  0
 19 32  1  0  0  0  0
 20 32  1  0  0  0  0
 20 33  2  0  0  0  0
 20 34  1  0  0  0  0
 21 54  1  0  0  0  0
 22 24  2  0  0  0  0
 22 39  1  0  0  0  0
 23 25  2  0  0  0  0
 23 40  1  0  0  0  0
 24 55  1  0  0  0  0
 25 41  1  0  0  0  0
 26 74  1  0  0  0  0
 27 84  1  0  0  0  0
 28 85  1  0  0  0  0
 29 31  2  0  0  0  0
 29 84  1  0  0  0  0
 30 86  1  0  0  0  0
 31 87  1  0  0  0  0
 32 68  2  0  0  0  0
 33 69  1  0  0  0  0
 33 72  1  0  0  0  0
 34 73  1  0  0  0  0
 34 79  2  0  0  0  0
 35 56  1  0  0  0  0
 35 75  1  0  0  0  0
 35 80  2  0  0  0  0
 36 65  1  0  0  0  0
 36 70  1  0  0  0  0
 36 81  2  0  0  0  0
 37 66  1  0  0  0  0
 37 76  1  0  0  0  0
 37 82  2  0  0  0  0
 38 71  1  0  0  0  0
 38 74  1  0  0  0  0
 38 83  2  0  0  0  0
 39 42  1  0  0  0  0
 40 56  1  0  0  0  0
 41 70  1  0  0  0  0
 42 46  1  0  0  0  0
 43 47  1  0  0  0  0
 43 50  1  0  0  0  0
 44 48  1  0  0  0  0
 44 54  1  0  0  0  0
 45 49  1  0  0  0  0
 45 54  1  0  0  0  0
 46 55  1  0  0  0  0
 47 57  1  0  0  0  0
 48 58  1  0  0  0  0
 49 58  1  0  0  0  0
 50 71  1  0  0  0  0
 51 57  1  0  0  0  0
 51 71  1  0  0  0  0
 52 59  1  0  0  0  0
 52 77  1  0  0  0  0
 53 59  1  0  0  0  0
 53 77  1  0  0  0  0
 55 75  1  0  0  0  0
 56 70  1  0  0  0  0
 57 69  1  0  0  0  0
 58 77  1  0  0  0  0
 59 85  1  0  0  0  0
 60 66  1  0  0  0  0
 61 67  1  0  0  0  0
 62 67  1  0  0  0  0
 63 67  1  0  0  0  0
 64 78  1  0  0  0  0
 65 67  1  0  0  0  0
 65 76  1  0  0  0  0
 66 78  1  0  0  0  0
 68 69  1  0  0  0  0
M  CHG  2  77   1  78   1
M  ISO  4  38 100  59 101  74 100  85 101
M  END
> <Batch ID>
0154

> <Smiles>
CNC(C)C(=O)NC(C(=O)N1Cc2cc([101O:1][101CH:1]3CN(C4CCC(c5cccc([100NH:0][100C:0](=O)N6CCCC(n7nc(-c8ccc(Oc9ccc(F)cc9F)cc8)c(C(N)=O)c7N)C6)c5)CC4)C3)ccc2CC1C(=O)NC1CCCc2ccccc21)C(C)(C)C

> <Shape>
0.279

> <Color>
0.081

> <Negative vol penalty>
0.000

$$$$

  -OEChem-04052303333D

 85 94  0     1  0  0  0  0  0999 V2000
  -26.9280  -36.3323   20.5102 C   0  0  0  0  0  0  0  0  0  0  0  0
  -27.3903  -35.0277   20.6497 C   0  0  0  0  0  0  0  0  0  0  0  0
  -24.4634  -12.4901   19.6298 C   0  0  0  0  0  0  0  0  0  0  0  0
  -25.5320  -13.1328   21.6991 C   0  0  0  0  0  0  0  0  0  0  0  0
  -25.7379  -36.7185   21.1254 C   0  0  0  0  0  0  0  0  0  0  0  0
  -26.6633  -34.1086   21.4055 C   0  0  0  0  0  0  0  0  0  0  0  0
  -26.2445  -29.6106   19.1170 C   0  0  0  0  0  0  0  0  0  0  0  0
  -28.1334  -20.7333   22.9727 C   0  0  0  0  0  0  0  0  0  0  0  0
  -29.2060  -21.2810   23.6764 C   0  0  0  0  0  0  0  0  0  0  0  0
  -25.0958  -11.2483   19.6889 C   0  0  0  0  0  0  0  0  0  0  0  0
  -26.1644  -11.8909   21.7582 C   0  0  0  0  0  0  0  0  0  0  0  0
  -27.3518  -28.7650   19.1673 C   0  0  0  0  0  0  0  0  0  0  0  0
  -24.6882   -8.3210   21.3315 C   0  0  0  0  0  0  0  0  0  0  0  0
  -23.9195   -7.1887   21.0622 C   0  0  0  0  0  0  0  0  0  0  0  0
  -28.7566  -22.0174   21.0234 C   0  0  0  0  0  0  0  0  0  0  0  0
  -26.3206  -27.5313   20.9655 C   0  0  0  0  0  0  0  0  0  0  0  0
  -25.3758   -6.6395   19.2143 C   0  0  0  0  0  0  0  0  0  0  0  0
  -24.6816  -13.4324   20.6349 C   0  0  0  0  0  0  0  0  0  0  0  0
  -29.8292  -22.5651   21.7271 C   0  0  0  0  0  0  0  0  0  0  0  0
  -22.7755  -15.0583   21.1153 C   0  0  0  0  0  0  0  0  0  0  0  0
  -24.9909  -35.8011   21.8811 C   0  0  0  0  0  0  0  0  0  0  0  0
  -25.1698  -29.4292   19.9994 C   0  0  0  0  0  0  0  0  0  0  0  0
  -25.4628  -34.4832   22.0325 C   0  0  0  0  0  0  0  0  0  0  0  0
  -25.1997  -28.3743   20.9227 C   0  0  0  0  0  0  0  0  0  0  0  0
  -27.9088  -21.1014   21.6461 C   0  0  0  0  0  0  0  0  0  0  0  0
  -30.0539  -22.1969   23.0537 C   0  0  0  0  0  0  0  0  0  0  0  0
  -25.9462  -10.9486   20.7531 C   0  0  0  0  0  0  0  0  0  0  0  0
  -27.3913  -27.7270   20.0936 C   0  0  0  0  0  0  0  0  0  0  0  0
  -25.8007   -8.6127   20.5421 C   0  0  0  0  0  0  0  0  0  0  0  0
  -24.2633   -6.3479   20.0037 C   0  0  0  0  0  0  0  0  0  0  0  0
  -26.1445   -7.7719   19.4835 C   0  0  0  0  0  0  0  0  0  0  0  0
  -24.0291  -14.7156   20.5742 C   0  0  0  0  0  0  0  0  0  0  0  0
  -22.6114  -16.3826   20.7898 C   0  0  0  0  0  0  0  0  0  0  0  0
  -30.7100  -23.5317   21.0473 C   0  0  0  0  0  0  0  0  0  0  0  0
  -21.8428  -14.2518   21.8469 C   0  0  0  0  0  0  0  0  0  0  0  0
  -23.8231  -31.1815   22.2841 C   0  0  0  0  0  0  0  0  0  0  0  0
  -21.6630  -28.7619   22.3264 C   0  0  0  0  0  0  0  0  0  0  0  0
  -20.9687  -25.4861   21.6676 C   0  0  0  0  0  0  0  0  0  0  0  0
  -26.4552  -20.8029   19.6104 C   0  0  0  0  0  0  0  0  0  0  0  0
  -23.7348  -36.2776   22.5665 C   0  0  0  0  0  0  0  0  0  0  0  0
  -23.9708  -30.3335   19.9145 C   0  0  0  0  0  0  0  0  0  0  0  0
  -24.0627  -28.1246   21.8785 C   0  0  0  0  0  0  0  0  0  0  0  0
  -22.8312  -35.1421   23.0403 C   0  0  0  0  0  0  0  0  0  0  0  0
  -23.8650  -19.6082   17.4795 C   0  0  0  0  0  0  0  0  0  0  0  0
  -23.6486  -34.0747   23.7610 C   0  0  0  0  0  0  0  0  0  0  0  0
  -23.4948  -18.2519   18.0841 C   0  0  0  0  0  0  0  0  0  0  0  0
  -30.6900  -27.1440   21.0744 C   0  0  0  0  0  0  0  0  0  0  0  0
  -25.3648  -19.8819   17.5762 C   0  0  0  0  0  0  0  0  0  0  0  0
  -31.2401  -25.8606   20.4581 C   0  0  0  0  0  0  0  0  0  0  0  0
  -25.5647  -18.3913   19.5274 C   0  0  0  0  0  0  0  0  0  0  0  0
  -29.2539  -25.3640   21.8165 C   0  0  0  0  0  0  0  0  0  0  0  0
  -24.6896  -33.4506   22.8237 C   0  0  1  0  0  0  0  0  0  0  0  0
  -23.1593  -30.3727   21.2057 C   0  0  1  0  0  0  0  0  0  0  0  0
  -24.0553  -18.0995   19.5118 C   0  0  2  0  0  0  0  0  0  0  0  0
  -29.2255  -26.8163   21.3494 C   0  0  2  0  0  0  0  0  0  1  0  0
  -19.1292  -23.7883   21.8438 C   0  0  0  0  0  0  0  0  0  0  0  0
  -22.1638  -28.5344   25.3276 C   0  0  0  0  0  0  0  0  0  0  0  0
  -21.0705  -26.2828   25.2688 C   0  0  0  0  0  0  0  0  0  0  0  0
  -19.7661  -28.3173   24.6507 C   0  0  0  0  0  0  0  0  0  0  0  0
  -20.9206  -25.0633   18.7388 C   0  0  0  0  0  0  0  0  0  0  0  0
  -21.5382  -27.4530   23.0681 C   0  0  1  0  0  0  0  0  0  0  0  0
  -19.7995  -24.8272   20.9583 C   0  0  2  0  0  0  0  0  0  0  0  0
  -21.1571  -27.6525   24.5622 C   0  0  0  0  0  0  0  0  0  0  0  0
  -24.6194  -15.7395   19.9519 N   0  0  0  0  0  0  0  0  0  0  0  0
  -23.7328  -16.7386   20.1000 N   0  0  0  0  0  0  0  0  0  0  0  0
  -30.4245  -24.8199   21.1026 N   0  0  0  0  0  0  0  0  0  0  0  0
  -22.9154  -29.0397   21.7607 N   0  0  0  0  0  0  0  0  0  0  0  0
  -25.8239  -19.7229   18.9578 N   0  0  0  0  0  0  0  0  0  0  0  0
  -31.1340  -22.7415   23.7825 N   0  0  0  0  0  0  0  0  0  0  0  0
  -21.6187  -17.2655   21.0291 N   0  0  0  0  0  0  0  0  0  0  0  0
  -22.1687  -12.9113   22.0940 N   0  0  0  0  0  0  0  0  0  0  0  0
  -26.8189  -20.5452   20.9317 N   0  0  0  0  0  0  0  0  0  0  0  0
  -24.0618  -32.4969   21.9345 N   0  0  0  0  0  0  0  0  0  0  0  0
  -20.5882  -26.6442   22.3120 N   0  0  0  0  0  0  0  0  0  0  0  0
  -31.7793  -23.0917   20.3906 N   0  3  0  0  0  0  0  0  0  0  0  0
  -20.2625  -24.1540   19.7119 N   0  3  0  0  0  0  0  0  0  0  0  0
  -20.7453  -14.7020   22.2548 O   0  0  0  0  0  0  0  0  0  0  0  0
  -24.0971  -30.6518   23.3546 O   0  0  0  0  0  0  0  0  0  0  0  0
  -20.6832  -29.5070   22.2456 O   0  0  0  0  0  0  0  0  0  0  0  0
  -22.1051  -25.0181   21.6548 O   0  0  0  0  0  0  0  0  0  0  0  0
  -26.6337  -21.8863   19.0479 O   0  0  0  0  0  0  0  0  0  0  0  0
  -26.5633   -9.7368   20.8112 O   0  0  0  0  0  0  0  0  0  0  0  0
  -28.4713  -26.9006   20.1452 O   0  0  0  0  0  0  0  0  0  1  0  0
  -23.5259   -5.2598   19.7462 F   0  0  0  0  0  0  0  0  0  0  0  0
  -27.2128   -8.0463   18.7224 F   0  0  0  0  0  0  0  0  0  0  0  0
  1  2  1  0  0  0  0
  1  5  2  0  0  0  0
  2  6  2  0  0  0  0
  3 10  2  0  0  0  0
  3 18  1  0  0  0  0
  4 11  1  0  0  0  0
  4 18  2  0  0  0  0
  5 21  1  0  0  0  0
  6 23  1  0  0  0  0
  7 12  2  0  0  0  0
  7 22  1  0  0  0  0
  8  9  2  0  0  0  0
  8 25  1  0  0  0  0
  9 26  1  0  0  0  0
 10 27  1  0  0  0  0
 11 27  2  0  0  0  0
 12 28  1  0  0  0  0
 13 14  2  0  0  0  0
 13 29  1  0  0  0  0
 14 30  1  0  0  0  0
 15 19  1  0  0  0  0
 15 25  2  0  0  0  0
 16 24  1  0  0  0  0
 16 28  2  0  0  0  0
 17 30  2  0  0  0  0
 17 31  1  0  0  0  0
 18 32  1  0  0  0  0
 19 26  2  0  0  0  0
 19 34  1  0  0  0  0
 20 32  1  0  0  0  0
 20 33  2  0  0  0  0
 20 35  1  0  0  0  0
 21 23  2  0  0  0  0
 21 40  1  0  0  0  0
 22 24  2  0  0  0  0
 22 41  1  0  0  0  0
 23 52  1  0  0  0  0
 24 42  1  0  0  0  0
 25 72  1  0  0  0  0
 26 69  1  0  0  0  0
 27 82  1  0  0  0  0
 28 83  1  0  0  0  0
 29 31  2  0  0  0  0
 29 82  1  0  0  0  0
 30 84  1  0  0  0  0
 31 85  1  0  0  0  0
 32 64  2  0  0  0  0
 33 65  1  0  0  0  0
 33 70  1  0  0  0  0
 34 66  1  0  0  0  0
 34 75  2  0  0  0  0
 35 71  1  0  0  0  0
 35 77  2  0  0  0  0
 36 53  1  0  0  0  0
 36 73  1  0  0  0  0
 36 78  2  0  0  0  0
 37 61  1  0  0  0  0
 37 67  1  0  0  0  0
 37 79  2  0  0  0  0
 38 62  1  0  0  0  0
 38 74  1  0  0  0  0
 38 80  2  0  0  0  0
 39 68  1  0  0  0  0
 39 72  1  0  0  0  0
 39 81  2  0  0  0  0
 40 43  1  0  0  0  0
 41 53  1  0  0  0  0
 42 67  1  0  0  0  0
 43 45  1  0  0  0  0
 44 46  1  0  0  0  0
 44 48  1  0  0  0  0
 45 52  1  0  0  0  0
 46 54  1  0  0  0  0
 47 49  1  0  0  0  0
 47 55  1  0  0  0  0
 48 68  1  0  0  0  0
 49 66  1  0  0  0  0
 50 54  1  0  0  0  0
 50 68  1  0  0  0  0
 51 55  1  0  0  0  0
 51 66  1  0  0  0  0
 52 73  1  0  0  0  0
 53 67  1  0  0  0  0
 54 65  1  0  0  0  0
 55 83  1  0  0  0  0
 56 62  1  0  0  0  0
 57 63  1  0  0  0  0
 58 63  1  0  0  0  0
 59 63  1  0  0  0  0
 60 76  1  0  0  0  0
 61 63  1  0  0  0  0
 61 74  1  0  0  0  0
 62 76  1  0  0  0  0
 64 65  1  0  0  0  0
M  CHG  2  75   1  76   1
M  ISO  4  39 100  55 101  72 100  83 101
M  END
> <Batch ID>
0154

> <Smiles>
CNC(C)C(=O)NC(C(=O)N1Cc2cc([101O:1][101CH:1]3CCN(C(=N)c4cc([100NH:0][100C:0](=O)N5CCCC(n6nc(-c7ccc(Oc8ccc(F)cc8F)cc7)c(C(N)=O)c6N)C5)ccc4N)C3)ccc2CC1C(=O)NC1CCCc2ccccc21)C(C)(C)C

> <Shape>
0.224

> <Color>
0.079

> <Negative vol penalty>
0.000

$$$$

  -OEChem-04052303333D

 85 94  0     1  0  0  0  0  0999 V2000
  -17.0902  -29.8925   24.1043 C   0  0  0  0  0  0  0  0  0  0  0  0
  -17.6638  -28.9120   23.3011 C   0  0  0  0  0  0  0  0  0  0  0  0
  -24.0583   -9.2536   22.4185 C   0  0  0  0  0  0  0  0  0  0  0  0
  -24.4074   -8.8087   20.0696 C   0  0  0  0  0  0  0  0  0  0  0  0
  -17.6309  -31.1774   24.1273 C   0  0  0  0  0  0  0  0  0  0  0  0
  -18.7778  -29.2162   22.5196 C   0  0  0  0  0  0  0  0  0  0  0  0
  -22.3597  -25.6451   22.7691 C   0  0  0  0  0  0  0  0  0  0  0  0
  -23.0548   -8.2855   22.4528 C   0  0  0  0  0  0  0  0  0  0  0  0
  -23.4039   -7.8404   20.1039 C   0  0  0  0  0  0  0  0  0  0  0  0
  -22.1582  -24.4876   22.0184 C   0  0  0  0  0  0  0  0  0  0  0  0
  -22.8507   -4.9136   22.6005 C   0  0  0  0  0  0  0  0  0  0  0  0
  -22.8527   -4.0154   23.6676 C   0  0  0  0  0  0  0  0  0  0  0  0
  -23.6450  -25.3378   20.3196 C   0  0  0  0  0  0  0  0  0  0  0  0
  -25.3477  -22.0885   20.0276 C   0  0  0  0  0  0  0  0  0  0  0  0
  -20.6521   -4.7763   24.3122 C   0  0  0  0  0  0  0  0  0  0  0  0
  -24.7109  -20.6669   21.7527 C   0  0  0  0  0  0  0  0  0  0  0  0
  -24.7346   -9.5153   21.2269 C   0  0  0  0  0  0  0  0  0  0  0  0
  -27.1449  -10.3254   21.4307 C   0  0  0  0  0  0  0  0  0  0  0  0
  -18.7580  -31.4949   23.3530 C   0  0  0  0  0  0  0  0  0  0  0  0
  -23.1983  -26.6641   22.2948 C   0  0  0  0  0  0  0  0  0  0  0  0
  -19.3333  -30.5070   22.5312 C   0  0  0  0  0  0  0  0  0  0  0  0
  -23.8575  -26.5061   21.0674 C   0  0  0  0  0  0  0  0  0  0  0  0
  -24.2827  -21.6094   20.8439 C   0  0  0  0  0  0  0  0  0  0  0  0
  -22.7276   -7.5788   21.2956 C   0  0  0  0  0  0  0  0  0  0  0  0
  -22.7986  -24.3351   20.7922 C   0  0  0  0  0  0  0  0  0  0  0  0
  -21.7494   -5.7432   22.3892 C   0  0  0  0  0  0  0  0  0  0  0  0
  -21.7534   -3.9468   24.5235 C   0  0  0  0  0  0  0  0  0  0  0  0
  -20.6501   -5.6745   23.2450 C   0  0  0  0  0  0  0  0  0  0  0  0
  -25.7709  -10.5157   21.1906 C   0  0  0  0  0  0  0  0  0  0  0  0
  -27.6967  -11.5736   21.2753 C   0  0  0  0  0  0  0  0  0  0  0  0
  -26.5496  -21.4940   20.3438 C   0  0  0  0  0  0  0  0  0  0  0  0
  -27.8587   -9.1275   21.7641 C   0  0  0  0  0  0  0  0  0  0  0  0
  -22.7936  -29.7162   21.5046 C   0  0  0  0  0  0  0  0  0  0  0  0
  -26.0213  -29.6576   21.1870 C   0  0  0  0  0  0  0  0  0  0  0  0
  -28.8455  -27.8223   20.6373 C   0  0  0  0  0  0  0  0  0  0  0  0
  -28.0058  -16.1581   18.0852 C   0  0  0  0  0  0  0  0  0  0  0  0
  -19.2782  -32.9104   23.3747 C   0  0  0  0  0  0  0  0  0  0  0  0
  -23.4261  -27.8948   23.1289 C   0  0  0  0  0  0  0  0  0  0  0  0
  -24.7837  -27.5616   20.5230 C   0  0  0  0  0  0  0  0  0  0  0  0
  -20.6867  -33.0505   22.8029 C   0  0  0  0  0  0  0  0  0  0  0  0
  -25.5182  -16.1141   20.8381 C   0  0  0  0  0  0  0  0  0  0  0  0
  -20.8058  -32.2912   21.4852 C   0  0  0  0  0  0  0  0  0  0  0  0
  -25.4533  -14.6203   21.1593 C   0  0  0  0  0  0  0  0  0  0  0  0
  -28.3096  -19.5090   16.5374 C   0  0  0  0  0  0  0  0  0  0  0  0
  -25.8316  -16.3423   19.3651 C   0  0  0  0  0  0  0  0  0  0  0  0
  -28.7847  -18.0748   16.7258 C   0  0  0  0  0  0  0  0  0  0  0  0
  -27.0272  -14.1920   19.2111 C   0  0  0  0  0  0  0  0  0  0  0  0
  -26.8547  -18.4490   18.1094 C   0  0  0  0  0  0  0  0  0  0  0  0
  -20.5574  -30.7916   21.6882 C   0  0  1  0  0  0  0  0  0  0  0  0
  -23.8980  -29.0925   22.3102 C   0  0  1  0  0  0  0  0  0  0  0  0
  -26.7277  -13.8944   20.6910 C   0  0  2  0  0  0  0  0  0  0  0  0
  -27.5077  -19.7921   17.8041 C   0  0  1  0  0  0  0  0  0  0  0  0
  -31.3321  -28.0582   20.3955 C   0  0  0  0  0  0  0  0  0  0  0  0
  -25.6394  -30.7734   18.3729 C   0  0  0  0  0  0  0  0  0  0  0  0
  -27.9955  -30.0990   17.8610 C   0  0  0  0  0  0  0  0  0  0  0  0
  -27.5414  -31.7817   19.6457 C   0  0  0  0  0  0  0  0  0  0  0  0
  -29.3547  -26.0814   22.9758 C   0  0  0  0  0  0  0  0  0  0  0  0
  -26.9794  -29.3520   20.0611 C   0  0  1  0  0  0  0  0  0  0  0  0
  -30.1828  -27.7921   21.3551 C   0  0  2  0  0  0  0  0  0  0  0  0
  -27.0200  -30.4823   18.9942 C   0  0  0  0  0  0  0  0  0  0  0  0
  -25.4683  -11.7848   20.9047 N   0  0  0  0  0  0  0  0  0  0  0  0
  -26.6600  -12.4033   20.9642 N   0  0  0  0  0  0  0  0  0  0  0  0
  -24.9692  -28.7496   21.3726 N   0  0  0  0  0  0  0  0  0  0  0  0
  -27.0523  -15.6357   18.9667 N   0  0  0  0  0  0  0  0  0  0  0  0
  -27.8003  -17.4501   17.6028 N   0  0  0  0  0  0  0  0  0  0  0  0
  -28.9627  -12.0313   21.3760 N   0  0  0  0  0  0  0  0  0  0  0  0
  -27.1377   -7.9317   21.8843 N   0  0  0  0  0  0  0  0  0  0  0  0
  -23.0005  -22.0287   20.7404 N   0  0  0  0  0  0  0  0  0  1  0  0
  -21.7258  -30.1589   22.2618 N   0  0  0  0  0  0  0  0  0  0  0  0
  -28.2679  -29.0734   20.6859 N   0  0  0  0  0  0  0  0  0  0  0  0
  -28.4132  -20.1806   18.9123 N   0  0  0  0  0  0  0  0  0  0  0  0
  -30.3996  -26.4616   21.9906 N   0  3  0  0  0  0  0  0  0  0  0  0
  -29.0967   -9.1209   21.9662 O   0  0  0  0  0  0  0  0  0  0  0  0
  -22.9029  -29.7917   20.2864 O   0  0  0  0  0  0  0  0  0  0  0  0
  -26.2039  -30.6610   21.8808 O   0  0  0  0  0  0  0  0  0  0  0  0
  -28.3634  -26.8357   20.0852 O   0  0  0  0  0  0  0  0  0  0  0  0
  -29.0212  -15.5177   17.7818 O   0  0  0  0  0  0  0  0  0  0  0  0
  -28.1789  -22.7376   18.7286 O   0  0  0  0  0  0  0  0  0  0  0  0
  -29.0829  -21.7252   20.8458 O   0  0  0  0  0  0  0  0  0  0  0  0
  -21.7486   -6.6338   21.3288 O   0  0  0  0  0  0  0  0  0  0  0  0
  -22.6010  -23.1938   20.0488 O   0  0  0  0  0  0  0  0  0  1  0  0
  -21.7549   -3.0831   25.5473 F   0  0  0  0  0  0  0  0  0  0  0  0
  -19.5887   -6.4681   23.0464 F   0  0  0  0  0  0  0  0  0  0  0  0
  -26.3909  -20.3631   21.6199 S   0  0  0  0  0  0  0  0  0  0  0  0
  -28.1890  -21.6652   19.7052 S   0  0  0  0  0  0  0  0  0  0  0  0
  1  2  1  0  0  0  0
  1  5  2  0  0  0  0
  2  6  2  0  0  0  0
  3  8  2  0  0  0  0
  3 17  1  0  0  0  0
  4  9  1  0  0  0  0
  4 17  2  0  0  0  0
  5 19  1  0  0  0  0
  6 21  1  0  0  0  0
  7 10  2  0  0  0  0
  7 20  1  0  0  0  0
  8 24  1  0  0  0  0
  9 24  2  0  0  0  0
 10 25  1  0  0  0  0
 11 12  2  0  0  0  0
 11 26  1  0  0  0  0
 12 27  1  0  0  0  0
 13 22  1  0  0  0  0
 13 25  2  0  0  0  0
 14 23  1  0  0  0  0
 14 31  2  0  0  0  0
 15 27  2  0  0  0  0
 15 28  1  0  0  0  0
 16 23  2  0  0  0  0
 16 84  1  0  0  0  0
 17 29  1  0  0  0  0
 18 29  1  0  0  0  0
 18 30  2  0  0  0  0
 18 32  1  0  0  0  0
 19 21  2  0  0  0  0
 19 37  1  0  0  0  0
 20 22  2  0  0  0  0
 20 38  1  0  0  0  0
 21 49  1  0  0  0  0
 22 39  1  0  0  0  0
 23 68  1  0  0  0  0
 24 80  1  0  0  0  0
 25 81  1  0  0  0  0
 26 28  2  0  0  0  0
 26 80  1  0  0  0  0
 27 82  1  0  0  0  0
 28 83  1  0  0  0  0
 29 61  2  0  0  0  0
 30 62  1  0  0  0  0
 30 66  1  0  0  0  0
 31 84  1  0  0  0  0
 31 85  1  0  0  0  0
 32 67  1  0  0  0  0
 32 73  2  0  0  0  0
 33 50  1  0  0  0  0
 33 69  1  0  0  0  0
 33 74  2  0  0  0  0
 34 58  1  0  0  0  0
 34 63  1  0  0  0  0
 34 75  2  0  0  0  0
 35 59  1  0  0  0  0
 35 70  1  0  0  0  0
 35 76  2  0  0  0  0
 36 64  1  0  0  0  0
 36 65  1  0  0  0  0
 36 77  2  0  0  0  0
 37 40  1  0  0  0  0
 38 50  1  0  0  0  0
 39 63  1  0  0  0  0
 40 42  1  0  0  0  0
 41 43  1  0  0  0  0
 41 45  1  0  0  0  0
 42 49  1  0  0  0  0
 43 51  1  0  0  0  0
 44 46  1  0  0  0  0
 44 52  1  0  0  0  0
 45 64  1  0  0  0  0
 46 65  1  0  0  0  0
 47 51  1  0  0  0  0
 47 64  1  0  0  0  0
 48 52  1  0  0  0  0
 48 65  1  0  0  0  0
 49 69  1  0  0  0  0
 50 63  1  0  0  0  0
 51 62  1  0  0  0  0
 52 71  1  0  0  0  0
 53 59  1  0  0  0  0
 54 60  1  0  0  0  0
 55 60  1  0  0  0  0
 56 60  1  0  0  0  0
 57 72  1  0  0  0  0
 58 60  1  0  0  0  0
 58 70  1  0  0  0  0
 59 72  1  0  0  0  0
 61 62  1  0  0  0  0
 68 81  1  0  0  0  0
 71 85  1  0  0  0  0
 78 85  2  0  0  0  0
 79 85  2  0  0  0  0
M  CHG  1  72   1
M  ISO  4  36 100  65 100  68 101  81 101
M  END
> <Batch ID>
0154

> <Smiles>
CNC(C)C(=O)NC(C(=O)N1Cc2cc([101O:1][101NH:1]c3csc(S(=O)(=O)NC4CC[100N:0]([100C:0](=O)N5CCCC(n6nc(-c7ccc(Oc8ccc(F)cc8F)cc7)c(C(N)=O)c6N)C5)C4)c3)ccc2CC1C(=O)NC1CCCc2ccccc21)C(C)(C)C

> <Shape>
0.257

> <Color>
0.105

> <Negative vol penalty>
0.000

$$$$

  -OEChem-04052303333D

 85 93  0     1  0  0  0  0  0999 V2000
  -16.6681  -26.3388   24.5926 C   0  0  0  0  0  0  0  0  0  0  0  0
  -17.5406  -25.8202   23.6411 C   0  0  0  0  0  0  0  0  0  0  0  0
  -25.3609  -13.2339   18.7397 C   0  0  0  0  0  0  0  0  0  0  0  0
  -24.2396  -15.0258   19.9097 C   0  0  0  0  0  0  0  0  0  0  0  0
  -16.6032  -27.7160   24.7999 C   0  0  0  0  0  0  0  0  0  0  0  0
  -18.3479  -26.6787   22.8957 C   0  0  0  0  0  0  0  0  0  0  0  0
  -24.0379  -25.5853   20.9123 C   0  0  0  0  0  0  0  0  0  0  0  0
  -24.3656  -12.3454   19.1465 C   0  0  0  0  0  0  0  0  0  0  0  0
  -23.2443  -14.1372   20.3165 C   0  0  0  0  0  0  0  0  0  0  0  0
  -24.5371  -25.1627   19.6810 C   0  0  0  0  0  0  0  0  0  0  0  0
  -23.5577  -10.6192   21.9379 C   0  0  0  0  0  0  0  0  0  0  0  0
  -23.9598   -9.3757   22.4253 C   0  0  0  0  0  0  0  0  0  0  0  0
  -24.9607  -27.4580   19.0717 C   0  0  0  0  0  0  0  0  0  0  0  0
  -29.7352  -22.9803   18.7378 C   0  0  0  0  0  0  0  0  0  0  0  0
  -31.3144  -22.9417   20.5658 C   0  0  0  0  0  0  0  0  0  0  0  0
  -22.7140   -8.2836   20.6667 C   0  0  0  0  0  0  0  0  0  0  0  0
  -25.2979  -14.5741   19.1213 C   0  0  0  0  0  0  0  0  0  0  0  0
  -26.3441  -16.2700   17.5284 C   0  0  0  0  0  0  0  0  0  0  0  0
  -17.4171  -28.5911   24.0635 C   0  0  0  0  0  0  0  0  0  0  0  0
  -23.9862  -26.9505   21.2287 C   0  0  0  0  0  0  0  0  0  0  0  0
  -18.2928  -28.0690   23.0925 C   0  0  0  0  0  0  0  0  0  0  0  0
  -24.4628  -27.8952   20.3086 C   0  0  0  0  0  0  0  0  0  0  0  0
  -30.5231  -22.2637   19.6386 C   0  0  0  0  0  0  0  0  0  0  0  0
  -29.7388  -24.3749   18.7642 C   0  0  0  0  0  0  0  0  0  0  0  0
  -30.5301  -25.0529   19.6914 C   0  0  0  0  0  0  0  0  0  0  0  0
  -23.3073  -12.7970   19.9350 C   0  0  0  0  0  0  0  0  0  0  0  0
  -24.9959  -26.0992   18.7594 C   0  0  0  0  0  0  0  0  0  0  0  0
  -22.7336  -10.6950   20.8150 C   0  0  0  0  0  0  0  0  0  0  0  0
  -23.5380   -8.2079   21.7896 C   0  0  0  0  0  0  0  0  0  0  0  0
  -31.3180  -24.3363   20.5922 C   0  0  0  0  0  0  0  0  0  0  0  0
  -22.3118   -9.5272   20.1794 C   0  0  0  0  0  0  0  0  0  0  0  0
  -26.3260  -15.4923   18.7018 C   0  0  0  0  0  0  0  0  0  0  0  0
  -27.5260  -16.9664   17.5963 C   0  0  0  0  0  0  0  0  0  0  0  0
  -25.3788  -16.3553   16.4718 C   0  0  0  0  0  0  0  0  0  0  0  0
  -21.6608  -29.0110   21.8999 C   0  0  0  0  0  0  0  0  0  0  0  0
  -24.1401  -31.0158   22.4963 C   0  0  0  0  0  0  0  0  0  0  0  0
  -28.0963  -24.5482   16.8633 C   0  0  0  0  0  0  0  0  0  0  0  0
  -27.4102  -31.8230   21.9467 C   0  0  0  0  0  0  0  0  0  0  0  0
  -31.2446  -19.9854   20.4354 C   0  0  0  0  0  0  0  0  0  0  0  0
  -17.2775  -30.0757   24.2896 C   0  0  0  0  0  0  0  0  0  0  0  0
  -23.4697  -27.3884   22.5717 C   0  0  0  0  0  0  0  0  0  0  0  0
  -24.4478  -29.3712   20.6079 C   0  0  0  0  0  0  0  0  0  0  0  0
  -18.4371  -30.8900   23.7217 C   0  0  0  0  0  0  0  0  0  0  0  0
  -31.4835  -16.4434   20.7086 C   0  0  0  0  0  0  0  0  0  0  0  0
  -18.7641  -30.4354   22.3028 C   0  0  0  0  0  0  0  0  0  0  0  0
  -30.1645  -15.9442   20.1143 C   0  0  0  0  0  0  0  0  0  0  0  0
  -31.2963  -17.7389   21.4963 C   0  0  0  0  0  0  0  0  0  0  0  0
  -29.3030  -18.3194   20.1701 C   0  0  0  0  0  0  0  0  0  0  0  0
  -19.2025  -28.9661   22.2814 C   0  0  1  0  0  0  0  0  0  0  0  0
  -22.9873  -28.8357   22.5834 C   0  0  1  0  0  0  0  0  0  0  0  0
  -29.4524  -17.0517   19.3132 C   0  0  2  0  0  0  0  0  0  0  0  0
  -29.1427  -33.5382   22.5416 C   0  0  0  0  0  0  0  0  0  0  0  0
  -22.8450  -32.9905   20.5642 C   0  0  0  0  0  0  0  0  0  0  0  0
  -25.0252  -34.2175   20.4664 C   0  0  0  0  0  0  0  0  0  0  0  0
  -23.7995  -34.0265   22.6306 C   0  0  0  0  0  0  0  0  0  0  0  0
  -29.1487  -29.7945   23.2203 C   0  0  0  0  0  0  0  0  0  0  0  0
  -26.4896  -26.5010   16.9529 C   0  0  0  0  0  0  0  0  0  1  0  0
  -24.9500  -31.9887   21.6738 C   0  0  1  0  0  0  0  0  0  0  0  0
  -27.3997  -25.6499   16.0735 C   0  0  2  0  0  0  0  0  0  0  0  0
  -28.5305  -32.1935   22.9017 C   0  0  2  0  0  0  0  0  0  0  0  0
  -24.1535  -33.2782   21.3270 C   0  0  0  0  0  0  0  0  0  0  0  0
  -27.4104  -15.6768   19.4594 N   0  0  0  0  0  0  0  0  0  0  0  0
  -28.1210  -16.5784   18.7606 N   0  0  0  0  0  0  0  0  0  0  0  0
  -23.9274  -29.7501   21.9320 N   0  0  0  0  0  0  0  0  0  0  0  0
  -30.6194  -18.7430   20.6727 N   0  0  0  0  0  0  0  0  0  0  0  0
  -30.5482  -26.4654   19.7334 N   0  0  0  0  0  0  0  0  0  0  0  0
  -28.1039  -17.8667   16.7730 N   0  0  0  0  0  0  0  0  0  0  0  0
  -24.2202  -15.5715   16.5603 N   0  0  0  0  0  0  0  0  0  0  0  0
  -28.9320  -25.0808   17.8404 N   0  0  0  0  0  0  0  0  0  0  0  0
  -30.5210  -20.8470   19.6117 N   0  0  0  0  0  0  0  0  0  0  0  0
  -20.5717  -28.8406   22.7331 N   0  0  0  0  0  0  0  0  0  0  0  0
  -26.1804  -32.2288   22.4200 N   0  0  0  0  0  0  0  0  0  0  0  0
  -26.5895  -25.0641   14.9666 N   0  3  0  0  0  0  0  0  0  0  0  0
  -29.6058  -31.1623   22.8638 N   0  3  0  0  0  0  0  0  0  0  0  0
  -25.5465  -17.0921   15.4705 O   0  0  0  0  0  0  0  0  0  0  0  0
  -21.6278  -29.2822   20.7053 O   0  0  0  0  0  0  0  0  0  0  0  0
  -23.7180  -31.3637   23.6019 O   0  0  0  0  0  0  0  0  0  0  0  0
  -27.9005  -23.3612   16.6194 O   0  0  0  0  0  0  0  0  0  0  0  0
  -27.6068  -31.2357   20.8851 O   0  0  0  0  0  0  0  0  0  0  0  0
  -32.3535  -20.2539   20.9047 O   0  0  0  0  0  0  0  0  0  0  0  0
  -22.3358  -11.9303   20.3320 O   0  0  0  0  0  0  0  0  0  0  0  0
  -25.4830  -25.6894   17.5566 O   0  0  0  0  0  0  0  0  0  1  0  0
  -23.9256   -7.0138   22.2568 F   0  0  0  0  0  0  0  0  0  0  0  0
  -32.0834  -24.9770   21.4872 F   0  0  0  0  0  0  0  0  0  0  0  0
  -21.5211   -9.5937   19.0995 F   0  0  0  0  0  0  0  0  0  0  0  0
  1  2  1  0  0  0  0
  1  5  2  0  0  0  0
  2  6  2  0  0  0  0
  3  8  2  0  0  0  0
  3 17  1  0  0  0  0
  4  9  1  0  0  0  0
  4 17  2  0  0  0  0
  5 19  1  0  0  0  0
  6 21  1  0  0  0  0
  7 10  2  0  0  0  0
  7 20  1  0  0  0  0
  8 26  1  0  0  0  0
  9 26  2  0  0  0  0
 10 27  1  0  0  0  0
 11 12  2  0  0  0  0
 11 28  1  0  0  0  0
 12 29  1  0  0  0  0
 13 22  1  0  0  0  0
 13 27  2  0  0  0  0
 14 23  2  0  0  0  0
 14 24  1  0  0  0  0
 15 23  1  0  0  0  0
 15 30  2  0  0  0  0
 16 29  2  0  0  0  0
 16 31  1  0  0  0  0
 17 32  1  0  0  0  0
 18 32  1  0  0  0  0
 18 33  2  0  0  0  0
 18 34  1  0  0  0  0
 19 21  2  0  0  0  0
 19 40  1  0  0  0  0
 20 22  2  0  0  0  0
 20 41  1  0  0  0  0
 21 49  1  0  0  0  0
 22 42  1  0  0  0  0
 23 70  1  0  0  0  0
 24 25  2  0  0  0  0
 24 69  1  0  0  0  0
 25 30  1  0  0  0  0
 25 66  1  0  0  0  0
 26 81  1  0  0  0  0
 27 82  1  0  0  0  0
 28 31  2  0  0  0  0
 28 81  1  0  0  0  0
 29 83  1  0  0  0  0
 30 84  1  0  0  0  0
 31 85  1  0  0  0  0
 32 62  2  0  0  0  0
 33 63  1  0  0  0  0
 33 67  1  0  0  0  0
 34 68  1  0  0  0  0
 34 75  2  0  0  0  0
 35 50  1  0  0  0  0
 35 71  1  0  0  0  0
 35 76  2  0  0  0  0
 36 58  1  0  0  0  0
 36 64  1  0  0  0  0
 36 77  2  0  0  0  0
 37 59  1  0  0  0  0
 37 69  1  0  0  0  0
 37 78  2  0  0  0  0
 38 60  1  0  0  0  0
 38 72  1  0  0  0  0
 38 79  2  0  0  0  0
 39 65  1  0  0  0  0
 39 70  1  0  0  0  0
 39 80  2  0  0  0  0
 40 43  1  0  0  0  0
 41 50  1  0  0  0  0
 42 64  1  0  0  0  0
 43 45  1  0  0  0  0
 44 46  1  0  0  0  0
 44 47  1  0  0  0  0
 45 49  1  0  0  0  0
 46 51  1  0  0  0  0
 47 65  1  0  0  0  0
 48 51  1  0  0  0  0
 48 65  1  0  0  0  0
 49 71  1  0  0  0  0
 50 64  1  0  0  0  0
 51 63  1  0  0  0  0
 52 60  1  0  0  0  0
 53 61  1  0  0  0  0
 54 61  1  0  0  0  0
 55 61  1  0  0  0  0
 56 74  1  0  0  0  0
 57 59  1  0  0  0  0
 57 82  1  0  0  0  0
 58 61  1  0  0  0  0
 58 72  1  0  0  0  0
 59 73  1  0  0  0  0
 60 74  1  0  0  0  0
 62 63  1  0  0  0  0
M  CHG  2  73   1  74   1
M  ISO  4  39 100  57 101  70 100  82 101
M  END
> <Batch ID>
0154

> <Smiles>
CNC(C)C(=O)NC(C(=O)N1Cc2cc([101O:1][101CH2:1]C(N)C(=O)Nc3cc([100NH:0][100C:0](=O)N4CCCC(n5nc(-c6ccc(Oc7ccc(F)cc7F)cc6)c(C(N)=O)c5N)C4)cc(F)c3N)ccc2CC1C(=O)NC1CCCc2ccccc21)C(C)(C)C

> <Shape>
0.270

> <Color>
0.052

> <Negative vol penalty>
0.000

$$$$

  -OEChem-04052303333D

 87 96  0     1  0  0  0  0  0999 V2000
  -27.3914  -32.8449   25.7921 C   0  0  0  0  0  0  0  0  0  0  0  0
  -28.0826  -31.8021   25.1837 C   0  0  0  0  0  0  0  0  0  0  0  0
  -24.4856  -13.7724   23.6929 C   0  0  0  0  0  0  0  0  0  0  0  0
  -24.9553  -15.7160   22.3368 C   0  0  0  0  0  0  0  0  0  0  0  0
  -26.0029  -32.7874   25.9045 C   0  0  0  0  0  0  0  0  0  0  0  0
  -27.3858  -30.7006   24.6882 C   0  0  0  0  0  0  0  0  0  0  0  0
  -28.8736  -18.8317   22.1457 C   0  0  0  0  0  0  0  0  0  0  0  0
  -28.7668  -27.4033   19.7156 C   0  0  0  0  0  0  0  0  0  0  0  0
  -29.1571  -17.6178   21.5198 C   0  0  0  0  0  0  0  0  0  0  0  0
  -24.2211  -14.5985   24.7853 C   0  0  0  0  0  0  0  0  0  0  0  0
  -24.6907  -16.5421   23.4292 C   0  0  0  0  0  0  0  0  0  0  0  0
  -29.4302  -26.1883   19.5504 C   0  0  0  0  0  0  0  0  0  0  0  0
  -21.9745  -17.7604   25.0285 C   0  0  0  0  0  0  0  0  0  0  0  0
  -21.1799  -18.8859   24.8106 C   0  0  0  0  0  0  0  0  0  0  0  0
  -27.3075  -25.0434   19.4969 C   0  0  0  0  0  0  0  0  0  0  0  0
  -27.9022  -18.3250   19.5801 C   0  0  0  0  0  0  0  0  0  0  0  0
  -22.9915  -20.3067   25.5432 C   0  0  0  0  0  0  0  0  0  0  0  0
  -24.8527  -14.3311   22.4687 C   0  0  0  0  0  0  0  0  0  0  0  0
  -24.2441  -12.5678   20.7287 C   0  0  0  0  0  0  0  0  0  0  0  0
  -25.2878  -31.6891   25.4015 C   0  0  0  0  0  0  0  0  0  0  0  0
  -27.3668  -27.4463   19.7838 C   0  0  0  0  0  0  0  0  0  0  0  0
  -25.9865  -30.6277   24.7951 C   0  0  0  0  0  0  0  0  0  0  0  0
  -28.1044  -19.7922   21.4889 C   0  0  0  0  0  0  0  0  0  0  0  0
  -26.6286  -26.2606   19.6605 C   0  0  0  0  0  0  0  0  0  0  0  0
  -27.6187  -19.5388   20.2061 C   0  0  0  0  0  0  0  0  0  0  0  0
  -28.6714  -17.3645   20.2370 C   0  0  0  0  0  0  0  0  0  0  0  0
  -24.3237  -15.9833   24.6534 C   0  0  0  0  0  0  0  0  0  0  0  0
  -28.7007  -25.0077   19.4438 C   0  0  0  0  0  0  0  0  0  0  0  0
  -23.2775  -17.9080   25.5039 C   0  0  0  0  0  0  0  0  0  0  0  0
  -21.6884  -20.1590   25.0678 C   0  0  0  0  0  0  0  0  0  0  0  0
  -23.7860  -19.1812   25.7612 C   0  0  0  0  0  0  0  0  0  0  0  0
  -25.1266  -13.4783   21.3401 C   0  0  0  0  0  0  0  0  0  0  0  0
  -24.9775  -12.0099   19.7102 C   0  0  0  0  0  0  0  0  0  0  0  0
  -22.8829  -12.2543   21.0523 C   0  0  0  0  0  0  0  0  0  0  0  0
  -25.2547  -28.3463   21.9822 C   0  0  0  0  0  0  0  0  0  0  0  0
  -23.1234  -27.7897   19.6010 C   0  0  0  0  0  0  0  0  0  0  0  0
  -22.6292  -25.2985   17.0384 C   0  0  0  0  0  0  0  0  0  0  0  0
  -29.7109  -15.0733   20.1118 C   0  0  0  0  0  0  0  0  0  0  0  0
  -23.7917  -31.6497   25.5884 C   0  0  0  0  0  0  0  0  0  0  0  0
  -26.6652  -28.7681   19.9355 C   0  0  0  0  0  0  0  0  0  0  0  0
  -25.1232  -26.2552   19.7071 C   0  0  0  0  0  0  0  0  0  0  0  0
  -23.0941  -30.6206   24.7027 C   0  0  0  0  0  0  0  0  0  0  0  0
  -26.2091  -22.3756   23.5439 C   0  0  0  0  0  0  0  0  0  0  0  0
  -27.5069  -22.2416   24.3407 C   0  0  0  0  0  0  0  0  0  0  0  0
  -29.1530  -11.4686   20.4829 C   0  0  0  0  0  0  0  0  0  0  0  0
  -23.8315  -29.2862   24.7522 C   0  0  0  0  0  0  0  0  0  0  0  0
  -28.2106  -11.1174   19.3384 C   0  0  0  0  0  0  0  0  0  0  0  0
  -26.3019  -21.3712   22.3946 C   0  0  0  0  0  0  0  0  0  0  0  0
  -28.3348  -21.1630   23.6408 C   0  0  0  0  0  0  0  0  0  0  0  0
  -30.0660  -12.6234   20.0995 C   0  0  0  0  0  0  0  0  0  0  0  0
  -28.3104  -13.5518   18.5913 C   0  0  0  0  0  0  0  0  0  0  0  0
  -25.2638  -29.4274   24.2231 C   0  0  1  0  0  0  0  0  0  0  0  0
  -25.2572  -28.6350   20.5076 C   0  0  1  0  0  0  0  0  0  0  0  0
  -27.4014  -12.3331   18.8615 C   0  0  2  0  0  0  0  0  0  0  0  0
  -27.8073  -21.1111   22.1941 C   0  0  0  0  0  0  0  0  0  0  0  0
  -26.7949  -20.5531   19.4827 C   0  0  0  0  0  0  0  0  0  0  0  0
  -21.5013  -25.4594   14.8025 C   0  0  0  0  0  0  0  0  0  0  0  0
  -31.6603  -23.3200   19.7349 C   0  0  0  0  0  0  0  0  0  0  0  0
  -20.6615  -26.7801   21.0943 C   0  0  0  0  0  0  0  0  0  0  0  0
  -20.0921  -25.4029   19.0825 C   0  0  0  0  0  0  0  0  0  0  0  0
  -20.1727  -27.8899   18.9071 C   0  0  0  0  0  0  0  0  0  0  0  0
  -25.0334  -24.3085   15.6246 C   0  0  0  0  0  0  0  0  0  0  0  0
  -29.7457  -22.1485   20.9620 C   0  0  0  0  0  0  0  0  0  0  0  0
  -22.3310  -26.5928   19.1337 C   0  0  1  0  0  0  0  0  0  0  0  0
  -22.8286  -25.4796   15.5444 C   0  0  2  0  0  0  0  0  0  0  0  0
  -30.2550  -23.4307   20.3117 C   0  0  2  0  0  0  0  0  0  1  0  0
  -20.8395  -26.6635   19.5673 C   0  0  0  0  0  0  0  0  0  0  0  0
  -26.3289  -13.5006   20.7587 N   0  0  0  0  0  0  0  0  0  0  0  0
  -26.2070  -12.5971   19.7713 N   0  0  0  0  0  0  0  0  0  0  0  0
  -24.4834  -27.5719   19.8631 N   0  0  0  0  0  0  0  0  0  0  0  0
  -29.3205  -13.7966   19.6372 N   0  0  0  0  0  0  0  0  0  0  0  0
  -24.6843  -11.0792   18.7773 N   0  0  0  0  0  0  0  0  0  0  0  0
  -22.2819  -12.9202   22.1292 N   0  0  0  0  0  0  0  0  0  0  0  0
  -28.9608  -16.1324   19.6000 N   0  0  0  0  0  0  0  0  0  0  0  0
  -25.2658  -29.4768   22.7768 N   0  0  0  0  0  0  0  0  0  0  0  0
  -22.5305  -26.5092   17.6909 N   0  0  0  0  0  0  0  0  0  0  0  0
  -28.3674  -22.3258   21.4831 N   0  3  0  0  0  0  0  0  0  0  0  0
  -23.6876  -24.3899   15.0007 N   0  3  0  0  0  0  0  0  0  0  0  0
  -22.2245  -11.3969   20.4161 O   0  0  0  0  0  0  0  0  0  0  0  0
  -25.2421  -27.1841   22.3703 O   0  0  0  0  0  0  0  0  0  0  0  0
  -22.5582  -28.8795   19.7219 O   0  0  0  0  0  0  0  0  0  0  0  0
  -22.5636  -24.1936   17.5726 O   0  0  0  0  0  0  0  0  0  0  0  0
  -30.6527  -15.2165   20.8957 O   0  0  0  0  0  0  0  0  0  0  0  0
  -24.0654  -16.7897   25.7190 O   0  0  0  0  0  0  0  0  0  0  0  0
  -29.3458  -23.8203   19.2831 O   0  0  0  0  0  0  0  0  0  1  0  0
  -20.9258  -21.2398   24.8570 F   0  0  0  0  0  0  0  0  0  0  0  0
  -25.0375  -19.3294   26.2168 F   0  0  0  0  0  0  0  0  0  0  0  0
  1  2  1  0  0  0  0
  1  5  2  0  0  0  0
  2  6  2  0  0  0  0
  3 10  2  0  0  0  0
  3 18  1  0  0  0  0
  4 11  1  0  0  0  0
  4 18  2  0  0  0  0
  5 20  1  0  0  0  0
  6 22  1  0  0  0  0
  7  9  2  0  0  0  0
  7 23  1  0  0  0  0
  8 12  2  0  0  0  0
  8 21  1  0  0  0  0
  9 26  1  0  0  0  0
 10 27  1  0  0  0  0
 11 27  2  0  0  0  0
 12 28  1  0  0  0  0
 13 14  2  0  0  0  0
 13 29  1  0  0  0  0
 14 30  1  0  0  0  0
 15 24  1  0  0  0  0
 15 28  2  0  0  0  0
 16 25  1  0  0  0  0
 16 26  2  0  0  0  0
 17 30  2  0  0  0  0
 17 31  1  0  0  0  0
 18 32  1  0  0  0  0
 19 32  1  0  0  0  0
 19 33  2  0  0  0  0
 19 34  1  0  0  0  0
 20 22  2  0  0  0  0
 20 39  1  0  0  0  0
 21 24  2  0  0  0  0
 21 40  1  0  0  0  0
 22 52  1  0  0  0  0
 23 25  2  0  0  0  0
 23 55  1  0  0  0  0
 24 41  1  0  0  0  0
 25 56  1  0  0  0  0
 26 74  1  0  0  0  0
 27 84  1  0  0  0  0
 28 85  1  0  0  0  0
 29 31  2  0  0  0  0
 29 84  1  0  0  0  0
 30 86  1  0  0  0  0
 31 87  1  0  0  0  0
 32 68  2  0  0  0  0
 33 69  1  0  0  0  0
 33 72  1  0  0  0  0
 34 73  1  0  0  0  0
 34 79  2  0  0  0  0
 35 53  1  0  0  0  0
 35 75  1  0  0  0  0
 35 80  2  0  0  0  0
 36 64  1  0  0  0  0
 36 70  1  0  0  0  0
 36 81  2  0  0  0  0
 37 65  1  0  0  0  0
 37 76  1  0  0  0  0
 37 82  2  0  0  0  0
 38 71  1  0  0  0  0
 38 74  1  0  0  0  0
 38 83  2  0  0  0  0
 39 42  1  0  0  0  0
 40 53  1  0  0  0  0
 41 70  1  0  0  0  0
 42 46  1  0  0  0  0
 43 44  1  0  0  0  0
 43 48  1  0  0  0  0
 44 49  1  0  0  0  0
 45 47  1  0  0  0  0
 45 50  1  0  0  0  0
 46 52  1  0  0  0  0
 47 54  1  0  0  0  0
 48 55  1  0  0  0  0
 49 55  1  0  0  0  0
 50 71  1  0  0  0  0
 51 54  1  0  0  0  0
 51 71  1  0  0  0  0
 52 75  1  0  0  0  0
 53 70  1  0  0  0  0
 54 69  1  0  0  0  0
 55 77  1  0  0  0  0
 57 65  1  0  0  0  0
 58 66  1  0  0  0  0
 59 67  1  0  0  0  0
 60 67  1  0  0  0  0
 61 67  1  0  0  0  0
 62 78  1  0  0  0  0
 63 66  1  0  0  0  0
 63 77  1  0  0  0  0
 64 67  1  0  0  0  0
 64 76  1  0  0  0  0
 65 78  1  0  0  0  0
 66 85  1  0  0  0  0
 68 69  1  0  0  0  0
M  CHG  2  77   1  78   1
M  ISO  4  38 100  66 101  74 100  85 101
M  END
> <Batch ID>
0154

> <Smiles>
CNC(C)C(=O)NC(C(=O)N1Cc2cc([101O:1][101CH:1](C)CNC3(c4ccc([100NH:0][100C:0](=O)N5CCCC(n6nc(-c7ccc(Oc8ccc(F)cc8F)cc7)c(C(N)=O)c6N)C5)cc4C)CCCC3)ccc2CC1C(=O)NC1CCCc2ccccc21)C(C)(C)C

> <Shape>
0.264

> <Color>
0.070

> <Negative vol penalty>
0.000

$$$$

  -OEChem-04052303333D

 83 92  0     1  0  0  0  0  0999 V2000
  -29.6250  -36.4969   24.1642 C   0  0  0  0  0  0  0  0  0  0  0  0
  -29.8169  -35.6150   23.1055 C   0  0  0  0  0  0  0  0  0  0  0  0
  -24.7423   -8.6588   21.4345 C   0  0  0  0  0  0  0  0  0  0  0  0
  -23.1412  -10.4372   21.1012 C   0  0  0  0  0  0  0  0  0  0  0  0
  -28.9270  -36.0821   25.2976 C   0  0  0  0  0  0  0  0  0  0  0  0
  -29.3118  -34.3174   23.1800 C   0  0  0  0  0  0  0  0  0  0  0  0
  -26.5825  -29.1428   19.0460 C   0  0  0  0  0  0  0  0  0  0  0  0
  -23.9002   -8.0784   22.3829 C   0  0  0  0  0  0  0  0  0  0  0  0
  -22.2991   -9.8567   22.0496 C   0  0  0  0  0  0  0  0  0  0  0  0
  -26.7586  -27.7905   18.7560 C   0  0  0  0  0  0  0  0  0  0  0  0
  -21.1059   -6.1745   22.4000 C   0  0  0  0  0  0  0  0  0  0  0  0
  -20.9046   -4.7960   22.3309 C   0  0  0  0  0  0  0  0  0  0  0  0
  -25.5004  -27.2094   20.7304 C   0  0  0  0  0  0  0  0  0  0  0  0
  -27.8343  -18.9996   19.4333 C   0  0  0  0  0  0  0  0  0  0  0  0
  -21.8074   -4.5527   24.5587 C   0  0  0  0  0  0  0  0  0  0  0  0
  -24.3629   -9.8383   20.7936 C   0  0  0  0  0  0  0  0  0  0  0  0
  -25.2490  -10.1939   18.4281 C   0  0  0  0  0  0  0  0  0  0  0  0
  -28.4048  -34.7818   25.3821 C   0  0  0  0  0  0  0  0  0  0  0  0
  -25.8720  -29.5391   20.1882 C   0  0  0  0  0  0  0  0  0  0  0  0
  -28.6073  -33.8845   24.3163 C   0  0  0  0  0  0  0  0  0  0  0  0
  -25.3144  -28.5673   21.0313 C   0  0  0  0  0  0  0  0  0  0  0  0
  -26.9547  -17.8794   19.4748 C   0  0  0  0  0  0  0  0  0  0  0  0
  -22.6786   -8.6772   22.6904 C   0  0  0  0  0  0  0  0  0  0  0  0
  -26.2200  -26.8236   19.5998 C   0  0  0  0  0  0  0  0  0  0  0  0
  -21.6580   -6.7421   23.5483 C   0  0  0  0  0  0  0  0  0  0  0  0
  -21.2554   -3.9851   23.4103 C   0  0  0  0  0  0  0  0  0  0  0  0
  -22.0087   -5.9312   24.6277 C   0  0  0  0  0  0  0  0  0  0  0  0
  -25.2326  -10.4387   19.8143 C   0  0  0  0  0  0  0  0  0  0  0  0
  -26.2482  -11.0047   17.9480 C   0  0  0  0  0  0  0  0  0  0  0  0
  -27.1611  -20.1775   19.1949 C   0  0  0  0  0  0  0  0  0  0  0  0
  -25.6425  -18.2440   19.2668 C   0  0  0  0  0  0  0  0  0  0  0  0
  -27.9531  -23.7411   18.9831 C   0  0  0  0  0  0  0  0  0  0  0  0
  -27.6676  -25.0198   19.2511 C   0  0  0  0  0  0  0  0  0  1  0  0
  -24.4337   -9.3124   17.6444 C   0  0  0  0  0  0  0  0  0  0  0  0
  -26.5836  -31.1821   22.8146 C   0  0  0  0  0  0  0  0  0  0  0  0
  -23.4025  -30.9003   23.3829 C   0  0  0  0  0  0  0  0  0  0  0  0
  -20.5032  -29.1839   22.8396 C   0  0  0  0  0  0  0  0  0  0  0  0
  -28.6765  -16.0954   19.9211 C   0  0  0  0  0  0  0  0  0  0  0  0
  -27.6981  -34.3642   26.6474 C   0  0  0  0  0  0  0  0  0  0  0  0
  -25.6680  -31.0020   20.4726 C   0  0  0  0  0  0  0  0  0  0  0  0
  -24.5260  -28.9407   22.2591 C   0  0  0  0  0  0  0  0  0  0  0  0
  -29.3319  -23.1670   18.8980 C   0  0  0  0  0  0  0  0  0  0  0  0
  -26.9399  -22.6455   18.8403 C   0  0  0  0  0  0  0  0  0  0  0  0
  -26.8710  -33.0907   26.4911 C   0  0  0  0  0  0  0  0  0  0  0  0
  -30.3790  -13.0377   19.2663 C   0  0  0  0  0  0  0  0  0  0  0  0
  -27.6748  -32.0181   25.7629 C   0  0  0  0  0  0  0  0  0  0  0  0
  -29.2534  -12.0029   19.2003 C   0  0  0  0  0  0  0  0  0  0  0  0
  -29.1281  -21.7252   19.3547 C   0  0  0  0  0  0  0  0  0  0  0  0
  -30.1074  -14.1044   20.3256 C   0  0  0  0  0  0  0  0  0  0  0  0
  -27.6779  -13.7361   20.1494 C   0  0  0  0  0  0  0  0  0  0  0  0
  -28.0531  -32.4767   24.3494 C   0  0  1  0  0  0  0  0  0  0  0  0
  -25.3664  -31.2890   21.9402 C   0  0  1  0  0  0  0  0  0  0  0  0
  -27.8756  -12.6777   19.0520 C   0  0  2  0  0  0  0  0  0  0  0  0
  -18.0742  -29.1706   23.4698 C   0  0  0  0  0  0  0  0  0  0  0  0
  -24.1199  -29.7441   26.1140 C   0  0  0  0  0  0  0  0  0  0  0  0
  -21.7731  -28.8901   26.2914 C   0  0  0  0  0  0  0  0  0  0  0  0
  -22.1970  -31.3431   26.1305 C   0  0  0  0  0  0  0  0  0  0  0  0
  -19.6527  -29.5595   20.0299 C   0  0  0  0  0  0  0  0  0  0  0  0
  -22.5275  -29.8915   24.0870 C   0  0  1  0  0  0  0  0  0  0  0  0
  -19.1091  -29.6543   22.4659 C   0  0  2  0  0  0  0  0  0  0  0  0
  -22.6708  -29.9598   25.6337 C   0  0  0  0  0  0  0  0  0  0  0  0
  -26.1488  -11.3348   20.1905 N   0  0  0  0  0  0  0  0  0  0  0  0
  -26.7504  -11.6601   19.0336 N   0  0  0  0  0  0  0  0  0  0  0  0
  -27.7195  -21.4368   19.0957 N   0  0  3  0  0  0  0  0  0  0  0  0
  -24.3594  -30.3839   22.4978 N   0  0  0  0  0  0  0  0  0  0  0  0
  -28.7867  -14.7028   20.1193 N   0  0  0  0  0  0  0  0  0  0  0  0
  -26.7377  -11.2138   16.7074 N   0  0  0  0  0  0  0  0  0  0  0  0
  -24.5583  -17.4264   19.2435 N   0  0  0  0  0  0  0  0  0  0  0  0
  -23.4540   -8.5517   18.2969 N   0  0  0  0  0  0  0  0  0  0  0  0
  -27.3748  -16.5455   19.7029 N   0  0  0  0  0  0  0  0  0  0  0  0
  -26.9185  -32.3578   23.4589 N   0  0  0  0  0  0  0  0  0  0  0  0
  -21.1705  -30.1191   23.6021 N   0  0  0  0  0  0  0  0  0  0  0  0
  -18.7328  -29.1404   21.1186 N   0  3  0  0  0  0  0  0  0  0  0  0
  -24.5810   -9.1905   16.4047 O   0  0  0  0  0  0  0  0  0  0  0  0
  -27.1744  -30.1118   22.8997 O   0  0  0  0  0  0  0  0  0  0  0  0
  -23.2380  -32.1026   23.6046 O   0  0  0  0  0  0  0  0  0  0  0  0
  -20.9537  -28.0942   22.4932 O   0  0  0  0  0  0  0  0  0  0  0  0
  -29.6671  -16.8306   19.9162 O   0  0  0  0  0  0  0  0  0  0  0  0
  -21.8564   -8.1110   23.6156 O   0  0  0  0  0  0  0  0  0  0  0  0
  -26.3910  -25.5029   19.3194 O   0  0  0  0  0  0  0  0  0  1  0  0
  -21.0606   -2.6615   23.3444 F   0  0  0  0  0  0  0  0  0  0  0  0
  -22.5384   -6.4709   25.7340 F   0  0  0  0  0  0  0  0  0  0  0  0
  -25.4754  -19.9306   19.0225 S   0  0  0  0  0  0  0  0  0  0  0  0
  1  2  1  0  0  0  0
  1  5  2  0  0  0  0
  2  6  2  0  0  0  0
  3  8  2  0  0  0  0
  3 16  1  0  0  0  0
  4  9  1  0  0  0  0
  4 16  2  0  0  0  0
  5 18  1  0  0  0  0
  6 20  1  0  0  0  0
  7 10  2  0  0  0  0
  7 19  1  0  0  0  0
  8 23  1  0  0  0  0
  9 23  2  0  0  0  0
 10 24  1  0  0  0  0
 11 12  2  0  0  0  0
 11 25  1  0  0  0  0
 12 26  1  0  0  0  0
 13 21  1  0  0  0  0
 13 24  2  0  0  0  0
 14 22  1  0  0  0  0
 14 30  2  0  0  0  0
 15 26  2  0  0  0  0
 15 27  1  0  0  0  0
 16 28  1  0  0  0  0
 17 28  1  0  0  0  0
 17 29  2  0  0  0  0
 17 34  1  0  0  0  0
 18 20  2  0  0  0  0
 18 39  1  0  0  0  0
 19 21  2  0  0  0  0
 19 40  1  0  0  0  0
 20 51  1  0  0  0  0
 21 41  1  0  0  0  0
 22 31  2  0  0  0  0
 22 70  1  0  0  0  0
 23 79  1  0  0  0  0
 24 80  1  0  0  0  0
 25 27  2  0  0  0  0
 25 79  1  0  0  0  0
 26 81  1  0  0  0  0
 27 82  1  0  0  0  0
 28 62  2  0  0  0  0
 29 63  1  0  0  0  0
 29 67  1  0  0  0  0
 30 64  1  0  0  0  0
 30 83  1  0  0  0  0
 31 68  1  0  0  0  0
 31 83  1  0  0  0  0
 32 33  2  0  0  0  0
 32 42  1  0  0  0  0
 32 43  1  0  0  0  0
 33 80  1  0  0  0  0
 34 69  1  0  0  0  0
 34 74  2  0  0  0  0
 35 52  1  0  0  0  0
 35 71  1  0  0  0  0
 35 75  2  0  0  0  0
 36 59  1  0  0  0  0
 36 65  1  0  0  0  0
 36 76  2  0  0  0  0
 37 60  1  0  0  0  0
 37 72  1  0  0  0  0
 37 77  2  0  0  0  0
 38 66  1  0  0  0  0
 38 70  1  0  0  0  0
 38 78  2  0  0  0  0
 39 44  1  0  0  0  0
 40 52  1  0  0  0  0
 41 65  1  0  0  0  0
 42 48  1  0  0  0  0
 43 64  1  0  0  0  0
 44 46  1  0  0  0  0
 45 47  1  0  0  0  0
 45 49  1  0  0  0  0
 46 51  1  0  0  0  0
 47 53  1  0  0  0  0
 48 64  1  0  0  0  0
 49 66  1  0  0  0  0
 50 53  1  0  0  0  0
 50 66  1  0  0  0  0
 51 71  1  0  0  0  0
 52 65  1  0  0  0  0
 53 63  1  0  0  0  0
 54 60  1  0  0  0  0
 55 61  1  0  0  0  0
 56 61  1  0  0  0  0
 57 61  1  0  0  0  0
 58 73  1  0  0  0  0
 59 61  1  0  0  0  0
 59 72  1  0  0  0  0
 60 73  1  0  0  0  0
 62 63  1  0  0  0  0
M  CHG  1  73   1
M  ISO  4  33 101  38 100  70 100  80 101
M  END
> <Batch ID>
0154

> <Smiles>
CNC(C)C(=O)NC(C(=O)N1Cc2cc([101O:1][101CH:1]=C3CCN(c4cc([100NH:0][100C:0](=O)N5CCCC(n6nc(-c7ccc(Oc8ccc(F)cc8F)cc7)c(C(N)=O)c6N)C5)c(N)s4)C3)ccc2CC1C(=O)NC1CCCc2ccccc21)C(C)(C)C

> <Shape>
0.305

> <Color>
0.116

> <Negative vol penalty>
0.000

$$$$

  -OEChem-04052303333D

 85 94  0     1  0  0  0  0  0999 V2000
  -17.6263  -27.9395   23.5426 C   0  0  0  0  0  0  0  0  0  0  0  0
  -18.2863  -26.7351   23.7641 C   0  0  0  0  0  0  0  0  0  0  0  0
  -23.1091   -9.8583   21.3191 C   0  0  0  0  0  0  0  0  0  0  0  0
  -23.7741  -10.7177   23.4769 C   0  0  0  0  0  0  0  0  0  0  0  0
  -18.3499  -29.0712   23.1689 C   0  0  0  0  0  0  0  0  0  0  0  0
  -19.6704  -26.6614   23.6110 C   0  0  0  0  0  0  0  0  0  0  0  0
  -25.4119  -23.3109   26.2805 C   0  0  0  0  0  0  0  0  0  0  0  0
  -22.3680   -8.8569   21.9462 C   0  0  0  0  0  0  0  0  0  0  0  0
  -23.0329   -9.7162   24.1041 C   0  0  0  0  0  0  0  0  0  0  0  0
  -26.5140  -22.5653   25.8644 C   0  0  0  0  0  0  0  0  0  0  0  0
  -22.9634   -5.8867   23.4456 C   0  0  0  0  0  0  0  0  0  0  0  0
  -23.0798   -4.5883   22.9495 C   0  0  0  0  0  0  0  0  0  0  0  0
  -31.9251  -18.8622   22.2457 C   0  0  0  0  0  0  0  0  0  0  0  0
  -27.6698  -24.6041   25.2928 C   0  0  0  0  0  0  0  0  0  0  0  0
  -20.7101   -4.5553   22.4799 C   0  0  0  0  0  0  0  0  0  0  0  0
  -23.8122  -10.7887   22.0844 C   0  0  0  0  0  0  0  0  0  0  0  0
  -31.8328  -17.5523   21.6928 C   0  0  0  0  0  0  0  0  0  0  0  0
  -24.1316  -13.1051   21.0645 C   0  0  0  0  0  0  0  0  0  0  0  0
  -19.7447  -29.0137   23.0206 C   0  0  0  0  0  0  0  0  0  0  0  0
  -25.4262  -24.7105   26.1955 C   0  0  0  0  0  0  0  0  0  0  0  0
  -20.4132  -27.7931   23.2338 C   0  0  0  0  0  0  0  0  0  0  0  0
  -26.5675  -25.3652   25.7108 C   0  0  0  0  0  0  0  0  0  0  0  0
  -22.3299   -8.7858   23.3388 C   0  0  0  0  0  0  0  0  0  0  0  0
  -27.6421  -23.2117   25.3678 C   0  0  0  0  0  0  0  0  0  0  0  0
  -21.7204   -6.5194   23.4590 C   0  0  0  0  0  0  0  0  0  0  0  0
  -21.9532   -3.9226   22.4666 C   0  0  0  0  0  0  0  0  0  0  0  0
  -20.5937   -5.8538   22.9761 C   0  0  0  0  0  0  0  0  0  0  0  0
  -24.5784  -11.8232   21.4371 C   0  0  0  0  0  0  0  0  0  0  0  0
  -25.2296  -13.6982   20.4909 C   0  0  0  0  0  0  0  0  0  0  0  0
  -30.6905  -19.4614   22.3658 C   0  0  0  0  0  0  0  0  0  0  0  0
  -30.5310  -17.2000   21.4116 C   0  0  0  0  0  0  0  0  0  0  0  0
  -29.0162  -21.2707   22.9419 C   0  0  0  0  0  0  0  0  0  0  0  0
  -32.9713  -16.7070   21.4605 C   0  0  0  0  0  0  0  0  0  0  0  0
  -22.8395  -13.7061   21.2228 C   0  0  0  0  0  0  0  0  0  0  0  0
  -23.7102  -26.8805   24.6302 C   0  0  0  0  0  0  0  0  0  0  0  0
  -25.4708  -28.9674   26.3814 C   0  0  0  0  0  0  0  0  0  0  0  0
  -28.3352  -29.5864   28.1305 C   0  0  0  0  0  0  0  0  0  0  0  0
  -30.6726  -14.8716   20.4604 C   0  0  0  0  0  0  0  0  0  0  0  0
  -20.4783  -30.2517   22.5692 C   0  0  0  0  0  0  0  0  0  0  0  0
  -24.2395  -25.5016   26.6733 C   0  0  0  0  0  0  0  0  0  0  0  0
  -26.6411  -26.8667   25.6180 C   0  0  0  0  0  0  0  0  0  0  0  0
  -21.9867  -30.1815   22.7931 C   0  0  0  0  0  0  0  0  0  0  0  0
  -29.6822  -11.7350   19.0973 C   0  0  0  0  0  0  0  0  0  0  0  0
  -22.5355  -28.8409   22.3152 C   0  0  0  0  0  0  0  0  0  0  0  0
  -28.2293  -11.5837   19.5538 C   0  0  0  0  0  0  0  0  0  0  0  0
  -30.5809  -22.9989   23.4850 C   0  0  0  0  0  0  0  0  0  0  0  0
  -30.5447  -12.4077   20.1637 C   0  0  0  0  0  0  0  0  0  0  0  0
  -31.2924  -21.6595   23.4349 C   0  0  0  0  0  0  0  0  0  0  0  0
  -28.5750  -13.5370   21.1198 C   0  0  0  0  0  0  0  0  0  0  0  0
  -21.9165  -27.6793   23.1020 C   0  0  1  0  0  0  0  0  0  0  0  0
  -29.1147  -22.6250   23.6107 C   0  0  2  0  0  0  0  0  0  1  0  0
  -24.1663  -26.8973   26.0617 C   0  0  1  0  0  0  0  0  0  0  0  0
  -27.6533  -12.9232   20.0534 C   0  0  2  0  0  0  0  0  0  0  0  0
  -29.5066  -31.3959   29.4154 C   0  0  0  0  0  0  0  0  0  0  0  0
  -26.2233  -30.3377   23.7611 C   0  0  0  0  0  0  0  0  0  0  0  0
  -28.0857  -31.4866   24.9776 C   0  0  0  0  0  0  0  0  0  0  0  0
  -25.7188  -31.8998   25.6479 C   0  0  0  0  0  0  0  0  0  0  0  0
  -28.3317  -27.9827   30.6178 C   0  0  0  0  0  0  0  0  0  0  0  0
  -26.7905  -29.6754   26.1913 C   0  0  1  0  0  0  0  0  0  0  0  0
  -28.5669  -30.2030   29.4982 C   0  0  2  0  0  0  0  0  0  0  0  0
  -26.7028  -30.8215   25.1443 C   0  0  0  0  0  0  0  0  0  0  0  0
  -25.8603  -11.6134   21.1262 N   0  0  0  0  0  0  0  0  0  0  0  0
  -26.2284  -12.7714   20.5521 N   0  0  0  0  0  0  0  0  0  0  0  0
  -30.3208  -20.7480   22.8607 N   0  0  0  0  0  0  0  0  0  0  0  0
  -25.4530  -27.5957   26.0917 N   0  0  0  0  0  0  0  0  0  0  0  0
  -29.9392  -13.6727   20.5856 N   0  0  0  0  0  0  0  0  0  0  0  0
  -25.4286  -14.9167   19.9451 N   0  0  0  0  0  0  0  0  0  0  0  0
  -33.6288  -16.7426   20.2839 N   0  0  0  0  0  0  0  0  0  0  0  0
  -21.8244  -12.9568   21.8332 N   0  0  0  0  0  0  0  0  0  0  0  0
  -29.9823  -16.0144   20.8629 N   0  0  0  0  0  0  0  0  0  0  0  0
  -22.5323  -27.5677   24.4069 N   0  0  0  0  0  0  0  0  0  0  0  0
  -27.2160  -30.1090   27.5176 N   0  0  0  0  0  0  0  0  0  0  0  0
  -33.4088  -15.8607   22.4146 N   0  3  0  0  0  0  0  0  0  0  0  0
  -29.1624  -29.1991   30.4248 N   0  3  0  0  0  0  0  0  0  0  0  0
  -27.9470  -20.7707   22.6228 O   0  0  0  0  0  0  0  0  0  0  0  0
  -22.5879  -14.8670   20.8197 O   0  0  0  0  0  0  0  0  0  0  0  0
  -24.3782  -26.2891   23.7901 O   0  0  0  0  0  0  0  0  0  0  0  0
  -24.4937  -29.6064   26.7795 O   0  0  0  0  0  0  0  0  0  0  0  0
  -29.0752  -28.7298   27.6519 O   0  0  0  0  0  0  0  0  0  0  0  0
  -31.8180  -14.8868   20.0025 O   0  0  0  0  0  0  0  0  0  0  0  0
  -21.6066   -7.8088   23.9511 O   0  0  0  0  0  0  0  0  0  0  0  0
  -28.7190  -22.4863   24.9604 O   0  0  0  0  0  0  0  0  0  1  0  0
  -22.0653   -2.6763   21.9888 F   0  0  0  0  0  0  0  0  0  0  0  0
  -19.3971   -6.4569   22.9852 F   0  0  0  0  0  0  0  0  0  0  0  0
  -29.4271  -18.4459   21.8134 S   0  0  0  0  0  0  0  0  0  0  0  0
  1  2  1  0  0  0  0
  1  5  2  0  0  0  0
  2  6  2  0  0  0  0
  3  8  2  0  0  0  0
  3 16  1  0  0  0  0
  4  9  1  0  0  0  0
  4 16  2  0  0  0  0
  5 19  1  0  0  0  0
  6 21  1  0  0  0  0
  7 10  2  0  0  0  0
  7 20  1  0  0  0  0
  8 23  1  0  0  0  0
  9 23  2  0  0  0  0
 10 24  1  0  0  0  0
 11 12  2  0  0  0  0
 11 25  1  0  0  0  0
 12 26  1  0  0  0  0
 13 17  1  0  0  0  0
 13 30  2  0  0  0  0
 14 22  1  0  0  0  0
 14 24  2  0  0  0  0
 15 26  2  0  0  0  0
 15 27  1  0  0  0  0
 16 28  1  0  0  0  0
 17 31  2  0  0  0  0
 17 33  1  0  0  0  0
 18 28  1  0  0  0  0
 18 29  2  0  0  0  0
 18 34  1  0  0  0  0
 19 21  2  0  0  0  0
 19 39  1  0  0  0  0
 20 22  2  0  0  0  0
 20 40  1  0  0  0  0
 21 50  1  0  0  0  0
 22 41  1  0  0  0  0
 23 81  1  0  0  0  0
 24 82  1  0  0  0  0
 25 27  2  0  0  0  0
 25 81  1  0  0  0  0
 26 83  1  0  0  0  0
 27 84  1  0  0  0  0
 28 62  2  0  0  0  0
 29 63  1  0  0  0  0
 29 67  1  0  0  0  0
 30 64  1  0  0  0  0
 30 85  1  0  0  0  0
 31 70  1  0  0  0  0
 31 85  1  0  0  0  0
 32 51  1  0  0  0  0
 32 64  1  0  0  0  0
 32 75  2  0  0  0  0
 33 68  1  0  0  0  0
 33 73  2  0  0  0  0
 34 69  1  0  0  0  0
 34 76  2  0  0  0  0
 35 52  1  0  0  0  0
 35 71  1  0  0  0  0
 35 77  2  0  0  0  0
 36 59  1  0  0  0  0
 36 65  1  0  0  0  0
 36 78  2  0  0  0  0
 37 60  1  0  0  0  0
 37 72  1  0  0  0  0
 37 79  2  0  0  0  0
 38 66  1  0  0  0  0
 38 70  1  0  0  0  0
 38 80  2  0  0  0  0
 39 42  1  0  0  0  0
 40 52  1  0  0  0  0
 41 65  1  0  0  0  0
 42 44  1  0  0  0  0
 43 45  1  0  0  0  0
 43 47  1  0  0  0  0
 44 50  1  0  0  0  0
 45 53  1  0  0  0  0
 46 48  1  0  0  0  0
 46 51  1  0  0  0  0
 47 66  1  0  0  0  0
 48 64  1  0  0  0  0
 49 53  1  0  0  0  0
 49 66  1  0  0  0  0
 50 71  1  0  0  0  0
 51 82  1  0  0  0  0
 52 65  1  0  0  0  0
 53 63  1  0  0  0  0
 54 60  1  0  0  0  0
 55 61  1  0  0  0  0
 56 61  1  0  0  0  0
 57 61  1  0  0  0  0
 58 74  1  0  0  0  0
 59 61  1  0  0  0  0
 59 72  1  0  0  0  0
 60 74  1  0  0  0  0
 62 63  1  0  0  0  0
M  CHG  2  73   1  74   1
M  ISO  4  38 100  51 101  70 100  82 101
M  END
> <Batch ID>
0154

> <Smiles>
CNC(C)C(=O)NC(C(=O)N1Cc2cc([101O:1][101CH:1]3CCN(c4cc(C(=N)N)c([100NH:0][100C:0](=O)N5CCCC(n6nc(-c7ccc(Oc8ccc(F)cc8F)cc7)c(C(N)=O)c6N)C5)s4)C3=O)ccc2CC1C(=O)NC1CCCc2ccccc21)C(C)(C)C

> <Shape>
0.263

> <Color>
0.168

> <Negative vol penalty>
0.000

$$$$

  -OEChem-04052303333D

 86 95  0     1  0  0  0  0  0999 V2000
  -29.8930  -31.4547   25.7849 C   0  0  0  0  0  0  0  0  0  0  0  0
  -29.5242  -30.3853   24.9750 C   0  0  0  0  0  0  0  0  0  0  0  0
  -24.4687   -7.9825   20.0967 C   0  0  0  0  0  0  0  0  0  0  0  0
  -22.8199   -9.7293   19.8371 C   0  0  0  0  0  0  0  0  0  0  0  0
  -28.9143  -32.2037   26.4369 C   0  0  0  0  0  0  0  0  0  0  0  0
  -28.1766  -30.0637   24.8175 C   0  0  0  0  0  0  0  0  0  0  0  0
  -26.9527  -29.1316   19.9927 C   0  0  0  0  0  0  0  0  0  0  0  0
  -23.5097   -7.1663   20.6963 C   0  0  0  0  0  0  0  0  0  0  0  0
  -21.8608   -8.9130   20.4367 C   0  0  0  0  0  0  0  0  0  0  0  0
  -27.3031  -27.8848   19.4764 C   0  0  0  0  0  0  0  0  0  0  0  0
  -22.0481   -6.8549   23.7281 C   0  0  0  0  0  0  0  0  0  0  0  0
  -22.4156   -6.1661   24.8840 C   0  0  0  0  0  0  0  0  0  0  0  0
  -25.0411  -27.1168   19.8119 C   0  0  0  0  0  0  0  0  0  0  0  0
  -21.9533   -4.0673   23.7802 C   0  0  0  0  0  0  0  0  0  0  0  0
  -26.8192  -18.6855   21.0607 C   0  0  0  0  0  0  0  0  0  0  0  0
  -24.1239   -9.2640   19.6672 C   0  0  0  0  0  0  0  0  0  0  0  0
  -25.4209  -10.1938   17.6769 C   0  0  0  0  0  0  0  0  0  0  0  0
  -27.5535  -31.8971   26.2796 C   0  0  0  0  0  0  0  0  0  0  0  0
  -25.6443  -29.3773   20.4333 C   0  0  0  0  0  0  0  0  0  0  0  0
  -27.1789  -30.8085   25.4691 C   0  0  0  0  0  0  0  0  0  0  0  0
  -24.6760  -28.3683   20.3310 C   0  0  0  0  0  0  0  0  0  0  0  0
  -22.2057   -7.6315   20.8663 C   0  0  0  0  0  0  0  0  0  0  0  0
  -26.3480  -26.8763   19.3886 C   0  0  0  0  0  0  0  0  0  0  0  0
  -21.6332   -6.1499   22.5982 C   0  0  0  0  0  0  0  0  0  0  0  0
  -22.3682   -4.7723   24.9100 C   0  0  0  0  0  0  0  0  0  0  0  0
  -21.5858   -4.7561   22.6243 C   0  0  0  0  0  0  0  0  0  0  0  0
  -25.1143  -10.1079   19.0482 C   0  0  0  0  0  0  0  0  0  0  0  0
  -25.8891  -19.7465   20.8668 C   0  0  0  0  0  0  0  0  0  0  0  0
  -26.4230  -11.1305   17.6072 C   0  0  0  0  0  0  0  0  0  0  0  0
  -26.2394  -17.4809   20.7268 C   0  0  0  0  0  0  0  0  0  0  0  0
  -24.8508   -9.4898   16.5656 C   0  0  0  0  0  0  0  0  0  0  0  0
  -24.3229  -30.1439   23.2208 C   0  0  0  0  0  0  0  0  0  0  0  0
  -21.6308  -30.4048   21.4301 C   0  0  0  0  0  0  0  0  0  0  0  0
  -19.9331  -29.5192   18.6051 C   0  0  0  0  0  0  0  0  0  0  0  0
  -27.9847  -15.7068   21.1177 C   0  0  0  0  0  0  0  0  0  0  0  0
  -26.5343  -32.7061   27.0421 C   0  0  0  0  0  0  0  0  0  0  0  0
  -25.2757  -30.7359   20.9630 C   0  0  0  0  0  0  0  0  0  0  0  0
  -23.2525  -28.5877   20.7715 C   0  0  0  0  0  0  0  0  0  0  0  0
  -25.1085  -32.5330   26.5249 C   0  0  0  0  0  0  0  0  0  0  0  0
  -30.0325  -12.9512   20.1743 C   0  0  0  0  0  0  0  0  0  0  0  0
  -24.7952  -31.0560   26.3074 C   0  0  0  0  0  0  0  0  0  0  0  0
  -29.0322  -11.9195   19.6480 C   0  0  0  0  0  0  0  0  0  0  0  0
  -27.1077  -23.0392   18.2057 C   0  0  0  0  0  0  0  0  0  0  0  0
  -29.4713  -13.7307   21.3622 C   0  0  0  0  0  0  0  0  0  0  0  0
  -27.1623  -13.3241   20.6059 C   0  0  0  0  0  0  0  0  0  0  0  0
  -26.9515  -21.6306   18.7602 C   0  0  0  0  0  0  0  0  0  0  0  0
  -27.5952  -23.2043   20.5268 C   0  0  0  0  0  0  0  0  0  0  0  0
  -25.7260  -30.4440   25.2535 C   0  0  1  0  0  0  0  0  0  0  0  0
  -24.0412  -30.7132   21.8591 C   0  0  1  0  0  0  0  0  0  0  0  0
  -27.6580  -12.5588   19.3680 C   0  0  2  0  0  0  0  0  0  0  0  0
  -28.0645  -23.7206   19.1762 C   0  0  2  0  0  0  0  0  0  0  0  0
  -26.5812  -21.4727   22.5797 C   0  0  0  0  0  0  0  0  0  0  0  0
  -17.7389  -29.8617   17.4366 C   0  0  0  0  0  0  0  0  0  0  0  0
  -20.2891  -28.4941   23.3945 C   0  0  0  0  0  0  0  0  0  0  0  0
  -18.4807  -28.1336   21.7010 C   0  0  0  0  0  0  0  0  0  0  0  0
  -18.8570  -30.4069   22.6566 C   0  0  0  0  0  0  0  0  0  0  0  0
  -21.2458  -30.7379   16.2491 C   0  0  0  0  0  0  0  0  0  0  0  0
  -30.3240  -23.8778   19.8028 C   0  0  0  0  0  0  0  0  0  0  0  0
  -28.0359  -25.2306   19.0741 C   0  0  0  0  0  0  0  0  0  1  0  0
  -26.1772  -21.2062   21.1319 C   0  0  1  0  0  0  0  0  0  0  0  0
  -20.5288  -29.4612   21.0126 C   0  0  1  0  0  0  0  0  0  0  0  0
  -19.1722  -30.3477   17.5858 C   0  0  2  0  0  0  0  0  0  0  0  0
  -19.5661  -29.1189   22.1846 C   0  0  0  0  0  0  0  0  0  0  0  0
  -25.8613  -10.9248   19.7957 N   0  0  0  0  0  0  0  0  0  0  0  0
  -24.6787  -19.4214   20.4190 N   0  0  0  0  0  0  0  0  0  0  0  0
  -26.6472  -11.5328   18.8909 N   0  0  0  0  0  0  0  0  0  0  0  0
  -22.9428  -29.9311   21.2882 N   0  0  0  0  0  0  0  0  0  0  0  0
  -28.1706  -14.3114   21.0221 N   0  0  0  0  0  0  0  0  0  0  0  0
  -27.1255  -11.6410   16.5735 N   0  0  0  0  0  0  0  0  0  0  0  0
  -23.8300   -8.5623   16.8147 N   0  0  0  0  0  0  0  0  0  0  0  0
  -26.7174  -16.1470   20.7374 N   0  0  0  0  0  0  0  0  0  0  0  0
  -25.3008  -30.8222   23.9229 N   0  0  0  0  0  0  0  0  0  0  0  0
  -19.8756  -30.0792   19.8638 N   0  0  0  0  0  0  0  0  0  0  0  0
  -27.2470  -21.7538   20.2428 N   0  3  1  0  0  0  0  0  0  0  0  0
  -19.8364  -30.2683   16.2540 N   0  3  0  0  0  0  0  0  0  0  0  0
  -25.2464   -9.6658   15.3883 O   0  0  0  0  0  0  0  0  0  0  0  0
  -23.6981  -29.1628   23.6065 O   0  0  0  0  0  0  0  0  0  0  0  0
  -21.3385  -31.5237   21.8593 O   0  0  0  0  0  0  0  0  0  0  0  0
  -20.5168  -28.4773   18.3146 O   0  0  0  0  0  0  0  0  0  0  0  0
  -28.8922  -16.4589   21.4821 O   0  0  0  0  0  0  0  0  0  0  0  0
  -21.2695   -6.8352   21.4511 O   0  0  0  0  0  0  0  0  0  0  0  0
  -26.6875  -25.6582   18.8856 O   0  0  0  0  0  0  0  0  0  1  0  0
  -29.3933  -23.2692   18.9210 O   0  0  0  0  0  0  0  0  0  0  0  0
  -22.7225   -4.1109   26.0196 F   0  0  0  0  0  0  0  0  0  0  0  0
  -21.1892   -4.0733   21.5416 F   0  0  0  0  0  0  0  0  0  0  0  0
  -24.6312  -17.7727   20.2147 S   0  0  0  0  0  0  0  0  0  0  0  0
  1  2  1  0  0  0  0
  1  5  2  0  0  0  0
  2  6  2  0  0  0  0
  3  8  2  0  0  0  0
  3 16  1  0  0  0  0
  4  9  1  0  0  0  0
  4 16  2  0  0  0  0
  5 18  1  0  0  0  0
  6 20  1  0  0  0  0
  7 10  2  0  0  0  0
  7 19  1  0  0  0  0
  8 22  1  0  0  0  0
  9 22  2  0  0  0  0
 10 23  1  0  0  0  0
 11 12  2  0  0  0  0
 11 24  1  0  0  0  0
 12 25  1  0  0  0  0
 13 21  1  0  0  0  0
 13 23  2  0  0  0  0
 14 25  2  0  0  0  0
 14 26  1  0  0  0  0
 15 28  1  0  0  0  0
 15 30  2  0  0  0  0
 16 27  1  0  0  0  0
 17 27  1  0  0  0  0
 17 29  2  0  0  0  0
 17 31  1  0  0  0  0
 18 20  2  0  0  0  0
 18 36  1  0  0  0  0
 19 21  2  0  0  0  0
 19 37  1  0  0  0  0
 20 48  1  0  0  0  0
 21 38  1  0  0  0  0
 22 81  1  0  0  0  0
 23 82  1  0  0  0  0
 24 26  2  0  0  0  0
 24 81  1  0  0  0  0
 25 84  1  0  0  0  0
 26 85  1  0  0  0  0
 27 64  2  0  0  0  0
 28 60  1  0  0  0  0
 28 65  2  0  0  0  0
 29 66  1  0  0  0  0
 29 69  1  0  0  0  0
 30 71  1  0  0  0  0
 30 86  1  0  0  0  0
 31 70  1  0  0  0  0
 31 76  2  0  0  0  0
 32 49  1  0  0  0  0
 32 72  1  0  0  0  0
 32 77  2  0  0  0  0
 33 61  1  0  0  0  0
 33 67  1  0  0  0  0
 33 78  2  0  0  0  0
 34 62  1  0  0  0  0
 34 73  1  0  0  0  0
 34 79  2  0  0  0  0
 35 68  1  0  0  0  0
 35 71  1  0  0  0  0
 35 80  2  0  0  0  0
 36 39  1  0  0  0  0
 37 49  1  0  0  0  0
 38 67  1  0  0  0  0
 39 41  1  0  0  0  0
 40 42  1  0  0  0  0
 40 44  1  0  0  0  0
 41 48  1  0  0  0  0
 42 50  1  0  0  0  0
 43 46  1  0  0  0  0
 43 51  1  0  0  0  0
 44 68  1  0  0  0  0
 45 50  1  0  0  0  0
 45 68  1  0  0  0  0
 46 74  1  0  0  0  0
 47 51  1  0  0  0  0
 47 74  1  0  0  0  0
 48 72  1  0  0  0  0
 49 67  1  0  0  0  0
 50 66  1  0  0  0  0
 51 59  1  0  0  0  0
 51 83  1  0  0  0  0
 52 60  1  0  0  0  0
 53 62  1  0  0  0  0
 54 63  1  0  0  0  0
 55 63  1  0  0  0  0
 56 63  1  0  0  0  0
 57 75  1  0  0  0  0
 58 83  1  0  0  0  0
 59 82  1  0  0  0  0
 60 74  1  0  0  0  0
 61 63  1  0  0  0  0
 61 73  1  0  0  0  0
 62 75  1  0  0  0  0
 64 66  1  0  0  0  0
 65 86  1  0  0  0  0
M  CHG  2  74   1  75   1
M  ISO  4  35 100  59 101  71 100  82 101
M  END
> <Batch ID>
0154

> <Smiles>
CNC(C)C(=O)NC(C(=O)N1Cc2cc([101O:1][101CH2:1]C3(OC)CCN(C(C)c4cc([100NH:0][100C:0](=O)N5CCCC(n6nc(-c7ccc(Oc8ccc(F)cc8F)cc7)c(C(N)=O)c6N)C5)sn4)C3)ccc2CC1C(=O)NC1CCCc2ccccc21)C(C)(C)C

> <Shape>
0.302

> <Color>
0.108

> <Negative vol penalty>
0.000

$$$$

  -OEChem-04052303333D

 90100  0     1  0  0  0  0  0999 V2000
  -20.6753  -32.6656   27.7372 C   0  0  0  0  0  0  0  0  0  0  0  0
  -21.2027  -31.3840   27.8591 C   0  0  0  0  0  0  0  0  0  0  0  0
  -23.5466   -9.6583   19.9469 C   0  0  0  0  0  0  0  0  0  0  0  0
  -24.0387   -9.9027   22.2996 C   0  0  0  0  0  0  0  0  0  0  0  0
  -20.5771  -33.2611   26.4803 C   0  0  0  0  0  0  0  0  0  0  0  0
  -21.6312  -30.6967   26.7240 C   0  0  0  0  0  0  0  0  0  0  0  0
  -26.3504  -26.8130   26.3345 C   0  0  0  0  0  0  0  0  0  0  0  0
  -22.9868   -8.4049   20.1942 C   0  0  0  0  0  0  0  0  0  0  0  0
  -23.4789   -8.6493   22.5469 C   0  0  0  0  0  0  0  0  0  0  0  0
  -26.4243  -25.4210   26.3613 C   0  0  0  0  0  0  0  0  0  0  0  0
  -20.3872   -7.3245   22.8735 C   0  0  0  0  0  0  0  0  0  0  0  0
  -19.5246   -7.2052   23.9631 C   0  0  0  0  0  0  0  0  0  0  0  0
  -26.4272  -25.3808   23.9494 C   0  0  0  0  0  0  0  0  0  0  0  0
  -29.0322  -20.8843   21.6026 C   0  0  0  0  0  0  0  0  0  0  0  0
  -30.0516  -18.8073   20.9072 C   0  0  0  0  0  0  0  0  0  0  0  0
  -28.2279  -18.7868   22.4918 C   0  0  0  0  0  0  0  0  0  0  0  0
  -20.9892   -5.5516   24.9416 C   0  0  0  0  0  0  0  0  0  0  0  0
  -24.0726  -10.4072   20.9996 C   0  0  0  0  0  0  0  0  0  0  0  0
  -23.9911  -12.9451   20.7540 C   0  0  0  0  0  0  0  0  0  0  0  0
  -21.0135  -32.5845   25.3303 C   0  0  0  0  0  0  0  0  0  0  0  0
  -26.3032  -27.4999   25.1129 C   0  0  0  0  0  0  0  0  0  0  0  0
  -21.5375  -31.2832   25.4504 C   0  0  0  0  0  0  0  0  0  0  0  0
  -26.3553  -26.7816   23.9098 C   0  0  0  0  0  0  0  0  0  0  0  0
  -29.9799  -20.1989   20.8426 C   0  0  0  0  0  0  0  0  0  0  0  0
  -28.1562  -20.1783   22.4272 C   0  0  0  0  0  0  0  0  0  0  0  0
  -29.1756  -18.1013   21.7318 C   0  0  0  0  0  0  0  0  0  0  0  0
  -22.9530   -7.9004   21.4941 C   0  0  0  0  0  0  0  0  0  0  0  0
  -26.4598  -24.7045   25.1686 C   0  0  0  0  0  0  0  0  0  0  0  0
  -21.5508   -6.5573   22.8179 C   0  0  0  0  0  0  0  0  0  0  0  0
  -19.8256   -6.3188   24.9972 C   0  0  0  0  0  0  0  0  0  0  0  0
  -21.8518   -5.6708   23.8519 C   0  0  0  0  0  0  0  0  0  0  0  0
  -24.6515  -11.7019   20.7448 C   0  0  0  0  0  0  0  0  0  0  0  0
  -24.9730  -13.8576   20.4546 C   0  0  0  0  0  0  0  0  0  0  0  0
  -25.4626  -21.3178   24.6184 C   0  0  0  0  0  0  0  0  0  0  0  0
  -30.2062  -22.7632   18.3511 C   0  0  0  0  0  0  0  0  0  0  0  0
  -22.6133  -13.2480   21.0102 C   0  0  0  0  0  0  0  0  0  0  0  0
  -24.1983  -29.4141   23.6956 C   0  0  0  0  0  0  0  0  0  0  0  0
  -26.5633  -29.7446   21.5002 C   0  0  0  0  0  0  0  0  0  0  0  0
  -29.3659  -28.4517   20.0439 C   0  0  0  0  0  0  0  0  0  0  0  0
  -30.1294  -15.8548   21.1075 C   0  0  0  0  0  0  0  0  0  0  0  0
  -20.8436  -33.2505   23.9879 C   0  0  0  0  0  0  0  0  0  0  0  0
  -26.2506  -29.0031   25.1010 C   0  0  0  0  0  0  0  0  0  0  0  0
  -26.3277  -27.4727   22.5718 C   0  0  0  0  0  0  0  0  0  0  0  0
  -26.2737  -20.1828   24.0607 C   0  0  0  0  0  0  0  0  0  0  0  0
  -29.5624  -22.7759   16.9845 C   0  0  0  0  0  0  0  0  0  0  0  0
  -21.6663  -32.6019   22.8776 C   0  0  0  0  0  0  0  0  0  0  0  0
  -28.8783  -21.4165   16.9050 C   0  0  0  0  0  0  0  0  0  0  0  0
  -29.7075  -13.1778   18.7981 C   0  0  0  0  0  0  0  0  0  0  0  0
  -21.5169  -31.0844   22.9195 C   0  0  0  0  0  0  0  0  0  0  0  0
  -28.3002  -12.6575   19.0995 C   0  0  0  0  0  0  0  0  0  0  0  0
  -29.7448  -20.5219   17.7686 C   0  0  0  0  0  0  0  0  0  0  0  0
  -30.4334  -13.6182   20.0682 C   0  0  0  0  0  0  0  0  0  0  0  0
  -26.9554  -22.2911   23.0375 C   0  0  0  0  0  0  0  0  0  0  0  0
  -28.2915  -14.0579   21.2032 C   0  0  0  0  0  0  0  0  0  0  0  0
  -22.0359  -30.5153   24.2454 C   0  0  1  0  0  0  0  0  0  0  0  0
  -25.9366  -22.6527   24.1160 C   0  0  2  0  0  0  0  0  0  1  0  0
  -25.6889  -29.5710   23.8012 C   0  0  1  0  0  0  0  0  0  0  0  0
  -27.4971  -13.6631   19.9475 C   0  0  2  0  0  0  0  0  0  0  0  0
  -31.0552  -28.9326   18.2517 C   0  0  0  0  0  0  0  0  0  0  0  0
  -24.5271  -28.9505   19.3712 C   0  0  0  0  0  0  0  0  0  0  0  0
  -26.4339  -28.5259   17.8053 C   0  0  0  0  0  0  0  0  0  0  0  0
  -26.0525  -30.8189   18.7104 C   0  0  0  0  0  0  0  0  0  0  0  0
  -31.5929  -28.4946   21.9927 C   0  0  0  0  0  0  0  0  0  0  0  0
  -30.9163  -20.9538   19.9610 C   0  0  0  0  0  0  0  0  0  0  0  0
  -26.9585  -29.0187   20.2369 C   0  0  1  0  0  0  0  0  0  0  0  0
  -30.7144  -29.0727   19.7271 C   0  0  2  0  0  0  0  0  0  0  0  0
  -25.9916  -29.3151   19.0560 C   0  0  0  0  0  0  0  0  0  0  0  0
  -25.9523  -11.8110   20.4618 N   0  0  0  0  0  0  0  0  0  0  0  0
  -26.1172  -13.1337   20.2904 N   0  0  0  0  0  0  0  0  0  0  0  0
  -27.2162  -20.8588   23.1811 N   0  0  3  0  0  0  0  0  0  0  0  0
  -30.2729  -21.4323   18.7568 N   0  0  0  0  0  0  0  0  0  0  0  0
  -26.2696  -28.9432   22.6126 N   0  0  0  0  0  0  0  0  0  0  0  0
  -29.6147  -14.5733   20.8180 N   0  0  0  0  0  0  0  0  0  0  0  0
  -24.9607  -15.2007   20.3185 N   0  0  0  0  0  0  0  0  0  0  0  0
  -21.7400  -12.1913   21.3019 N   0  0  0  0  0  0  0  0  0  0  0  0
  -29.2486  -16.6877   21.7967 N   0  0  0  0  0  0  0  0  0  0  0  0
  -23.4822  -30.4624   24.2412 N   0  0  0  0  0  0  0  0  0  0  0  0
  -28.3479  -29.3793   19.9765 N   0  0  0  0  0  0  0  0  0  0  0  0
  -31.7882  -28.4128   20.5223 N   0  3  0  0  0  0  0  0  0  0  0  0
  -24.5518  -21.1719   25.4239 O   0  0  0  0  0  0  0  0  0  0  0  0
  -30.6196  -23.7540   18.9346 O   0  0  0  0  0  0  0  0  0  0  0  0
  -22.1664  -14.4192   20.9653 O   0  0  0  0  0  0  0  0  0  0  0  0
  -23.7324  -28.4165   23.1575 O   0  0  0  0  0  0  0  0  0  0  0  0
  -26.5239  -30.9775   21.5021 O   0  0  0  0  0  0  0  0  0  0  0  0
  -29.2288  -27.2618   20.3197 O   0  0  0  0  0  0  0  0  0  0  0  0
  -31.2576  -16.1980   20.7452 O   0  0  0  0  0  0  0  0  0  0  0  0
  -22.4066   -6.6774   21.7358 O   0  0  0  0  0  0  0  0  0  0  0  0
  -26.5312  -23.3458   25.1920 O   0  0  0  0  0  0  0  0  0  1  0  0
  -18.9979   -6.2055   26.0442 F   0  0  0  0  0  0  0  0  0  0  0  0
  -22.9688   -4.9320   23.8047 F   0  0  0  0  0  0  0  0  0  0  0  0
  1  2  1  0  0  0  0
  1  5  2  0  0  0  0
  2  6  2  0  0  0  0
  3  8  2  0  0  0  0
  3 18  1  0  0  0  0
  4  9  1  0  0  0  0
  4 18  2  0  0  0  0
  5 20  1  0  0  0  0
  6 22  1  0  0  0  0
  7 10  2  0  0  0  0
  7 21  1  0  0  0  0
  8 27  1  0  0  0  0
  9 27  2  0  0  0  0
 10 28  1  0  0  0  0
 11 12  2  0  0  0  0
 11 29  1  0  0  0  0
 12 30  1  0  0  0  0
 13 23  1  0  0  0  0
 13 28  2  0  0  0  0
 14 24  2  0  0  0  0
 14 25  1  0  0  0  0
 15 24  1  0  0  0  0
 15 26  2  0  0  0  0
 16 25  2  0  0  0  0
 16 26  1  0  0  0  0
 17 30  2  0  0  0  0
 17 31  1  0  0  0  0
 18 32  1  0  0  0  0
 19 32  1  0  0  0  0
 19 33  2  0  0  0  0
 19 36  1  0  0  0  0
 20 22  2  0  0  0  0
 20 41  1  0  0  0  0
 21 23  2  0  0  0  0
 21 42  1  0  0  0  0
 22 55  1  0  0  0  0
 23 43  1  0  0  0  0
 24 64  1  0  0  0  0
 25 70  1  0  0  0  0
 26 76  1  0  0  0  0
 27 87  1  0  0  0  0
 28 88  1  0  0  0  0
 29 31  2  0  0  0  0
 29 87  1  0  0  0  0
 30 89  1  0  0  0  0
 31 90  1  0  0  0  0
 32 68  2  0  0  0  0
 33 69  1  0  0  0  0
 33 74  1  0  0  0  0
 34 44  1  0  0  0  0
 34 56  1  0  0  0  0
 34 80  2  0  0  0  0
 35 45  1  0  0  0  0
 35 71  1  0  0  0  0
 35 81  2  0  0  0  0
 36 75  1  0  0  0  0
 36 82  2  0  0  0  0
 37 57  1  0  0  0  0
 37 77  1  0  0  0  0
 37 83  2  0  0  0  0
 38 65  1  0  0  0  0
 38 72  1  0  0  0  0
 38 84  2  0  0  0  0
 39 66  1  0  0  0  0
 39 78  1  0  0  0  0
 39 85  2  0  0  0  0
 40 73  1  0  0  0  0
 40 76  1  0  0  0  0
 40 86  2  0  0  0  0
 41 46  1  0  0  0  0
 42 57  1  0  0  0  0
 43 72  1  0  0  0  0
 44 70  1  0  0  0  0
 45 47  1  0  0  0  0
 46 49  1  0  0  0  0
 47 51  1  0  0  0  0
 48 50  1  0  0  0  0
 48 52  1  0  0  0  0
 49 55  1  0  0  0  0
 50 58  1  0  0  0  0
 51 71  1  0  0  0  0
 52 73  1  0  0  0  0
 53 56  1  0  0  0  0
 53 70  1  0  0  0  0
 54 58  1  0  0  0  0
 54 73  1  0  0  0  0
 55 77  1  0  0  0  0
 56 88  1  0  0  0  0
 57 72  1  0  0  0  0
 58 69  1  0  0  0  0
 59 66  1  0  0  0  0
 60 67  1  0  0  0  0
 61 67  1  0  0  0  0
 62 67  1  0  0  0  0
 63 79  1  0  0  0  0
 64 71  1  0  0  0  0
 65 67  1  0  0  0  0
 65 78  1  0  0  0  0
 66 79  1  0  0  0  0
 68 69  1  0  0  0  0
M  CHG  1  79   1
M  ISO  4  40 100  56 101  76 100  88 101
M  END
> <Batch ID>
0154

> <Smiles>
CNC(C)C(=O)NC(C(=O)N1Cc2cc([101O:1][101CH:1]3CN(c4cc(CN5CCCC5=O)cc([100NH:0][100C:0](=O)N5CCCC(n6nc(-c7ccc(Oc8ccc(F)cc8F)cc7)c(C(N)=O)c6N)C5)c4)CC3=O)ccc2CC1C(=O)NC1CCCc2ccccc21)C(C)(C)C

> <Shape>
0.275

> <Color>
0.158

> <Negative vol penalty>
0.000

$$$$

  -OEChem-04052303333D

 87 97  0     1  0  0  0  0  0999 V2000
  -22.8343  -36.0050   23.3934 C   0  0  0  0  0  0  0  0  0  0  0  0
  -23.8895  -35.1812   23.0149 C   0  0  0  0  0  0  0  0  0  0  0  0
  -23.8938  -14.7388   19.3122 C   0  0  0  0  0  0  0  0  0  0  0  0
  -25.8368  -15.8076   20.2710 C   0  0  0  0  0  0  0  0  0  0  0  0
  -21.6887  -35.4511   23.9632 C   0  0  0  0  0  0  0  0  0  0  0  0
  -23.8001  -33.8029   23.2072 C   0  0  0  0  0  0  0  0  0  0  0  0
  -26.1223  -29.4256   19.6082 C   0  0  0  0  0  0  0  0  0  0  0  0
  -24.4621  -13.4883   19.5544 C   0  0  0  0  0  0  0  0  0  0  0  0
  -26.4052  -14.5570   20.5133 C   0  0  0  0  0  0  0  0  0  0  0  0
  -27.2887  -28.6661   19.6884 C   0  0  0  0  0  0  0  0  0  0  0  0
  -28.5257  -11.6557   21.0570 C   0  0  0  0  0  0  0  0  0  0  0  0
  -29.8705  -11.4805   20.7309 C   0  0  0  0  0  0  0  0  0  0  0  0
  -26.0499  -26.8864   20.7455 C   0  0  0  0  0  0  0  0  0  0  0  0
  -29.3786  -12.0001   18.4232 C   0  0  0  0  0  0  0  0  0  0  0  0
  -30.7549  -22.0252   17.7411 C   0  0  0  0  0  0  0  0  0  0  0  0
  -28.6311  -22.5897   17.2892 C   0  0  0  0  0  0  0  0  0  0  0  0
  -24.5812  -15.8985   19.6704 C   0  0  0  0  0  0  0  0  0  0  0  0
  -23.1631  -17.9286   20.2834 C   0  0  0  0  0  0  0  0  0  0  0  0
  -21.5813  -34.0644   24.1537 C   0  0  0  0  0  0  0  0  0  0  0  0
  -24.9111  -28.9248   20.1067 C   0  0  0  0  0  0  0  0  0  0  0  0
  -22.6526  -33.2301   23.7813 C   0  0  0  0  0  0  0  0  0  0  0  0
  -24.8691  -27.6405   20.6680 C   0  0  0  0  0  0  0  0  0  0  0  0
  -30.5051  -21.6758   16.4328 C   0  0  0  0  0  0  0  0  0  0  0  0
  -29.1535  -22.0219   16.1458 C   0  0  0  0  0  0  0  0  0  0  0  0
  -25.7178  -13.3973   20.1549 C   0  0  0  0  0  0  0  0  0  0  0  0
  -27.2532  -27.3975   20.2597 C   0  0  0  0  0  0  0  0  0  0  0  0
  -27.6072  -12.0029   20.0662 C   0  0  0  0  0  0  0  0  0  0  0  0
  -30.2970  -11.6528   19.4140 C   0  0  0  0  0  0  0  0  0  0  0  0
  -28.0337  -12.1752   18.7493 C   0  0  0  0  0  0  0  0  0  0  0  0
  -23.9949  -17.1907   19.4200 C   0  0  0  0  0  0  0  0  0  0  0  0
  -22.8768  -19.0767   19.5861 C   0  0  0  0  0  0  0  0  0  0  0  0
  -22.6917  -17.6051   21.5982 C   0  0  0  0  0  0  0  0  0  0  0  0
  -22.8842  -29.8160   22.3874 C   0  0  0  0  0  0  0  0  0  0  0  0
  -29.4867  -24.5964   19.6825 C   0  0  0  0  0  0  0  0  0  0  0  0
  -21.0900  -27.3882   21.2004 C   0  0  0  0  0  0  0  0  0  0  0  0
  -20.9759  -24.4407   19.4841 C   0  0  0  0  0  0  0  0  0  0  0  0
  -26.0556  -21.7304   15.0826 C   0  0  0  0  0  0  0  0  0  0  0  0
  -20.3425  -33.5166   24.8170 C   0  0  0  0  0  0  0  0  0  0  0  0
  -23.6563  -29.7458   19.9884 C   0  0  0  0  0  0  0  0  0  0  0  0
  -23.5900  -27.0488   21.1995 C   0  0  0  0  0  0  0  0  0  0  0  0
  -31.4021  -21.0414   15.4400 C   0  0  0  0  0  0  0  0  0  0  0  0
  -20.1739  -32.0095   24.6423 C   0  0  0  0  0  0  0  0  0  0  0  0
  -22.5844  -20.3385   14.9136 C   0  0  0  0  0  0  0  0  0  0  0  0
  -21.4872  -31.2886   24.9294 C   0  0  0  0  0  0  0  0  0  0  0  0
  -22.3447  -19.7590   16.3076 C   0  0  0  0  0  0  0  0  0  0  0  0
  -28.9470  -19.4869   14.2504 C   0  0  0  0  0  0  0  0  0  0  0  0
  -23.6204  -21.4527   14.9207 C   0  0  0  0  0  0  0  0  0  0  0  0
  -27.4657  -19.6435   14.5859 C   0  0  0  0  0  0  0  0  0  0  0  0
  -24.8755  -19.9670   16.4862 C   0  0  0  0  0  0  0  0  0  0  0  0
  -28.5280  -21.8029   14.8050 C   0  0  1  0  0  0  0  0  0  0  0  0
  -22.5831  -31.7279   23.9509 C   0  0  1  0  0  0  0  0  0  0  0  0
  -22.5818  -29.3430   20.9936 C   0  0  1  0  0  0  0  0  0  0  0  0
  -23.5415  -19.9627   17.2532 C   0  0  2  0  0  0  0  0  0  0  0  0
  -29.3689  -20.9050   13.8816 C   0  0  1  0  0  0  0  0  0  0  0  0
  -19.3714  -22.6748   18.7065 C   0  0  0  0  0  0  0  0  0  0  0  0
  -20.9412  -26.2773   24.0383 C   0  0  0  0  0  0  0  0  0  0  0  0
  -20.1799  -24.0974   23.0705 C   0  0  0  0  0  0  0  0  0  0  0  0
  -18.7986  -26.1504   22.7547 C   0  0  0  0  0  0  0  0  0  0  0  0
  -31.6786  -20.3657   13.0396 C   0  0  0  0  0  0  0  0  0  0  0  0
  -21.6284  -24.9357   16.6401 C   0  0  0  0  0  0  0  0  0  0  0  0
  -29.4557  -23.0812   19.5969 C   0  0  0  0  0  0  0  0  0  0  0  0
  -28.2591  -25.2428   20.2947 C   0  0  0  0  0  0  0  0  0  1  0  0
  -20.9704  -25.9101   21.4829 C   0  0  1  0  0  0  0  0  0  0  0  0
  -20.0843  -23.9697   18.3493 C   0  0  2  0  0  0  0  0  0  0  0  0
  -20.2472  -25.6204   22.8284 C   0  0  0  0  0  0  0  0  0  0  0  0
  -24.2220  -17.8173   18.2625 N   0  0  0  0  0  0  0  0  0  0  0  0
  -29.6088  -22.5785   18.2508 N   0  0  0  0  0  0  0  0  0  0  0  0
  -23.5287  -18.9611   18.3937 N   0  0  0  0  0  0  0  0  0  0  0  0
  -22.3912  -27.8930   21.0667 N   0  0  0  0  0  0  0  0  0  0  0  0
  -24.9144  -20.9989   15.4404 N   0  0  0  0  0  0  0  0  0  0  0  0
  -27.2730  -21.0517   14.9580 N   0  0  0  0  0  0  0  0  0  0  0  0
  -22.1333  -20.1638   19.8827 N   0  0  0  0  0  0  0  0  0  0  0  0
  -23.0816  -16.3847   22.1664 N   0  0  0  0  0  0  0  0  0  0  0  0
  -22.4047  -31.0811   22.6686 N   0  0  0  0  0  0  0  0  0  0  0  0
  -20.3200  -25.3229   20.3164 N   0  0  0  0  0  0  0  0  0  0  0  0
  -30.8548  -21.1559   14.0193 N   0  3  2  0  0  0  0  0  0  0  0  0
  -20.8916  -23.7376   17.1183 N   0  3  0  0  0  0  0  0  0  0  0  0
  -21.9333  -18.3682   22.2433 O   0  0  0  0  0  0  0  0  0  0  0  0
  -23.5053  -29.0866   23.1515 O   0  0  0  0  0  0  0  0  0  0  0  0
  -30.4383  -25.2669   19.2844 O   0  0  0  0  0  0  0  0  0  0  0  0
  -20.0664  -28.0685   21.0950 O   0  0  0  0  0  0  0  0  0  0  0  0
  -22.1367  -24.0609   19.6207 O   0  0  0  0  0  0  0  0  0  0  0  0
  -25.9786  -22.9467   14.8569 O   0  0  0  0  0  0  0  0  0  0  0  0
  -26.2726  -12.1772   20.3917 O   0  0  0  0  0  0  0  0  0  0  0  0
  -28.4022  -26.6466   20.3407 O   0  0  0  0  0  0  0  0  0  1  0  0
  -31.5887  -11.4861   19.1013 F   0  0  0  0  0  0  0  0  0  0  0  0
  -27.1563  -12.5099   17.7934 F   0  0  0  0  0  0  0  0  0  0  0  0
  1  2  1  0  0  0  0
  1  5  2  0  0  0  0
  2  6  2  0  0  0  0
  3  8  2  0  0  0  0
  3 17  1  0  0  0  0
  4  9  1  0  0  0  0
  4 17  2  0  0  0  0
  5 19  1  0  0  0  0
  6 21  1  0  0  0  0
  7 10  2  0  0  0  0
  7 20  1  0  0  0  0
  8 25  1  0  0  0  0
  9 25  2  0  0  0  0
 10 26  1  0  0  0  0
 11 12  2  0  0  0  0
 11 27  1  0  0  0  0
 12 28  1  0  0  0  0
 13 22  1  0  0  0  0
 13 26  2  0  0  0  0
 14 28  2  0  0  0  0
 14 29  1  0  0  0  0
 15 23  2  0  0  0  0
 15 67  1  0  0  0  0
 16 24  2  0  0  0  0
 16 67  1  0  0  0  0
 17 30  1  0  0  0  0
 18 30  1  0  0  0  0
 18 31  2  0  0  0  0
 18 32  1  0  0  0  0
 19 21  2  0  0  0  0
 19 38  1  0  0  0  0
 20 22  2  0  0  0  0
 20 39  1  0  0  0  0
 21 51  1  0  0  0  0
 22 40  1  0  0  0  0
 23 24  1  0  0  0  0
 23 41  1  0  0  0  0
 24 50  1  0  0  0  0
 25 84  1  0  0  0  0
 26 85  1  0  0  0  0
 27 29  2  0  0  0  0
 27 84  1  0  0  0  0
 28 86  1  0  0  0  0
 29 87  1  0  0  0  0
 30 66  2  0  0  0  0
 31 68  1  0  0  0  0
 31 72  1  0  0  0  0
 32 73  1  0  0  0  0
 32 78  2  0  0  0  0
 33 52  1  0  0  0  0
 33 74  1  0  0  0  0
 33 79  2  0  0  0  0
 34 61  1  0  0  0  0
 34 62  1  0  0  0  0
 34 80  2  0  0  0  0
 35 63  1  0  0  0  0
 35 69  1  0  0  0  0
 35 81  2  0  0  0  0
 36 64  1  0  0  0  0
 36 75  1  0  0  0  0
 36 82  2  0  0  0  0
 37 70  1  0  0  0  0
 37 71  1  0  0  0  0
 37 83  2  0  0  0  0
 38 42  1  0  0  0  0
 39 52  1  0  0  0  0
 40 69  1  0  0  0  0
 41 76  1  0  0  0  0
 42 44  1  0  0  0  0
 43 45  1  0  0  0  0
 43 47  1  0  0  0  0
 44 51  1  0  0  0  0
 45 53  1  0  0  0  0
 46 48  1  0  0  0  0
 46 54  1  0  0  0  0
 47 70  1  0  0  0  0
 48 71  1  0  0  0  0
 49 53  1  0  0  0  0
 49 70  1  0  0  0  0
 50 54  1  0  0  0  0
 50 71  1  0  0  0  0
 51 74  1  0  0  0  0
 52 69  1  0  0  0  0
 53 68  1  0  0  0  0
 54 76  1  0  0  0  0
 55 64  1  0  0  0  0
 56 65  1  0  0  0  0
 57 65  1  0  0  0  0
 58 65  1  0  0  0  0
 59 76  1  0  0  0  0
 60 77  1  0  0  0  0
 61 67  1  0  0  0  0
 62 85  1  0  0  0  0
 63 65  1  0  0  0  0
 63 75  1  0  0  0  0
 64 77  1  0  0  0  0
 66 68  1  0  0  0  0
M  CHG  2  76   1  77   1
M  ISO  4  37 100  62 101  71 100  85 101
M  END
> <Batch ID>
0154

> <Smiles>
CNC(C)C(=O)NC(C(=O)N1Cc2cc([101O:1][101CH2:1]C(=O)Cn3cc4c(c3)C3C(CC[100N:0]3[100C:0](=O)N3CCCC(n5nc(-c6ccc(Oc7ccc(F)cc7F)cc6)c(C(N)=O)c5N)C3)N(C)C4)ccc2CC1C(=O)NC1CCCc2ccccc21)C(C)(C)C

> <Shape>
0.204

> <Color>
0.089

> <Negative vol penalty>
0.000

$$$$

  -OEChem-04052303333D

 85 94  0     1  0  0  0  0  0999 V2000
  -32.6430  -20.7719   25.2406 C   0  0  0  0  0  0  0  0  0  0  0  0
  -31.4093  -21.2428   25.6784 C   0  0  0  0  0  0  0  0  0  0  0  0
  -29.6266  -25.4074   18.6686 C   0  0  0  0  0  0  0  0  0  0  0  0
  -29.8350  -25.2941   21.0730 C   0  0  0  0  0  0  0  0  0  0  0  0
  -32.7715  -20.2479   23.9550 C   0  0  0  0  0  0  0  0  0  0  0  0
  -30.3036  -21.1910   24.8303 C   0  0  0  0  0  0  0  0  0  0  0  0
  -23.1957  -20.3112   24.9718 C   0  0  0  0  0  0  0  0  0  0  0  0
  -30.9815  -25.1031   18.5369 C   0  0  0  0  0  0  0  0  0  0  0  0
  -31.1899  -24.9897   20.9412 C   0  0  0  0  0  0  0  0  0  0  0  0
  -22.0258  -20.9211   24.5212 C   0  0  0  0  0  0  0  0  0  0  0  0
  -34.7830  -24.5373   21.2492 C   0  0  0  0  0  0  0  0  0  0  0  0
  -35.6813  -25.2046   22.0818 C   0  0  0  0  0  0  0  0  0  0  0  0
  -22.3483  -19.9219   22.3494 C   0  0  0  0  0  0  0  0  0  0  0  0
  -20.3720  -26.9683   23.0300 C   0  0  0  0  0  0  0  0  0  0  0  0
  -34.9679  -27.3193   21.1564 C   0  0  0  0  0  0  0  0  0  0  0  0
  -18.3977  -27.5164   21.9326 C   0  0  0  0  0  0  0  0  0  0  0  0
  -29.0534  -25.5030   19.9367 C   0  0  0  0  0  0  0  0  0  0  0  0
  -26.5793  -24.9100   20.1241 C   0  0  0  0  0  0  0  0  0  0  0  0
  -31.6647  -20.1807   23.0942 C   0  0  0  0  0  0  0  0  0  0  0  0
  -23.9579  -19.5095   24.1099 C   0  0  0  0  0  0  0  0  0  0  0  0
  -30.4178  -20.6668   23.5315 C   0  0  0  0  0  0  0  0  0  0  0  0
  -23.5262  -19.3008   22.7922 C   0  0  0  0  0  0  0  0  0  0  0  0
  -19.3045  -26.5151   22.2021 C   0  0  0  0  0  0  0  0  0  0  0  0
  -31.7631  -24.8942   19.6731 C   0  0  0  0  0  0  0  0  0  0  0  0
  -21.6034  -20.7288   23.2091 C   0  0  0  0  0  0  0  0  0  0  0  0
  -33.9771  -25.2609   20.3702 C   0  0  0  0  0  0  0  0  0  0  0  0
  -35.7738  -26.5956   22.0354 C   0  0  0  0  0  0  0  0  0  0  0  0
  -34.0696  -26.6519   20.3238 C   0  0  0  0  0  0  0  0  0  0  0  0
  -27.6540  -25.8179   20.0735 C   0  0  0  0  0  0  0  0  0  0  0  0
  -20.2404  -28.2990   23.3615 C   0  0  0  0  0  0  0  0  0  0  0  0
  -25.4660  -25.7030   20.2588 C   0  0  0  0  0  0  0  0  0  0  0  0
  -26.5868  -23.4779   20.0554 C   0  0  0  0  0  0  0  0  0  0  0  0
  -26.9154  -19.6418   22.9525 C   0  0  0  0  0  0  0  0  0  0  0  0
  -26.1558  -16.7285   21.7449 C   0  0  0  0  0  0  0  0  0  0  0  0
  -20.0254  -24.1191   21.9134 C   0  0  0  0  0  0  0  0  0  0  0  0
  -23.7263  -14.5525   20.7401 C   0  0  0  0  0  0  0  0  0  0  0  0
  -22.8004  -29.9756   22.5245 C   0  0  0  0  0  0  0  0  0  0  0  0
  -31.8631  -19.6494   21.6967 C   0  0  0  0  0  0  0  0  0  0  0  0
  -25.2032  -18.8370   24.6190 C   0  0  0  0  0  0  0  0  0  0  0  0
  -24.2977  -18.4330   21.8330 C   0  0  0  0  0  0  0  0  0  0  0  0
  -30.5585  -19.2856   20.9924 C   0  0  0  0  0  0  0  0  0  0  0  0
  -22.7190  -29.0417   26.0274 C   0  0  0  0  0  0  0  0  0  0  0  0
  -24.8812  -30.6942   19.8073 C   0  0  0  0  0  0  0  0  0  0  0  0
  -29.5288  -20.3970   21.1688 C   0  0  0  0  0  0  0  0  0  0  0  0
  -21.3166  -28.5945   25.6349 C   0  0  0  0  0  0  0  0  0  0  0  0
  -25.7202  -29.4291   19.6385 C   0  0  0  0  0  0  0  0  0  0  0  0
  -24.6707  -31.0130   21.2822 C   0  0  0  0  0  0  0  0  0  0  0  0
  -23.4943  -28.9013   24.7267 C   0  0  0  0  0  0  0  0  0  0  0  0
  -24.8491  -28.6187   21.8895 C   0  0  0  0  0  0  0  0  0  0  0  0
  -29.1895  -20.6048   22.6497 C   0  0  1  0  0  0  0  0  0  0  0  0
  -21.1528  -29.1510   24.2144 C   0  0  1  0  0  0  0  0  0  0  0  0
  -26.1749  -18.4572   23.5058 C   0  0  1  0  0  0  0  0  0  0  0  0
  -25.0983  -28.2544   20.4116 C   0  0  2  0  0  0  0  0  0  0  0  0
  -23.4146  -12.2618   19.7639 C   0  0  0  0  0  0  0  0  0  0  0  0
  -26.9929  -17.7840   19.0071 C   0  0  0  0  0  0  0  0  0  0  0  0
  -25.7923  -15.8468   17.9706 C   0  0  0  0  0  0  0  0  0  0  0  0
  -27.7276  -15.4431   19.4920 C   0  0  0  0  0  0  0  0  0  0  0  0
  -22.2006  -13.6273   23.1012 C   0  0  0  0  0  0  0  0  0  0  0  0
  -19.5081  -22.8797   21.1922 C   0  0  0  0  0  0  0  0  0  0  0  0
  -20.3995  -21.6618   21.3826 C   0  0  0  0  0  0  0  0  0  1  0  0
  -25.5308  -16.2323   20.4634 C   0  0  1  0  0  0  0  0  0  0  0  0
  -23.5042  -13.0814   21.0418 C   0  0  2  0  0  0  0  0  0  0  0  0
  -26.4972  -16.3445   19.2505 C   0  0  0  0  0  0  0  0  0  0  0  0
  -27.2590  -27.0903   20.1683 N   0  0  0  0  0  0  0  0  0  0  0  0
  -25.9237  -26.9876   20.2796 N   0  0  0  0  0  0  0  0  0  0  0  0
  -25.5121  -17.8023   22.3762 N   0  0  0  0  0  0  0  0  0  0  0  0
  -24.0949  -29.8747   21.9993 N   0  0  0  0  0  0  0  0  0  0  0  0
  -22.5232  -29.2542   23.6894 N   0  0  0  0  0  0  0  0  0  0  0  0
  -24.1500  -25.4198   20.3602 N   0  0  0  0  0  0  0  0  0  0  0  0
  -27.8176  -22.8220   19.9171 N   0  0  0  0  0  0  0  0  0  0  0  0
  -19.1740  -25.2306   21.7152 N   0  0  0  0  0  0  0  0  0  0  0  0
  -28.2863  -19.5724   23.1110 N   0  0  0  0  0  0  0  0  0  0  0  0
  -25.0667  -14.8759   20.7341 N   0  0  0  0  0  0  0  0  0  0  0  0
  -22.2404  -12.8951   21.8092 N   0  3  0  0  0  0  0  0  0  0  0  0
  -25.5317  -22.8008   20.0986 O   0  0  0  0  0  0  0  0  0  0  0  0
  -26.2894  -20.5507   22.4199 O   0  0  0  0  0  0  0  0  0  0  0  0
  -27.1734  -16.1789   22.1739 O   0  0  0  0  0  0  0  0  0  0  0  0
  -21.0594  -24.1067   22.5729 O   0  0  0  0  0  0  0  0  0  0  0  0
  -22.8033  -15.3356   20.5271 O   0  0  0  0  0  0  0  0  0  0  0  0
  -21.9411  -30.6906   21.9932 O   0  0  0  0  0  0  0  0  0  0  0  0
  -33.0851  -24.5969   19.5449 O   0  0  0  0  0  0  0  0  0  0  0  0
  -20.4541  -21.3277   22.7634 O   0  0  0  0  0  0  0  0  0  1  0  0
  -36.6355  -27.2365   22.8360 F   0  0  0  0  0  0  0  0  0  0  0  0
  -33.2971  -27.3526   19.4823 F   0  0  0  0  0  0  0  0  0  0  0  0
  -18.8345  -28.9959   22.6761 S   0  0  0  0  0  0  0  0  0  0  0  0
  1  2  1  0  0  0  0
  1  5  2  0  0  0  0
  2  6  2  0  0  0  0
  3  8  2  0  0  0  0
  3 17  1  0  0  0  0
  4  9  1  0  0  0  0
  4 17  2  0  0  0  0
  5 19  1  0  0  0  0
  6 21  1  0  0  0  0
  7 10  2  0  0  0  0
  7 20  1  0  0  0  0
  8 24  1  0  0  0  0
  9 24  2  0  0  0  0
 10 25  1  0  0  0  0
 11 12  2  0  0  0  0
 11 26  1  0  0  0  0
 12 27  1  0  0  0  0
 13 22  1  0  0  0  0
 13 25  2  0  0  0  0
 14 23  1  0  0  0  0
 14 30  2  0  0  0  0
 15 27  2  0  0  0  0
 15 28  1  0  0  0  0
 16 23  2  0  0  0  0
 16 85  1  0  0  0  0
 17 29  1  0  0  0  0
 18 29  1  0  0  0  0
 18 31  2  0  0  0  0
 18 32  1  0  0  0  0
 19 21  2  0  0  0  0
 19 38  1  0  0  0  0
 20 22  2  0  0  0  0
 20 39  1  0  0  0  0
 21 50  1  0  0  0  0
 22 40  1  0  0  0  0
 23 71  1  0  0  0  0
 24 81  1  0  0  0  0
 25 82  1  0  0  0  0
 26 28  2  0  0  0  0
 26 81  1  0  0  0  0
 27 83  1  0  0  0  0
 28 84  1  0  0  0  0
 29 64  2  0  0  0  0
 30 51  1  0  0  0  0
 30 85  1  0  0  0  0
 31 65  1  0  0  0  0
 31 69  1  0  0  0  0
 32 70  1  0  0  0  0
 32 75  2  0  0  0  0
 33 52  1  0  0  0  0
 33 72  1  0  0  0  0
 33 76  2  0  0  0  0
 34 61  1  0  0  0  0
 34 66  1  0  0  0  0
 34 77  2  0  0  0  0
 35 59  1  0  0  0  0
 35 71  1  0  0  0  0
 35 78  2  0  0  0  0
 36 62  1  0  0  0  0
 36 73  1  0  0  0  0
 36 79  2  0  0  0  0
 37 67  1  0  0  0  0
 37 68  1  0  0  0  0
 37 80  2  0  0  0  0
 38 41  1  0  0  0  0
 39 52  1  0  0  0  0
 40 66  1  0  0  0  0
 41 44  1  0  0  0  0
 42 45  1  0  0  0  0
 42 48  1  0  0  0  0
 43 46  1  0  0  0  0
 43 47  1  0  0  0  0
 44 50  1  0  0  0  0
 45 51  1  0  0  0  0
 46 53  1  0  0  0  0
 47 67  1  0  0  0  0
 48 68  1  0  0  0  0
 49 53  1  0  0  0  0
 49 67  1  0  0  0  0
 50 72  1  0  0  0  0
 51 68  1  0  0  0  0
 52 66  1  0  0  0  0
 53 65  1  0  0  0  0
 54 62  1  0  0  0  0
 55 63  1  0  0  0  0
 56 63  1  0  0  0  0
 57 63  1  0  0  0  0
 58 74  1  0  0  0  0
 59 60  1  0  0  0  0
 60 82  1  0  0  0  0
 61 63  1  0  0  0  0
 61 73  1  0  0  0  0
 62 74  1  0  0  0  0
 64 65  1  0  0  0  0
M  CHG  1  74   1
M  ISO  4  37 100  60 101  68 100  82 101
M  END
> <Batch ID>
0154

> <Smiles>
CNC(C)C(=O)NC(C(=O)N1Cc2cc([101O:1][101CH2:1]CC(=O)Nc3csc(C4CCC[100N:0]4[100C:0](=O)N4CCCC(n5nc(-c6ccc(Oc7ccc(F)cc7F)cc6)c(C(N)=O)c5N)C4)c3)ccc2CC1C(=O)NC1CCCc2ccccc21)C(C)(C)C

> <Shape>
0.181

> <Color>
0.080

> <Negative vol penalty>
0.000

$$$$

  -OEChem-04052303333D

 87 96  0     1  0  0  0  0  0999 V2000
  -28.4073  -37.6030   24.1188 C   0  0  0  0  0  0  0  0  0  0  0  0
  -28.8639  -36.4692   23.4544 C   0  0  0  0  0  0  0  0  0  0  0  0
  -23.9539   -8.5028   22.1988 C   0  0  0  0  0  0  0  0  0  0  0  0
  -23.6548  -10.0608   20.3766 C   0  0  0  0  0  0  0  0  0  0  0  0
  -27.3770  -37.4953   25.0520 C   0  0  0  0  0  0  0  0  0  0  0  0
  -28.2911  -35.2267   23.7238 C   0  0  0  0  0  0  0  0  0  0  0  0
  -27.3959  -30.6479   19.7565 C   0  0  0  0  0  0  0  0  0  0  0  0
  -22.6962   -7.9582   21.9397 C   0  0  0  0  0  0  0  0  0  0  0  0
  -22.3970   -9.5161   20.1174 C   0  0  0  0  0  0  0  0  0  0  0  0
  -28.1175  -29.4858   19.4869 C   0  0  0  0  0  0  0  0  0  0  0  0
  -21.3236   -5.8012   19.7268 C   0  0  0  0  0  0  0  0  0  0  0  0
  -21.2095   -4.4112   19.7130 C   0  0  0  0  0  0  0  0  0  0  0  0
  -27.9665  -19.0523   19.6034 C   0  0  0  0  0  0  0  0  0  0  0  0
  -26.6650  -28.2486   20.9630 C   0  0  0  0  0  0  0  0  0  0  0  0
  -19.6016   -4.5252   21.5126 C   0  0  0  0  0  0  0  0  0  0  0  0
  -24.4332   -9.5542   21.4173 C   0  0  0  0  0  0  0  0  0  0  0  0
  -28.3311  -20.3836   19.2502 C   0  0  0  0  0  0  0  0  0  0  0  0
  -26.9710   -9.4499   21.6542 C   0  0  0  0  0  0  0  0  0  0  0  0
  -26.7848  -36.2523   25.3258 C   0  0  0  0  0  0  0  0  0  0  0  0
  -26.3083  -30.6212   20.6413 C   0  0  0  0  0  0  0  0  0  0  0  0
  -27.2529  -35.1020   24.6625 C   0  0  0  0  0  0  0  0  0  0  0  0
  -25.9296  -29.4112   21.2401 C   0  0  0  0  0  0  0  0  0  0  0  0
  -21.9178   -8.4648   20.8989 C   0  0  0  0  0  0  0  0  0  0  0  0
  -27.7539  -28.2865   20.0924 C   0  0  0  0  0  0  0  0  0  0  0  0
  -20.5768   -6.5534   20.6336 C   0  0  0  0  0  0  0  0  0  0  0  0
  -20.3485   -3.7731   20.6059 C   0  0  0  0  0  0  0  0  0  0  0  0
  -19.7157   -5.9154   21.5265 C   0  0  0  0  0  0  0  0  0  0  0  0
  -25.7320  -10.1176   21.6849 C   0  0  0  0  0  0  0  0  0  0  0  0
  -27.8905  -10.4173   21.9784 C   0  0  0  0  0  0  0  0  0  0  0  0
  -28.8943  -21.0637   20.3075 C   0  0  0  0  0  0  0  0  0  0  0  0
  -28.2652  -18.7654   20.9173 C   0  0  0  0  0  0  0  0  0  0  0  0
  -28.1270  -20.9354   17.9385 C   0  0  0  0  0  0  0  0  0  0  0  0
  -27.2645   -8.0779   21.3591 C   0  0  0  0  0  0  0  0  0  0  0  0
  -25.6385  -32.0212   23.4153 C   0  0  0  0  0  0  0  0  0  0  0  0
  -22.7449  -30.6219   22.9779 C   0  0  0  0  0  0  0  0  0  0  0  0
  -20.9206  -28.1343   21.5182 C   0  0  0  0  0  0  0  0  0  0  0  0
  -27.5185  -16.3740   21.2461 C   0  0  0  0  0  0  0  0  0  0  0  0
  -25.7061  -36.1781   26.3773 C   0  0  0  0  0  0  0  0  0  0  0  0
  -25.5237  -31.8779   20.9009 C   0  0  0  0  0  0  0  0  0  0  0  0
  -24.7574  -29.3251   22.1819 C   0  0  0  0  0  0  0  0  0  0  0  0
  -24.8984  -34.8836   26.3309 C   0  0  0  0  0  0  0  0  0  0  0  0
  -27.4834  -14.4762   24.5810 C   0  0  0  0  0  0  0  0  0  0  0  0
  -31.2720  -23.9074   20.0117 C   0  0  0  0  0  0  0  0  0  0  0  0
  -25.8266  -33.6793   26.2076 C   0  0  0  0  0  0  0  0  0  0  0  0
  -27.8564  -13.0818   24.0831 C   0  0  0  0  0  0  0  0  0  0  0  0
  -30.3869  -25.0818   20.4124 C   0  0  0  0  0  0  0  0  0  0  0  0
  -30.7799  -22.5985   20.6210 C   0  0  0  0  0  0  0  0  0  0  0  0
  -27.9447  -15.5721   23.6285 C   0  0  0  0  0  0  0  0  0  0  0  0
  -26.8919  -14.0665   21.9312 C   0  0  0  0  0  0  0  0  0  0  0  0
  -28.4374  -23.4755   20.6397 C   0  0  0  0  0  0  0  0  0  0  0  0
  -26.6401  -33.7405   24.9092 C   0  0  1  0  0  0  0  0  0  0  0  0
  -24.7516  -31.8393   22.2161 C   0  0  1  0  0  0  0  0  0  0  0  0
  -27.7135  -12.9280   22.5559 C   0  0  2  0  0  0  0  0  0  0  0  0
  -28.9281  -24.8041   20.0537 C   0  0  1  0  0  0  0  0  0  0  0  0
  -18.5853  -27.2266   21.3781 C   0  0  0  0  0  0  0  0  0  0  0  0
  -23.0565  -29.3983   25.7556 C   0  0  0  0  0  0  0  0  0  0  0  0
  -21.2196  -27.7974   25.1802 C   0  0  0  0  0  0  0  0  0  0  0  0
  -20.7614  -30.2487   25.2417 C   0  0  0  0  0  0  0  0  0  0  0  0
  -20.7918  -28.5968   18.5978 C   0  0  0  0  0  0  0  0  0  0  0  0
  -28.0293  -25.9574   20.4864 C   0  0  0  0  0  0  0  0  0  1  0  0
  -22.1341  -29.2915   23.3465 C   0  0  1  0  0  0  0  0  0  0  0  0
  -19.6090  -28.1625   20.7544 C   0  0  2  0  0  0  0  0  0  0  0  0
  -21.8162  -29.1856   24.8648 C   0  0  0  0  0  0  0  0  0  0  0  0
  -25.8502  -11.4093   22.0035 N   0  0  0  0  0  0  0  0  0  0  0  0
  -27.1743  -11.5610   22.1761 N   0  0  0  0  0  0  0  0  0  0  0  0
  -29.3619  -22.3839   20.3066 N   0  0  2  0  0  0  0  0  0  0  0  0
  -24.0256  -30.5824   22.4087 N   0  0  0  0  0  0  0  0  0  0  0  0
  -27.4712  -15.3764   22.2505 N   0  0  0  0  0  0  0  0  0  0  0  0
  -29.2337  -10.3927   22.1108 N   0  0  0  0  0  0  0  0  0  0  0  0
  -28.4911  -22.2028   17.6593 N   0  0  0  0  0  0  0  0  0  0  0  0
  -27.5242   -7.7214   20.0287 N   0  0  0  0  0  0  0  0  0  0  0  0
  -28.0764  -17.5817   21.6737 N   0  0  0  0  0  0  0  0  0  0  0  0
  -25.8246  -33.3402   23.7826 N   0  0  0  0  0  0  0  0  0  0  0  0
  -20.9730  -29.1212   22.4797 N   0  0  0  0  0  0  0  0  0  0  0  0
  -27.5687  -20.1967   16.9589 N   0  3  0  0  0  0  0  0  0  0  0  0
  -19.8245  -27.7475   19.3394 N   0  3  0  0  0  0  0  0  0  0  0  0
  -27.2793   -7.1912   22.2463 O   0  0  0  0  0  0  0  0  0  0  0  0
  -26.1173  -31.0375   23.9674 O   0  0  0  0  0  0  0  0  0  0  0  0
  -22.1062  -31.6575   23.1808 O   0  0  0  0  0  0  0  0  0  0  0  0
  -21.8083  -27.3162   21.2875 O   0  0  0  0  0  0  0  0  0  0  0  0
  -27.1087  -16.1621   20.1028 O   0  0  0  0  0  0  0  0  0  0  0  0
  -20.6906   -7.9334   20.6456 O   0  0  0  0  0  0  0  0  0  0  0  0
  -28.4569  -27.1510   19.8315 O   0  0  0  0  0  0  0  0  0  1  0  0
  -20.2379   -2.4383   20.5914 F   0  0  0  0  0  0  0  0  0  0  0  0
  -18.9948   -6.6326   22.3991 F   0  0  0  0  0  0  0  0  0  0  0  0
  -28.8399  -24.7164   18.6914 F   0  0  0  0  0  0  0  0  0  0  0  0
  -28.9818  -20.0980   21.7190 S   0  0  0  0  0  0  0  0  0  0  0  0
  1  2  1  0  0  0  0
  1  5  2  0  0  0  0
  2  6  2  0  0  0  0
  3  8  2  0  0  0  0
  3 16  1  0  0  0  0
  4  9  1  0  0  0  0
  4 16  2  0  0  0  0
  5 19  1  0  0  0  0
  6 21  1  0  0  0  0
  7 10  2  0  0  0  0
  7 20  1  0  0  0  0
  8 23  1  0  0  0  0
  9 23  2  0  0  0  0
 10 24  1  0  0  0  0
 11 12  2  0  0  0  0
 11 25  1  0  0  0  0
 12 26  1  0  0  0  0
 13 17  1  0  0  0  0
 13 31  2  0  0  0  0
 14 22  1  0  0  0  0
 14 24  2  0  0  0  0
 15 26  2  0  0  0  0
 15 27  1  0  0  0  0
 16 28  1  0  0  0  0
 17 30  2  0  0  0  0
 17 32  1  0  0  0  0
 18 28  1  0  0  0  0
 18 29  2  0  0  0  0
 18 33  1  0  0  0  0
 19 21  2  0  0  0  0
 19 38  1  0  0  0  0
 20 22  2  0  0  0  0
 20 39  1  0  0  0  0
 21 51  1  0  0  0  0
 22 40  1  0  0  0  0
 23 82  1  0  0  0  0
 24 83  1  0  0  0  0
 25 27  2  0  0  0  0
 25 82  1  0  0  0  0
 26 84  1  0  0  0  0
 27 85  1  0  0  0  0
 28 64  2  0  0  0  0
 29 65  1  0  0  0  0
 29 69  1  0  0  0  0
 30 66  1  0  0  0  0
 30 87  1  0  0  0  0
 31 72  1  0  0  0  0
 31 87  1  0  0  0  0
 32 70  1  0  0  0  0
 32 75  2  0  0  0  0
 33 71  1  0  0  0  0
 33 77  2  0  0  0  0
 34 52  1  0  0  0  0
 34 73  1  0  0  0  0
 34 78  2  0  0  0  0
 35 61  1  0  0  0  0
 35 67  1  0  0  0  0
 35 79  2  0  0  0  0
 36 62  1  0  0  0  0
 36 74  1  0  0  0  0
 36 80  2  0  0  0  0
 37 68  1  0  0  0  0
 37 72  1  0  0  0  0
 37 81  2  0  0  0  0
 38 41  1  0  0  0  0
 39 52  1  0  0  0  0
 40 67  1  0  0  0  0
 41 44  1  0  0  0  0
 42 45  1  0  0  0  0
 42 48  1  0  0  0  0
 43 46  1  0  0  0  0
 43 47  1  0  0  0  0
 44 51  1  0  0  0  0
 45 53  1  0  0  0  0
 46 54  1  0  0  0  0
 47 66  1  0  0  0  0
 48 68  1  0  0  0  0
 49 53  1  0  0  0  0
 49 68  1  0  0  0  0
 50 54  1  0  0  0  0
 50 66  1  0  0  0  0
 51 73  1  0  0  0  0
 52 67  1  0  0  0  0
 53 65  1  0  0  0  0
 54 60  1  0  0  0  0
 54 86  1  0  0  0  0
 55 62  1  0  0  0  0
 56 63  1  0  0  0  0
 57 63  1  0  0  0  0
 58 63  1  0  0  0  0
 59 76  1  0  0  0  0
 60 83  1  0  0  0  0
 61 63  1  0  0  0  0
 61 74  1  0  0  0  0
 62 76  1  0  0  0  0
 64 65  1  0  0  0  0
M  CHG  2  75   1  76   1
M  ISO  4  37 100  60 101  72 100  83 101
M  END
> <Batch ID>
0154

> <Smiles>
CNC(C)C(=O)NC(C(=O)N1Cc2cc([101O:1][101CH2:1]C3(F)CCCN(c4sc([100NH:0][100C:0](=O)N5CCCC(n6nc(-c7ccc(Oc8ccc(F)cc8F)cc7)c(C(N)=O)c6N)C5)cc4C(=N)N)C3)ccc2CC1C(=O)NC1CCCc2ccccc21)C(C)(C)C

> <Shape>
0.284

> <Color>
0.073

> <Negative vol penalty>
0.000

$$$$

  -OEChem-04052303333D

 86 95  0     1  0  0  0  0  0999 V2000
  -27.2020  -37.9832   25.4642 C   0  0  0  0  0  0  0  0  0  0  0  0
  -27.9236  -36.8751   25.8965 C   0  0  0  0  0  0  0  0  0  0  0  0
  -23.3272   -9.6698   20.1861 C   0  0  0  0  0  0  0  0  0  0  0  0
  -23.8522  -10.0939   22.5059 C   0  0  0  0  0  0  0  0  0  0  0  0
  -25.8810  -37.8329   25.0444 C   0  0  0  0  0  0  0  0  0  0  0  0
  -27.3241  -35.6162   25.9104 C   0  0  0  0  0  0  0  0  0  0  0  0
  -30.1098  -30.1408   22.1486 C   0  0  0  0  0  0  0  0  0  0  0  0
  -30.7516  -19.5772   20.0785 C   0  0  0  0  0  0  0  0  0  0  0  0
  -30.6894  -18.1982   20.2788 C   0  0  0  0  0  0  0  0  0  0  0  0
  -22.6503   -8.5064   20.5519 C   0  0  0  0  0  0  0  0  0  0  0  0
  -23.1752   -8.9305   22.8718 C   0  0  0  0  0  0  0  0  0  0  0  0
  -30.6994  -28.9901   21.6249 C   0  0  0  0  0  0  0  0  0  0  0  0
  -19.9717   -7.9486   23.3121 C   0  0  0  0  0  0  0  0  0  0  0  0
  -19.1070   -8.0200   24.4042 C   0  0  0  0  0  0  0  0  0  0  0  0
  -28.8129  -27.6722   22.3680 C   0  0  0  0  0  0  0  0  0  0  0  0
  -28.8799  -18.5080   21.8495 C   0  0  0  0  0  0  0  0  0  0  0  0
  -20.4100   -6.3361   25.5460 C   0  0  0  0  0  0  0  0  0  0  0  0
  -23.9282  -10.4636   21.1631 C   0  0  0  0  0  0  0  0  0  0  0  0
  -24.0908  -12.9613   20.6706 C   0  0  0  0  0  0  0  0  0  0  0  0
  -25.2681  -36.5700   25.0440 C   0  0  0  0  0  0  0  0  0  0  0  0
  -28.8608  -30.0640   22.7712 C   0  0  0  0  0  0  0  0  0  0  0  0
  -25.9932  -35.4491   25.4915 C   0  0  0  0  0  0  0  0  0  0  0  0
  -28.2116  -28.8235   22.8835 C   0  0  0  0  0  0  0  0  0  0  0  0
  -28.9422  -19.8870   21.6492 C   0  0  0  0  0  0  0  0  0  0  0  0
  -29.8780  -20.4216   20.7637 C   0  0  0  0  0  0  0  0  0  0  0  0
  -29.7535  -17.6636   21.1642 C   0  0  0  0  0  0  0  0  0  0  0  0
  -22.5742   -8.1368   21.8947 C   0  0  0  0  0  0  0  0  0  0  0  0
  -30.0527  -27.7588   21.7346 C   0  0  0  0  0  0  0  0  0  0  0  0
  -21.0555   -7.0709   23.3368 C   0  0  0  0  0  0  0  0  0  0  0  0
  -19.3261   -7.2138   25.5211 C   0  0  0  0  0  0  0  0  0  0  0  0
  -21.2747   -6.2646   24.4538 C   0  0  0  0  0  0  0  0  0  0  0  0
  -24.6281  -11.6652   20.7858 C   0  0  0  0  0  0  0  0  0  0  0  0
  -25.1547  -13.7412   20.2881 C   0  0  0  0  0  0  0  0  0  0  0  0
  -22.7500  -13.4193   20.8899 C   0  0  0  0  0  0  0  0  0  0  0  0
  -26.0811  -31.8881   24.5096 C   0  0  0  0  0  0  0  0  0  0  0  0
  -24.7704  -29.8312   22.6490 C   0  0  0  0  0  0  0  0  0  0  0  0
  -23.7206  -27.7355   20.1705 C   0  0  0  0  0  0  0  0  0  0  0  0
  -30.4830  -15.2854   20.7665 C   0  0  0  0  0  0  0  0  0  0  0  0
  -23.8228  -36.4646   24.6260 C   0  0  0  0  0  0  0  0  0  0  0  0
  -28.2163  -31.2673   23.4041 C   0  0  0  0  0  0  0  0  0  0  0  0
  -26.8852  -28.7829   23.5920 C   0  0  0  0  0  0  0  0  0  0  0  0
  -23.3807  -35.0365   24.3172 C   0  0  0  0  0  0  0  0  0  0  0  0
  -29.7933  -12.4492   18.7274 C   0  0  0  0  0  0  0  0  0  0  0  0
  -23.8549  -34.0828   25.4092 C   0  0  0  0  0  0  0  0  0  0  0  0
  -28.3438  -12.0990   19.0717 C   0  0  0  0  0  0  0  0  0  0  0  0
  -30.4204  -24.0368   21.4911 C   0  0  0  0  0  0  0  0  0  0  0  0
  -29.2899  -23.8028   19.2696 C   0  0  0  0  0  0  0  0  0  0  0  0
  -30.5645  -12.9392   19.9517 C   0  0  0  0  0  0  0  0  0  0  0  0
  -30.8544  -22.5731   21.4217 C   0  0  0  0  0  0  0  0  0  0  0  0
  -29.7213  -22.3375   19.2049 C   0  0  0  0  0  0  0  0  0  0  0  0
  -28.4807  -13.6923   21.0287 C   0  0  0  0  0  0  0  0  0  0  0  0
  -25.3857  -34.0631   25.4978 C   0  0  1  0  0  0  0  0  0  0  0  0
  -26.6817  -31.2626   23.2851 C   0  0  1  0  0  0  0  0  0  0  0  0
  -27.6457  -13.2554   19.8139 C   0  0  2  0  0  0  0  0  0  0  0  0
  -30.2675  -24.6399   20.0945 C   0  0  0  0  0  0  0  0  0  0  0  0
  -27.9957  -20.7687   22.3970 C   0  0  0  0  0  0  0  0  0  0  0  0
  -21.6353  -26.8496   19.0917 C   0  0  0  0  0  0  0  0  0  0  0  0
  -24.3222  -27.9880   25.0377 C   0  0  0  0  0  0  0  0  0  0  0  0
  -22.9063  -26.5407   23.5650 C   0  0  0  0  0  0  0  0  0  0  0  0
  -22.2295  -28.8990   24.0154 C   0  0  0  0  0  0  0  0  0  0  0  0
  -30.0784  -26.7526   18.9640 C   0  0  0  0  0  0  0  0  0  0  0  0
  -24.4562  -28.8781   17.5413 C   0  0  0  0  0  0  0  0  0  0  0  0
  -24.2007  -28.4432   22.4992 C   0  0  1  0  0  0  0  0  0  0  0  0
  -22.7113  -27.9235   19.0523 C   0  0  2  0  0  0  0  0  0  0  0  0
  -23.4416  -27.9736   23.7723 C   0  0  0  0  0  0  0  0  0  0  0  0
  -25.9319  -11.6201   20.4994 N   0  0  0  0  0  0  0  0  0  0  0  0
  -26.2229  -12.8977   20.2005 N   0  0  0  0  0  0  0  0  0  0  0  0
  -29.9552  -21.8039   20.5510 N   0  0  0  0  0  0  0  0  0  0  0  0
  -26.0613  -29.9308   23.1820 N   0  0  0  0  0  0  0  0  0  0  0  0
  -29.8455  -14.0375   20.6010 N   0  0  0  0  0  0  0  0  0  0  0  0
  -25.2714  -15.0595   20.0215 N   0  0  0  0  0  0  0  0  0  0  0  0
  -21.7802  -12.4854   21.2793 N   0  0  0  0  0  0  0  0  0  0  0  0
  -29.6900  -16.2627   21.3671 N   0  0  0  0  0  0  0  0  0  0  0  0
  -25.9434  -33.2608   24.4302 N   0  0  0  0  0  0  0  0  0  0  0  0
  -23.3838  -28.4656   21.2906 N   0  0  0  0  0  0  0  0  0  0  0  0
  -29.7887  -26.0167   20.1930 N   0  0  2  0  0  0  0  0  0  1  0  0
  -23.3893  -27.8610   17.7266 N   0  3  0  0  0  0  0  0  0  0  0  0
  -22.4180  -14.6182   20.7288 O   0  0  0  0  0  0  0  0  0  0  0  0
  -25.7639  -31.1784   25.4569 O   0  0  0  0  0  0  0  0  0  0  0  0
  -24.0894  -30.8026   22.3088 O   0  0  0  0  0  0  0  0  0  0  0  0
  -24.7071  -27.0103   20.0624 O   0  0  0  0  0  0  0  0  0  0  0  0
  -31.6373  -15.4811   20.3775 O   0  0  0  0  0  0  0  0  0  0  0  0
  -21.9136   -7.0017   22.2521 O   0  0  0  0  0  0  0  0  0  0  0  0
  -30.6319  -26.6401   21.2171 O   0  0  0  0  0  0  0  0  0  1  0  0
  -18.4965   -7.2836   26.5705 F   0  0  0  0  0  0  0  0  0  0  0  0
  -22.3149   -5.4203   24.4839 F   0  0  0  0  0  0  0  0  0  0  0  0
  1  2  1  0  0  0  0
  1  5  2  0  0  0  0
  2  6  2  0  0  0  0
  3 10  2  0  0  0  0
  3 18  1  0  0  0  0
  4 11  1  0  0  0  0
  4 18  2  0  0  0  0
  5 20  1  0  0  0  0
  6 22  1  0  0  0  0
  7 12  2  0  0  0  0
  7 21  1  0  0  0  0
  8  9  2  0  0  0  0
  8 25  1  0  0  0  0
  9 26  1  0  0  0  0
 10 27  1  0  0  0  0
 11 27  2  0  0  0  0
 12 28  1  0  0  0  0
 13 14  2  0  0  0  0
 13 29  1  0  0  0  0
 14 30  1  0  0  0  0
 15 23  1  0  0  0  0
 15 28  2  0  0  0  0
 16 24  1  0  0  0  0
 16 26  2  0  0  0  0
 17 30  2  0  0  0  0
 17 31  1  0  0  0  0
 18 32  1  0  0  0  0
 19 32  1  0  0  0  0
 19 33  2  0  0  0  0
 19 34  1  0  0  0  0
 20 22  2  0  0  0  0
 20 39  1  0  0  0  0
 21 23  2  0  0  0  0
 21 40  1  0  0  0  0
 22 52  1  0  0  0  0
 23 41  1  0  0  0  0
 24 25  2  0  0  0  0
 24 56  1  0  0  0  0
 25 68  1  0  0  0  0
 26 73  1  0  0  0  0
 27 83  1  0  0  0  0
 28 84  1  0  0  0  0
 29 31  2  0  0  0  0
 29 83  1  0  0  0  0
 30 85  1  0  0  0  0
 31 86  1  0  0  0  0
 32 66  2  0  0  0  0
 33 67  1  0  0  0  0
 33 71  1  0  0  0  0
 34 72  1  0  0  0  0
 34 78  2  0  0  0  0
 35 53  1  0  0  0  0
 35 74  1  0  0  0  0
 35 79  2  0  0  0  0
 36 63  1  0  0  0  0
 36 69  1  0  0  0  0
 36 80  2  0  0  0  0
 37 64  1  0  0  0  0
 37 75  1  0  0  0  0
 37 81  2  0  0  0  0
 38 70  1  0  0  0  0
 38 73  1  0  0  0  0
 38 82  2  0  0  0  0
 39 42  1  0  0  0  0
 40 53  1  0  0  0  0
 41 69  1  0  0  0  0
 42 44  1  0  0  0  0
 43 45  1  0  0  0  0
 43 48  1  0  0  0  0
 44 52  1  0  0  0  0
 45 54  1  0  0  0  0
 46 49  1  0  0  0  0
 46 55  1  0  0  0  0
 47 50  1  0  0  0  0
 47 55  1  0  0  0  0
 48 70  1  0  0  0  0
 49 68  1  0  0  0  0
 50 68  1  0  0  0  0
 51 54  1  0  0  0  0
 51 70  1  0  0  0  0
 52 74  1  0  0  0  0
 53 69  1  0  0  0  0
 54 67  1  0  0  0  0
 55 76  1  0  0  0  0
 57 64  1  0  0  0  0
 58 65  1  0  0  0  0
 59 65  1  0  0  0  0
 60 65  1  0  0  0  0
 61 76  1  0  0  0  0
 62 77  1  0  0  0  0
 63 65  1  0  0  0  0
 63 75  1  0  0  0  0
 64 77  1  0  0  0  0
 66 67  1  0  0  0  0
 76 84  1  0  0  0  0
M  CHG  1  77   1
M  ISO  4  38 100  73 100  76 101  84 101
M  END
> <Batch ID>
0154

> <Smiles>
CNC(C)C(=O)NC(C(=O)N1Cc2cc([101O:1][101N:1](C)C3CCN(c4ccc([100NH:0][100C:0](=O)N5CCCC(n6nc(-c7ccc(Oc8ccc(F)cc8F)cc7)c(C(N)=O)c6N)C5)cc4C)CC3)ccc2CC1C(=O)NC1CCCc2ccccc21)C(C)(C)C

> <Shape>
0.385

> <Color>
0.183

> <Negative vol penalty>
0.000

$$$$

  -OEChem-04052303333D

 84 93  0     1  0  0  0  0  0999 V2000
  -26.1688  -38.7333   20.3056 C   0  0  0  0  0  0  0  0  0  0  0  0
  -26.7793  -37.6695   19.6491 C   0  0  0  0  0  0  0  0  0  0  0  0
  -26.1357   -8.3426   22.5224 C   0  0  0  0  0  0  0  0  0  0  0  0
  -24.1263   -8.3453   21.1809 C   0  0  0  0  0  0  0  0  0  0  0  0
  -25.6064  -38.5422   21.5670 C   0  0  0  0  0  0  0  0  0  0  0  0
  -26.8286  -36.4141   20.2541 C   0  0  0  0  0  0  0  0  0  0  0  0
  -29.6111  -20.0390   17.1180 C   0  0  0  0  0  0  0  0  0  0  0  0
  -26.7231  -29.4341   18.6464 C   0  0  0  0  0  0  0  0  0  0  0  0
  -29.4103  -21.4178   17.1763 C   0  0  0  0  0  0  0  0  0  0  0  0
  -25.5380   -7.4538   23.4159 C   0  0  0  0  0  0  0  0  0  0  0  0
  -23.5286   -7.4564   22.0744 C   0  0  0  0  0  0  0  0  0  0  0  0
  -27.4457  -28.2645   18.8779 C   0  0  0  0  0  0  0  0  0  0  0  0
  -23.6243   -4.1420   22.7271 C   0  0  0  0  0  0  0  0  0  0  0  0
  -22.9298   -3.0570   22.1924 C   0  0  0  0  0  0  0  0  0  0  0  0
  -28.8737  -21.2388   19.5222 C   0  0  0  0  0  0  0  0  0  0  0  0
  -26.3709  -28.0327   21.0251 C   0  0  0  0  0  0  0  0  0  0  0  0
  -20.9072   -3.8199   23.2714 C   0  0  0  0  0  0  0  0  0  0  0  0
  -25.4298   -8.7884   21.4049 C   0  0  0  0  0  0  0  0  0  0  0  0
  -26.8069   -9.3845   19.3419 C   0  0  0  0  0  0  0  0  0  0  0  0
  -25.6404  -37.2815   22.1836 C   0  0  0  0  0  0  0  0  0  0  0  0
  -25.8256  -29.9185   19.6088 C   0  0  0  0  0  0  0  0  0  0  0  0
  -29.4397  -19.2445   18.2609 C   0  0  0  0  0  0  0  0  0  0  0  0
  -26.2673  -36.2063   21.5254 C   0  0  0  0  0  0  0  0  0  0  0  0
  -29.0841  -19.8532   19.4776 C   0  0  0  0  0  0  0  0  0  0  0  0
  -25.6363  -29.2073   20.8023 C   0  0  0  0  0  0  0  0  0  0  0  0
  -29.0393  -22.0170   18.3770 C   0  0  0  0  0  0  0  0  0  0  0  0
  -24.2345   -7.0107   23.1919 C   0  0  0  0  0  0  0  0  0  0  0  0
  -27.2718  -27.5651   20.0686 C   0  0  0  0  0  0  0  0  0  0  0  0
  -22.9603   -5.0660   23.5340 C   0  0  0  0  0  0  0  0  0  0  0  0
  -21.5713   -2.8959   22.4645 C   0  0  0  0  0  0  0  0  0  0  0  0
  -21.6018   -4.9050   23.8061 C   0  0  0  0  0  0  0  0  0  0  0  0
  -26.0465   -9.7070   20.4818 C   0  0  0  0  0  0  0  0  0  0  0  0
  -27.1621  -10.6003   18.8108 C   0  0  0  0  0  0  0  0  0  0  0  0
  -27.1605   -8.1007   18.8105 C   0  0  0  0  0  0  0  0  0  0  0  0
  -25.6134  -32.5742   21.3426 C   0  0  0  0  0  0  0  0  0  0  0  0
  -22.7736  -31.2929   22.2459 C   0  0  0  0  0  0  0  0  0  0  0  0
  -28.4590  -24.1709   19.5423 C   0  0  0  0  0  0  0  0  0  0  0  0
  -20.8509  -28.5018   22.6462 C   0  0  0  0  0  0  0  0  0  0  0  0
  -29.0009  -15.6345   19.2084 C   0  0  0  0  0  0  0  0  0  0  0  0
  -25.0607  -37.1348   23.5682 C   0  0  0  0  0  0  0  0  0  0  0  0
  -25.0339  -31.1673   19.3324 C   0  0  0  0  0  0  0  0  0  0  0  0
  -28.8726  -19.0297   20.7219 C   0  0  0  0  0  0  0  0  0  0  0  0
  -29.6812  -17.7603   18.1664 C   0  0  0  0  0  0  0  0  0  0  0  0
  -24.6699  -29.6743   21.8589 C   0  0  0  0  0  0  0  0  0  0  0  0
  -24.8245  -35.6837   23.9790 C   0  0  0  0  0  0  0  0  0  0  0  0
  -25.5688  -15.2692   19.8907 C   0  0  0  0  0  0  0  0  0  0  0  0
  -26.0440  -34.8296   23.6469 C   0  0  0  0  0  0  0  0  0  0  0  0
  -25.4445  -13.7516   20.0195 C   0  0  0  0  0  0  0  0  0  0  0  0
  -29.5281  -17.6559   20.6298 C   0  0  0  0  0  0  0  0  0  0  0  0
  -26.8505  -15.7969   20.5377 C   0  0  0  0  0  0  0  0  0  0  0  0
  -27.9579  -13.6131   20.1875 C   0  0  0  0  0  0  0  0  0  0  0  0
  -26.3190  -34.8236   22.1383 C   0  0  1  0  0  0  0  0  0  0  0  0
  -24.5277  -31.8468   20.6010 C   0  0  1  0  0  0  0  0  0  0  0  0
  -26.7085  -13.0485   19.4939 C   0  0  1  0  0  0  0  0  0  0  0  0
  -18.5866  -27.7668   23.4401 C   0  0  0  0  0  0  0  0  0  0  0  0
  -23.6734  -31.6538   25.1390 C   0  0  0  0  0  0  0  0  0  0  0  0
  -21.8550  -30.0769   25.8281 C   0  0  0  0  0  0  0  0  0  0  0  0
  -21.2780  -32.2317   24.7117 C   0  0  0  0  0  0  0  0  0  0  0  0
  -20.1466  -27.4064   19.9886 C   0  0  0  0  0  0  0  0  0  0  0  0
  -28.3406  -25.6381   19.1741 C   0  0  0  0  0  0  0  0  0  1  0  0
  -22.3201  -30.3718   23.3527 C   0  0  1  0  0  0  0  0  0  0  0  0
  -19.4191  -28.1986   22.2429 C   0  0  2  0  0  0  0  0  0  0  0  0
  -22.3013  -31.0755   24.7390 C   0  0  0  0  0  0  0  0  0  0  0  0
  -25.9254  -11.0245   20.6650 N   0  0  0  0  0  0  0  0  0  0  0  0
  -26.6145  -11.5406   19.6331 N   0  0  0  0  0  0  0  0  0  0  0  0
  -23.9238  -30.9040   21.5448 N   0  0  0  0  0  0  0  0  0  0  0  0
  -29.2354  -17.0137   19.3437 N   0  0  0  0  0  0  0  0  0  0  0  0
  -28.0247  -15.0687   20.0406 N   0  0  0  0  0  0  0  0  0  0  0  0
  -27.8863  -10.9462   17.7253 N   0  0  0  0  0  0  0  0  0  0  0  0
  -26.7126   -6.9539   19.4803 N   0  0  0  0  0  0  0  0  0  0  0  0
  -28.8320  -23.3954   18.4342 N   0  0  0  0  0  0  0  0  0  0  0  0
  -25.4001  -33.9344   21.4606 N   0  0  0  0  0  0  0  0  0  0  0  0
  -21.0278  -29.8383   22.9359 N   0  0  0  0  0  0  0  0  0  0  0  0
  -19.3867  -27.1065   21.2294 N   0  3  0  0  0  0  0  0  0  0  0  0
  -27.8668   -7.9741   17.7816 O   0  0  0  0  0  0  0  0  0  0  0  0
  -26.5728  -31.9476   21.7768 O   0  0  0  0  0  0  0  0  0  0  0  0
  -22.1269  -32.3159   22.0074 O   0  0  0  0  0  0  0  0  0  0  0  0
  -28.2426  -23.7752   20.6830 O   0  0  0  0  0  0  0  0  0  0  0  0
  -21.7241  -27.6388   22.7025 O   0  0  0  0  0  0  0  0  0  0  0  0
  -29.6308  -14.9509   18.3912 O   0  0  0  0  0  0  0  0  0  0  0  0
  -23.6511   -6.1432   24.0634 O   0  0  0  0  0  0  0  0  0  0  0  0
  -27.9836  -26.4117   20.2998 O   0  0  0  0  0  0  0  0  0  1  0  0
  -20.9041   -1.8547   21.9497 F   0  0  0  0  0  0  0  0  0  0  0  0
  -20.9582   -5.7900   24.5796 F   0  0  0  0  0  0  0  0  0  0  0  0
  1  2  1  0  0  0  0
  1  5  2  0  0  0  0
  2  6  2  0  0  0  0
  3 10  2  0  0  0  0
  3 18  1  0  0  0  0
  4 11  1  0  0  0  0
  4 18  2  0  0  0  0
  5 20  1  0  0  0  0
  6 23  1  0  0  0  0
  7  9  2  0  0  0  0
  7 22  1  0  0  0  0
  8 12  2  0  0  0  0
  8 21  1  0  0  0  0
  9 26  1  0  0  0  0
 10 27  1  0  0  0  0
 11 27  2  0  0  0  0
 12 28  1  0  0  0  0
 13 14  2  0  0  0  0
 13 29  1  0  0  0  0
 14 30  1  0  0  0  0
 15 24  1  0  0  0  0
 15 26  2  0  0  0  0
 16 25  1  0  0  0  0
 16 28  2  0  0  0  0
 17 30  2  0  0  0  0
 17 31  1  0  0  0  0
 18 32  1  0  0  0  0
 19 32  1  0  0  0  0
 19 33  2  0  0  0  0
 19 34  1  0  0  0  0
 20 23  2  0  0  0  0
 20 40  1  0  0  0  0
 21 25  2  0  0  0  0
 21 41  1  0  0  0  0
 22 24  2  0  0  0  0
 22 43  1  0  0  0  0
 23 52  1  0  0  0  0
 24 42  1  0  0  0  0
 25 44  1  0  0  0  0
 26 71  1  0  0  0  0
 27 81  1  0  0  0  0
 28 82  1  0  0  0  0
 29 31  2  0  0  0  0
 29 81  1  0  0  0  0
 30 83  1  0  0  0  0
 31 84  1  0  0  0  0
 32 64  2  0  0  0  0
 33 65  1  0  0  0  0
 33 69  1  0  0  0  0
 34 70  1  0  0  0  0
 34 75  2  0  0  0  0
 35 53  1  0  0  0  0
 35 72  1  0  0  0  0
 35 76  2  0  0  0  0
 36 61  1  0  0  0  0
 36 66  1  0  0  0  0
 36 77  2  0  0  0  0
 37 60  1  0  0  0  0
 37 71  1  0  0  0  0
 37 78  2  0  0  0  0
 38 62  1  0  0  0  0
 38 73  1  0  0  0  0
 38 79  2  0  0  0  0
 39 67  1  0  0  0  0
 39 68  1  0  0  0  0
 39 80  2  0  0  0  0
 40 45  1  0  0  0  0
 41 53  1  0  0  0  0
 42 49  1  0  0  0  0
 43 67  1  0  0  0  0
 44 66  1  0  0  0  0
 45 47  1  0  0  0  0
 46 48  1  0  0  0  0
 46 50  1  0  0  0  0
 47 52  1  0  0  0  0
 48 54  1  0  0  0  0
 49 67  1  0  0  0  0
 50 68  1  0  0  0  0
 51 54  1  0  0  0  0
 51 68  1  0  0  0  0
 52 72  1  0  0  0  0
 53 66  1  0  0  0  0
 54 65  1  0  0  0  0
 55 62  1  0  0  0  0
 56 63  1  0  0  0  0
 57 63  1  0  0  0  0
 58 63  1  0  0  0  0
 59 74  1  0  0  0  0
 60 82  1  0  0  0  0
 61 63  1  0  0  0  0
 61 73  1  0  0  0  0
 62 74  1  0  0  0  0
 64 65  1  0  0  0  0
M  CHG  1  74   1
M  ISO  4  39 100  60 101  67 100  82 101
M  END
> <Batch ID>
0154

> <Smiles>
CNC(C)C(=O)NC(C(=O)N1Cc2cc([101O:1][101CH2:1]C(=O)Nc3ccc4c(c3)CC[100N:0]([100C:0](=O)N3CCCC(n5nc(-c6ccc(Oc7ccc(F)cc7F)cc6)c(C(N)=O)c5N)C3)C4)ccc2CC1C(=O)NC1CCCc2ccccc21)C(C)(C)C

> <Shape>
0.301

> <Color>
0.062

> <Negative vol penalty>
0.000

$$$$

  -OEChem-04052303333D

 86 95  0     1  0  0  0  0  0999 V2000
  -31.9067  -31.5590   19.7129 C   0  0  0  0  0  0  0  0  0  0  0  0
  -32.4439  -30.7489   20.7082 C   0  0  0  0  0  0  0  0  0  0  0  0
  -23.2341   -9.7548   20.0315 C   0  0  0  0  0  0  0  0  0  0  0  0
  -23.9284   -9.9431   22.3379 C   0  0  0  0  0  0  0  0  0  0  0  0
  -30.6614  -31.2549   19.1647 C   0  0  0  0  0  0  0  0  0  0  0  0
  -31.7353  -29.6347   21.1567 C   0  0  0  0  0  0  0  0  0  0  0  0
  -34.0721  -24.2789   22.9898 C   0  0  0  0  0  0  0  0  0  0  0  0
  -22.5654   -8.5676   20.3297 C   0  0  0  0  0  0  0  0  0  0  0  0
  -23.2595   -8.7560   22.6361 C   0  0  0  0  0  0  0  0  0  0  0  0
  -34.3416  -23.7566   24.2540 C   0  0  0  0  0  0  0  0  0  0  0  0
  -21.4329   -5.9640   24.0807 C   0  0  0  0  0  0  0  0  0  0  0  0
  -20.6496   -5.9323   25.2343 C   0  0  0  0  0  0  0  0  0  0  0  0
  -32.2173  -22.6138   24.2280 C   0  0  0  0  0  0  0  0  0  0  0  0
  -32.1683  -17.7561   25.0058 C   0  0  0  0  0  0  0  0  0  0  0  0
  -33.3726  -17.5466   27.0816 C   0  0  0  0  0  0  0  0  0  0  0  0
  -19.2944   -7.7330   24.3636 C   0  0  0  0  0  0  0  0  0  0  0  0
  -23.9157  -10.4425   21.0356 C   0  0  0  0  0  0  0  0  0  0  0  0
  -24.0850  -12.9749   20.7787 C   0  0  0  0  0  0  0  0  0  0  0  0
  -29.9416  -30.1310   19.5999 C   0  0  0  0  0  0  0  0  0  0  0  0
  -32.8665  -23.9808   22.3387 C   0  0  0  0  0  0  0  0  0  0  0  0
  -30.4786  -29.3161   20.6147 C   0  0  0  0  0  0  0  0  0  0  0  0
  -31.9361  -23.1314   22.9544 C   0  0  0  0  0  0  0  0  0  0  0  0
  -33.0269  -18.2939   25.9597 C   0  0  0  0  0  0  0  0  0  0  0  0
  -22.5780   -8.0682   21.6320 C   0  0  0  0  0  0  0  0  0  0  0  0
  -33.4129  -22.9263   24.8746 C   0  0  0  0  0  0  0  0  0  0  0  0
  -21.1471   -6.8802   23.0685 C   0  0  0  0  0  0  0  0  0  0  0  0
  -19.5803   -6.8168   25.3758 C   0  0  0  0  0  0  0  0  0  0  0  0
  -20.0778   -7.7647   23.2100 C   0  0  0  0  0  0  0  0  0  0  0  0
  -24.6073  -11.6686   20.7280 C   0  0  0  0  0  0  0  0  0  0  0  0
  -31.6729  -16.4745   25.1993 C   0  0  0  0  0  0  0  0  0  0  0  0
  -25.1322  -13.7784   20.3988 C   0  0  0  0  0  0  0  0  0  0  0  0
  -32.8467  -16.2702   27.2226 C   0  0  0  0  0  0  0  0  0  0  0  0
  -22.7708  -13.4221   21.1373 C   0  0  0  0  0  0  0  0  0  0  0  0
  -30.3902  -25.6884   21.3112 C   0  0  0  0  0  0  0  0  0  0  0  0
  -29.4450  -22.8460   20.0663 C   0  0  0  0  0  0  0  0  0  0  0  0
  -29.5949  -19.4386   20.1833 C   0  0  0  0  0  0  0  0  0  0  0  0
  -30.8861  -14.1096   20.9094 C   0  0  0  0  0  0  0  0  0  0  0  0
  -28.5780  -29.8695   19.0108 C   0  0  0  0  0  0  0  0  0  0  0  0
  -32.6026  -24.5306   20.9637 C   0  0  0  0  0  0  0  0  0  0  0  0
  -30.6357  -22.7644   22.2892 C   0  0  0  0  0  0  0  0  0  0  0  0
  -28.0598  -28.4586   19.2771 C   0  0  0  0  0  0  0  0  0  0  0  0
  -29.3238  -13.1189   17.8994 C   0  0  0  0  0  0  0  0  0  0  0  0
  -28.2630  -28.0827   20.7415 C   0  0  0  0  0  0  0  0  0  0  0  0
  -27.9076  -12.7350   18.3191 C   0  0  0  0  0  0  0  0  0  0  0  0
  -30.3005  -14.3756   24.5206 C   0  0  0  0  0  0  0  0  0  0  0  0
  -30.3344  -12.6992   18.9584 C   0  0  0  0  0  0  0  0  0  0  0  0
  -29.7387  -13.8929   23.1900 C   0  0  0  0  0  0  0  0  0  0  0  0
  -31.3142  -15.6551   22.7962 C   0  0  0  0  0  0  0  0  0  0  0  0
  -28.6379  -12.9331   20.7522 C   0  0  0  0  0  0  0  0  0  0  0  0
  -29.7515  -28.0848   21.1101 C   0  0  1  0  0  0  0  0  0  0  0  0
  -30.7370  -15.8165   24.2096 C   0  0  2  0  0  0  0  0  0  0  0  0
  -31.1186  -24.5752   20.6128 C   0  0  1  0  0  0  0  0  0  0  0  0
  -27.5757  -13.3176   19.7016 C   0  0  2  0  0  0  0  0  0  0  0  0
  -28.6842  -17.3871   19.0611 C   0  0  0  0  0  0  0  0  0  0  0  0
  -35.7807  -22.2741   27.2158 C   0  0  0  0  0  0  0  0  0  0  0  0
  -26.7846  -23.2420   21.5070 C   0  0  0  0  0  0  0  0  0  0  0  0
  -26.3088  -20.8101   21.1497 C   0  0  0  0  0  0  0  0  0  0  0  0
  -26.5890  -22.3257   19.1883 C   0  0  0  0  0  0  0  0  0  0  0  0
  -32.2952  -18.5468   19.3635 C   0  0  0  0  0  0  0  0  0  0  0  0
  -34.4335  -20.2053   26.7302 C   0  0  0  0  0  0  0  0  0  0  0  0
  -28.6143  -21.6861   20.5598 C   0  0  1  0  0  0  0  0  0  0  0  0
  -29.8160  -18.4022   19.0963 C   0  0  2  0  0  0  0  0  0  0  0  0
  -34.8356  -21.5933   26.2366 C   0  0  1  0  0  0  0  0  0  1  0  0
  -27.0977  -22.0242   20.6148 C   0  0  0  0  0  0  0  0  0  0  0  0
  -25.8867  -11.6393   20.3458 N   0  0  0  0  0  0  0  0  0  0  0  0
  -26.1772  -12.9372   20.1529 N   0  0  0  0  0  0  0  0  0  0  0  0
  -32.0220  -15.7768   26.2888 N   0  3  0  0  0  0  0  0  0  0  0  0
  -30.4209  -23.3322   20.9479 N   0  0  0  0  0  0  0  0  0  0  0  0
  -29.9944  -13.2358   20.2775 N   0  0  0  0  0  0  0  0  0  0  0  0
  -30.5570  -14.5677   22.1846 N   0  0  0  0  0  0  0  0  0  0  0  0
  -25.2518  -15.1152   20.2544 N   0  0  0  0  0  0  0  0  0  0  0  0
  -33.1579  -15.4714   28.3315 N   0  0  0  0  0  0  0  0  0  0  0  0
  -21.8154  -12.4638   21.5024 N   0  0  0  0  0  0  0  0  0  0  0  0
  -33.5471  -19.5935   25.7890 N   0  0  0  0  0  0  0  0  0  0  0  0
  -30.3952  -26.8849   20.6199 N   0  0  0  0  0  0  0  0  0  0  0  0
  -28.9433  -20.5538   19.7006 N   0  0  0  0  0  0  0  0  0  0  0  0
  -31.0946  -17.6726   19.3287 N   0  3  0  0  0  0  0  0  0  0  0  0
  -22.4484  -14.6342   21.1183 O   0  0  0  0  0  0  0  0  0  0  0  0
  -29.8614  -25.4771   22.3963 O   0  0  0  0  0  0  0  0  0  0  0  0
  -29.2404  -23.2994   18.9375 O   0  0  0  0  0  0  0  0  0  0  0  0
  -29.9601  -19.2737   21.3451 O   0  0  0  0  0  0  0  0  0  0  0  0
  -31.9543  -14.4360   20.3743 O   0  0  0  0  0  0  0  0  0  0  0  0
  -21.9253   -6.9099   21.9234 O   0  0  0  0  0  0  0  0  0  0  0  0
  -33.6746  -22.4128   26.1158 O   0  0  0  0  0  0  0  0  0  1  0  0
  -18.8272   -6.7852   26.4830 F   0  0  0  0  0  0  0  0  0  0  0  0
  -19.7976   -8.6464   22.2404 F   0  0  0  0  0  0  0  0  0  0  0  0
  1  2  1  0  0  0  0
  1  5  2  0  0  0  0
  2  6  2  0  0  0  0
  3  8  2  0  0  0  0
  3 17  1  0  0  0  0
  4  9  1  0  0  0  0
  4 17  2  0  0  0  0
  5 19  1  0  0  0  0
  6 21  1  0  0  0  0
  7 10  2  0  0  0  0
  7 20  1  0  0  0  0
  8 24  1  0  0  0  0
  9 24  2  0  0  0  0
 10 25  1  0  0  0  0
 11 12  2  0  0  0  0
 11 26  1  0  0  0  0
 12 27  1  0  0  0  0
 13 22  1  0  0  0  0
 13 25  2  0  0  0  0
 14 23  2  0  0  0  0
 14 30  1  0  0  0  0
 15 23  1  0  0  0  0
 15 32  2  0  0  0  0
 16 27  2  0  0  0  0
 16 28  1  0  0  0  0
 17 29  1  0  0  0  0
 18 29  1  0  0  0  0
 18 31  2  0  0  0  0
 18 33  1  0  0  0  0
 19 21  2  0  0  0  0
 19 38  1  0  0  0  0
 20 22  2  0  0  0  0
 20 39  1  0  0  0  0
 21 50  1  0  0  0  0
 22 40  1  0  0  0  0
 23 74  1  0  0  0  0
 24 83  1  0  0  0  0
 25 84  1  0  0  0  0
 26 28  2  0  0  0  0
 26 83  1  0  0  0  0
 27 85  1  0  0  0  0
 28 86  1  0  0  0  0
 29 65  2  0  0  0  0
 30 51  1  0  0  0  0
 30 67  2  0  0  0  0
 31 66  1  0  0  0  0
 31 71  1  0  0  0  0
 32 67  1  0  0  0  0
 32 72  1  0  0  0  0
 33 73  1  0  0  0  0
 33 78  2  0  0  0  0
 34 52  1  0  0  0  0
 34 75  1  0  0  0  0
 34 79  2  0  0  0  0
 35 61  1  0  0  0  0
 35 68  1  0  0  0  0
 35 80  2  0  0  0  0
 36 62  1  0  0  0  0
 36 76  1  0  0  0  0
 36 81  2  0  0  0  0
 37 69  1  0  0  0  0
 37 70  1  0  0  0  0
 37 82  2  0  0  0  0
 38 41  1  0  0  0  0
 39 52  1  0  0  0  0
 40 68  1  0  0  0  0
 41 43  1  0  0  0  0
 42 44  1  0  0  0  0
 42 46  1  0  0  0  0
 43 50  1  0  0  0  0
 44 53  1  0  0  0  0
 45 47  1  0  0  0  0
 45 51  1  0  0  0  0
 46 69  1  0  0  0  0
 47 70  1  0  0  0  0
 48 51  1  0  0  0  0
 48 70  1  0  0  0  0
 49 53  1  0  0  0  0
 49 69  1  0  0  0  0
 50 75  1  0  0  0  0
 52 68  1  0  0  0  0
 53 66  1  0  0  0  0
 54 62  1  0  0  0  0
 55 63  1  0  0  0  0
 56 64  1  0  0  0  0
 57 64  1  0  0  0  0
 58 64  1  0  0  0  0
 59 77  1  0  0  0  0
 60 63  1  0  0  0  0
 60 74  1  0  0  0  0
 61 64  1  0  0  0  0
 61 76  1  0  0  0  0
 62 77  1  0  0  0  0
 63 84  1  0  0  0  0
 65 66  1  0  0  0  0
M  CHG  2  67   1  77   1
M  ISO  4  37 100  63 101  70 100  84 101
M  END
> <Batch ID>
0154

> <Smiles>
CNC(C)C(=O)NC(C(=O)N1Cc2cc([101O:1][101CH:1](C)CNc3cc(N)nc(C4CC[100N:0]([100C:0](=O)N5CCCC(n6nc(-c7ccc(Oc8ccc(F)cc8F)cc7)c(C(N)=O)c6N)C5)C4)c3)ccc2CC1C(=O)NC1CCCc2ccccc21)C(C)(C)C

> <Shape>
0.255

> <Color>
0.197

> <Negative vol penalty>
0.000

$$$$

  -OEChem-04052303333D

 81 89  0     1  0  0  0  0  0999 V2000
  -27.3605  -22.7344   18.6536 C   0  0  0  0  0  0  0  0  0  0  0  0
  -26.2017  -23.2020   19.2651 C   0  0  0  0  0  0  0  0  0  0  0  0
  -26.4668  -14.1447   21.2972 C   0  0  0  0  0  0  0  0  0  0  0  0
  -24.3064  -14.1457   20.2156 C   0  0  0  0  0  0  0  0  0  0  0  0
  -28.6031  -23.2309   19.0452 C   0  0  0  0  0  0  0  0  0  0  0  0
  -26.2850  -24.1657   20.2695 C   0  0  0  0  0  0  0  0  0  0  0  0
  -22.8575  -27.8520   19.7138 C   0  0  0  0  0  0  0  0  0  0  0  0
  -26.5243  -12.7559   21.1812 C   0  0  0  0  0  0  0  0  0  0  0  0
  -24.3639  -12.7568   20.0996 C   0  0  0  0  0  0  0  0  0  0  0  0
  -21.5492  -27.5690   20.1038 C   0  0  0  0  0  0  0  0  0  0  0  0
  -23.8672  -10.0680   22.0882 C   0  0  0  0  0  0  0  0  0  0  0  0
  -22.7242   -9.3419   22.4225 C   0  0  0  0  0  0  0  0  0  0  0  0
  -21.9227  -28.7357   22.1819 C   0  0  0  0  0  0  0  0  0  0  0  0
  -19.2684  -23.0007   22.6251 C   0  0  0  0  0  0  0  0  0  0  0  0
  -22.6335   -8.4513   20.1784 C   0  0  0  0  0  0  0  0  0  0  0  0
  -18.6575  -22.8226   20.4870 C   0  0  0  0  0  0  0  0  0  0  0  0
  -25.3578  -14.8396   20.8145 C   0  0  0  0  0  0  0  0  0  0  0  0
  -25.7624  -17.2252   20.0065 C   0  0  0  0  0  0  0  0  0  0  0  0
  -28.7009  -24.2083   20.0481 C   0  0  0  0  0  0  0  0  0  0  0  0
  -23.7131  -28.5708   20.5610 C   0  0  0  0  0  0  0  0  0  0  0  0
  -27.5302  -24.6748   20.6758 C   0  0  0  0  0  0  0  0  0  0  0  0
  -23.2406  -29.0287   21.7992 C   0  0  0  0  0  0  0  0  0  0  0  0
  -18.4283  -23.5537   21.6292 C   0  0  0  0  0  0  0  0  0  0  0  0
  -25.4728  -12.0619   20.5824 C   0  0  0  0  0  0  0  0  0  0  0  0
  -21.0825  -28.0084   21.3392 C   0  0  0  0  0  0  0  0  0  0  0  0
  -24.3934   -9.9858   20.7989 C   0  0  0  0  0  0  0  0  0  0  0  0
  -22.1073   -8.5335   21.4677 C   0  0  0  0  0  0  0  0  0  0  0  0
  -23.7766   -9.1775   19.8441 C   0  0  0  0  0  0  0  0  0  0  0  0
  -25.2976  -16.2742   20.9345 C   0  0  0  0  0  0  0  0  0  0  0  0
  -25.4732  -18.4377   20.5833 C   0  0  0  0  0  0  0  0  0  0  0  0
  -19.9508  -21.9708   22.0204 C   0  0  0  0  0  0  0  0  0  0  0  0
  -26.3986  -17.0300   18.7365 C   0  0  0  0  0  0  0  0  0  0  0  0
  -26.4674  -27.9482   22.0205 C   0  0  0  0  0  0  0  0  0  0  0  0
  -18.1891  -25.9932   22.1968 C   0  0  0  0  0  0  0  0  0  0  0  0
  -26.2955  -31.0831   22.8364 C   0  0  0  0  0  0  0  0  0  0  0  0
  -24.3509  -33.8386   23.3581 C   0  0  0  0  0  0  0  0  0  0  0  0
  -21.4334  -21.0068   23.8144 C   0  0  0  0  0  0  0  0  0  0  0  0
  -30.0696  -24.6804   20.4706 C   0  0  0  0  0  0  0  0  0  0  0  0
  -25.1132  -28.8909   20.1143 C   0  0  0  0  0  0  0  0  0  0  0  0
  -24.1128  -29.8216   22.7368 C   0  0  0  0  0  0  0  0  0  0  0  0
  -30.0445  -25.9733   21.2817 C   0  0  0  0  0  0  0  0  0  0  0  0
  -24.5469  -19.9701   25.1960 C   0  0  0  0  0  0  0  0  0  0  0  0
  -28.9733  -25.9029   22.3654 C   0  0  0  0  0  0  0  0  0  0  0  0
  -25.1048  -19.0042   24.1482 C   0  0  0  0  0  0  0  0  0  0  0  0
  -23.0297  -19.8499   25.3273 C   0  0  0  0  0  0  0  0  0  0  0  0
  -22.8436  -19.0080   23.0195 C   0  0  0  0  0  0  0  0  0  0  0  0
  -27.5777  -25.7379   21.7519 C   0  0  1  0  0  0  0  0  0  0  0  0
  -26.0578  -29.1869   21.2751 C   0  0  1  0  0  0  0  0  0  0  0  0
  -24.3604  -19.1381   22.8052 C   0  0  2  0  0  0  0  0  0  0  0  0
  -24.4911  -36.2453   24.0549 C   0  0  0  0  0  0  0  0  0  0  0  0
  -26.6616  -30.2186   25.7396 C   0  0  0  0  0  0  0  0  0  0  0  0
  -25.8541  -32.4818   26.4424 C   0  0  0  0  0  0  0  0  0  0  0  0
  -27.9406  -32.2678   25.0921 C   0  0  0  0  0  0  0  0  0  0  0  0
  -23.2579  -34.7719   20.7709 C   0  0  0  0  0  0  0  0  0  0  0  0
  -19.2234  -26.5298   21.2235 C   0  0  0  0  0  0  0  0  0  1  0  0
  -17.4735  -24.7132   21.7864 C   0  0  2  0  0  0  0  0  0  0  0  0
  -25.7030  -31.8568   23.9893 C   0  0  1  0  0  0  0  0  0  0  0  0
  -24.4904  -35.2742   22.8846 C   0  0  2  0  0  0  0  0  0  0  0  0
  -26.5238  -31.6896   25.2992 C   0  0  0  0  0  0  0  0  0  0  0  0
  -24.7545  -16.8343   22.0187 N   0  0  0  0  0  0  0  0  0  0  0  0
  -24.8763  -18.1504   21.7755 N   0  0  0  0  0  0  0  0  0  0  0  0
  -25.4760  -30.1037   22.2576 N   0  0  0  0  0  0  0  0  0  0  0  0
  -22.3918  -19.9912   24.0165 N   0  0  0  0  0  0  0  0  0  0  0  0
  -25.6739  -19.7109   20.1819 N   0  0  0  0  0  0  0  0  0  0  0  0
  -26.6200  -15.7185   18.2947 N   0  0  0  0  0  0  0  0  0  0  0  0
  -20.9195  -21.0651   22.5194 N   0  0  0  0  0  0  0  0  0  0  0  0
  -27.0996  -27.0026   21.2359 N   0  0  0  0  0  0  0  0  0  0  0  0
  -25.5792  -33.2372   23.5338 N   0  0  0  0  0  0  0  0  0  0  0  0
  -16.3676  -24.4123   22.7502 N   0  3  0  0  0  0  0  0  0  0  0  0
  -23.3634  -35.6322   21.9775 N   0  3  0  0  0  0  0  0  0  0  0  0
  -26.7748  -17.9902   18.0223 O   0  0  0  0  0  0  0  0  0  0  0  0
  -26.2288  -27.8577   23.2191 O   0  0  0  0  0  0  0  0  0  0  0  0
  -17.9461  -26.5657   23.2595 O   0  0  0  0  0  0  0  0  0  0  0  0
  -27.4406  -31.3431   22.4585 O   0  0  0  0  0  0  0  0  0  0  0  0
  -23.2614  -33.3054   23.5560 O   0  0  0  0  0  0  0  0  0  0  0  0
  -21.1136  -21.7860   24.7159 O   0  0  0  0  0  0  0  0  0  0  0  0
  -19.5841  -21.8556   20.7170 O   0  0  0  0  0  0  0  0  0  0  0  0
  -25.5287  -10.7068   20.4688 O   0  0  0  0  0  0  0  0  0  0  0  0
  -19.8062  -27.7330   21.7225 O   0  0  0  0  0  0  0  0  0  1  0  0
  -21.0106   -7.8350   21.7893 F   0  0  0  0  0  0  0  0  0  0  0  0
  -24.2781   -9.0936   18.6043 F   0  0  0  0  0  0  0  0  0  0  0  0
  1  2  1  0  0  0  0
  1  5  2  0  0  0  0
  2  6  2  0  0  0  0
  3  8  2  0  0  0  0
  3 17  1  0  0  0  0
  4  9  1  0  0  0  0
  4 17  2  0  0  0  0
  5 19  1  0  0  0  0
  6 21  1  0  0  0  0
  7 10  2  0  0  0  0
  7 20  1  0  0  0  0
  8 24  1  0  0  0  0
  9 24  2  0  0  0  0
 10 25  1  0  0  0  0
 11 12  2  0  0  0  0
 11 26  1  0  0  0  0
 12 27  1  0  0  0  0
 13 22  1  0  0  0  0
 13 25  2  0  0  0  0
 14 23  1  0  0  0  0
 14 31  2  0  0  0  0
 15 27  2  0  0  0  0
 15 28  1  0  0  0  0
 16 23  2  0  0  0  0
 16 77  1  0  0  0  0
 17 29  1  0  0  0  0
 18 29  1  0  0  0  0
 18 30  2  0  0  0  0
 18 32  1  0  0  0  0
 19 21  2  0  0  0  0
 19 38  1  0  0  0  0
 20 22  2  0  0  0  0
 20 39  1  0  0  0  0
 21 47  1  0  0  0  0
 22 40  1  0  0  0  0
 23 56  1  0  0  0  0
 24 78  1  0  0  0  0
 25 79  1  0  0  0  0
 26 28  2  0  0  0  0
 26 78  1  0  0  0  0
 27 80  1  0  0  0  0
 28 81  1  0  0  0  0
 29 60  2  0  0  0  0
 30 61  1  0  0  0  0
 30 64  1  0  0  0  0
 31 66  1  0  0  0  0
 31 77  1  0  0  0  0
 32 65  1  0  0  0  0
 32 71  2  0  0  0  0
 33 48  1  0  0  0  0
 33 67  1  0  0  0  0
 33 72  2  0  0  0  0
 34 55  1  0  0  0  0
 34 56  1  0  0  0  0
 34 73  2  0  0  0  0
 35 57  1  0  0  0  0
 35 62  1  0  0  0  0
 35 74  2  0  0  0  0
 36 58  1  0  0  0  0
 36 68  1  0  0  0  0
 36 75  2  0  0  0  0
 37 63  1  0  0  0  0
 37 66  1  0  0  0  0
 37 76  2  0  0  0  0
 38 41  1  0  0  0  0
 39 48  1  0  0  0  0
 40 62  1  0  0  0  0
 41 43  1  0  0  0  0
 42 44  1  0  0  0  0
 42 45  1  0  0  0  0
 43 47  1  0  0  0  0
 44 49  1  0  0  0  0
 45 63  1  0  0  0  0
 46 49  1  0  0  0  0
 46 63  1  0  0  0  0
 47 67  1  0  0  0  0
 48 62  1  0  0  0  0
 49 61  1  0  0  0  0
 50 58  1  0  0  0  0
 51 59  1  0  0  0  0
 52 59  1  0  0  0  0
 53 59  1  0  0  0  0
 54 70  1  0  0  0  0
 55 79  1  0  0  0  0
 56 69  1  0  0  0  0
 57 59  1  0  0  0  0
 57 68  1  0  0  0  0
 58 70  1  0  0  0  0
 60 61  1  0  0  0  0
M  CHG  2  69   1  70   1
M  ISO  4  37 100  55 101  66 100  79 101
M  END
> <Batch ID>
0154

> <Smiles>
CNC(C)C(=O)NC(C(=O)N1Cc2cc([101O:1][101CH2:1]C(=O)C(N)c3coc([100NH:0][100C:0](=O)N4CCCC(n5nc(-c6ccc(Oc7ccc(F)cc7F)cc6)c(C(N)=O)c5N)C4)c3)ccc2CC1C(=O)NC1CCCc2ccccc21)C(C)(C)C

> <Shape>
0.242

> <Color>
0.069

> <Negative vol penalty>
0.000

$$$$

  -OEChem-04052303333D

 84 93  0     1  0  0  0  0  0999 V2000
  -18.0360  -24.3782   24.0992 C   0  0  0  0  0  0  0  0  0  0  0  0
  -19.2855  -23.9699   23.6439 C   0  0  0  0  0  0  0  0  0  0  0  0
  -23.0409  -10.0150   19.9796 C   0  0  0  0  0  0  0  0  0  0  0  0
  -23.6894   -9.9410   22.3058 C   0  0  0  0  0  0  0  0  0  0  0  0
  -17.5941  -25.6766   23.8487 C   0  0  0  0  0  0  0  0  0  0  0  0
  -20.0936  -24.8596   22.9368 C   0  0  0  0  0  0  0  0  0  0  0  0
  -24.9129  -24.7610   24.4891 C   0  0  0  0  0  0  0  0  0  0  0  0
  -22.2424   -8.8867   20.1663 C   0  0  0  0  0  0  0  0  0  0  0  0
  -22.8908   -8.8127   22.4925 C   0  0  0  0  0  0  0  0  0  0  0  0
  -25.7032  -23.7017   24.0452 C   0  0  0  0  0  0  0  0  0  0  0  0
  -23.0811   -5.4951   21.8695 C   0  0  0  0  0  0  0  0  0  0  0  0
  -23.6217   -4.4306   22.5908 C   0  0  0  0  0  0  0  0  0  0  0  0
  -28.4741  -18.9911   19.0720 C   0  0  0  0  0  0  0  0  0  0  0  0
  -26.6633  -25.1331   22.3574 C   0  0  0  0  0  0  0  0  0  0  0  0
  -28.8913  -20.4583   17.1751 C   0  0  0  0  0  0  0  0  0  0  0  0
  -21.8481   -4.6329   24.2189 C   0  0  0  0  0  0  0  0  0  0  0  0
  -23.7645  -10.5421   21.0493 C   0  0  0  0  0  0  0  0  0  0  0  0
  -24.2079  -13.0539   21.0065 C   0  0  0  0  0  0  0  0  0  0  0  0
  -18.4012  -26.5857   23.1466 C   0  0  0  0  0  0  0  0  0  0  0  0
  -24.9840  -26.0134   23.8624 C   0  0  0  0  0  0  0  0  0  0  0  0
  -19.6616  -26.1710   22.6756 C   0  0  0  0  0  0  0  0  0  0  0  0
  -28.7534  -17.9133   18.2502 C   0  0  0  0  0  0  0  0  0  0  0  0
  -25.8747  -26.2074   22.7969 C   0  0  0  0  0  0  0  0  0  0  0  0
  -29.0959  -18.0968   16.9070 C   0  0  0  0  0  0  0  0  0  0  0  0
  -28.5470  -20.2737   18.5242 C   0  0  0  0  0  0  0  0  0  0  0  0
  -22.1673   -8.2855   21.4227 C   0  0  0  0  0  0  0  0  0  0  0  0
  -26.5765  -23.8868   22.9774 C   0  0  0  0  0  0  0  0  0  0  0  0
  -21.9240   -6.1285   22.3230 C   0  0  0  0  0  0  0  0  0  0  0  0
  -23.0053   -3.9995   23.7654 C   0  0  0  0  0  0  0  0  0  0  0  0
  -29.1687  -19.3630   16.3540 C   0  0  0  0  0  0  0  0  0  0  0  0
  -21.3075   -5.6974   23.4976 C   0  0  0  0  0  0  0  0  0  0  0  0
  -24.5900  -11.7073   20.8569 C   0  0  0  0  0  0  0  0  0  0  0  0
  -25.3441  -13.7678   20.7133 C   0  0  0  0  0  0  0  0  0  0  0  0
  -22.9394  -13.6098   21.3774 C   0  0  0  0  0  0  0  0  0  0  0  0
  -22.9304  -27.8457   22.2720 C   0  0  0  0  0  0  0  0  0  0  0  0
  -25.3797  -29.9716   22.3347 C   0  0  0  0  0  0  0  0  0  0  0  0
  -27.9111  -21.4083   20.6788 C   0  0  0  0  0  0  0  0  0  0  0  0
  -28.7394  -30.5141   22.5890 C   0  0  0  0  0  0  0  0  0  0  0  0
  -29.6907  -14.5103   17.2131 C   0  0  0  0  0  0  0  0  0  0  0  0
  -17.8610  -27.9641   22.8590 C   0  0  0  0  0  0  0  0  0  0  0  0
  -24.1443  -27.1533   24.3703 C   0  0  0  0  0  0  0  0  0  0  0  0
  -28.7240  -16.4573   18.5847 C   0  0  0  0  0  0  0  0  0  0  0  0
  -26.0034  -27.5380   22.1031 C   0  0  0  0  0  0  0  0  0  0  0  0
  -29.3503  -16.7808   16.2531 C   0  0  0  0  0  0  0  0  0  0  0  0
  -18.9337  -28.9609   22.4277 C   0  0  0  0  0  0  0  0  0  0  0  0
  -30.1289  -12.2527   20.0708 C   0  0  0  0  0  0  0  0  0  0  0  0
  -19.8441  -28.3419   21.3718 C   0  0  0  0  0  0  0  0  0  0  0  0
  -28.6874  -11.9892   20.5119 C   0  0  0  0  0  0  0  0  0  0  0  0
  -30.2299  -12.5190   18.5702 C   0  0  0  0  0  0  0  0  0  0  0  0
  -27.8946  -13.2990   18.5102 C   0  0  0  0  0  0  0  0  0  0  0  0
  -20.5773  -27.1146   21.9265 C   0  0  1  0  0  0  0  0  0  0  0  0
  -23.9235  -28.2441   23.3269 C   0  0  1  0  0  0  0  0  0  0  0  0
  -27.7416  -13.1038   20.0244 C   0  0  1  0  0  0  0  0  0  0  0  0
  -30.4448  -32.3549   22.5676 C   0  0  0  0  0  0  0  0  0  0  0  0
  -25.1040  -30.1884   19.3037 C   0  0  0  0  0  0  0  0  0  0  0  0
  -27.3695  -31.2524   19.2436 C   0  0  0  0  0  0  0  0  0  0  0  0
  -25.5043  -32.3626   20.4729 C   0  0  0  0  0  0  0  0  0  0  0  0
  -29.6303  -29.8784   25.3388 C   0  0  0  0  0  0  0  0  0  0  0  0
  -27.7005  -22.8292   21.1680 C   0  0  0  0  0  0  0  0  0  1  0  0
  -26.5551  -30.2751   21.4374 C   0  0  1  0  0  0  0  0  0  0  0  0
  -29.5413  -31.4892   23.4319 C   0  0  2  0  0  0  0  0  0  0  0  0
  -26.1296  -30.9939   20.1260 C   0  0  0  0  0  0  0  0  0  0  0  0
  -25.8689  -11.5711   20.4966 N   0  0  0  0  0  0  0  0  0  0  0  0
  -26.3003  -12.8414   20.4172 N   0  0  0  0  0  0  0  0  0  0  0  0
  -25.1566  -28.6198   22.6323 N   0  0  0  0  0  0  0  0  0  0  0  0
  -29.1722  -15.8016   17.3382 N   0  0  0  0  0  0  0  0  0  0  0  0
  -29.2936  -13.5662   18.1650 N   0  0  0  0  0  0  0  0  0  0  0  0
  -25.6085  -15.0913   20.6824 N   0  0  0  0  0  0  0  0  0  0  0  0
  -21.8784  -12.7338   21.6445 N   0  0  0  0  0  0  0  0  0  0  0  0
  -28.2718  -21.3843   19.3236 N   0  0  0  0  0  0  0  0  0  0  0  0
  -21.6816  -27.5233   22.7680 N   0  0  0  0  0  0  0  0  0  0  0  0
  -27.5054  -31.0271   22.2497 N   0  0  0  0  0  0  0  0  0  0  0  0
  -30.3915  -30.7519   24.4089 N   0  3  0  0  0  0  0  0  0  0  0  0
  -22.7478  -14.8472   21.4532 O   0  0  0  0  0  0  0  0  0  0  0  0
  -23.2715  -27.8333   21.0950 O   0  0  0  0  0  0  0  0  0  0  0  0
  -24.6892  -30.9004   22.7617 O   0  0  0  0  0  0  0  0  0  0  0  0
  -27.7682  -20.4445   21.4239 O   0  0  0  0  0  0  0  0  0  0  0  0
  -29.1666  -29.4093   22.2610 O   0  0  0  0  0  0  0  0  0  0  0  0
  -30.5103  -14.2282   16.3296 O   0  0  0  0  0  0  0  0  0  0  0  0
  -21.3880   -7.1847   21.6054 O   0  0  0  0  0  0  0  0  0  0  0  0
  -27.3566  -22.8437   22.5372 O   0  0  0  0  0  0  0  0  0  1  0  0
  -23.5237   -2.9763   24.4571 F   0  0  0  0  0  0  0  0  0  0  0  0
  -29.4975  -19.5390   15.0688 F   0  0  0  0  0  0  0  0  0  0  0  0
  -20.1950   -6.3013   23.9376 F   0  0  0  0  0  0  0  0  0  0  0  0
  1  2  1  0  0  0  0
  1  5  2  0  0  0  0
  2  6  2  0  0  0  0
  3  8  2  0  0  0  0
  3 17  1  0  0  0  0
  4  9  1  0  0  0  0
  4 17  2  0  0  0  0
  5 19  1  0  0  0  0
  6 21  1  0  0  0  0
  7 10  2  0  0  0  0
  7 20  1  0  0  0  0
  8 26  1  0  0  0  0
  9 26  2  0  0  0  0
 10 27  1  0  0  0  0
 11 12  2  0  0  0  0
 11 28  1  0  0  0  0
 12 29  1  0  0  0  0
 13 22  1  0  0  0  0
 13 25  2  0  0  0  0
 14 23  1  0  0  0  0
 14 27  2  0  0  0  0
 15 25  1  0  0  0  0
 15 30  2  0  0  0  0
 16 29  2  0  0  0  0
 16 31  1  0  0  0  0
 17 32  1  0  0  0  0
 18 32  1  0  0  0  0
 18 33  2  0  0  0  0
 18 34  1  0  0  0  0
 19 21  2  0  0  0  0
 19 40  1  0  0  0  0
 20 23  2  0  0  0  0
 20 41  1  0  0  0  0
 21 51  1  0  0  0  0
 22 24  2  0  0  0  0
 22 42  1  0  0  0  0
 23 43  1  0  0  0  0
 24 30  1  0  0  0  0
 24 44  1  0  0  0  0
 25 70  1  0  0  0  0
 26 80  1  0  0  0  0
 27 81  1  0  0  0  0
 28 31  2  0  0  0  0
 28 80  1  0  0  0  0
 29 82  1  0  0  0  0
 30 83  1  0  0  0  0
 31 84  1  0  0  0  0
 32 63  2  0  0  0  0
 33 64  1  0  0  0  0
 33 68  1  0  0  0  0
 34 69  1  0  0  0  0
 34 74  2  0  0  0  0
 35 52  1  0  0  0  0
 35 71  1  0  0  0  0
 35 75  2  0  0  0  0
 36 60  1  0  0  0  0
 36 65  1  0  0  0  0
 36 76  2  0  0  0  0
 37 59  1  0  0  0  0
 37 70  1  0  0  0  0
 37 77  2  0  0  0  0
 38 61  1  0  0  0  0
 38 72  1  0  0  0  0
 38 78  2  0  0  0  0
 39 66  1  0  0  0  0
 39 67  1  0  0  0  0
 39 79  2  0  0  0  0
 40 45  1  0  0  0  0
 41 52  1  0  0  0  0
 42 66  1  0  0  0  0
 43 65  1  0  0  0  0
 44 66  1  0  0  0  0
 45 47  1  0  0  0  0
 46 48  1  0  0  0  0
 46 49  1  0  0  0  0
 47 51  1  0  0  0  0
 48 53  1  0  0  0  0
 49 67  1  0  0  0  0
 50 53  1  0  0  0  0
 50 67  1  0  0  0  0
 51 71  1  0  0  0  0
 52 65  1  0  0  0  0
 53 64  1  0  0  0  0
 54 61  1  0  0  0  0
 55 62  1  0  0  0  0
 56 62  1  0  0  0  0
 57 62  1  0  0  0  0
 58 73  1  0  0  0  0
 59 81  1  0  0  0  0
 60 62  1  0  0  0  0
 60 72  1  0  0  0  0
 61 73  1  0  0  0  0
 63 64  1  0  0  0  0
M  CHG  1  73   1
M  ISO  4  39 100  59 101  66 100  81 101
M  END
> <Batch ID>
0154

> <Smiles>
CNC(C)C(=O)NC(C(=O)N1Cc2cc([101O:1][101CH2:1]C(=O)Nc3cc(F)c4c(c3)C[100N:0]([100C:0](=O)N3CCCC(n5nc(-c6ccc(Oc7ccc(F)cc7F)cc6)c(C(N)=O)c5N)C3)C4)ccc2CC1C(=O)NC1CCCc2ccccc21)C(C)(C)C

> <Shape>
0.295

> <Color>
0.193

> <Negative vol penalty>
0.000

$$$$

  -OEChem-04052303333D

 87 96  0     1  0  0  0  0  0999 V2000
  -27.5489  -38.3470   23.1811 C   0  0  0  0  0  0  0  0  0  0  0  0
  -28.1421  -37.2056   22.6513 C   0  0  0  0  0  0  0  0  0  0  0  0
  -23.1891  -10.1676   21.9654 C   0  0  0  0  0  0  0  0  0  0  0  0
  -24.7149   -8.5648   20.9958 C   0  0  0  0  0  0  0  0  0  0  0  0
  -26.5351  -38.2275   24.1308 C   0  0  0  0  0  0  0  0  0  0  0  0
  -27.7225  -35.9440   23.0716 C   0  0  0  0  0  0  0  0  0  0  0  0
  -27.4049  -30.8520   19.6839 C   0  0  0  0  0  0  0  0  0  0  0  0
  -22.1633   -9.2240   21.9109 C   0  0  0  0  0  0  0  0  0  0  0  0
  -23.6891   -7.6212   20.9413 C   0  0  0  0  0  0  0  0  0  0  0  0
  -28.2628  -29.7616   19.5467 C   0  0  0  0  0  0  0  0  0  0  0  0
  -22.1276   -5.5160   23.0744 C   0  0  0  0  0  0  0  0  0  0  0  0
  -22.4184   -4.2196   23.4990 C   0  0  0  0  0  0  0  0  0  0  0  0
  -27.6220  -21.2558   18.2338 C   0  0  0  0  0  0  0  0  0  0  0  0
  -26.9639  -28.5426   21.1734 C   0  0  0  0  0  0  0  0  0  0  0  0
  -29.9421  -20.6471   18.5057 C   0  0  0  0  0  0  0  0  0  0  0  0
  -21.8545   -3.3751   21.3067 C   0  0  0  0  0  0  0  0  0  0  0  0
  -24.4649   -9.8380   21.5078 C   0  0  0  0  0  0  0  0  0  0  0  0
  -26.4259  -11.0289   22.6230 C   0  0  0  0  0  0  0  0  0  0  0  0
  -26.0962  -36.9637   24.5558 C   0  0  0  0  0  0  0  0  0  0  0  0
  -26.3246  -30.7997   20.5765 C   0  0  0  0  0  0  0  0  0  0  0  0
  -26.7028  -35.8075   24.0288 C   0  0  0  0  0  0  0  0  0  0  0  0
  -27.3157  -19.9523   17.8190 C   0  0  0  0  0  0  0  0  0  0  0  0
  -26.0923  -29.6327   21.3182 C   0  0  0  0  0  0  0  0  0  0  0  0
  -28.3343  -18.9816   17.7716 C   0  0  0  0  0  0  0  0  0  0  0  0
  -29.6471  -19.3441   18.1060 C   0  0  0  0  0  0  0  0  0  0  0  0
  -28.9300  -21.6012   18.5725 C   0  0  0  0  0  0  0  0  0  0  0  0
  -22.4133   -7.9508   21.3988 C   0  0  0  0  0  0  0  0  0  0  0  0
  -28.0441  -28.6078   20.2936 C   0  0  0  0  0  0  0  0  0  0  0  0
  -21.7001   -5.7420   21.7660 C   0  0  0  0  0  0  0  0  0  0  0  0
  -22.2819   -3.1491   22.6152 C   0  0  0  0  0  0  0  0  0  0  0  0
  -21.5636   -4.6716   20.8821 C   0  0  0  0  0  0  0  0  0  0  0  0
  -25.5249  -10.8125   21.5633 C   0  0  0  0  0  0  0  0  0  0  0  0
  -27.2283  -12.0550   22.1873 C   0  0  0  0  0  0  0  0  0  0  0  0
  -28.3354  -26.3536   19.7417 C   0  0  0  0  0  0  0  0  0  1  0  0
  -26.5286  -10.3620   23.8881 C   0  0  0  0  0  0  0  0  0  0  0  0
  -29.0483  -25.2334   19.5726 C   0  0  0  0  0  0  0  0  0  0  0  0
  -28.3504  -23.9902   19.1081 C   0  0  0  0  0  0  0  0  0  0  0  0
  -25.4782  -32.4284   23.1716 C   0  0  0  0  0  0  0  0  0  0  0  0
  -22.7769  -30.6486   22.9320 C   0  0  0  0  0  0  0  0  0  0  0  0
  -21.2731  -27.8036   21.7956 C   0  0  0  0  0  0  0  0  0  0  0  0
  -25.9836  -16.2280   17.9580 C   0  0  0  0  0  0  0  0  0  0  0  0
  -25.0297  -36.8854   25.6194 C   0  0  0  0  0  0  0  0  0  0  0  0
  -25.3926  -31.9746   20.6932 C   0  0  0  0  0  0  0  0  0  0  0  0
  -25.8899  -19.5949   17.4808 C   0  0  0  0  0  0  0  0  0  0  0  0
  -24.9348  -29.5185   22.2752 C   0  0  0  0  0  0  0  0  0  0  0  0
  -28.0521  -17.5626   17.3304 C   0  0  0  0  0  0  0  0  0  0  0  0
  -24.3846  -35.5067   25.7348 C   0  0  0  0  0  0  0  0  0  0  0  0
  -28.9857  -14.0164   18.2042 C   0  0  0  0  0  0  0  0  0  0  0  0
  -25.4521  -34.4171   25.7458 C   0  0  0  0  0  0  0  0  0  0  0  0
  -28.4695  -12.9267   19.1429 C   0  0  0  0  0  0  0  0  0  0  0  0
  -25.8049  -18.3197   16.6487 C   0  0  0  0  0  0  0  0  0  0  0  0
  -27.8512  -14.6248   17.3887 C   0  0  0  0  0  0  0  0  0  0  0  0
  -26.2110  -14.0815   19.1577 C   0  0  0  0  0  0  0  0  0  0  0  0
  -26.2580  -34.4211   24.4412 C   0  0  1  0  0  0  0  0  0  0  0  0
  -24.6251  -31.9998   22.0114 C   0  0  1  0  0  0  0  0  0  0  0  0
  -27.3196  -13.4532   20.0185 C   0  0  1  0  0  0  0  0  0  0  0  0
  -30.7692  -18.3571   18.0421 C   0  0  0  0  0  0  0  0  0  0  0  0
  -19.0652  -26.6108   21.7874 C   0  0  0  0  0  0  0  0  0  0  0  0
  -23.2217  -29.8102   25.8319 C   0  0  0  0  0  0  0  0  0  0  0  0
  -21.5944  -27.9426   25.4686 C   0  0  0  0  0  0  0  0  0  0  0  0
  -20.8430  -30.3106   25.2438 C   0  0  0  0  0  0  0  0  0  0  0  0
  -21.1023  -27.8968   18.8424 C   0  0  0  0  0  0  0  0  0  0  0  0
  -22.3297  -29.3075   23.4618 C   0  0  1  0  0  0  0  0  0  0  0  0
  -19.9711  -27.5825   21.0470 C   0  0  2  0  0  0  0  0  0  0  0  0
  -22.0202  -29.3453   24.9850 C   0  0  0  0  0  0  0  0  0  0  0  0
  -25.7344  -11.6351   20.5321 N   0  0  0  0  0  0  0  0  0  0  0  0
  -26.7763  -12.3785   20.9418 N   0  0  0  0  0  0  0  0  0  0  0  0
  -24.0555  -30.6963   22.3587 N   0  0  0  0  0  0  0  0  0  0  0  0
  -26.6144  -17.2660   17.2554 N   0  0  0  0  0  0  0  0  0  0  0  0
  -26.7563  -15.0922   18.2488 N   0  0  0  0  0  0  0  0  0  0  0  0
  -28.2691  -12.7033   22.7520 N   0  0  0  0  0  0  0  0  0  0  0  0
  -25.6250   -9.3296   24.1744 N   0  0  0  0  0  0  0  0  0  0  0  0
  -29.2244  -22.9034   18.9779 N   0  0  0  0  0  0  0  0  0  0  0  0
  -25.5019  -33.7945   23.3781 N   0  0  0  0  0  0  0  0  0  0  0  0
  -21.2016  -28.8967   22.6329 N   0  0  0  0  0  0  0  0  0  0  0  0
  -20.2415  -27.0313   19.6891 N   0  3  0  0  0  0  0  0  0  0  0  0
  -27.3855  -10.6834   24.7460 O   0  0  0  0  0  0  0  0  0  0  0  0
  -27.1447  -23.9909   18.8841 O   0  0  0  0  0  0  0  0  0  0  0  0
  -26.0699  -31.5822   23.8316 O   0  0  0  0  0  0  0  0  0  0  0  0
  -22.0168  -31.6164   23.0172 O   0  0  0  0  0  0  0  0  0  0  0  0
  -22.2542  -27.0768   21.6546 O   0  0  0  0  0  0  0  0  0  0  0  0
  -24.8025  -16.3147   18.3175 O   0  0  0  0  0  0  0  0  0  0  0  0
  -30.4069  -25.1755   19.8082 O   0  0  0  0  0  0  0  0  0  0  0  0
  -21.4126   -7.0298   21.3457 O   0  0  0  0  0  0  0  0  0  0  0  0
  -28.8863  -27.5348   20.1612 O   0  0  0  0  0  0  0  0  0  1  0  0
  -22.5626   -1.9044   23.0226 F   0  0  0  0  0  0  0  0  0  0  0  0
  -21.1546   -4.8826   19.6236 F   0  0  0  0  0  0  0  0  0  0  0  0
  1  2  1  0  0  0  0
  1  5  2  0  0  0  0
  2  6  2  0  0  0  0
  3  8  2  0  0  0  0
  3 17  1  0  0  0  0
  4  9  1  0  0  0  0
  4 17  2  0  0  0  0
  5 19  1  0  0  0  0
  6 21  1  0  0  0  0
  7 10  2  0  0  0  0
  7 20  1  0  0  0  0
  8 27  1  0  0  0  0
  9 27  2  0  0  0  0
 10 28  1  0  0  0  0
 11 12  2  0  0  0  0
 11 29  1  0  0  0  0
 12 30  1  0  0  0  0
 13 22  1  0  0  0  0
 13 26  2  0  0  0  0
 14 23  1  0  0  0  0
 14 28  2  0  0  0  0
 15 25  2  0  0  0  0
 15 26  1  0  0  0  0
 16 30  2  0  0  0  0
 16 31  1  0  0  0  0
 17 32  1  0  0  0  0
 18 32  1  0  0  0  0
 18 33  2  0  0  0  0
 18 35  1  0  0  0  0
 19 21  2  0  0  0  0
 19 42  1  0  0  0  0
 20 23  2  0  0  0  0
 20 43  1  0  0  0  0
 21 54  1  0  0  0  0
 22 24  2  0  0  0  0
 22 44  1  0  0  0  0
 23 45  1  0  0  0  0
 24 25  1  0  0  0  0
 24 46  1  0  0  0  0
 25 57  1  0  0  0  0
 26 73  1  0  0  0  0
 27 84  1  0  0  0  0
 28 85  1  0  0  0  0
 29 31  2  0  0  0  0
 29 84  1  0  0  0  0
 30 86  1  0  0  0  0
 31 87  1  0  0  0  0
 32 66  2  0  0  0  0
 33 67  1  0  0  0  0
 33 71  1  0  0  0  0
 34 36  2  0  0  0  0
 34 85  1  0  0  0  0
 35 72  1  0  0  0  0
 35 77  2  0  0  0  0
 36 37  1  0  0  0  0
 36 83  1  0  0  0  0
 37 73  1  0  0  0  0
 37 78  2  0  0  0  0
 38 55  1  0  0  0  0
 38 74  1  0  0  0  0
 38 79  2  0  0  0  0
 39 63  1  0  0  0  0
 39 68  1  0  0  0  0
 39 80  2  0  0  0  0
 40 64  1  0  0  0  0
 40 75  1  0  0  0  0
 40 81  2  0  0  0  0
 41 69  1  0  0  0  0
 41 70  1  0  0  0  0
 41 82  2  0  0  0  0
 42 47  1  0  0  0  0
 43 55  1  0  0  0  0
 44 51  1  0  0  0  0
 45 68  1  0  0  0  0
 46 69  1  0  0  0  0
 47 49  1  0  0  0  0
 48 50  1  0  0  0  0
 48 52  1  0  0  0  0
 49 54  1  0  0  0  0
 50 56  1  0  0  0  0
 51 69  1  0  0  0  0
 52 70  1  0  0  0  0
 53 56  1  0  0  0  0
 53 70  1  0  0  0  0
 54 74  1  0  0  0  0
 55 68  1  0  0  0  0
 56 67  1  0  0  0  0
 58 64  1  0  0  0  0
 59 65  1  0  0  0  0
 60 65  1  0  0  0  0
 61 65  1  0  0  0  0
 62 76  1  0  0  0  0
 63 65  1  0  0  0  0
 63 75  1  0  0  0  0
 64 76  1  0  0  0  0
 66 67  1  0  0  0  0
M  CHG  1  76   1
M  ISO  4  34 101  41 100  69 100  85 101
M  END
> <Batch ID>
0154

> <Smiles>
CNC(C)C(=O)NC(C(=O)N1Cc2cc([101O:1][101CH2:1]C(=O)C(=O)Nc3cc(C)c4c(c3)CC[100N:0]([100C:0](=O)N3CCCC(n5nc(-c6ccc(Oc7ccc(F)cc7F)cc6)c(C(N)=O)c5N)C3)C4)ccc2CC1C(=O)NC1CCCc2ccccc21)C(C)(C)C

> <Shape>
0.312

> <Color>
0.094

> <Negative vol penalty>
0.000

$$$$

  -OEChem-04052303333D

 85 94  0     1  0  0  0  0  0999 V2000
  -25.7761  -33.3324   28.4590 C   0  0  0  0  0  0  0  0  0  0  0  0
  -26.2288  -32.1082   27.9776 C   0  0  0  0  0  0  0  0  0  0  0  0
  -23.2811   -9.6588   19.9157 C   0  0  0  0  0  0  0  0  0  0  0  0
  -23.9200   -9.8037   22.2412 C   0  0  0  0  0  0  0  0  0  0  0  0
  -24.6376  -33.9190   27.9081 C   0  0  0  0  0  0  0  0  0  0  0  0
  -25.5424  -31.4692   26.9456 C   0  0  0  0  0  0  0  0  0  0  0  0
  -27.9648  -28.0664   22.4669 C   0  0  0  0  0  0  0  0  0  0  0  0
  -22.6248   -8.4548   20.1711 C   0  0  0  0  0  0  0  0  0  0  0  0
  -23.2636   -8.5998   22.4966 C   0  0  0  0  0  0  0  0  0  0  0  0
  -28.0979  -26.6882   22.3034 C   0  0  0  0  0  0  0  0  0  0  0  0
  -20.0872   -7.5485   22.9717 C   0  0  0  0  0  0  0  0  0  0  0  0
  -19.2776   -7.4813   24.1056 C   0  0  0  0  0  0  0  0  0  0  0  0
  -26.0764  -26.6552   20.9874 C   0  0  0  0  0  0  0  0  0  0  0  0
  -29.8226  -20.3450   21.4479 C   0  0  0  0  0  0  0  0  0  0  0  0
  -30.6233  -18.1770   20.6809 C   0  0  0  0  0  0  0  0  0  0  0  0
  -20.6379   -5.6815   24.9702 C   0  0  0  0  0  0  0  0  0  0  0  0
  -23.9288  -10.3332   20.9508 C   0  0  0  0  0  0  0  0  0  0  0  0
  -24.0634  -12.8733   20.7564 C   0  0  0  0  0  0  0  0  0  0  0  0
  -23.9424  -33.2915   26.8622 C   0  0  0  0  0  0  0  0  0  0  0  0
  -26.8787  -28.7488   21.9001 C   0  0  0  0  0  0  0  0  0  0  0  0
  -24.3927  -32.0473   26.3810 C   0  0  0  0  0  0  0  0  0  0  0  0
  -25.9332  -28.0424   21.1430 C   0  0  0  0  0  0  0  0  0  0  0  0
  -28.9159  -18.2967   22.3383 C   0  0  0  0  0  0  0  0  0  0  0  0
  -28.9450  -19.6968   22.3033 C   0  0  0  0  0  0  0  0  0  0  0  0
  -30.6658  -19.5782   20.6371 C   0  0  0  0  0  0  0  0  0  0  0  0
  -29.7373  -17.5231   21.5361 C   0  0  0  0  0  0  0  0  0  0  0  0
  -22.6159   -7.9253   21.4615 C   0  0  0  0  0  0  0  0  0  0  0  0
  -27.1521  -25.9820   21.5660 C   0  0  0  0  0  0  0  0  0  0  0  0
  -21.1721   -6.6821   22.8370 C   0  0  0  0  0  0  0  0  0  0  0  0
  -19.5529   -6.5478   25.1048 C   0  0  0  0  0  0  0  0  0  0  0  0
  -21.4474   -5.7487   23.8362 C   0  0  0  0  0  0  0  0  0  0  0  0
  -24.6075  -11.5767   20.6875 C   0  0  0  0  0  0  0  0  0  0  0  0
  -25.1060  -13.7014   20.4192 C   0  0  0  0  0  0  0  0  0  0  0  0
  -22.7345  -13.2916   21.0949 C   0  0  0  0  0  0  0  0  0  0  0  0
  -24.4532  -30.4521   23.0487 C   0  0  0  0  0  0  0  0  0  0  0  0
  -27.4020  -22.4930   22.5292 C   0  0  0  0  0  0  0  0  0  0  0  0
  -23.8723  -31.0183   19.9079 C   0  0  0  0  0  0  0  0  0  0  0  0
  -24.2310  -30.0095   16.6675 C   0  0  0  0  0  0  0  0  0  0  0  0
  -30.4493  -15.2156   20.8185 C   0  0  0  0  0  0  0  0  0  0  0  0
  -22.6896  -33.9415   26.3306 C   0  0  0  0  0  0  0  0  0  0  0  0
  -26.7640  -30.2396   22.0632 C   0  0  0  0  0  0  0  0  0  0  0  0
  -27.8693  -17.8450   23.3054 C   0  0  0  0  0  0  0  0  0  0  0  0
  -24.7599  -28.7312   20.4970 C   0  0  0  0  0  0  0  0  0  0  0  0
  -22.2353  -33.3794   24.9860 C   0  0  0  0  0  0  0  0  0  0  0  0
  -29.6632  -12.6411   18.4880 C   0  0  0  0  0  0  0  0  0  0  0  0
  -22.2666  -31.8545   25.0068 C   0  0  0  0  0  0  0  0  0  0  0  0
  -28.2330  -12.2413   18.8581 C   0  0  0  0  0  0  0  0  0  0  0  0
  -27.5523  -19.1625   24.0416 C   0  0  0  0  0  0  0  0  0  0  0  0
  -30.4935  -12.9855   19.7232 C   0  0  0  0  0  0  0  0  0  0  0  0
  -28.4647  -13.5879   20.9842 C   0  0  0  0  0  0  0  0  0  0  0  0
  -23.6895  -31.3351   25.2459 C   0  0  1  0  0  0  0  0  0  0  0  0
  -25.3401  -30.7536   21.8739 C   0  0  1  0  0  0  0  0  0  0  0  0
  -27.5711  -13.2946   19.7680 C   0  0  2  0  0  0  0  0  0  0  0  0
  -23.6154  -30.6582   14.3228 C   0  0  0  0  0  0  0  0  0  0  0  0
  -21.0238  -30.0350   20.3862 C   0  0  0  0  0  0  0  0  0  0  0  0
  -20.7619  -29.8031   17.9071 C   0  0  0  0  0  0  0  0  0  0  0  0
  -21.1992  -32.0453   18.9090 C   0  0  0  0  0  0  0  0  0  0  0  0
  -27.0694  -30.2644   15.8691 C   0  0  0  0  0  0  0  0  0  0  0  0
  -28.0243  -21.6238   23.6013 C   0  0  0  0  0  0  0  0  0  0  0  0
  -27.9228  -23.9152   22.4550 C   0  0  0  0  0  0  0  0  0  1  0  0
  -23.0622  -30.3380   18.8309 C   0  0  1  0  0  0  0  0  0  0  0  0
  -24.6628  -30.7602   15.4207 C   0  0  2  0  0  0  0  0  0  0  0  0
  -21.5327  -30.5418   19.0220 C   0  0  0  0  0  0  0  0  0  0  0  0
  -25.8956  -11.5761   20.3342 N   0  0  0  0  0  0  0  0  0  0  0  0
  -26.1696  -12.8824   20.1780 N   0  0  0  0  0  0  0  0  0  0  0  0
  -28.0201  -20.2461   23.1799 N   0  0  1  0  0  0  0  0  0  0  0  0
  -24.6881  -30.1889   20.6906 N   0  0  0  0  0  0  0  0  0  0  0  0
  -29.8062  -13.9922   20.5350 N   0  0  0  0  0  0  0  0  0  0  0  0
  -31.5686  -20.2219   19.7618 N   0  0  0  0  0  0  0  0  0  0  0  0
  -25.2075  -15.0430   20.3084 N   0  0  0  0  0  0  0  0  0  0  0  0
  -21.7865  -12.3105   21.4157 N   0  0  0  0  0  0  0  0  0  0  0  0
  -29.6859  -16.1075   21.5710 N   0  0  0  0  0  0  0  0  0  0  0  0
  -24.4708  -31.4239   24.0309 N   0  0  0  0  0  0  0  0  0  0  0  0
  -23.5767  -30.8333   17.5588 N   0  0  0  0  0  0  0  0  0  0  0  0
  -25.9446  -30.2062   14.9004 N   0  3  0  0  0  0  0  0  0  0  0  0
  -22.3933  -14.4988   21.0964 O   0  0  0  0  0  0  0  0  0  0  0  0
  -23.8001  -29.4153   23.0623 O   0  0  0  0  0  0  0  0  0  0  0  0
  -26.5303  -22.0834   21.7635 O   0  0  0  0  0  0  0  0  0  0  0  0
  -23.7900  -32.2414   20.0449 O   0  0  0  0  0  0  0  0  0  0  0  0
  -24.4487  -28.8112   16.8324 O   0  0  0  0  0  0  0  0  0  0  0  0
  -31.5826  -15.4652   20.3999 O   0  0  0  0  0  0  0  0  0  0  0  0
  -21.9753   -6.7506   21.7111 O   0  0  0  0  0  0  0  0  0  0  0  0
  -27.2792  -24.6366   21.4054 O   0  0  0  0  0  0  0  0  0  1  0  0
  -18.7764   -6.4845   26.1943 F   0  0  0  0  0  0  0  0  0  0  0  0
  -22.4890   -4.9146   23.7130 F   0  0  0  0  0  0  0  0  0  0  0  0
  1  2  1  0  0  0  0
  1  5  2  0  0  0  0
  2  6  2  0  0  0  0
  3  8  2  0  0  0  0
  3 17  1  0  0  0  0
  4  9  1  0  0  0  0
  4 17  2  0  0  0  0
  5 19  1  0  0  0  0
  6 21  1  0  0  0  0
  7 10  2  0  0  0  0
  7 20  1  0  0  0  0
  8 27  1  0  0  0  0
  9 27  2  0  0  0  0
 10 28  1  0  0  0  0
 11 12  2  0  0  0  0
 11 29  1  0  0  0  0
 12 30  1  0  0  0  0
 13 22  1  0  0  0  0
 13 28  2  0  0  0  0
 14 24  1  0  0  0  0
 14 25  2  0  0  0  0
 15 25  1  0  0  0  0
 15 26  2  0  0  0  0
 16 30  2  0  0  0  0
 16 31  1  0  0  0  0
 17 32  1  0  0  0  0
 18 32  1  0  0  0  0
 18 33  2  0  0  0  0
 18 34  1  0  0  0  0
 19 21  2  0  0  0  0
 19 40  1  0  0  0  0
 20 22  2  0  0  0  0
 20 41  1  0  0  0  0
 21 51  1  0  0  0  0
 22 43  1  0  0  0  0
 23 24  2  0  0  0  0
 23 26  1  0  0  0  0
 23 42  1  0  0  0  0
 24 66  1  0  0  0  0
 25 69  1  0  0  0  0
 26 72  1  0  0  0  0
 27 82  1  0  0  0  0
 28 83  1  0  0  0  0
 29 31  2  0  0  0  0
 29 82  1  0  0  0  0
 30 84  1  0  0  0  0
 31 85  1  0  0  0  0
 32 64  2  0  0  0  0
 33 65  1  0  0  0  0
 33 70  1  0  0  0  0
 34 71  1  0  0  0  0
 34 76  2  0  0  0  0
 35 52  1  0  0  0  0
 35 73  1  0  0  0  0
 35 77  2  0  0  0  0
 36 59  1  0  0  0  0
 36 60  1  0  0  0  0
 36 78  2  0  0  0  0
 37 61  1  0  0  0  0
 37 67  1  0  0  0  0
 37 79  2  0  0  0  0
 38 62  1  0  0  0  0
 38 74  1  0  0  0  0
 38 80  2  0  0  0  0
 39 68  1  0  0  0  0
 39 72  1  0  0  0  0
 39 81  2  0  0  0  0
 40 44  1  0  0  0  0
 41 52  1  0  0  0  0
 42 48  1  0  0  0  0
 43 67  1  0  0  0  0
 44 46  1  0  0  0  0
 45 47  1  0  0  0  0
 45 49  1  0  0  0  0
 46 51  1  0  0  0  0
 47 53  1  0  0  0  0
 48 66  1  0  0  0  0
 49 68  1  0  0  0  0
 50 53  1  0  0  0  0
 50 68  1  0  0  0  0
 51 73  1  0  0  0  0
 52 67  1  0  0  0  0
 53 65  1  0  0  0  0
 54 62  1  0  0  0  0
 55 63  1  0  0  0  0
 56 63  1  0  0  0  0
 57 63  1  0  0  0  0
 58 75  1  0  0  0  0
 59 66  1  0  0  0  0
 60 83  1  0  0  0  0
 61 63  1  0  0  0  0
 61 74  1  0  0  0  0
 62 75  1  0  0  0  0
 64 65  1  0  0  0  0
M  CHG  1  75   1
M  ISO  4  39 100  60 101  72 100  83 101
M  END
> <Batch ID>
0154

> <Smiles>
CNC(C)C(=O)NC(C(=O)N1Cc2cc([101O:1][101CH2:1]C(=O)CN3CCc4c([100NH:0][100C:0](=O)N5CCCC(n6nc(-c7ccc(Oc8ccc(F)cc8F)cc7)c(C(N)=O)c6N)C5)cc(N)cc43)ccc2CC1C(=O)NC1CCCc2ccccc21)C(C)(C)C

> <Shape>
0.284

> <Color>
0.186

> <Negative vol penalty>
0.000

$$$$

  -OEChem-04052303333D

 85 94  0     1  0  0  0  0  0999 V2000
  -31.5910  -32.6849   24.7891 C   0  0  0  0  0  0  0  0  0  0  0  0
  -31.1867  -31.4882   24.2061 C   0  0  0  0  0  0  0  0  0  0  0  0
  -22.6425  -10.5290   20.8962 C   0  0  0  0  0  0  0  0  0  0  0  0
  -24.5152   -9.1151   21.4714 C   0  0  0  0  0  0  0  0  0  0  0  0
  -30.6462  -33.5315   25.3674 C   0  0  0  0  0  0  0  0  0  0  0  0
  -29.8372  -31.1369   24.2021 C   0  0  0  0  0  0  0  0  0  0  0  0
  -26.8404  -28.0857   19.8185 C   0  0  0  0  0  0  0  0  0  0  0  0
  -21.8409   -9.8363   21.8034 C   0  0  0  0  0  0  0  0  0  0  0  0
  -23.7136   -8.4224   22.3787 C   0  0  0  0  0  0  0  0  0  0  0  0
  -26.4799  -26.7453   19.6876 C   0  0  0  0  0  0  0  0  0  0  0  0
  -21.3469   -6.0101   22.2759 C   0  0  0  0  0  0  0  0  0  0  0  0
  -21.4210   -4.6172   22.2742 C   0  0  0  0  0  0  0  0  0  0  0  0
  -28.6130  -18.8979   21.0590 C   0  0  0  0  0  0  0  0  0  0  0  0
  -24.2949  -27.2526   20.5752 C   0  0  0  0  0  0  0  0  0  0  0  0
  -22.1394   -4.6526   24.5807 C   0  0  0  0  0  0  0  0  0  0  0  0
  -23.9797  -10.1683   20.7301 C   0  0  0  0  0  0  0  0  0  0  0  0
  -27.9578  -20.1519   21.2272 C   0  0  0  0  0  0  0  0  0  0  0  0
  -24.6072  -11.0100   18.4051 C   0  0  0  0  0  0  0  0  0  0  0  0
  -29.2833  -33.1949   25.3619 C   0  0  0  0  0  0  0  0  0  0  0  0
  -25.9331  -29.0192   20.3399 C   0  0  0  0  0  0  0  0  0  0  0  0
  -28.8734  -31.9791   24.7821 C   0  0  0  0  0  0  0  0  0  0  0  0
  -24.6455  -28.6047   20.7094 C   0  0  0  0  0  0  0  0  0  0  0  0
  -22.3764   -8.7830   22.5447 C   0  0  0  0  0  0  0  0  0  0  0  0
  -25.2080  -26.3281   20.0686 C   0  0  0  0  0  0  0  0  0  0  0  0
  -21.6692   -6.7243   23.4299 C   0  0  0  0  0  0  0  0  0  0  0  0
  -21.8172   -3.9385   23.4266 C   0  0  0  0  0  0  0  0  0  0  0  0
  -22.0654   -6.0455   24.5823 C   0  0  0  0  0  0  0  0  0  0  0  0
  -24.8082  -10.8831   19.7927 C   0  0  0  0  0  0  0  0  0  0  0  0
  -25.6613  -11.7779   17.9743 C   0  0  0  0  0  0  0  0  0  0  0  0
  -26.5868  -20.0201   21.2530 C   0  0  0  0  0  0  0  0  0  0  0  0
  -27.7176  -17.8552   20.9628 C   0  0  0  0  0  0  0  0  0  0  0  0
  -28.6621  -21.3987   21.3534 C   0  0  0  0  0  0  0  0  0  0  0  0
  -23.5611  -10.4811   17.5795 C   0  0  0  0  0  0  0  0  0  0  0  0
  -25.8829  -30.9157   22.8902 C   0  0  0  0  0  0  0  0  0  0  0  0
  -23.1657  -32.0374   21.5188 C   0  0  0  0  0  0  0  0  0  0  0  0
  -20.5434  -31.4810   19.4067 C   0  0  0  0  0  0  0  0  0  0  0  0
  -29.1522  -15.8041   20.6777 C   0  0  0  0  0  0  0  0  0  0  0  0
  -28.3045  -34.1196   26.0412 C   0  0  0  0  0  0  0  0  0  0  0  0
  -26.3283  -30.4663   20.4498 C   0  0  0  0  0  0  0  0  0  0  0  0
  -23.6276  -29.5710   21.2557 C   0  0  0  0  0  0  0  0  0  0  0  0
  -26.8501  -33.8510   25.6634 C   0  0  0  0  0  0  0  0  0  0  0  0
  -30.2114  -12.8266   19.0377 C   0  0  0  0  0  0  0  0  0  0  0  0
  -26.5485  -32.3572   25.7295 C   0  0  0  0  0  0  0  0  0  0  0  0
  -28.9266  -12.0045   18.9134 C   0  0  0  0  0  0  0  0  0  0  0  0
  -23.8397  -22.2823   22.2195 C   0  0  0  0  0  0  0  0  0  0  0  0
  -30.2620  -13.6048   20.3513 C   0  0  0  0  0  0  0  0  0  0  0  0
  -24.3513  -20.8544   22.0291 C   0  0  0  0  0  0  0  0  0  0  0  0
  -27.8028  -13.6219   20.4971 C   0  0  0  0  0  0  0  0  0  0  0  0
  -25.8735  -22.4111   20.9709 C   0  0  0  0  0  0  0  0  0  0  0  0
  -27.4159  -31.5748   24.7359 C   0  0  1  0  0  0  0  0  0  0  0  0
  -25.4992  -31.2360   21.4733 C   0  0  1  0  0  0  0  0  0  0  0  0
  -27.6766  -12.8715   19.1612 C   0  0  2  0  0  0  0  0  0  0  0  0
  -24.4743  -23.0278   21.0511 C   0  0  2  0  0  0  0  0  0  0  0  0
  -18.4637  -32.5694   18.5192 C   0  0  0  0  0  0  0  0  0  0  0  0
  -21.7518  -31.4891   24.1665 C   0  0  0  0  0  0  0  0  0  0  0  0
  -19.5668  -31.6800   22.9592 C   0  0  0  0  0  0  0  0  0  0  0  0
  -21.1066  -33.6397   23.0651 C   0  0  0  0  0  0  0  0  0  0  0  0
  -21.5346  -31.3696   16.6203 C   0  0  0  0  0  0  0  0  0  0  0  0
  -21.7024  -31.6734   21.5917 C   0  0  1  0  0  0  0  0  0  0  0  0
  -19.9482  -32.3267   18.2954 C   0  0  2  0  0  0  0  0  0  0  0  0
  -21.0515  -32.1018   22.9372 C   0  0  0  0  0  0  0  0  0  0  0  0
  -25.9040  -11.5193   20.2152 N   0  0  0  0  0  0  0  0  0  0  0  0
  -26.4010  -12.0533   19.0865 N   0  0  0  0  0  0  0  0  0  0  0  0
  -25.6597  -21.0295   21.4002 N   0  0  3  0  0  0  0  0  0  0  0  0
  -24.0638  -30.9740   21.3500 N   0  0  0  0  0  0  0  0  0  0  0  0
  -29.0474  -14.4064   20.5159 N   0  0  0  0  0  0  0  0  0  0  0  0
  -26.0184  -12.2377   16.7563 N   0  0  0  0  0  0  0  0  0  0  0  0
  -29.0345  -21.8609   22.5637 N   0  0  0  0  0  0  0  0  0  0  0  0
  -23.7387   -9.2151   17.0052 N   0  0  0  0  0  0  0  0  0  0  0  0
  -27.9294  -16.4646   20.7923 N   0  0  0  0  0  0  0  0  0  0  0  0
  -26.8944  -31.7118   23.3929 N   0  0  0  0  0  0  0  0  0  0  0  0
  -21.0766  -32.2602   20.4117 N   0  0  0  0  0  0  0  0  0  0  0  0
  -24.5008  -24.4659   21.2491 N   0  0  0  0  0  0  0  0  0  1  0  0
  -28.9669  -22.1319   20.2641 N   0  3  0  0  0  0  0  0  0  0  0  0
  -20.1204  -31.6485   16.9796 N   0  3  0  0  0  0  0  0  0  0  0  0
  -22.5072  -11.1196   17.3444 O   0  0  0  0  0  0  0  0  0  0  0  0
  -25.3031  -30.0141   23.4841 O   0  0  0  0  0  0  0  0  0  0  0  0
  -23.4990  -33.2222   21.6012 O   0  0  0  0  0  0  0  0  0  0  0  0
  -20.5328  -30.2522   19.3872 O   0  0  0  0  0  0  0  0  0  0  0  0
  -30.2451  -16.3764   20.6848 O   0  0  0  0  0  0  0  0  0  0  0  0
  -21.5944   -8.1070   23.4302 O   0  0  0  0  0  0  0  0  0  0  0  0
  -24.8537  -25.0202   19.9424 O   0  0  0  0  0  0  0  0  0  1  0  0
  -21.8867   -2.6008   23.4253 F   0  0  0  0  0  0  0  0  0  0  0  0
  -22.3751   -6.7262   25.6944 F   0  0  0  0  0  0  0  0  0  0  0  0
  -26.0946  -18.3897   21.0749 S   0  0  0  0  0  0  0  0  0  0  0  0
  1  2  1  0  0  0  0
  1  5  2  0  0  0  0
  2  6  2  0  0  0  0
  3  8  2  0  0  0  0
  3 16  1  0  0  0  0
  4  9  1  0  0  0  0
  4 16  2  0  0  0  0
  5 19  1  0  0  0  0
  6 21  1  0  0  0  0
  7 10  2  0  0  0  0
  7 20  1  0  0  0  0
  8 23  1  0  0  0  0
  9 23  2  0  0  0  0
 10 24  1  0  0  0  0
 11 12  2  0  0  0  0
 11 25  1  0  0  0  0
 12 26  1  0  0  0  0
 13 17  1  0  0  0  0
 13 31  2  0  0  0  0
 14 22  1  0  0  0  0
 14 24  2  0  0  0  0
 15 26  2  0  0  0  0
 15 27  1  0  0  0  0
 16 28  1  0  0  0  0
 17 30  2  0  0  0  0
 17 32  1  0  0  0  0
 18 28  1  0  0  0  0
 18 29  2  0  0  0  0
 18 33  1  0  0  0  0
 19 21  2  0  0  0  0
 19 38  1  0  0  0  0
 20 22  2  0  0  0  0
 20 39  1  0  0  0  0
 21 50  1  0  0  0  0
 22 40  1  0  0  0  0
 23 81  1  0  0  0  0
 24 82  1  0  0  0  0
 25 27  2  0  0  0  0
 25 81  1  0  0  0  0
 26 83  1  0  0  0  0
 27 84  1  0  0  0  0
 28 62  2  0  0  0  0
 29 63  1  0  0  0  0
 29 67  1  0  0  0  0
 30 64  1  0  0  0  0
 30 85  1  0  0  0  0
 31 70  1  0  0  0  0
 31 85  1  0  0  0  0
 32 68  1  0  0  0  0
 32 74  2  0  0  0  0
 33 69  1  0  0  0  0
 33 76  2  0  0  0  0
 34 51  1  0  0  0  0
 34 71  1  0  0  0  0
 34 77  2  0  0  0  0
 35 59  1  0  0  0  0
 35 65  1  0  0  0  0
 35 78  2  0  0  0  0
 36 60  1  0  0  0  0
 36 72  1  0  0  0  0
 36 79  2  0  0  0  0
 37 66  1  0  0  0  0
 37 70  1  0  0  0  0
 37 80  2  0  0  0  0
 38 41  1  0  0  0  0
 39 51  1  0  0  0  0
 40 65  1  0  0  0  0
 41 43  1  0  0  0  0
 42 44  1  0  0  0  0
 42 46  1  0  0  0  0
 43 50  1  0  0  0  0
 44 52  1  0  0  0  0
 45 47  1  0  0  0  0
 45 53  1  0  0  0  0
 46 66  1  0  0  0  0
 47 64  1  0  0  0  0
 48 52  1  0  0  0  0
 48 66  1  0  0  0  0
 49 53  1  0  0  0  0
 49 64  1  0  0  0  0
 50 71  1  0  0  0  0
 51 65  1  0  0  0  0
 52 63  1  0  0  0  0
 53 73  1  0  0  0  0
 54 60  1  0  0  0  0
 55 61  1  0  0  0  0
 56 61  1  0  0  0  0
 57 61  1  0  0  0  0
 58 75  1  0  0  0  0
 59 61  1  0  0  0  0
 59 72  1  0  0  0  0
 60 75  1  0  0  0  0
 62 63  1  0  0  0  0
 73 82  1  0  0  0  0
M  CHG  2  74   1  75   1
M  ISO  4  37 100  70 100  73 101  82 101
M  END
> <Batch ID>
0154

> <Smiles>
CNC(C)C(=O)NC(C(=O)N1Cc2cc([101O:1][101NH:1]C3CCN(c4sc([100NH:0][100C:0](=O)N5CCCC(n6nc(-c7ccc(Oc8ccc(F)cc8F)cc7)c(C(N)=O)c6N)C5)cc4C(=N)N)C3)ccc2CC1C(=O)NC1CCCc2ccccc21)C(C)(C)C

> <Shape>
0.277

> <Color>
0.095

> <Negative vol penalty>
0.000

$$$$

  -OEChem-04052303333D

 89 98  0     1  0  0  0  0  0999 V2000
  -26.9143  -35.9218   22.8500 C   0  0  0  0  0  0  0  0  0  0  0  0
  -27.2832  -34.6377   23.2377 C   0  0  0  0  0  0  0  0  0  0  0  0
  -26.2989  -20.9067   20.2255 C   0  0  0  0  0  0  0  0  0  0  0  0
  -24.5191   -9.1464   21.5519 C   0  0  0  0  0  0  0  0  0  0  0  0
  -24.1649  -10.6884   23.3778 C   0  0  0  0  0  0  0  0  0  0  0  0
  -27.3938  -21.7148   20.5314 C   0  0  0  0  0  0  0  0  0  0  0  0
  -25.5742  -36.2157   22.6011 C   0  0  0  0  0  0  0  0  0  0  0  0
  -26.3121  -33.6469   23.3778 C   0  0  0  0  0  0  0  0  0  0  0  0
  -27.7096  -29.2484   21.2933 C   0  0  0  0  0  0  0  0  0  0  0  0
  -26.4757  -19.5365   20.0326 C   0  0  0  0  0  0  0  0  0  0  0  0
  -24.1476   -8.0845   22.3766 C   0  0  0  0  0  0  0  0  0  0  0  0
  -23.7934   -9.6265   24.2025 C   0  0  0  0  0  0  0  0  0  0  0  0
  -28.6073  -28.4600   22.0119 C   0  0  0  0  0  0  0  0  0  0  0  0
  -21.2825   -6.7312   23.5565 C   0  0  0  0  0  0  0  0  0  0  0  0
  -20.4042   -5.7816   23.0345 C   0  0  0  0  0  0  0  0  0  0  0  0
  -28.8423  -19.7828   20.4515 C   0  0  0  0  0  0  0  0  0  0  0  0
  -26.7777  -27.0895   22.7822 C   0  0  0  0  0  0  0  0  0  0  0  0
  -22.0638   -4.0592   23.3757 C   0  0  0  0  0  0  0  0  0  0  0  0
  -24.5278  -10.4483   22.0526 C   0  0  0  0  0  0  0  0  0  0  0  0
  -28.6655  -21.1530   20.6444 C   0  0  0  0  0  0  0  0  0  0  0  0
  -24.0698  -12.3218   20.3828 C   0  0  0  0  0  0  0  0  0  0  0  0
  -24.5874  -35.2255   22.7288 C   0  0  0  0  0  0  0  0  0  0  0  0
  -26.3357  -28.9693   21.3226 C   0  0  0  0  0  0  0  0  0  0  0  0
  -24.9574  -33.9281   23.1317 C   0  0  0  0  0  0  0  0  0  0  0  0
  -25.8650  -27.8743   22.0611 C   0  0  0  0  0  0  0  0  0  0  0  0
  -27.7473  -18.9746   20.1455 C   0  0  0  0  0  0  0  0  0  0  0  0
  -23.7847   -8.3246   23.7018 C   0  0  0  0  0  0  0  0  0  0  0  0
  -28.1411  -27.3821   22.7588 C   0  0  0  0  0  0  0  0  0  0  0  0
  -22.5514   -6.3448   23.9880 C   0  0  0  0  0  0  0  0  0  0  0  0
  -20.7948   -4.4456   22.9442 C   0  0  0  0  0  0  0  0  0  0  0  0
  -22.9421   -5.0088   23.8977 C   0  0  0  0  0  0  0  0  0  0  0  0
  -24.9120  -11.5456   21.2014 C   0  0  0  0  0  0  0  0  0  0  0  0
  -24.9120  -13.2262   19.7835 C   0  0  0  0  0  0  0  0  0  0  0  0
  -29.8229  -22.0060   20.9682 C   0  0  0  0  0  0  0  0  0  0  0  0
  -22.6529  -12.2332   20.1821 C   0  0  0  0  0  0  0  0  0  0  0  0
  -23.7485  -30.5375   22.2979 C   0  0  0  0  0  0  0  0  0  0  0  0
  -22.1978  -28.0098   20.9831 C   0  0  0  0  0  0  0  0  0  0  0  0
  -22.2895  -24.7379   20.0173 C   0  0  0  0  0  0  0  0  0  0  0  0
  -29.1194  -16.8653   20.0247 C   0  0  0  0  0  0  0  0  0  0  0  0
  -23.1460  -35.6026   22.4949 C   0  0  0  0  0  0  0  0  0  0  0  0
  -25.3833  -29.8132   20.5206 C   0  0  0  0  0  0  0  0  0  0  0  0
  -24.4018  -27.5202   22.1092 C   0  0  0  0  0  0  0  0  0  0  0  0
  -22.2252  -34.4003   22.3029 C   0  0  0  0  0  0  0  0  0  0  0  0
  -29.9678  -13.4284   19.6442 C   0  0  0  0  0  0  0  0  0  0  0  0
  -22.4982  -33.3434   23.3684 C   0  0  0  0  0  0  0  0  0  0  0  0
  -28.6589  -12.6960   19.9480 C   0  0  0  0  0  0  0  0  0  0  0  0
  -29.6803  -23.0691   24.4170 C   0  0  0  0  0  0  0  0  0  0  0  0
  -30.1474  -14.6601   20.5298 C   0  0  0  0  0  0  0  0  0  0  0  0
  -29.1351  -22.1850   23.3051 C   0  0  0  0  0  0  0  0  0  0  0  0
  -27.7105  -14.8680   20.8256 C   0  0  0  0  0  0  0  0  0  0  0  0
  -23.9362  -32.8199   23.2705 C   0  0  1  0  0  0  0  0  0  0  0  0
  -23.9486  -29.7481   21.0352 C   0  0  1  0  0  0  0  0  0  0  0  0
  -27.4543  -13.6570   19.9137 C   0  0  2  0  0  0  0  0  0  0  0  0
  -29.9584  -24.4139   23.7247 C   0  0  1  0  0  0  0  0  0  0  0  0
  -30.5422  -23.9802   22.3380 C   0  0  0  0  0  0  0  0  0  0  0  0
  -32.0494  -23.6810   22.3804 C   0  0  0  0  0  0  0  0  0  0  0  0
  -30.2497  -24.9722   21.2094 C   0  0  0  0  0  0  0  0  0  0  0  0
  -20.8570  -22.9404   19.0100 C   0  0  0  0  0  0  0  0  0  0  0  0
  -20.7589  -27.6646   23.6515 C   0  0  0  0  0  0  0  0  0  0  0  0
  -20.0958  -25.3648   22.9170 C   0  0  0  0  0  0  0  0  0  0  0  0
  -19.3093  -27.3562   21.6371 C   0  0  0  0  0  0  0  0  0  0  0  0
  -24.0849  -24.4545   17.6817 C   0  0  0  0  0  0  0  0  0  0  0  0
  -30.3795  -25.4458   25.7848 C   0  0  0  0  0  0  0  0  0  0  0  0
  -28.6682  -25.2396   23.6462 C   0  0  0  0  0  0  0  0  0  1  0  0
  -21.7354  -26.6621   21.4819 C   0  0  1  0  0  0  0  0  0  0  0  0
  -21.8551  -24.0540   18.7335 C   0  0  2  0  0  0  0  0  0  0  0  0
  -20.5023  -26.7695   22.4227 C   0  0  0  0  0  0  0  0  0  0  0  0
  -26.1911  -11.9238   21.1308 N   0  0  0  0  0  0  0  0  0  0  0  0
  -26.1589  -12.9474   20.2606 N   0  0  0  0  0  0  0  0  0  0  0  0
  -29.8321  -22.6861   22.1042 N   0  0  0  0  0  0  0  0  0  0  0  0
  -23.5094  -28.3791   21.3133 N   0  0  0  0  0  0  0  0  0  0  0  0
  -28.9696  -15.5262   20.4432 N   0  0  0  0  0  0  0  0  0  0  0  0
  -24.7002  -14.2248   18.9000 N   0  0  0  0  0  0  0  0  0  0  0  0
  -21.9402  -11.2461   20.8765 N   0  0  0  0  0  0  0  0  0  0  0  0
  -27.9260  -17.5827   19.9494 N   0  0  0  0  0  0  0  0  0  0  0  0
  -24.0583  -31.8788   22.1779 N   0  0  0  0  0  0  0  0  0  0  0  0
  -21.5125  -25.8424   20.2958 N   0  0  0  0  0  0  0  0  0  0  0  0
  -30.8405  -22.0778   20.1153 N   0  3  0  0  0  0  0  0  0  0  0  0
  -23.0334  -23.4665   18.0353 N   0  3  0  0  0  0  0  0  0  0  0  0
  -22.0396  -12.9958   19.3975 O   0  0  0  0  0  0  0  0  0  0  0  0
  -23.3417  -29.9719   23.3060 O   0  0  0  0  0  0  0  0  0  0  0  0
  -21.4261  -28.7061   20.3188 O   0  0  0  0  0  0  0  0  0  0  0  0
  -23.2222  -24.3307   20.7063 O   0  0  0  0  0  0  0  0  0  0  0  0
  -30.2215  -17.3327   19.7270 O   0  0  0  0  0  0  0  0  0  0  0  0
  -23.4219   -7.2887   24.5067 O   0  0  0  0  0  0  0  0  0  0  0  0
  -29.0152  -26.6114   23.4616 O   0  0  0  0  0  0  0  0  0  1  0  0
  -30.8840  -25.1800   24.4875 O   0  0  0  0  0  0  0  0  0  0  0  0
  -19.9508   -3.5335   22.4443 F   0  0  0  0  0  0  0  0  0  0  0  0
  -24.1594   -4.6315   24.3117 F   0  0  0  0  0  0  0  0  0  0  0  0
  1  2  1  0  0  0  0
  1  7  2  0  0  0  0
  2  8  2  0  0  0  0
  3  6  2  0  0  0  0
  3 10  1  0  0  0  0
  4 11  2  0  0  0  0
  4 19  1  0  0  0  0
  5 12  1  0  0  0  0
  5 19  2  0  0  0  0
  6 20  1  0  0  0  0
  7 22  1  0  0  0  0
  8 24  1  0  0  0  0
  9 13  2  0  0  0  0
  9 23  1  0  0  0  0
 10 26  2  0  0  0  0
 11 27  1  0  0  0  0
 12 27  2  0  0  0  0
 13 28  1  0  0  0  0
 14 15  2  0  0  0  0
 14 29  1  0  0  0  0
 15 30  1  0  0  0  0
 16 20  2  0  0  0  0
 16 26  1  0  0  0  0
 17 25  1  0  0  0  0
 17 28  2  0  0  0  0
 18 30  2  0  0  0  0
 18 31  1  0  0  0  0
 19 32  1  0  0  0  0
 20 34  1  0  0  0  0
 21 32  1  0  0  0  0
 21 33  2  0  0  0  0
 21 35  1  0  0  0  0
 22 24  2  0  0  0  0
 22 40  1  0  0  0  0
 23 25  2  0  0  0  0
 23 41  1  0  0  0  0
 24 51  1  0  0  0  0
 25 42  1  0  0  0  0
 26 75  1  0  0  0  0
 27 85  1  0  0  0  0
 28 86  1  0  0  0  0
 29 31  2  0  0  0  0
 29 85  1  0  0  0  0
 30 88  1  0  0  0  0
 31 89  1  0  0  0  0
 32 68  2  0  0  0  0
 33 69  1  0  0  0  0
 33 73  1  0  0  0  0
 34 70  1  0  0  0  0
 34 78  2  0  0  0  0
 35 74  1  0  0  0  0
 35 80  2  0  0  0  0
 36 52  1  0  0  0  0
 36 76  1  0  0  0  0
 36 81  2  0  0  0  0
 37 65  1  0  0  0  0
 37 71  1  0  0  0  0
 37 82  2  0  0  0  0
 38 66  1  0  0  0  0
 38 77  1  0  0  0  0
 38 83  2  0  0  0  0
 39 72  1  0  0  0  0
 39 75  1  0  0  0  0
 39 84  2  0  0  0  0
 40 43  1  0  0  0  0
 41 52  1  0  0  0  0
 42 71  1  0  0  0  0
 43 45  1  0  0  0  0
 44 46  1  0  0  0  0
 44 48  1  0  0  0  0
 45 51  1  0  0  0  0
 46 53  1  0  0  0  0
 47 49  1  0  0  0  0
 47 54  1  0  0  0  0
 48 72  1  0  0  0  0
 49 70  1  0  0  0  0
 50 53  1  0  0  0  0
 50 72  1  0  0  0  0
 51 76  1  0  0  0  0
 52 71  1  0  0  0  0
 53 69  1  0  0  0  0
 54 55  1  0  0  0  0
 54 64  1  0  0  0  0
 54 87  1  0  0  0  0
 55 56  1  0  0  0  0
 55 57  1  0  0  0  0
 55 70  1  0  0  0  0
 58 66  1  0  0  0  0
 59 67  1  0  0  0  0
 60 67  1  0  0  0  0
 61 67  1  0  0  0  0
 62 79  1  0  0  0  0
 63 87  1  0  0  0  0
 64 86  1  0  0  0  0
 65 67  1  0  0  0  0
 65 77  1  0  0  0  0
 66 79  1  0  0  0  0
 68 69  1  0  0  0  0
M  CHG  2  78   1  79   1
M  ISO  4  39 100  64 101  75 100  86 101
M  END
> <Batch ID>
0154

> <Smiles>
CNC(C)C(=O)NC(C(=O)N1Cc2cc([101O:1][101CH2:1]C3(OC)CCN(C(=N)c4cccc([100NH:0][100C:0](=O)N5CCCC(n6nc(-c7ccc(Oc8ccc(F)cc8F)cc7)c(C(N)=O)c6N)C5)c4)C3(C)C)ccc2CC1C(=O)NC1CCCc2ccccc21)C(C)(C)C

> <Shape>
0.293

> <Color>
0.072

> <Negative vol penalty>
0.000

$$$$

  -OEChem-04052303333D

 84 93  0     1  0  0  0  0  0999 V2000
  -25.6505  -29.4143   26.2018 C   0  0  0  0  0  0  0  0  0  0  0  0
  -26.2413  -28.5237   25.3112 C   0  0  0  0  0  0  0  0  0  0  0  0
  -23.1917   -9.8124   19.9313 C   0  0  0  0  0  0  0  0  0  0  0  0
  -23.5475  -10.0020   22.3134 C   0  0  0  0  0  0  0  0  0  0  0  0
  -25.0402  -30.5735   25.7247 C   0  0  0  0  0  0  0  0  0  0  0  0
  -26.2212  -28.7913   23.9428 C   0  0  0  0  0  0  0  0  0  0  0  0
  -30.5816  -27.4351   19.8619 C   0  0  0  0  0  0  0  0  0  0  0  0
  -22.4213   -8.6680   20.1374 C   0  0  0  0  0  0  0  0  0  0  0  0
  -22.7770   -8.8576   22.5196 C   0  0  0  0  0  0  0  0  0  0  0  0
  -30.7235  -26.3861   18.9545 C   0  0  0  0  0  0  0  0  0  0  0  0
  -23.1743   -5.5091   22.2732 C   0  0  0  0  0  0  0  0  0  0  0  0
  -23.6624   -4.5505   23.1612 C   0  0  0  0  0  0  0  0  0  0  0  0
  -28.6917  -20.7259   14.7581 C   0  0  0  0  0  0  0  0  0  0  0  0
  -29.7821  -27.7696   17.2171 C   0  0  0  0  0  0  0  0  0  0  0  0
  -21.6930   -4.8199   24.5345 C   0  0  0  0  0  0  0  0  0  0  0  0
  -28.3243  -19.4150   14.5489 C   0  0  0  0  0  0  0  0  0  0  0  0
  -29.1214  -19.5611   16.6365 C   0  0  0  0  0  0  0  0  0  0  0  0
  -23.7549  -10.4793   21.0193 C   0  0  0  0  0  0  0  0  0  0  0  0
  -24.1007  -12.9943   20.7684 C   0  0  0  0  0  0  0  0  0  0  0  0
  -25.0211  -30.8603   24.3507 C   0  0  0  0  0  0  0  0  0  0  0  0
  -30.0278  -28.6576   19.4555 C   0  0  0  0  0  0  0  0  0  0  0  0
  -25.6089  -29.9548   23.4468 C   0  0  0  0  0  0  0  0  0  0  0  0
  -29.6365  -28.8334   18.1206 C   0  0  0  0  0  0  0  0  0  0  0  0
  -29.1958  -20.8184   16.0789 C   0  0  0  0  0  0  0  0  0  0  0  0
  -22.2139   -8.1906   21.4315 C   0  0  0  0  0  0  0  0  0  0  0  0
  -30.3211  -26.5523   17.6326 C   0  0  0  0  0  0  0  0  0  0  0  0
  -21.9456   -6.1232   22.5160 C   0  0  0  0  0  0  0  0  0  0  0  0
  -22.9218   -4.2059   24.2918 C   0  0  0  0  0  0  0  0  0  0  0  0
  -21.2050   -5.7786   23.6466 C   0  0  0  0  0  0  0  0  0  0  0  0
  -24.5513  -11.6612   20.8070 C   0  0  0  0  0  0  0  0  0  0  0  0
  -25.2355  -13.7339   20.5409 C   0  0  0  0  0  0  0  0  0  0  0  0
  -22.7749  -13.5174   20.9243 C   0  0  0  0  0  0  0  0  0  0  0  0
  -27.4507  -30.3326   20.2659 C   0  0  0  0  0  0  0  0  0  0  0  0
  -28.7475  -32.5497   18.2848 C   0  0  0  0  0  0  0  0  0  0  0  0
  -29.7885  -23.2604   16.2169 C   0  0  0  0  0  0  0  0  0  0  0  0
  -30.8103  -33.2298   15.6525 C   0  0  0  0  0  0  0  0  0  0  0  0
  -29.9653  -14.3270   17.5108 C   0  0  0  0  0  0  0  0  0  0  0  0
  -24.3080  -32.1025   23.8782 C   0  0  0  0  0  0  0  0  0  0  0  0
  -29.9061  -29.7882   20.4401 C   0  0  0  0  0  0  0  0  0  0  0  0
  -29.0550  -30.1329   17.6291 C   0  0  0  0  0  0  0  0  0  0  0  0
  -24.6581  -32.4983   22.4461 C   0  0  0  0  0  0  0  0  0  0  0  0
  -30.1164  -12.4180   20.6431 C   0  0  0  0  0  0  0  0  0  0  0  0
  -24.6065  -31.2812   21.5281 C   0  0  0  0  0  0  0  0  0  0  0  0
  -28.6440  -12.1215   20.9310 C   0  0  0  0  0  0  0  0  0  0  0  0
  -27.3862  -16.9033   17.0498 C   0  0  0  0  0  0  0  0  0  0  0  0
  -30.3945  -12.5291   19.1458 C   0  0  0  0  0  0  0  0  0  0  0  0
  -27.6599  -15.4217   17.2794 C   0  0  0  0  0  0  0  0  0  0  0  0
  -28.0571  -13.1840   18.7200 C   0  0  0  0  0  0  0  0  0  0  0  0
  -29.5840  -16.4232   16.2457 C   0  0  0  0  0  0  0  0  0  0  0  0
  -25.6293  -30.2225   21.9575 C   0  0  1  0  0  0  0  0  0  0  0  0
  -28.8544  -30.8184   20.0400 C   0  0  1  0  0  0  0  0  0  0  0  0
  -27.7249  -13.1308   20.2178 C   0  0  1  0  0  0  0  0  0  0  0  0
  -28.3392  -17.2428   15.8967 C   0  0  2  0  0  0  0  0  0  0  0  0
  -31.6375  -35.1303   14.2379 C   0  0  0  0  0  0  0  0  0  0  0  0
  -26.0779  -32.6096   16.8084 C   0  0  0  0  0  0  0  0  0  0  0  0
  -27.2351  -33.7540   14.9059 C   0  0  0  0  0  0  0  0  0  0  0  0
  -27.1350  -34.8511   17.1440 C   0  0  0  0  0  0  0  0  0  0  0  0
  -33.6186  -32.7614   16.4603 C   0  0  0  0  0  0  0  0  0  0  0  0
  -30.3765  -24.2061   17.2477 C   0  0  0  0  0  0  0  0  0  1  0  0
  -28.6483  -32.8536   16.8094 C   0  0  1  0  0  0  0  0  0  0  0  0
  -31.8966  -34.2739   15.4676 C   0  0  2  0  0  0  0  0  0  0  0  0
  -27.2832  -33.4918   16.4263 C   0  0  0  0  0  0  0  0  0  0  0  0
  -25.8695  -11.5568   20.6190 N   0  0  0  0  0  0  0  0  0  0  0  0
  -28.5904  -18.7160   15.6973 N   0  0  0  0  0  0  0  0  0  0  0  0
  -26.2570  -12.8338   20.4599 N   0  0  0  0  0  0  0  0  0  0  0  0
  -28.9505  -31.2063   18.6313 N   0  0  0  0  0  0  0  0  0  0  0  0
  -29.4791  -13.4777   18.5111 N   0  0  0  0  0  0  0  0  0  0  0  0
  -29.0799  -15.2551   16.9636 N   0  0  0  0  0  0  0  0  0  0  0  0
  -25.4492  -15.0598   20.4042 N   0  0  0  0  0  0  0  0  0  0  0  0
  -21.7243  -12.6181   21.1521 N   0  0  0  0  0  0  0  0  0  0  0  0
  -29.6774  -21.9398   16.7132 N   0  0  0  0  0  0  0  0  0  0  0  0
  -26.9588  -30.6010   21.5290 N   0  0  0  0  0  0  0  0  0  0  0  0
  -29.8062  -33.6791   16.4839 N   0  0  0  0  0  0  0  0  0  0  0  0
  -33.2252  -33.6171   15.3114 N   0  3  0  0  0  0  0  0  0  0  0  0
  -22.5267  -14.7446   20.8472 O   0  0  0  0  0  0  0  0  0  0  0  0
  -26.8571  -29.7580   19.3608 O   0  0  0  0  0  0  0  0  0  0  0  0
  -28.6557  -33.4713   19.0996 O   0  0  0  0  0  0  0  0  0  0  0  0
  -29.4652  -23.6489   15.0992 O   0  0  0  0  0  0  0  0  0  0  0  0
  -30.8467  -32.1274   15.1103 O   0  0  0  0  0  0  0  0  0  0  0  0
  -31.1508  -14.2900   17.1551 O   0  0  0  0  0  0  0  0  0  0  0  0
  -21.4620   -7.0742   21.6330 O   0  0  0  0  0  0  0  0  0  0  0  0
  -30.4593  -25.5192   16.7358 O   0  0  0  0  0  0  0  0  0  1  0  0
  -23.3899   -3.2842   25.1436 F   0  0  0  0  0  0  0  0  0  0  0  0
  -20.0233   -6.3643   23.8845 F   0  0  0  0  0  0  0  0  0  0  0  0
  1  2  1  0  0  0  0
  1  5  2  0  0  0  0
  2  6  2  0  0  0  0
  3  8  2  0  0  0  0
  3 18  1  0  0  0  0
  4  9  1  0  0  0  0
  4 18  2  0  0  0  0
  5 20  1  0  0  0  0
  6 22  1  0  0  0  0
  7 10  2  0  0  0  0
  7 21  1  0  0  0  0
  8 25  1  0  0  0  0
  9 25  2  0  0  0  0
 10 26  1  0  0  0  0
 11 12  2  0  0  0  0
 11 27  1  0  0  0  0
 12 28  1  0  0  0  0
 13 16  2  0  0  0  0
 13 24  1  0  0  0  0
 14 23  1  0  0  0  0
 14 26  2  0  0  0  0
 15 28  2  0  0  0  0
 15 29  1  0  0  0  0
 16 64  1  0  0  0  0
 17 24  2  0  0  0  0
 17 64  1  0  0  0  0
 18 30  1  0  0  0  0
 19 30  1  0  0  0  0
 19 31  2  0  0  0  0
 19 32  1  0  0  0  0
 20 22  2  0  0  0  0
 20 38  1  0  0  0  0
 21 23  2  0  0  0  0
 21 39  1  0  0  0  0
 22 50  1  0  0  0  0
 23 40  1  0  0  0  0
 24 71  1  0  0  0  0
 25 81  1  0  0  0  0
 26 82  1  0  0  0  0
 27 29  2  0  0  0  0
 27 81  1  0  0  0  0
 28 83  1  0  0  0  0
 29 84  1  0  0  0  0
 30 63  2  0  0  0  0
 31 65  1  0  0  0  0
 31 69  1  0  0  0  0
 32 70  1  0  0  0  0
 32 75  2  0  0  0  0
 33 51  1  0  0  0  0
 33 72  1  0  0  0  0
 33 76  2  0  0  0  0
 34 60  1  0  0  0  0
 34 66  1  0  0  0  0
 34 77  2  0  0  0  0
 35 59  1  0  0  0  0
 35 71  1  0  0  0  0
 35 78  2  0  0  0  0
 36 61  1  0  0  0  0
 36 73  1  0  0  0  0
 36 79  2  0  0  0  0
 37 67  1  0  0  0  0
 37 68  1  0  0  0  0
 37 80  2  0  0  0  0
 38 41  1  0  0  0  0
 39 51  1  0  0  0  0
 40 66  1  0  0  0  0
 41 43  1  0  0  0  0
 42 44  1  0  0  0  0
 42 46  1  0  0  0  0
 43 50  1  0  0  0  0
 44 52  1  0  0  0  0
 45 47  1  0  0  0  0
 45 53  1  0  0  0  0
 46 67  1  0  0  0  0
 47 68  1  0  0  0  0
 48 52  1  0  0  0  0
 48 67  1  0  0  0  0
 49 53  1  0  0  0  0
 49 68  1  0  0  0  0
 50 72  1  0  0  0  0
 51 66  1  0  0  0  0
 52 65  1  0  0  0  0
 53 64  1  0  0  0  0
 54 61  1  0  0  0  0
 55 62  1  0  0  0  0
 56 62  1  0  0  0  0
 57 62  1  0  0  0  0
 58 74  1  0  0  0  0
 59 82  1  0  0  0  0
 60 62  1  0  0  0  0
 60 73  1  0  0  0  0
 61 74  1  0  0  0  0
 63 65  1  0  0  0  0
M  CHG  1  74   1
M  ISO  4  37 100  59 101  68 100  82 101
M  END
> <Batch ID>
0154

> <Smiles>
CNC(C)C(=O)NC(C(=O)N1Cc2cc([101O:1][101CH2:1]C(=O)Nc3ccn(C4CC[100N:0]([100C:0](=O)N5CCCC(n6nc(-c7ccc(Oc8ccc(F)cc8F)cc7)c(C(N)=O)c6N)C5)C4)c3)ccc2CC1C(=O)NC1CCCc2ccccc21)C(C)(C)C

> <Shape>
0.244

> <Color>
0.182

> <Negative vol penalty>
0.000

$$$$

  -OEChem-04052303333D

 92101  0     1  0  0  0  0  0999 V2000
  -24.6941  -19.6395   17.5668 C   0  0  0  0  0  0  0  0  0  0  0  0
  -24.1307  -20.9011   17.7289 C   0  0  0  0  0  0  0  0  0  0  0  0
  -23.0802  -13.7659   21.1426 C   0  0  0  0  0  0  0  0  0  0  0  0
  -24.9007  -14.7000   22.4272 C   0  0  0  0  0  0  0  0  0  0  0  0
  -25.8322  -19.2872   18.2910 C   0  0  0  0  0  0  0  0  0  0  0  0
  -24.7046  -21.8109   18.6162 C   0  0  0  0  0  0  0  0  0  0  0  0
  -24.9815  -27.8960   17.9833 C   0  0  0  0  0  0  0  0  0  0  0  0
  -23.9403  -12.7952   20.6294 C   0  0  0  0  0  0  0  0  0  0  0  0
  -25.7609  -13.7292   21.9140 C   0  0  0  0  0  0  0  0  0  0  0  0
  -24.2050  -28.9297   18.5052 C   0  0  0  0  0  0  0  0  0  0  0  0
  -27.4709  -13.1788   19.0498 C   0  0  0  0  0  0  0  0  0  0  0  0
  -28.7270  -13.5942   18.6079 C   0  0  0  0  0  0  0  0  0  0  0  0
  -25.8052  -29.2244   20.2862 C   0  0  0  0  0  0  0  0  0  0  0  0
  -18.9494  -25.9441   22.4182 C   0  0  0  0  0  0  0  0  0  0  0  0
  -19.5140  -28.1884   21.7244 C   0  0  0  0  0  0  0  0  0  0  0  0
  -29.7773  -12.1349   20.2217 C   0  0  0  0  0  0  0  0  0  0  0  0
  -23.5604  -14.7184   22.0414 C   0  0  0  0  0  0  0  0  0  0  0  0
  -21.8926  -15.6350   23.7402 C   0  0  0  0  0  0  0  0  0  0  0  0
  -26.4259  -20.1966   19.1805 C   0  0  0  0  0  0  0  0  0  0  0  0
  -26.1722  -27.5109   18.6162 C   0  0  0  0  0  0  0  0  0  0  0  0
  -25.8509  -21.4700   19.3541 C   0  0  0  0  0  0  0  0  0  0  0  0
  -26.5963  -28.1872   19.7689 C   0  0  0  0  0  0  0  0  0  0  0  0
  -20.1397  -25.8682   23.1414 C   0  0  0  0  0  0  0  0  0  0  0  0
  -21.0171  -26.9524   23.1561 C   0  0  0  0  0  0  0  0  0  0  0  0
  -18.6365  -27.1042   21.7096 C   0  0  0  0  0  0  0  0  0  0  0  0
  -20.7043  -28.1125   22.4476 C   0  0  0  0  0  0  0  0  0  0  0  0
  -25.2807  -12.7768   21.0151 C   0  0  0  0  0  0  0  0  0  0  0  0
  -24.6153  -29.5921   19.6585 C   0  0  0  0  0  0  0  0  0  0  0  0
  -27.3680  -12.2415   20.0777 C   0  0  0  0  0  0  0  0  0  0  0  0
  -29.8802  -13.0723   19.1938 C   0  0  0  0  0  0  0  0  0  0  0  0
  -28.5212  -11.7195   20.6636 C   0  0  0  0  0  0  0  0  0  0  0  0
  -22.6725  -15.7218   22.5715 C   0  0  0  0  0  0  0  0  0  0  0  0
  -21.2325  -16.8379   23.8026 C   0  0  0  0  0  0  0  0  0  0  0  0
  -23.4785  -26.4078   23.4302 C   0  0  0  0  0  0  0  0  0  0  0  0
  -21.7753  -14.5630   24.6851 C   0  0  0  0  0  0  0  0  0  0  0  0
  -27.2221  -24.8422   19.9872 C   0  0  0  0  0  0  0  0  0  0  0  0
  -30.0035  -26.4998   20.1834 C   0  0  0  0  0  0  0  0  0  0  0  0
  -21.3988  -30.4438   21.7943 C   0  0  0  0  0  0  0  0  0  0  0  0
  -31.5693  -29.5305   20.2811 C   0  0  0  0  0  0  0  0  0  0  0  0
  -21.2640  -22.3021   23.5053 C   0  0  0  0  0  0  0  0  0  0  0  0
  -27.6279  -19.7537   19.9767 C   0  0  0  0  0  0  0  0  0  0  0  0
  -27.0121  -26.4117   18.0255 C   0  0  0  0  0  0  0  0  0  0  0  0
  -27.8768  -27.8256   20.4746 C   0  0  0  0  0  0  0  0  0  0  0  0
  -28.3932  -20.9087   20.6175 C   0  0  0  0  0  0  0  0  0  0  0  0
  -20.7957  -20.5377   20.3804 C   0  0  0  0  0  0  0  0  0  0  0  0
  -27.4296  -21.8736   21.3010 C   0  0  0  0  0  0  0  0  0  0  0  0
  -21.1814  -19.1111   20.7758 C   0  0  0  0  0  0  0  0  0  0  0  0
  -23.6180  -26.7314   25.7875 C   0  0  0  0  0  0  0  0  0  0  0  0
  -21.6806  -21.5641   21.0815 C   0  0  0  0  0  0  0  0  0  0  0  0
  -22.3225  -27.3301   25.2743 C   0  0  0  0  0  0  0  0  0  0  0  0
  -22.0823  -20.0259   22.9647 C   0  0  0  0  0  0  0  0  0  0  0  0
  -26.4588  -22.4933   20.2887 C   0  0  1  0  0  0  0  0  0  0  0  0
  -27.9444  -25.7602   19.0421 C   0  0  1  0  0  0  0  0  0  0  0  0
  -21.2094  -18.9421   22.3064 C   0  0  2  0  0  0  0  0  0  0  0  0
  -24.5017  -26.6403   24.5409 C   0  0  0  0  0  0  0  0  0  0  0  0
  -25.4962  -25.4859   24.6381 C   0  0  0  0  0  0  0  0  0  0  0  0
  -25.2374  -27.9584   24.2725 C   0  0  0  0  0  0  0  0  0  0  0  0
  -33.8464  -30.5658   20.4831 C   0  0  0  0  0  0  0  0  0  0  0  0
  -30.0207  -25.8735   23.1696 C   0  0  0  0  0  0  0  0  0  0  0  0
  -31.7321  -27.6766   23.4670 C   0  0  0  0  0  0  0  0  0  0  0  0
  -32.2504  -25.6886   22.0521 C   0  0  0  0  0  0  0  0  0  0  0  0
  -31.3353  -30.8412   17.6380 C   0  0  0  0  0  0  0  0  0  0  0  0
  -20.4457  -24.6125   23.8918 C   0  0  0  0  0  0  0  0  0  0  0  0
  -22.5809  -31.3692   22.0596 C   0  0  0  0  0  0  0  0  0  0  0  0
  -23.9070  -30.7962   21.5831 C   0  0  0  0  0  0  0  0  0  1  0  0
  -30.6257  -27.4277   21.1987 C   0  0  1  0  0  0  0  0  0  0  0  0
  -32.7732  -30.0671   19.5279 C   0  0  2  0  0  0  0  0  0  0  0  0
  -31.1321  -26.6723   22.4599 C   0  0  0  0  0  0  0  0  0  0  0  0
  -22.5227  -16.8876   21.9370 N   0  0  0  0  0  0  0  0  0  0  0  0
  -21.6409  -17.5443   22.7098 N   0  0  0  0  0  0  0  0  0  0  0  0
  -22.2326  -26.8717   23.9009 N   0  0  0  0  0  0  0  0  0  0  0  0
  -28.6601  -26.7400   19.8619 N   0  0  0  0  0  0  0  0  0  0  0  0
  -21.6484  -21.3600   22.5367 N   0  0  0  0  0  0  0  0  0  0  0  0
  -17.4328  -27.1805   20.9789 N   0  0  0  0  0  0  0  0  0  0  0  0
  -20.3482  -17.3495   24.6851 N   0  0  0  0  0  0  0  0  0  0  0  0
  -22.5240  -13.3979   24.4699 N   0  0  0  0  0  0  0  0  0  0  0  0
  -21.5763  -29.2272   22.4477 N   0  0  0  0  0  0  0  0  0  0  0  0
  -27.1146  -23.5408   19.5355 N   0  0  0  0  0  0  0  0  0  0  0  0
  -31.6626  -28.1709   20.4910 N   0  0  0  0  0  0  0  0  0  0  0  0
  -20.8735  -23.5431   23.0175 N   0  0  0  0  0  0  0  0  0  0  0  0
  -32.3696  -31.1966   18.6435 N   0  3  0  0  0  0  0  0  0  0  0  0
  -23.7769  -25.9543   22.3341 O   0  0  0  0  0  0  0  0  0  0  0  0
  -21.0163  -14.6297   25.6815 O   0  0  0  0  0  0  0  0  0  0  0  0
  -26.7952  -25.2819   21.0485 O   0  0  0  0  0  0  0  0  0  0  0  0
  -30.6864  -25.5996   19.6884 O   0  0  0  0  0  0  0  0  0  0  0  0
  -20.4509  -30.7804   21.0926 O   0  0  0  0  0  0  0  0  0  0  0  0
  -30.6410  -30.2466   20.6500 O   0  0  0  0  0  0  0  0  0  0  0  0
  -21.2636  -22.0538   24.7159 O   0  0  0  0  0  0  0  0  0  0  0  0
  -26.1203  -11.8295   20.5148 O   0  0  0  0  0  0  0  0  0  0  0  0
  -23.8590  -30.6009   20.1704 O   0  0  0  0  0  0  0  0  0  1  0  0
  -31.0864  -13.4701   18.7683 F   0  0  0  0  0  0  0  0  0  0  0  0
  -28.4287  -10.8179   21.6507 F   0  0  0  0  0  0  0  0  0  0  0  0
  1  2  1  0  0  0  0
  1  5  2  0  0  0  0
  2  6  2  0  0  0  0
  3  8  2  0  0  0  0
  3 17  1  0  0  0  0
  4  9  1  0  0  0  0
  4 17  2  0  0  0  0
  5 19  1  0  0  0  0
  6 21  1  0  0  0  0
  7 10  2  0  0  0  0
  7 20  1  0  0  0  0
  8 27  1  0  0  0  0
  9 27  2  0  0  0  0
 10 28  1  0  0  0  0
 11 12  2  0  0  0  0
 11 29  1  0  0  0  0
 12 30  1  0  0  0  0
 13 22  1  0  0  0  0
 13 28  2  0  0  0  0
 14 23  2  0  0  0  0
 14 25  1  0  0  0  0
 15 25  2  0  0  0  0
 15 26  1  0  0  0  0
 16 30  2  0  0  0  0
 16 31  1  0  0  0  0
 17 32  1  0  0  0  0
 18 32  1  0  0  0  0
 18 33  2  0  0  0  0
 18 35  1  0  0  0  0
 19 21  2  0  0  0  0
 19 41  1  0  0  0  0
 20 22  2  0  0  0  0
 20 42  1  0  0  0  0
 21 52  1  0  0  0  0
 22 43  1  0  0  0  0
 23 24  1  0  0  0  0
 23 63  1  0  0  0  0
 24 26  2  0  0  0  0
 24 71  1  0  0  0  0
 25 74  1  0  0  0  0
 26 77  1  0  0  0  0
 27 89  1  0  0  0  0
 28 90  1  0  0  0  0
 29 31  2  0  0  0  0
 29 89  1  0  0  0  0
 30 91  1  0  0  0  0
 31 92  1  0  0  0  0
 32 69  2  0  0  0  0
 33 70  1  0  0  0  0
 33 75  1  0  0  0  0
 34 55  1  0  0  0  0
 34 71  1  0  0  0  0
 34 82  2  0  0  0  0
 35 76  1  0  0  0  0
 35 83  2  0  0  0  0
 36 53  1  0  0  0  0
 36 78  1  0  0  0  0
 36 84  2  0  0  0  0
 37 66  1  0  0  0  0
 37 72  1  0  0  0  0
 37 85  2  0  0  0  0
 38 64  1  0  0  0  0
 38 77  1  0  0  0  0
 38 86  2  0  0  0  0
 39 67  1  0  0  0  0
 39 79  1  0  0  0  0
 39 87  2  0  0  0  0
 40 73  1  0  0  0  0
 40 80  1  0  0  0  0
 40 88  2  0  0  0  0
 41 44  1  0  0  0  0
 42 53  1  0  0  0  0
 43 72  1  0  0  0  0
 44 46  1  0  0  0  0
 45 47  1  0  0  0  0
 45 49  1  0  0  0  0
 46 52  1  0  0  0  0
 47 54  1  0  0  0  0
 48 50  1  0  0  0  0
 48 55  1  0  0  0  0
 49 73  1  0  0  0  0
 50 71  1  0  0  0  0
 51 54  1  0  0  0  0
 51 73  1  0  0  0  0
 52 78  1  0  0  0  0
 53 72  1  0  0  0  0
 54 70  1  0  0  0  0
 55 56  1  0  0  0  0
 55 57  1  0  0  0  0
 58 67  1  0  0  0  0
 59 68  1  0  0  0  0
 60 68  1  0  0  0  0
 61 68  1  0  0  0  0
 62 81  1  0  0  0  0
 63 80  1  0  0  0  0
 64 65  1  0  0  0  0
 65 90  1  0  0  0  0
 66 68  1  0  0  0  0
 66 79  1  0  0  0  0
 67 81  1  0  0  0  0
 69 70  1  0  0  0  0
M  CHG  1  81   1
M  ISO  4  40 100  65 101  80 100  90 101
M  END
> <Batch ID>
0154

> <Smiles>
CNC(C)C(=O)NC(C(=O)N1Cc2cc([101O:1][101CH2:1]CC(=O)Nc3cc(N)cc(C[100NH:0][100C:0](=O)N4CCCC(n5nc(-c6ccc(Oc7ccc(F)cc7F)cc6)c(C(N)=O)c5N)C4)c3N3CCC(C)(C)C3=O)ccc2CC1C(=O)NC1CCCc2ccccc21)C(C)(C)C

> <Shape>
0.223

> <Color>
0.079

> <Negative vol penalty>
0.000

$$$$

  -OEChem-04052303333D

 84 93  0     1  0  0  0  0  0999 V2000
  -14.7669  -10.8997   23.5489 C   0  0  0  0  0  0  0  0  0  0  0  0
  -15.9014  -11.3424   22.8764 C   0  0  0  0  0  0  0  0  0  0  0  0
  -27.4397  -23.4958   20.5995 C   0  0  0  0  0  0  0  0  0  0  0  0
  -28.9206  -23.4964   18.6905 C   0  0  0  0  0  0  0  0  0  0  0  0
  -13.8094  -11.8180   23.9779 C   0  0  0  0  0  0  0  0  0  0  0  0
  -16.0786  -12.7037   22.6315 C   0  0  0  0  0  0  0  0  0  0  0  0
  -20.7898  -14.2622   23.6417 C   0  0  0  0  0  0  0  0  0  0  0  0
  -27.5273  -24.8861   20.6679 C   0  0  0  0  0  0  0  0  0  0  0  0
  -29.0082  -24.8868   18.7589 C   0  0  0  0  0  0  0  0  0  0  0  0
  -21.7730  -13.9716   22.6969 C   0  0  0  0  0  0  0  0  0  0  0  0
  -26.1924  -27.5480   19.0662 C   0  0  0  0  0  0  0  0  0  0  0  0
  -25.0097  -28.2636   19.2523 C   0  0  0  0  0  0  0  0  0  0  0  0
  -21.6080  -16.2214   21.8422 C   0  0  0  0  0  0  0  0  0  0  0  0
  -28.2246  -13.5551   19.0713 C   0  0  0  0  0  0  0  0  0  0  0  0
  -25.8885  -29.1815   21.3071 C   0  0  0  0  0  0  0  0  0  0  0  0
  -29.3760  -11.5773   18.6653 C   0  0  0  0  0  0  0  0  0  0  0  0
  -28.1364  -22.8008   19.6108 C   0  0  0  0  0  0  0  0  0  0  0  0
  -27.1100  -20.6061   18.8127 C   0  0  0  0  0  0  0  0  0  0  0  0
  -13.9797  -13.1921   23.7466 C   0  0  0  0  0  0  0  0  0  0  0  0
  -20.1996  -15.5335   23.6869 C   0  0  0  0  0  0  0  0  0  0  0  0
  -15.1219  -13.6411   23.0566 C   0  0  0  0  0  0  0  0  0  0  0  0
  -20.6194  -16.5264   22.7902 C   0  0  0  0  0  0  0  0  0  0  0  0
  -29.3890  -12.9470   18.5194 C   0  0  0  0  0  0  0  0  0  0  0  0
  -28.3115  -25.5817   19.7476 C   0  0  0  0  0  0  0  0  0  0  0  0
  -22.1801  -14.9504   21.7950 C   0  0  0  0  0  0  0  0  0  0  0  0
  -27.2232  -27.6490   20.0006 C   0  0  0  0  0  0  0  0  0  0  0  0
  -24.8578  -29.0804   20.3728 C   0  0  0  0  0  0  0  0  0  0  0  0
  -27.0712  -28.4658   21.1210 C   0  0  0  0  0  0  0  0  0  0  0  0
  -28.0468  -21.3645   19.5399 C   0  0  0  0  0  0  0  0  0  0  0  0
  -27.4482  -19.3007   19.0736 C   0  0  0  0  0  0  0  0  0  0  0  0
  -27.3658  -12.6268   19.6179 C   0  0  0  0  0  0  0  0  0  0  0  0
  -26.0305  -21.0425   17.9760 C   0  0  0  0  0  0  0  0  0  0  0  0
  -17.2498  -16.6521   23.2983 C   0  0  0  0  0  0  0  0  0  0  0  0
  -18.6088  -19.4510   24.2157 C   0  0  0  0  0  0  0  0  0  0  0  0
  -25.4322  -13.9761   20.4977 C   0  0  0  0  0  0  0  0  0  0  0  0
  -21.4320  -21.3491   24.4869 C   0  0  0  0  0  0  0  0  0  0  0  0
  -31.1949  -15.2880   19.6697 C   0  0  0  0  0  0  0  0  0  0  0  0
  -12.8946  -14.1423   24.1874 C   0  0  0  0  0  0  0  0  0  0  0  0
  -19.1594  -15.8391   24.7295 C   0  0  0  0  0  0  0  0  0  0  0  0
  -20.0317  -17.9129   22.8103 C   0  0  0  0  0  0  0  0  0  0  0  0
  -13.3392  -15.6023   24.2187 C   0  0  0  0  0  0  0  0  0  0  0  0
  -30.9668  -15.2318   16.0511 C   0  0  0  0  0  0  0  0  0  0  0  0
  -30.6173  -17.3147   22.4604 C   0  0  0  0  0  0  0  0  0  0  0  0
  -30.2676  -13.9113   16.3487 C   0  0  0  0  0  0  0  0  0  0  0  0
  -14.0918  -15.9587   22.9406 C   0  0  0  0  0  0  0  0  0  0  0  0
  -29.8361  -18.5019   21.9008 C   0  0  0  0  0  0  0  0  0  0  0  0
  -31.7099  -16.8789   21.4921 C   0  0  0  0  0  0  0  0  0  0  0  0
  -30.6780  -16.0548   17.2969 C   0  0  0  0  0  0  0  0  0  0  0  0
  -30.4046  -17.6970   19.5531 C   0  0  0  0  0  0  0  0  0  0  0  0
  -30.5064  -13.7160   17.8518 C   0  0  1  0  0  0  0  0  0  0  0  0
  -15.3619  -15.1120   22.7939 C   0  0  1  0  0  0  0  0  0  0  0  0
  -18.2602  -17.0118   24.3506 C   0  0  1  0  0  0  0  0  0  0  0  0
  -29.2882  -18.1833   20.4998 C   0  0  2  0  0  0  0  0  0  0  0  0
  -22.2218  -23.6085   25.2410 C   0  0  0  0  0  0  0  0  0  0  0  0
  -17.4547  -20.6977   21.6811 C   0  0  0  0  0  0  0  0  0  0  0  0
  -19.0266  -22.6209   21.9949 C   0  0  0  0  0  0  0  0  0  0  0  0
  -17.2906  -22.1371   23.7197 C   0  0  0  0  0  0  0  0  0  0  0  0
  -23.2129  -20.1710   26.5362 C   0  0  0  0  0  0  0  0  0  0  0  0
  -24.1224  -13.7065   21.2150 C   0  0  0  0  0  0  0  0  0  1  0  0
  -19.2835  -20.5968   23.5008 C   0  0  1  0  0  0  0  0  0  0  0  0
  -21.9942  -22.1591   25.6411 C   0  0  2  0  0  0  0  0  0  0  0  0
  -18.2738  -21.4865   22.7222 C   0  0  0  0  0  0  0  0  0  0  0  0
  -28.9150  -20.6043   20.2125 N   0  0  0  0  0  0  0  0  0  0  0  0
  -28.5250  -19.3545   19.9091 N   0  0  0  0  0  0  0  0  0  0  0  0
  -19.0134  -18.1610   23.8443 N   0  0  0  0  0  0  0  0  0  0  0  0
  -31.1667  -16.5988   20.1625 N   0  0  0  0  0  0  0  0  0  0  0  0
  -30.6866  -15.0752   18.3850 N   0  0  0  0  0  0  0  0  0  0  0  0
  -26.9267  -18.1236   18.6678 N   0  0  0  0  0  0  0  0  0  0  0  0
  -25.8233  -22.4194   17.8167 N   0  0  0  0  0  0  0  0  0  0  0  0
  -26.1573  -12.7828   20.2382 N   0  0  0  0  0  0  0  0  0  0  0  0
  -16.4081  -15.6166   23.6571 N   0  0  0  0  0  0  0  0  0  0  0  0
  -20.0539  -21.3121   24.5124 N   0  0  0  0  0  0  0  0  0  0  0  0
  -23.2942  -21.5861   26.0913 N   0  3  0  0  0  0  0  0  0  0  0  0
  -25.2620  -20.2353   17.4003 O   0  0  0  0  0  0  0  0  0  0  0  0
  -17.2340  -17.2694   22.2398 O   0  0  0  0  0  0  0  0  0  0  0  0
  -17.7594  -19.6920   25.0771 O   0  0  0  0  0  0  0  0  0  0  0  0
  -25.7787  -15.1142   20.1990 O   0  0  0  0  0  0  0  0  0  0  0  0
  -22.1441  -20.8068   23.6446 O   0  0  0  0  0  0  0  0  0  0  0  0
  -31.6698  -14.3577   20.3337 O   0  0  0  0  0  0  0  0  0  0  0  0
  -28.3970  -26.9385   19.8140 O   0  0  0  0  0  0  0  0  0  0  0  0
  -23.1491  -14.6662   20.8617 O   0  0  0  0  0  0  0  0  0  1  0  0
  -23.7226  -29.7688   20.5506 F   0  0  0  0  0  0  0  0  0  0  0  0
  -28.0584  -28.5678   22.0215 F   0  0  0  0  0  0  0  0  0  0  0  0
  -27.9642  -11.0296   19.4648 S   0  0  0  0  0  0  0  0  0  0  0  0
  1  2  1  0  0  0  0
  1  5  2  0  0  0  0
  2  6  2  0  0  0  0
  3  8  2  0  0  0  0
  3 17  1  0  0  0  0
  4  9  1  0  0  0  0
  4 17  2  0  0  0  0
  5 19  1  0  0  0  0
  6 21  1  0  0  0  0
  7 10  2  0  0  0  0
  7 20  1  0  0  0  0
  8 24  1  0  0  0  0
  9 24  2  0  0  0  0
 10 25  1  0  0  0  0
 11 12  2  0  0  0  0
 11 26  1  0  0  0  0
 12 27  1  0  0  0  0
 13 22  1  0  0  0  0
 13 25  2  0  0  0  0
 14 23  1  0  0  0  0
 14 31  2  0  0  0  0
 15 27  2  0  0  0  0
 15 28  1  0  0  0  0
 16 23  2  0  0  0  0
 16 84  1  0  0  0  0
 17 29  1  0  0  0  0
 18 29  1  0  0  0  0
 18 30  2  0  0  0  0
 18 32  1  0  0  0  0
 19 21  2  0  0  0  0
 19 38  1  0  0  0  0
 20 22  2  0  0  0  0
 20 39  1  0  0  0  0
 21 51  1  0  0  0  0
 22 40  1  0  0  0  0
 23 50  1  0  0  0  0
 24 80  1  0  0  0  0
 25 81  1  0  0  0  0
 26 28  2  0  0  0  0
 26 80  1  0  0  0  0
 27 82  1  0  0  0  0
 28 83  1  0  0  0  0
 29 63  2  0  0  0  0
 30 64  1  0  0  0  0
 30 68  1  0  0  0  0
 31 70  1  0  0  0  0
 31 84  1  0  0  0  0
 32 69  1  0  0  0  0
 32 74  2  0  0  0  0
 33 52  1  0  0  0  0
 33 71  1  0  0  0  0
 33 75  2  0  0  0  0
 34 60  1  0  0  0  0
 34 65  1  0  0  0  0
 34 76  2  0  0  0  0
 35 59  1  0  0  0  0
 35 70  1  0  0  0  0
 35 77  2  0  0  0  0
 36 61  1  0  0  0  0
 36 72  1  0  0  0  0
 36 78  2  0  0  0  0
 37 66  1  0  0  0  0
 37 67  1  0  0  0  0
 37 79  2  0  0  0  0
 38 41  1  0  0  0  0
 39 52  1  0  0  0  0
 40 65  1  0  0  0  0
 41 45  1  0  0  0  0
 42 44  1  0  0  0  0
 42 48  1  0  0  0  0
 43 46  1  0  0  0  0
 43 47  1  0  0  0  0
 44 50  1  0  0  0  0
 45 51  1  0  0  0  0
 46 53  1  0  0  0  0
 47 66  1  0  0  0  0
 48 67  1  0  0  0  0
 49 53  1  0  0  0  0
 49 66  1  0  0  0  0
 50 67  1  0  0  0  0
 51 71  1  0  0  0  0
 52 65  1  0  0  0  0
 53 64  1  0  0  0  0
 54 61  1  0  0  0  0
 55 62  1  0  0  0  0
 56 62  1  0  0  0  0
 57 62  1  0  0  0  0
 58 73  1  0  0  0  0
 59 81  1  0  0  0  0
 60 62  1  0  0  0  0
 60 72  1  0  0  0  0
 61 73  1  0  0  0  0
 63 64  1  0  0  0  0
M  CHG  1  73   1
M  ISO  4  37 100  59 101  67 100  81 101
M  END
> <Batch ID>
0154

> <Smiles>
CNC(C)C(=O)NC(C(=O)N1Cc2cc([101O:1][101CH2:1]C(=O)Nc3cc(C4CCC[100N:0]4[100C:0](=O)N4CCCC(n5nc(-c6ccc(Oc7ccc(F)cc7F)cc6)c(C(N)=O)c5N)C4)cs3)ccc2CC1C(=O)NC1CCCc2ccccc21)C(C)(C)C

> <Shape>
0.194

> <Color>
0.105

> <Negative vol penalty>
0.000

$$$$

  -OEChem-04052303333D

 83 91  0     1  0  0  0  0  0999 V2000
  -16.6754  -30.6657   23.2840 C   0  0  0  0  0  0  0  0  0  0  0  0
  -17.8121  -31.2274   23.8564 C   0  0  0  0  0  0  0  0  0  0  0  0
  -27.3198  -17.4538   20.2062 C   0  0  0  0  0  0  0  0  0  0  0  0
  -29.6053  -16.9340   19.6202 C   0  0  0  0  0  0  0  0  0  0  0  0
  -16.7453  -29.4067   22.6890 C   0  0  0  0  0  0  0  0  0  0  0  0
  -19.0194  -30.5299   23.8351 C   0  0  0  0  0  0  0  0  0  0  0  0
  -26.0886  -31.6169   23.4330 C   0  0  0  0  0  0  0  0  0  0  0  0
  -26.9373  -16.1565   19.8651 C   0  0  0  0  0  0  0  0  0  0  0  0
  -29.2228  -15.6367   19.2791 C   0  0  0  0  0  0  0  0  0  0  0  0
  -27.2691  -31.2828   24.0953 C   0  0  0  0  0  0  0  0  0  0  0  0
  -25.4221  -12.8734   19.4908 C   0  0  0  0  0  0  0  0  0  0  0  0
  -24.5680  -12.1986   20.3630 C   0  0  0  0  0  0  0  0  0  0  0  0
  -33.1651  -28.2821   21.8572 C   0  0  0  0  0  0  0  0  0  0  0  0
  -33.8407  -27.6711   20.7616 C   0  0  0  0  0  0  0  0  0  0  0  0
  -27.2896  -29.1492   22.9697 C   0  0  0  0  0  0  0  0  0  0  0  0
  -26.2085  -12.4000   22.1253 C   0  0  0  0  0  0  0  0  0  0  0  0
  -28.6538  -17.8425   20.0837 C   0  0  0  0  0  0  0  0  0  0  0  0
  -29.4770  -19.6395   21.6965 C   0  0  0  0  0  0  0  0  0  0  0  0
  -17.9563  -28.6976   22.6519 C   0  0  0  0  0  0  0  0  0  0  0  0
  -25.4929  -30.7137   22.5408 C   0  0  0  0  0  0  0  0  0  0  0  0
  -19.1053  -29.2597   23.2403 C   0  0  0  0  0  0  0  0  0  0  0  0
  -26.1030  -29.4753   22.2954 C   0  0  0  0  0  0  0  0  0  0  0  0
  -27.8888  -15.2479   19.4016 C   0  0  0  0  0  0  0  0  0  0  0  0
  -27.8682  -30.0477   23.8659 C   0  0  0  0  0  0  0  0  0  0  0  0
  -26.6694  -13.3114   19.9358 C   0  0  0  0  0  0  0  0  0  0  0  0
  -24.9611  -11.9619   21.6803 C   0  0  0  0  0  0  0  0  0  0  0  0
  -27.0626  -13.0748   21.2530 C   0  0  0  0  0  0  0  0  0  0  0  0
  -29.0495  -19.1826   20.4354 C   0  0  0  0  0  0  0  0  0  0  0  0
  -29.7336  -20.9757   21.5087 C   0  0  0  0  0  0  0  0  0  0  0  0
  -31.9918  -28.8898   21.4677 C   0  0  0  0  0  0  0  0  0  0  0  0
  -33.1578  -27.8349   19.5764 C   0  0  0  0  0  0  0  0  0  0  0  0
  -29.6286  -18.9203   22.9276 C   0  0  0  0  0  0  0  0  0  0  0  0
  -22.7074  -29.1872   22.4202 C   0  0  0  0  0  0  0  0  0  0  0  0
  -23.7871  -28.2559   19.5065 C   0  0  0  0  0  0  0  0  0  0  0  0
  -26.4499  -27.6932   17.4476 C   0  0  0  0  0  0  0  0  0  0  0  0
  -32.1305  -24.9352   18.4920 C   0  0  0  0  0  0  0  0  0  0  0  0
  -17.9720  -27.3194   22.0395 C   0  0  0  0  0  0  0  0  0  0  0  0
  -24.2339  -31.0999   21.8141 C   0  0  0  0  0  0  0  0  0  0  0  0
  -25.5145  -28.4785   21.3319 C   0  0  0  0  0  0  0  0  0  0  0  0
  -19.3759  -26.8075   21.7276 C   0  0  0  0  0  0  0  0  0  0  0  0
  -28.6599  -24.0364   17.6490 C   0  0  0  0  0  0  0  0  0  0  0  0
  -20.3070  -27.0475   22.9118 C   0  0  0  0  0  0  0  0  0  0  0  0
  -28.5137  -22.6983   18.3683 C   0  0  0  0  0  0  0  0  0  0  0  0
  -30.0797  -24.2516   17.1283 C   0  0  0  0  0  0  0  0  0  0  0  0
  -30.9820  -22.7768   18.9033 C   0  0  0  0  0  0  0  0  0  0  0  0
  -20.4389  -28.5448   23.2152 C   0  0  1  0  0  0  0  0  0  0  0  0
  -23.4385  -29.8971   21.3161 C   0  0  1  0  0  0  0  0  0  0  0  0
  -29.5720  -22.5567   19.4735 C   0  0  2  0  0  0  0  0  0  0  0  0
  -27.0196  -26.8986   15.1364 C   0  0  0  0  0  0  0  0  0  0  0  0
  -30.5369  -31.1727   25.6313 C   0  0  0  0  0  0  0  0  0  0  0  0
  -23.2507  -25.3779   20.3665 C   0  0  0  0  0  0  0  0  0  0  0  0
  -24.6872  -24.6150   18.4631 C   0  0  0  0  0  0  0  0  0  0  0  0
  -22.5985  -25.9012   18.0095 C   0  0  0  0  0  0  0  0  0  0  0  0
  -27.7091  -30.2774   16.7439 C   0  0  0  0  0  0  0  0  0  0  0  0
  -31.2971  -29.7383   23.7090 C   0  0  0  0  0  0  0  0  0  0  0  0
  -24.6007  -27.0943   18.9891 C   0  0  1  0  0  0  0  0  0  0  0  0
  -26.7173  -28.1053   16.0112 C   0  0  2  0  0  0  0  0  0  0  0  0
  -30.1508  -30.5613   24.2923 C   0  0  1  0  0  0  0  0  0  1  0  0
  -23.7946  -25.7649   18.9767 C   0  0  0  0  0  0  0  0  0  0  0  0
  -29.0340  -20.1500   19.5146 N   0  0  0  0  0  0  0  0  0  0  0  0
  -29.4548  -21.2281   20.1977 N   0  0  0  0  0  0  0  0  0  0  0  0
  -24.2793  -28.8999   20.6505 N   0  0  0  0  0  0  0  0  0  0  0  0
  -31.0774  -24.0547   18.1879 N   0  0  0  0  0  0  0  0  0  0  0  0
  -30.1683  -21.9475   22.3388 N   0  0  0  0  0  0  0  0  0  0  0  0
  -29.3213  -17.5530   22.9448 N   0  0  0  0  0  0  0  0  0  0  0  0
  -31.1051  -29.5691   22.2865 N   0  0  0  0  0  0  0  0  0  0  0  0
  -21.3340  -29.1753   22.2688 N   0  0  0  0  0  0  0  0  0  0  0  0
  -25.1049  -27.4996   17.6814 N   0  0  0  0  0  0  0  0  0  0  0  0
  -32.2607  -26.1282   17.6997 N   0  0  0  0  0  0  0  0  0  0  0  0
  -27.8800  -29.0354   15.9471 N   0  3  0  0  0  0  0  0  0  0  0  0
  -30.0092  -19.4774   23.9851 O   0  0  0  0  0  0  0  0  0  0  0  0
  -23.3425  -28.6859   23.3406 O   0  0  0  0  0  0  0  0  0  0  0  0
  -22.7566  -28.5843   18.9133 O   0  0  0  0  0  0  0  0  0  0  0  0
  -27.3451  -27.5532   18.2780 O   0  0  0  0  0  0  0  0  0  0  0  0
  -32.9345  -24.7081   19.3970 O   0  0  0  0  0  0  0  0  0  0  0  0
  -33.2094  -28.4411   17.0348 O   0  0  0  0  0  0  0  0  0  0  0  0
  -34.7770  -26.6799   17.9202 O   0  0  0  0  0  0  0  0  0  0  0  0
  -27.5159  -13.9819   19.0688 O   0  0  0  0  0  0  0  0  0  0  0  0
  -29.0201  -29.7188   24.5115 O   0  0  0  0  0  0  0  0  0  1  0  0
  -24.1402  -11.3153   22.5182 F   0  0  0  0  0  0  0  0  0  0  0  0
  -28.2592  -13.4943   21.6866 F   0  0  0  0  0  0  0  0  0  0  0  0
  -31.7086  -28.7224   19.7872 S   0  0  0  0  0  0  0  0  0  0  0  0
  -33.4761  -27.3206   17.9159 S   0  0  0  0  0  0  0  0  0  0  0  0
  1  2  1  0  0  0  0
  1  5  2  0  0  0  0
  2  6  2  0  0  0  0
  3  8  2  0  0  0  0
  3 17  1  0  0  0  0
  4  9  1  0  0  0  0
  4 17  2  0  0  0  0
  5 19  1  0  0  0  0
  6 21  1  0  0  0  0
  7 10  2  0  0  0  0
  7 20  1  0  0  0  0
  8 23  1  0  0  0  0
  9 23  2  0  0  0  0
 10 24  1  0  0  0  0
 11 12  2  0  0  0  0
 11 25  1  0  0  0  0
 12 26  1  0  0  0  0
 13 14  1  0  0  0  0
 13 30  2  0  0  0  0
 14 31  2  0  0  0  0
 15 22  1  0  0  0  0
 15 24  2  0  0  0  0
 16 26  2  0  0  0  0
 16 27  1  0  0  0  0
 17 28  1  0  0  0  0
 18 28  1  0  0  0  0
 18 29  2  0  0  0  0
 18 32  1  0  0  0  0
 19 21  2  0  0  0  0
 19 37  1  0  0  0  0
 20 22  2  0  0  0  0
 20 38  1  0  0  0  0
 21 46  1  0  0  0  0
 22 39  1  0  0  0  0
 23 78  1  0  0  0  0
 24 79  1  0  0  0  0
 25 27  2  0  0  0  0
 25 78  1  0  0  0  0
 26 80  1  0  0  0  0
 27 81  1  0  0  0  0
 28 60  2  0  0  0  0
 29 61  1  0  0  0  0
 29 64  1  0  0  0  0
 30 66  1  0  0  0  0
 30 82  1  0  0  0  0
 31 82  1  0  0  0  0
 31 83  1  0  0  0  0
 32 65  1  0  0  0  0
 32 71  2  0  0  0  0
 33 47  1  0  0  0  0
 33 67  1  0  0  0  0
 33 72  2  0  0  0  0
 34 56  1  0  0  0  0
 34 62  1  0  0  0  0
 34 73  2  0  0  0  0
 35 57  1  0  0  0  0
 35 68  1  0  0  0  0
 35 74  2  0  0  0  0
 36 63  1  0  0  0  0
 36 69  1  0  0  0  0
 36 75  2  0  0  0  0
 37 40  1  0  0  0  0
 38 47  1  0  0  0  0
 39 62  1  0  0  0  0
 40 42  1  0  0  0  0
 41 43  1  0  0  0  0
 41 44  1  0  0  0  0
 42 46  1  0  0  0  0
 43 48  1  0  0  0  0
 44 63  1  0  0  0  0
 45 48  1  0  0  0  0
 45 63  1  0  0  0  0
 46 67  1  0  0  0  0
 47 62  1  0  0  0  0
 48 61  1  0  0  0  0
 49 57  1  0  0  0  0
 50 58  1  0  0  0  0
 51 59  1  0  0  0  0
 52 59  1  0  0  0  0
 53 59  1  0  0  0  0
 54 70  1  0  0  0  0
 55 58  1  0  0  0  0
 55 66  1  0  0  0  0
 56 59  1  0  0  0  0
 56 68  1  0  0  0  0
 57 70  1  0  0  0  0
 58 79  1  0  0  0  0
 60 61  1  0  0  0  0
 69 83  1  0  0  0  0
 76 83  2  0  0  0  0
 77 83  2  0  0  0  0
M  CHG  1  70   1
M  ISO  4  36 100  58 101  69 100  79 101
M  END
> <Batch ID>
0154

> <Smiles>
CNC(C)C(=O)NC(C(=O)N1Cc2cc([101O:1][101CH:1](C)CNc3ccc(S(=O)(=O)[100NH:0][100C:0](=O)N4CCCC(n5nc(-c6ccc(Oc7ccc(F)cc7F)cc6)c(C(N)=O)c5N)C4)s3)ccc2CC1C(=O)NC1CCCc2ccccc21)C(C)(C)C

> <Shape>
0.289

> <Color>
0.107

> <Negative vol penalty>
0.000

$$$$

  -OEChem-04052303333D

 85 94  0     1  0  0  0  0  0999 V2000
  -16.5317  -29.9036   24.4280 C   0  0  0  0  0  0  0  0  0  0  0  0
  -16.7933  -28.5532   24.6365 C   0  0  0  0  0  0  0  0  0  0  0  0
  -29.5673  -20.9535   21.8084 C   0  0  0  0  0  0  0  0  0  0  0  0
  -28.4034  -19.7105   20.0946 C   0  0  0  0  0  0  0  0  0  0  0  0
  -17.1908  -30.5911   23.4098 C   0  0  0  0  0  0  0  0  0  0  0  0
  -17.7134  -27.8892   23.8259 C   0  0  0  0  0  0  0  0  0  0  0  0
  -22.5747  -22.6323   24.0461 C   0  0  0  0  0  0  0  0  0  0  0  0
  -29.6326  -22.0600   20.9617 C   0  0  0  0  0  0  0  0  0  0  0  0
  -28.4686  -20.8170   19.2478 C   0  0  0  0  0  0  0  0  0  0  0  0
  -22.9260  -21.4614   23.3758 C   0  0  0  0  0  0  0  0  0  0  0  0
  -26.8380  -23.7508   18.8556 C   0  0  0  0  0  0  0  0  0  0  0  0
  -25.6822  -24.0992   18.1568 C   0  0  0  0  0  0  0  0  0  0  0  0
  -24.0632  -22.7701   21.6984 C   0  0  0  0  0  0  0  0  0  0  0  0
  -26.8504  -23.7812   16.0661 C   0  0  0  0  0  0  0  0  0  0  0  0
  -28.9528  -19.7787   21.3749 C   0  0  0  0  0  0  0  0  0  0  0  0
  -28.2660  -18.5652   23.5111 C   0  0  0  0  0  0  0  0  0  0  0  0
  -18.1265  -29.9376   22.5925 C   0  0  0  0  0  0  0  0  0  0  0  0
  -22.9563  -23.8835   23.5409 C   0  0  0  0  0  0  0  0  0  0  0  0
  -18.3846  -28.5683   22.7948 C   0  0  0  0  0  0  0  0  0  0  0  0
  -23.7176  -23.9552   22.3656 C   0  0  0  0  0  0  0  0  0  0  0  0
  -29.0832  -21.9917   19.6813 C   0  0  0  0  0  0  0  0  0  0  0  0
  -23.6679  -21.5303   22.2002 C   0  0  0  0  0  0  0  0  0  0  0  0
  -28.0000  -23.4177   18.1597 C   0  0  0  0  0  0  0  0  0  0  0  0
  -25.6883  -24.1144   16.7621 C   0  0  0  0  0  0  0  0  0  0  0  0
  -28.0062  -23.4329   16.7649 C   0  0  0  0  0  0  0  0  0  0  0  0
  -28.8856  -18.6352   22.2490 C   0  0  0  0  0  0  0  0  0  0  0  0
  -25.1905  -13.2702   21.6704 C   0  0  0  0  0  0  0  0  0  0  0  0
  -25.2105  -13.8530   20.4392 C   0  0  0  0  0  0  0  0  0  0  0  0
  -28.4804  -17.2741   23.9277 C   0  0  0  0  0  0  0  0  0  0  0  0
  -24.5981  -15.5591   21.6004 C   0  0  0  0  0  0  0  0  0  0  0  0
  -27.5598  -19.5768   24.2416 C   0  0  0  0  0  0  0  0  0  0  0  0
  -21.3996  -26.4525   22.5014 C   0  0  0  0  0  0  0  0  0  0  0  0
  -24.3814  -27.7219   22.3603 C   0  0  0  0  0  0  0  0  0  0  0  0
  -24.0080  -17.9812   21.2552 C   0  0  0  0  0  0  0  0  0  0  0  0
  -27.7438  -27.1984   22.1014 C   0  0  0  0  0  0  0  0  0  0  0  0
  -29.5050  -12.1586   20.9895 C   0  0  0  0  0  0  0  0  0  0  0  0
  -18.7789  -30.7110   21.4741 C   0  0  0  0  0  0  0  0  0  0  0  0
  -22.5922  -25.1359   24.2903 C   0  0  0  0  0  0  0  0  0  0  0  0
  -24.1694  -25.2728   21.7926 C   0  0  0  0  0  0  0  0  0  0  0  0
  -25.5635  -11.8400   21.6627 C   0  0  0  0  0  0  0  0  0  0  0  0
  -20.0165  -30.0256   20.9007 C   0  0  0  0  0  0  0  0  0  0  0  0
  -31.5773  -13.6564   23.4672 C   0  0  0  0  0  0  0  0  0  0  0  0
  -19.7389  -28.5472   20.6475 C   0  0  0  0  0  0  0  0  0  0  0  0
  -31.0665  -15.0959   23.5499 C   0  0  0  0  0  0  0  0  0  0  0  0
  -31.5322  -13.1228   22.0371 C   0  0  0  0  0  0  0  0  0  0  0  0
  -29.7085  -14.6758   21.4575 C   0  0  0  0  0  0  0  0  0  0  0  0
  -19.3942  -27.8192   21.9524 C   0  0  1  0  0  0  0  0  0  0  0  0
  -22.5947  -26.3814   23.4093 C   0  0  1  0  0  0  0  0  0  0  0  0
  -29.6823  -15.2386   22.8889 C   0  0  2  0  0  0  0  0  0  0  0  0
  -25.9253  -11.6555   20.1312 C   0  0  2  0  0  0  0  0  0  0  0  0
  -29.9254  -28.4319   21.9743 C   0  0  0  0  0  0  0  0  0  0  0  0
  -23.8004  -28.4450   19.4535 C   0  0  0  0  0  0  0  0  0  0  0  0
  -26.2583  -28.7844   19.1195 C   0  0  0  0  0  0  0  0  0  0  0  0
  -25.0138  -30.2097   20.7449 C   0  0  0  0  0  0  0  0  0  0  0  0
  -25.7400  -13.2315   18.1013 C   0  0  0  0  0  0  0  0  0  0  0  0
  -28.7346  -25.9375   24.5888 C   0  0  0  0  0  0  0  0  0  0  0  0
  -23.5789  -19.1553   22.1153 C   0  0  0  0  0  0  0  0  0  1  0  0
  -27.4061  -11.3411   19.9478 C   0  0  0  0  0  0  0  0  0  0  0  0
  -25.4667  -27.7881   21.3130 C   0  0  1  0  0  0  0  0  0  0  0  0
  -28.9141  -27.7590   22.8892 C   0  0  2  0  0  0  0  0  0  0  0  0
  -25.1248  -28.7819   20.1672 C   0  0  0  0  0  0  0  0  0  0  0  0
  -29.4513  -17.4805   21.8875 N   0  0  0  0  0  0  0  0  0  0  0  0
  -24.8731  -15.1697   20.3650 N   0  0  0  0  0  0  0  0  0  0  0  0
  -29.1881  -16.6728   22.9288 N   0  0  0  0  0  0  0  0  0  0  0  0
  -25.5777  -12.9559   19.5024 N   0  0  3  0  0  0  0  0  0  0  0  0
  -23.7832  -26.4694   22.5583 N   0  0  0  0  0  0  0  0  0  0  0  0
  -30.1920  -13.2862   21.4687 N   0  0  0  0  0  0  0  0  0  0  0  0
  -28.1308  -16.6059   25.0474 N   0  0  0  0  0  0  0  0  0  0  0  0
  -28.2839  -20.3962   25.1183 N   0  0  0  0  0  0  0  0  0  0  0  0
  -24.1986  -16.8453   22.0346 N   0  0  0  0  0  0  0  0  0  0  0  0
  -20.5947  -27.5551   22.7162 N   0  0  0  0  0  0  0  0  0  0  0  0
  -26.7020  -28.0984   22.0244 N   0  0  0  0  0  0  0  0  0  0  0  0
  -28.2381  -12.4008   20.4728 N   0  0  0  0  0  0  0  0  0  0  0  0
  -29.6062  -26.6696   23.6342 N   0  3  0  0  0  0  0  0  0  0  0  0
  -26.3206  -19.7382   24.1328 O   0  0  0  0  0  0  0  0  0  0  0  0
  -21.2216  -25.5731   21.6668 O   0  0  0  0  0  0  0  0  0  0  0  0
  -24.0805  -28.7423   22.9848 O   0  0  0  0  0  0  0  0  0  0  0  0
  -24.1483  -18.0912   20.0416 O   0  0  0  0  0  0  0  0  0  0  0  0
  -27.7543  -26.0759   21.6010 O   0  0  0  0  0  0  0  0  0  0  0  0
  -29.9831  -11.0197   21.0247 O   0  0  0  0  0  0  0  0  0  0  0  0
  -29.1465  -23.0713   18.8549 O   0  0  0  0  0  0  0  0  0  0  0  0
  -24.0116  -20.3890   21.5435 O   0  0  0  0  0  0  0  0  0  1  0  0
  -24.5779  -24.4474   16.0911 F   0  0  0  0  0  0  0  0  0  0  0  0
  -29.1193  -23.1126   16.0908 F   0  0  0  0  0  0  0  0  0  0  0  0
  -24.7386  -14.3584   22.8555 S   0  0  0  0  0  0  0  0  0  0  0  0
  1  2  1  0  0  0  0
  1  5  2  0  0  0  0
  2  6  2  0  0  0  0
  3  8  2  0  0  0  0
  3 15  1  0  0  0  0
  4  9  1  0  0  0  0
  4 15  2  0  0  0  0
  5 17  1  0  0  0  0
  6 19  1  0  0  0  0
  7 10  2  0  0  0  0
  7 18  1  0  0  0  0
  8 21  1  0  0  0  0
  9 21  2  0  0  0  0
 10 22  1  0  0  0  0
 11 12  2  0  0  0  0
 11 23  1  0  0  0  0
 12 24  1  0  0  0  0
 13 20  1  0  0  0  0
 13 22  2  0  0  0  0
 14 24  2  0  0  0  0
 14 25  1  0  0  0  0
 15 26  1  0  0  0  0
 16 26  1  0  0  0  0
 16 29  2  0  0  0  0
 16 31  1  0  0  0  0
 17 19  2  0  0  0  0
 17 37  1  0  0  0  0
 18 20  2  0  0  0  0
 18 38  1  0  0  0  0
 19 47  1  0  0  0  0
 20 39  1  0  0  0  0
 21 81  1  0  0  0  0
 22 82  1  0  0  0  0
 23 25  2  0  0  0  0
 23 81  1  0  0  0  0
 24 83  1  0  0  0  0
 25 84  1  0  0  0  0
 26 62  2  0  0  0  0
 27 28  2  0  0  0  0
 27 40  1  0  0  0  0
 27 85  1  0  0  0  0
 28 63  1  0  0  0  0
 28 65  1  0  0  0  0
 29 64  1  0  0  0  0
 29 68  1  0  0  0  0
 30 63  2  0  0  0  0
 30 70  1  0  0  0  0
 30 85  1  0  0  0  0
 31 69  1  0  0  0  0
 31 75  2  0  0  0  0
 32 48  1  0  0  0  0
 32 71  1  0  0  0  0
 32 76  2  0  0  0  0
 33 59  1  0  0  0  0
 33 66  1  0  0  0  0
 33 77  2  0  0  0  0
 34 57  1  0  0  0  0
 34 70  1  0  0  0  0
 34 78  2  0  0  0  0
 35 60  1  0  0  0  0
 35 72  1  0  0  0  0
 35 79  2  0  0  0  0
 36 67  1  0  0  0  0
 36 73  1  0  0  0  0
 36 80  2  0  0  0  0
 37 41  1  0  0  0  0
 38 48  1  0  0  0  0
 39 66  1  0  0  0  0
 40 50  1  0  0  0  0
 41 43  1  0  0  0  0
 42 44  1  0  0  0  0
 42 45  1  0  0  0  0
 43 47  1  0  0  0  0
 44 49  1  0  0  0  0
 45 67  1  0  0  0  0
 46 49  1  0  0  0  0
 46 67  1  0  0  0  0
 47 71  1  0  0  0  0
 48 66  1  0  0  0  0
 49 64  1  0  0  0  0
 50 58  1  0  0  0  0
 50 65  1  0  0  0  0
 51 60  1  0  0  0  0
 52 61  1  0  0  0  0
 53 61  1  0  0  0  0
 54 61  1  0  0  0  0
 55 65  1  0  0  0  0
 56 74  1  0  0  0  0
 57 82  1  0  0  0  0
 58 73  1  0  0  0  0
 59 61  1  0  0  0  0
 59 72  1  0  0  0  0
 60 74  1  0  0  0  0
 62 64  1  0  0  0  0
M  CHG  1  74   1
M  ISO  4  36 100  57 101  73 100  82 101
M  END
> <Batch ID>
0154

> <Smiles>
CNC(C)C(=O)NC(C(=O)N1Cc2cc([101O:1][101CH2:1]C(=O)Nc3nc4c(s3)CC(C[100NH:0][100C:0](=O)N3CCCC(n5nc(-c6ccc(Oc7ccc(F)cc7F)cc6)c(C(N)=O)c5N)C3)N4C)ccc2CC1C(=O)NC1CCCc2ccccc21)C(C)(C)C

> <Shape>
0.211

> <Color>
0.078

> <Negative vol penalty>
0.000

$$$$

  -OEChem-04052303333D

 83 91  0     1  0  0  0  0  0999 V2000
  -28.4963  -33.5827   21.9953 C   0  0  0  0  0  0  0  0  0  0  0  0
  -28.5180  -32.2104   21.7678 C   0  0  0  0  0  0  0  0  0  0  0  0
  -23.0567   -9.9327   19.8818 C   0  0  0  0  0  0  0  0  0  0  0  0
  -23.9376   -9.7413   22.1233 C   0  0  0  0  0  0  0  0  0  0  0  0
  -27.4147  -34.1612   22.6582 C   0  0  0  0  0  0  0  0  0  0  0  0
  -27.4586  -31.4157   22.2041 C   0  0  0  0  0  0  0  0  0  0  0  0
  -25.2139  -26.4322   19.4413 C   0  0  0  0  0  0  0  0  0  0  0  0
  -22.3419   -8.7486   20.0616 C   0  0  0  0  0  0  0  0  0  0  0  0
  -23.2227   -8.5572   22.3032 C   0  0  0  0  0  0  0  0  0  0  0  0
  -25.4192  -25.0696   19.6532 C   0  0  0  0  0  0  0  0  0  0  0  0
  -20.0416   -7.6508   22.9955 C   0  0  0  0  0  0  0  0  0  0  0  0
  -19.3487   -7.4898   24.1953 C   0  0  0  0  0  0  0  0  0  0  0  0
  -23.4299  -24.9879   21.0153 C   0  0  0  0  0  0  0  0  0  0  0  0
  -30.4917  -19.7896   19.8357 C   0  0  0  0  0  0  0  0  0  0  0  0
  -20.6519   -5.5147   24.6829 C   0  0  0  0  0  0  0  0  0  0  0  0
  -23.8547  -10.4291   20.9126 C   0  0  0  0  0  0  0  0  0  0  0  0
  -24.1577  -12.9601   21.0105 C   0  0  0  0  0  0  0  0  0  0  0  0
  -26.3370  -33.3745   23.0943 C   0  0  0  0  0  0  0  0  0  0  0  0
  -24.1193  -27.0863   20.0247 C   0  0  0  0  0  0  0  0  0  0  0  0
  -26.3622  -31.9840   22.8746 C   0  0  0  0  0  0  0  0  0  0  0  0
  -23.2115  -26.3584   20.8071 C   0  0  0  0  0  0  0  0  0  0  0  0
  -31.3021  -18.7293   20.3073 C   0  0  0  0  0  0  0  0  0  0  0  0
  -22.4248   -8.0608   21.2723 C   0  0  0  0  0  0  0  0  0  0  0  0
  -24.5287  -24.3478   20.4426 C   0  0  0  0  0  0  0  0  0  0  0  0
  -21.0396   -6.7437   22.6393 C   0  0  0  0  0  0  0  0  0  0  0  0
  -19.6538   -6.4217   25.0390 C   0  0  0  0  0  0  0  0  0  0  0  0
  -21.3448   -5.6757   23.4830 C   0  0  0  0  0  0  0  0  0  0  0  0
  -24.5938  -11.6519   20.7272 C   0  0  0  0  0  0  0  0  0  0  0  0
  -30.5465  -18.0564   21.2390 C   0  0  0  0  0  0  0  0  0  0  0  0
  -25.2194  -13.7589   20.6624 C   0  0  0  0  0  0  0  0  0  0  0  0
  -29.2986  -19.6888   20.5127 C   0  0  0  0  0  0  0  0  0  0  0  0
  -22.9050  -13.4128   21.5410 C   0  0  0  0  0  0  0  0  0  0  0  0
  -23.7759  -29.4570   22.1142 C   0  0  0  0  0  0  0  0  0  0  0  0
  -20.6326  -29.1228   21.3861 C   0  0  0  0  0  0  0  0  0  0  0  0
  -26.9347  -20.1981   20.4558 C   0  0  0  0  0  0  0  0  0  0  0  0
  -18.1244  -27.1204   20.2259 C   0  0  0  0  0  0  0  0  0  0  0  0
  -30.6921  -14.8521   20.6599 C   0  0  0  0  0  0  0  0  0  0  0  0
  -25.2120  -34.0382   23.8483 C   0  0  0  0  0  0  0  0  0  0  0  0
  -23.8971  -28.5510   19.7646 C   0  0  0  0  0  0  0  0  0  0  0  0
  -22.0095  -27.0094   21.4394 C   0  0  0  0  0  0  0  0  0  0  0  0
  -23.9543  -33.1787   23.9469 C   0  0  0  0  0  0  0  0  0  0  0  0
  -29.4591  -12.6784   18.1239 C   0  0  0  0  0  0  0  0  0  0  0  0
  -24.3126  -31.7532   24.3550 C   0  0  0  0  0  0  0  0  0  0  0  0
  -28.0506  -12.3209   18.6016 C   0  0  0  0  0  0  0  0  0  0  0  0
  -30.4361  -12.8035   19.2909 C   0  0  0  0  0  0  0  0  0  0  0  0
  -28.6019  -13.3701   20.8363 C   0  0  0  0  0  0  0  0  0  0  0  0
  -25.2202  -31.0920   23.3107 C   0  0  1  0  0  0  0  0  0  0  0  0
  -23.0344  -29.2227   20.8285 C   0  0  1  0  0  0  0  0  0  0  0  0
  -27.5686  -13.2879   19.6997 C   0  0  2  0  0  0  0  0  0  0  0  0
  -26.6967  -18.7658   20.7864 C   0  0  0  0  0  0  0  0  0  0  0  0
  -15.6546  -27.1142   19.7815 C   0  0  0  0  0  0  0  0  0  0  0  0
  -20.0975  -28.8485   24.3775 C   0  0  0  0  0  0  0  0  0  0  0  0
  -17.8427  -27.9154   23.8178 C   0  0  0  0  0  0  0  0  0  0  0  0
  -18.4294  -30.2441   23.1431 C   0  0  0  0  0  0  0  0  0  0  0  0
  -18.5278  -26.6168   17.3375 C   0  0  0  0  0  0  0  0  0  0  0  0
  -30.7967  -16.8802   22.0865 C   0  0  0  0  0  0  0  0  0  0  0  0
  -25.8696  -22.4249   20.0308 C   0  0  0  0  0  0  0  0  0  1  0  0
  -19.4913  -28.2972   21.9291 C   0  0  1  0  0  0  0  0  0  0  0  0
  -17.0358  -27.3638   19.1962 C   0  0  2  0  0  0  0  0  0  0  0  0
  -18.9888  -28.8141   23.3067 C   0  0  0  0  0  0  0  0  0  0  0  0
  -25.8357  -11.6172   20.2368 N   0  0  0  0  0  0  0  0  0  0  0  0
  -26.1890  -12.9136   20.2091 N   0  0  0  0  0  0  0  0  0  0  0  0
  -21.8390  -28.4449   21.1607 N   0  0  0  0  0  0  0  0  0  0  0  0
  -29.9206  -13.7361   20.2961 N   0  0  0  0  0  0  0  0  0  0  0  0
  -32.5607  -18.4374   19.9219 N   0  0  0  0  0  0  0  0  0  0  0  0
  -25.4088  -15.0949   20.7028 N   0  0  0  0  0  0  0  0  0  0  0  0
  -21.9240  -12.4588   21.8442 N   0  0  0  0  0  0  0  0  0  0  0  0
  -28.2281  -20.5296   20.3486 N   0  0  0  0  0  0  0  0  0  0  0  0
  -24.4452  -30.6648   22.1656 N   0  0  0  0  0  0  0  0  0  0  0  0
  -18.4690  -28.2795   20.8885 N   0  0  0  0  0  0  0  0  0  0  0  0
  -30.1270  -15.6886   21.6147 N   0  0  0  0  0  0  0  0  0  0  0  0
  -25.8574  -20.9863   20.3487 N   0  3  0  0  0  0  0  0  0  0  0  0
  -17.2199  -26.4613   18.0246 N   0  3  0  0  0  0  0  0  0  0  0  0
  -22.6566  -14.6285   21.7248 O   0  0  0  0  0  0  0  0  0  0  0  0
  -23.7420  -28.6056   22.9950 O   0  0  0  0  0  0  0  0  0  0  0  0
  -20.4579  -30.3234   21.1632 O   0  0  0  0  0  0  0  0  0  0  0  0
  -18.6169  -26.0122   20.4252 O   0  0  0  0  0  0  0  0  0  0  0  0
  -31.8000  -15.0885   20.1662 O   0  0  0  0  0  0  0  0  0  0  0  0
  -29.3239  -18.6348   21.3701 O   0  0  0  0  0  0  0  0  0  0  0  0
  -21.7272   -6.9054   21.4482 O   0  0  0  0  0  0  0  0  0  0  0  0
  -24.7271  -23.0179   20.6516 O   0  0  0  0  0  0  0  0  0  1  0  0
  -18.9894   -6.2681   26.1919 F   0  0  0  0  0  0  0  0  0  0  0  0
  -22.3034   -4.8017   23.1467 F   0  0  0  0  0  0  0  0  0  0  0  0
  1  2  1  0  0  0  0
  1  5  2  0  0  0  0
  2  6  2  0  0  0  0
  3  8  2  0  0  0  0
  3 16  1  0  0  0  0
  4  9  1  0  0  0  0
  4 16  2  0  0  0  0
  5 18  1  0  0  0  0
  6 20  1  0  0  0  0
  7 10  2  0  0  0  0
  7 19  1  0  0  0  0
  8 23  1  0  0  0  0
  9 23  2  0  0  0  0
 10 24  1  0  0  0  0
 11 12  2  0  0  0  0
 11 25  1  0  0  0  0
 12 26  1  0  0  0  0
 13 21  1  0  0  0  0
 13 24  2  0  0  0  0
 14 22  1  0  0  0  0
 14 31  2  0  0  0  0
 15 26  2  0  0  0  0
 15 27  1  0  0  0  0
 16 28  1  0  0  0  0
 17 28  1  0  0  0  0
 17 30  2  0  0  0  0
 17 32  1  0  0  0  0
 18 20  2  0  0  0  0
 18 38  1  0  0  0  0
 19 21  2  0  0  0  0
 19 39  1  0  0  0  0
 20 47  1  0  0  0  0
 21 40  1  0  0  0  0
 22 29  2  0  0  0  0
 22 65  1  0  0  0  0
 23 80  1  0  0  0  0
 24 81  1  0  0  0  0
 25 27  2  0  0  0  0
 25 80  1  0  0  0  0
 26 82  1  0  0  0  0
 27 83  1  0  0  0  0
 28 61  2  0  0  0  0
 29 56  1  0  0  0  0
 29 79  1  0  0  0  0
 30 62  1  0  0  0  0
 30 66  1  0  0  0  0
 31 68  1  0  0  0  0
 31 79  1  0  0  0  0
 32 67  1  0  0  0  0
 32 74  2  0  0  0  0
 33 48  1  0  0  0  0
 33 69  1  0  0  0  0
 33 75  2  0  0  0  0
 34 58  1  0  0  0  0
 34 63  1  0  0  0  0
 34 76  2  0  0  0  0
 35 50  1  0  0  0  0
 35 68  1  0  0  0  0
 35 72  2  0  0  0  0
 36 59  1  0  0  0  0
 36 70  1  0  0  0  0
 36 77  2  0  0  0  0
 37 64  1  0  0  0  0
 37 71  1  0  0  0  0
 37 78  2  0  0  0  0
 38 41  1  0  0  0  0
 39 48  1  0  0  0  0
 40 63  1  0  0  0  0
 41 43  1  0  0  0  0
 42 44  1  0  0  0  0
 42 45  1  0  0  0  0
 43 47  1  0  0  0  0
 44 49  1  0  0  0  0
 45 64  1  0  0  0  0
 46 49  1  0  0  0  0
 46 64  1  0  0  0  0
 47 69  1  0  0  0  0
 48 63  1  0  0  0  0
 49 62  1  0  0  0  0
 51 59  1  0  0  0  0
 52 60  1  0  0  0  0
 53 60  1  0  0  0  0
 54 60  1  0  0  0  0
 55 73  1  0  0  0  0
 56 71  1  0  0  0  0
 57 72  1  0  0  0  0
 57 81  1  0  0  0  0
 58 60  1  0  0  0  0
 58 70  1  0  0  0  0
 59 73  1  0  0  0  0
 61 62  1  0  0  0  0
M  CHG  2  72   1  73   1
M  ISO  4  37 100  57 101  71 100  81 101
M  END
> <Batch ID>
0154

> <Smiles>
CNC(C)C(=O)NC(C(=O)N1Cc2cc([101O:1][101CH2:1]N=C(C)Nc3cc(N)c(C[100NH:0][100C:0](=O)N4CCCC(n5nc(-c6ccc(Oc7ccc(F)cc7F)cc6)c(C(N)=O)c5N)C4)o3)ccc2CC1C(=O)NC1CCCc2ccccc21)C(C)(C)C

> <Shape>
0.361

> <Color>
0.186

> <Negative vol penalty>
0.000

$$$$

  -OEChem-04052303333D

 86 95  0     1  0  0  0  0  0999 V2000
  -16.9996  -30.3659   22.9045 C   0  0  0  0  0  0  0  0  0  0  0  0
  -18.2810  -29.8670   22.6937 C   0  0  0  0  0  0  0  0  0  0  0  0
  -22.9815   -9.9797   20.0560 C   0  0  0  0  0  0  0  0  0  0  0  0
  -23.7246  -10.0641   22.3534 C   0  0  0  0  0  0  0  0  0  0  0  0
  -16.1481  -29.7366   23.8116 C   0  0  0  0  0  0  0  0  0  0  0  0
  -18.7121  -28.7388   23.3908 C   0  0  0  0  0  0  0  0  0  0  0  0
  -22.4533  -24.3477   21.3350 C   0  0  0  0  0  0  0  0  0  0  0  0
  -31.4222  -17.4347   20.4021 C   0  0  0  0  0  0  0  0  0  0  0  0
  -31.6576  -18.8083   20.3429 C   0  0  0  0  0  0  0  0  0  0  0  0
  -22.1808   -8.8776   20.3555 C   0  0  0  0  0  0  0  0  0  0  0  0
  -22.9239   -8.9619   22.6529 C   0  0  0  0  0  0  0  0  0  0  0  0
  -23.8192  -24.1244   21.5032 C   0  0  0  0  0  0  0  0  0  0  0  0
  -19.1872   -8.2969   21.8163 C   0  0  0  0  0  0  0  0  0  0  0  0
  -17.8831   -8.2896   21.3216 C   0  0  0  0  0  0  0  0  0  0  0  0
  -29.7901  -17.7897   22.1478 C   0  0  0  0  0  0  0  0  0  0  0  0
  -23.3420  -22.6136   23.3223 C   0  0  0  0  0  0  0  0  0  0  0  0
  -18.3571   -6.2585   20.1021 C   0  0  0  0  0  0  0  0  0  0  0  0
  -23.7535  -10.5730   21.0550 C   0  0  0  0  0  0  0  0  0  0  0  0
  -30.0256  -19.1633   22.0886 C   0  0  0  0  0  0  0  0  0  0  0  0
  -24.2183  -13.0696   20.8138 C   0  0  0  0  0  0  0  0  0  0  0  0
  -16.5656  -28.5944   24.5130 C   0  0  0  0  0  0  0  0  0  0  0  0
  -21.5205  -23.7129   22.1676 C   0  0  0  0  0  0  0  0  0  0  0  0
  -17.8659  -28.0943   24.3091 C   0  0  0  0  0  0  0  0  0  0  0  0
  -21.9648  -22.8285   23.1608 C   0  0  0  0  0  0  0  0  0  0  0  0
  -30.4884  -16.9254   21.3045 C   0  0  0  0  0  0  0  0  0  0  0  0
  -30.9594  -19.6726   21.1862 C   0  0  0  0  0  0  0  0  0  0  0  0
  -22.1519   -8.3687   21.6539 C   0  0  0  0  0  0  0  0  0  0  0  0
  -24.2639  -23.2595   22.4989 C   0  0  0  0  0  0  0  0  0  0  0  0
  -20.0763   -7.2851   21.4539 C   0  0  0  0  0  0  0  0  0  0  0  0
  -17.4680   -7.2704   20.4645 C   0  0  0  0  0  0  0  0  0  0  0  0
  -19.6613   -6.2659   20.5968 C   0  0  0  0  0  0  0  0  0  0  0  0
  -24.5813  -11.7111   20.7461 C   0  0  0  0  0  0  0  0  0  0  0  0
  -25.3481  -13.7467   20.4244 C   0  0  0  0  0  0  0  0  0  0  0  0
  -27.2728  -21.4365   23.3547 C   0  0  0  0  0  0  0  0  0  0  0  0
  -29.2760  -20.0556   22.9909 C   0  0  0  0  0  0  0  0  0  0  0  0
  -22.9715  -13.6662   21.1948 C   0  0  0  0  0  0  0  0  0  0  0  0
  -19.3333  -24.7038   24.2504 C   0  0  0  0  0  0  0  0  0  0  0  0
  -18.5560  -21.5557   24.3392 C   0  0  0  0  0  0  0  0  0  0  0  0
  -19.5255  -18.3177   23.8682 C   0  0  0  0  0  0  0  0  0  0  0  0
  -30.8573  -14.5353   20.5990 C   0  0  0  0  0  0  0  0  0  0  0  0
  -15.6265  -27.9763   25.5182 C   0  0  0  0  0  0  0  0  0  0  0  0
  -20.0493  -23.9436   21.9557 C   0  0  0  0  0  0  0  0  0  0  0  0
  -21.0030  -22.1066   24.0677 C   0  0  0  0  0  0  0  0  0  0  0  0
  -16.0277  -26.5648   25.9390 C   0  0  0  0  0  0  0  0  0  0  0  0
  -29.6437  -12.0632   18.3422 C   0  0  0  0  0  0  0  0  0  0  0  0
  -17.5179  -26.5066   26.2594 C   0  0  0  0  0  0  0  0  0  0  0  0
  -28.1886  -11.8630   18.7720 C   0  0  0  0  0  0  0  0  0  0  0  0
  -26.5452  -21.4188   21.1057 C   0  0  0  0  0  0  0  0  0  0  0  0
  -30.5604  -12.3072   19.5397 C   0  0  0  0  0  0  0  0  0  0  0  0
  -27.5312  -20.2690   21.2761 C   0  0  0  0  0  0  0  0  0  0  0  0
  -28.6811  -13.1903   20.8655 C   0  0  0  0  0  0  0  0  0  0  0  0
  -18.3612  -26.8582   25.0279 C   0  0  1  0  0  0  0  0  0  0  0  0
  -26.0500  -21.7202   22.5196 C   0  0  2  0  0  0  0  0  0  1  0  0
  -19.2125  -23.6412   23.1950 C   0  0  1  0  0  0  0  0  0  0  0  0
  -27.7094  -13.0058   19.6885 C   0  0  2  0  0  0  0  0  0  0  0  0
  -18.6830  -15.9616   24.0588 C   0  0  0  0  0  0  0  0  0  0  0  0
  -18.8622  -21.6941   27.3719 C   0  0  0  0  0  0  0  0  0  0  0  0
  -18.9543  -19.1924   27.4069 C   0  0  0  0  0  0  0  0  0  0  0  0
  -16.9058  -20.3519   26.5811 C   0  0  0  0  0  0  0  0  0  0  0  0
  -19.9155  -17.8212   20.9768 C   0  0  0  0  0  0  0  0  0  0  0  0
  -18.9971  -20.3684   25.1605 C   0  0  1  0  0  0  0  0  0  0  0  0
  -18.8599  -17.1623   23.1425 C   0  0  2  0  0  0  0  0  0  0  0  0
  -18.4483  -20.4166   26.6144 C   0  0  0  0  0  0  0  0  0  0  0  0
  -25.8429  -11.5339   20.3450 N   0  0  0  0  0  0  0  0  0  0  0  0
  -26.2826  -12.7898   20.1572 N   0  0  0  0  0  0  0  0  0  0  0  0
  -28.1193  -20.5560   22.5951 N   0  0  0  0  0  0  0  0  0  0  0  0
  -19.5750  -22.3701   23.8253 N   0  0  0  0  0  0  0  0  0  0  0  0
  -30.0459  -13.4060   20.3599 N   0  0  0  0  0  0  0  0  0  0  0  0
  -31.2119  -21.0601   21.1124 N   0  0  0  0  0  0  0  0  0  0  0  0
  -25.6234  -15.0612   20.2878 N   0  0  0  0  0  0  0  0  0  0  0  0
  -21.9143  -12.8247   21.5669 N   0  0  0  0  0  0  0  0  0  0  0  0
  -30.2498  -15.5300   21.3646 N   0  0  0  0  0  0  0  0  0  0  0  0
  -18.4215  -25.7337   24.1188 N   0  0  0  0  0  0  0  0  0  0  0  0
  -18.5983  -19.1823   24.4103 N   0  0  0  0  0  0  0  0  0  0  0  0
  -29.7750  -20.3414   24.1900 N   0  3  0  0  0  0  0  0  0  0  0  0
  -19.6819  -16.7434   21.9721 N   0  3  0  0  0  0  0  0  0  0  0  0
  -27.5430  -21.8434   24.4698 O   0  0  0  0  0  0  0  0  0  0  0  0
  -22.7948  -14.9081   21.1891 O   0  0  0  0  0  0  0  0  0  0  0  0
  -20.1894  -24.5964   25.1206 O   0  0  0  0  0  0  0  0  0  0  0  0
  -17.3518  -21.7493   24.1543 O   0  0  0  0  0  0  0  0  0  0  0  0
  -20.7458  -18.4389   23.9495 O   0  0  0  0  0  0  0  0  0  0  0  0
  -31.9965  -14.6261   20.1343 O   0  0  0  0  0  0  0  0  0  0  0  0
  -21.3705   -7.2934   21.9465 O   0  0  0  0  0  0  0  0  0  0  0  0
  -25.5966  -23.0404   22.6657 O   0  0  0  0  0  0  0  0  0  1  0  0
  -16.2151   -7.2626   19.9908 F   0  0  0  0  0  0  0  0  0  0  0  0
  -20.5106   -5.2905   20.2460 F   0  0  0  0  0  0  0  0  0  0  0  0
  1  2  1  0  0  0  0
  1  5  2  0  0  0  0
  2  6  2  0  0  0  0
  3 10  2  0  0  0  0
  3 18  1  0  0  0  0
  4 11  1  0  0  0  0
  4 18  2  0  0  0  0
  5 21  1  0  0  0  0
  6 23  1  0  0  0  0
  7 12  2  0  0  0  0
  7 22  1  0  0  0  0
  8  9  2  0  0  0  0
  8 25  1  0  0  0  0
  9 26  1  0  0  0  0
 10 27  1  0  0  0  0
 11 27  2  0  0  0  0
 12 28  1  0  0  0  0
 13 14  2  0  0  0  0
 13 29  1  0  0  0  0
 14 30  1  0  0  0  0
 15 19  1  0  0  0  0
 15 25  2  0  0  0  0
 16 24  1  0  0  0  0
 16 28  2  0  0  0  0
 17 30  2  0  0  0  0
 17 31  1  0  0  0  0
 18 32  1  0  0  0  0
 19 26  2  0  0  0  0
 19 35  1  0  0  0  0
 20 32  1  0  0  0  0
 20 33  2  0  0  0  0
 20 36  1  0  0  0  0
 21 23  2  0  0  0  0
 21 41  1  0  0  0  0
 22 24  2  0  0  0  0
 22 42  1  0  0  0  0
 23 52  1  0  0  0  0
 24 43  1  0  0  0  0
 25 72  1  0  0  0  0
 26 69  1  0  0  0  0
 27 83  1  0  0  0  0
 28 84  1  0  0  0  0
 29 31  2  0  0  0  0
 29 83  1  0  0  0  0
 30 85  1  0  0  0  0
 31 86  1  0  0  0  0
 32 64  2  0  0  0  0
 33 65  1  0  0  0  0
 33 70  1  0  0  0  0
 34 53  1  0  0  0  0
 34 66  1  0  0  0  0
 34 77  2  0  0  0  0
 35 66  1  0  0  0  0
 35 75  2  0  0  0  0
 36 71  1  0  0  0  0
 36 78  2  0  0  0  0
 37 54  1  0  0  0  0
 37 73  1  0  0  0  0
 37 79  2  0  0  0  0
 38 61  1  0  0  0  0
 38 67  1  0  0  0  0
 38 80  2  0  0  0  0
 39 62  1  0  0  0  0
 39 74  1  0  0  0  0
 39 81  2  0  0  0  0
 40 68  1  0  0  0  0
 40 72  1  0  0  0  0
 40 82  2  0  0  0  0
 41 44  1  0  0  0  0
 42 54  1  0  0  0  0
 43 67  1  0  0  0  0
 44 46  1  0  0  0  0
 45 47  1  0  0  0  0
 45 49  1  0  0  0  0
 46 52  1  0  0  0  0
 47 55  1  0  0  0  0
 48 50  1  0  0  0  0
 48 53  1  0  0  0  0
 49 68  1  0  0  0  0
 50 66  1  0  0  0  0
 51 55  1  0  0  0  0
 51 68  1  0  0  0  0
 52 73  1  0  0  0  0
 53 84  1  0  0  0  0
 54 67  1  0  0  0  0
 55 65  1  0  0  0  0
 56 62  1  0  0  0  0
 57 63  1  0  0  0  0
 58 63  1  0  0  0  0
 59 63  1  0  0  0  0
 60 76  1  0  0  0  0
 61 63  1  0  0  0  0
 61 74  1  0  0  0  0
 62 76  1  0  0  0  0
 64 65  1  0  0  0  0
M  CHG  2  75   1  76   1
M  ISO  4  40 100  53 101  72 100  84 101
M  END
> <Batch ID>
0154

> <Smiles>
CNC(C)C(=O)NC(C(=O)N1Cc2cc([101O:1][101CH:1]3CCN(C(=N)c4cc([100NH:0][100C:0](=O)N5CCCC(n6nc(-c7ccc(Oc8ccc(F)cc8F)cc7)c(C(N)=O)c6N)C5)ccc4N)C3=O)ccc2CC1C(=O)NC1CCCc2ccccc21)C(C)(C)C

> <Shape>
0.193

> <Color>
0.188

> <Negative vol penalty>
0.000

$$$$

  -OEChem-04052303333D

 88 97  0     1  0  0  0  0  0999 V2000
  -17.0048  -26.3160   24.5638 C   0  0  0  0  0  0  0  0  0  0  0  0
  -17.9544  -25.8578   23.6562 C   0  0  0  0  0  0  0  0  0  0  0  0
  -25.9396  -13.3145   22.0319 C   0  0  0  0  0  0  0  0  0  0  0  0
  -26.1915  -13.9403   19.7120 C   0  0  0  0  0  0  0  0  0  0  0  0
  -16.8077  -27.6858   24.7328 C   0  0  0  0  0  0  0  0  0  0  0  0
  -18.7068  -26.7693   22.9163 C   0  0  0  0  0  0  0  0  0  0  0  0
  -24.5403  -26.1565   21.1554 C   0  0  0  0  0  0  0  0  0  0  0  0
  -24.8096  -12.5642   21.7068 C   0  0  0  0  0  0  0  0  0  0  0  0
  -25.0615  -13.1899   19.3869 C   0  0  0  0  0  0  0  0  0  0  0  0
  -25.1197  -25.7532   19.9532 C   0  0  0  0  0  0  0  0  0  0  0  0
  -24.1317   -9.5416   20.3513 C   0  0  0  0  0  0  0  0  0  0  0  0
  -24.0204   -8.2653   20.9028 C   0  0  0  0  0  0  0  0  0  0  0  0
  -30.2432  -21.3811   16.2427 C   0  0  0  0  0  0  0  0  0  0  0  0
  -30.7064  -20.7083   13.9691 C   0  0  0  0  0  0  0  0  0  0  0  0
  -25.3549  -28.0631   19.2986 C   0  0  0  0  0  0  0  0  0  0  0  0
  -30.7542  -19.0725   15.7464 C   0  0  0  0  0  0  0  0  0  0  0  0
  -21.9583   -8.9120   21.9830 C   0  0  0  0  0  0  0  0  0  0  0  0
  -26.6306  -14.0026   21.0345 C   0  0  0  0  0  0  0  0  0  0  0  0
  -30.3817  -21.7021   14.8924 C   0  0  0  0  0  0  0  0  0  0  0  0
  -28.9887  -14.3114   21.9572 C   0  0  0  0  0  0  0  0  0  0  0  0
  -17.5648  -28.6147   24.0016 C   0  0  0  0  0  0  0  0  0  0  0  0
  -24.3535  -27.5181   21.4340 C   0  0  0  0  0  0  0  0  0  0  0  0
  -18.5187  -28.1528   23.0747 C   0  0  0  0  0  0  0  0  0  0  0  0
  -24.7752  -28.4811   20.5062 C   0  0  0  0  0  0  0  0  0  0  0  0
  -30.4295  -20.0663   16.6698 C   0  0  0  0  0  0  0  0  0  0  0  0
  -24.3705  -12.5019   20.3843 C   0  0  0  0  0  0  0  0  0  0  0  0
  -25.5245  -26.7064   19.0233 C   0  0  0  0  0  0  0  0  0  0  0  0
  -23.1564  -10.5032   20.6157 C   0  0  0  0  0  0  0  0  0  0  0  0
  -22.9336   -7.9505   21.7186 C   0  0  0  0  0  0  0  0  0  0  0  0
  -30.8927  -19.3935   14.3961 C   0  0  0  0  0  0  0  0  0  0  0  0
  -22.0697  -10.1884   21.4315 C   0  0  0  0  0  0  0  0  0  0  0  0
  -27.7976  -14.7783   21.3697 C   0  0  0  0  0  0  0  0  0  0  0  0
  -29.7782  -15.4298   22.0681 C   0  0  0  0  0  0  0  0  0  0  0  0
  -30.1862  -23.0913   14.4408 C   0  0  0  0  0  0  0  0  0  0  0  0
  -29.3493  -12.9853   22.3659 C   0  0  0  0  0  0  0  0  0  0  0  0
  -21.8281  -29.3717   21.9723 C   0  0  0  0  0  0  0  0  0  0  0  0
  -24.0921  -31.6085   22.5994 C   0  0  0  0  0  0  0  0  0  0  0  0
  -27.2931  -32.6989   22.1396 C   0  0  0  0  0  0  0  0  0  0  0  0
  -29.9676  -20.6049   19.0870 C   0  0  0  0  0  0  0  0  0  0  0  0
  -17.2831  -30.0850   24.1840 C   0  0  0  0  0  0  0  0  0  0  0  0
  -23.7514  -27.9376   22.7470 C   0  0  0  0  0  0  0  0  0  0  0  0
  -24.6156  -29.9560   20.7661 C   0  0  0  0  0  0  0  0  0  0  0  0
  -18.3837  -30.9889   23.6344 C   0  0  0  0  0  0  0  0  0  0  0  0
  -29.4883  -20.1815   22.5895 C   0  0  0  0  0  0  0  0  0  0  0  0
  -18.8015  -30.5337   22.2397 C   0  0  0  0  0  0  0  0  0  0  0  0
  -29.1147  -18.7039   22.7283 C   0  0  0  0  0  0  0  0  0  0  0  0
  -27.0585  -23.1772   16.0021 C   0  0  0  0  0  0  0  0  0  0  0  0
  -28.2213  -25.4179   16.1564 C   0  0  0  0  0  0  0  0  0  0  0  0
  -28.8995  -20.7988   21.3223 C   0  0  0  0  0  0  0  0  0  0  0  0
  -27.7631  -22.9072   14.6752 C   0  0  0  0  0  0  0  0  0  0  0  0
  -28.9201  -25.1426   14.8279 C   0  0  0  0  0  0  0  0  0  0  0  0
  -28.8274  -18.5969   20.2197 C   0  0  0  0  0  0  0  0  0  0  0  0
  -19.3718  -29.1106   22.2717 C   0  0  1  0  0  0  0  0  0  0  0  0
  -23.1396  -29.3345   22.7046 C   0  0  1  0  0  0  0  0  0  0  0  0
  -29.4517  -17.9147   21.4480 C   0  0  2  0  0  0  0  0  0  0  0  0
  -26.8732  -24.6824   16.2625 C   0  0  0  0  0  0  0  0  0  0  0  0
  -28.8402  -34.5789   22.7476 C   0  0  0  0  0  0  0  0  0  0  0  0
  -22.6935  -33.4114   20.5737 C   0  0  0  0  0  0  0  0  0  0  0  0
  -24.7555  -34.8303   20.5175 C   0  0  0  0  0  0  0  0  0  0  0  0
  -23.4750  -34.5776   22.6434 C   0  0  0  0  0  0  0  0  0  0  0  0
  -29.1615  -30.8680   23.5237 C   0  0  0  0  0  0  0  0  0  0  0  0
  -26.2379  -24.9124   17.6346 C   0  0  0  0  0  0  0  0  0  1  0  0
  -24.8395  -32.6323   21.7795 C   0  0  1  0  0  0  0  0  0  0  0  0
  -28.3401  -33.1924   23.1219 C   0  0  2  0  0  0  0  0  0  0  0  0
  -23.9423  -33.8351   21.3725 C   0  0  0  0  0  0  0  0  0  0  0  0
  -27.8236  -16.0910   21.1247 N   0  0  0  0  0  0  0  0  0  0  0  0
  -29.0406  -16.4586   21.5605 N   0  0  0  0  0  0  0  0  0  0  0  0
  -29.0167  -23.6829   14.6413 N   0  0  0  0  0  0  0  0  0  0  0  0
  -24.0157  -30.3159   22.0615 N   0  0  0  0  0  0  0  0  0  0  0  0
  -29.2636  -20.0003   20.1498 N   0  0  0  0  0  0  0  0  0  0  0  0
  -31.0244  -15.6238   22.5495 N   0  0  0  0  0  0  0  0  0  0  0  0
  -28.4199  -11.9528   22.1798 N   0  0  0  0  0  0  0  0  0  0  0  0
  -30.2876  -19.7397   18.0412 N   0  0  0  0  0  0  0  0  0  0  0  0
  -20.7296  -29.1215   22.7724 N   0  0  0  0  0  0  0  0  0  0  0  0
  -26.0153  -33.0012   22.5604 N   0  0  0  0  0  0  0  0  0  0  0  0
  -31.1864  -23.7302   13.8411 N   0  3  0  0  0  0  0  0  0  0  0  0
  -29.5051  -32.2634   23.1472 N   0  3  0  0  0  0  0  0  0  0  0  0
  -30.4563  -12.7266   22.8960 O   0  0  0  0  0  0  0  0  0  0  0  0
  -21.8136  -29.6113   20.7706 O   0  0  0  0  0  0  0  0  0  0  0  0
  -23.6007  -31.9415   23.6807 O   0  0  0  0  0  0  0  0  0  0  0  0
  -27.5803  -32.1080   21.1009 O   0  0  0  0  0  0  0  0  0  0  0  0
  -30.2885  -21.7958   19.1155 O   0  0  0  0  0  0  0  0  0  0  0  0
  -25.9779  -25.1977   15.2736 O   0  0  0  0  0  0  0  0  0  0  0  0
  -23.2680  -11.7696   20.0667 O   0  0  0  0  0  0  0  0  0  0  0  0
  -26.0898  -26.3155   17.8488 O   0  0  0  0  0  0  0  0  0  1  0  0
  -22.8260   -6.7243   22.2469 F   0  0  0  0  0  0  0  0  0  0  0  0
  -31.2045  -18.4393   13.5093 F   0  0  0  0  0  0  0  0  0  0  0  0
  -21.1290  -11.1076   21.6881 F   0  0  0  0  0  0  0  0  0  0  0  0
  1  2  1  0  0  0  0
  1  5  2  0  0  0  0
  2  6  2  0  0  0  0
  3  8  2  0  0  0  0
  3 18  1  0  0  0  0
  4  9  1  0  0  0  0
  4 18  2  0  0  0  0
  5 21  1  0  0  0  0
  6 23  1  0  0  0  0
  7 10  2  0  0  0  0
  7 22  1  0  0  0  0
  8 26  1  0  0  0  0
  9 26  2  0  0  0  0
 10 27  1  0  0  0  0
 11 12  2  0  0  0  0
 11 28  1  0  0  0  0
 12 29  1  0  0  0  0
 13 19  2  0  0  0  0
 13 25  1  0  0  0  0
 14 19  1  0  0  0  0
 14 30  2  0  0  0  0
 15 24  1  0  0  0  0
 15 27  2  0  0  0  0
 16 25  2  0  0  0  0
 16 30  1  0  0  0  0
 17 29  2  0  0  0  0
 17 31  1  0  0  0  0
 18 32  1  0  0  0  0
 19 34  1  0  0  0  0
 20 32  1  0  0  0  0
 20 33  2  0  0  0  0
 20 35  1  0  0  0  0
 21 23  2  0  0  0  0
 21 40  1  0  0  0  0
 22 24  2  0  0  0  0
 22 41  1  0  0  0  0
 23 53  1  0  0  0  0
 24 42  1  0  0  0  0
 25 73  1  0  0  0  0
 26 84  1  0  0  0  0
 27 85  1  0  0  0  0
 28 31  2  0  0  0  0
 28 84  1  0  0  0  0
 29 86  1  0  0  0  0
 30 87  1  0  0  0  0
 31 88  1  0  0  0  0
 32 66  2  0  0  0  0
 33 67  1  0  0  0  0
 33 71  1  0  0  0  0
 34 68  1  0  0  0  0
 34 76  2  0  0  0  0
 35 72  1  0  0  0  0
 35 78  2  0  0  0  0
 36 54  1  0  0  0  0
 36 74  1  0  0  0  0
 36 79  2  0  0  0  0
 37 63  1  0  0  0  0
 37 69  1  0  0  0  0
 37 80  2  0  0  0  0
 38 64  1  0  0  0  0
 38 75  1  0  0  0  0
 38 81  2  0  0  0  0
 39 70  1  0  0  0  0
 39 73  1  0  0  0  0
 39 82  2  0  0  0  0
 40 43  1  0  0  0  0
 41 54  1  0  0  0  0
 42 69  1  0  0  0  0
 43 45  1  0  0  0  0
 44 46  1  0  0  0  0
 44 49  1  0  0  0  0
 45 53  1  0  0  0  0
 46 55  1  0  0  0  0
 47 50  1  0  0  0  0
 47 56  1  0  0  0  0
 48 51  1  0  0  0  0
 48 56  1  0  0  0  0
 49 70  1  0  0  0  0
 50 68  1  0  0  0  0
 51 68  1  0  0  0  0
 52 55  1  0  0  0  0
 52 70  1  0  0  0  0
 53 74  1  0  0  0  0
 54 69  1  0  0  0  0
 55 67  1  0  0  0  0
 56 62  1  0  0  0  0
 56 83  1  0  0  0  0
 57 64  1  0  0  0  0
 58 65  1  0  0  0  0
 59 65  1  0  0  0  0
 60 65  1  0  0  0  0
 61 77  1  0  0  0  0
 62 85  1  0  0  0  0
 63 65  1  0  0  0  0
 63 75  1  0  0  0  0
 64 77  1  0  0  0  0
 66 67  1  0  0  0  0
M  CHG  2  76   1  77   1
M  ISO  4  39 100  62 101  73 100  85 101
M  END
> <Batch ID>
0154

> <Smiles>
CNC(C)C(=O)NC(C(=O)N1Cc2cc([101O:1][101CH2:1]C3(O)CCN(C(=N)c4cc(F)cc([100NH:0][100C:0](=O)N5CCCC(n6nc(-c7ccc(Oc8ccc(F)cc8F)cc7)c(C(N)=O)c6N)C5)c4)CC3)ccc2CC1C(=O)NC1CCCc2ccccc21)C(C)(C)C

> <Shape>
0.260

> <Color>
0.075

> <Negative vol penalty>
0.000

$$$$

  -OEChem-04052303333D

 90100  0     1  0  0  0  0  0999 V2000
  -32.0227   -9.8996   20.9559 C   0  0  0  0  0  0  0  0  0  0  0  0
  -31.7061  -11.1689   20.4826 C   0  0  0  0  0  0  0  0  0  0  0  0
  -21.7314  -29.1729   21.3673 C   0  0  0  0  0  0  0  0  0  0  0  0
  -22.9977  -28.8597   23.4008 C   0  0  0  0  0  0  0  0  0  0  0  0
  -31.0203   -8.9418   21.1032 C   0  0  0  0  0  0  0  0  0  0  0  0
  -30.3871  -11.4808   20.1551 C   0  0  0  0  0  0  0  0  0  0  0  0
  -28.9278  -16.0665   21.9810 C   0  0  0  0  0  0  0  0  0  0  0  0
  -20.5650  -28.8023   22.0365 C   0  0  0  0  0  0  0  0  0  0  0  0
  -21.8313  -28.4892   24.0701 C   0  0  0  0  0  0  0  0  0  0  0  0
  -29.3444  -17.2120   21.3043 C   0  0  0  0  0  0  0  0  0  0  0  0
  -18.3549  -30.2243   24.1640 C   0  0  0  0  0  0  0  0  0  0  0  0
  -17.2147  -31.0009   23.9579 C   0  0  0  0  0  0  0  0  0  0  0  0
  -30.6112  -25.8120   20.3707 C   0  0  0  0  0  0  0  0  0  0  0  0
  -28.5973  -25.3468   21.6486 C   0  0  0  0  0  0  0  0  0  0  0  0
  -27.2106  -17.3192   20.1846 C   0  0  0  0  0  0  0  0  0  0  0  0
  -16.0533  -29.0662   23.0945 C   0  0  0  0  0  0  0  0  0  0  0  0
  -22.9478  -29.2016   22.0494 C   0  0  0  0  0  0  0  0  0  0  0  0
  -24.7270  -28.9535   20.2382 C   0  0  0  0  0  0  0  0  0  0  0  0
  -29.6867   -9.2451   20.7866 C   0  0  0  0  0  0  0  0  0  0  0  0
  -27.6510  -15.5314   21.7568 C   0  0  0  0  0  0  0  0  0  0  0  0
  -29.3661  -10.5257   20.2971 C   0  0  0  0  0  0  0  0  0  0  0  0
  -30.6018  -27.0952   20.8926 C   0  0  0  0  0  0  0  0  0  0  0  0
  -28.5993  -26.6414   22.1753 C   0  0  0  0  0  0  0  0  0  0  0  0
  -26.7786  -16.1696   20.8633 C   0  0  0  0  0  0  0  0  0  0  0  0
  -29.6265  -27.4972   21.8093 C   0  0  0  0  0  0  0  0  0  0  0  0
  -29.5997  -24.9325   20.7586 C   0  0  0  0  0  0  0  0  0  0  0  0
  -20.6150  -28.4605   23.3879 C   0  0  0  0  0  0  0  0  0  0  0  0
  -28.4866  -17.8372   20.4043 C   0  0  0  0  0  0  0  0  0  0  0  0
  -18.3444  -28.8688   23.8353 C   0  0  0  0  0  0  0  0  0  0  0  0
  -16.0639  -30.4218   23.4231 C   0  0  0  0  0  0  0  0  0  0  0  0
  -17.1936  -28.2897   23.3006 C   0  0  0  0  0  0  0  0  0  0  0  0
  -24.1530  -29.5838   21.3586 C   0  0  0  0  0  0  0  0  0  0  0  0
  -25.8517  -29.6935   19.9667 C   0  0  0  0  0  0  0  0  0  0  0  0
  -28.6389  -20.1702   20.3335 C   0  0  0  0  0  0  0  0  0  1  0  0
  -24.2830  -27.8021   19.5082 C   0  0  0  0  0  0  0  0  0  0  0  0
  -28.9844  -21.3425   19.7877 C   0  0  0  0  0  0  0  0  0  0  0  0
  -28.6614  -22.6098   20.5212 C   0  0  0  0  0  0  0  0  0  0  0  0
  -26.4525  -12.7658   20.6793 C   0  0  0  0  0  0  0  0  0  0  0  0
  -23.6123  -14.2546   21.5567 C   0  0  0  0  0  0  0  0  0  0  0  0
  -22.0064  -11.2602   21.2492 C   0  0  0  0  0  0  0  0  0  0  0  0
  -29.0915  -29.6416   23.0178 C   0  0  0  0  0  0  0  0  0  0  0  0
  -28.6451   -8.1622   20.9175 C   0  0  0  0  0  0  0  0  0  0  0  0
  -27.2098  -14.3118   22.5199 C   0  0  0  0  0  0  0  0  0  0  0  0
  -31.5674  -28.2037   20.6093 C   0  0  0  0  0  0  0  0  0  0  0  0
  -25.3977  -15.6372   20.5908 C   0  0  0  0  0  0  0  0  0  0  0  0
  -27.2128   -8.6898   20.9034 C   0  0  0  0  0  0  0  0  0  0  0  0
  -27.5336  -25.2569   24.9071 C   0  0  0  0  0  0  0  0  0  0  0  0
  -26.2074  -25.1317   24.1702 C   0  0  0  0  0  0  0  0  0  0  0  0
  -27.0339  -32.4000   23.5463 C   0  0  0  0  0  0  0  0  0  0  0  0
  -27.9852  -26.6837   24.6403 C   0  0  0  0  0  0  0  0  0  0  0  0
  -26.2209  -26.1869   23.0607 C   0  0  0  0  0  0  0  0  0  0  0  0
  -27.0253   -9.6950   19.7714 C   0  0  0  0  0  0  0  0  0  0  0  0
  -26.5698  -32.8023   22.1478 C   0  0  0  0  0  0  0  0  0  0  0  0
  -30.8487  -29.3974   21.2476 C   0  0  0  0  0  0  0  0  0  0  0  0
  -28.4985  -31.9846   23.5423 C   0  0  0  0  0  0  0  0  0  0  0  0
  -28.3719  -31.2502   21.1829 C   0  0  0  0  0  0  0  0  0  0  0  0
  -27.5361  -26.9680   23.2031 C   0  0  0  0  0  0  0  0  0  0  0  0
  -27.9429  -10.9098   19.9548 C   0  0  1  0  0  0  0  0  0  0  0  0
  -26.0368  -13.5783   21.8728 C   0  0  1  0  0  0  0  0  0  0  0  0
  -26.9273  -31.7809   21.0519 C   0  0  1  0  0  0  0  0  0  0  0  0
  -19.8028  -10.1506   21.7078 C   0  0  0  0  0  0  0  0  0  0  0  0
  -24.3081  -14.1063   24.5231 C   0  0  0  0  0  0  0  0  0  0  0  0
  -22.6496  -12.2441   24.7467 C   0  0  0  0  0  0  0  0  0  0  0  0
  -21.8884  -14.5115   24.0378 C   0  0  0  0  0  0  0  0  0  0  0  0
  -21.5771  -10.6664   18.3818 C   0  0  0  0  0  0  0  0  0  0  0  0
  -23.2098  -13.0860   22.4210 C   0  0  1  0  0  0  0  0  0  0  0  0
  -20.6430  -10.9013   20.6864 C   0  0  2  0  0  0  0  0  0  0  0  0
  -23.0355  -13.4851   23.9136 C   0  0  0  0  0  0  0  0  0  0  0  0
  -24.8553  -30.6426   21.7706 N   0  0  0  0  0  0  0  0  0  0  0  0
  -25.8822  -30.6833   20.9046 N   0  0  0  0  0  0  0  0  0  0  0  0
  -29.8441  -28.8433   22.1698 N   0  0  0  0  0  0  0  0  0  0  0  0
  -24.9850  -14.4979   21.4208 N   0  0  0  0  0  0  0  0  0  0  0  0
  -28.7436  -30.9234   22.5680 N   0  0  0  0  0  0  0  0  0  0  0  0
  -26.8079  -29.5875   19.0196 N   0  0  0  0  0  0  0  0  0  0  0  0
  -23.4180  -27.9924   18.4220 N   0  0  0  0  0  0  0  0  0  0  0  0
  -29.5835  -23.6301   20.2566 N   0  0  0  0  0  0  0  0  0  0  0  0
  -27.4042  -11.8034   20.9577 N   0  0  0  0  0  0  0  0  0  0  0  0
  -22.0120  -12.5199   21.8101 N   0  0  0  0  0  0  0  0  0  0  0  0
  -20.7914  -10.0425   19.4775 N   0  3  0  0  0  0  0  0  0  0  0  0
  -24.6297  -26.6377   19.8203 O   0  0  0  0  0  0  0  0  0  0  0  0
  -27.6826  -22.6801   21.2567 O   0  0  0  0  0  0  0  0  0  0  0  0
  -25.9462  -12.9941   19.5869 O   0  0  0  0  0  0  0  0  0  0  0  0
  -22.7356  -14.9392   21.0219 O   0  0  0  0  0  0  0  0  0  0  0  0
  -22.9692  -10.4978   21.1999 O   0  0  0  0  0  0  0  0  0  0  0  0
  -28.6953  -29.2046   24.1063 O   0  0  0  0  0  0  0  0  0  0  0  0
  -29.6306  -21.4333   18.5717 O   0  0  0  0  0  0  0  0  0  0  0  0
  -19.4770  -28.0990   24.0413 O   0  0  0  0  0  0  0  0  0  0  0  0
  -28.8933  -18.9637   19.7383 O   0  0  0  0  0  0  0  0  0  1  0  0
  -14.9685  -31.1673   23.2267 F   0  0  0  0  0  0  0  0  0  0  0  0
  -17.1771  -26.9877   22.9839 F   0  0  0  0  0  0  0  0  0  0  0  0
  1  2  1  0  0  0  0
  1  5  2  0  0  0  0
  2  6  2  0  0  0  0
  3  8  2  0  0  0  0
  3 17  1  0  0  0  0
  4  9  1  0  0  0  0
  4 17  2  0  0  0  0
  5 19  1  0  0  0  0
  6 21  1  0  0  0  0
  7 10  2  0  0  0  0
  7 20  1  0  0  0  0
  8 27  1  0  0  0  0
  9 27  2  0  0  0  0
 10 28  1  0  0  0  0
 11 12  2  0  0  0  0
 11 29  1  0  0  0  0
 12 30  1  0  0  0  0
 13 22  2  0  0  0  0
 13 26  1  0  0  0  0
 14 23  1  0  0  0  0
 14 26  2  0  0  0  0
 15 24  1  0  0  0  0
 15 28  2  0  0  0  0
 16 30  2  0  0  0  0
 16 31  1  0  0  0  0
 17 32  1  0  0  0  0
 18 32  1  0  0  0  0
 18 33  2  0  0  0  0
 18 35  1  0  0  0  0
 19 21  2  0  0  0  0
 19 42  1  0  0  0  0
 20 24  2  0  0  0  0
 20 43  1  0  0  0  0
 21 58  1  0  0  0  0
 22 25  1  0  0  0  0
 22 44  1  0  0  0  0
 23 25  2  0  0  0  0
 23 57  1  0  0  0  0
 24 45  1  0  0  0  0
 25 71  1  0  0  0  0
 26 76  1  0  0  0  0
 27 87  1  0  0  0  0
 28 88  1  0  0  0  0
 29 31  2  0  0  0  0
 29 87  1  0  0  0  0
 30 89  1  0  0  0  0
 31 90  1  0  0  0  0
 32 69  2  0  0  0  0
 33 70  1  0  0  0  0
 33 74  1  0  0  0  0
 34 36  2  0  0  0  0
 34 88  1  0  0  0  0
 35 75  1  0  0  0  0
 35 80  2  0  0  0  0
 36 37  1  0  0  0  0
 36 86  1  0  0  0  0
 37 76  1  0  0  0  0
 37 81  2  0  0  0  0
 38 59  1  0  0  0  0
 38 77  1  0  0  0  0
 38 82  2  0  0  0  0
 39 66  1  0  0  0  0
 39 72  1  0  0  0  0
 39 83  2  0  0  0  0
 40 67  1  0  0  0  0
 40 78  1  0  0  0  0
 40 84  2  0  0  0  0
 41 71  1  0  0  0  0
 41 73  1  0  0  0  0
 41 85  2  0  0  0  0
 42 46  1  0  0  0  0
 43 59  1  0  0  0  0
 44 54  1  0  0  0  0
 45 72  1  0  0  0  0
 46 52  1  0  0  0  0
 47 48  1  0  0  0  0
 47 50  1  0  0  0  0
 48 51  1  0  0  0  0
 49 53  1  0  0  0  0
 49 55  1  0  0  0  0
 50 57  1  0  0  0  0
 51 57  1  0  0  0  0
 52 58  1  0  0  0  0
 53 60  1  0  0  0  0
 54 71  1  0  0  0  0
 55 73  1  0  0  0  0
 56 60  1  0  0  0  0
 56 73  1  0  0  0  0
 58 77  1  0  0  0  0
 59 72  1  0  0  0  0
 60 70  1  0  0  0  0
 61 67  1  0  0  0  0
 62 68  1  0  0  0  0
 63 68  1  0  0  0  0
 64 68  1  0  0  0  0
 65 79  1  0  0  0  0
 66 68  1  0  0  0  0
 66 78  1  0  0  0  0
 67 79  1  0  0  0  0
 69 70  1  0  0  0  0
M  CHG  1  79   1
M  ISO  4  34 101  41 100  71 100  88 101
M  END
> <Batch ID>
0154

> <Smiles>
CNC(C)C(=O)NC(C(=O)N1Cc2cc([101O:1][101CH2:1]C(=O)C(=O)Nc3cc4c(c(C5CCCC5)c3)[100N:0]([100C:0](=O)N3CCCC(n5nc(-c6ccc(Oc7ccc(F)cc7F)cc6)c(C(N)=O)c5N)C3)CC4)ccc2CC1C(=O)NC1CCCc2ccccc21)C(C)(C)C

> <Shape>
0.309

> <Color>
0.058

> <Negative vol penalty>
0.000

$$$$

  -OEChem-04052303333D

 81 89  0     1  0  0  0  0  0999 V2000
  -37.7221  -33.6779   27.6413 C   0  0  0  0  0  0  0  0  0  0  0  0
  -37.3325  -32.3557   27.4533 C   0  0  0  0  0  0  0  0  0  0  0  0
  -23.1033   -9.8094   19.9640 C   0  0  0  0  0  0  0  0  0  0  0  0
  -23.8214   -9.8955   22.2692 C   0  0  0  0  0  0  0  0  0  0  0  0
  -36.7659  -34.6511   27.9287 C   0  0  0  0  0  0  0  0  0  0  0  0
  -35.9865  -32.0057   27.5537 C   0  0  0  0  0  0  0  0  0  0  0  0
  -33.0448  -27.7227   24.3119 C   0  0  0  0  0  0  0  0  0  0  0  0
  -22.3662   -8.6571   20.2366 C   0  0  0  0  0  0  0  0  0  0  0  0
  -23.0843   -8.7431   22.5419 C   0  0  0  0  0  0  0  0  0  0  0  0
  -32.6976  -26.4032   24.5983 C   0  0  0  0  0  0  0  0  0  0  0  0
  -19.4000   -7.8759   21.6594 C   0  0  0  0  0  0  0  0  0  0  0  0
  -18.1026   -7.8012   21.1526 C   0  0  0  0  0  0  0  0  0  0  0  0
  -30.5027  -27.1352   25.2808 C   0  0  0  0  0  0  0  0  0  0  0  0
  -18.7050   -5.8238   19.9019 C   0  0  0  0  0  0  0  0  0  0  0  0
  -31.7096  -18.8241   22.1511 C   0  0  0  0  0  0  0  0  0  0  0  0
  -23.8310  -10.4286   20.9803 C   0  0  0  0  0  0  0  0  0  0  0  0
  -24.1505  -12.9522   20.7875 C   0  0  0  0  0  0  0  0  0  0  0  0
  -35.4063  -34.3145   28.0231 C   0  0  0  0  0  0  0  0  0  0  0  0
  -32.1256  -28.7614   24.5185 C   0  0  0  0  0  0  0  0  0  0  0  0
  -35.0113  -32.9750   27.8439 C   0  0  0  0  0  0  0  0  0  0  0  0
  -30.8398  -28.4667   24.9938 C   0  0  0  0  0  0  0  0  0  0  0  0
  -22.3567   -8.1239   21.5255 C   0  0  0  0  0  0  0  0  0  0  0  0
  -31.4274  -26.1095   25.0856 C   0  0  0  0  0  0  0  0  0  0  0  0
  -20.3499   -6.9246   21.2874 C   0  0  0  0  0  0  0  0  0  0  0  0
  -17.7551   -6.7752   20.2739 C   0  0  0  0  0  0  0  0  0  0  0  0
  -20.0024   -5.8985   20.4087 C   0  0  0  0  0  0  0  0  0  0  0  0
  -24.5931  -11.6187   20.6992 C   0  0  0  0  0  0  0  0  0  0  0  0
  -25.2418  -13.7011   20.4205 C   0  0  0  0  0  0  0  0  0  0  0  0
  -30.5910  -19.2027   22.8635 C   0  0  0  0  0  0  0  0  0  0  0  0
  -30.4954  -17.0245   21.8393 C   0  0  0  0  0  0  0  0  0  0  0  0
  -22.8677  -13.4678   21.1674 C   0  0  0  0  0  0  0  0  0  0  0  0
  -32.0424  -31.3494   26.3621 C   0  0  0  0  0  0  0  0  0  0  0  0
  -30.7931  -22.6058   24.4321 C   0  0  0  0  0  0  0  0  0  0  0  0
  -29.3230  -31.9659   24.7045 C   0  0  0  0  0  0  0  0  0  0  0  0
  -26.7188  -30.7591   22.8583 C   0  0  0  0  0  0  0  0  0  0  0  0
  -30.6936  -14.8074   20.6598 C   0  0  0  0  0  0  0  0  0  0  0  0
  -34.4148  -35.3927   28.3823 C   0  0  0  0  0  0  0  0  0  0  0  0
  -32.5066  -30.1764   24.1794 C   0  0  0  0  0  0  0  0  0  0  0  0
  -29.8096  -29.5432   25.2137 C   0  0  0  0  0  0  0  0  0  0  0  0
  -32.9653  -35.0053   28.1013 C   0  0  0  0  0  0  0  0  0  0  0  0
  -29.6456  -12.3100   18.3486 C   0  0  0  0  0  0  0  0  0  0  0  0
  -32.6773  -33.6009   28.6226 C   0  0  0  0  0  0  0  0  0  0  0  0
  -28.2013  -12.0172   18.7613 C   0  0  0  0  0  0  0  0  0  0  0  0
  -30.5366  -12.5853   19.5586 C   0  0  0  0  0  0  0  0  0  0  0  0
  -28.5980  -13.3328   20.8824 C   0  0  0  0  0  0  0  0  0  0  0  0
  -33.5579  -32.5604   27.9201 C   0  0  1  0  0  0  0  0  0  0  0  0
  -31.6642  -31.2145   24.9142 C   0  0  1  0  0  0  0  0  0  0  0  0
  -27.6484  -13.1131   19.6934 C   0  0  2  0  0  0  0  0  0  0  0  0
  -24.6344  -31.4994   21.6733 C   0  0  0  0  0  0  0  0  0  0  0  0
  -27.8985  -32.2429   27.3885 C   0  0  0  0  0  0  0  0  0  0  0  0
  -25.7190  -32.0299   26.1748 C   0  0  0  0  0  0  0  0  0  0  0  0
  -27.2398  -33.9437   25.6775 C   0  0  0  0  0  0  0  0  0  0  0  0
  -27.7278  -29.8072   20.2440 C   0  0  0  0  0  0  0  0  0  0  0  0
  -31.3473  -21.4590   23.6137 C   0  0  0  0  0  0  0  0  0  0  0  0
  -31.7128  -23.8006   24.5924 C   0  0  0  0  0  0  0  0  0  1  0  0
  -27.8628  -31.6262   24.8816 C   0  0  1  0  0  0  0  0  0  0  0  0
  -26.1224  -31.2157   21.5392 C   0  0  2  0  0  0  0  0  0  0  0  0
  -27.1999  -32.4404   26.0284 C   0  0  0  0  0  0  0  0  0  0  0  0
  -31.6568  -17.5752   21.5634 N   0  0  0  0  0  0  0  0  0  0  0  0
  -25.8662  -11.5229   20.3067 N   0  0  0  0  0  0  0  0  0  0  0  0
  -26.2329  -12.8056   20.1451 N   0  0  0  0  0  0  0  0  0  0  0  0
  -30.2321  -30.9119   24.8734 N   0  0  0  0  0  0  0  0  0  0  0  0
  -29.9519  -13.6371   20.3933 N   0  0  0  0  0  0  0  0  0  0  0  0
  -25.4406  -15.0318   20.3096 N   0  0  0  0  0  0  0  0  0  0  0  0
  -21.8587  -12.5592   21.5149 N   0  0  0  0  0  0  0  0  0  0  0  0
  -30.3812  -20.3926   23.5457 N   0  0  0  0  0  0  0  0  0  0  0  0
  -30.0227  -15.7507   21.4373 N   0  0  0  0  0  0  0  0  0  0  0  0
  -33.0433  -32.2723   26.5986 N   0  0  0  0  0  0  0  0  0  0  0  0
  -27.2386  -31.8151   23.5766 N   0  0  0  0  0  0  0  0  0  0  0  0
  -26.3089  -30.1678   20.4960 N   0  3  0  0  0  0  0  0  0  0  0  0
  -22.6186  -14.6971   21.1820 O   0  0  0  0  0  0  0  0  0  0  0  0
  -31.4675  -30.6678   27.2028 O   0  0  0  0  0  0  0  0  0  0  0  0
  -29.6721  -22.5808   24.9386 O   0  0  0  0  0  0  0  0  0  0  0  0
  -29.6447  -33.1222   24.4196 O   0  0  0  0  0  0  0  0  0  0  0  0
  -26.7199  -29.5837   23.2175 O   0  0  0  0  0  0  0  0  0  0  0  0
  -31.8293  -14.9730   20.2073 O   0  0  0  0  0  0  0  0  0  0  0  0
  -21.6373   -6.9996   21.7920 O   0  0  0  0  0  0  0  0  0  0  0  0
  -31.0862  -24.8225   25.3666 O   0  0  0  0  0  0  0  0  0  1  0  0
  -16.5088   -6.7027   19.7886 F   0  0  0  0  0  0  0  0  0  0  0  0
  -20.9103   -4.9810   20.0486 F   0  0  0  0  0  0  0  0  0  0  0  0
  -29.4184  -17.9528   22.8002 S   0  0  0  0  0  0  0  0  0  0  0  0
  1  2  1  0  0  0  0
  1  5  2  0  0  0  0
  2  6  2  0  0  0  0
  3  8  2  0  0  0  0
  3 16  1  0  0  0  0
  4  9  1  0  0  0  0
  4 16  2  0  0  0  0
  5 18  1  0  0  0  0
  6 20  1  0  0  0  0
  7 10  2  0  0  0  0
  7 19  1  0  0  0  0
  8 22  1  0  0  0  0
  9 22  2  0  0  0  0
 10 23  1  0  0  0  0
 11 12  2  0  0  0  0
 11 24  1  0  0  0  0
 12 25  1  0  0  0  0
 13 21  1  0  0  0  0
 13 23  2  0  0  0  0
 14 25  2  0  0  0  0
 14 26  1  0  0  0  0
 15 29  2  0  0  0  0
 15 59  1  0  0  0  0
 16 27  1  0  0  0  0
 17 27  1  0  0  0  0
 17 28  2  0  0  0  0
 17 31  1  0  0  0  0
 18 20  2  0  0  0  0
 18 37  1  0  0  0  0
 19 21  2  0  0  0  0
 19 38  1  0  0  0  0
 20 46  1  0  0  0  0
 21 39  1  0  0  0  0
 22 77  1  0  0  0  0
 23 78  1  0  0  0  0
 24 26  2  0  0  0  0
 24 77  1  0  0  0  0
 25 79  1  0  0  0  0
 26 80  1  0  0  0  0
 27 60  2  0  0  0  0
 28 61  1  0  0  0  0
 28 64  1  0  0  0  0
 29 66  1  0  0  0  0
 29 81  1  0  0  0  0
 30 59  2  0  0  0  0
 30 67  1  0  0  0  0
 30 81  1  0  0  0  0
 31 65  1  0  0  0  0
 31 71  2  0  0  0  0
 32 47  1  0  0  0  0
 32 68  1  0  0  0  0
 32 72  2  0  0  0  0
 33 54  1  0  0  0  0
 33 55  1  0  0  0  0
 33 73  2  0  0  0  0
 34 56  1  0  0  0  0
 34 62  1  0  0  0  0
 34 74  2  0  0  0  0
 35 57  1  0  0  0  0
 35 69  1  0  0  0  0
 35 75  2  0  0  0  0
 36 63  1  0  0  0  0
 36 67  1  0  0  0  0
 36 76  2  0  0  0  0
 37 40  1  0  0  0  0
 38 47  1  0  0  0  0
 39 62  1  0  0  0  0
 40 42  1  0  0  0  0
 41 43  1  0  0  0  0
 41 44  1  0  0  0  0
 42 46  1  0  0  0  0
 43 48  1  0  0  0  0
 44 63  1  0  0  0  0
 45 48  1  0  0  0  0
 45 63  1  0  0  0  0
 46 68  1  0  0  0  0
 47 62  1  0  0  0  0
 48 61  1  0  0  0  0
 49 57  1  0  0  0  0
 50 58  1  0  0  0  0
 51 58  1  0  0  0  0
 52 58  1  0  0  0  0
 53 70  1  0  0  0  0
 54 66  1  0  0  0  0
 55 78  1  0  0  0  0
 56 58  1  0  0  0  0
 56 69  1  0  0  0  0
 57 70  1  0  0  0  0
 60 61  1  0  0  0  0
M  CHG  1  70   1
M  ISO  4  36 100  55 101  67 100  78 101
M  END
> <Batch ID>
0154

> <Smiles>
CNC(C)C(=O)NC(C(=O)N1Cc2cc([101O:1][101CH2:1]C(=O)CNc3cnc([100NH:0][100C:0](=O)N4CCCC(n5nc(-c6ccc(Oc7ccc(F)cc7F)cc6)c(C(N)=O)c5N)C4)s3)ccc2CC1C(=O)NC1CCCc2ccccc21)C(C)(C)C

> <Shape>
0.228

> <Color>
0.189

> <Negative vol penalty>
0.000

$$$$

  -OEChem-04052303333D

 87 96  0     1  0  0  0  0  0999 V2000
  -31.4104  -24.5642   18.3336 C   0  0  0  0  0  0  0  0  0  0  0  0
  -30.1209  -24.5109   18.8530 C   0  0  0  0  0  0  0  0  0  0  0  0
  -21.6710  -17.1332   22.9822 C   0  0  0  0  0  0  0  0  0  0  0  0
  -23.0096  -16.5249   24.8992 C   0  0  0  0  0  0  0  0  0  0  0  0
  -32.3521  -25.4251   18.8958 C   0  0  0  0  0  0  0  0  0  0  0  0
  -29.7727  -25.3176   19.9358 C   0  0  0  0  0  0  0  0  0  0  0  0
  -25.2771  -27.5654   19.3171 C   0  0  0  0  0  0  0  0  0  0  0  0
  -20.6940  -17.6550   23.8299 C   0  0  0  0  0  0  0  0  0  0  0  0
  -22.0326  -17.0466   25.7470 C   0  0  0  0  0  0  0  0  0  0  0  0
  -24.1409  -26.7887   19.5396 C   0  0  0  0  0  0  0  0  0  0  0  0
  -20.2060  -20.4752   25.6303 C   0  0  0  0  0  0  0  0  0  0  0  0
  -19.6625  -21.7180   25.3055 C   0  0  0  0  0  0  0  0  0  0  0  0
  -24.7422  -21.5133   20.0473 C   0  0  0  0  0  0  0  0  0  0  0  0
  -23.9115  -27.7640   21.7340 C   0  0  0  0  0  0  0  0  0  0  0  0
  -23.7512  -19.3683   19.5436 C   0  0  0  0  0  0  0  0  0  0  0  0
  -22.4119  -21.1129   20.5435 C   0  0  0  0  0  0  0  0  0  0  0  0
  -17.4681  -20.7186   25.1536 C   0  0  0  0  0  0  0  0  0  0  0  0
  -22.8288  -16.5681   23.5168 C   0  0  0  0  0  0  0  0  0  0  0  0
  -23.6857  -14.9839   21.7102 C   0  0  0  0  0  0  0  0  0  0  0  0
  -32.0124  -26.2499   19.9798 C   0  0  0  0  0  0  0  0  0  0  0  0
  -25.7462  -28.4407   20.3072 C   0  0  0  0  0  0  0  0  0  0  0  0
  -30.7111  -26.1894   20.5138 C   0  0  0  0  0  0  0  0  0  0  0  0
  -24.8583  -20.2168   19.5461 C   0  0  0  0  0  0  0  0  0  0  0  0
  -25.0524  -28.5525   21.5206 C   0  0  0  0  0  0  0  0  0  0  0  0
  -23.5190  -21.9614   20.5460 C   0  0  0  0  0  0  0  0  0  0  0  0
  -20.8747  -17.6117   25.2124 C   0  0  0  0  0  0  0  0  0  0  0  0
  -23.4596  -26.8858   20.7494 C   0  0  0  0  0  0  0  0  0  0  0  0
  -19.3806  -19.3540   25.7166 C   0  0  0  0  0  0  0  0  0  0  0  0
  -18.2935  -21.8398   25.0672 C   0  0  0  0  0  0  0  0  0  0  0  0
  -22.5280  -19.8164   20.0423 C   0  0  0  0  0  0  0  0  0  0  0  0
  -18.0117  -19.4758   25.4783 C   0  0  0  0  0  0  0  0  0  0  0  0
  -23.8382  -16.0285   22.6416 C   0  0  0  0  0  0  0  0  0  0  0  0
  -24.9265  -14.8519   21.1361 C   0  0  0  0  0  0  0  0  0  0  0  0
  -22.5262  -14.2028   21.3925 C   0  0  0  0  0  0  0  0  0  0  0  0
  -28.4262  -28.6847   21.9989 C   0  0  0  0  0  0  0  0  0  0  0  0
  -27.0555  -31.4325   23.0444 C   0  0  0  0  0  0  0  0  0  0  0  0
  -24.2015  -33.2265   23.5769 C   0  0  0  0  0  0  0  0  0  0  0  0
  -29.4714  -18.4878   20.3085 C   0  0  0  0  0  0  0  0  0  0  0  0
  -33.0779  -27.1298   20.5841 C   0  0  0  0  0  0  0  0  0  0  0  0
  -26.9579  -29.2913   20.0413 C   0  0  0  0  0  0  0  0  0  0  0  0
  -25.5032  -29.4920   22.6081 C   0  0  0  0  0  0  0  0  0  0  0  0
  -32.5215  -28.2249   21.4905 C   0  0  0  0  0  0  0  0  0  0  0  0
  -28.0068  -20.0377   17.2810 C   0  0  0  0  0  0  0  0  0  0  0  0
  -29.5745  -15.4903   22.0498 C   0  0  0  0  0  0  0  0  0  0  0  0
  -26.6576  -20.5447   17.7884 C   0  0  0  0  0  0  0  0  0  0  0  0
  -31.4781  -27.6503   22.4434 C   0  0  0  0  0  0  0  0  0  0  0  0
  -28.1033  -15.1738   22.3178 C   0  0  0  0  0  0  0  0  0  0  0  0
  -29.0499  -19.9887   18.3936 C   0  0  0  0  0  0  0  0  0  0  0  0
  -29.8557  -16.9773   22.2334 C   0  0  0  0  0  0  0  0  0  0  0  0
  -27.2733  -19.7161   20.0928 C   0  0  0  0  0  0  0  0  0  0  0  0
  -27.5249  -17.5555   21.6415 C   0  0  0  0  0  0  0  0  0  0  0  0
  -26.1887  -19.7281   19.0051 C   0  0  1  0  0  0  0  0  0  0  0  0
  -30.2882  -27.0670   21.6718 C   0  0  1  0  0  0  0  0  0  0  0  0
  -27.6429  -29.7708   21.3172 C   0  0  1  0  0  0  0  0  0  0  0  0
  -27.1836  -16.0629   21.4627 C   0  0  2  0  0  0  0  0  0  0  0  0
  -23.3965  -35.4256   24.4787 C   0  0  0  0  0  0  0  0  0  0  0  0
  -21.3097  -25.6359   23.0579 C   0  0  0  0  0  0  0  0  0  0  0  0
  -27.5088  -30.4288   25.8899 C   0  0  0  0  0  0  0  0  0  0  0  0
  -25.8776  -32.1541   26.6840 C   0  0  0  0  0  0  0  0  0  0  0  0
  -27.9859  -32.8605   25.5531 C   0  0  0  0  0  0  0  0  0  0  0  0
  -23.0266  -33.9966   20.9720 C   0  0  0  0  0  0  0  0  0  0  0  0
  -22.1784  -23.7943   21.5797 C   0  0  0  0  0  0  0  0  0  0  0  0
  -26.1402  -31.8036   24.1862 C   0  0  1  0  0  0  0  0  0  0  0  0
  -23.8357  -34.6607   23.2398 C   0  0  2  0  0  0  0  0  0  0  0  0
  -22.3951  -25.2225   22.0746 C   0  0  1  0  0  0  0  0  0  1  0  0
  -26.8705  -31.7925   25.5588 C   0  0  0  0  0  0  0  0  0  0  0  0
  -25.0781  -16.5247   22.6613 N   0  0  0  0  0  0  0  0  0  0  0  0
  -25.7160  -15.7887   21.7353 N   0  0  0  0  0  0  0  0  0  0  0  0
  -26.6969  -30.2979   22.3029 N   0  0  0  0  0  0  0  0  0  0  0  0
  -28.5605  -19.2480   19.5566 N   0  0  0  0  0  0  0  0  0  0  0  0
  -28.9583  -17.7904   21.4126 N   0  0  0  0  0  0  0  0  0  0  0  0
  -25.4082  -14.0270   20.1822 N   0  0  0  0  0  0  0  0  0  0  0  0
  -22.2995  -13.0207   22.1105 N   0  0  0  0  0  0  0  0  0  0  0  0
  -23.4015  -23.2719   21.0540 N   0  0  0  0  0  0  0  0  0  0  0  0
  -29.4156  -28.1263   21.2123 N   0  0  0  0  0  0  0  0  0  0  0  0
  -25.5493  -33.0901   23.8341 N   0  0  0  0  0  0  0  0  0  0  0  0
  -22.7229  -34.6923   22.2490 N   0  3  0  0  0  0  0  0  0  0  0  0
  -21.7239  -14.5345   20.4870 O   0  0  0  0  0  0  0  0  0  0  0  0
  -28.1540  -28.3771   23.1534 O   0  0  0  0  0  0  0  0  0  0  0  0
  -28.0480  -32.1280   22.8144 O   0  0  0  0  0  0  0  0  0  0  0  0
  -23.3738  -32.3186   23.6123 O   0  0  0  0  0  0  0  0  0  0  0  0
  -30.6705  -18.4333   20.0080 O   0  0  0  0  0  0  0  0  0  0  0  0
  -19.9217  -18.1210   26.0399 O   0  0  0  0  0  0  0  0  0  0  0  0
  -22.3445  -26.1241   20.9707 O   0  0  0  0  0  0  0  0  0  1  0  0
  -17.7715  -23.0337   24.7569 F   0  0  0  0  0  0  0  0  0  0  0  0
  -21.4648  -19.0017   20.0392 F   0  0  0  0  0  0  0  0  0  0  0  0
  -17.2135  -18.4025   25.5610 F   0  0  0  0  0  0  0  0  0  0  0  0
  1  2  1  0  0  0  0
  1  5  2  0  0  0  0
  2  6  2  0  0  0  0
  3  8  2  0  0  0  0
  3 18  1  0  0  0  0
  4  9  1  0  0  0  0
  4 18  2  0  0  0  0
  5 20  1  0  0  0  0
  6 22  1  0  0  0  0
  7 10  2  0  0  0  0
  7 21  1  0  0  0  0
  8 26  1  0  0  0  0
  9 26  2  0  0  0  0
 10 27  1  0  0  0  0
 11 12  2  0  0  0  0
 11 28  1  0  0  0  0
 12 29  1  0  0  0  0
 13 23  1  0  0  0  0
 13 25  2  0  0  0  0
 14 24  1  0  0  0  0
 14 27  2  0  0  0  0
 15 23  2  0  0  0  0
 15 30  1  0  0  0  0
 16 25  1  0  0  0  0
 16 30  2  0  0  0  0
 17 29  2  0  0  0  0
 17 31  1  0  0  0  0
 18 32  1  0  0  0  0
 19 32  1  0  0  0  0
 19 33  2  0  0  0  0
 19 34  1  0  0  0  0
 20 22  2  0  0  0  0
 20 39  1  0  0  0  0
 21 24  2  0  0  0  0
 21 40  1  0  0  0  0
 22 53  1  0  0  0  0
 23 52  1  0  0  0  0
 24 41  1  0  0  0  0
 25 74  1  0  0  0  0
 26 83  1  0  0  0  0
 27 84  1  0  0  0  0
 28 31  2  0  0  0  0
 28 83  1  0  0  0  0
 29 85  1  0  0  0  0
 30 86  1  0  0  0  0
 31 87  1  0  0  0  0
 32 67  2  0  0  0  0
 33 68  1  0  0  0  0
 33 72  1  0  0  0  0
 34 73  1  0  0  0  0
 34 78  2  0  0  0  0
 35 54  1  0  0  0  0
 35 75  1  0  0  0  0
 35 79  2  0  0  0  0
 36 63  1  0  0  0  0
 36 69  1  0  0  0  0
 36 80  2  0  0  0  0
 37 64  1  0  0  0  0
 37 76  1  0  0  0  0
 37 81  2  0  0  0  0
 38 70  1  0  0  0  0
 38 71  1  0  0  0  0
 38 82  2  0  0  0  0
 39 42  1  0  0  0  0
 40 54  1  0  0  0  0
 41 69  1  0  0  0  0
 42 46  1  0  0  0  0
 43 45  1  0  0  0  0
 43 48  1  0  0  0  0
 44 47  1  0  0  0  0
 44 49  1  0  0  0  0
 45 52  1  0  0  0  0
 46 53  1  0  0  0  0
 47 55  1  0  0  0  0
 48 70  1  0  0  0  0
 49 71  1  0  0  0  0
 50 52  1  0  0  0  0
 50 70  1  0  0  0  0
 51 55  1  0  0  0  0
 51 71  1  0  0  0  0
 53 75  1  0  0  0  0
 54 69  1  0  0  0  0
 55 68  1  0  0  0  0
 56 64  1  0  0  0  0
 57 65  1  0  0  0  0
 58 66  1  0  0  0  0
 59 66  1  0  0  0  0
 60 66  1  0  0  0  0
 61 77  1  0  0  0  0
 62 65  1  0  0  0  0
 62 74  1  0  0  0  0
 63 66  1  0  0  0  0
 63 76  1  0  0  0  0
 64 77  1  0  0  0  0
 65 84  1  0  0  0  0
 67 68  1  0  0  0  0
M  CHG  1  77   1
M  ISO  4  38 100  65 101  70 100  84 101
M  END
> <Batch ID>
0154

> <Smiles>
CNC(C)C(=O)NC(C(=O)N1Cc2cc([101O:1][101CH:1](C)CNc3cc(F)cc(C4CCC[100N:0]([100C:0](=O)N5CCCC(n6nc(-c7ccc(Oc8ccc(F)cc8F)cc7)c(C(N)=O)c6N)C5)C4)c3)ccc2CC1C(=O)NC1CCCc2ccccc21)C(C)(C)C

> <Shape>
0.222

> <Color>
0.092

> <Negative vol penalty>
0.000

$$$$

  -OEChem-04052303333D

 85 94  0     1  0  0  0  0  0999 V2000
  -28.3020  -32.9336   26.5143 C   0  0  0  0  0  0  0  0  0  0  0  0
  -28.3914  -31.6041   26.1146 C   0  0  0  0  0  0  0  0  0  0  0  0
  -23.1293   -9.7127   20.0256 C   0  0  0  0  0  0  0  0  0  0  0  0
  -23.7056  -10.0071   22.3534 C   0  0  0  0  0  0  0  0  0  0  0  0
  -27.1022  -33.6271   26.3612 C   0  0  0  0  0  0  0  0  0  0  0  0
  -27.2806  -30.9669   25.5625 C   0  0  0  0  0  0  0  0  0  0  0  0
  -28.4430  -28.2541   21.4474 C   0  0  0  0  0  0  0  0  0  0  0  0
  -22.3998   -8.5693   20.3508 C   0  0  0  0  0  0  0  0  0  0  0  0
  -22.9760   -8.8637   22.6786 C   0  0  0  0  0  0  0  0  0  0  0  0
  -29.0443  -27.0130   21.6519 C   0  0  0  0  0  0  0  0  0  0  0  0
  -23.4003   -5.5126   22.5333 C   0  0  0  0  0  0  0  0  0  0  0  0
  -23.9850   -4.5982   23.4094 C   0  0  0  0  0  0  0  0  0  0  0  0
  -26.9151  -25.9319   21.3097 C   0  0  0  0  0  0  0  0  0  0  0  0
  -22.1502   -4.9026   24.9515 C   0  0  0  0  0  0  0  0  0  0  0  0
  -23.7823  -10.4317   21.0269 C   0  0  0  0  0  0  0  0  0  0  0  0
  -24.0636  -12.9376   20.6412 C   0  0  0  0  0  0  0  0  0  0  0  0
  -25.9790  -33.0011   25.7981 C   0  0  0  0  0  0  0  0  0  0  0  0
  -27.0689  -28.3444   21.1829 C   0  0  0  0  0  0  0  0  0  0  0  0
  -26.0643  -31.6524   25.4030 C   0  0  0  0  0  0  0  0  0  0  0  0
  -26.2993  -27.1752   21.0997 C   0  0  0  0  0  0  0  0  0  0  0  0
  -22.3231   -8.1447   21.6773 C   0  0  0  0  0  0  0  0  0  0  0  0
  -28.2798  -25.8518   21.5859 C   0  0  0  0  0  0  0  0  0  0  0  0
  -22.1906   -6.1221   22.8663 C   0  0  0  0  0  0  0  0  0  0  0  0
  -23.3599   -4.2932   24.6185 C   0  0  0  0  0  0  0  0  0  0  0  0
  -21.5656   -5.8171   24.0754 C   0  0  0  0  0  0  0  0  0  0  0  0
  -24.5366  -11.6126   20.6915 C   0  0  0  0  0  0  0  0  0  0  0  0
  -31.4106  -19.0857   21.9447 C   0  0  0  0  0  0  0  0  0  0  0  0
  -25.1602  -13.6800   20.2768 C   0  0  0  0  0  0  0  0  0  0  0  0
  -30.2439  -19.4942   22.5564 C   0  0  0  0  0  0  0  0  0  0  0  0
  -30.2531  -17.2371   21.7148 C   0  0  0  0  0  0  0  0  0  0  0  0
  -29.4599  -22.9712   23.3732 C   0  0  0  0  0  0  0  0  0  0  0  0
  -28.9107  -24.1498   23.0610 C   0  0  0  0  0  0  0  0  0  1  0  0
  -22.7505  -13.4514   20.9009 C   0  0  0  0  0  0  0  0  0  0  0  0
  -32.5792  -19.9089   21.7902 C   0  0  0  0  0  0  0  0  0  0  0  0
  -24.5862  -29.6856   22.6462 C   0  0  0  0  0  0  0  0  0  0  0  0
  -23.0043  -28.7558   19.9712 C   0  0  0  0  0  0  0  0  0  0  0  0
  -22.8284  -26.6442   17.2959 C   0  0  0  0  0  0  0  0  0  0  0  0
  -30.5651  -14.9353   20.7398 C   0  0  0  0  0  0  0  0  0  0  0  0
  -24.6900  -33.7775   25.6963 C   0  0  0  0  0  0  0  0  0  0  0  0
  -26.4406  -29.6889   20.9381 C   0  0  0  0  0  0  0  0  0  0  0  0
  -24.8242  -27.2166   20.7986 C   0  0  0  0  0  0  0  0  0  0  0  0
  -29.5344  -22.3949   24.7517 C   0  0  0  0  0  0  0  0  0  0  0  0
  -29.9858  -21.9778   22.3812 C   0  0  0  0  0  0  0  0  0  0  0  0
  -23.6682  -33.1413   24.7574 C   0  0  0  0  0  0  0  0  0  0  0  0
  -29.7070  -12.2300   18.5899 C   0  0  0  0  0  0  0  0  0  0  0  0
  -23.5532  -31.6446   25.0289 C   0  0  0  0  0  0  0  0  0  0  0  0
  -28.2464  -11.9372   18.9408 C   0  0  0  0  0  0  0  0  0  0  0  0
  -29.4821  -20.8915   24.4946 C   0  0  0  0  0  0  0  0  0  0  0  0
  -30.5180  -12.6264   19.8223 C   0  0  0  0  0  0  0  0  0  0  0  0
  -28.4890  -13.4334   20.9631 C   0  0  0  0  0  0  0  0  0  0  0  0
  -24.8886  -30.9341   24.7771 C   0  0  1  0  0  0  0  0  0  0  0  0
  -24.9351  -29.6987   21.1848 C   0  0  1  0  0  0  0  0  0  0  0  0
  -27.6172  -13.0928   19.7435 C   0  0  2  0  0  0  0  0  0  0  0  0
  -33.4656  -19.6661   20.5936 C   0  0  0  0  0  0  0  0  0  0  0  0
  -21.4002  -26.1019   15.3051 C   0  0  0  0  0  0  0  0  0  0  0  0
  -20.9958  -27.3600   21.7954 C   0  0  0  0  0  0  0  0  0  0  0  0
  -20.1809  -26.0810   19.8033 C   0  0  0  0  0  0  0  0  0  0  0  0
  -19.9796  -28.5668   19.8550 C   0  0  0  0  0  0  0  0  0  0  0  0
  -25.0203  -27.2684   15.4078 C   0  0  0  0  0  0  0  0  0  0  0  0
  -22.2576  -27.5139   19.5481 C   0  0  1  0  0  0  0  0  0  0  0  0
  -22.5837  -26.9057   15.8207 C   0  0  2  0  0  0  0  0  0  0  0  0
  -20.8809  -27.3794   20.2581 C   0  0  0  0  0  0  0  0  0  0  0  0
  -25.8326  -11.5157   20.3835 N   0  0  0  0  0  0  0  0  0  0  0  0
  -31.4178  -17.7916   21.4619 N   0  0  0  0  0  0  0  0  0  0  0  0
  -26.1834  -12.7893   20.1360 N   0  0  0  0  0  0  0  0  0  0  0  0
  -29.9595  -20.7205   23.1245 N   0  0  3  0  0  0  0  0  0  0  0  0
  -24.2547  -28.5554   20.5731 N   0  0  0  0  0  0  0  0  0  0  0  0
  -29.8637  -13.7292   20.5299 N   0  0  0  0  0  0  0  0  0  0  0  0
  -25.3393  -15.0013   20.0660 N   0  0  0  0  0  0  0  0  0  0  0  0
  -21.7403  -12.5504   21.2641 N   0  0  0  0  0  0  0  0  0  0  0  0
  -29.8303  -15.9232   21.3946 N   0  0  0  0  0  0  0  0  0  0  0  0
  -25.1040  -30.7510   23.3578 N   0  0  0  0  0  0  0  0  0  0  0  0
  -22.1769  -27.5622   18.0922 N   0  0  0  0  0  0  0  0  0  0  0  0
  -23.7867  -26.5357   15.0226 N   0  3  0  0  0  0  0  0  0  0  0  0
  -22.4770  -14.6712   20.7973 O   0  0  0  0  0  0  0  0  0  0  0  0
  -32.9347  -20.8125   22.5653 O   0  0  0  0  0  0  0  0  0  0  0  0
  -23.8971  -28.7770   23.0947 O   0  0  0  0  0  0  0  0  0  0  0  0
  -22.5001  -29.8632   19.7686 O   0  0  0  0  0  0  0  0  0  0  0  0
  -23.5246  -25.7161   17.7014 O   0  0  0  0  0  0  0  0  0  0  0  0
  -31.7225  -15.0906   20.3420 O   0  0  0  0  0  0  0  0  0  0  0  0
  -21.6110   -7.0291   21.9950 O   0  0  0  0  0  0  0  0  0  0  0  0
  -28.8640  -24.6391   21.7858 O   0  0  0  0  0  0  0  0  0  1  0  0
  -23.9207   -3.4139   25.4591 F   0  0  0  0  0  0  0  0  0  0  0  0
  -20.4027   -6.3985   24.4002 F   0  0  0  0  0  0  0  0  0  0  0  0
  -29.1021  -18.2148   22.5299 S   0  0  0  0  0  0  0  0  0  0  0  0
  1  2  1  0  0  0  0
  1  5  2  0  0  0  0
  2  6  2  0  0  0  0
  3  8  2  0  0  0  0
  3 15  1  0  0  0  0
  4  9  1  0  0  0  0
  4 15  2  0  0  0  0
  5 17  1  0  0  0  0
  6 19  1  0  0  0  0
  7 10  2  0  0  0  0
  7 18  1  0  0  0  0
  8 21  1  0  0  0  0
  9 21  2  0  0  0  0
 10 22  1  0  0  0  0
 11 12  2  0  0  0  0
 11 23  1  0  0  0  0
 12 24  1  0  0  0  0
 13 20  1  0  0  0  0
 13 22  2  0  0  0  0
 14 24  2  0  0  0  0
 14 25  1  0  0  0  0
 15 26  1  0  0  0  0
 16 26  1  0  0  0  0
 16 28  2  0  0  0  0
 16 33  1  0  0  0  0
 17 19  2  0  0  0  0
 17 39  1  0  0  0  0
 18 20  2  0  0  0  0
 18 40  1  0  0  0  0
 19 51  1  0  0  0  0
 20 41  1  0  0  0  0
 21 81  1  0  0  0  0
 22 82  1  0  0  0  0
 23 25  2  0  0  0  0
 23 81  1  0  0  0  0
 24 83  1  0  0  0  0
 25 84  1  0  0  0  0
 26 63  2  0  0  0  0
 27 29  2  0  0  0  0
 27 34  1  0  0  0  0
 27 64  1  0  0  0  0
 28 65  1  0  0  0  0
 28 69  1  0  0  0  0
 29 66  1  0  0  0  0
 29 85  1  0  0  0  0
 30 64  2  0  0  0  0
 30 71  1  0  0  0  0
 30 85  1  0  0  0  0
 31 32  2  0  0  0  0
 31 42  1  0  0  0  0
 31 43  1  0  0  0  0
 32 82  1  0  0  0  0
 33 70  1  0  0  0  0
 33 75  2  0  0  0  0
 34 54  1  0  0  0  0
 34 76  2  0  0  0  0
 35 52  1  0  0  0  0
 35 72  1  0  0  0  0
 35 77  2  0  0  0  0
 36 60  1  0  0  0  0
 36 67  1  0  0  0  0
 36 78  2  0  0  0  0
 37 61  1  0  0  0  0
 37 73  1  0  0  0  0
 37 79  2  0  0  0  0
 38 68  1  0  0  0  0
 38 71  1  0  0  0  0
 38 80  2  0  0  0  0
 39 44  1  0  0  0  0
 40 52  1  0  0  0  0
 41 67  1  0  0  0  0
 42 48  1  0  0  0  0
 43 66  1  0  0  0  0
 44 46  1  0  0  0  0
 45 47  1  0  0  0  0
 45 49  1  0  0  0  0
 46 51  1  0  0  0  0
 47 53  1  0  0  0  0
 48 66  1  0  0  0  0
 49 68  1  0  0  0  0
 50 53  1  0  0  0  0
 50 68  1  0  0  0  0
 51 72  1  0  0  0  0
 52 67  1  0  0  0  0
 53 65  1  0  0  0  0
 55 61  1  0  0  0  0
 56 62  1  0  0  0  0
 57 62  1  0  0  0  0
 58 62  1  0  0  0  0
 59 74  1  0  0  0  0
 60 62  1  0  0  0  0
 60 73  1  0  0  0  0
 61 74  1  0  0  0  0
 63 65  1  0  0  0  0
M  CHG  1  74   1
M  ISO  4  32 101  38 100  71 100  82 101
M  END
> <Batch ID>
0154

> <Smiles>
CNC(C)C(=O)NC(C(=O)N1Cc2cc([101O:1][101CH:1]=C3CCN(c4sc([100NH:0][100C:0](=O)N5CCCC(n6nc(-c7ccc(Oc8ccc(F)cc8F)cc7)c(C(N)=O)c6N)C5)nc4C(C)=O)C3)ccc2CC1C(=O)NC1CCCc2ccccc21)C(C)(C)C

> <Shape>
0.328

> <Color>
0.211

> <Negative vol penalty>
0.000

$$$$

  -OEChem-04052303333D

 86 95  0     1  0  0  0  0  0999 V2000
  -31.7237  -12.7722   21.5092 C   0  0  0  0  0  0  0  0  0  0  0  0
  -31.1378  -13.9028   22.0694 C   0  0  0  0  0  0  0  0  0  0  0  0
  -22.6373  -30.6442   20.5627 C   0  0  0  0  0  0  0  0  0  0  0  0
  -22.5401  -28.8674   22.1970 C   0  0  0  0  0  0  0  0  0  0  0  0
  -31.1026  -12.1219   20.4437 C   0  0  0  0  0  0  0  0  0  0  0  0
  -29.9309  -14.3845   21.5635 C   0  0  0  0  0  0  0  0  0  0  0  0
  -26.6438  -15.6082   25.2163 C   0  0  0  0  0  0  0  0  0  0  0  0
  -21.2509  -30.5886   20.4198 C   0  0  0  0  0  0  0  0  0  0  0  0
  -21.1536  -28.8119   22.0541 C   0  0  0  0  0  0  0  0  0  0  0  0
  -26.8445  -16.8215   25.8731 C   0  0  0  0  0  0  0  0  0  0  0  0
  -18.4682  -30.5571   23.1328 C   0  0  0  0  0  0  0  0  0  0  0  0
  -17.7010  -30.4807   24.2952 C   0  0  0  0  0  0  0  0  0  0  0  0
  -28.8719  -20.8457   22.0875 C   0  0  0  0  0  0  0  0  0  0  0  0
  -28.2948  -23.1332   22.6081 C   0  0  0  0  0  0  0  0  0  0  0  0
  -25.1359  -17.8372   24.5062 C   0  0  0  0  0  0  0  0  0  0  0  0
  -29.4750  -22.6205   20.5632 C   0  0  0  0  0  0  0  0  0  0  0  0
  -16.7839  -28.3729   23.5514 C   0  0  0  0  0  0  0  0  0  0  0  0
  -23.2819  -29.7835   21.4513 C   0  0  0  0  0  0  0  0  0  0  0  0
  -28.2862  -21.7791   22.9427 C   0  0  0  0  0  0  0  0  0  0  0  0
  -25.4447  -30.6326   22.5043 C   0  0  0  0  0  0  0  0  0  0  0  0
  -29.8826  -12.5902   19.9309 C   0  0  0  0  0  0  0  0  0  0  0  0
  -25.6937  -15.5029   24.1903 C   0  0  0  0  0  0  0  0  0  0  0  0
  -29.2936  -13.7407   20.4893 C   0  0  0  0  0  0  0  0  0  0  0  0
  -24.9234  -16.6208   23.8396 C   0  0  0  0  0  0  0  0  0  0  0  0
  -29.4663  -21.2663   20.8978 C   0  0  0  0  0  0  0  0  0  0  0  0
  -28.8892  -23.5539   21.4184 C   0  0  0  0  0  0  0  0  0  0  0  0
  -20.5091  -29.6725   21.1655 C   0  0  0  0  0  0  0  0  0  0  0  0
  -26.0925  -17.9369   25.5161 C   0  0  0  0  0  0  0  0  0  0  0  0
  -18.3933  -29.5414   22.1797 C   0  0  0  0  0  0  0  0  0  0  0  0
  -16.8589  -29.3887   24.5045 C   0  0  0  0  0  0  0  0  0  0  0  0
  -17.5511  -28.4493   22.3890 C   0  0  0  0  0  0  0  0  0  0  0  0
  -24.7141  -29.8400   21.5989 C   0  0  0  0  0  0  0  0  0  0  0  0
  -26.7584  -30.3240   22.2482 C   0  0  0  0  0  0  0  0  0  0  0  0
  -27.6582  -21.3347   24.1998 C   0  0  0  0  0  0  0  0  0  0  0  0
  -24.9777  -31.5644   23.4889 C   0  0  0  0  0  0  0  0  0  0  0  0
  -25.8072  -14.8064   21.0910 C   0  0  0  0  0  0  0  0  0  0  0  0
  -22.5753  -14.9195   21.3454 C   0  0  0  0  0  0  0  0  0  0  0  0
  -19.8400  -16.0879   23.0187 C   0  0  0  0  0  0  0  0  0  0  0  0
  -29.4458  -25.5137   19.9366 C   0  0  0  0  0  0  0  0  0  0  0  0
  -29.2728  -11.8816   18.7473 C   0  0  0  0  0  0  0  0  0  0  0  0
  -25.4706  -14.1802   23.5098 C   0  0  0  0  0  0  0  0  0  0  0  0
  -23.8766  -16.5550   22.7587 C   0  0  0  0  0  0  0  0  0  0  0  0
  -27.8066  -12.2367   18.5140 C   0  0  0  0  0  0  0  0  0  0  0  0
  -29.6398  -28.8533   18.7172 C   0  0  0  0  0  0  0  0  0  0  0  0
  -30.2426  -21.1692   26.7307 C   0  0  0  0  0  0  0  0  0  0  0  0
  -27.6036  -13.7463   18.5947 C   0  0  0  0  0  0  0  0  0  0  0  0
  -28.4688  -29.5589   19.4049 C   0  0  0  0  0  0  0  0  0  0  0  0
  -28.9755  -21.3227   27.5656 C   0  0  0  0  0  0  0  0  0  0  0  0
  -29.8161  -21.6197   25.3393 C   0  0  0  0  0  0  0  0  0  0  0  0
  -29.2931  -27.4135   18.3421 C   0  0  0  0  0  0  0  0  0  0  0  0
  -27.6038  -27.2982   20.1315 C   0  0  0  0  0  0  0  0  0  0  0  0
  -27.9725  -14.2791   19.9845 C   0  0  1  0  0  0  0  0  0  0  0  0
  -24.8367  -14.3181   22.1290 C   0  0  1  0  0  0  0  0  0  0  0  0
  -27.9272  -28.7307   20.5865 C   0  0  2  0  0  0  0  0  0  0  0  0
  -27.8508  -20.8833   26.6233 C   0  0  2  0  0  0  0  0  0  0  0  0
  -17.3315  -16.0418   22.9680 C   0  0  0  0  0  0  0  0  0  0  0  0
  -22.5880  -16.9095   19.0325 C   0  0  0  0  0  0  0  0  0  0  0  0
  -20.2426  -17.5331   19.6478 C   0  0  0  0  0  0  0  0  0  0  0  0
  -20.7638  -15.2018   18.9294 C   0  0  0  0  0  0  0  0  0  0  0  0
  -19.6942  -14.8008   25.6797 C   0  0  0  0  0  0  0  0  0  0  0  0
  -27.5975  -19.3835   26.6557 C   0  0  0  0  0  0  0  0  0  1  0  0
  -21.5289  -15.9983   21.2037 C   0  0  1  0  0  0  0  0  0  0  0  0
  -18.5893  -15.3872   23.5178 C   0  0  2  0  0  0  0  0  0  0  0  0
  -21.3018  -16.4128   19.7225 C   0  0  0  0  0  0  0  0  0  0  0  0
  -25.4984  -29.0848   20.8253 N   0  0  0  0  0  0  0  0  0  0  0  0
  -26.7356  -29.4015   21.2439 N   0  0  0  0  0  0  0  0  0  0  0  0
  -28.3861  -21.2678   25.3010 N   0  0  0  0  0  0  0  0  0  0  0  0
  -23.7000  -15.2411   22.1185 N   0  0  0  0  0  0  0  0  0  0  0  0
  -28.7909  -26.6889   19.5115 N   0  0  0  0  0  0  0  0  0  0  0  0
  -30.0590  -20.3226   20.0334 N   0  0  0  0  0  0  0  0  0  0  0  0
  -27.9192  -30.7545   22.7864 N   0  0  0  0  0  0  0  0  0  0  0  0
  -23.5963  -31.7616   23.6200 N   0  0  0  0  0  0  0  0  0  0  0  0
  -28.8985  -24.9294   21.0783 N   0  0  0  0  0  0  0  0  0  0  0  0
  -26.9151  -13.9962   20.9313 N   0  0  0  0  0  0  0  0  0  0  0  0
  -20.3336  -15.4982   21.8742 N   0  0  0  0  0  0  0  0  0  0  0  0
  -26.3687  -21.0099   24.2068 N   0  3  0  0  0  0  0  0  0  0  0  0
  -18.5298  -15.4313   25.0062 N   0  3  0  0  0  0  0  0  0  0  0  0
  -25.7629  -32.2153   24.2192 O   0  0  0  0  0  0  0  0  0  0  0  0
  -25.5677  -15.8408   20.4791 O   0  0  0  0  0  0  0  0  0  0  0  0
  -22.3980  -13.8291   20.7966 O   0  0  0  0  0  0  0  0  0  0  0  0
  -20.3281  -17.0633   23.5852 O   0  0  0  0  0  0  0  0  0  0  0  0
  -30.4370  -25.0741   19.3481 O   0  0  0  0  0  0  0  0  0  0  0  0
  -19.1562  -29.6182   21.0265 O   0  0  0  0  0  0  0  0  0  0  0  0
  -26.2868  -19.1226   26.1552 O   0  0  0  0  0  0  0  0  0  1  0  0
  -16.1233  -29.3147   25.6215 F   0  0  0  0  0  0  0  0  0  0  0  0
  -17.4758  -27.4698   21.4775 F   0  0  0  0  0  0  0  0  0  0  0  0
  1  2  1  0  0  0  0
  1  5  2  0  0  0  0
  2  6  2  0  0  0  0
  3  8  2  0  0  0  0
  3 18  1  0  0  0  0
  4  9  1  0  0  0  0
  4 18  2  0  0  0  0
  5 21  1  0  0  0  0
  6 23  1  0  0  0  0
  7 10  2  0  0  0  0
  7 22  1  0  0  0  0
  8 27  1  0  0  0  0
  9 27  2  0  0  0  0
 10 28  1  0  0  0  0
 11 12  2  0  0  0  0
 11 29  1  0  0  0  0
 12 30  1  0  0  0  0
 13 19  1  0  0  0  0
 13 25  2  0  0  0  0
 14 19  2  0  0  0  0
 14 26  1  0  0  0  0
 15 24  1  0  0  0  0
 15 28  2  0  0  0  0
 16 25  1  0  0  0  0
 16 26  2  0  0  0  0
 17 30  2  0  0  0  0
 17 31  1  0  0  0  0
 18 32  1  0  0  0  0
 19 34  1  0  0  0  0
 20 32  1  0  0  0  0
 20 33  2  0  0  0  0
 20 35  1  0  0  0  0
 21 23  2  0  0  0  0
 21 40  1  0  0  0  0
 22 24  2  0  0  0  0
 22 41  1  0  0  0  0
 23 52  1  0  0  0  0
 24 42  1  0  0  0  0
 25 70  1  0  0  0  0
 26 73  1  0  0  0  0
 27 83  1  0  0  0  0
 28 84  1  0  0  0  0
 29 31  2  0  0  0  0
 29 83  1  0  0  0  0
 30 85  1  0  0  0  0
 31 86  1  0  0  0  0
 32 65  2  0  0  0  0
 33 66  1  0  0  0  0
 33 71  1  0  0  0  0
 34 67  1  0  0  0  0
 34 76  2  0  0  0  0
 35 72  1  0  0  0  0
 35 78  2  0  0  0  0
 36 53  1  0  0  0  0
 36 74  1  0  0  0  0
 36 79  2  0  0  0  0
 37 62  1  0  0  0  0
 37 68  1  0  0  0  0
 37 80  2  0  0  0  0
 38 63  1  0  0  0  0
 38 75  1  0  0  0  0
 38 81  2  0  0  0  0
 39 69  1  0  0  0  0
 39 73  1  0  0  0  0
 39 82  2  0  0  0  0
 40 43  1  0  0  0  0
 41 53  1  0  0  0  0
 42 68  1  0  0  0  0
 43 46  1  0  0  0  0
 44 47  1  0  0  0  0
 44 50  1  0  0  0  0
 45 48  1  0  0  0  0
 45 49  1  0  0  0  0
 46 52  1  0  0  0  0
 47 54  1  0  0  0  0
 48 55  1  0  0  0  0
 49 67  1  0  0  0  0
 50 69  1  0  0  0  0
 51 54  1  0  0  0  0
 51 69  1  0  0  0  0
 52 74  1  0  0  0  0
 53 68  1  0  0  0  0
 54 66  1  0  0  0  0
 55 61  1  0  0  0  0
 55 67  1  0  0  0  0
 56 63  1  0  0  0  0
 57 64  1  0  0  0  0
 58 64  1  0  0  0  0
 59 64  1  0  0  0  0
 60 77  1  0  0  0  0
 61 84  1  0  0  0  0
 62 64  1  0  0  0  0
 62 75  1  0  0  0  0
 63 77  1  0  0  0  0
 65 66  1  0  0  0  0
M  CHG  2  76   1  77   1
M  ISO  4  39 100  61 101  73 100  84 101
M  END
> <Batch ID>
0154

> <Smiles>
CNC(C)C(=O)NC(C(=O)N1Cc2cc([101O:1][101CH2:1]C3CCCN3C(=N)c3cc(N)cc([100NH:0][100C:0](=O)N4CCCC(n5nc(-c6ccc(Oc7ccc(F)cc7F)cc6)c(C(N)=O)c5N)C4)c3)ccc2CC1C(=O)NC1CCCc2ccccc21)C(C)(C)C

> <Shape>
0.250

> <Color>
0.083

> <Negative vol penalty>
0.000

$$$$

  -OEChem-04052303333D

 86 97  0     1  0  0  0  0  0999 V2000
  -28.5655  -24.0050   28.0918 C   0  0  0  0  0  0  0  0  0  0  0  0
  -28.6967  -24.1611   26.7157 C   0  0  0  0  0  0  0  0  0  0  0  0
  -22.9592   -9.7917   21.4728 C   0  0  0  0  0  0  0  0  0  0  0  0
  -24.2665  -10.5763   23.3469 C   0  0  0  0  0  0  0  0  0  0  0  0
  -27.4132  -24.4531   28.7363 C   0  0  0  0  0  0  0  0  0  0  0  0
  -27.6751  -24.7644   25.9830 C   0  0  0  0  0  0  0  0  0  0  0  0
  -29.4176  -28.1468   22.6411 C   0  0  0  0  0  0  0  0  0  0  0  0
  -22.3310   -8.8612   22.3005 C   0  0  0  0  0  0  0  0  0  0  0  0
  -23.6382   -9.6459   24.1747 C   0  0  0  0  0  0  0  0  0  0  0  0
  -29.9630  -27.6503   21.4581 C   0  0  0  0  0  0  0  0  0  0  0  0
  -23.0426   -5.8423   23.6437 C   0  0  0  0  0  0  0  0  0  0  0  0
  -22.8997   -4.5408   23.1630 C   0  0  0  0  0  0  0  0  0  0  0  0
  -27.8968  -28.1323   20.3102 C   0  0  0  0  0  0  0  0  0  0  0  0
  -20.4993   -4.7312   23.3610 C   0  0  0  0  0  0  0  0  0  0  0  0
  -23.9270  -10.6492   21.9960 C   0  0  0  0  0  0  0  0  0  0  0  0
  -23.9667  -12.6468   20.4099 C   0  0  0  0  0  0  0  0  0  0  0  0
  -26.3811  -25.0709   28.0126 C   0  0  0  0  0  0  0  0  0  0  0  0
  -28.1017  -28.6306   22.6702 C   0  0  0  0  0  0  0  0  0  0  0  0
  -26.5073  -25.2199   26.6182 C   0  0  0  0  0  0  0  0  0  0  0  0
  -27.3379  -28.6368   21.4944 C   0  0  0  0  0  0  0  0  0  0  0  0
  -22.6705   -8.7883   23.6515 C   0  0  0  0  0  0  0  0  0  0  0  0
  -29.2017  -27.6402   20.2930 C   0  0  0  0  0  0  0  0  0  0  0  0
  -21.9139   -6.5884   23.9832 C   0  0  0  0  0  0  0  0  0  0  0  0
  -21.6281   -3.9852   23.0216 C   0  0  0  0  0  0  0  0  0  0  0  0
  -20.6423   -6.0328   23.8418 C   0  0  0  0  0  0  0  0  0  0  0  0
  -24.5768  -11.6102   21.1413 C   0  0  0  0  0  0  0  0  0  0  0  0
  -30.7354  -20.3592   18.5269 C   0  0  0  0  0  0  0  0  0  0  0  0
  -29.9365  -20.3226   19.6502 C   0  0  0  0  0  0  0  0  0  0  0  0
  -25.0069  -13.2706   19.7654 C   0  0  0  0  0  0  0  0  0  0  0  0
  -30.6983  -22.4950   18.9980 C   0  0  0  0  0  0  0  0  0  0  0  0
  -22.5834  -13.0132   20.3211 C   0  0  0  0  0  0  0  0  0  0  0  0
  -25.4428  -27.8080   24.2054 C   0  0  0  0  0  0  0  0  0  0  0  0
  -30.1769  -15.4021   19.8977 C   0  0  0  0  0  0  0  0  0  0  0  0
  -24.2774  -30.5035   22.8276 C   0  0  0  0  0  0  0  0  0  0  0  0
  -24.4849  -32.7882   20.3009 C   0  0  0  0  0  0  0  0  0  0  0  0
  -25.1339  -25.4963   28.7462 C   0  0  0  0  0  0  0  0  0  0  0  0
  -27.5372  -29.1876   23.9483 C   0  0  0  0  0  0  0  0  0  0  0  0
  -25.9271  -29.1637   21.4679 C   0  0  0  0  0  0  0  0  0  0  0  0
  -31.1176  -19.1294   17.7801 C   0  0  0  0  0  0  0  0  0  0  0  0
  -29.3391  -19.0884   20.2178 C   0  0  0  0  0  0  0  0  0  0  0  0
  -24.2596  -26.4629   27.9515 C   0  0  0  0  0  0  0  0  0  0  0  0
  -29.8361  -11.9035   19.2018 C   0  0  0  0  0  0  0  0  0  0  0  0
  -24.0835  -25.9690   26.5190 C   0  0  0  0  0  0  0  0  0  0  0  0
  -28.3971  -11.5943   19.6126 C   0  0  0  0  0  0  0  0  0  0  0  0
  -32.1514  -26.5495   19.3641 C   0  0  0  0  0  0  0  0  0  0  0  0
  -30.4629  -12.9553   20.1118 C   0  0  0  0  0  0  0  0  0  0  0  0
  -31.7630  -24.4272   17.8829 C   0  0  0  0  0  0  0  0  0  0  0  0
  -28.2395  -13.9174   20.6144 C   0  0  0  0  0  0  0  0  0  0  0  0
  -30.2379  -24.8016   19.7598 C   0  0  0  0  0  0  0  0  0  0  0  0
  -30.1767  -17.9579   18.1017 C   0  0  0  0  0  0  0  0  0  0  0  0
  -25.4317  -25.8917   25.7924 C   0  0  1  0  0  0  0  0  0  0  0  0
  -26.0119  -29.1803   23.9809 C   0  0  1  0  0  0  0  0  0  0  0  0
  -31.6327  -25.9024   18.1073 C   0  0  1  0  0  0  0  0  0  0  0  0
  -27.5589  -12.8819   19.7017 C   0  0  2  0  0  0  0  0  0  0  0  0
  -30.7130  -26.1264   19.2539 C   0  0  2  0  0  0  0  0  0  1  0  0
  -23.3719  -34.8577   19.4201 C   0  0  0  0  0  0  0  0  0  0  0  0
  -21.9935  -28.8045   21.7289 C   0  0  0  0  0  0  0  0  0  0  0  0
  -21.4763  -30.6593   20.1287 C   0  0  0  0  0  0  0  0  0  0  0  0
  -21.3041  -31.0504   22.5863 C   0  0  0  0  0  0  0  0  0  0  0  0
  -26.9491  -34.3939   20.6303 C   0  0  0  0  0  0  0  0  0  0  0  0
  -29.2517  -16.5890   19.9937 C   0  0  0  0  0  0  0  0  0  0  0  0
  -23.5873  -30.8254   21.5241 C   0  0  1  0  0  0  0  0  0  0  0  0
  -24.4732  -34.3062   20.3120 C   0  0  2  0  0  0  0  0  0  0  0  0
  -22.1162  -30.3231   21.4926 C   0  0  0  0  0  0  0  0  0  0  0  0
  -25.9018  -11.5741   20.9773 N   0  0  0  0  0  0  0  0  0  0  0  0
  -31.1800  -21.6086   18.1515 N   0  0  0  0  0  0  0  0  0  0  0  0
  -26.1329  -12.5958   20.1353 N   0  0  0  0  0  0  0  0  0  0  0  0
  -30.9329  -23.8137   18.9258 N   0  0  3  0  0  0  0  0  0  0  0  0
  -25.4177  -29.6919   22.7442 N   0  0  0  0  0  0  0  0  0  0  0  0
  -29.6256  -14.1538   20.1876 N   0  0  0  0  0  0  0  0  0  0  0  0
  -25.0590  -14.3250   18.9240 N   0  0  0  0  0  0  0  0  0  0  0  0
  -22.0782  -13.9434   21.2397 N   0  0  0  0  0  0  0  0  0  0  0  0
  -25.8599  -27.2112   25.3799 N   0  0  0  0  0  0  0  0  0  0  0  0
  -23.7317  -32.2641   21.3302 N   0  0  0  0  0  0  0  0  0  0  0  0
  -29.9886  -17.8407   19.6114 N   0  3  2  0  0  0  0  0  0  0  0  0
  -25.7792  -34.8378   19.8294 N   0  3  0  0  0  0  0  0  0  0  0  0
  -21.8140  -12.5177   19.4632 O   0  0  0  0  0  0  0  0  0  0  0  0
  -24.6804  -27.3269   23.3754 O   0  0  0  0  0  0  0  0  0  0  0  0
  -31.3534  -15.5806   19.5718 O   0  0  0  0  0  0  0  0  0  0  0  0
  -23.8257  -30.9614   23.8802 O   0  0  0  0  0  0  0  0  0  0  0  0
  -25.0976  -32.1329   19.4609 O   0  0  0  0  0  0  0  0  0  0  0  0
  -22.0574   -7.8807   24.4595 O   0  0  0  0  0  0  0  0  0  0  0  0
  -29.7314  -27.1555   19.1371 O   0  0  0  0  0  0  0  0  0  1  0  0
  -21.4909   -2.7359   22.5585 F   0  0  0  0  0  0  0  0  0  0  0  0
  -19.5542   -6.7451   24.1651 F   0  0  0  0  0  0  0  0  0  0  0  0
  -29.7081  -21.8881   20.2685 S   0  0  0  0  0  0  0  0  0  0  0  0
  1  2  1  0  0  0  0
  1  5  2  0  0  0  0
  2  6  2  0  0  0  0
  3  8  2  0  0  0  0
  3 15  1  0  0  0  0
  4  9  1  0  0  0  0
  4 15  2  0  0  0  0
  5 17  1  0  0  0  0
  6 19  1  0  0  0  0
  7 10  2  0  0  0  0
  7 18  1  0  0  0  0
  8 21  1  0  0  0  0
  9 21  2  0  0  0  0
 10 22  1  0  0  0  0
 11 12  2  0  0  0  0
 11 23  1  0  0  0  0
 12 24  1  0  0  0  0
 13 20  1  0  0  0  0
 13 22  2  0  0  0  0
 14 24  2  0  0  0  0
 14 25  1  0  0  0  0
 15 26  1  0  0  0  0
 16 26  1  0  0  0  0
 16 29  2  0  0  0  0
 16 31  1  0  0  0  0
 17 19  2  0  0  0  0
 17 36  1  0  0  0  0
 18 20  2  0  0  0  0
 18 37  1  0  0  0  0
 19 51  1  0  0  0  0
 20 38  1  0  0  0  0
 21 82  1  0  0  0  0
 22 83  1  0  0  0  0
 23 25  2  0  0  0  0
 23 82  1  0  0  0  0
 24 84  1  0  0  0  0
 25 85  1  0  0  0  0
 26 65  2  0  0  0  0
 27 28  2  0  0  0  0
 27 39  1  0  0  0  0
 27 66  1  0  0  0  0
 28 40  1  0  0  0  0
 28 86  1  0  0  0  0
 29 67  1  0  0  0  0
 29 71  1  0  0  0  0
 30 66  2  0  0  0  0
 30 68  1  0  0  0  0
 30 86  1  0  0  0  0
 31 72  1  0  0  0  0
 31 77  2  0  0  0  0
 32 52  1  0  0  0  0
 32 73  1  0  0  0  0
 32 78  2  0  0  0  0
 33 61  1  0  0  0  0
 33 70  1  0  0  0  0
 33 79  2  0  0  0  0
 34 62  1  0  0  0  0
 34 69  1  0  0  0  0
 34 80  2  0  0  0  0
 35 63  1  0  0  0  0
 35 74  1  0  0  0  0
 35 81  2  0  0  0  0
 36 41  1  0  0  0  0
 37 52  1  0  0  0  0
 38 69  1  0  0  0  0
 39 50  1  0  0  0  0
 40 75  1  0  0  0  0
 41 43  1  0  0  0  0
 42 44  1  0  0  0  0
 42 46  1  0  0  0  0
 43 51  1  0  0  0  0
 44 54  1  0  0  0  0
 45 53  1  0  0  0  0
 45 55  1  0  0  0  0
 46 70  1  0  0  0  0
 47 53  1  0  0  0  0
 47 68  1  0  0  0  0
 48 54  1  0  0  0  0
 48 70  1  0  0  0  0
 49 55  1  0  0  0  0
 49 68  1  0  0  0  0
 50 75  1  0  0  0  0
 51 73  1  0  0  0  0
 52 69  1  0  0  0  0
 53 55  1  0  0  0  0
 54 67  1  0  0  0  0
 55 83  1  0  0  0  0
 56 63  1  0  0  0  0
 57 64  1  0  0  0  0
 58 64  1  0  0  0  0
 59 64  1  0  0  0  0
 60 76  1  0  0  0  0
 61 75  1  0  0  0  0
 62 64  1  0  0  0  0
 62 74  1  0  0  0  0
 63 76  1  0  0  0  0
 65 67  1  0  0  0  0
M  CHG  2  75   1  76   1
M  ISO  4  33 100  55 101  61 100  83 101
M  END
> <Batch ID>
0154

> <Smiles>
CNC(C)C(=O)NC(C(=O)N1Cc2cc([101O:1][101C:1]34CC3CN(c3nc5c(s3)CN([100CH2:0][100C:0](=O)N3CCCC(n6nc(-c7ccc(Oc8ccc(F)cc8F)cc7)c(C(N)=O)c6N)C3)CC5)C4)ccc2CC1C(=O)NC1CCCc2ccccc21)C(C)(C)C

> <Shape>
0.289

> <Color>
0.080

> <Negative vol penalty>
0.000

$$$$

  -OEChem-04052303333D

 79 87  0     1  0  0  0  0  0999 V2000
  -18.4758  -32.9700   20.9586 C   0  0  0  0  0  0  0  0  0  0  0  0
  -19.8099  -32.8372   20.5873 C   0  0  0  0  0  0  0  0  0  0  0  0
  -25.6136  -15.5867   20.5753 C   0  0  0  0  0  0  0  0  0  0  0  0
  -27.7789  -15.0179   19.6672 C   0  0  0  0  0  0  0  0  0  0  0  0
  -17.9862  -32.2667   22.0584 C   0  0  0  0  0  0  0  0  0  0  0  0
  -20.6555  -32.0018   21.3163 C   0  0  0  0  0  0  0  0  0  0  0  0
  -25.2714  -28.6219   19.1309 C   0  0  0  0  0  0  0  0  0  0  0  0
  -25.3316  -14.2321   20.7515 C   0  0  0  0  0  0  0  0  0  0  0  0
  -27.4970  -13.6632   19.8434 C   0  0  0  0  0  0  0  0  0  0  0  0
  -26.6490  -28.8318   19.0875 C   0  0  0  0  0  0  0  0  0  0  0  0
  -24.3437  -11.6248   18.8408 C   0  0  0  0  0  0  0  0  0  0  0  0
  -23.0853  -11.1691   18.4481 C   0  0  0  0  0  0  0  0  0  0  0  0
  -29.7291  -26.1529   16.4713 C   0  0  0  0  0  0  0  0  0  0  0  0
  -29.4058  -27.0947   17.4905 C   0  0  0  0  0  0  0  0  0  0  0  0
  -26.9031  -27.5425   21.1105 C   0  0  0  0  0  0  0  0  0  0  0  0
  -22.6379  -10.4533   20.7118 C   0  0  0  0  0  0  0  0  0  0  0  0
  -26.8372  -15.9796   20.0331 C   0  0  0  0  0  0  0  0  0  0  0  0
  -27.7438  -18.2465   20.7726 C   0  0  0  0  0  0  0  0  0  0  0  0
  -18.8238  -31.4148   22.7955 C   0  0  0  0  0  0  0  0  0  0  0  0
  -24.6971  -27.8787   20.1722 C   0  0  0  0  0  0  0  0  0  0  0  0
  -20.1770  -31.2875   22.4279 C   0  0  0  0  0  0  0  0  0  0  0  0
  -25.5182  -27.3225   21.1634 C   0  0  0  0  0  0  0  0  0  0  0  0
  -26.2733  -13.2703   20.3856 C   0  0  0  0  0  0  0  0  0  0  0  0
  -27.4648  -28.2945   20.0790 C   0  0  0  0  0  0  0  0  0  0  0  0
  -24.7493  -11.4947   20.1691 C   0  0  0  0  0  0  0  0  0  0  0  0
  -22.2324  -10.5834   19.3835 C   0  0  0  0  0  0  0  0  0  0  0  0
  -23.8964  -10.9090   21.1046 C   0  0  0  0  0  0  0  0  0  0  0  0
  -27.1288  -17.3788   19.8503 C   0  0  0  0  0  0  0  0  0  0  0  0
  -30.3083  -25.0134   16.9847 C   0  0  0  0  0  0  0  0  0  0  0  0
  -27.7915  -19.4572   20.1257 C   0  0  0  0  0  0  0  0  0  0  0  0
  -29.7501  -26.6390   18.7441 C   0  0  0  0  0  0  0  0  0  0  0  0
  -28.2287  -17.9819   22.0956 C   0  0  0  0  0  0  0  0  0  0  0  0
  -22.6007  -28.4990   22.4796 C   0  0  0  0  0  0  0  0  0  0  0  0
  -22.8538  -25.3124   23.0312 C   0  0  0  0  0  0  0  0  0  0  0  0
  -24.7077  -22.4612   22.7474 C   0  0  0  0  0  0  0  0  0  0  0  0
  -28.8002  -22.4968   15.5553 C   0  0  0  0  0  0  0  0  0  0  0  0
  -18.2609  -30.7117   24.0052 C   0  0  0  0  0  0  0  0  0  0  0  0
  -23.2124  -27.6388   20.1900 C   0  0  0  0  0  0  0  0  0  0  0  0
  -24.9533  -26.4999   22.2916 C   0  0  0  0  0  0  0  0  0  0  0  0
  -19.1302  -29.5579   24.4985 C   0  0  0  0  0  0  0  0  0  0  0  0
  -25.5876  -20.9881   15.8378 C   0  0  0  0  0  0  0  0  0  0  0  0
  -20.5937  -29.9829   24.5657 C   0  0  0  0  0  0  0  0  0  0  0  0
  -25.7549  -19.9823   16.9782 C   0  0  0  0  0  0  0  0  0  0  0  0
  -26.8479  -21.0843   14.9808 C   0  0  0  0  0  0  0  0  0  0  0  0
  -28.2538  -20.3597   16.8709 C   0  0  0  0  0  0  0  0  0  0  0  0
  -21.1194  -30.3719   23.1786 C   0  0  1  0  0  0  0  0  0  0  0  0
  -22.6786  -27.2993   21.5782 C   0  0  1  0  0  0  0  0  0  0  0  0
  -27.0284  -20.2689   17.7963 C   0  0  2  0  0  0  0  0  0  0  0  0
  -25.2552  -20.0162   22.8874 C   0  0  0  0  0  0  0  0  0  0  0  0
  -23.4933  -25.9930   25.9360 C   0  0  0  0  0  0  0  0  0  0  0  0
  -24.3585  -23.6607   26.2191 C   0  0  0  0  0  0  0  0  0  0  0  0
  -21.9628  -24.0382   25.6352 C   0  0  0  0  0  0  0  0  0  0  0  0
  -30.4628  -27.1242   21.0898 C   0  0  0  0  0  0  0  0  0  0  0  0
  -23.5996  -21.9402   20.0530 C   0  0  0  0  0  0  0  0  0  0  0  0
  -30.7818  -23.8146   16.2595 C   0  0  0  0  0  0  0  0  0  0  0  0
  -23.7433  -24.4429   23.8865 C   0  0  1  0  0  0  0  0  0  0  0  0
  -24.3439  -21.0664   22.2714 C   0  0  2  0  0  0  0  0  0  0  0  0
  -23.4002  -24.5508   25.3992 C   0  0  0  0  0  0  0  0  0  0  0  0
  -26.8086  -17.9866   18.7048 N   0  0  0  0  0  0  0  0  0  0  0  0
  -27.2240  -19.2492   18.9031 N   0  0  0  0  0  0  0  0  0  0  0  0
  -23.4951  -26.2988   22.2686 N   0  0  0  0  0  0  0  0  0  0  0  0
  -28.0191  -21.3590   15.8168 N   0  0  0  0  0  0  0  0  0  0  0  0
  -28.2630  -20.6688   20.4892 N   0  0  0  0  0  0  0  0  0  0  0  0
  -28.1010  -16.6831   22.6066 N   0  0  0  0  0  0  0  0  0  0  0  0
  -21.4060  -29.1884   22.3966 N   0  0  0  0  0  0  0  0  0  0  0  0
  -23.6371  -23.0925   23.3446 N   0  0  0  0  0  0  0  0  0  0  0  0
  -29.8882  -22.6863   16.3985 N   0  0  0  0  0  0  0  0  0  0  0  0
  -29.5678  -27.3194   19.9590 N   0  0  1  0  0  0  0  0  0  1  0  0
  -24.4605  -20.9783   20.7883 N   0  3  0  0  0  0  0  0  0  0  0  0
  -28.7446  -18.8747   22.8100 O   0  0  0  0  0  0  0  0  0  0  0  0
  -23.5534  -28.7776   23.1982 O   0  0  0  0  0  0  0  0  0  0  0  0
  -21.6355  -25.1188   23.0341 O   0  0  0  0  0  0  0  0  0  0  0  0
  -25.8303  -22.9413   22.6070 O   0  0  0  0  0  0  0  0  0  0  0  0
  -28.5437  -23.2882   14.6416 O   0  0  0  0  0  0  0  0  0  0  0  0
  -25.9987  -11.9484   20.5577 O   0  0  0  0  0  0  0  0  0  0  0  0
  -28.8097  -28.4984   20.0394 O   0  0  0  0  0  0  0  0  0  1  0  0
  -21.0233  -10.1472   19.0065 F   0  0  0  0  0  0  0  0  0  0  0  0
  -24.2800  -10.7824   22.3823 F   0  0  0  0  0  0  0  0  0  0  0  0
  -30.4604  -25.0818   18.6890 S   0  0  0  0  0  0  0  0  0  0  0  0
  1  2  1  0  0  0  0
  1  5  2  0  0  0  0
  2  6  2  0  0  0  0
  3  8  2  0  0  0  0
  3 17  1  0  0  0  0
  4  9  1  0  0  0  0
  4 17  2  0  0  0  0
  5 19  1  0  0  0  0
  6 21  1  0  0  0  0
  7 10  2  0  0  0  0
  7 20  1  0  0  0  0
  8 23  1  0  0  0  0
  9 23  2  0  0  0  0
 10 24  1  0  0  0  0
 11 12  2  0  0  0  0
 11 25  1  0  0  0  0
 12 26  1  0  0  0  0
 13 14  1  0  0  0  0
 13 29  2  0  0  0  0
 14 31  2  0  0  0  0
 15 22  1  0  0  0  0
 15 24  2  0  0  0  0
 16 26  2  0  0  0  0
 16 27  1  0  0  0  0
 17 28  1  0  0  0  0
 18 28  1  0  0  0  0
 18 30  2  0  0  0  0
 18 32  1  0  0  0  0
 19 21  2  0  0  0  0
 19 37  1  0  0  0  0
 20 22  2  0  0  0  0
 20 38  1  0  0  0  0
 21 46  1  0  0  0  0
 22 39  1  0  0  0  0
 23 75  1  0  0  0  0
 24 76  1  0  0  0  0
 25 27  2  0  0  0  0
 25 75  1  0  0  0  0
 26 77  1  0  0  0  0
 27 78  1  0  0  0  0
 28 59  2  0  0  0  0
 29 55  1  0  0  0  0
 29 79  1  0  0  0  0
 30 60  1  0  0  0  0
 30 63  1  0  0  0  0
 31 68  1  0  0  0  0
 31 79  1  0  0  0  0
 32 64  1  0  0  0  0
 32 70  2  0  0  0  0
 33 47  1  0  0  0  0
 33 65  1  0  0  0  0
 33 71  2  0  0  0  0
 34 56  1  0  0  0  0
 34 61  1  0  0  0  0
 34 72  2  0  0  0  0
 35 57  1  0  0  0  0
 35 66  1  0  0  0  0
 35 73  2  0  0  0  0
 36 62  1  0  0  0  0
 36 67  1  0  0  0  0
 36 74  2  0  0  0  0
 37 40  1  0  0  0  0
 38 47  1  0  0  0  0
 39 61  1  0  0  0  0
 40 42  1  0  0  0  0
 41 43  1  0  0  0  0
 41 44  1  0  0  0  0
 42 46  1  0  0  0  0
 43 48  1  0  0  0  0
 44 62  1  0  0  0  0
 45 48  1  0  0  0  0
 45 62  1  0  0  0  0
 46 65  1  0  0  0  0
 47 61  1  0  0  0  0
 48 60  1  0  0  0  0
 49 57  1  0  0  0  0
 50 58  1  0  0  0  0
 51 58  1  0  0  0  0
 52 58  1  0  0  0  0
 53 68  1  0  0  0  0
 54 69  1  0  0  0  0
 55 67  1  0  0  0  0
 56 58  1  0  0  0  0
 56 66  1  0  0  0  0
 57 69  1  0  0  0  0
 59 60  1  0  0  0  0
 68 76  1  0  0  0  0
M  CHG  1  69   1
M  ISO  4  36 100  67 100  68 101  76 101
M  END
> <Batch ID>
0154

> <Smiles>
CNC(C)C(=O)NC(C(=O)N1Cc2cc([101O:1][101N:1](C)c3ccc(C[100NH:0][100C:0](=O)N4CCCC(n5nc(-c6ccc(Oc7ccc(F)cc7F)cc6)c(C(N)=O)c5N)C4)s3)ccc2CC1C(=O)NC1CCCc2ccccc21)C(C)(C)C

> <Shape>
0.201

> <Color>
0.083

> <Negative vol penalty>
0.000

$$$$

  -OEChem-04052303333D

 82 90  0     1  0  0  0  0  0999 V2000
  -31.2379  -34.6284   21.5694 C   0  0  0  0  0  0  0  0  0  0  0  0
  -30.7906  -33.3910   22.0213 C   0  0  0  0  0  0  0  0  0  0  0  0
  -23.3872   -9.5530   19.9894 C   0  0  0  0  0  0  0  0  0  0  0  0
  -23.9176   -9.8410   22.3288 C   0  0  0  0  0  0  0  0  0  0  0  0
  -30.3466  -35.6957   21.4670 C   0  0  0  0  0  0  0  0  0  0  0  0
  -29.4519  -33.2205   22.3723 C   0  0  0  0  0  0  0  0  0  0  0  0
  -27.4926  -28.9285   20.5325 C   0  0  0  0  0  0  0  0  0  0  0  0
  -22.7756   -8.3331   20.2782 C   0  0  0  0  0  0  0  0  0  0  0  0
  -23.3060   -8.6212   22.6176 C   0  0  0  0  0  0  0  0  0  0  0  0
  -27.8106  -27.7462   21.1995 C   0  0  0  0  0  0  0  0  0  0  0  0
  -20.1628   -7.4449   23.0148 C   0  0  0  0  0  0  0  0  0  0  0  0
  -19.3088   -7.3946   24.1165 C   0  0  0  0  0  0  0  0  0  0  0  0
  -25.6732  -27.8085   22.3162 C   0  0  0  0  0  0  0  0  0  0  0  0
  -29.8082  -20.0079   20.9324 C   0  0  0  0  0  0  0  0  0  0  0  0
  -20.7106   -5.7055   25.1261 C   0  0  0  0  0  0  0  0  0  0  0  0
  -23.9583  -10.3070   21.0147 C   0  0  0  0  0  0  0  0  0  0  0  0
  -23.9860  -12.8380   20.6977 C   0  0  0  0  0  0  0  0  0  0  0  0
  -28.9942  -35.5355   21.8078 C   0  0  0  0  0  0  0  0  0  0  0  0
  -26.2650  -29.5666   20.7610 C   0  0  0  0  0  0  0  0  0  0  0  0
  -28.5420  -34.2870   22.2757 C   0  0  0  0  0  0  0  0  0  0  0  0
  -25.3410  -28.9974   21.6490 C   0  0  0  0  0  0  0  0  0  0  0  0
  -30.1697  -18.6463   20.7191 C   0  0  0  0  0  0  0  0  0  0  0  0
  -22.7349   -7.8672   21.5923 C   0  0  0  0  0  0  0  0  0  0  0  0
  -26.9020  -27.1875   22.0937 C   0  0  0  0  0  0  0  0  0  0  0  0
  -21.2907   -6.6254   22.9687 C   0  0  0  0  0  0  0  0  0  0  0  0
  -19.5827   -6.5250   25.1721 C   0  0  0  0  0  0  0  0  0  0  0  0
  -21.5645   -5.7558   24.0243 C   0  0  0  0  0  0  0  0  0  0  0  0
  -24.5907  -11.5669   20.7169 C   0  0  0  0  0  0  0  0  0  0  0  0
  -25.0036  -13.6973   20.3620 C   0  0  0  0  0  0  0  0  0  0  0  0
  -28.7805  -20.1342   21.8410 C   0  0  0  0  0  0  0  0  0  0  0  0
  -29.4046  -17.7837   21.4731 C   0  0  0  0  0  0  0  0  0  0  0  0
  -22.6261  -13.2090   20.9599 C   0  0  0  0  0  0  0  0  0  0  0  0
  -25.3879  -32.3970   21.9113 C   0  0  0  0  0  0  0  0  0  0  0  0
  -27.7525  -23.6885   22.4673 C   0  0  0  0  0  0  0  0  0  0  0  0
  -22.4278  -31.3989   21.0373 C   0  0  0  0  0  0  0  0  0  0  0  0
  -20.3299  -28.7920   20.3668 C   0  0  0  0  0  0  0  0  0  0  0  0
  -30.2507  -15.4804   20.9028 C   0  0  0  0  0  0  0  0  0  0  0  0
  -28.0784  -36.7311   21.7256 C   0  0  0  0  0  0  0  0  0  0  0  0
  -25.9261  -30.8270   20.0135 C   0  0  0  0  0  0  0  0  0  0  0  0
  -24.0012  -29.6323   21.9141 C   0  0  0  0  0  0  0  0  0  0  0  0
  -26.5965  -36.3667   21.7612 C   0  0  0  0  0  0  0  0  0  0  0  0
  -29.6834  -12.7614   18.6752 C   0  0  0  0  0  0  0  0  0  0  0  0
  -26.3206  -35.3609   22.8744 C   0  0  0  0  0  0  0  0  0  0  0  0
  -28.2582  -12.3128   19.0062 C   0  0  0  0  0  0  0  0  0  0  0  0
  -30.4431  -13.2043   19.9243 C   0  0  0  0  0  0  0  0  0  0  0  0
  -28.3365  -13.7705   21.0692 C   0  0  0  0  0  0  0  0  0  0  0  0
  -27.0920  -34.0560   22.6424 C   0  0  1  0  0  0  0  0  0  0  0  0
  -24.8590  -31.6661   20.7098 C   0  0  1  0  0  0  0  0  0  0  0  0
  -27.5105  -13.3766   19.8338 C   0  0  2  0  0  0  0  0  0  0  0  0
  -17.9593  -28.2884   19.7157 C   0  0  0  0  0  0  0  0  0  0  0  0
  -21.5194  -32.0028   23.8869 C   0  0  0  0  0  0  0  0  0  0  0  0
  -19.4749  -30.6244   23.4530 C   0  0  0  0  0  0  0  0  0  0  0  0
  -19.8977  -32.6829   22.1088 C   0  0  0  0  0  0  0  0  0  0  0  0
  -21.1773  -27.4715   17.8573 C   0  0  0  0  0  0  0  0  0  0  0  0
  -28.5977  -22.6224   21.8033 C   0  0  0  0  0  0  0  0  0  0  0  0
  -28.0727  -25.1175   22.0739 C   0  0  0  0  0  0  0  0  0  1  0  0
  -21.3172  -30.6291   21.7102 C   0  0  1  0  0  0  0  0  0  0  0  0
  -19.3733  -28.5393   19.2154 C   0  0  2  0  0  0  0  0  0  0  0  0
  -20.5782  -31.4736   22.7864 C   0  0  0  0  0  0  0  0  0  0  0  0
  -25.8916  -11.6101   20.4171 N   0  0  0  0  0  0  0  0  0  0  0  0
  -26.1127  -12.9188   20.2063 N   0  0  0  0  0  0  0  0  0  0  0  0
  -23.7189  -30.8671   21.1637 N   0  0  0  0  0  0  0  0  0  0  0  0
  -29.6764  -14.2156   20.6554 N   0  0  0  0  0  0  0  0  0  0  0  0
  -31.1514  -18.2541   19.8730 N   0  0  0  0  0  0  0  0  0  0  0  0
  -25.0490  -15.0352   20.1878 N   0  0  0  0  0  0  0  0  0  0  0  0
  -21.7105  -12.2008   21.2908 N   0  0  0  0  0  0  0  0  0  0  0  0
  -29.4158  -16.3707   21.5774 N   0  0  0  0  0  0  0  0  0  0  0  0
  -28.1969  -21.3188   22.2670 N   0  0  0  0  0  0  0  0  0  0  0  0
  -26.4357  -33.2536   21.6325 N   0  0  0  0  0  0  0  0  0  0  0  0
  -20.4551  -30.1375   20.6408 N   0  0  0  0  0  0  0  0  0  0  0  0
  -19.8114  -27.3515   18.4292 N   0  3  0  0  0  0  0  0  0  0  0  0
  -22.2309  -14.3972   20.8863 O   0  0  0  0  0  0  0  0  0  0  0  0
  -24.8818  -32.1996   23.0098 O   0  0  0  0  0  0  0  0  0  0  0  0
  -26.8622  -23.4247   23.2745 O   0  0  0  0  0  0  0  0  0  0  0  0
  -22.1587  -32.4301   20.4163 O   0  0  0  0  0  0  0  0  0  0  0  0
  -20.9054  -27.8861   20.9657 O   0  0  0  0  0  0  0  0  0  0  0  0
  -31.3886  -15.7628   20.5189 O   0  0  0  0  0  0  0  0  0  0  0  0
  -22.1380   -6.6770   21.8746 O   0  0  0  0  0  0  0  0  0  0  0  0
  -27.2101  -26.0340   22.7465 O   0  0  0  0  0  0  0  0  0  1  0  0
  -18.7633   -6.4780   26.2307 F   0  0  0  0  0  0  0  0  0  0  0  0
  -22.6472   -4.9669   23.9862 F   0  0  0  0  0  0  0  0  0  0  0  0
  -28.2559  -18.6154   22.4328 S   0  0  0  0  0  0  0  0  0  0  0  0
  1  2  1  0  0  0  0
  1  5  2  0  0  0  0
  2  6  2  0  0  0  0
  3  8  2  0  0  0  0
  3 16  1  0  0  0  0
  4  9  1  0  0  0  0
  4 16  2  0  0  0  0
  5 18  1  0  0  0  0
  6 20  1  0  0  0  0
  7 10  2  0  0  0  0
  7 19  1  0  0  0  0
  8 23  1  0  0  0  0
  9 23  2  0  0  0  0
 10 24  1  0  0  0  0
 11 12  2  0  0  0  0
 11 25  1  0  0  0  0
 12 26  1  0  0  0  0
 13 21  1  0  0  0  0
 13 24  2  0  0  0  0
 14 22  1  0  0  0  0
 14 30  2  0  0  0  0
 15 26  2  0  0  0  0
 15 27  1  0  0  0  0
 16 28  1  0  0  0  0
 17 28  1  0  0  0  0
 17 29  2  0  0  0  0
 17 32  1  0  0  0  0
 18 20  2  0  0  0  0
 18 38  1  0  0  0  0
 19 21  2  0  0  0  0
 19 39  1  0  0  0  0
 20 47  1  0  0  0  0
 21 40  1  0  0  0  0
 22 31  2  0  0  0  0
 22 64  1  0  0  0  0
 23 78  1  0  0  0  0
 24 79  1  0  0  0  0
 25 27  2  0  0  0  0
 25 78  1  0  0  0  0
 26 80  1  0  0  0  0
 27 81  1  0  0  0  0
 28 60  2  0  0  0  0
 29 61  1  0  0  0  0
 29 65  1  0  0  0  0
 30 68  1  0  0  0  0
 30 82  1  0  0  0  0
 31 67  1  0  0  0  0
 31 82  1  0  0  0  0
 32 66  1  0  0  0  0
 32 72  2  0  0  0  0
 33 48  1  0  0  0  0
 33 69  1  0  0  0  0
 33 73  2  0  0  0  0
 34 55  1  0  0  0  0
 34 56  1  0  0  0  0
 34 74  2  0  0  0  0
 35 57  1  0  0  0  0
 35 62  1  0  0  0  0
 35 75  2  0  0  0  0
 36 58  1  0  0  0  0
 36 70  1  0  0  0  0
 36 76  2  0  0  0  0
 37 63  1  0  0  0  0
 37 67  1  0  0  0  0
 37 77  2  0  0  0  0
 38 41  1  0  0  0  0
 39 48  1  0  0  0  0
 40 62  1  0  0  0  0
 41 43  1  0  0  0  0
 42 44  1  0  0  0  0
 42 45  1  0  0  0  0
 43 47  1  0  0  0  0
 44 49  1  0  0  0  0
 45 63  1  0  0  0  0
 46 49  1  0  0  0  0
 46 63  1  0  0  0  0
 47 69  1  0  0  0  0
 48 62  1  0  0  0  0
 49 61  1  0  0  0  0
 50 58  1  0  0  0  0
 51 59  1  0  0  0  0
 52 59  1  0  0  0  0
 53 59  1  0  0  0  0
 54 71  1  0  0  0  0
 55 68  1  0  0  0  0
 56 79  1  0  0  0  0
 57 59  1  0  0  0  0
 57 70  1  0  0  0  0
 58 71  1  0  0  0  0
 60 61  1  0  0  0  0
M  CHG  1  71   1
M  ISO  4  37 100  56 101  67 100  79 101
M  END
> <Batch ID>
0154

> <Smiles>
CNC(C)C(=O)NC(C(=O)N1Cc2cc([101O:1][101CH2:1]C(=O)CNc3cc(N)c([100NH:0][100C:0](=O)N4CCCC(n5nc(-c6ccc(Oc7ccc(F)cc7F)cc6)c(C(N)=O)c5N)C4)s3)ccc2CC1C(=O)NC1CCCc2ccccc21)C(C)(C)C

> <Shape>
0.300

> <Color>
0.180

> <Negative vol penalty>
0.000

$$$$

  -OEChem-04052303333D

 86 95  0     1  0  0  0  0  0999 V2000
  -31.4423  -31.7231   29.0977 C   0  0  0  0  0  0  0  0  0  0  0  0
  -31.4027  -30.6192   28.2519 C   0  0  0  0  0  0  0  0  0  0  0  0
  -32.6520  -17.4906   23.4554 C   0  0  0  0  0  0  0  0  0  0  0  0
  -23.0754   -9.8681   19.9408 C   0  0  0  0  0  0  0  0  0  0  0  0
  -23.8347   -9.8751   22.2344 C   0  0  0  0  0  0  0  0  0  0  0  0
  -31.8544  -18.3576   24.2023 C   0  0  0  0  0  0  0  0  0  0  0  0
  -31.8972  -31.5801   30.4078 C   0  0  0  0  0  0  0  0  0  0  0  0
  -31.8190  -29.3718   28.7157 C   0  0  0  0  0  0  0  0  0  0  0  0
  -28.6514  -25.6499   27.3895 C   0  0  0  0  0  0  0  0  0  0  0  0
  -32.0639  -16.6068   22.5506 C   0  0  0  0  0  0  0  0  0  0  0  0
  -22.3311   -8.7153   20.1907 C   0  0  0  0  0  0  0  0  0  0  0  0
  -23.0903   -8.7222   22.4843 C   0  0  0  0  0  0  0  0  0  0  0  0
  -28.7324  -25.1816   26.0788 C   0  0  0  0  0  0  0  0  0  0  0  0
  -19.8618   -7.9255   23.0860 C   0  0  0  0  0  0  0  0  0  0  0  0
  -19.1045   -7.8859   24.2567 C   0  0  0  0  0  0  0  0  0  0  0  0
  -29.8804  -17.4567   23.1398 C   0  0  0  0  0  0  0  0  0  0  0  0
  -30.0367  -23.2997   26.8381 C   0  0  0  0  0  0  0  0  0  0  0  0
  -20.3451   -5.9481   24.9937 C   0  0  0  0  0  0  0  0  0  0  0  0
  -23.8272  -10.4481   20.9626 C   0  0  0  0  0  0  0  0  0  0  0  0
  -30.4686  -18.3406   24.0445 C   0  0  0  0  0  0  0  0  0  0  0  0
  -24.1698  -12.9731   20.8424 C   0  0  0  0  0  0  0  0  0  0  0  0
  -32.3102  -30.3284   30.8908 C   0  0  0  0  0  0  0  0  0  0  0  0
  -29.2728  -24.9512   28.4346 C   0  0  0  0  0  0  0  0  0  0  0  0
  -32.2812  -29.2122   30.0331 C   0  0  0  0  0  0  0  0  0  0  0  0
  -29.9600  -23.7598   28.1615 C   0  0  0  0  0  0  0  0  0  0  0  0
  -30.6780  -16.5898   22.3929 C   0  0  0  0  0  0  0  0  0  0  0  0
  -22.3385   -8.1423   21.4624 C   0  0  0  0  0  0  0  0  0  0  0  0
  -29.4276  -24.0079   25.8025 C   0  0  0  0  0  0  0  0  0  0  0  0
  -20.8607   -6.9763   22.8691 C   0  0  0  0  0  0  0  0  0  0  0  0
  -19.3462   -6.8973   25.2105 C   0  0  0  0  0  0  0  0  0  0  0  0
  -21.1024   -5.9877   23.8229 C   0  0  0  0  0  0  0  0  0  0  0  0
  -24.5967  -11.6387   20.7050 C   0  0  0  0  0  0  0  0  0  0  0  0
  -25.2623  -13.7222   20.4794 C   0  0  0  0  0  0  0  0  0  0  0  0
  -28.5327  -21.4547   24.9944 C   0  0  0  0  0  0  0  0  0  0  0  0
  -29.6250  -19.2566   24.8328 C   0  0  0  0  0  0  0  0  0  0  0  0
  -22.8994  -13.4894   21.2609 C   0  0  0  0  0  0  0  0  0  0  0  0
  -31.5777  -25.6175   30.5195 C   0  0  0  0  0  0  0  0  0  0  0  0
  -30.7529  -22.7362   31.7604 C   0  0  0  0  0  0  0  0  0  0  0  0
  -29.3473  -19.6654   31.2693 C   0  0  0  0  0  0  0  0  0  0  0  0
  -30.7288  -14.7662   20.6555 C   0  0  0  0  0  0  0  0  0  0  0  0
  -32.8387  -30.2324   32.3001 C   0  0  0  0  0  0  0  0  0  0  0  0
  -29.1535  -25.4552   29.8468 C   0  0  0  0  0  0  0  0  0  0  0  0
  -30.6273  -22.9618   29.2507 C   0  0  0  0  0  0  0  0  0  0  0  0
  -32.9088  -28.8019   32.8282 C   0  0  0  0  0  0  0  0  0  0  0  0
  -29.6143  -12.3525   18.2872 C   0  0  0  0  0  0  0  0  0  0  0  0
  -33.5400  -27.8798   31.7898 C   0  0  0  0  0  0  0  0  0  0  0  0
  -28.1744  -12.0614   18.7164 C   0  0  0  0  0  0  0  0  0  0  0  0
  -28.8678  -22.0671   22.7291 C   0  0  0  0  0  0  0  0  0  0  0  0
  -30.5291  -12.5812   19.4890 C   0  0  0  0  0  0  0  0  0  0  0  0
  -29.8344  -20.9286   23.0499 C   0  0  0  0  0  0  0  0  0  0  0  0
  -28.6220  -13.3063   20.8697 C   0  0  0  0  0  0  0  0  0  0  0  0
  -32.7010  -27.8376   30.5069 C   0  0  1  0  0  0  0  0  0  0  0  0
  -30.2596  -24.9380   30.7613 C   0  0  1  0  0  0  0  0  0  0  0  0
  -27.6495  -13.1332   19.6916 C   0  0  2  0  0  0  0  0  0  0  0  0
  -28.4898  -22.6647   24.0902 C   0  0  1  0  0  0  0  0  0  1  0  0
  -27.1430  -23.3627   24.0819 C   0  0  0  0  0  0  0  0  0  0  0  0
  -28.8515  -17.5127   32.4598 C   0  0  0  0  0  0  0  0  0  0  0  0
  -33.6905  -21.9410   31.5410 C   0  0  0  0  0  0  0  0  0  0  0  0
  -32.9932  -19.5532   31.8245 C   0  0  0  0  0  0  0  0  0  0  0  0
  -32.5639  -21.2009   33.6475 C   0  0  0  0  0  0  0  0  0  0  0  0
  -26.4327  -19.9749   30.8588 C   0  0  0  0  0  0  0  0  0  0  0  0
  -31.1872  -21.3089   31.5297 C   0  0  1  0  0  0  0  0  0  0  0  0
  -28.3234  -18.8858   32.0745 C   0  0  2  0  0  0  0  0  0  0  0  0
  -32.5979  -21.0169   32.1147 C   0  0  0  0  0  0  0  0  0  0  0  0
  -25.8617  -11.5425   20.2871 N   0  0  0  0  0  0  0  0  0  0  0  0
  -26.2390  -12.8259   20.1587 N   0  0  0  0  0  0  0  0  0  0  0  0
  -29.3383  -20.4524   24.3499 N   0  0  0  0  0  0  0  0  0  0  0  0
  -30.4878  -23.4990   30.6143 N   0  0  0  0  0  0  0  0  0  0  0  0
  -29.9702  -13.6123   20.3662 N   0  0  0  0  0  0  0  0  0  0  0  0
  -25.4731  -15.0536   20.4063 N   0  0  0  0  0  0  0  0  0  0  0  0
  -21.8871  -12.5805   21.5980 N   0  0  0  0  0  0  0  0  0  0  0  0
  -30.0814  -15.6916   21.4736 N   0  0  0  0  0  0  0  0  0  0  0  0
  -31.5431  -26.9886   30.6880 N   0  0  0  0  0  0  0  0  0  0  0  0
  -30.1281  -20.4667   32.0751 N   0  0  0  0  0  0  0  0  0  0  0  0
  -29.1642  -18.8644   26.0169 N   0  3  0  0  0  0  0  0  0  0  0  0
  -27.0729  -18.7037   31.2846 N   0  3  0  0  0  0  0  0  0  0  0  0
  -28.0320  -21.3111   26.0953 O   0  0  0  0  0  0  0  0  0  0  0  0
  -22.6635  -14.7201   21.3181 O   0  0  0  0  0  0  0  0  0  0  0  0
  -32.5543  -24.9474   30.2050 O   0  0  0  0  0  0  0  0  0  0  0  0
  -30.6456  -23.1565   32.9152 O   0  0  0  0  0  0  0  0  0  0  0  0
  -29.4471  -19.5700   30.0480 O   0  0  0  0  0  0  0  0  0  0  0  0
  -31.8580  -14.9346   20.1882 O   0  0  0  0  0  0  0  0  0  0  0  0
  -21.6122   -7.0174   21.7067 O   0  0  0  0  0  0  0  0  0  0  0  0
  -29.5087  -23.5490   24.5240 O   0  0  0  0  0  0  0  0  0  1  0  0
  -18.6199   -6.8603   26.3354 F   0  0  0  0  0  0  0  0  0  0  0  0
  -22.0615   -5.0739   23.6207 F   0  0  0  0  0  0  0  0  0  0  0  0
  1  2  1  0  0  0  0
  1  7  2  0  0  0  0
  2  8  2  0  0  0  0
  3  6  2  0  0  0  0
  3 10  1  0  0  0  0
  4 11  2  0  0  0  0
  4 19  1  0  0  0  0
  5 12  1  0  0  0  0
  5 19  2  0  0  0  0
  6 20  1  0  0  0  0
  7 22  1  0  0  0  0
  8 24  1  0  0  0  0
  9 13  2  0  0  0  0
  9 23  1  0  0  0  0
 10 26  2  0  0  0  0
 11 27  1  0  0  0  0
 12 27  2  0  0  0  0
 13 28  1  0  0  0  0
 14 15  2  0  0  0  0
 14 29  1  0  0  0  0
 15 30  1  0  0  0  0
 16 20  2  0  0  0  0
 16 26  1  0  0  0  0
 17 25  1  0  0  0  0
 17 28  2  0  0  0  0
 18 30  2  0  0  0  0
 18 31  1  0  0  0  0
 19 32  1  0  0  0  0
 20 35  1  0  0  0  0
 21 32  1  0  0  0  0
 21 33  2  0  0  0  0
 21 36  1  0  0  0  0
 22 24  2  0  0  0  0
 22 41  1  0  0  0  0
 23 25  2  0  0  0  0
 23 42  1  0  0  0  0
 24 52  1  0  0  0  0
 25 43  1  0  0  0  0
 26 72  1  0  0  0  0
 27 83  1  0  0  0  0
 28 84  1  0  0  0  0
 29 31  2  0  0  0  0
 29 83  1  0  0  0  0
 30 85  1  0  0  0  0
 31 86  1  0  0  0  0
 32 65  2  0  0  0  0
 33 66  1  0  0  0  0
 33 70  1  0  0  0  0
 34 55  1  0  0  0  0
 34 67  1  0  0  0  0
 34 77  2  0  0  0  0
 35 67  1  0  0  0  0
 35 75  2  0  0  0  0
 36 71  1  0  0  0  0
 36 78  2  0  0  0  0
 37 53  1  0  0  0  0
 37 73  1  0  0  0  0
 37 79  2  0  0  0  0
 38 62  1  0  0  0  0
 38 68  1  0  0  0  0
 38 80  2  0  0  0  0
 39 63  1  0  0  0  0
 39 74  1  0  0  0  0
 39 81  2  0  0  0  0
 40 69  1  0  0  0  0
 40 72  1  0  0  0  0
 40 82  2  0  0  0  0
 41 44  1  0  0  0  0
 42 53  1  0  0  0  0
 43 68  1  0  0  0  0
 44 46  1  0  0  0  0
 45 47  1  0  0  0  0
 45 49  1  0  0  0  0
 46 52  1  0  0  0  0
 47 54  1  0  0  0  0
 48 50  1  0  0  0  0
 48 55  1  0  0  0  0
 49 69  1  0  0  0  0
 50 67  1  0  0  0  0
 51 54  1  0  0  0  0
 51 69  1  0  0  0  0
 52 73  1  0  0  0  0
 53 68  1  0  0  0  0
 54 66  1  0  0  0  0
 55 56  1  0  0  0  0
 55 84  1  0  0  0  0
 57 63  1  0  0  0  0
 58 64  1  0  0  0  0
 59 64  1  0  0  0  0
 60 64  1  0  0  0  0
 61 76  1  0  0  0  0
 62 64  1  0  0  0  0
 62 74  1  0  0  0  0
 63 76  1  0  0  0  0
 65 66  1  0  0  0  0
M  CHG  2  75   1  76   1
M  ISO  4  40 100  55 101  72 100  84 101
M  END
> <Batch ID>
0154

> <Smiles>
CNC(C)C(=O)NC(C(=O)N1Cc2cc([101O:1][101C:1]3(C)CCN(C(=N)c4cccc([100NH:0][100C:0](=O)N5CCCC(n6nc(-c7ccc(Oc8ccc(F)cc8F)cc7)c(C(N)=O)c6N)C5)c4)C3=O)ccc2CC1C(=O)NC1CCCc2ccccc21)C(C)(C)C

> <Shape>
0.167

> <Color>
0.188

> <Negative vol penalty>
0.000

$$$$

  -OEChem-04052303333D

 82 91  0     1  0  0  0  0  0999 V2000
  -29.8553  -35.4830   22.5890 C   0  0  0  0  0  0  0  0  0  0  0  0
  -30.1150  -34.1174   22.6451 C   0  0  0  0  0  0  0  0  0  0  0  0
  -23.1419   -9.7138   20.5833 C   0  0  0  0  0  0  0  0  0  0  0  0
  -23.7790  -10.2609   22.8486 C   0  0  0  0  0  0  0  0  0  0  0  0
  -28.5455  -35.9475   22.7003 C   0  0  0  0  0  0  0  0  0  0  0  0
  -29.0649  -33.2155   22.8136 C   0  0  0  0  0  0  0  0  0  0  0  0
  -28.6149  -27.5990   20.4141 C   0  0  0  0  0  0  0  0  0  0  0  0
  -31.4431  -18.0556   20.2032 C   0  0  0  0  0  0  0  0  0  0  0  0
  -31.2682  -19.4369   20.3050 C   0  0  0  0  0  0  0  0  0  0  0  0
  -22.3992   -8.6309   21.0537 C   0  0  0  0  0  0  0  0  0  0  0  0
  -23.0363   -9.1780   23.3191 C   0  0  0  0  0  0  0  0  0  0  0  0
  -28.8741  -26.3325   20.9361 C   0  0  0  0  0  0  0  0  0  0  0  0
  -22.9935   -5.4803   22.1237 C   0  0  0  0  0  0  0  0  0  0  0  0
  -23.1219   -4.2657   21.4500 C   0  0  0  0  0  0  0  0  0  0  0  0
  -29.0925  -19.1598   21.4122 C   0  0  0  0  0  0  0  0  0  0  0  0
  -26.5381  -26.0874   21.4856 C   0  0  0  0  0  0  0  0  0  0  0  0
  -20.7576   -4.2913   20.9534 C   0  0  0  0  0  0  0  0  0  0  0  0
  -23.8319  -10.5288   21.4808 C   0  0  0  0  0  0  0  0  0  0  0  0
  -24.1504  -12.9674   20.8031 C   0  0  0  0  0  0  0  0  0  0  0  0
  -27.4778  -35.0503   22.8606 C   0  0  0  0  0  0  0  0  0  0  0  0
  -27.3150  -28.1246   20.4339 C   0  0  0  0  0  0  0  0  0  0  0  0
  -27.7396  -33.6686   22.9285 C   0  0  0  0  0  0  0  0  0  0  0  0
  -29.2854  -17.8096   21.3034 C   0  0  0  0  0  0  0  0  0  0  0  0
  -26.2645  -27.3598   20.9609 C   0  0  0  0  0  0  0  0  0  0  0  0
  -30.4252  -17.3090   20.7250 C   0  0  0  0  0  0  0  0  0  0  0  0
  -30.1064  -19.9840   20.9033 C   0  0  0  0  0  0  0  0  0  0  0  0
  -22.3463   -8.3630   22.4216 C   0  0  0  0  0  0  0  0  0  0  0  0
  -27.8362  -25.5776   21.4745 C   0  0  0  0  0  0  0  0  0  0  0  0
  -21.7472   -6.1003   22.2124 C   0  0  0  0  0  0  0  0  0  0  0  0
  -22.0040   -3.6713   20.8648 C   0  0  0  0  0  0  0  0  0  0  0  0
  -20.6293   -5.5059   21.6272 C   0  0  0  0  0  0  0  0  0  0  0  0
  -24.5997  -11.6472   20.9954 C   0  0  0  0  0  0  0  0  0  0  0  0
  -25.2515  -13.6397   20.3319 C   0  0  0  0  0  0  0  0  0  0  0  0
  -22.8536  -13.5353   21.0302 C   0  0  0  0  0  0  0  0  0  0  0  0
  -25.9383  -30.6539   21.7796 C   0  0  0  0  0  0  0  0  0  0  0  0
  -23.3692  -29.6874   20.0510 C   0  0  0  0  0  0  0  0  0  0  0  0
  -28.9076  -22.1054   21.5332 C   0  0  0  0  0  0  0  0  0  0  0  0
  -21.7337  -27.1457   18.4661 C   0  0  0  0  0  0  0  0  0  0  0  0
  -30.6331  -14.8635   20.4131 C   0  0  0  0  0  0  0  0  0  0  0  0
  -26.0838  -35.6025   23.0238 C   0  0  0  0  0  0  0  0  0  0  0  0
  -27.0472  -29.4815   19.8426 C   0  0  0  0  0  0  0  0  0  0  0  0
  -28.7748  -16.4199   21.5482 C   0  0  0  0  0  0  0  0  0  0  0  0
  -24.8477  -27.8701   20.9875 C   0  0  0  0  0  0  0  0  0  0  0  0
  -24.9880  -34.5586   22.8245 C   0  0  0  0  0  0  0  0  0  0  0  0
  -29.7431  -11.9097   18.7466 C   0  0  0  0  0  0  0  0  0  0  0  0
  -25.3197  -33.2831   23.5925 C   0  0  0  0  0  0  0  0  0  0  0  0
  -28.2798  -11.6913   19.1423 C   0  0  0  0  0  0  0  0  0  0  0  0
  -30.5746  -12.4463   19.9125 C   0  0  0  0  0  0  0  0  0  0  0  0
  -28.5884  -13.4008   20.9711 C   0  0  0  0  0  0  0  0  0  0  0  0
  -26.6247  -32.6575   23.0855 C   0  0  1  0  0  0  0  0  0  0  0  0
  -25.7747  -30.1276   20.3818 C   0  0  1  0  0  0  0  0  0  0  0  0
  -27.6832  -12.9431   19.8169 C   0  0  2  0  0  0  0  0  0  0  0  0
  -19.6378  -26.6533   17.1769 C   0  0  0  0  0  0  0  0  0  0  0  0
  -21.7671  -29.7206   22.6476 C   0  0  0  0  0  0  0  0  0  0  0  0
  -20.0157  -28.3455   21.5030 C   0  0  0  0  0  0  0  0  0  0  0  0
  -20.5522  -30.6314   20.6604 C   0  0  0  0  0  0  0  0  0  0  0  0
  -23.2624  -26.3439   16.0622 C   0  0  0  0  0  0  0  0  0  0  0  0
  -29.1535  -23.5983   21.4184 C   0  0  0  0  0  0  0  0  0  1  0  0
  -22.2068  -28.7553   20.2937 C   0  0  1  0  0  0  0  0  0  0  0  0
  -21.1008  -27.0592   17.0891 C   0  0  2  0  0  0  0  0  0  0  0  0
  -21.1624  -29.3541   21.2776 C   0  0  0  0  0  0  0  0  0  0  0  0
  -25.8860  -11.4881   20.6725 N   0  0  0  0  0  0  0  0  0  0  0  0
  -26.2543  -12.7171   20.2726 N   0  0  0  0  0  0  0  0  0  0  0  0
  -30.0283  -15.9974   20.8932 N   0  0  0  0  0  0  0  0  0  0  0  0
  -24.6377  -29.2051   20.4032 N   0  0  0  0  0  0  0  0  0  0  0  0
  -29.9431  -13.6483   20.4690 N   0  0  0  0  0  0  0  0  0  0  0  0
  -25.4501  -14.9240   19.9666 N   0  0  0  0  0  0  0  0  0  0  0  0
  -21.8358  -12.7035   21.5166 N   0  0  0  0  0  0  0  0  0  0  0  0
  -29.9686  -21.3711   20.9842 N   0  0  0  0  0  0  0  0  0  0  0  0
  -26.3983  -31.9556   21.8404 N   0  0  0  0  0  0  0  0  0  0  0  0
  -21.6679  -28.4239   18.9791 N   0  0  0  0  0  0  0  0  0  0  0  0
  -21.8174  -26.0560   16.2517 N   0  3  0  0  0  0  0  0  0  0  0  0
  -22.6005  -14.7407   20.7929 O   0  0  0  0  0  0  0  0  0  0  0  0
  -25.6659  -29.9331   22.7324 O   0  0  0  0  0  0  0  0  0  0  0  0
  -23.1603  -30.7996   19.5602 O   0  0  0  0  0  0  0  0  0  0  0  0
  -27.8889  -21.6600   22.0513 O   0  0  0  0  0  0  0  0  0  0  0  0
  -22.2330  -26.1756   19.0319 O   0  0  0  0  0  0  0  0  0  0  0  0
  -31.7611  -14.9297   19.9024 O   0  0  0  0  0  0  0  0  0  0  0  0
  -21.6215   -7.3065   22.8810 O   0  0  0  0  0  0  0  0  0  0  0  0
  -28.0892  -24.3285   21.9906 O   0  0  0  0  0  0  0  0  0  1  0  0
  -22.1277   -2.5057   20.2165 F   0  0  0  0  0  0  0  0  0  0  0  0
  -19.4295   -6.0974   21.7081 F   0  0  0  0  0  0  0  0  0  0  0  0
  1  2  1  0  0  0  0
  1  5  2  0  0  0  0
  2  6  2  0  0  0  0
  3 10  2  0  0  0  0
  3 18  1  0  0  0  0
  4 11  1  0  0  0  0
  4 18  2  0  0  0  0
  5 20  1  0  0  0  0
  6 22  1  0  0  0  0
  7 12  2  0  0  0  0
  7 21  1  0  0  0  0
  8  9  2  0  0  0  0
  8 25  1  0  0  0  0
  9 26  1  0  0  0  0
 10 27  1  0  0  0  0
 11 27  2  0  0  0  0
 12 28  1  0  0  0  0
 13 14  2  0  0  0  0
 13 29  1  0  0  0  0
 14 30  1  0  0  0  0
 15 23  1  0  0  0  0
 15 26  2  0  0  0  0
 16 24  1  0  0  0  0
 16 28  2  0  0  0  0
 17 30  2  0  0  0  0
 17 31  1  0  0  0  0
 18 32  1  0  0  0  0
 19 32  1  0  0  0  0
 19 33  2  0  0  0  0
 19 34  1  0  0  0  0
 20 22  2  0  0  0  0
 20 40  1  0  0  0  0
 21 24  2  0  0  0  0
 21 41  1  0  0  0  0
 22 50  1  0  0  0  0
 23 25  2  0  0  0  0
 23 42  1  0  0  0  0
 24 43  1  0  0  0  0
 25 64  1  0  0  0  0
 26 69  1  0  0  0  0
 27 79  1  0  0  0  0
 28 80  1  0  0  0  0
 29 31  2  0  0  0  0
 29 79  1  0  0  0  0
 30 81  1  0  0  0  0
 31 82  1  0  0  0  0
 32 62  2  0  0  0  0
 33 63  1  0  0  0  0
 33 67  1  0  0  0  0
 34 68  1  0  0  0  0
 34 73  2  0  0  0  0
 35 51  1  0  0  0  0
 35 70  1  0  0  0  0
 35 74  2  0  0  0  0
 36 59  1  0  0  0  0
 36 65  1  0  0  0  0
 36 75  2  0  0  0  0
 37 58  1  0  0  0  0
 37 69  1  0  0  0  0
 37 76  2  0  0  0  0
 38 60  1  0  0  0  0
 38 71  1  0  0  0  0
 38 77  2  0  0  0  0
 39 64  1  0  0  0  0
 39 66  1  0  0  0  0
 39 78  2  0  0  0  0
 40 44  1  0  0  0  0
 41 51  1  0  0  0  0
 42 64  1  0  0  0  0
 43 65  1  0  0  0  0
 44 46  1  0  0  0  0
 45 47  1  0  0  0  0
 45 48  1  0  0  0  0
 46 50  1  0  0  0  0
 47 52  1  0  0  0  0
 48 66  1  0  0  0  0
 49 52  1  0  0  0  0
 49 66  1  0  0  0  0
 50 70  1  0  0  0  0
 51 65  1  0  0  0  0
 52 63  1  0  0  0  0
 53 60  1  0  0  0  0
 54 61  1  0  0  0  0
 55 61  1  0  0  0  0
 56 61  1  0  0  0  0
 57 72  1  0  0  0  0
 58 80  1  0  0  0  0
 59 61  1  0  0  0  0
 59 71  1  0  0  0  0
 60 72  1  0  0  0  0
 62 63  1  0  0  0  0
M  CHG  1  72   1
M  ISO  4  39 100  58 101  64 100  80 101
M  END
> <Batch ID>
0154

> <Smiles>
CNC(C)C(=O)NC(C(=O)N1Cc2cc([101O:1][101CH2:1]C(=O)Nc3ccc4c(c3)C[100N:0]4[100C:0](=O)N3CCCC(n4nc(-c5ccc(Oc6ccc(F)cc6F)cc5)c(C(N)=O)c4N)C3)ccc2CC1C(=O)NC1CCCc2ccccc21)C(C)(C)C

> <Shape>
0.341

> <Color>
0.175

> <Negative vol penalty>
0.000

$$$$

  -OEChem-04052303333D

 85 93  0     1  0  0  0  0  0999 V2000
  -19.5340  -21.3815   32.0472 C   0  0  0  0  0  0  0  0  0  0  0  0
  -20.3068  -21.8282   30.9801 C   0  0  0  0  0  0  0  0  0  0  0  0
  -23.0724   -9.8698   19.9430 C   0  0  0  0  0  0  0  0  0  0  0  0
  -23.8346   -9.8779   22.2356 C   0  0  0  0  0  0  0  0  0  0  0  0
  -18.9591  -20.1119   32.0067 C   0  0  0  0  0  0  0  0  0  0  0  0
  -20.5060  -21.0051   29.8724 C   0  0  0  0  0  0  0  0  0  0  0  0
  -21.0209  -22.7594   24.0274 C   0  0  0  0  0  0  0  0  0  0  0  0
  -22.3290   -8.7167   20.1942 C   0  0  0  0  0  0  0  0  0  0  0  0
  -23.0911   -8.7247   22.4868 C   0  0  0  0  0  0  0  0  0  0  0  0
  -22.1271  -22.9699   23.2053 C   0  0  0  0  0  0  0  0  0  0  0  0
  -19.3823   -7.9201   21.6488 C   0  0  0  0  0  0  0  0  0  0  0  0
  -18.0750   -7.8735   21.1649 C   0  0  0  0  0  0  0  0  0  0  0  0
  -21.8896  -20.7368   22.3243 C   0  0  0  0  0  0  0  0  0  0  0  0
  -31.5082  -18.4261   20.0468 C   0  0  0  0  0  0  0  0  0  0  0  0
  -29.2959  -18.6671   20.9872 C   0  0  0  0  0  0  0  0  0  0  0  0
  -30.0135  -20.1242   19.1987 C   0  0  0  0  0  0  0  0  0  0  0  0
  -18.6337   -5.9300   19.8429 C   0  0  0  0  0  0  0  0  0  0  0  0
  -23.8253  -10.4504   20.9637 C   0  0  0  0  0  0  0  0  0  0  0  0
  -24.1665  -12.9756   20.8424 C   0  0  0  0  0  0  0  0  0  0  0  0
  -19.1435  -19.2766   30.8937 C   0  0  0  0  0  0  0  0  0  0  0  0
  -20.3464  -21.5301   24.0121 C   0  0  0  0  0  0  0  0  0  0  0  0
  -19.9342  -19.7226   29.8175 C   0  0  0  0  0  0  0  0  0  0  0  0
  -20.7737  -20.5141   23.1454 C   0  0  0  0  0  0  0  0  0  0  0  0
  -30.5316  -18.0208   20.9564 C   0  0  0  0  0  0  0  0  0  0  0  0
  -31.2492  -19.4779   19.1679 C   0  0  0  0  0  0  0  0  0  0  0  0
  -29.0368  -19.7188   20.1083 C   0  0  0  0  0  0  0  0  0  0  0  0
  -22.3383   -8.1441   21.4661 C   0  0  0  0  0  0  0  0  0  0  0  0
  -22.5633  -21.9575   22.3556 C   0  0  0  0  0  0  0  0  0  0  0  0
  -20.3154   -6.9718   21.2297 C   0  0  0  0  0  0  0  0  0  0  0  0
  -17.7006   -6.8784   20.2620 C   0  0  0  0  0  0  0  0  0  0  0  0
  -19.9411   -5.9767   20.3268 C   0  0  0  0  0  0  0  0  0  0  0  0
  -24.5939  -11.6413   20.7047 C   0  0  0  0  0  0  0  0  0  0  0  0
  -25.2582  -13.7251   20.4777 C   0  0  0  0  0  0  0  0  0  0  0  0
  -24.7227  -21.3363   21.7060 C   0  0  0  0  0  0  0  0  0  1  0  0
  -22.8964  -13.4914   21.2624 C   0  0  0  0  0  0  0  0  0  0  0  0
  -25.5490  -21.0187   20.7020 C   0  0  0  0  0  0  0  0  0  0  0  0
  -26.7060  -20.1044   20.9737 C   0  0  0  0  0  0  0  0  0  0  0  0
  -19.7898  -19.2500   26.1557 C   0  0  0  0  0  0  0  0  0  0  0  0
  -17.9530  -18.0118   23.7861 C   0  0  0  0  0  0  0  0  0  0  0  0
  -17.2890  -17.8004   20.4452 C   0  0  0  0  0  0  0  0  0  0  0  0
  -30.7420  -14.7452   20.6601 C   0  0  0  0  0  0  0  0  0  0  0  0
  -18.5412  -17.8940   30.9160 C   0  0  0  0  0  0  0  0  0  0  0  0
  -19.1386  -21.3282   24.8857 C   0  0  0  0  0  0  0  0  0  0  0  0
  -20.0718  -19.1833   23.0764 C   0  0  0  0  0  0  0  0  0  0  0  0
  -18.4914  -17.2291   29.5428 C   0  0  0  0  0  0  0  0  0  0  0  0
  -29.6023  -12.3595   18.2754 C   0  0  0  0  0  0  0  0  0  0  0  0
  -19.8270  -17.3889   28.8235 C   0  0  0  0  0  0  0  0  0  0  0  0
  -28.1654  -12.0657   18.7099 C   0  0  0  0  0  0  0  0  0  0  0  0
  -30.5207  -12.5810   19.4753 C   0  0  0  0  0  0  0  0  0  0  0  0
  -28.6202  -13.3123   20.8635 C   0  0  0  0  0  0  0  0  0  0  0  0
  -20.1530  -18.8686   28.5875 C   0  0  1  0  0  0  0  0  0  0  0  0
  -18.8404  -19.8578   25.1623 C   0  0  1  0  0  0  0  0  0  0  0  0
  -27.6449  -13.1371   19.6869 C   0  0  2  0  0  0  0  0  0  0  0  0
  -15.7506  -16.6799   18.8096 C   0  0  0  0  0  0  0  0  0  0  0  0
  -19.5053  -15.4057   24.1152 C   0  0  0  0  0  0  0  0  0  0  0  0
  -18.6153  -14.6760   21.8918 C   0  0  0  0  0  0  0  0  0  0  0  0
  -17.0439  -15.1184   23.7780 C   0  0  0  0  0  0  0  0  0  0  0  0
  -16.2276  -20.3928   19.4901 C   0  0  0  0  0  0  0  0  0  0  0  0
  -30.8087  -16.8962   21.8960 C   0  0  0  0  0  0  0  0  0  0  0  0
  -18.1883  -17.0623   22.6363 C   0  0  1  0  0  0  0  0  0  0  0  0
  -15.9902  -17.9127   19.6673 C   0  0  2  0  0  0  0  0  0  0  0  0
  -18.3528  -15.5899   23.1078 C   0  0  0  0  0  0  0  0  0  0  0  0
  -25.8583  -11.5456   20.2852 N   0  0  0  0  0  0  0  0  0  0  0  0
  -26.2349  -12.8291   20.1560 N   0  0  0  0  0  0  0  0  0  0  0  0
  -18.8998  -19.0321   23.9545 N   0  0  0  0  0  0  0  0  0  0  0  0
  -29.9708  -13.6098   20.3614 N   0  0  0  0  0  0  0  0  0  0  0  0
  -32.2372  -19.8876   18.2481 N   0  0  0  0  0  0  0  0  0  0  0  0
  -25.4683  -15.0566   20.4039 N   0  0  0  0  0  0  0  0  0  0  0  0
  -21.8850  -12.5821   21.6010 N   0  0  0  0  0  0  0  0  0  0  0  0
  -27.7823  -20.3742   20.1396 N   0  0  0  0  0  0  0  0  0  0  0  0
  -19.3885  -19.3827   27.4714 N   0  0  0  0  0  0  0  0  0  0  0  0
  -17.0872  -17.2712   21.7024 N   0  0  0  0  0  0  0  0  0  0  0  0
  -30.1435  -15.6742   21.5023 N   0  0  0  0  0  0  0  0  0  0  0  0
  -16.0219  -19.1065   18.7759 N   0  3  0  0  0  0  0  0  0  0  0  0
  -22.6600  -14.7220   21.3195 O   0  0  0  0  0  0  0  0  0  0  0  0
  -26.6380  -19.2439   21.8447 O   0  0  0  0  0  0  0  0  0  0  0  0
  -20.8100  -18.6999   25.7580 O   0  0  0  0  0  0  0  0  0  0  0  0
  -16.9616  -17.8583   24.5039 O   0  0  0  0  0  0  0  0  0  0  0  0
  -18.3744  -18.1442   19.9825 O   0  0  0  0  0  0  0  0  0  0  0  0
  -31.8774  -14.9207   20.2052 O   0  0  0  0  0  0  0  0  0  0  0  0
  -25.3782  -21.4996   19.4198 O   0  0  0  0  0  0  0  0  0  0  0  0
  -21.6128   -7.0190   21.7116 O   0  0  0  0  0  0  0  0  0  0  0  0
  -23.6431  -22.1601   21.5526 O   0  0  0  0  0  0  0  0  0  1  0  0
  -16.4447   -6.8328   19.7985 F   0  0  0  0  0  0  0  0  0  0  0  0
  -20.8328   -5.0621   19.9214 F   0  0  0  0  0  0  0  0  0  0  0  0
  1  2  1  0  0  0  0
  1  5  2  0  0  0  0
  2  6  2  0  0  0  0
  3  8  2  0  0  0  0
  3 18  1  0  0  0  0
  4  9  1  0  0  0  0
  4 18  2  0  0  0  0
  5 20  1  0  0  0  0
  6 22  1  0  0  0  0
  7 10  2  0  0  0  0
  7 21  1  0  0  0  0
  8 27  1  0  0  0  0
  9 27  2  0  0  0  0
 10 28  1  0  0  0  0
 11 12  2  0  0  0  0
 11 29  1  0  0  0  0
 12 30  1  0  0  0  0
 13 23  1  0  0  0  0
 13 28  2  0  0  0  0
 14 24  2  0  0  0  0
 14 25  1  0  0  0  0
 15 24  1  0  0  0  0
 15 26  2  0  0  0  0
 16 25  2  0  0  0  0
 16 26  1  0  0  0  0
 17 30  2  0  0  0  0
 17 31  1  0  0  0  0
 18 32  1  0  0  0  0
 19 32  1  0  0  0  0
 19 33  2  0  0  0  0
 19 35  1  0  0  0  0
 20 22  2  0  0  0  0
 20 42  1  0  0  0  0
 21 23  2  0  0  0  0
 21 43  1  0  0  0  0
 22 51  1  0  0  0  0
 23 44  1  0  0  0  0
 24 59  1  0  0  0  0
 25 67  1  0  0  0  0
 26 70  1  0  0  0  0
 27 82  1  0  0  0  0
 28 83  1  0  0  0  0
 29 31  2  0  0  0  0
 29 82  1  0  0  0  0
 30 84  1  0  0  0  0
 31 85  1  0  0  0  0
 32 63  2  0  0  0  0
 33 64  1  0  0  0  0
 33 68  1  0  0  0  0
 34 36  2  0  0  0  0
 34 83  1  0  0  0  0
 35 69  1  0  0  0  0
 35 75  2  0  0  0  0
 36 37  1  0  0  0  0
 36 81  1  0  0  0  0
 37 70  1  0  0  0  0
 37 76  2  0  0  0  0
 38 52  1  0  0  0  0
 38 71  1  0  0  0  0
 38 77  2  0  0  0  0
 39 60  1  0  0  0  0
 39 65  1  0  0  0  0
 39 78  2  0  0  0  0
 40 61  1  0  0  0  0
 40 72  1  0  0  0  0
 40 79  2  0  0  0  0
 41 66  1  0  0  0  0
 41 73  1  0  0  0  0
 41 80  2  0  0  0  0
 42 45  1  0  0  0  0
 43 52  1  0  0  0  0
 44 65  1  0  0  0  0
 45 47  1  0  0  0  0
 46 48  1  0  0  0  0
 46 49  1  0  0  0  0
 47 51  1  0  0  0  0
 48 53  1  0  0  0  0
 49 66  1  0  0  0  0
 50 53  1  0  0  0  0
 50 66  1  0  0  0  0
 51 71  1  0  0  0  0
 52 65  1  0  0  0  0
 53 64  1  0  0  0  0
 54 61  1  0  0  0  0
 55 62  1  0  0  0  0
 56 62  1  0  0  0  0
 57 62  1  0  0  0  0
 58 74  1  0  0  0  0
 59 73  1  0  0  0  0
 60 62  1  0  0  0  0
 60 72  1  0  0  0  0
 61 74  1  0  0  0  0
 63 64  1  0  0  0  0
M  CHG  1  74   1
M  ISO  4  34 101  41 100  73 100  83 101
M  END
> <Batch ID>
0154

> <Smiles>
CNC(C)C(=O)NC(C(=O)N1Cc2cc([101O:1][101CH2:1]C(=O)C(=O)Nc3cc(N)cc(C[100NH:0][100C:0](=O)N4CCCC(n5nc(-c6ccc(Oc7ccc(F)cc7F)cc6)c(C(N)=O)c5N)C4)c3)ccc2CC1C(=O)NC1CCCc2ccccc21)C(C)(C)C

> <Shape>
0.173

> <Color>
0.180

> <Negative vol penalty>
0.000

$$$$

  -OEChem-04052303333D

 88 96  0     1  0  0  0  0  0999 V2000
  -26.2963  -37.2884   22.2475 C   0  0  0  0  0  0  0  0  0  0  0  0
  -26.9402  -36.1356   21.8096 C   0  0  0  0  0  0  0  0  0  0  0  0
  -23.1212  -10.0393   21.6149 C   0  0  0  0  0  0  0  0  0  0  0  0
  -23.8094  -11.2075   23.6146 C   0  0  0  0  0  0  0  0  0  0  0  0
  -25.2974  -37.2023   23.2163 C   0  0  0  0  0  0  0  0  0  0  0  0
  -26.5863  -34.8959   22.3411 C   0  0  0  0  0  0  0  0  0  0  0  0
  -26.4901  -29.5228   19.4041 C   0  0  0  0  0  0  0  0  0  0  0  0
  -22.3765   -9.1506   22.3903 C   0  0  0  0  0  0  0  0  0  0  0  0
  -23.0647  -10.3187   24.3901 C   0  0  0  0  0  0  0  0  0  0  0  0
  -27.3991  -28.4671   19.3497 C   0  0  0  0  0  0  0  0  0  0  0  0
  -22.9586   -6.4345   24.3162 C   0  0  0  0  0  0  0  0  0  0  0  0
  -23.0605   -5.0752   24.0205 C   0  0  0  0  0  0  0  0  0  0  0  0
  -26.1748  -27.3312   21.0903 C   0  0  0  0  0  0  0  0  0  0  0  0
  -31.7630  -19.6795   21.2601 C   0  0  0  0  0  0  0  0  0  0  0  0
  -31.9869  -17.3377   20.7093 C   0  0  0  0  0  0  0  0  0  0  0  0
  -20.6872   -4.9940   23.5759 C   0  0  0  0  0  0  0  0  0  0  0  0
  -23.8377  -11.0677   22.2271 C   0  0  0  0  0  0  0  0  0  0  0  0
  -29.8005  -18.3649   20.7528 C   0  0  0  0  0  0  0  0  0  0  0  0
  -24.1685  -13.2011   20.8680 C   0  0  0  0  0  0  0  0  0  0  0  0
  -24.9243  -35.9599   23.7529 C   0  0  0  0  0  0  0  0  0  0  0  0
  -25.4210  -29.4955   20.3111 C   0  0  0  0  0  0  0  0  0  0  0  0
  -25.5823  -34.7933   23.3190 C   0  0  0  0  0  0  0  0  0  0  0  0
  -25.2521  -28.3866   21.1524 C   0  0  0  0  0  0  0  0  0  0  0  0
  -30.3801  -19.5837   21.1055 C   0  0  0  0  0  0  0  0  0  0  0  0
  -30.6039  -17.2419   20.5547 C   0  0  0  0  0  0  0  0  0  0  0  0
  -22.3483   -9.2903   23.7779 C   0  0  0  0  0  0  0  0  0  0  0  0
  -27.2432  -27.3724   20.1949 C   0  0  0  0  0  0  0  0  0  0  0  0
  -21.7210   -7.0736   24.2418 C   0  0  0  0  0  0  0  0  0  0  0  0
  -21.9248   -4.3549   23.6503 C   0  0  0  0  0  0  0  0  0  0  0  0
  -32.5664  -18.5565   21.0620 C   0  0  0  0  0  0  0  0  0  0  0  0
  -20.5853   -6.3534   23.8716 C   0  0  0  0  0  0  0  0  0  0  0  0
  -24.6075  -11.9857   21.4267 C   0  0  0  0  0  0  0  0  0  0  0  0
  -25.2671  -13.6908   20.2049 C   0  0  0  0  0  0  0  0  0  0  0  0
  -28.3516  -18.2644   20.5911 C   0  0  0  0  0  0  0  0  0  0  0  0
  -22.8827  -13.8310   20.9420 C   0  0  0  0  0  0  0  0  0  0  0  0
  -24.5173  -31.2982   22.7682 C   0  0  0  0  0  0  0  0  0  0  0  0
  -28.9875  -24.1984   20.8784 C   0  0  0  0  0  0  0  0  0  0  0  0
  -21.9043  -29.3768   22.7146 C   0  0  0  0  0  0  0  0  0  0  0  0
  -30.0226  -22.0116   21.6538 C   0  0  0  0  0  0  0  0  0  0  0  0
  -20.5321  -26.3760   21.8435 C   0  0  0  0  0  0  0  0  0  0  0  0
  -30.7191  -14.7956   19.9643 C   0  0  0  0  0  0  0  0  0  0  0  0
  -23.8717  -35.9221   24.8324 C   0  0  0  0  0  0  0  0  0  0  0  0
  -24.4337  -30.6300   20.3387 C   0  0  0  0  0  0  0  0  0  0  0  0
  -24.1095  -28.2995   22.1298 C   0  0  0  0  0  0  0  0  0  0  0  0
  -23.2957  -34.5290   25.0729 C   0  0  0  0  0  0  0  0  0  0  0  0
  -29.6927  -11.4988   19.0954 C   0  0  0  0  0  0  0  0  0  0  0  0
  -24.4151  -33.4968   25.1636 C   0  0  0  0  0  0  0  0  0  0  0  0
  -28.2421  -11.4316   19.5785 C   0  0  0  0  0  0  0  0  0  0  0  0
  -30.5687  -12.3164   20.0430 C   0  0  0  0  0  0  0  0  0  0  0  0
  -28.6157  -13.5951   20.8302 C   0  0  0  0  0  0  0  0  0  0  0  0
  -25.2092  -33.4276   23.8535 C   0  0  1  0  0  0  0  0  0  0  0  0
  -23.6767  -30.7313   21.6593 C   0  0  1  0  0  0  0  0  0  0  0  0
  -27.6809  -12.8363   19.8741 C   0  0  2  0  0  0  0  0  0  0  0  0
  -27.5492  -17.9025   21.8031 C   0  0  0  0  0  0  0  0  0  0  0  0
  -18.3852  -25.0824   21.9642 C   0  0  0  0  0  0  0  0  0  0  0  0
  -22.4133  -28.8126   25.6697 C   0  0  0  0  0  0  0  0  0  0  0  0
  -20.8763  -26.8448   25.4870 C   0  0  0  0  0  0  0  0  0  0  0  0
  -20.0083  -29.1460   25.0704 C   0  0  0  0  0  0  0  0  0  0  0  0
  -20.3328  -26.2073   18.8955 C   0  0  0  0  0  0  0  0  0  0  0  0
  -28.8726  -22.9914   21.7862 C   0  0  0  0  0  0  0  0  0  0  0  0
  -27.9094  -25.2512   21.0390 C   0  0  0  0  0  0  0  0  0  1  0  0
  -21.5275  -28.0663   23.3622 C   0  0  1  0  0  0  0  0  0  0  0  0
  -19.2364  -26.0293   21.1326 C   0  0  2  0  0  0  0  0  0  0  0  0
  -21.2291  -28.2196   24.8804 C   0  0  0  0  0  0  0  0  0  0  0  0
  -25.8853  -11.7196   21.1430 N   0  0  0  0  0  0  0  0  0  0  0  0
  -26.2586  -12.7745   20.3988 N   0  0  0  0  0  0  0  0  0  0  0  0
  -23.1743  -29.4365   22.1235 N   0  0  0  0  0  0  0  0  0  0  0  0
  -29.9769  -13.6361   20.2732 N   0  0  0  0  0  0  0  0  0  0  0  0
  -25.4720  -14.8114   19.4806 N   0  0  0  0  0  0  0  0  0  0  0  0
  -21.8660  -13.1917   21.6645 N   0  0  0  0  0  0  0  0  0  0  0  0
  -29.5873  -20.7382   21.3112 N   0  0  0  0  0  0  0  0  0  0  0  0
  -30.0413  -15.9924   20.1942 N   0  0  0  0  0  0  0  0  0  0  0  0
  -24.4759  -32.6766   22.8572 N   0  0  0  0  0  0  0  0  0  0  0  0
  -20.4141  -27.5323   22.5853 N   0  0  0  0  0  0  0  0  0  0  0  0
  -19.5222  -25.3773   19.8234 N   0  3  0  0  0  0  0  0  0  0  0  0
  -27.7511  -18.4505   19.5353 O   0  0  0  0  0  0  0  0  0  0  0  0
  -22.6377  -14.9203   20.3702 O   0  0  0  0  0  0  0  0  0  0  0  0
  -25.1550  -30.5411   23.4905 O   0  0  0  0  0  0  0  0  0  0  0  0
  -29.8945  -24.3159   20.0556 O   0  0  0  0  0  0  0  0  0  0  0  0
  -21.0986  -30.3108   22.7262 O   0  0  0  0  0  0  0  0  0  0  0  0
  -31.1794  -22.3898   21.8186 O   0  0  0  0  0  0  0  0  0  0  0  0
  -21.5463  -25.6877   21.7529 O   0  0  0  0  0  0  0  0  0  0  0  0
  -31.8612  -14.7311   19.5023 O   0  0  0  0  0  0  0  0  0  0  0  0
  -21.6216   -8.4234   24.5348 O   0  0  0  0  0  0  0  0  0  0  0  0
  -28.1295  -26.3410   20.1444 O   0  0  0  0  0  0  0  0  0  1  0  0
  -22.0231   -3.0499   23.3650 F   0  0  0  0  0  0  0  0  0  0  0  0
  -33.8945  -18.6481   21.2105 F   0  0  0  0  0  0  0  0  0  0  0  0
  -19.3938   -6.9621   23.7972 F   0  0  0  0  0  0  0  0  0  0  0  0
  1  2  1  0  0  0  0
  1  5  2  0  0  0  0
  2  6  2  0  0  0  0
  3  8  2  0  0  0  0
  3 17  1  0  0  0  0
  4  9  1  0  0  0  0
  4 17  2  0  0  0  0
  5 20  1  0  0  0  0
  6 22  1  0  0  0  0
  7 10  2  0  0  0  0
  7 21  1  0  0  0  0
  8 26  1  0  0  0  0
  9 26  2  0  0  0  0
 10 27  1  0  0  0  0
 11 12  2  0  0  0  0
 11 28  1  0  0  0  0
 12 29  1  0  0  0  0
 13 23  1  0  0  0  0
 13 27  2  0  0  0  0
 14 24  1  0  0  0  0
 14 30  2  0  0  0  0
 15 25  2  0  0  0  0
 15 30  1  0  0  0  0
 16 29  2  0  0  0  0
 16 31  1  0  0  0  0
 17 32  1  0  0  0  0
 18 24  2  0  0  0  0
 18 25  1  0  0  0  0
 18 34  1  0  0  0  0
 19 32  1  0  0  0  0
 19 33  2  0  0  0  0
 19 35  1  0  0  0  0
 20 22  2  0  0  0  0
 20 42  1  0  0  0  0
 21 23  2  0  0  0  0
 21 43  1  0  0  0  0
 22 51  1  0  0  0  0
 23 44  1  0  0  0  0
 24 71  1  0  0  0  0
 25 72  1  0  0  0  0
 26 84  1  0  0  0  0
 27 85  1  0  0  0  0
 28 31  2  0  0  0  0
 28 84  1  0  0  0  0
 29 86  1  0  0  0  0
 30 87  1  0  0  0  0
 31 88  1  0  0  0  0
 32 65  2  0  0  0  0
 33 66  1  0  0  0  0
 33 69  1  0  0  0  0
 34 54  1  0  0  0  0
 34 76  2  0  0  0  0
 35 70  1  0  0  0  0
 35 77  2  0  0  0  0
 36 52  1  0  0  0  0
 36 73  1  0  0  0  0
 36 78  2  0  0  0  0
 37 60  1  0  0  0  0
 37 61  1  0  0  0  0
 37 79  2  0  0  0  0
 38 62  1  0  0  0  0
 38 67  1  0  0  0  0
 38 80  2  0  0  0  0
 39 60  1  0  0  0  0
 39 71  1  0  0  0  0
 39 81  2  0  0  0  0
 40 63  1  0  0  0  0
 40 74  1  0  0  0  0
 40 82  2  0  0  0  0
 41 68  1  0  0  0  0
 41 72  1  0  0  0  0
 41 83  2  0  0  0  0
 42 45  1  0  0  0  0
 43 52  1  0  0  0  0
 44 67  1  0  0  0  0
 45 47  1  0  0  0  0
 46 48  1  0  0  0  0
 46 49  1  0  0  0  0
 47 51  1  0  0  0  0
 48 53  1  0  0  0  0
 49 68  1  0  0  0  0
 50 53  1  0  0  0  0
 50 68  1  0  0  0  0
 51 73  1  0  0  0  0
 52 67  1  0  0  0  0
 53 66  1  0  0  0  0
 55 63  1  0  0  0  0
 56 64  1  0  0  0  0
 57 64  1  0  0  0  0
 58 64  1  0  0  0  0
 59 75  1  0  0  0  0
 61 85  1  0  0  0  0
 62 64  1  0  0  0  0
 62 74  1  0  0  0  0
 63 75  1  0  0  0  0
 65 66  1  0  0  0  0
M  CHG  1  75   1
M  ISO  4  41 100  61 101  72 100  85 101
M  END
> <Batch ID>
0154

> <Smiles>
CNC(C)C(=O)NC(C(=O)N1Cc2cc([101O:1][101CH2:1]C(=O)CC(=O)Nc3cc(F)cc([100NH:0][100C:0](=O)N4CCCC(n5nc(-c6ccc(Oc7ccc(F)cc7F)cc6)c(C(N)=O)c5N)C4)c3C(C)=O)ccc2CC1C(=O)NC1CCCc2ccccc21)C(C)(C)C

> <Shape>
0.383

> <Color>
0.170

> <Negative vol penalty>
0.000

$$$$

  -OEChem-04052303333D

 86 96  0     1  0  0  0  0  0999 V2000
  -25.7767  -22.9576   14.9802 C   0  0  0  0  0  0  0  0  0  0  0  0
  -25.1936  -24.0424   15.6253 C   0  0  0  0  0  0  0  0  0  0  0  0
  -24.5701  -14.5856   19.6906 C   0  0  0  0  0  0  0  0  0  0  0  0
  -26.7639  -14.7402   20.6906 C   0  0  0  0  0  0  0  0  0  0  0  0
  -26.9178  -22.3641   15.5158 C   0  0  0  0  0  0  0  0  0  0  0  0
  -25.7582  -24.5416   16.7996 C   0  0  0  0  0  0  0  0  0  0  0  0
  -23.8398  -28.6932   18.6126 C   0  0  0  0  0  0  0  0  0  0  0  0
  -24.6115  -13.1969   19.8143 C   0  0  0  0  0  0  0  0  0  0  0  0
  -26.8053  -13.3514   20.8144 C   0  0  0  0  0  0  0  0  0  0  0  0
  -22.5854  -28.7419   19.2191 C   0  0  0  0  0  0  0  0  0  0  0  0
  -24.1555  -10.8986   22.2521 C   0  0  0  0  0  0  0  0  0  0  0  0
  -23.0176  -10.2572   22.7413 C   0  0  0  0  0  0  0  0  0  0  0  0
  -23.6431  -28.8368   21.3851 C   0  0  0  0  0  0  0  0  0  0  0  0
  -20.2534  -25.0273   20.3050 C   0  0  0  0  0  0  0  0  0  0  0  0
  -22.8475   -8.9936   20.6891 C   0  0  0  0  0  0  0  0  0  0  0  0
  -25.6463  -15.3573   20.1287 C   0  0  0  0  0  0  0  0  0  0  0  0
  -25.4764  -17.5359   18.8124 C   0  0  0  0  0  0  0  0  0  0  0  0
  -27.4888  -22.8490   16.7040 C   0  0  0  0  0  0  0  0  0  0  0  0
  -25.0071  -28.7050   19.3896 C   0  0  0  0  0  0  0  0  0  0  0  0
  -26.9235  -23.9713   17.3430 C   0  0  0  0  0  0  0  0  0  0  0  0
  -24.9111  -28.7908   20.7859 C   0  0  0  0  0  0  0  0  0  0  0  0
  -21.2923  -24.0735   20.1026 C   0  0  0  0  0  0  0  0  0  0  0  0
  -25.7291  -12.5798   20.3763 C   0  0  0  0  0  0  0  0  0  0  0  0
  -22.4869  -28.8108   20.6057 C   0  0  0  0  0  0  0  0  0  0  0  0
  -24.6394  -10.5876   20.9814 C   0  0  0  0  0  0  0  0  0  0  0  0
  -22.3636   -9.3047   21.9599 C   0  0  0  0  0  0  0  0  0  0  0  0
  -23.9855   -9.6351   20.1999 C   0  0  0  0  0  0  0  0  0  0  0  0
  -25.6044  -16.7918   20.0006 C   0  0  0  0  0  0  0  0  0  0  0  0
  -25.4881  -18.8460   19.2247 C   0  0  0  0  0  0  0  0  0  0  0  0
  -20.2407  -25.5128   21.5941 C   0  0  0  0  0  0  0  0  0  0  0  0
  -22.0344  -23.8665   21.2447 C   0  0  0  0  0  0  0  0  0  0  0  0
  -19.2236  -27.6848   21.5333 C   0  0  0  0  0  0  0  0  0  0  0  0
  -25.3575  -17.0832   17.4572 C   0  0  0  0  0  0  0  0  0  0  0  0
  -27.4240  -26.6896   19.8377 C   0  0  0  0  0  0  0  0  0  0  0  0
  -28.6359  -29.1427   21.5801 C   0  0  0  0  0  0  0  0  0  0  0  0
  -27.3857  -31.5599   23.9489 C   0  0  0  0  0  0  0  0  0  0  0  0
  -23.8387  -22.8747   22.6963 C   0  0  0  0  0  0  0  0  0  0  0  0
  -28.7285  -22.1738   17.2354 C   0  0  0  0  0  0  0  0  0  0  0  0
  -26.3531  -28.6789   18.7188 C   0  0  0  0  0  0  0  0  0  0  0  0
  -26.1342  -28.8267   21.6641 C   0  0  0  0  0  0  0  0  0  0  0  0
  -28.9920  -22.4859   18.7049 C   0  0  0  0  0  0  0  0  0  0  0  0
  -26.5952  -20.8718   23.7293 C   0  0  0  0  0  0  0  0  0  0  0  0
  -28.9115  -23.9869   18.9400 C   0  0  0  0  0  0  0  0  0  0  0  0
  -16.1835  -26.5647   22.0342 C   0  0  0  0  0  0  0  0  0  0  0  0
  -26.5727  -19.6930   22.7536 C   0  0  0  0  0  0  0  0  0  0  0  0
  -15.8609  -28.0713   22.1211 C   0  0  0  0  0  0  0  0  0  0  0  0
  -25.1853  -21.3283   24.1000 C   0  0  0  0  0  0  0  0  0  0  0  0
  -18.4900  -26.0612   23.2180 C   0  0  0  0  0  0  0  0  0  0  0  0
  -24.2856  -20.4440   21.9839 C   0  0  0  0  0  0  0  0  0  0  0  0
  -27.5023  -24.5122   18.6379 C   0  0  1  0  0  0  0  0  0  0  0  0
  -27.4667  -28.1776   19.6330 C   0  0  1  0  0  0  0  0  0  0  0  0
  -17.1529  -26.7736   23.2271 C   0  0  1  0  0  0  0  0  0  0  0  0
  -25.6830  -19.9907   21.5307 C   0  0  2  0  0  0  0  0  0  0  0  0
  -17.2123  -28.2640   22.8439 C   0  0  1  0  0  0  0  0  0  0  0  0
  -21.5363  -23.3907   18.8091 C   0  0  0  0  0  0  0  0  0  0  0  0
  -28.2095  -33.8601   24.5214 C   0  0  0  0  0  0  0  0  0  0  0  0
  -30.1751  -27.7240   23.8000 C   0  0  0  0  0  0  0  0  0  0  0  0
  -29.6752  -29.6695   25.2945 C   0  0  0  0  0  0  0  0  0  0  0  0
  -31.0323  -30.0027   23.2281 C   0  0  0  0  0  0  0  0  0  0  0  0
  -24.7446  -32.7717   23.3875 C   0  0  0  0  0  0  0  0  0  0  0  0
  -20.1885  -28.2047   20.5266 C   0  0  0  0  0  0  0  0  0  1  0  0
  -28.5491  -29.5735   23.0243 C   0  0  1  0  0  0  0  0  0  0  0  0
  -27.2048  -33.0493   23.7177 C   0  0  2  0  0  0  0  0  0  0  0  0
  -29.8368  -29.2280   23.8242 C   0  0  0  0  0  0  0  0  0  0  0  0
  -25.6912  -17.5650   21.0863 N   0  0  0  0  0  0  0  0  0  0  0  0
  -25.6177  -18.8085   20.5819 N   0  0  0  0  0  0  0  0  0  0  0  0
  -19.3376  -26.4488   22.0612 N   0  0  0  0  0  0  0  0  0  0  0  0
  -27.4274  -28.7926   20.9613 N   0  0  0  0  0  0  0  0  0  0  0  0
  -24.4021  -21.5960   22.8918 N   0  0  0  0  0  0  0  0  0  0  0  0
  -18.2828  -28.5700   21.8786 N   0  3  0  0  0  0  0  0  0  0  0  0
  -25.4002  -20.0148   18.5550 N   0  0  0  0  0  0  0  0  0  0  0  0
  -25.3628  -15.7035   17.2107 N   0  0  0  0  0  0  0  0  0  0  0  0
  -23.1432  -23.0211   21.4965 N   0  0  0  0  0  0  0  0  0  0  0  0
  -27.5207  -25.9580   18.6694 N   0  0  0  0  0  0  0  0  0  0  0  0
  -28.2194  -30.9945   23.0074 N   0  0  0  0  0  0  0  0  0  0  0  0
  -25.8327  -33.4726   24.1168 N   0  3  0  0  0  0  0  0  0  0  0  0
  -25.2662  -17.8790   16.4918 O   0  0  0  0  0  0  0  0  0  0  0  0
  -27.3129  -26.2387   20.9717 O   0  0  0  0  0  0  0  0  0  0  0  0
  -29.7345  -29.1246   21.0194 O   0  0  0  0  0  0  0  0  0  0  0  0
  -26.8447  -30.9590   24.8745 O   0  0  0  0  0  0  0  0  0  0  0  0
  -23.9870  -23.7819   23.5191 O   0  0  0  0  0  0  0  0  0  0  0  0
  -25.7697  -11.2247   20.4974 O   0  0  0  0  0  0  0  0  0  0  0  0
  -21.2637  -28.8577   21.2003 O   0  0  0  0  0  0  0  0  0  1  0  0
  -21.2718   -8.6877   22.4304 F   0  0  0  0  0  0  0  0  0  0  0  0
  -24.4463   -9.3313   18.9788 F   0  0  0  0  0  0  0  0  0  0  0  0
  -21.4778  -24.8196   22.5540 S   0  0  0  0  0  0  0  0  0  0  0  0
  1  2  1  0  0  0  0
  1  5  2  0  0  0  0
  2  6  2  0  0  0  0
  3  8  2  0  0  0  0
  3 16  1  0  0  0  0
  4  9  1  0  0  0  0
  4 16  2  0  0  0  0
  5 18  1  0  0  0  0
  6 20  1  0  0  0  0
  7 10  2  0  0  0  0
  7 19  1  0  0  0  0
  8 23  1  0  0  0  0
  9 23  2  0  0  0  0
 10 24  1  0  0  0  0
 11 12  2  0  0  0  0
 11 25  1  0  0  0  0
 12 26  1  0  0  0  0
 13 21  1  0  0  0  0
 13 24  2  0  0  0  0
 14 22  1  0  0  0  0
 14 30  2  0  0  0  0
 15 26  2  0  0  0  0
 15 27  1  0  0  0  0
 16 28  1  0  0  0  0
 17 28  1  0  0  0  0
 17 29  2  0  0  0  0
 17 33  1  0  0  0  0
 18 20  2  0  0  0  0
 18 38  1  0  0  0  0
 19 21  2  0  0  0  0
 19 39  1  0  0  0  0
 20 50  1  0  0  0  0
 21 40  1  0  0  0  0
 22 31  2  0  0  0  0
 22 55  1  0  0  0  0
 23 82  1  0  0  0  0
 24 83  1  0  0  0  0
 25 27  2  0  0  0  0
 25 82  1  0  0  0  0
 26 84  1  0  0  0  0
 27 85  1  0  0  0  0
 28 65  2  0  0  0  0
 29 66  1  0  0  0  0
 29 71  1  0  0  0  0
 30 67  1  0  0  0  0
 30 86  1  0  0  0  0
 31 73  1  0  0  0  0
 31 86  1  0  0  0  0
 32 61  1  0  0  0  0
 32 67  1  0  0  0  0
 32 70  2  0  0  0  0
 33 72  1  0  0  0  0
 33 77  2  0  0  0  0
 34 51  1  0  0  0  0
 34 74  1  0  0  0  0
 34 78  2  0  0  0  0
 35 62  1  0  0  0  0
 35 68  1  0  0  0  0
 35 79  2  0  0  0  0
 36 63  1  0  0  0  0
 36 75  1  0  0  0  0
 36 80  2  0  0  0  0
 37 69  1  0  0  0  0
 37 73  1  0  0  0  0
 37 81  2  0  0  0  0
 38 41  1  0  0  0  0
 39 51  1  0  0  0  0
 40 68  1  0  0  0  0
 41 43  1  0  0  0  0
 42 45  1  0  0  0  0
 42 47  1  0  0  0  0
 43 50  1  0  0  0  0
 44 46  1  0  0  0  0
 44 52  1  0  0  0  0
 45 53  1  0  0  0  0
 46 54  1  0  0  0  0
 47 69  1  0  0  0  0
 48 52  1  0  0  0  0
 48 67  1  0  0  0  0
 49 53  1  0  0  0  0
 49 69  1  0  0  0  0
 50 74  1  0  0  0  0
 51 68  1  0  0  0  0
 52 54  1  0  0  0  0
 53 66  1  0  0  0  0
 54 70  1  0  0  0  0
 56 63  1  0  0  0  0
 57 64  1  0  0  0  0
 58 64  1  0  0  0  0
 59 64  1  0  0  0  0
 60 76  1  0  0  0  0
 61 83  1  0  0  0  0
 62 64  1  0  0  0  0
 62 75  1  0  0  0  0
 63 76  1  0  0  0  0
 65 66  1  0  0  0  0
M  CHG  2  70   1  76   1
M  ISO  4  37 100  61 101  73 100  83 101
M  END
> <Batch ID>
0154

> <Smiles>
CNC(C)C(=O)NC(C(=O)N1Cc2cc([101O:1][101CH2:1]C3=NC4CCC4CN3c3cc(C)c([100NH:0][100C:0](=O)N4CCCC(n5nc(-c6ccc(Oc7ccc(F)cc7F)cc6)c(C(N)=O)c5N)C4)s3)ccc2CC1C(=O)NC1CCCc2ccccc21)C(C)(C)C

> <Shape>
0.226

> <Color>
0.062

> <Negative vol penalty>
0.000

$$$$

  -OEChem-04052303333D

 83 92  0     1  0  0  0  0  0999 V2000
  -16.8162  -28.5278   23.3446 C   0  0  0  0  0  0  0  0  0  0  0  0
  -17.5297  -28.5157   22.1504 C   0  0  0  0  0  0  0  0  0  0  0  0
  -26.7008  -13.1398   21.0403 C   0  0  0  0  0  0  0  0  0  0  0  0
  -26.8863  -13.2387   18.6335 C   0  0  0  0  0  0  0  0  0  0  0  0
  -17.4312  -28.9610   24.5184 C   0  0  0  0  0  0  0  0  0  0  0  0
  -18.8585  -28.9379   22.1291 C   0  0  0  0  0  0  0  0  0  0  0  0
  -21.8398  -25.8367   19.4571 C   0  0  0  0  0  0  0  0  0  0  0  0
  -26.1627  -11.8564   20.9461 C   0  0  0  0  0  0  0  0  0  0  0  0
  -26.3482  -11.9552   18.5393 C   0  0  0  0  0  0  0  0  0  0  0  0
  -21.7903  -25.9462   18.0681 C   0  0  0  0  0  0  0  0  0  0  0  0
  -23.1757  -10.4562   20.2101 C   0  0  0  0  0  0  0  0  0  0  0  0
  -22.0550  -10.1654   20.9880 C   0  0  0  0  0  0  0  0  0  0  0  0
  -23.8143  -27.2581   18.1055 C   0  0  0  0  0  0  0  0  0  0  0  0
  -25.0473  -22.4284   15.4164 C   0  0  0  0  0  0  0  0  0  0  0  0
  -23.2822   -8.4048   22.0977 C   0  0  0  0  0  0  0  0  0  0  0  0
  -25.9056  -20.4696   14.5062 C   0  0  0  0  0  0  0  0  0  0  0  0
  -27.0625  -13.8310   19.8840 C   0  0  0  0  0  0  0  0  0  0  0  0
  -28.9774  -15.5027   20.0994 C   0  0  0  0  0  0  0  0  0  0  0  0
  -18.7712  -29.3796   24.5134 C   0  0  0  0  0  0  0  0  0  0  0  0
  -22.8726  -26.4473   20.1829 C   0  0  0  0  0  0  0  0  0  0  0  0
  -19.4917  -29.3784   23.3038 C   0  0  0  0  0  0  0  0  0  0  0  0
  -23.8760  -27.1527   19.5034 C   0  0  0  0  0  0  0  0  0  0  0  0
  -25.5102  -21.1037   15.6633 C   0  0  0  0  0  0  0  0  0  0  0  0
  -25.9864  -11.2641   19.6956 C   0  0  0  0  0  0  0  0  0  0  0  0
  -22.7761  -26.6594   17.3924 C   0  0  0  0  0  0  0  0  0  0  0  0
  -24.3496   -9.7212   20.3759 C   0  0  0  0  0  0  0  0  0  0  0  0
  -22.1083   -9.1398   21.9319 C   0  0  0  0  0  0  0  0  0  0  0  0
  -24.4029   -8.6956   21.3197 C   0  0  0  0  0  0  0  0  0  0  0  0
  -27.6179  -15.1570   19.9806 C   0  0  0  0  0  0  0  0  0  0  0  0
  -25.1068  -22.7564   14.0796 C   0  0  0  0  0  0  0  0  0  0  0  0
  -28.9791  -16.8750   20.1551 C   0  0  0  0  0  0  0  0  0  0  0  0
  -30.1352  -14.6587   20.1544 C   0  0  0  0  0  0  0  0  0  0  0  0
  -23.0145  -28.7073   22.4137 C   0  0  0  0  0  0  0  0  0  0  0  0
  -26.1537  -27.8933   22.4854 C   0  0  0  0  0  0  0  0  0  0  0  0
  -28.8314  -26.5315   20.8660 C   0  0  0  0  0  0  0  0  0  0  0  0
  -25.1933  -21.0463   18.1619 C   0  0  0  0  0  0  0  0  0  0  0  0
  -19.3789  -29.8841   25.7982 C   0  0  0  0  0  0  0  0  0  0  0  0
  -22.9264  -26.2973   21.6786 C   0  0  0  0  0  0  0  0  0  0  0  0
  -25.0174  -27.8096   20.2344 C   0  0  0  0  0  0  0  0  0  0  0  0
  -20.9031  -29.9611   25.7620 C   0  0  0  0  0  0  0  0  0  0  0  0
  -26.2591  -20.5706   21.5257 C   0  0  0  0  0  0  0  0  0  0  0  0
  -21.3737  -30.6209   24.4698 C   0  0  0  0  0  0  0  0  0  0  0  0
  -25.8545  -25.0454   13.4256 C   0  0  0  0  0  0  0  0  0  0  0  0
  -26.8577  -19.1622   21.5206 C   0  0  0  0  0  0  0  0  0  0  0  0
  -25.1303  -26.3521   13.1566 C   0  0  0  0  0  0  0  0  0  0  0  0
  -25.0378  -20.6711   20.6134 C   0  0  0  0  0  0  0  0  0  0  0  0
  -25.8509  -18.8012   19.2308 C   0  0  0  0  0  0  0  0  0  0  0  0
  -20.9423  -29.8053   23.2450 C   0  0  1  0  0  0  0  0  0  0  0  0
  -24.7215  -24.0222   13.4265 C   0  0  2  0  0  0  0  0  0  0  0  0
  -23.7405  -27.3928   22.3601 C   0  0  1  0  0  0  0  0  0  0  0  0
  -27.1221  -18.6674   20.0850 C   0  0  2  0  0  0  0  0  0  0  0  0
  -23.8483  -26.2643   13.9800 C   0  0  2  0  0  0  0  0  0  0  0  0
  -31.2736  -26.0391   21.1669 C   0  0  0  0  0  0  0  0  0  0  0  0
  -26.7998  -30.8431   22.0486 C   0  0  0  0  0  0  0  0  0  0  0  0
  -29.1262  -30.1681   21.4157 C   0  0  0  0  0  0  0  0  0  0  0  0
  -28.2703  -29.6879   23.7091 C   0  0  0  0  0  0  0  0  0  0  0  0
  -22.2206  -24.3381   13.7224 C   0  0  0  0  0  0  0  0  0  0  0  0
  -28.4037  -23.6214   20.5388 C   0  0  0  0  0  0  0  0  0  0  0  0
  -23.9759  -26.8909   15.3521 C   0  0  0  0  0  0  0  0  0  1  0  0
  -27.3930  -28.3478   21.7530 C   0  0  1  0  0  0  0  0  0  0  0  0
  -29.8574  -25.5025   21.3051 C   0  0  2  0  0  0  0  0  0  0  0  0
  -27.8749  -29.7511   22.2177 C   0  0  0  0  0  0  0  0  0  0  0  0
  -26.8144  -16.2238   19.9620 N   0  0  0  0  0  0  0  0  0  0  0  0
  -27.6715  -17.2532   20.0700 N   0  0  0  0  0  0  0  0  0  0  0  0
  -25.0224  -27.6399   21.6968 N   0  0  0  0  0  0  0  0  0  0  0  0
  -25.3645  -20.1892   19.2695 N   0  0  0  0  0  0  0  0  0  0  0  0
  -29.9716  -17.7831   20.2682 N   0  0  0  0  0  0  0  0  0  0  0  0
  -29.9541  -13.2707   20.0842 N   0  0  0  0  0  0  0  0  0  0  0  0
  -25.5674  -20.4899   16.9391 N   0  0  0  0  0  0  0  0  0  0  0  0
  -21.8028  -28.6541   23.0758 N   0  0  0  0  0  0  0  0  0  0  0  0
  -28.3813  -27.2888   21.9268 N   0  0  0  0  0  0  0  0  0  0  0  0
  -23.5933  -24.7656   14.1468 N   0  3  1  0  0  0  0  0  0  0  0  0
  -29.7397  -24.2682   20.4782 N   0  3  0  0  0  0  0  0  0  0  0  0
  -31.2945  -15.1210   20.2792 O   0  0  0  0  0  0  0  0  0  0  0  0
  -23.5171  -29.6968   21.8941 O   0  0  0  0  0  0  0  0  0  0  0  0
  -26.1901  -27.7608   23.7113 O   0  0  0  0  0  0  0  0  0  0  0  0
  -28.4684  -26.6540   19.6982 O   0  0  0  0  0  0  0  0  0  0  0  0
  -24.7734  -22.1990   18.2920 O   0  0  0  0  0  0  0  0  0  0  0  0
  -25.4616  -10.0116   19.6033 O   0  0  0  0  0  0  0  0  0  0  0  0
  -22.7298  -26.7684   16.0367 O   0  0  0  0  0  0  0  0  0  1  0  0
  -21.0325   -8.8617   22.6799 F   0  0  0  0  0  0  0  0  0  0  0  0
  -25.5282   -7.9868   21.4844 F   0  0  0  0  0  0  0  0  0  0  0  0
  -25.7184  -21.4701   13.1291 S   0  0  0  0  0  0  0  0  0  0  0  0
  1  2  1  0  0  0  0
  1  5  2  0  0  0  0
  2  6  2  0  0  0  0
  3  8  2  0  0  0  0
  3 17  1  0  0  0  0
  4  9  1  0  0  0  0
  4 17  2  0  0  0  0
  5 19  1  0  0  0  0
  6 21  1  0  0  0  0
  7 10  2  0  0  0  0
  7 20  1  0  0  0  0
  8 24  1  0  0  0  0
  9 24  2  0  0  0  0
 10 25  1  0  0  0  0
 11 12  2  0  0  0  0
 11 26  1  0  0  0  0
 12 27  1  0  0  0  0
 13 22  1  0  0  0  0
 13 25  2  0  0  0  0
 14 23  1  0  0  0  0
 14 30  2  0  0  0  0
 15 27  2  0  0  0  0
 15 28  1  0  0  0  0
 16 23  2  0  0  0  0
 16 83  1  0  0  0  0
 17 29  1  0  0  0  0
 18 29  1  0  0  0  0
 18 31  2  0  0  0  0
 18 32  1  0  0  0  0
 19 21  2  0  0  0  0
 19 37  1  0  0  0  0
 20 22  2  0  0  0  0
 20 38  1  0  0  0  0
 21 48  1  0  0  0  0
 22 39  1  0  0  0  0
 23 69  1  0  0  0  0
 24 79  1  0  0  0  0
 25 80  1  0  0  0  0
 26 28  2  0  0  0  0
 26 79  1  0  0  0  0
 27 81  1  0  0  0  0
 28 82  1  0  0  0  0
 29 63  2  0  0  0  0
 30 49  1  0  0  0  0
 30 83  1  0  0  0  0
 31 64  1  0  0  0  0
 31 67  1  0  0  0  0
 32 68  1  0  0  0  0
 32 74  2  0  0  0  0
 33 50  1  0  0  0  0
 33 70  1  0  0  0  0
 33 75  2  0  0  0  0
 34 60  1  0  0  0  0
 34 65  1  0  0  0  0
 34 76  2  0  0  0  0
 35 61  1  0  0  0  0
 35 71  1  0  0  0  0
 35 77  2  0  0  0  0
 36 66  1  0  0  0  0
 36 69  1  0  0  0  0
 36 78  2  0  0  0  0
 37 40  1  0  0  0  0
 38 50  1  0  0  0  0
 39 65  1  0  0  0  0
 40 42  1  0  0  0  0
 41 44  1  0  0  0  0
 41 46  1  0  0  0  0
 42 48  1  0  0  0  0
 43 45  1  0  0  0  0
 43 49  1  0  0  0  0
 44 51  1  0  0  0  0
 45 52  1  0  0  0  0
 46 66  1  0  0  0  0
 47 51  1  0  0  0  0
 47 66  1  0  0  0  0
 48 70  1  0  0  0  0
 49 72  1  0  0  0  0
 50 65  1  0  0  0  0
 51 64  1  0  0  0  0
 52 59  1  0  0  0  0
 52 72  1  0  0  0  0
 53 61  1  0  0  0  0
 54 62  1  0  0  0  0
 55 62  1  0  0  0  0
 56 62  1  0  0  0  0
 57 72  1  0  0  0  0
 58 73  1  0  0  0  0
 59 80  1  0  0  0  0
 60 62  1  0  0  0  0
 60 71  1  0  0  0  0
 61 73  1  0  0  0  0
 63 64  1  0  0  0  0
M  CHG  2  72   1  73   1
M  ISO  4  36 100  59 101  69 100  80 101
M  END
> <Batch ID>
0154

> <Smiles>
CNC(C)C(=O)NC(C(=O)N1Cc2cc([101O:1][101CH2:1]C3CCC(c4cc([100NH:0][100C:0](=O)N5CCCC(n6nc(-c7ccc(Oc8ccc(F)cc8F)cc7)c(C(N)=O)c6N)C5)cs4)N3C)ccc2CC1C(=O)NC1CCCc2ccccc21)C(C)(C)C

> <Shape>
0.219

> <Color>
0.086

> <Negative vol penalty>
0.000

$$$$

  -OEChem-04052303333D

 83 92  0     1  0  0  0  0  0999 V2000
  -27.0068  -22.8847   19.3100 C   0  0  0  0  0  0  0  0  0  0  0  0
  -25.8532  -23.5213   19.7562 C   0  0  0  0  0  0  0  0  0  0  0  0
  -23.5126  -13.2011   19.2367 C   0  0  0  0  0  0  0  0  0  0  0  0
  -24.7558  -14.3249   20.9770 C   0  0  0  0  0  0  0  0  0  0  0  0
  -28.2485  -23.2508   19.8280 C   0  0  0  0  0  0  0  0  0  0  0  0
  -25.9404  -24.5238   20.7216 C   0  0  0  0  0  0  0  0  0  0  0  0
  -23.0886  -28.5552   19.5988 C   0  0  0  0  0  0  0  0  0  0  0  0
  -24.5457  -12.2745   19.0971 C   0  0  0  0  0  0  0  0  0  0  0  0
  -25.7889  -13.3982   20.8374 C   0  0  0  0  0  0  0  0  0  0  0  0
  -21.7191  -28.4531   19.8390 C   0  0  0  0  0  0  0  0  0  0  0  0
  -28.9106  -11.5426   20.6910 C   0  0  0  0  0  0  0  0  0  0  0  0
  -30.2175  -12.0287   20.6577 C   0  0  0  0  0  0  0  0  0  0  0  0
  -21.9941  -29.6832   21.8957 C   0  0  0  0  0  0  0  0  0  0  0  0
  -18.8200  -23.6151   21.9448 C   0  0  0  0  0  0  0  0  0  0  0  0
  -29.6822  -13.3335   18.6960 C   0  0  0  0  0  0  0  0  0  0  0  0
  -18.8967  -21.9527   23.5675 C   0  0  0  0  0  0  0  0  0  0  0  0
  -23.6176  -14.2264   20.1767 C   0  0  0  0  0  0  0  0  0  0  0  0
  -21.4365  -15.0932   21.1762 C   0  0  0  0  0  0  0  0  0  0  0  0
  -28.3519  -24.2650   20.7931 C   0  0  0  0  0  0  0  0  0  0  0  0
  -23.9243  -29.2137   20.5123 C   0  0  0  0  0  0  0  0  0  0  0  0
  -27.1844  -24.9029   21.2539 C   0  0  0  0  0  0  0  0  0  0  0  0
  -23.3735  -29.7946   21.6636 C   0  0  0  0  0  0  0  0  0  0  0  0
  -19.2867  -22.3158   22.2972 C   0  0  0  0  0  0  0  0  0  0  0  0
  -25.6839  -12.3730   19.8974 C   0  0  0  0  0  0  0  0  0  0  0  0
  -21.1720  -29.0146   20.9890 C   0  0  0  0  0  0  0  0  0  0  0  0
  -27.9894  -11.9518   19.7267 C   0  0  0  0  0  0  0  0  0  0  0  0
  -30.6033  -12.9242   19.6603 C   0  0  0  0  0  0  0  0  0  0  0  0
  -28.3752  -12.8472   18.7293 C   0  0  0  0  0  0  0  0  0  0  0  0
  -22.5510  -15.1843   20.3210 C   0  0  0  0  0  0  0  0  0  0  0  0
  -18.0907  -24.1956   22.9593 C   0  0  0  0  0  0  0  0  0  0  0  0
  -20.7273  -16.2454   20.9400 C   0  0  0  0  0  0  0  0  0  0  0  0
  -21.0748  -14.0595   22.1016 C   0  0  0  0  0  0  0  0  0  0  0  0
  -17.4794  -25.5343   22.8792 C   0  0  0  0  0  0  0  0  0  0  0  0
  -26.3924  -28.3510   22.3200 C   0  0  0  0  0  0  0  0  0  0  0  0
  -26.5219  -31.5252   22.9755 C   0  0  0  0  0  0  0  0  0  0  0  0
  -24.8908  -34.5184   23.1404 C   0  0  0  0  0  0  0  0  0  0  0  0
  -20.5031  -21.7545   20.1637 C   0  0  0  0  0  0  0  0  0  0  0  0
  -29.7111  -24.5936   21.3580 C   0  0  0  0  0  0  0  0  0  0  0  0
  -25.3955  -29.3385   20.2255 C   0  0  0  0  0  0  0  0  0  0  0  0
  -24.2244  -30.5297   22.6656 C   0  0  0  0  0  0  0  0  0  0  0  0
  -29.7550  -25.9244   22.1045 C   0  0  0  0  0  0  0  0  0  0  0  0
  -21.2396  -19.7447   17.3185 C   0  0  0  0  0  0  0  0  0  0  0  0
  -28.5659  -26.0441   23.0525 C   0  0  0  0  0  0  0  0  0  0  0  0
  -21.5548  -18.3716   17.9164 C   0  0  0  0  0  0  0  0  0  0  0  0
  -21.7534  -20.8796   18.2026 C   0  0  0  0  0  0  0  0  0  0  0  0
  -21.6363  -19.4458   20.2025 C   0  0  0  0  0  0  0  0  0  0  0  0
  -17.9292  -27.9756   22.5619 C   0  0  0  0  0  0  0  0  0  0  0  0
  -27.2405  -26.0122   22.2818 C   0  0  1  0  0  0  0  0  0  0  0  0
  -26.2298  -29.5852   21.4786 C   0  0  1  0  0  0  0  0  0  0  0  0
  -21.0810  -18.2718   19.3797 C   0  0  2  0  0  0  0  0  0  0  0  0
  -19.4358  -28.2471   22.4216 C   0  0  1  0  0  0  0  0  0  1  0  0
  -19.6574  -26.7175   22.4455 C   0  0  1  0  0  0  0  0  0  0  0  0
  -20.4874  -26.1789   23.5926 C   0  0  0  0  0  0  0  0  0  0  0  0
  -25.2502  -36.9269   23.7465 C   0  0  0  0  0  0  0  0  0  0  0  0
  -26.4402  -30.7899   25.9356 C   0  0  0  0  0  0  0  0  0  0  0  0
  -25.8471  -33.1697   26.4389 C   0  0  0  0  0  0  0  0  0  0  0  0
  -28.0318  -32.6316   25.3618 C   0  0  0  0  0  0  0  0  0  0  0  0
  -24.2284  -35.4267   20.4027 C   0  0  0  0  0  0  0  0  0  0  0  0
  -25.9022  -32.4285   24.0143 C   0  0  1  0  0  0  0  0  0  0  0  0
  -25.2626  -35.8978   22.6269 C   0  0  2  0  0  0  0  0  0  0  0  0
  -26.5393  -32.2394   25.4199 C   0  0  0  0  0  0  0  0  0  0  0  0
  -22.5539  -16.3058   19.5955 N   0  0  0  0  0  0  0  0  0  0  0  0
  -21.4324  -16.9299   19.9942 N   0  0  0  0  0  0  0  0  0  0  0  0
  -18.2402  -26.5754   22.6816 N   0  0  0  0  0  0  0  0  0  0  0  0
  -25.6582  -30.6193   22.3436 N   0  0  0  0  0  0  0  0  0  0  0  0
  -21.2609  -20.7215   19.5727 N   0  0  0  0  0  0  0  0  0  0  0  0
  -19.5755  -16.7298   21.4510 N   0  0  0  0  0  0  0  0  0  0  0  0
  -21.9156  -12.9444   22.2199 N   0  0  0  0  0  0  0  0  0  0  0  0
  -20.0614  -21.4780   21.4572 N   0  0  0  0  0  0  0  0  0  0  0  0
  -26.9872  -27.2935   21.6586 N   0  0  0  0  0  0  0  0  0  0  0  0
  -26.0056  -33.7856   23.4890 N   0  0  0  0  0  0  0  0  0  0  0  0
  -16.1618  -25.6596   23.0078 N   0  3  0  0  0  0  0  0  0  0  0  0
  -24.3013  -36.3355   21.5756 N   0  3  0  0  0  0  0  0  0  0  0  0
  -20.0281  -14.1150   22.7907 O   0  0  0  0  0  0  0  0  0  0  0  0
  -26.0080  -28.3580   23.4836 O   0  0  0  0  0  0  0  0  0  0  0  0
  -27.7263  -31.6248   22.7285 O   0  0  0  0  0  0  0  0  0  0  0  0
  -23.7276  -34.1312   23.2272 O   0  0  0  0  0  0  0  0  0  0  0  0
  -20.2405  -22.7957   19.5564 O   0  0  0  0  0  0  0  0  0  0  0  0
  -26.6921  -11.4688   19.7616 O   0  0  0  0  0  0  0  0  0  0  0  0
  -19.8357  -28.9158   21.2261 O   0  0  0  0  0  0  0  0  0  1  0  0
  -31.8580  -13.3922   19.6293 F   0  0  0  0  0  0  0  0  0  0  0  0
  -27.4944  -13.2449   17.8009 F   0  0  0  0  0  0  0  0  0  0  0  0
  -17.9715  -23.1757   24.3296 S   0  0  0  0  0  0  0  0  0  0  0  0
  1  2  1  0  0  0  0
  1  5  2  0  0  0  0
  2  6  2  0  0  0  0
  3  8  2  0  0  0  0
  3 17  1  0  0  0  0
  4  9  1  0  0  0  0
  4 17  2  0  0  0  0
  5 19  1  0  0  0  0
  6 21  1  0  0  0  0
  7 10  2  0  0  0  0
  7 20  1  0  0  0  0
  8 24  1  0  0  0  0
  9 24  2  0  0  0  0
 10 25  1  0  0  0  0
 11 12  2  0  0  0  0
 11 26  1  0  0  0  0
 12 27  1  0  0  0  0
 13 22  1  0  0  0  0
 13 25  2  0  0  0  0
 14 23  1  0  0  0  0
 14 30  2  0  0  0  0
 15 27  2  0  0  0  0
 15 28  1  0  0  0  0
 16 23  2  0  0  0  0
 16 83  1  0  0  0  0
 17 29  1  0  0  0  0
 18 29  1  0  0  0  0
 18 31  2  0  0  0  0
 18 32  1  0  0  0  0
 19 21  2  0  0  0  0
 19 38  1  0  0  0  0
 20 22  2  0  0  0  0
 20 39  1  0  0  0  0
 21 48  1  0  0  0  0
 22 40  1  0  0  0  0
 23 69  1  0  0  0  0
 24 79  1  0  0  0  0
 25 80  1  0  0  0  0
 26 28  2  0  0  0  0
 26 79  1  0  0  0  0
 27 81  1  0  0  0  0
 28 82  1  0  0  0  0
 29 62  2  0  0  0  0
 30 33  1  0  0  0  0
 30 83  1  0  0  0  0
 31 63  1  0  0  0  0
 31 67  1  0  0  0  0
 32 68  1  0  0  0  0
 32 74  2  0  0  0  0
 33 64  1  0  0  0  0
 33 72  2  0  0  0  0
 34 49  1  0  0  0  0
 34 70  1  0  0  0  0
 34 75  2  0  0  0  0
 35 59  1  0  0  0  0
 35 65  1  0  0  0  0
 35 76  2  0  0  0  0
 36 60  1  0  0  0  0
 36 71  1  0  0  0  0
 36 77  2  0  0  0  0
 37 66  1  0  0  0  0
 37 69  1  0  0  0  0
 37 78  2  0  0  0  0
 38 41  1  0  0  0  0
 39 49  1  0  0  0  0
 40 65  1  0  0  0  0
 41 43  1  0  0  0  0
 42 44  1  0  0  0  0
 42 45  1  0  0  0  0
 43 48  1  0  0  0  0
 44 50  1  0  0  0  0
 45 66  1  0  0  0  0
 46 50  1  0  0  0  0
 46 66  1  0  0  0  0
 47 51  1  0  0  0  0
 47 64  1  0  0  0  0
 48 70  1  0  0  0  0
 49 65  1  0  0  0  0
 50 63  1  0  0  0  0
 51 52  1  0  0  0  0
 51 80  1  0  0  0  0
 52 53  1  0  0  0  0
 52 64  1  0  0  0  0
 54 60  1  0  0  0  0
 55 61  1  0  0  0  0
 56 61  1  0  0  0  0
 57 61  1  0  0  0  0
 58 73  1  0  0  0  0
 59 61  1  0  0  0  0
 59 71  1  0  0  0  0
 60 73  1  0  0  0  0
 62 63  1  0  0  0  0
M  CHG  2  72   1  73   1
M  ISO  4  37 100  51 101  69 100  80 101
M  END
> <Batch ID>
0154

> <Smiles>
CNC(C)C(=O)NC(C(=O)N1Cc2cc([101O:1][101CH:1]3CN(C(=N)c4cc([100NH:0][100C:0](=O)N5CCCC(n6nc(-c7ccc(Oc8ccc(F)cc8F)cc7)c(C(N)=O)c6N)C5)cs4)C3C)ccc2CC1C(=O)NC1CCCc2ccccc21)C(C)(C)C

> <Shape>
0.273

> <Color>
0.090

> <Negative vol penalty>
0.000

$$$$

  -OEChem-04052303333D

 82 91  0     1  0  0  0  0  0999 V2000
  -29.5647  -36.1827   18.7172 C   0  0  0  0  0  0  0  0  0  0  0  0
  -29.3709  -34.8578   18.3400 C   0  0  0  0  0  0  0  0  0  0  0  0
  -24.7773   -8.6765   21.4780 C   0  0  0  0  0  0  0  0  0  0  0  0
  -23.1426  -10.3850   20.9821 C   0  0  0  0  0  0  0  0  0  0  0  0
  -29.3981  -36.5586   20.0495 C   0  0  0  0  0  0  0  0  0  0  0  0
  -29.0114  -33.9075   19.2952 C   0  0  0  0  0  0  0  0  0  0  0  0
  -25.3344  -29.0781   18.4814 C   0  0  0  0  0  0  0  0  0  0  0  0
  -23.8868   -8.0844   22.3735 C   0  0  0  0  0  0  0  0  0  0  0  0
  -22.2520   -9.7928   21.8776 C   0  0  0  0  0  0  0  0  0  0  0  0
  -25.5961  -27.7298   18.2415 C   0  0  0  0  0  0  0  0  0  0  0  0
  -21.9105   -5.9169   24.5209 C   0  0  0  0  0  0  0  0  0  0  0  0
  -21.7681   -4.5302   24.4726 C   0  0  0  0  0  0  0  0  0  0  0  0
  -25.3724  -27.2731   20.5996 C   0  0  0  0  0  0  0  0  0  0  0  0
  -27.6198  -19.0935   19.4653 C   0  0  0  0  0  0  0  0  0  0  0  0
  -21.0295   -4.6861   22.1775 C   0  0  0  0  0  0  0  0  0  0  0  0
  -25.4863  -18.2243   19.1570 C   0  0  0  0  0  0  0  0  0  0  0  0
  -24.4052   -9.8268   20.7823 C   0  0  0  0  0  0  0  0  0  0  0  0
  -25.4561  -10.1661   18.4827 C   0  0  0  0  0  0  0  0  0  0  0  0
  -29.0269  -35.6143   21.0197 C   0  0  0  0  0  0  0  0  0  0  0  0
  -25.1002  -29.5366   19.7857 C   0  0  0  0  0  0  0  0  0  0  0  0
  -28.8410  -34.2708   20.6419 C   0  0  0  0  0  0  0  0  0  0  0  0
  -25.1054  -28.6272   20.8530 C   0  0  0  0  0  0  0  0  0  0  0  0
  -26.7951  -17.9316   19.4714 C   0  0  0  0  0  0  0  0  0  0  0  0
  -22.6242   -8.6425   22.5734 C   0  0  0  0  0  0  0  0  0  0  0  0
  -25.6180  -26.8276   19.3011 C   0  0  0  0  0  0  0  0  0  0  0  0
  -21.6123   -6.6883   23.3976 C   0  0  0  0  0  0  0  0  0  0  0  0
  -21.3276   -3.9148   23.3009 C   0  0  0  0  0  0  0  0  0  0  0  0
  -21.1719   -6.0729   22.2259 C   0  0  0  0  0  0  0  0  0  0  0  0
  -25.3248  -10.4393   19.8574 C   0  0  0  0  0  0  0  0  0  0  0  0
  -26.4589  -11.0043   18.0603 C   0  0  0  0  0  0  0  0  0  0  0  0
  -26.9098  -20.2301   19.1462 C   0  0  0  0  0  0  0  0  0  0  0  0
  -27.5407  -23.8234   18.8974 C   0  0  0  0  0  0  0  0  0  0  0  0
  -27.1739  -25.0918   19.1091 C   0  0  0  0  0  0  0  0  0  1  0  0
  -24.7359   -9.2379   17.6609 C   0  0  0  0  0  0  0  0  0  0  0  0
  -26.5450  -31.5901   21.7350 C   0  0  0  0  0  0  0  0  0  0  0  0
  -23.9704  -31.0101   23.6211 C   0  0  0  0  0  0  0  0  0  0  0  0
  -21.4291  -28.9032   24.4870 C   0  0  0  0  0  0  0  0  0  0  0  0
  -28.5416  -16.2245   20.0892 C   0  0  0  0  0  0  0  0  0  0  0  0
  -28.9048  -36.0587   22.4558 C   0  0  0  0  0  0  0  0  0  0  0  0
  -24.7930  -30.9895   20.0244 C   0  0  0  0  0  0  0  0  0  0  0  0
  -24.8401  -29.0653   22.2694 C   0  0  0  0  0  0  0  0  0  0  0  0
  -28.9483  -23.3180   18.9299 C   0  0  0  0  0  0  0  0  0  0  0  0
  -26.5957  -22.6748   18.7098 C   0  0  0  0  0  0  0  0  0  0  0  0
  -28.1574  -35.0637   23.3398 C   0  0  0  0  0  0  0  0  0  0  0  0
  -30.3998  -13.2209   19.6384 C   0  0  0  0  0  0  0  0  0  0  0  0
  -28.6662  -33.6464   23.0966 C   0  0  0  0  0  0  0  0  0  0  0  0
  -29.3210  -12.1427   19.5122 C   0  0  0  0  0  0  0  0  0  0  0  0
  -28.7814  -21.8787   19.4091 C   0  0  0  0  0  0  0  0  0  0  0  0
  -30.0091  -14.2986   20.6483 C   0  0  0  0  0  0  0  0  0  0  0  0
  -27.6153  -13.8341   20.2976 C   0  0  0  0  0  0  0  0  0  0  0  0
  -28.4263  -33.2158   21.6445 C   0  0  1  0  0  0  0  0  0  0  0  0
  -25.0769  -31.4329   21.4563 C   0  0  1  0  0  0  0  0  0  0  0  0
  -27.9349  -12.7611   19.2440 C   0  0  2  0  0  0  0  0  0  0  0  0
  -19.5105  -28.6853   26.0899 C   0  0  0  0  0  0  0  0  0  0  0  0
  -25.9239  -30.3246   25.8625 C   0  0  0  0  0  0  0  0  0  0  0  0
  -24.0319  -29.2286   27.0819 C   0  0  0  0  0  0  0  0  0  0  0  0
  -23.9425  -31.6707   26.5810 C   0  0  0  0  0  0  0  0  0  0  0  0
  -19.4523  -28.7945   22.2871 C   0  0  0  0  0  0  0  0  0  0  0  0
  -23.6401  -30.0079   24.7007 C   0  0  1  0  0  0  0  0  0  0  0  0
  -19.9478  -29.1498   24.7093 C   0  0  2  0  0  0  0  0  0  0  0  0
  -24.3916  -30.2997   26.0302 C   0  0  0  0  0  0  0  0  0  0  0  0
  -26.1762  -11.3774   20.2803 N   0  0  0  0  0  0  0  0  0  0  0  0
  -26.8522  -11.7011   19.1648 N   0  0  0  0  0  0  0  0  0  0  0  0
  -27.4119  -21.5134   19.0545 N   0  0  3  0  0  0  0  0  0  0  0  0
  -24.5509  -30.4973   22.4524 N   0  0  0  0  0  0  0  0  0  0  0  0
  -28.6871  -14.8416   20.3284 N   0  0  0  0  0  0  0  0  0  0  0  0
  -27.0338  -11.2057   16.8556 N   0  0  0  0  0  0  0  0  0  0  0  0
  -23.7375   -8.4541   18.2554 N   0  0  0  0  0  0  0  0  0  0  0  0
  -27.2449  -16.6198   19.7625 N   0  0  0  0  0  0  0  0  0  0  0  0
  -27.0404  -32.8479   21.4488 N   0  0  0  0  0  0  0  0  0  0  0  0
  -22.1864  -30.0051   24.8242 N   0  0  0  0  0  0  0  0  0  0  0  0
  -19.1424  -28.4187   23.6906 N   0  3  0  0  0  0  0  0  0  0  0  0
  -24.9819   -9.0956   16.4391 O   0  0  0  0  0  0  0  0  0  0  0  0
  -27.1808  -30.6409   22.1783 O   0  0  0  0  0  0  0  0  0  0  0  0
  -23.7159  -32.2030   23.8050 O   0  0  0  0  0  0  0  0  0  0  0  0
  -21.8705  -27.8384   24.0608 O   0  0  0  0  0  0  0  0  0  0  0  0
  -29.5023  -16.9967   20.1417 O   0  0  0  0  0  0  0  0  0  0  0  0
  -21.7549   -8.0648   23.4470 O   0  0  0  0  0  0  0  0  0  0  0  0
  -25.8738  -25.5112   19.0698 O   0  0  0  0  0  0  0  0  0  1  0  0
  -21.1924   -2.5830   23.2541 F   0  0  0  0  0  0  0  0  0  0  0  0
  -20.8850   -6.8085   21.1432 F   0  0  0  0  0  0  0  0  0  0  0  0
  -25.2559  -19.8943   18.8560 S   0  0  0  0  0  0  0  0  0  0  0  0
  1  2  1  0  0  0  0
  1  5  2  0  0  0  0
  2  6  2  0  0  0  0
  3  8  2  0  0  0  0
  3 17  1  0  0  0  0
  4  9  1  0  0  0  0
  4 17  2  0  0  0  0
  5 19  1  0  0  0  0
  6 21  1  0  0  0  0
  7 10  2  0  0  0  0
  7 20  1  0  0  0  0
  8 24  1  0  0  0  0
  9 24  2  0  0  0  0
 10 25  1  0  0  0  0
 11 12  2  0  0  0  0
 11 26  1  0  0  0  0
 12 27  1  0  0  0  0
 13 22  1  0  0  0  0
 13 25  2  0  0  0  0
 14 23  1  0  0  0  0
 14 31  2  0  0  0  0
 15 27  2  0  0  0  0
 15 28  1  0  0  0  0
 16 23  2  0  0  0  0
 16 82  1  0  0  0  0
 17 29  1  0  0  0  0
 18 29  1  0  0  0  0
 18 30  2  0  0  0  0
 18 34  1  0  0  0  0
 19 21  2  0  0  0  0
 19 39  1  0  0  0  0
 20 22  2  0  0  0  0
 20 40  1  0  0  0  0
 21 51  1  0  0  0  0
 22 41  1  0  0  0  0
 23 69  1  0  0  0  0
 24 78  1  0  0  0  0
 25 79  1  0  0  0  0
 26 28  2  0  0  0  0
 26 78  1  0  0  0  0
 27 80  1  0  0  0  0
 28 81  1  0  0  0  0
 29 62  2  0  0  0  0
 30 63  1  0  0  0  0
 30 67  1  0  0  0  0
 31 64  1  0  0  0  0
 31 82  1  0  0  0  0
 32 33  2  0  0  0  0
 32 42  1  0  0  0  0
 32 43  1  0  0  0  0
 33 79  1  0  0  0  0
 34 68  1  0  0  0  0
 34 73  2  0  0  0  0
 35 52  1  0  0  0  0
 35 70  1  0  0  0  0
 35 74  2  0  0  0  0
 36 59  1  0  0  0  0
 36 65  1  0  0  0  0
 36 75  2  0  0  0  0
 37 60  1  0  0  0  0
 37 71  1  0  0  0  0
 37 76  2  0  0  0  0
 38 66  1  0  0  0  0
 38 69  1  0  0  0  0
 38 77  2  0  0  0  0
 39 44  1  0  0  0  0
 40 52  1  0  0  0  0
 41 65  1  0  0  0  0
 42 48  1  0  0  0  0
 43 64  1  0  0  0  0
 44 46  1  0  0  0  0
 45 47  1  0  0  0  0
 45 49  1  0  0  0  0
 46 51  1  0  0  0  0
 47 53  1  0  0  0  0
 48 64  1  0  0  0  0
 49 66  1  0  0  0  0
 50 53  1  0  0  0  0
 50 66  1  0  0  0  0
 51 70  1  0  0  0  0
 52 65  1  0  0  0  0
 53 63  1  0  0  0  0
 54 60  1  0  0  0  0
 55 61  1  0  0  0  0
 56 61  1  0  0  0  0
 57 61  1  0  0  0  0
 58 72  1  0  0  0  0
 59 61  1  0  0  0  0
 59 71  1  0  0  0  0
 60 72  1  0  0  0  0
 62 63  1  0  0  0  0
M  CHG  1  72   1
M  ISO  4  33 101  38 100  69 100  79 101
M  END
> <Batch ID>
0154

> <Smiles>
CNC(C)C(=O)NC(C(=O)N1Cc2cc([101O:1][101CH:1]=C3CCN(c4cc([100NH:0][100C:0](=O)N5CCCC(n6nc(-c7ccc(Oc8ccc(F)cc8F)cc7)c(C(N)=O)c6N)C5)cs4)C3)ccc2CC1C(=O)NC1CCCc2ccccc21)C(C)(C)C

> <Shape>
0.272

> <Color>
0.112

> <Negative vol penalty>
0.000

$$$$

  -OEChem-04052303333D

 82 90  0     1  0  0  0  0  0999 V2000
  -27.1397  -37.7283   18.8729 C   0  0  0  0  0  0  0  0  0  0  0  0
  -27.5252  -36.4324   18.5451 C   0  0  0  0  0  0  0  0  0  0  0  0
  -25.6239  -12.3922   22.0370 C   0  0  0  0  0  0  0  0  0  0  0  0
  -25.7744  -12.4829   19.6274 C   0  0  0  0  0  0  0  0  0  0  0  0
  -26.7568  -38.0311   20.1789 C   0  0  0  0  0  0  0  0  0  0  0  0
  -27.5291  -35.4387   19.5234 C   0  0  0  0  0  0  0  0  0  0  0  0
  -26.1944  -29.5113   18.7557 C   0  0  0  0  0  0  0  0  0  0  0  0
  -24.4075  -11.7171   21.9357 C   0  0  0  0  0  0  0  0  0  0  0  0
  -24.5580  -11.8078   19.5260 C   0  0  0  0  0  0  0  0  0  0  0  0
  -26.9964  -28.3835   18.5864 C   0  0  0  0  0  0  0  0  0  0  0  0
  -23.4479   -8.6263   19.7838 C   0  0  0  0  0  0  0  0  0  0  0  0
  -23.3631   -7.5816   18.8636 C   0  0  0  0  0  0  0  0  0  0  0  0
  -26.8407  -27.9253   20.9497 C   0  0  0  0  0  0  0  0  0  0  0  0
  -28.3934  -21.2168   15.2506 C   0  0  0  0  0  0  0  0  0  0  0  0
  -21.5861   -8.7424   17.7095 C   0  0  0  0  0  0  0  0  0  0  0  0
  -26.3073  -12.7752   20.8829 C   0  0  0  0  0  0  0  0  0  0  0  0
  -28.8499  -12.9040   21.0457 C   0  0  0  0  0  0  0  0  0  0  0  0
  -26.7467  -37.0385   21.1715 C   0  0  0  0  0  0  0  0  0  0  0  0
  -25.7177  -29.8612   20.0272 C   0  0  0  0  0  0  0  0  0  0  0  0
  -27.1469  -35.7289   20.8442 C   0  0  0  0  0  0  0  0  0  0  0  0
  -26.0307  -29.0566   21.1321 C   0  0  0  0  0  0  0  0  0  0  0  0
  -28.6198  -21.0355   16.6456 C   0  0  0  0  0  0  0  0  0  0  0  0
  -23.8746  -11.4249   20.6802 C   0  0  0  0  0  0  0  0  0  0  0  0
  -27.3221  -27.5919   19.6839 C   0  0  0  0  0  0  0  0  0  0  0  0
  -22.6018   -9.7291   19.6670 C   0  0  0  0  0  0  0  0  0  0  0  0
  -22.4322   -7.6396   17.8264 C   0  0  0  0  0  0  0  0  0  0  0  0
  -21.6709   -9.7872   18.6298 C   0  0  0  0  0  0  0  0  0  0  0  0
  -27.5636  -13.4730   20.9870 C   0  0  0  0  0  0  0  0  0  0  0  0
  -28.4916  -20.0335   14.5523 C   0  0  0  0  0  0  0  0  0  0  0  0
  -29.6977  -13.9806   21.1383 C   0  0  0  0  0  0  0  0  0  0  0  0
  -28.8823  -19.7202   16.9604 C   0  0  0  0  0  0  0  0  0  0  0  0
  -29.2431  -11.5254   21.0188 C   0  0  0  0  0  0  0  0  0  0  0  0
  -26.0833  -32.3670   21.9485 C   0  0  0  0  0  0  0  0  0  0  0  0
  -28.3340  -24.2975   18.4787 C   0  0  0  0  0  0  0  0  0  0  0  0
  -23.8632  -30.8241   23.7409 C   0  0  0  0  0  0  0  0  0  0  0  0
  -22.3554  -27.8805   24.5827 C   0  0  0  0  0  0  0  0  0  0  0  0
  -29.2382  -19.6953   19.4542 C   0  0  0  0  0  0  0  0  0  0  0  0
  -26.3702  -37.4243   22.5801 C   0  0  0  0  0  0  0  0  0  0  0  0
  -24.8316  -31.0658   20.1889 C   0  0  0  0  0  0  0  0  0  0  0  0
  -25.5275  -29.3776   22.5149 C   0  0  0  0  0  0  0  0  0  0  0  0
  -26.0430  -36.2295   23.4721 C   0  0  0  0  0  0  0  0  0  0  0  0
  -29.8641  -18.4888   22.7451 C   0  0  0  0  0  0  0  0  0  0  0  0
  -27.0986  -35.1398   23.3133 C   0  0  0  0  0  0  0  0  0  0  0  0
  -29.4680  -17.0124   22.6714 C   0  0  0  0  0  0  0  0  0  0  0  0
  -28.9426  -19.3661   21.8995 C   0  0  0  0  0  0  0  0  0  0  0  0
  -28.3986  -17.4673   20.4272 C   0  0  0  0  0  0  0  0  0  0  0  0
  -27.1404  -34.6181   21.8719 C   0  0  1  0  0  0  0  0  0  0  0  0
  -24.8258  -31.6168   21.6115 C   0  0  1  0  0  0  0  0  0  0  0  0
  -29.3376  -16.5361   21.2114 C   0  0  2  0  0  0  0  0  0  0  0  0
  -28.3250  -19.8044   13.1005 C   0  0  0  0  0  0  0  0  0  0  0  0
  -20.6021  -26.9304   26.1060 C   0  0  0  0  0  0  0  0  0  0  0  0
  -25.7918  -31.0460   26.0950 C   0  0  0  0  0  0  0  0  0  0  0  0
  -24.4429  -29.2976   27.2748 C   0  0  0  0  0  0  0  0  0  0  0  0
  -23.3954  -31.4780   26.6653 C   0  0  0  0  0  0  0  0  0  0  0  0
  -20.7271  -26.9255   22.3033 C   0  0  0  0  0  0  0  0  0  0  0  0
  -28.3043  -23.4404   17.2310 C   0  0  0  0  0  0  0  0  0  0  0  0
  -28.0658  -25.7745   18.2651 C   0  0  0  0  0  0  0  0  0  1  0  0
  -23.9076  -29.7976   24.8470 C   0  0  1  0  0  0  0  0  0  0  0  0
  -20.8920  -27.5037   24.7276 C   0  0  2  0  0  0  0  0  0  0  0  0
  -24.3956  -30.3996   26.1949 C   0  0  0  0  0  0  0  0  0  0  0  0
  -27.5873  -14.8075   21.0382 N   0  0  0  0  0  0  0  0  0  0  0  0
  -28.8989  -15.0860   21.1302 N   0  0  0  0  0  0  0  0  0  0  0  0
  -24.6697  -30.5692   22.6227 N   0  0  0  0  0  0  0  0  0  0  0  0
  -28.8713  -18.8569   20.5282 N   0  0  0  0  0  0  0  0  0  0  0  0
  -31.0412  -14.0800   21.2253 N   0  0  0  0  0  0  0  0  0  0  0  0
  -28.2441  -10.5474   20.9203 N   0  0  0  0  0  0  0  0  0  0  0  0
  -28.5794  -22.0680   17.5717 N   0  0  0  0  0  0  0  0  0  0  0  0
  -29.1613  -19.0919   18.1994 N   0  0  0  0  0  0  0  0  0  0  0  0
  -26.0389  -33.7110   21.6306 N   0  0  0  0  0  0  0  0  0  0  0  0
  -22.5768  -29.2027   24.9053 N   0  0  0  0  0  0  0  0  0  0  0  0
  -20.5157  -26.4856   23.7065 N   0  3  0  0  0  0  0  0  0  0  0  0
  -30.4438  -11.1708   21.0968 O   0  0  0  0  0  0  0  0  0  0  0  0
  -27.0237  -31.7709   22.4604 O   0  0  0  0  0  0  0  0  0  0  0  0
  -28.5599  -23.8369   19.5970 O   0  0  0  0  0  0  0  0  0  0  0  0
  -23.1343  -31.8119   23.8615 O   0  0  0  0  0  0  0  0  0  0  0  0
  -23.2167  -27.0808   24.2230 O   0  0  0  0  0  0  0  0  0  0  0  0
  -29.6205  -20.8539   19.6367 O   0  0  0  0  0  0  0  0  0  0  0  0
  -22.6878  -10.7659   20.5809 O   0  0  0  0  0  0  0  0  0  0  0  0
  -28.1053  -26.4910   19.5215 O   0  0  0  0  0  0  0  0  0  1  0  0
  -22.3519   -6.6369   16.9419 F   0  0  0  0  0  0  0  0  0  0  0  0
  -20.8562  -10.8446   18.5116 F   0  0  0  0  0  0  0  0  0  0  0  0
  -28.8554  -18.7109   15.5774 S   0  0  0  0  0  0  0  0  0  0  0  0
  1  2  1  0  0  0  0
  1  5  2  0  0  0  0
  2  6  2  0  0  0  0
  3  8  2  0  0  0  0
  3 16  1  0  0  0  0
  4  9  1  0  0  0  0
  4 16  2  0  0  0  0
  5 18  1  0  0  0  0
  6 20  1  0  0  0  0
  7 10  2  0  0  0  0
  7 19  1  0  0  0  0
  8 23  1  0  0  0  0
  9 23  2  0  0  0  0
 10 24  1  0  0  0  0
 11 12  2  0  0  0  0
 11 25  1  0  0  0  0
 12 26  1  0  0  0  0
 13 21  1  0  0  0  0
 13 24  2  0  0  0  0
 14 22  1  0  0  0  0
 14 29  2  0  0  0  0
 15 26  2  0  0  0  0
 15 27  1  0  0  0  0
 16 28  1  0  0  0  0
 17 28  1  0  0  0  0
 17 30  2  0  0  0  0
 17 32  1  0  0  0  0
 18 20  2  0  0  0  0
 18 38  1  0  0  0  0
 19 21  2  0  0  0  0
 19 39  1  0  0  0  0
 20 47  1  0  0  0  0
 21 40  1  0  0  0  0
 22 31  2  0  0  0  0
 22 67  1  0  0  0  0
 23 78  1  0  0  0  0
 24 79  1  0  0  0  0
 25 27  2  0  0  0  0
 25 78  1  0  0  0  0
 26 80  1  0  0  0  0
 27 81  1  0  0  0  0
 28 61  2  0  0  0  0
 29 50  1  0  0  0  0
 29 82  1  0  0  0  0
 30 62  1  0  0  0  0
 30 65  1  0  0  0  0
 31 68  1  0  0  0  0
 31 82  1  0  0  0  0
 32 66  1  0  0  0  0
 32 72  2  0  0  0  0
 33 48  1  0  0  0  0
 33 69  1  0  0  0  0
 33 73  2  0  0  0  0
 34 56  1  0  0  0  0
 34 57  1  0  0  0  0
 34 74  2  0  0  0  0
 35 58  1  0  0  0  0
 35 63  1  0  0  0  0
 35 75  2  0  0  0  0
 36 59  1  0  0  0  0
 36 70  1  0  0  0  0
 36 76  2  0  0  0  0
 37 64  1  0  0  0  0
 37 68  1  0  0  0  0
 37 77  2  0  0  0  0
 38 41  1  0  0  0  0
 39 48  1  0  0  0  0
 40 63  1  0  0  0  0
 41 43  1  0  0  0  0
 42 44  1  0  0  0  0
 42 45  1  0  0  0  0
 43 47  1  0  0  0  0
 44 49  1  0  0  0  0
 45 64  1  0  0  0  0
 46 49  1  0  0  0  0
 46 64  1  0  0  0  0
 47 69  1  0  0  0  0
 48 63  1  0  0  0  0
 49 62  1  0  0  0  0
 51 59  1  0  0  0  0
 52 60  1  0  0  0  0
 53 60  1  0  0  0  0
 54 60  1  0  0  0  0
 55 71  1  0  0  0  0
 56 67  1  0  0  0  0
 57 79  1  0  0  0  0
 58 60  1  0  0  0  0
 58 70  1  0  0  0  0
 59 71  1  0  0  0  0
 61 62  1  0  0  0  0
M  CHG  1  71   1
M  ISO  4  37 100  57 101  68 100  79 101
M  END
> <Batch ID>
0154

> <Smiles>
CNC(C)C(=O)NC(C(=O)N1Cc2cc([101O:1][101CH2:1]C(=O)CNc3cc(C)sc3[100NH:0][100C:0](=O)N3CCCC(n4nc(-c5ccc(Oc6ccc(F)cc6F)cc5)c(C(N)=O)c4N)C3)ccc2CC1C(=O)NC1CCCc2ccccc21)C(C)(C)C

> <Shape>
0.261

> <Color>
0.087

> <Negative vol penalty>
0.000

$$$$

  -OEChem-04052303333D

 85 94  0     1  0  0  0  0  0999 V2000
  -29.1572  -31.9360   26.1271 C   0  0  0  0  0  0  0  0  0  0  0  0
  -29.3041  -30.7312   25.4471 C   0  0  0  0  0  0  0  0  0  0  0  0
  -24.1282   -9.6162   22.1147 C   0  0  0  0  0  0  0  0  0  0  0  0
  -23.0132  -10.0619   20.0182 C   0  0  0  0  0  0  0  0  0  0  0  0
  -27.8924  -32.5053   26.2688 C   0  0  0  0  0  0  0  0  0  0  0  0
  -28.1862  -30.0945   24.9094 C   0  0  0  0  0  0  0  0  0  0  0  0
  -28.9895  -28.4026   20.2044 C   0  0  0  0  0  0  0  0  0  0  0  0
  -23.3505   -8.4709   22.2849 C   0  0  0  0  0  0  0  0  0  0  0  0
  -22.2354   -8.9166   20.1884 C   0  0  0  0  0  0  0  0  0  0  0  0
  -29.7185  -27.2220   20.0681 C   0  0  0  0  0  0  0  0  0  0  0  0
  -23.3017   -5.2971   21.1198 C   0  0  0  0  0  0  0  0  0  0  0  0
  -23.9462   -4.1315   21.5339 C   0  0  0  0  0  0  0  0  0  0  0  0
  -27.6638  -25.9958   19.7616 C   0  0  0  0  0  0  0  0  0  0  0  0
  -26.5313  -20.3733   18.0756 C   0  0  0  0  0  0  0  0  0  0  0  0
  -22.5564   -4.0647   23.5090 C   0  0  0  0  0  0  0  0  0  0  0  0
  -27.1902  -18.5244   16.8307 C   0  0  0  0  0  0  0  0  0  0  0  0
  -23.9596  -10.4117   20.9814 C   0  0  0  0  0  0  0  0  0  0  0  0
  -26.0105  -11.6877   20.1608 C   0  0  0  0  0  0  0  0  0  0  0  0
  -26.7596  -31.8801   25.7242 C   0  0  0  0  0  0  0  0  0  0  0  0
  -27.5892  -28.3870   20.1311 C   0  0  0  0  0  0  0  0  0  0  0  0
  -26.9048  -30.6553   25.0452 C   0  0  0  0  0  0  0  0  0  0  0  0
  -26.9195  -27.1780   19.8948 C   0  0  0  0  0  0  0  0  0  0  0  0
  -26.4801  -18.9570   17.9290 C   0  0  0  0  0  0  0  0  0  0  0  0
  -22.4041   -8.1211   21.3218 C   0  0  0  0  0  0  0  0  0  0  0  0
  -29.0555  -26.0180   19.8496 C   0  0  0  0  0  0  0  0  0  0  0  0
  -22.2845   -5.8466   21.9003 C   0  0  0  0  0  0  0  0  0  0  0  0
  -23.5735   -3.5152   22.7285 C   0  0  0  0  0  0  0  0  0  0  0  0
  -21.9119   -5.2303   23.0949 C   0  0  0  0  0  0  0  0  0  0  0  0
  -24.7623  -11.5952   20.8052 C   0  0  0  0  0  0  0  0  0  0  0  0
  -27.2789  -20.9694   17.0838 C   0  0  0  0  0  0  0  0  0  0  0  0
  -26.3511  -13.0145   20.2607 C   0  0  0  0  0  0  0  0  0  0  0  0
  -28.9193  -24.3479   17.5769 C   0  0  0  0  0  0  0  0  0  0  0  0
  -26.7921  -10.6656   19.5283 C   0  0  0  0  0  0  0  0  0  0  0  0
  -27.5112  -22.4211   16.9803 C   0  0  0  0  0  0  0  0  0  0  0  0
  -25.2300  -29.1202   22.1312 C   0  0  0  0  0  0  0  0  0  0  0  0
  -23.3746  -28.5666   19.5286 C   0  0  0  0  0  0  0  0  0  0  0  0
  -23.0081  -27.0223   16.5074 C   0  0  0  0  0  0  0  0  0  0  0  0
  -25.0452  -18.4170   19.9279 C   0  0  0  0  0  0  0  0  0  0  0  0
  -25.4069  -32.5098   25.9439 C   0  0  0  0  0  0  0  0  0  0  0  0
  -26.8190  -29.6731   20.2536 C   0  0  0  0  0  0  0  0  0  0  0  0
  -25.4187  -27.1105   19.7877 C   0  0  0  0  0  0  0  0  0  0  0  0
  -24.3223  -31.9609   25.0206 C   0  0  0  0  0  0  0  0  0  0  0  0
  -24.2845  -16.7499   22.9807 C   0  0  0  0  0  0  0  0  0  0  0  0
  -24.3762  -30.4369   24.9807 C   0  0  0  0  0  0  0  0  0  0  0  0
  -24.4436  -15.2678   22.6338 C   0  0  0  0  0  0  0  0  0  0  0  0
  -30.7371  -23.0784   18.4153 C   0  0  0  0  0  0  0  0  0  0  0  0
  -23.6898  -17.5436   21.8187 C   0  0  0  0  0  0  0  0  0  0  0  0
  -29.5131  -22.1655   18.3751 C   0  0  0  0  0  0  0  0  0  0  0  0
  -24.5503  -15.9067   20.1910 C   0  0  0  0  0  0  0  0  0  0  0  0
  -25.7194  -29.9468   24.4264 C   0  0  1  0  0  0  0  0  0  0  0  0
  -25.3678  -29.4628   20.6747 C   0  0  1  0  0  0  0  0  0  0  0  0
  -25.2059  -15.0781   21.3077 C   0  0  2  0  0  0  0  0  0  0  0  0
  -30.1717  -24.5041   18.4080 C   0  0  1  0  0  0  0  0  0  1  0  0
  -31.1416  -25.5276   17.8486 C   0  0  0  0  0  0  0  0  0  0  0  0
  -21.3669  -26.7274   14.6321 C   0  0  0  0  0  0  0  0  0  0  0  0
  -21.7702  -26.6175   21.2424 C   0  0  0  0  0  0  0  0  0  0  0  0
  -20.7973  -25.6755   19.1366 C   0  0  0  0  0  0  0  0  0  0  0  0
  -20.3913  -28.0623   19.7372 C   0  0  0  0  0  0  0  0  0  0  0  0
  -24.8510  -28.2537   14.5463 C   0  0  0  0  0  0  0  0  0  0  0  0
  -22.6860  -27.3569   18.9444 C   0  0  1  0  0  0  0  0  0  0  0  0
  -22.5371  -27.5419   15.1611 C   0  0  2  0  0  0  0  0  0  0  0  0
  -21.4394  -26.9287   19.7690 C   0  0  0  0  0  0  0  0  0  0  0  0
  -24.3387  -12.7698   21.2796 N   0  0  0  0  0  0  0  0  0  0  0  0
  -25.3263  -13.6128   20.9331 N   0  0  0  0  0  0  0  0  0  0  0  0
  -28.5580  -22.9556   17.5837 N   0  0  0  0  0  0  0  0  0  0  0  0
  -24.7097  -28.3939   19.9206 N   0  0  0  0  0  0  0  0  0  0  0  0
  -24.4661  -17.3183   20.5974 N   0  0  0  0  0  0  0  0  0  0  0  0
  -27.4242  -13.7161   19.8382 N   0  0  0  0  0  0  0  0  0  0  0  0
  -26.2942   -9.3555   19.5154 N   0  0  0  0  0  0  0  0  0  0  0  0
  -25.7875  -18.0772   18.7973 N   0  0  0  0  0  0  0  0  0  0  0  0
  -25.7485  -30.0749   22.9852 N   0  0  0  0  0  0  0  0  0  0  0  0
  -22.3979  -27.6838   17.5521 N   0  0  0  0  0  0  0  0  0  0  0  0
  -26.6645  -23.1699   16.2797 N   0  3  0  0  0  0  0  0  0  0  0  0
  -23.6436  -27.4768   14.1649 N   0  3  0  0  0  0  0  0  0  0  0  0
  -28.2680  -25.2101   17.0152 O   0  0  0  0  0  0  0  0  0  0  0  0
  -27.9069  -10.9038   19.0048 O   0  0  0  0  0  0  0  0  0  0  0  0
  -24.6918  -28.0684   22.4562 O   0  0  0  0  0  0  0  0  0  0  0  0
  -22.7532  -29.6276   19.6268 O   0  0  0  0  0  0  0  0  0  0  0  0
  -23.8318  -26.1172   16.6210 O   0  0  0  0  0  0  0  0  0  0  0  0
  -24.9166  -19.5714   20.3435 O   0  0  0  0  0  0  0  0  0  0  0  0
  -21.6451   -7.0035   21.4875 O   0  0  0  0  0  0  0  0  0  0  0  0
  -29.7645  -24.8641   19.7168 O   0  0  0  0  0  0  0  0  0  1  0  0
  -24.1915   -2.3950   23.1252 F   0  0  0  0  0  0  0  0  0  0  0  0
  -20.9346   -5.7529   23.8484 F   0  0  0  0  0  0  0  0  0  0  0  0
  -27.9148  -19.8232   15.9818 S   0  0  0  0  0  0  0  0  0  0  0  0
  1  2  1  0  0  0  0
  1  5  2  0  0  0  0
  2  6  2  0  0  0  0
  3  8  2  0  0  0  0
  3 17  1  0  0  0  0
  4  9  1  0  0  0  0
  4 17  2  0  0  0  0
  5 19  1  0  0  0  0
  6 21  1  0  0  0  0
  7 10  2  0  0  0  0
  7 20  1  0  0  0  0
  8 24  1  0  0  0  0
  9 24  2  0  0  0  0
 10 25  1  0  0  0  0
 11 12  2  0  0  0  0
 11 26  1  0  0  0  0
 12 27  1  0  0  0  0
 13 22  1  0  0  0  0
 13 25  2  0  0  0  0
 14 23  1  0  0  0  0
 14 30  2  0  0  0  0
 15 27  2  0  0  0  0
 15 28  1  0  0  0  0
 16 23  2  0  0  0  0
 16 85  1  0  0  0  0
 17 29  1  0  0  0  0
 18 29  1  0  0  0  0
 18 31  2  0  0  0  0
 18 33  1  0  0  0  0
 19 21  2  0  0  0  0
 19 39  1  0  0  0  0
 20 22  2  0  0  0  0
 20 40  1  0  0  0  0
 21 50  1  0  0  0  0
 22 41  1  0  0  0  0
 23 70  1  0  0  0  0
 24 81  1  0  0  0  0
 25 82  1  0  0  0  0
 26 28  2  0  0  0  0
 26 81  1  0  0  0  0
 27 83  1  0  0  0  0
 28 84  1  0  0  0  0
 29 63  2  0  0  0  0
 30 34  1  0  0  0  0
 30 85  1  0  0  0  0
 31 64  1  0  0  0  0
 31 68  1  0  0  0  0
 32 53  1  0  0  0  0
 32 65  1  0  0  0  0
 32 75  2  0  0  0  0
 33 69  1  0  0  0  0
 33 76  2  0  0  0  0
 34 65  1  0  0  0  0
 34 73  2  0  0  0  0
 35 51  1  0  0  0  0
 35 71  1  0  0  0  0
 35 77  2  0  0  0  0
 36 60  1  0  0  0  0
 36 66  1  0  0  0  0
 36 78  2  0  0  0  0
 37 61  1  0  0  0  0
 37 72  1  0  0  0  0
 37 79  2  0  0  0  0
 38 67  1  0  0  0  0
 38 70  1  0  0  0  0
 38 80  2  0  0  0  0
 39 42  1  0  0  0  0
 40 51  1  0  0  0  0
 41 66  1  0  0  0  0
 42 44  1  0  0  0  0
 43 45  1  0  0  0  0
 43 47  1  0  0  0  0
 44 50  1  0  0  0  0
 45 52  1  0  0  0  0
 46 48  1  0  0  0  0
 46 53  1  0  0  0  0
 47 67  1  0  0  0  0
 48 65  1  0  0  0  0
 49 52  1  0  0  0  0
 49 67  1  0  0  0  0
 50 71  1  0  0  0  0
 51 66  1  0  0  0  0
 52 64  1  0  0  0  0
 53 54  1  0  0  0  0
 53 82  1  0  0  0  0
 55 61  1  0  0  0  0
 56 62  1  0  0  0  0
 57 62  1  0  0  0  0
 58 62  1  0  0  0  0
 59 74  1  0  0  0  0
 60 62  1  0  0  0  0
 60 72  1  0  0  0  0
 61 74  1  0  0  0  0
 63 64  1  0  0  0  0
M  CHG  2  73   1  74   1
M  ISO  4  38 100  53 101  70 100  82 101
M  END
> <Batch ID>
0154

> <Smiles>
CNC(C)C(=O)NC(C(=O)N1Cc2cc([101O:1][101C:1]3(C)CCN(C(=N)c4cc([100NH:0][100C:0](=O)N5CCCC(n6nc(-c7ccc(Oc8ccc(F)cc8F)cc7)c(C(N)=O)c6N)C5)cs4)C3=O)ccc2CC1C(=O)NC1CCCc2ccccc21)C(C)(C)C

> <Shape>
0.290

> <Color>
0.082

> <Negative vol penalty>
0.000

$$$$

  -OEChem-04052303333D

 85 94  0     1  0  0  0  0  0999 V2000
  -22.3745  -35.8314   17.0357 C   0  0  0  0  0  0  0  0  0  0  0  0
  -22.7315  -34.5358   16.6762 C   0  0  0  0  0  0  0  0  0  0  0  0
  -23.3077   -9.7454   20.5286 C   0  0  0  0  0  0  0  0  0  0  0  0
  -23.9570  -10.2876   22.7917 C   0  0  0  0  0  0  0  0  0  0  0  0
  -22.9632  -36.4325   18.1475 C   0  0  0  0  0  0  0  0  0  0  0  0
  -23.6784  -33.8408   17.4278 C   0  0  0  0  0  0  0  0  0  0  0  0
  -25.3330  -27.2073   19.5668 C   0  0  0  0  0  0  0  0  0  0  0  0
  -22.6418   -8.6106   20.9915 C   0  0  0  0  0  0  0  0  0  0  0  0
  -23.2910   -9.1527   23.2546 C   0  0  0  0  0  0  0  0  0  0  0  0
  -26.4047  -26.3156   19.5795 C   0  0  0  0  0  0  0  0  0  0  0  0
  -20.1074   -8.2302   23.9132 C   0  0  0  0  0  0  0  0  0  0  0  0
  -19.3017   -8.3693   25.0433 C   0  0  0  0  0  0  0  0  0  0  0  0
  -27.2972  -27.4255   21.5265 C   0  0  0  0  0  0  0  0  0  0  0  0
  -31.3341  -18.3284   20.9125 C   0  0  0  0  0  0  0  0  0  0  0  0
  -20.6495   -6.7351   26.2053 C   0  0  0  0  0  0  0  0  0  0  0  0
  -23.9654  -10.5839   21.4287 C   0  0  0  0  0  0  0  0  0  0  0  0
  -24.1217  -13.0498   20.7941 C   0  0  0  0  0  0  0  0  0  0  0  0
  -23.9107  -35.7409   18.9188 C   0  0  0  0  0  0  0  0  0  0  0  0
  -25.2410  -28.2233   20.5289 C   0  0  0  0  0  0  0  0  0  0  0  0
  -24.2813  -34.4336   18.5502 C   0  0  0  0  0  0  0  0  0  0  0  0
  -26.2220  -28.3272   21.5254 C   0  0  0  0  0  0  0  0  0  0  0  0
  -31.2968  -19.6990   21.3002 C   0  0  0  0  0  0  0  0  0  0  0  0
  -22.6334   -8.3143   22.3545 C   0  0  0  0  0  0  0  0  0  0  0  0
  -27.3885  -26.4264   20.5578 C   0  0  0  0  0  0  0  0  0  0  0  0
  -21.1841   -7.3435   23.9291 C   0  0  0  0  0  0  0  0  0  0  0  0
  -19.5728   -7.6217   26.1893 C   0  0  0  0  0  0  0  0  0  0  0  0
  -21.4551   -6.5960   25.0751 C   0  0  0  0  0  0  0  0  0  0  0  0
  -24.6540  -11.7560   20.9511 C   0  0  0  0  0  0  0  0  0  0  0  0
  -30.0992  -20.0372   21.8909 C   0  0  0  0  0  0  0  0  0  0  0  0
  -25.1702  -13.7967   20.3153 C   0  0  0  0  0  0  0  0  0  0  0  0
  -30.1635  -17.6712   21.2219 C   0  0  0  0  0  0  0  0  0  0  0  0
  -28.7805  -23.5880   21.9352 C   0  0  0  0  0  0  0  0  0  0  0  0
  -22.7978  -13.5332   21.0577 C   0  0  0  0  0  0  0  0  0  0  0  0
  -29.7558  -21.3775   22.3988 C   0  0  0  0  0  0  0  0  0  0  0  0
  -25.2188  -31.4006   20.4409 C   0  0  0  0  0  0  0  0  0  0  0  0
  -24.6064  -31.0957   23.6118 C   0  0  0  0  0  0  0  0  0  0  0  0
  -24.8229  -29.1895   26.4342 C   0  0  0  0  0  0  0  0  0  0  0  0
  -30.5282  -15.3070   20.4321 C   0  0  0  0  0  0  0  0  0  0  0  0
  -24.5547  -36.4493   20.0841 C   0  0  0  0  0  0  0  0  0  0  0  0
  -24.0646  -29.1605   20.5175 C   0  0  0  0  0  0  0  0  0  0  0  0
  -26.1588  -29.3877   22.5929 C   0  0  0  0  0  0  0  0  0  0  0  0
  -25.2733  -35.5080   21.0474 C   0  0  0  0  0  0  0  0  0  0  0  0
  -29.7102  -12.3733   18.5878 C   0  0  0  0  0  0  0  0  0  0  0  0
  -26.1399  -34.5162   20.2778 C   0  0  0  0  0  0  0  0  0  0  0  0
  -28.2780  -12.0576   19.0253 C   0  0  0  0  0  0  0  0  0  0  0  0
  -28.7054  -23.3402   19.5856 C   0  0  0  0  0  0  0  0  0  0  0  0
  -30.5484  -12.9198   19.7421 C   0  0  0  0  0  0  0  0  0  0  0  0
  -28.8527  -21.9476   20.1875 C   0  0  0  0  0  0  0  0  0  0  0  0
  -28.5300  -13.7518   20.8836 C   0  0  0  0  0  0  0  0  0  0  0  0
  -25.2863  -33.6382   19.3548 C   0  0  1  0  0  0  0  0  0  0  0  0
  -28.1336  -24.1948   20.7161 C   0  0  2  0  0  0  0  0  0  1  0  0
  -24.3421  -30.4764   21.2377 C   0  0  1  0  0  0  0  0  0  0  0  0
  -27.6290  -13.2595   19.7393 C   0  0  2  0  0  0  0  0  0  0  0  0
  -24.2690  -29.2234   28.8815 C   0  0  0  0  0  0  0  0  0  0  0  0
  -26.9782  -32.9467   24.1203 C   0  0  0  0  0  0  0  0  0  0  0  0
  -26.9659  -32.1921   26.5075 C   0  0  0  0  0  0  0  0  0  0  0  0
  -24.9856  -33.3827   25.5674 C   0  0  0  0  0  0  0  0  0  0  0  0
  -23.0268  -26.8511   26.1787 C   0  0  0  0  0  0  0  0  0  0  0  0
  -25.4509  -31.0006   24.8595 C   0  0  1  0  0  0  0  0  0  0  0  0
  -23.7927  -28.8337   27.4909 C   0  0  2  0  0  0  0  0  0  0  0  0
  -26.0976  -32.3616   25.2426 C   0  0  0  0  0  0  0  0  0  0  0  0
  -25.9406  -11.6818   20.6003 N   0  0  0  0  0  0  0  0  0  0  0  0
  -26.2256  -12.9382   20.2181 N   0  0  0  0  0  0  0  0  0  0  0  0
  -29.1756  -22.2481   21.5923 N   0  0  0  0  0  0  0  0  0  0  0  0
  -24.9924  -30.2842   22.5356 N   0  0  0  0  0  0  0  0  0  0  0  0
  -29.8732  -14.0590   20.3676 N   0  0  0  0  0  0  0  0  0  0  0  0
  -32.3266  -20.5570   21.1048 N   0  0  0  0  0  0  0  0  0  0  0  0
  -25.2831  -15.0974   19.9721 N   0  0  0  0  0  0  0  0  0  0  0  0
  -21.8425  -12.6319   21.5469 N   0  0  0  0  0  0  0  0  0  0  0  0
  -29.7757  -16.3235   21.0194 N   0  0  0  0  0  0  0  0  0  0  0  0
  -24.6203  -32.6029   20.1159 N   0  0  0  0  0  0  0  0  0  0  0  0
  -24.5899  -30.4361   25.8931 N   0  0  0  0  0  0  0  0  0  0  0  0
  -30.0336  -21.6886   23.6615 N   0  3  0  0  0  0  0  0  0  0  0  0
  -23.5243  -27.3678   27.4797 N   0  3  0  0  0  0  0  0  0  0  0  0
  -28.9567  -24.0883   23.0310 O   0  0  0  0  0  0  0  0  0  0  0  0
  -22.4673  -14.7252   20.8495 O   0  0  0  0  0  0  0  0  0  0  0  0
  -26.3548  -31.0495   20.1443 O   0  0  0  0  0  0  0  0  0  0  0  0
  -23.6356  -31.8566   23.5952 O   0  0  0  0  0  0  0  0  0  0  0  0
  -25.7444  -28.4383   26.1228 O   0  0  0  0  0  0  0  0  0  0  0  0
  -31.6620  -15.4692   19.9737 O   0  0  0  0  0  0  0  0  0  0  0  0
  -21.9835   -7.2071   22.8066 O   0  0  0  0  0  0  0  0  0  0  0  0
  -28.4359  -25.5577   20.5721 O   0  0  0  0  0  0  0  0  0  1  0  0
  -18.7999   -7.7566   27.2750 F   0  0  0  0  0  0  0  0  0  0  0  0
  -22.4888   -5.7434   25.0967 F   0  0  0  0  0  0  0  0  0  0  0  0
  -29.0262  -18.7054   21.9763 S   0  0  0  0  0  0  0  0  0  0  0  0
  1  2  1  0  0  0  0
  1  5  2  0  0  0  0
  2  6  2  0  0  0  0
  3  8  2  0  0  0  0
  3 16  1  0  0  0  0
  4  9  1  0  0  0  0
  4 16  2  0  0  0  0
  5 18  1  0  0  0  0
  6 20  1  0  0  0  0
  7 10  2  0  0  0  0
  7 19  1  0  0  0  0
  8 23  1  0  0  0  0
  9 23  2  0  0  0  0
 10 24  1  0  0  0  0
 11 12  2  0  0  0  0
 11 25  1  0  0  0  0
 12 26  1  0  0  0  0
 13 21  1  0  0  0  0
 13 24  2  0  0  0  0
 14 22  1  0  0  0  0
 14 31  2  0  0  0  0
 15 26  2  0  0  0  0
 15 27  1  0  0  0  0
 16 28  1  0  0  0  0
 17 28  1  0  0  0  0
 17 30  2  0  0  0  0
 17 33  1  0  0  0  0
 18 20  2  0  0  0  0
 18 39  1  0  0  0  0
 19 21  2  0  0  0  0
 19 40  1  0  0  0  0
 20 50  1  0  0  0  0
 21 41  1  0  0  0  0
 22 29  2  0  0  0  0
 22 67  1  0  0  0  0
 23 81  1  0  0  0  0
 24 82  1  0  0  0  0
 25 27  2  0  0  0  0
 25 81  1  0  0  0  0
 26 83  1  0  0  0  0
 27 84  1  0  0  0  0
 28 62  2  0  0  0  0
 29 34  1  0  0  0  0
 29 85  1  0  0  0  0
 30 63  1  0  0  0  0
 30 68  1  0  0  0  0
 31 70  1  0  0  0  0
 31 85  1  0  0  0  0
 32 51  1  0  0  0  0
 32 64  1  0  0  0  0
 32 75  2  0  0  0  0
 33 69  1  0  0  0  0
 33 76  2  0  0  0  0
 34 64  1  0  0  0  0
 34 73  2  0  0  0  0
 35 52  1  0  0  0  0
 35 71  1  0  0  0  0
 35 77  2  0  0  0  0
 36 59  1  0  0  0  0
 36 65  1  0  0  0  0
 36 78  2  0  0  0  0
 37 60  1  0  0  0  0
 37 72  1  0  0  0  0
 37 79  2  0  0  0  0
 38 66  1  0  0  0  0
 38 70  1  0  0  0  0
 38 80  2  0  0  0  0
 39 42  1  0  0  0  0
 40 52  1  0  0  0  0
 41 65  1  0  0  0  0
 42 44  1  0  0  0  0
 43 45  1  0  0  0  0
 43 47  1  0  0  0  0
 44 50  1  0  0  0  0
 45 53  1  0  0  0  0
 46 48  1  0  0  0  0
 46 51  1  0  0  0  0
 47 66  1  0  0  0  0
 48 64  1  0  0  0  0
 49 53  1  0  0  0  0
 49 66  1  0  0  0  0
 50 71  1  0  0  0  0
 51 82  1  0  0  0  0
 52 65  1  0  0  0  0
 53 63  1  0  0  0  0
 54 60  1  0  0  0  0
 55 61  1  0  0  0  0
 56 61  1  0  0  0  0
 57 61  1  0  0  0  0
 58 74  1  0  0  0  0
 59 61  1  0  0  0  0
 59 72  1  0  0  0  0
 60 74  1  0  0  0  0
 62 63  1  0  0  0  0
M  CHG  2  73   1  74   1
M  ISO  4  38 100  51 101  70 100  82 101
M  END
> <Batch ID>
0154

> <Smiles>
CNC(C)C(=O)NC(C(=O)N1Cc2cc([101O:1][101CH:1]3CCN(C(=N)c4sc([100NH:0][100C:0](=O)N5CCCC(n6nc(-c7ccc(Oc8ccc(F)cc8F)cc7)c(C(N)=O)c6N)C5)cc4N)C3=O)ccc2CC1C(=O)NC1CCCc2ccccc21)C(C)(C)C

> <Shape>
0.317

> <Color>
0.188

> <Negative vol penalty>
0.000

$$$$
