
  -OEChem-04052303363D

 82 90  0     1  0  0  0  0  0999 V2000
  -28.4572  -37.3812   21.2284 C   0  0  0  0  0  0  0  0  0  0  0  0
  -28.9848  -36.1290   20.9299 C   0  0  0  0  0  0  0  0  0  0  0  0
  -22.9901   -9.9852   20.3396 C   0  0  0  0  0  0  0  0  0  0  0  0
  -24.4268   -9.1511   22.0938 C   0  0  0  0  0  0  0  0  0  0  0  0
  -27.3262  -37.4851   22.0370 C   0  0  0  0  0  0  0  0  0  0  0  0
  -28.3823  -34.9800   21.4409 C   0  0  0  0  0  0  0  0  0  0  0  0
  -27.1272  -28.1252   19.7815 C   0  0  0  0  0  0  0  0  0  0  0  0
  -22.3047   -8.7705   20.3233 C   0  0  0  0  0  0  0  0  0  0  0  0
  -23.7414   -7.9364   22.0775 C   0  0  0  0  0  0  0  0  0  0  0  0
  -27.2877  -26.8434   20.3057 C   0  0  0  0  0  0  0  0  0  0  0  0
  -20.8267   -6.7068   23.2663 C   0  0  0  0  0  0  0  0  0  0  0  0
  -20.4718   -6.1482   24.4941 C   0  0  0  0  0  0  0  0  0  0  0  0
  -31.4403  -18.5388   21.2645 C   0  0  0  0  0  0  0  0  0  0  0  0
  -30.7260  -19.7701   21.2030 C   0  0  0  0  0  0  0  0  0  0  0  0
  -25.2913  -27.1402   21.6268 C   0  0  0  0  0  0  0  0  0  0  0  0
  -21.7827   -4.1849   23.9798 C   0  0  0  0  0  0  0  0  0  0  0  0
  -24.0512  -10.1756   21.2248 C   0  0  0  0  0  0  0  0  0  0  0  0
  -24.4642  -12.5630   22.0230 C   0  0  0  0  0  0  0  0  0  0  0  0
  -26.7038  -36.3363   22.5503 C   0  0  0  0  0  0  0  0  0  0  0  0
  -26.0518  -28.9297   20.1849 C   0  0  0  0  0  0  0  0  0  0  0  0
  -27.2427  -35.0687   22.2582 C   0  0  0  0  0  0  0  0  0  0  0  0
  -25.1179  -28.4309   21.1043 C   0  0  0  0  0  0  0  0  0  0  0  0
  -22.6804   -7.7461   21.1923 C   0  0  0  0  0  0  0  0  0  0  0  0
  -26.3713  -26.3517   21.2307 C   0  0  0  0  0  0  0  0  0  0  0  0
  -21.6596   -6.0044   22.3951 C   0  0  0  0  0  0  0  0  0  0  0  0
  -20.9498   -4.8873   24.8509 C   0  0  0  0  0  0  0  0  0  0  0  0
  -22.1375   -4.7435   22.7519 C   0  0  0  0  0  0  0  0  0  0  0  0
  -24.7600  -11.4299   21.2417 C   0  0  0  0  0  0  0  0  0  0  0  0
  -30.8574  -17.6453   22.1359 C   0  0  0  0  0  0  0  0  0  0  0  0
  -25.4245  -13.4809   21.6741 C   0  0  0  0  0  0  0  0  0  0  0  0
  -29.6239  -19.7706   22.0297 C   0  0  0  0  0  0  0  0  0  0  0  0
  -23.4152  -12.7675   22.9788 C   0  0  0  0  0  0  0  0  0  0  0  0
  -25.7762  -31.7297   21.6640 C   0  0  0  0  0  0  0  0  0  0  0  0
  -27.6715  -22.9739   21.9338 C   0  0  0  0  0  0  0  0  0  0  0  0
  -22.6267  -31.3311   20.9973 C   0  0  0  0  0  0  0  0  0  0  0  0
  -20.0603  -29.1911   20.3040 C   0  0  0  0  0  0  0  0  0  0  0  0
  -30.7370  -14.7850   20.5688 C   0  0  0  0  0  0  0  0  0  0  0  0
  -25.5112  -36.5011   23.4586 C   0  0  0  0  0  0  0  0  0  0  0  0
  -25.8778  -30.3001   19.5899 C   0  0  0  0  0  0  0  0  0  0  0  0
  -23.9348  -29.2469   21.5547 C   0  0  0  0  0  0  0  0  0  0  0  0
  -24.7115  -35.2155   23.6533 C   0  0  0  0  0  0  0  0  0  0  0  0
  -28.7941  -13.4479   17.9016 C   0  0  0  0  0  0  0  0  0  0  0  0
  -25.6451  -34.0451   23.9452 C   0  0  0  0  0  0  0  0  0  0  0  0
  -27.5506  -12.8920   18.5979 C   0  0  0  0  0  0  0  0  0  0  0  0
  -30.0499  -13.2522   18.7482 C   0  0  0  0  0  0  0  0  0  0  0  0
  -28.7146  -13.2219   20.8194 C   0  0  0  0  0  0  0  0  0  0  0  0
  -26.6028  -33.7977   22.7733 C   0  0  1  0  0  0  0  0  0  0  0  0
  -25.0327  -31.2261   20.4593 C   0  0  1  0  0  0  0  0  0  0  0  0
  -27.4142  -13.4462   20.0288 C   0  0  2  0  0  0  0  0  0  0  0  0
  -17.5934  -29.1568   19.8450 C   0  0  0  0  0  0  0  0  0  0  0  0
  -22.0708  -31.7745   23.9645 C   0  0  0  0  0  0  0  0  0  0  0  0
  -19.7895  -30.8058   23.6106 C   0  0  0  0  0  0  0  0  0  0  0  0
  -20.4535  -32.8956   22.4212 C   0  0  0  0  0  0  0  0  0  0  0  0
  -20.4592  -28.0192   17.6158 C   0  0  0  0  0  0  0  0  0  0  0  0
  -31.2927  -16.2733   22.4755 C   0  0  0  0  0  0  0  0  0  0  0  0
  -28.8162  -22.0750   21.5169 C   0  0  0  0  0  0  0  0  0  0  0  0
  -27.6499  -24.3474   21.2915 C   0  0  0  0  0  0  0  0  0  1  0  0
  -21.4573  -30.6889   21.7038 C   0  0  1  0  0  0  0  0  0  0  0  0
  -18.9844  -29.2218   19.2336 C   0  0  2  0  0  0  0  0  0  0  0  0
  -20.9661  -31.5263   22.9182 C   0  0  0  0  0  0  0  0  0  0  0  0
  -25.8248  -11.6094   20.4556 N   0  0  0  0  0  0  0  0  0  0  0  0
  -26.2064  -12.8659   20.7411 N   0  0  0  0  0  0  0  0  0  0  0  0
  -23.8117  -30.5832   20.9490 N   0  0  0  0  0  0  0  0  0  0  0  0
  -29.8552  -13.8009   20.0924 N   0  0  0  0  0  0  0  0  0  0  0  0
  -25.6678  -14.7461   22.0773 N   0  0  0  0  0  0  0  0  0  0  0  0
  -22.5149  -11.7201   23.2171 N   0  0  0  0  0  0  0  0  0  0  0  0
  -28.7220  -20.8110   22.2013 N   0  0  0  0  0  0  0  0  0  0  0  0
  -25.9215  -33.1033   21.7018 N   0  0  0  0  0  0  0  0  0  0  0  0
  -20.4393  -30.4612   20.6839 N   0  0  0  0  0  0  0  0  0  0  0  0
  -30.4776  -15.2558   21.8501 N   0  0  0  0  0  0  0  0  0  0  0  0
  -19.1441  -28.0670   18.3052 N   0  3  0  0  0  0  0  0  0  0  0  0
  -23.2703  -13.8528   23.5909 O   0  0  0  0  0  0  0  0  0  0  0  0
  -26.1862  -30.9312   22.4983 O   0  0  0  0  0  0  0  0  0  0  0  0
  -26.8103  -22.6240   22.7399 O   0  0  0  0  0  0  0  0  0  0  0  0
  -22.4916  -32.4519   20.5003 O   0  0  0  0  0  0  0  0  0  0  0  0
  -20.5161  -28.1449   20.7604 O   0  0  0  0  0  0  0  0  0  0  0  0
  -31.6820  -15.2164   19.8996 O   0  0  0  0  0  0  0  0  0  0  0  0
  -22.0117   -6.5607   21.1768 O   0  0  0  0  0  0  0  0  0  0  0  0
  -26.5260  -25.1011   21.7444 O   0  0  0  0  0  0  0  0  0  1  0  0
  -20.6101   -4.3517   26.0307 F   0  0  0  0  0  0  0  0  0  0  0  0
  -22.9389   -4.0645   21.9197 F   0  0  0  0  0  0  0  0  0  0  0  0
  -29.4544  -18.2913   22.8753 S   0  0  0  0  0  0  0  0  0  0  0  0
  1  2  1  0  0  0  0
  1  5  2  0  0  0  0
  2  6  2  0  0  0  0
  3  8  2  0  0  0  0
  3 17  1  0  0  0  0
  4  9  1  0  0  0  0
  4 17  2  0  0  0  0
  5 19  1  0  0  0  0
  6 21  1  0  0  0  0
  7 10  2  0  0  0  0
  7 20  1  0  0  0  0
  8 23  1  0  0  0  0
  9 23  2  0  0  0  0
 10 24  1  0  0  0  0
 11 12  2  0  0  0  0
 11 25  1  0  0  0  0
 12 26  1  0  0  0  0
 13 14  1  0  0  0  0
 13 29  2  0  0  0  0
 14 31  2  0  0  0  0
 15 22  1  0  0  0  0
 15 24  2  0  0  0  0
 16 26  2  0  0  0  0
 16 27  1  0  0  0  0
 17 28  1  0  0  0  0
 18 28  1  0  0  0  0
 18 30  2  0  0  0  0
 18 32  1  0  0  0  0
 19 21  2  0  0  0  0
 19 38  1  0  0  0  0
 20 22  2  0  0  0  0
 20 39  1  0  0  0  0
 21 47  1  0  0  0  0
 22 40  1  0  0  0  0
 23 78  1  0  0  0  0
 24 79  1  0  0  0  0
 25 27  2  0  0  0  0
 25 78  1  0  0  0  0
 26 80  1  0  0  0  0
 27 81  1  0  0  0  0
 28 61  2  0  0  0  0
 29 55  1  0  0  0  0
 29 82  1  0  0  0  0
 30 62  1  0  0  0  0
 30 65  1  0  0  0  0
 31 67  1  0  0  0  0
 31 82  1  0  0  0  0
 32 66  1  0  0  0  0
 32 72  2  0  0  0  0
 33 48  1  0  0  0  0
 33 68  1  0  0  0  0
 33 73  2  0  0  0  0
 34 56  1  0  0  0  0
 34 57  1  0  0  0  0
 34 74  2  0  0  0  0
 35 58  1  0  0  0  0
 35 63  1  0  0  0  0
 35 75  2  0  0  0  0
 36 59  1  0  0  0  0
 36 69  1  0  0  0  0
 36 76  2  0  0  0  0
 37 64  1  0  0  0  0
 37 70  1  0  0  0  0
 37 77  2  0  0  0  0
 38 41  1  0  0  0  0
 39 48  1  0  0  0  0
 40 63  1  0  0  0  0
 41 43  1  0  0  0  0
 42 44  1  0  0  0  0
 42 45  1  0  0  0  0
 43 47  1  0  0  0  0
 44 49  1  0  0  0  0
 45 64  1  0  0  0  0
 46 49  1  0  0  0  0
 46 64  1  0  0  0  0
 47 68  1  0  0  0  0
 48 63  1  0  0  0  0
 49 62  1  0  0  0  0
 50 59  1  0  0  0  0
 51 60  1  0  0  0  0
 52 60  1  0  0  0  0
 53 60  1  0  0  0  0
 54 71  1  0  0  0  0
 55 70  1  0  0  0  0
 56 67  1  0  0  0  0
 57 79  1  0  0  0  0
 58 60  1  0  0  0  0
 58 69  1  0  0  0  0
 59 71  1  0  0  0  0
 61 62  1  0  0  0  0
M  CHG  1  71   1
M  ISO  4  37 100  57 101  70 100  79 101
M  END
> <Batch ID>
0155

> <Smiles>
CNC(C)C(=O)NC(C(=O)N1Cc2cc([101O:1][101CH2:1]C(=O)CNc3ccc(C[100NH:0][100C:0](=O)N4CCCC(n5nc(-c6ccc(Oc7ccc(F)cc7F)cc6)c(C(N)=O)c5N)C4)s3)ccc2CC1C(=O)NC1CCCc2ccccc21)C(C)(C)C

> <Shape>
0.325

> <Color>
0.140

> <Negative vol penalty>
0.000

$$$$

  -OEChem-04052303363D

 82 91  0     1  0  0  0  0  0999 V2000
  -31.0404  -35.4156   21.8001 C   0  0  0  0  0  0  0  0  0  0  0  0
  -30.8657  -34.1687   21.2083 C   0  0  0  0  0  0  0  0  0  0  0  0
  -24.7008   -8.7374   21.4179 C   0  0  0  0  0  0  0  0  0  0  0  0
  -23.1737  -10.5866   21.1257 C   0  0  0  0  0  0  0  0  0  0  0  0
  -30.3945  -35.7133   22.9993 C   0  0  0  0  0  0  0  0  0  0  0  0
  -30.0459  -33.2184   21.8160 C   0  0  0  0  0  0  0  0  0  0  0  0
  -26.4860  -29.0965   19.0155 C   0  0  0  0  0  0  0  0  0  0  0  0
  -23.8515   -8.1878   22.3783 C   0  0  0  0  0  0  0  0  0  0  0  0
  -22.3244  -10.0370   22.0860 C   0  0  0  0  0  0  0  0  0  0  0  0
  -26.6669  -27.7454   18.7231 C   0  0  0  0  0  0  0  0  0  0  0  0
  -20.9769   -6.4084   22.4358 C   0  0  0  0  0  0  0  0  0  0  0  0
  -20.7139   -5.0406   22.3620 C   0  0  0  0  0  0  0  0  0  0  0  0
  -25.4606  -27.1563   20.7274 C   0  0  0  0  0  0  0  0  0  0  0  0
  -21.6460   -4.7422   24.5709 C   0  0  0  0  0  0  0  0  0  0  0  0
  -28.0116  -19.0308   19.3942 C   0  0  0  0  0  0  0  0  0  0  0  0
  -24.3619   -9.9368   20.7917 C   0  0  0  0  0  0  0  0  0  0  0  0
  -25.2192  -10.2698   18.4122 C   0  0  0  0  0  0  0  0  0  0  0  0
  -29.5587  -34.7697   23.6171 C   0  0  0  0  0  0  0  0  0  0  0  0
  -25.7994  -29.4884   20.1737 C   0  0  0  0  0  0  0  0  0  0  0  0
  -29.3893  -33.5034   23.0253 C   0  0  0  0  0  0  0  0  0  0  0  0
  -25.2702  -28.5130   21.0309 C   0  0  0  0  0  0  0  0  0  0  0  0
  -22.6633   -8.8376   22.7123 C   0  0  0  0  0  0  0  0  0  0  0  0
  -26.1567  -26.7750   19.5805 C   0  0  0  0  0  0  0  0  0  0  0  0
  -21.5745   -6.9432   23.5771 C   0  0  0  0  0  0  0  0  0  0  0  0
  -21.0484   -4.2075   23.4295 C   0  0  0  0  0  0  0  0  0  0  0  0
  -21.9090   -6.1101   24.6447 C   0  0  0  0  0  0  0  0  0  0  0  0
  -25.2391  -10.5054   19.8000 C   0  0  0  0  0  0  0  0  0  0  0  0
  -27.1449  -20.1367   19.1616 C   0  0  0  0  0  0  0  0  0  0  0  0
  -26.2442  -11.0394   17.9186 C   0  0  0  0  0  0  0  0  0  0  0  0
  -27.2806  -17.8654   19.4753 C   0  0  0  0  0  0  0  0  0  0  0  0
  -27.9011  -23.7067   18.9268 C   0  0  0  0  0  0  0  0  0  0  0  0
  -27.6110  -24.9832   19.2000 C   0  0  0  0  0  0  0  0  0  1  0  0
  -24.3516   -9.4306   17.6384 C   0  0  0  0  0  0  0  0  0  0  0  0
  -26.5587  -31.1411   22.7806 C   0  0  0  0  0  0  0  0  0  0  0  0
  -23.3943  -30.8329   23.4242 C   0  0  0  0  0  0  0  0  0  0  0  0
  -20.4979  -29.0911   22.9516 C   0  0  0  0  0  0  0  0  0  0  0  0
  -28.9302  -16.0044   19.8779 C   0  0  0  0  0  0  0  0  0  0  0  0
  -28.9192  -35.1204   24.9372 C   0  0  0  0  0  0  0  0  0  0  0  0
  -25.5896  -30.9498   20.4610 C   0  0  0  0  0  0  0  0  0  0  0  0
  -24.5078  -28.8814   22.2765 C   0  0  0  0  0  0  0  0  0  0  0  0
  -29.2823  -23.1442   18.8099 C   0  0  0  0  0  0  0  0  0  0  0  0
  -26.8942  -22.6022   18.8093 C   0  0  0  0  0  0  0  0  0  0  0  0
  -27.7707  -34.1918   25.3233 C   0  0  0  0  0  0  0  0  0  0  0  0
  -30.4841  -12.8797   19.1719 C   0  0  0  0  0  0  0  0  0  0  0  0
  -28.1695  -32.7343   25.1149 C   0  0  0  0  0  0  0  0  0  0  0  0
  -29.3129  -11.8958   19.1205 C   0  0  0  0  0  0  0  0  0  0  0  0
  -29.1018  -21.7013   19.2730 C   0  0  0  0  0  0  0  0  0  0  0  0
  -30.2793  -13.9497   20.2427 C   0  0  0  0  0  0  0  0  0  0  0  0
  -27.8330  -13.6897   20.1099 C   0  0  0  0  0  0  0  0  0  0  0  0
  -28.4884  -32.4550   23.6412 C   0  0  1  0  0  0  0  0  0  0  0  0
  -25.3203  -31.2363   21.9350 C   0  0  1  0  0  0  0  0  0  0  0  0
  -27.9637  -12.6314   19.0023 C   0  0  2  0  0  0  0  0  0  0  0  0
  -18.0846  -29.0579   23.6390 C   0  0  0  0  0  0  0  0  0  0  0  0
  -24.1859  -29.6868   26.1389 C   0  0  0  0  0  0  0  0  0  0  0  0
  -21.8514  -28.8130   26.3727 C   0  0  0  0  0  0  0  0  0  0  0  0
  -22.2503  -31.2692   26.1989 C   0  0  0  0  0  0  0  0  0  0  0  0
  -19.5781  -29.4554   20.1623 C   0  0  0  0  0  0  0  0  0  0  0  0
  -22.5449  -29.8177   24.1500 C   0  0  1  0  0  0  0  0  0  0  0  0
  -19.0914  -29.5490   22.6103 C   0  0  2  0  0  0  0  0  0  0  0  0
  -22.7241  -29.8894   25.6927 C   0  0  0  0  0  0  0  0  0  0  0  0
  -26.2007  -11.3577   20.1645 N   0  0  0  0  0  0  0  0  0  0  0  0
  -25.8425  -19.8802   19.0647 N   0  0  0  0  0  0  0  0  0  0  0  0
  -26.7945  -11.6644   18.9986 N   0  0  0  0  0  0  0  0  0  0  0  0
  -27.6899  -21.4006   19.0476 N   0  0  3  0  0  0  0  0  0  0  0  0
  -24.3345  -30.3234   22.5173 N   0  0  0  0  0  0  0  0  0  0  0  0
  -28.9826  -14.6069   20.0651 N   0  0  0  0  0  0  0  0  0  0  0  0
  -26.7194  -11.2355   16.6703 N   0  0  0  0  0  0  0  0  0  0  0  0
  -23.3515   -8.7090   18.3044 N   0  0  0  0  0  0  0  0  0  0  0  0
  -27.6457  -16.5128   19.6870 N   0  0  0  0  0  0  0  0  0  0  0  0
  -27.2671  -32.3236   22.8759 N   0  0  0  0  0  0  0  0  0  0  0  0
  -21.1750  -30.0330   23.6969 N   0  0  0  0  0  0  0  0  0  0  0  0
  -18.6878  -29.0300   21.2729 N   0  3  0  0  0  0  0  0  0  0  0  0
  -24.4705   -9.3110   16.3954 O   0  0  0  0  0  0  0  0  0  0  0  0
  -26.8491  -30.0741   23.3086 O   0  0  0  0  0  0  0  0  0  0  0  0
  -23.2249  -32.0340   23.6482 O   0  0  0  0  0  0  0  0  0  0  0  0
  -20.9494  -28.0047   22.5959 O   0  0  0  0  0  0  0  0  0  0  0  0
  -29.9520  -16.6954   19.8590 O   0  0  0  0  0  0  0  0  0  0  0  0
  -21.8342   -8.3015   23.6492 O   0  0  0  0  0  0  0  0  0  0  0  0
  -26.3323  -25.4556   19.2978 O   0  0  0  0  0  0  0  0  0  1  0  0
  -20.7944   -2.8942   23.3591 F   0  0  0  0  0  0  0  0  0  0  0  0
  -22.4822   -6.6182   25.7443 F   0  0  0  0  0  0  0  0  0  0  0  0
  -25.6243  -18.2442   19.2592 S   0  0  0  0  0  0  0  0  0  0  0  0
  1  2  1  0  0  0  0
  1  5  2  0  0  0  0
  2  6  2  0  0  0  0
  3  8  2  0  0  0  0
  3 16  1  0  0  0  0
  4  9  1  0  0  0  0
  4 16  2  0  0  0  0
  5 18  1  0  0  0  0
  6 20  1  0  0  0  0
  7 10  2  0  0  0  0
  7 19  1  0  0  0  0
  8 22  1  0  0  0  0
  9 22  2  0  0  0  0
 10 23  1  0  0  0  0
 11 12  2  0  0  0  0
 11 24  1  0  0  0  0
 12 25  1  0  0  0  0
 13 21  1  0  0  0  0
 13 23  2  0  0  0  0
 14 25  2  0  0  0  0
 14 26  1  0  0  0  0
 15 28  1  0  0  0  0
 15 30  2  0  0  0  0
 16 27  1  0  0  0  0
 17 27  1  0  0  0  0
 17 29  2  0  0  0  0
 17 33  1  0  0  0  0
 18 20  2  0  0  0  0
 18 38  1  0  0  0  0
 19 21  2  0  0  0  0
 19 39  1  0  0  0  0
 20 50  1  0  0  0  0
 21 40  1  0  0  0  0
 22 78  1  0  0  0  0
 23 79  1  0  0  0  0
 24 26  2  0  0  0  0
 24 78  1  0  0  0  0
 25 80  1  0  0  0  0
 26 81  1  0  0  0  0
 27 61  2  0  0  0  0
 28 62  2  0  0  0  0
 28 64  1  0  0  0  0
 29 63  1  0  0  0  0
 29 67  1  0  0  0  0
 30 69  1  0  0  0  0
 30 82  1  0  0  0  0
 31 32  2  0  0  0  0
 31 41  1  0  0  0  0
 31 42  1  0  0  0  0
 32 79  1  0  0  0  0
 33 68  1  0  0  0  0
 33 73  2  0  0  0  0
 34 51  1  0  0  0  0
 34 70  1  0  0  0  0
 34 74  2  0  0  0  0
 35 58  1  0  0  0  0
 35 65  1  0  0  0  0
 35 75  2  0  0  0  0
 36 59  1  0  0  0  0
 36 71  1  0  0  0  0
 36 76  2  0  0  0  0
 37 66  1  0  0  0  0
 37 69  1  0  0  0  0
 37 77  2  0  0  0  0
 38 43  1  0  0  0  0
 39 51  1  0  0  0  0
 40 65  1  0  0  0  0
 41 47  1  0  0  0  0
 42 64  1  0  0  0  0
 43 45  1  0  0  0  0
 44 46  1  0  0  0  0
 44 48  1  0  0  0  0
 45 50  1  0  0  0  0
 46 52  1  0  0  0  0
 47 64  1  0  0  0  0
 48 66  1  0  0  0  0
 49 52  1  0  0  0  0
 49 66  1  0  0  0  0
 50 70  1  0  0  0  0
 51 65  1  0  0  0  0
 52 63  1  0  0  0  0
 53 59  1  0  0  0  0
 54 60  1  0  0  0  0
 55 60  1  0  0  0  0
 56 60  1  0  0  0  0
 57 72  1  0  0  0  0
 58 60  1  0  0  0  0
 58 71  1  0  0  0  0
 59 72  1  0  0  0  0
 61 63  1  0  0  0  0
 62 82  1  0  0  0  0
M  CHG  1  72   1
M  ISO  4  32 101  37 100  69 100  79 101
M  END
> <Batch ID>
0155

> <Smiles>
CNC(C)C(=O)NC(C(=O)N1Cc2cc([101O:1][101CH:1]=C3CCN(c4cc([100NH:0][100C:0](=O)N5CCCC(n6nc(-c7ccc(Oc8ccc(F)cc8F)cc7)c(C(N)=O)c6N)C5)sn4)C3)ccc2CC1C(=O)NC1CCCc2ccccc21)C(C)(C)C

> <Shape>
0.287

> <Color>
0.115

> <Negative vol penalty>
0.000

$$$$

  -OEChem-04052303363D

 85 94  0     1  0  0  0  0  0999 V2000
  -28.0265  -36.6046   17.0597 C   0  0  0  0  0  0  0  0  0  0  0  0
  -28.4708  -35.3332   17.4082 C   0  0  0  0  0  0  0  0  0  0  0  0
  -25.2870  -20.8735   22.2519 C   0  0  0  0  0  0  0  0  0  0  0  0
  -23.2385   -9.3407   21.5223 C   0  0  0  0  0  0  0  0  0  0  0  0
  -25.6139   -8.9709   21.7628 C   0  0  0  0  0  0  0  0  0  0  0  0
  -27.0530  -37.2375   17.8315 C   0  0  0  0  0  0  0  0  0  0  0  0
  -27.9426  -34.6943   18.5294 C   0  0  0  0  0  0  0  0  0  0  0  0
  -26.1455  -21.9349   21.9657 C   0  0  0  0  0  0  0  0  0  0  0  0
  -26.9309  -28.6929   19.2114 C   0  0  0  0  0  0  0  0  0  0  0  0
  -25.5942  -19.5882   21.8055 C   0  0  0  0  0  0  0  0  0  0  0  0
  -22.9913   -8.4062   22.5279 C   0  0  0  0  0  0  0  0  0  0  0  0
  -25.3667   -8.0364   22.7684 C   0  0  0  0  0  0  0  0  0  0  0  0
  -27.6626  -27.6832   19.8352 C   0  0  0  0  0  0  0  0  0  0  0  0
  -22.8910   -5.0413   22.8308 C   0  0  0  0  0  0  0  0  0  0  0  0
  -21.8798   -4.1061   22.6109 C   0  0  0  0  0  0  0  0  0  0  0  0
  -27.6183  -20.4257   20.7866 C   0  0  0  0  0  0  0  0  0  0  0  0
  -26.3239  -27.9501   21.8241 C   0  0  0  0  0  0  0  0  0  0  0  0
  -20.7066   -4.9161   24.5615 C   0  0  0  0  0  0  0  0  0  0  0  0
  -24.5499   -9.6230   21.1397 C   0  0  0  0  0  0  0  0  0  0  0  0
  -24.3631  -10.5367   18.7653 C   0  0  0  0  0  0  0  0  0  0  0  0
  -27.3112  -21.7111   21.2331 C   0  0  0  0  0  0  0  0  0  0  0  0
  -26.5056  -36.6020   18.9572 C   0  0  0  0  0  0  0  0  0  0  0  0
  -25.8956  -29.3473   19.8943 C   0  0  0  0  0  0  0  0  0  0  0  0
  -26.9618  -35.3198   19.3178 C   0  0  0  0  0  0  0  0  0  0  0  0
  -25.5789  -28.9659   21.2059 C   0  0  0  0  0  0  0  0  0  0  0  0
  -26.7598  -19.3643   21.0728 C   0  0  0  0  0  0  0  0  0  0  0  0
  -24.0553   -7.7541   23.1510 C   0  0  0  0  0  0  0  0  0  0  0  0
  -27.3610  -27.3137   21.1427 C   0  0  0  0  0  0  0  0  0  0  0  0
  -22.8100   -5.9139   23.9160 C   0  0  0  0  0  0  0  0  0  0  0  0
  -20.7876   -4.0434   23.4763 C   0  0  0  0  0  0  0  0  0  0  0  0
  -21.7178   -5.8513   24.7813 C   0  0  0  0  0  0  0  0  0  0  0  0
  -24.8060  -10.5877   20.1006 C   0  0  0  0  0  0  0  0  0  0  0  0
  -24.8684  -11.6780   18.1921 C   0  0  0  0  0  0  0  0  0  0  0  0
  -23.5662   -9.5462   18.1023 C   0  0  0  0  0  0  0  0  0  0  0  0
  -25.3508  -32.3443   20.8025 C   0  0  0  0  0  0  0  0  0  0  0  0
  -22.4699  -31.1418   21.6838 C   0  0  0  0  0  0  0  0  0  0  0  0
  -20.6239  -28.4224   22.6024 C   0  0  0  0  0  0  0  0  0  0  0  0
  -26.3340  -16.8872   20.8135 C   0  0  0  0  0  0  0  0  0  0  0  0
  -25.4896  -37.3452   19.7880 C   0  0  0  0  0  0  0  0  0  0  0  0
  -25.0983  -30.4160   19.1982 C   0  0  0  0  0  0  0  0  0  0  0  0
  -24.4636  -29.6234   21.9756 C   0  0  0  0  0  0  0  0  0  0  0  0
  -24.7104  -36.4465   20.7447 C   0  0  0  0  0  0  0  0  0  0  0  0
  -28.7588  -14.3470   19.2669 C   0  0  0  0  0  0  0  0  0  0  0  0
  -28.8291  -23.4896   22.2006 C   0  0  0  0  0  0  0  0  0  0  0  0
  -27.5631  -23.9342   20.0505 C   0  0  0  0  0  0  0  0  0  0  0  0
  -25.6574  -35.5095   21.4877 C   0  0  0  0  0  0  0  0  0  0  0  0
  -27.7550  -13.4238   18.5803 C   0  0  0  0  0  0  0  0  0  0  0  0
  -29.7804  -24.6450   21.8771 C   0  0  0  0  0  0  0  0  0  0  0  0
  -28.5180  -25.0866   19.7285 C   0  0  0  0  0  0  0  0  0  0  0  0
  -28.1949  -15.7432   19.4986 C   0  0  0  0  0  0  0  0  0  0  0  0
  -26.2499  -14.4398   20.3784 C   0  0  0  0  0  0  0  0  0  0  0  0
  -28.2452  -22.8665   20.9219 C   0  0  0  0  0  0  0  0  0  0  0  0
  -26.3952  -34.5840   20.5126 C   0  0  1  0  0  0  0  0  0  0  0  0
  -24.4024  -31.3681   20.1659 C   0  0  1  0  0  0  0  0  0  0  0  0
  -26.3090  -13.6320   19.0725 C   0  0  2  0  0  0  0  0  0  0  0  0
  -29.1202  -25.7153   20.9951 C   0  0  0  0  0  0  0  0  0  1  0  0
  -18.3057  -27.7587   23.2973 C   0  0  0  0  0  0  0  0  0  0  0  0
  -22.9648  -32.3223   24.4535 C   0  0  0  0  0  0  0  0  0  0  0  0
  -21.1356  -30.8544   25.3296 C   0  0  0  0  0  0  0  0  0  0  0  0
  -20.6257  -32.5874   23.6093 C   0  0  0  0  0  0  0  0  0  0  0  0
  -20.3208  -26.6127   20.2803 C   0  0  0  0  0  0  0  0  0  0  0  0
  -30.1316  -26.8035   20.6299 C   0  0  0  0  0  0  0  0  0  0  0  0
  -21.9113  -30.5161   22.9390 C   0  0  1  0  0  0  0  0  0  0  0  0
  -19.2711  -27.9181   22.1332 C   0  0  2  0  0  0  0  0  0  0  0  0
  -21.6817  -31.5588   24.0693 C   0  0  0  0  0  0  0  0  0  0  0  0
  -25.5365  -11.6753   20.3603 N   0  0  0  0  0  0  0  0  0  0  0  0
  -25.5567  -12.3181   19.1803 N   0  0  0  0  0  0  0  0  0  0  0  0
  -23.7172  -30.6672   21.2538 N   0  0  0  0  0  0  0  0  0  0  0  0
  -26.9203  -15.7368   20.2312 N   0  0  0  0  0  0  0  0  0  0  0  0
  -24.7868  -12.1863   16.9441 N   0  0  0  0  0  0  0  0  0  0  0  0
  -24.2169   -8.4734   17.4778 N   0  0  0  0  0  0  0  0  0  0  0  0
  -27.0719  -18.0580   20.6200 N   0  0  0  0  0  0  0  0  0  0  0  0
  -25.5271  -33.5095   20.0809 N   0  0  0  0  0  0  0  0  0  0  0  0
  -20.7076  -29.7971   22.5358 N   0  0  0  0  0  0  0  0  0  0  0  0
  -30.9378  -27.1176   21.8257 N   0  3  0  0  0  0  0  0  0  0  0  0
  -19.4163  -26.5971   21.4587 N   0  3  0  0  0  0  0  0  0  0  0  0
  -22.3150   -9.6192   18.0508 O   0  0  0  0  0  0  0  0  0  0  0  0
  -25.8822  -32.0619   21.8700 O   0  0  0  0  0  0  0  0  0  0  0  0
  -21.8202  -32.0142   21.1021 O   0  0  0  0  0  0  0  0  0  0  0  0
  -21.5157  -27.6722   22.9928 O   0  0  0  0  0  0  0  0  0  0  0  0
  -25.2617  -16.8317   21.4192 O   0  0  0  0  0  0  0  0  0  0  0  0
  -23.8144   -6.8424   24.1325 O   0  0  0  0  0  0  0  0  0  0  0  0
  -28.0741  -26.3290   21.7541 O   0  0  0  0  0  0  0  0  0  1  0  0
  -19.8158   -3.1463   23.2641 F   0  0  0  0  0  0  0  0  0  0  0  0
  -21.6339   -6.6878   25.8249 F   0  0  0  0  0  0  0  0  0  0  0  0
  1  2  1  0  0  0  0
  1  6  2  0  0  0  0
  2  7  2  0  0  0  0
  3  8  2  0  0  0  0
  3 10  1  0  0  0  0
  4 11  2  0  0  0  0
  4 19  1  0  0  0  0
  5 12  1  0  0  0  0
  5 19  2  0  0  0  0
  6 22  1  0  0  0  0
  7 24  1  0  0  0  0
  8 21  1  0  0  0  0
  9 13  2  0  0  0  0
  9 23  1  0  0  0  0
 10 26  2  0  0  0  0
 11 27  1  0  0  0  0
 12 27  2  0  0  0  0
 13 28  1  0  0  0  0
 14 15  2  0  0  0  0
 14 29  1  0  0  0  0
 15 30  1  0  0  0  0
 16 21  2  0  0  0  0
 16 26  1  0  0  0  0
 17 25  1  0  0  0  0
 17 28  2  0  0  0  0
 18 30  2  0  0  0  0
 18 31  1  0  0  0  0
 19 32  1  0  0  0  0
 20 32  1  0  0  0  0
 20 33  2  0  0  0  0
 20 34  1  0  0  0  0
 21 52  1  0  0  0  0
 22 24  2  0  0  0  0
 22 39  1  0  0  0  0
 23 25  2  0  0  0  0
 23 40  1  0  0  0  0
 24 53  1  0  0  0  0
 25 41  1  0  0  0  0
 26 72  1  0  0  0  0
 27 82  1  0  0  0  0
 28 83  1  0  0  0  0
 29 31  2  0  0  0  0
 29 82  1  0  0  0  0
 30 84  1  0  0  0  0
 31 85  1  0  0  0  0
 32 66  2  0  0  0  0
 33 67  1  0  0  0  0
 33 70  1  0  0  0  0
 34 71  1  0  0  0  0
 34 77  2  0  0  0  0
 35 54  1  0  0  0  0
 35 73  1  0  0  0  0
 35 78  2  0  0  0  0
 36 63  1  0  0  0  0
 36 68  1  0  0  0  0
 36 79  2  0  0  0  0
 37 64  1  0  0  0  0
 37 74  1  0  0  0  0
 37 80  2  0  0  0  0
 38 69  1  0  0  0  0
 38 72  1  0  0  0  0
 38 81  2  0  0  0  0
 39 42  1  0  0  0  0
 40 54  1  0  0  0  0
 41 68  1  0  0  0  0
 42 46  1  0  0  0  0
 43 47  1  0  0  0  0
 43 50  1  0  0  0  0
 44 48  1  0  0  0  0
 44 52  1  0  0  0  0
 45 49  1  0  0  0  0
 45 52  1  0  0  0  0
 46 53  1  0  0  0  0
 47 55  1  0  0  0  0
 48 56  1  0  0  0  0
 49 56  1  0  0  0  0
 50 69  1  0  0  0  0
 51 55  1  0  0  0  0
 51 69  1  0  0  0  0
 53 73  1  0  0  0  0
 54 68  1  0  0  0  0
 55 67  1  0  0  0  0
 56 62  1  0  0  0  0
 56 83  1  0  0  0  0
 57 64  1  0  0  0  0
 58 65  1  0  0  0  0
 59 65  1  0  0  0  0
 60 65  1  0  0  0  0
 61 76  1  0  0  0  0
 62 75  1  0  0  0  0
 63 65  1  0  0  0  0
 63 74  1  0  0  0  0
 64 76  1  0  0  0  0
 66 67  1  0  0  0  0
M  CHG  2  75   1  76   1
M  ISO  4  38 100  56 101  72 100  83 101
M  END
> <Batch ID>
0155

> <Smiles>
CNC(C)C(=O)NC(C(=O)N1Cc2cc([101O:1][101C:1]3(CN)CCC(c4cccc([100NH:0][100C:0](=O)N5CCCC(n6nc(-c7ccc(Oc8ccc(F)cc8F)cc7)c(C(N)=O)c6N)C5)c4)CC3)ccc2CC1C(=O)NC1CCCc2ccccc21)C(C)(C)C

> <Shape>
0.252

> <Color>
0.073

> <Negative vol penalty>
0.000

$$$$

  -OEChem-04052303363D

 84 93  0     1  0  0  0  0  0999 V2000
  -29.3237  -37.2158   21.3678 C   0  0  0  0  0  0  0  0  0  0  0  0
  -29.5499  -35.8928   21.0016 C   0  0  0  0  0  0  0  0  0  0  0  0
  -24.7090   -8.0573   20.4679 C   0  0  0  0  0  0  0  0  0  0  0  0
  -23.1263   -9.8582   20.1702 C   0  0  0  0  0  0  0  0  0  0  0  0
  -28.4004  -37.5125   22.3695 C   0  0  0  0  0  0  0  0  0  0  0  0
  -28.8537  -34.8657   21.6379 C   0  0  0  0  0  0  0  0  0  0  0  0
  -26.9242  -29.6222   19.1302 C   0  0  0  0  0  0  0  0  0  0  0  0
  -23.6856   -7.2360   20.9407 C   0  0  0  0  0  0  0  0  0  0  0  0
  -22.1028   -9.0368   20.6429 C   0  0  0  0  0  0  0  0  0  0  0  0
  -27.4524  -28.3319   19.1309 C   0  0  0  0  0  0  0  0  0  0  0  0
  -21.9693   -6.8027   23.8201 C   0  0  0  0  0  0  0  0  0  0  0  0
  -22.2237   -6.0441   24.9626 C   0  0  0  0  0  0  0  0  0  0  0  0
  -26.0270  -27.7559   20.9898 C   0  0  0  0  0  0  0  0  0  0  0  0
  -27.9124  -21.1250   17.9941 C   0  0  0  0  0  0  0  0  0  0  0  0
  -21.8096   -4.0197   23.7106 C   0  0  0  0  0  0  0  0  0  0  0  0
  -28.7976  -21.8206   15.9607 C   0  0  0  0  0  0  0  0  0  0  0  0
  -24.4294   -9.3685   20.0827 C   0  0  0  0  0  0  0  0  0  0  0  0
  -25.9082  -10.3681   18.2602 C   0  0  0  0  0  0  0  0  0  0  0  0
  -27.6856  -36.4892   23.0117 C   0  0  0  0  0  0  0  0  0  0  0  0
  -25.9496  -29.9928   20.0679 C   0  0  0  0  0  0  0  0  0  0  0  0
  -27.9210  -35.1489   22.6501 C   0  0  0  0  0  0  0  0  0  0  0  0
  -25.4862  -29.0507   20.9973 C   0  0  0  0  0  0  0  0  0  0  0  0
  -28.3332  -22.2254   17.1928 C   0  0  0  0  0  0  0  0  0  0  0  0
  -22.3825   -7.7257   21.0282 C   0  0  0  0  0  0  0  0  0  0  0  0
  -27.0060  -27.3994   20.0627 C   0  0  0  0  0  0  0  0  0  0  0  0
  -21.6350   -6.1699   22.6229 C   0  0  0  0  0  0  0  0  0  0  0  0
  -22.1439   -4.6526   24.9079 C   0  0  0  0  0  0  0  0  0  0  0  0
  -21.5552   -4.7784   22.5681 C   0  0  0  0  0  0  0  0  0  0  0  0
  -25.4863  -10.2176   19.5948 C   0  0  0  0  0  0  0  0  0  0  0  0
  -28.0710  -19.9209   17.3437 C   0  0  0  0  0  0  0  0  0  0  0  0
  -26.9329  -11.2805   18.3249 C   0  0  0  0  0  0  0  0  0  0  0  0
  -25.4178   -9.7394   17.0686 C   0  0  0  0  0  0  0  0  0  0  0  0
  -25.7870  -32.1426   22.4036 C   0  0  0  0  0  0  0  0  0  0  0  0
  -22.7045  -31.1474   22.5766 C   0  0  0  0  0  0  0  0  0  0  0  0
  -27.8401  -24.0928   18.8064 C   0  0  0  0  0  0  0  0  0  0  0  0
  -20.4171  -28.6854   21.9818 C   0  0  0  0  0  0  0  0  0  0  0  0
  -29.0469  -16.0513   20.2914 C   0  0  0  0  0  0  0  0  0  0  0  0
  -26.7324  -36.8556   24.1216 C   0  0  0  0  0  0  0  0  0  0  0  0
  -25.3706  -31.3807   20.0368 C   0  0  0  0  0  0  0  0  0  0  0  0
  -24.4269  -29.3925   22.0120 C   0  0  0  0  0  0  0  0  0  0  0  0
  -25.7623  -35.7348   24.4863 C   0  0  0  0  0  0  0  0  0  0  0  0
  -29.4529  -13.1514   22.2684 C   0  0  0  0  0  0  0  0  0  0  0  0
  -26.5051  -34.4095   24.6234 C   0  0  0  0  0  0  0  0  0  0  0  0
  -28.4721  -12.1473   21.6694 C   0  0  0  0  0  0  0  0  0  0  0  0
  -26.6194  -18.4127   18.8826 C   0  0  0  0  0  0  0  0  0  0  0  0
  -28.8671  -14.5569   22.2497 C   0  0  0  0  0  0  0  0  0  0  0  0
  -26.8259  -17.0171   19.4557 C   0  0  0  0  0  0  0  0  0  0  0  0
  -28.9009  -17.8307   18.5755 C   0  0  0  0  0  0  0  0  0  0  0  0
  -27.5102  -14.0267   20.2427 C   0  0  0  0  0  0  0  0  0  0  0  0
  -27.1674  -34.0087   23.2997 C   0  0  1  0  0  0  0  0  0  0  0  0
  -27.7468  -18.5306   17.8440 C   0  0  2  0  0  0  0  0  0  0  0  0
  -24.7540  -31.8008   21.3674 C   0  0  1  0  0  0  0  0  0  0  0  0
  -28.0477  -12.5807   20.2577 C   0  0  2  0  0  0  0  0  0  0  0  0
  -17.9824  -28.1481   22.2660 C   0  0  0  0  0  0  0  0  0  0  0  0
  -23.1657  -30.6420   25.5501 C   0  0  0  0  0  0  0  0  0  0  0  0
  -21.0820  -29.2541   25.5662 C   0  0  0  0  0  0  0  0  0  0  0  0
  -20.9583  -31.6800   24.9985 C   0  0  0  0  0  0  0  0  0  0  0  0
  -20.0203  -28.3997   19.0629 C   0  0  0  0  0  0  0  0  0  0  0  0
  -27.9618  -25.6052   18.8285 C   0  0  0  0  0  0  0  0  0  1  0  0
  -21.9705  -30.0678   23.3347 C   0  0  1  0  0  0  0  0  0  0  0  0
  -19.0425  -28.7216   21.3387 C   0  0  2  0  0  0  0  0  0  0  0  0
  -21.8155  -30.4048   24.8446 C   0  0  0  0  0  0  0  0  0  0  0  0
  -26.1858  -10.9737   20.4451 N   0  0  0  0  0  0  0  0  0  0  0  0
  -27.0577  -11.6080   19.6429 N   0  0  0  0  0  0  0  0  0  0  0  0
  -23.8963  -30.7642   21.9453 N   0  0  0  0  0  0  0  0  0  0  0  0
  -28.4400  -14.9503   20.9056 N   0  0  0  0  0  0  0  0  0  0  0  0
  -28.2739  -16.8226   19.4244 N   0  0  0  0  0  0  0  0  0  0  0  0
  -27.7303  -11.8264   17.3823 N   0  0  0  0  0  0  0  0  0  0  0  0
  -24.3597   -8.8272   17.1815 N   0  0  0  0  0  0  0  0  0  0  0  0
  -28.2892  -23.5482   17.5830 N   0  0  0  0  0  0  0  0  0  0  0  0
  -26.1844  -33.4660   22.3867 N   0  0  0  0  0  0  0  0  0  0  0  0
  -20.7066  -29.8648   22.6350 N   0  0  0  0  0  0  0  0  0  0  0  0
  -19.0404  -27.9301   20.0760 N   0  3  0  0  0  0  0  0  0  0  0  0
  -25.9142   -9.9672   15.9394 O   0  0  0  0  0  0  0  0  0  0  0  0
  -26.1923  -31.2707   23.1633 O   0  0  0  0  0  0  0  0  0  0  0  0
  -22.2338  -32.2870   22.5398 O   0  0  0  0  0  0  0  0  0  0  0  0
  -27.3969  -23.4698   19.7655 O   0  0  0  0  0  0  0  0  0  0  0  0
  -21.1583  -27.7074   21.9148 O   0  0  0  0  0  0  0  0  0  0  0  0
  -30.2209  -16.3591   20.5387 O   0  0  0  0  0  0  0  0  0  0  0  0
  -21.3835   -6.9244   21.4892 O   0  0  0  0  0  0  0  0  0  0  0  0
  -27.5257  -26.1265   20.0660 O   0  0  0  0  0  0  0  0  0  1  0  0
  -22.3897   -3.9241   26.0047 F   0  0  0  0  0  0  0  0  0  0  0  0
  -21.2356   -4.1647   21.4205 F   0  0  0  0  0  0  0  0  0  0  0  0
  -28.7252  -20.1200   15.7738 S   0  0  0  0  0  0  0  0  0  0  0  0
  1  2  1  0  0  0  0
  1  5  2  0  0  0  0
  2  6  2  0  0  0  0
  3  8  2  0  0  0  0
  3 17  1  0  0  0  0
  4  9  1  0  0  0  0
  4 17  2  0  0  0  0
  5 19  1  0  0  0  0
  6 21  1  0  0  0  0
  7 10  2  0  0  0  0
  7 20  1  0  0  0  0
  8 24  1  0  0  0  0
  9 24  2  0  0  0  0
 10 25  1  0  0  0  0
 11 12  2  0  0  0  0
 11 26  1  0  0  0  0
 12 27  1  0  0  0  0
 13 22  1  0  0  0  0
 13 25  2  0  0  0  0
 14 23  1  0  0  0  0
 14 30  2  0  0  0  0
 15 27  2  0  0  0  0
 15 28  1  0  0  0  0
 16 23  2  0  0  0  0
 16 84  1  0  0  0  0
 17 29  1  0  0  0  0
 18 29  1  0  0  0  0
 18 31  2  0  0  0  0
 18 32  1  0  0  0  0
 19 21  2  0  0  0  0
 19 38  1  0  0  0  0
 20 22  2  0  0  0  0
 20 39  1  0  0  0  0
 21 50  1  0  0  0  0
 22 40  1  0  0  0  0
 23 70  1  0  0  0  0
 24 80  1  0  0  0  0
 25 81  1  0  0  0  0
 26 28  2  0  0  0  0
 26 80  1  0  0  0  0
 27 82  1  0  0  0  0
 28 83  1  0  0  0  0
 29 63  2  0  0  0  0
 30 51  1  0  0  0  0
 30 84  1  0  0  0  0
 31 64  1  0  0  0  0
 31 68  1  0  0  0  0
 32 69  1  0  0  0  0
 32 74  2  0  0  0  0
 33 52  1  0  0  0  0
 33 71  1  0  0  0  0
 33 75  2  0  0  0  0
 34 60  1  0  0  0  0
 34 65  1  0  0  0  0
 34 76  2  0  0  0  0
 35 59  1  0  0  0  0
 35 70  1  0  0  0  0
 35 77  2  0  0  0  0
 36 61  1  0  0  0  0
 36 72  1  0  0  0  0
 36 78  2  0  0  0  0
 37 66  1  0  0  0  0
 37 67  1  0  0  0  0
 37 79  2  0  0  0  0
 38 41  1  0  0  0  0
 39 52  1  0  0  0  0
 40 65  1  0  0  0  0
 41 43  1  0  0  0  0
 42 44  1  0  0  0  0
 42 46  1  0  0  0  0
 43 50  1  0  0  0  0
 44 53  1  0  0  0  0
 45 47  1  0  0  0  0
 45 51  1  0  0  0  0
 46 66  1  0  0  0  0
 47 67  1  0  0  0  0
 48 51  1  0  0  0  0
 48 67  1  0  0  0  0
 49 53  1  0  0  0  0
 49 66  1  0  0  0  0
 50 71  1  0  0  0  0
 52 65  1  0  0  0  0
 53 64  1  0  0  0  0
 54 61  1  0  0  0  0
 55 62  1  0  0  0  0
 56 62  1  0  0  0  0
 57 62  1  0  0  0  0
 58 73  1  0  0  0  0
 59 81  1  0  0  0  0
 60 62  1  0  0  0  0
 60 72  1  0  0  0  0
 61 73  1  0  0  0  0
 63 64  1  0  0  0  0
M  CHG  1  73   1
M  ISO  4  37 100  59 101  67 100  81 101
M  END
> <Batch ID>
0155

> <Smiles>
CNC(C)C(=O)NC(C(=O)N1Cc2cc([101O:1][101CH2:1]C(=O)Nc3csc(C4CC[100N:0]([100C:0](=O)N5CCCC(n6nc(-c7ccc(Oc8ccc(F)cc8F)cc7)c(C(N)=O)c6N)C5)C4)c3)ccc2CC1C(=O)NC1CCCc2ccccc21)C(C)(C)C

> <Shape>
0.290

> <Color>
0.104

> <Negative vol penalty>
0.000

$$$$

  -OEChem-04052303363D

 85 94  0     1  0  0  0  0  0999 V2000
  -44.1365  -23.6364   13.7176 C   0  0  0  0  0  0  0  0  0  0  0  0
  -43.1449  -22.7477   14.1205 C   0  0  0  0  0  0  0  0  0  0  0  0
  -23.0006   -9.8921   19.9809 C   0  0  0  0  0  0  0  0  0  0  0  0
  -23.7251   -9.9440   22.2851 C   0  0  0  0  0  0  0  0  0  0  0  0
  -43.7967  -24.9365   13.3458 C   0  0  0  0  0  0  0  0  0  0  0  0
  -41.8129  -23.1590   14.1528 C   0  0  0  0  0  0  0  0  0  0  0  0
  -36.8773  -19.7539   12.9073 C   0  0  0  0  0  0  0  0  0  0  0  0
  -22.2344   -8.7574   20.2474 C   0  0  0  0  0  0  0  0  0  0  0  0
  -22.9589   -8.8093   22.5516 C   0  0  0  0  0  0  0  0  0  0  0  0
  -35.9705  -19.0819   13.7257 C   0  0  0  0  0  0  0  0  0  0  0  0
  -23.2045   -5.4704   22.0808 C   0  0  0  0  0  0  0  0  0  0  0  0
  -23.7922   -4.4536   22.8334 C   0  0  0  0  0  0  0  0  0  0  0  0
  -31.5370  -18.2401   19.5749 C   0  0  0  0  0  0  0  0  0  0  0  0
  -34.4734  -20.9697   13.6067 C   0  0  0  0  0  0  0  0  0  0  0  0
  -30.4675  -20.4265   19.7161 C   0  0  0  0  0  0  0  0  0  0  0  0
  -22.0677   -4.6964   24.5080 C   0  0  0  0  0  0  0  0  0  0  0  0
  -23.7461  -10.4854   20.9998 C   0  0  0  0  0  0  0  0  0  0  0  0
  -24.1305  -13.0011   20.8232 C   0  0  0  0  0  0  0  0  0  0  0  0
  -42.4587  -25.3610   13.3643 C   0  0  0  0  0  0  0  0  0  0  0  0
  -36.5933  -21.0454   12.4405 C   0  0  0  0  0  0  0  0  0  0  0  0
  -41.4550  -24.4664   13.7821 C   0  0  0  0  0  0  0  0  0  0  0  0
  -30.9622  -17.9488   20.7899 C   0  0  0  0  0  0  0  0  0  0  0  0
  -35.3771  -21.6549   12.7804 C   0  0  0  0  0  0  0  0  0  0  0  0
  -30.1686  -18.8511   21.4565 C   0  0  0  0  0  0  0  0  0  0  0  0
  -29.8985  -20.1005   20.9498 C   0  0  0  0  0  0  0  0  0  0  0  0
  -31.2813  -19.5021   19.0328 C   0  0  0  0  0  0  0  0  0  0  0  0
  -22.2135   -8.2161   21.5327 C   0  0  0  0  0  0  0  0  0  0  0  0
  -34.7696  -19.6909   14.0780 C   0  0  0  0  0  0  0  0  0  0  0  0
  -22.0484   -6.1002   22.5418 C   0  0  0  0  0  0  0  0  0  0  0  0
  -23.2238   -4.0666   24.0470 C   0  0  0  0  0  0  0  0  0  0  0  0
  -21.4800   -5.7132   23.7554 C   0  0  0  0  0  0  0  0  0  0  0  0
  -24.5382  -11.6572   20.7251 C   0  0  0  0  0  0  0  0  0  0  0  0
  -25.2402  -13.7239   20.4589 C   0  0  0  0  0  0  0  0  0  0  0  0
  -22.8623  -13.5471   21.2091 C   0  0  0  0  0  0  0  0  0  0  0  0
  -37.9411  -23.9030   12.7881 C   0  0  0  0  0  0  0  0  0  0  0  0
  -35.7017  -24.7916   10.6161 C   0  0  0  0  0  0  0  0  0  0  0  0
  -32.6681  -19.0797   16.9756 C   0  0  0  0  0  0  0  0  0  0  0  0
  -32.6708  -24.1892    9.1677 C   0  0  0  0  0  0  0  0  0  0  0  0
  -30.7294  -14.6705   20.6909 C   0  0  0  0  0  0  0  0  0  0  0  0
  -42.1455  -26.7903   12.9988 C   0  0  0  0  0  0  0  0  0  0  0  0
  -37.5701  -21.7462   11.5366 C   0  0  0  0  0  0  0  0  0  0  0  0
  -29.9105  -17.9225   22.6068 C   0  0  0  0  0  0  0  0  0  0  0  0
  -35.0156  -23.0319   12.2889 C   0  0  0  0  0  0  0  0  0  0  0  0
  -40.6679  -27.0334   12.7024 C   0  0  0  0  0  0  0  0  0  0  0  0
  -29.5991  -12.2352   18.3663 C   0  0  0  0  0  0  0  0  0  0  0  0
  -39.7952  -26.3875   13.7739 C   0  0  0  0  0  0  0  0  0  0  0  0
  -28.1496  -11.9762   18.7806 C   0  0  0  0  0  0  0  0  0  0  0  0
  -30.4985  -12.4719   19.5776 C   0  0  0  0  0  0  0  0  0  0  0  0
  -28.5872  -13.2670   20.9120 C   0  0  0  0  0  0  0  0  0  0  0  0
  -39.9960  -24.8676   13.8067 C   0  0  1  0  0  0  0  0  0  0  0  0
  -30.8311  -16.8938   21.8548 C   0  0  1  0  0  0  0  0  0  0  0  0
  -37.4046  -23.2627   11.5392 C   0  0  1  0  0  0  0  0  0  0  0  0
  -27.6295  -13.0787   19.7228 C   0  0  2  0  0  0  0  0  0  0  0  0
  -31.0908  -25.1101    7.4493 C   0  0  0  0  0  0  0  0  0  0  0  0
  -34.8549  -26.9773   12.5695 C   0  0  0  0  0  0  0  0  0  0  0  0
  -32.7327  -27.2246   11.2644 C   0  0  0  0  0  0  0  0  0  0  0  0
  -34.9272  -27.6903   10.1734 C   0  0  0  0  0  0  0  0  0  0  0  0
  -32.8386  -21.7314    7.5276 C   0  0  0  0  0  0  0  0  0  0  0  0
  -29.0357  -21.0611   21.6838 C   0  0  0  0  0  0  0  0  0  0  0  0
  -33.0555  -19.8384   15.7199 C   0  0  0  0  0  0  0  0  0  1  0  0
  -34.2826  -25.3010   10.6910 C   0  0  1  0  0  0  0  0  0  0  0  0
  -32.2398  -24.1493    7.7127 C   0  0  2  0  0  0  0  0  0  0  0  0
  -34.2067  -26.7731   11.1856 C   0  0  0  0  0  0  0  0  0  0  0  0
  -25.8076  -11.5310   20.3293 N   0  0  0  0  0  0  0  0  0  0  0  0
  -26.2072  -12.8049   20.1754 N   0  0  0  0  0  0  0  0  0  0  0  0
  -36.0063  -23.6788   11.4128 N   0  0  0  0  0  0  0  0  0  0  0  0
  -29.9500  -13.5335   20.4253 N   0  0  0  0  0  0  0  0  0  0  0  0
  -25.4732  -15.0497   20.3565 N   0  0  0  0  0  0  0  0  0  0  0  0
  -21.8307  -12.6627   21.5526 N   0  0  0  0  0  0  0  0  0  0  0  0
  -31.8465  -19.8568   17.7850 N   0  0  0  0  0  0  0  0  0  0  0  0
  -39.2795  -24.2395   12.7175 N   0  0  0  0  0  0  0  0  0  0  0  0
  -33.7005  -25.0834    9.3711 N   0  0  0  0  0  0  0  0  0  0  0  0
  -30.1386  -15.6392   21.4956 N   0  0  0  0  0  0  0  0  0  0  0  0
  -27.5889  -20.9479   21.3396 N   0  3  0  0  0  0  0  0  0  0  0  0
  -31.7982  -22.7754    7.3408 N   0  3  0  0  0  0  0  0  0  0  0  0
  -22.6451  -14.7824   21.2325 O   0  0  0  0  0  0  0  0  0  0  0  0
  -37.1956  -24.0801   13.7444 O   0  0  0  0  0  0  0  0  0  0  0  0
  -36.5082  -25.3556    9.8725 O   0  0  0  0  0  0  0  0  0  0  0  0
  -33.0634  -17.9373   17.1837 O   0  0  0  0  0  0  0  0  0  0  0  0
  -32.1440  -23.4991   10.0377 O   0  0  0  0  0  0  0  0  0  0  0  0
  -31.8697  -14.8223   20.2394 O   0  0  0  0  0  0  0  0  0  0  0  0
  -21.4658   -7.1090   21.7931 O   0  0  0  0  0  0  0  0  0  0  0  0
  -33.8830  -19.0375   14.8772 O   0  0  0  0  0  0  0  0  0  1  0  0
  -23.7873   -3.0891   24.7688 F   0  0  0  0  0  0  0  0  0  0  0  0
  -20.3688   -6.3138   24.2029 F   0  0  0  0  0  0  0  0  0  0  0  0
  1  2  1  0  0  0  0
  1  5  2  0  0  0  0
  2  6  2  0  0  0  0
  3  8  2  0  0  0  0
  3 17  1  0  0  0  0
  4  9  1  0  0  0  0
  4 17  2  0  0  0  0
  5 19  1  0  0  0  0
  6 21  1  0  0  0  0
  7 10  2  0  0  0  0
  7 20  1  0  0  0  0
  8 27  1  0  0  0  0
  9 27  2  0  0  0  0
 10 28  1  0  0  0  0
 11 12  2  0  0  0  0
 11 29  1  0  0  0  0
 12 30  1  0  0  0  0
 13 22  1  0  0  0  0
 13 26  2  0  0  0  0
 14 23  1  0  0  0  0
 14 28  2  0  0  0  0
 15 25  2  0  0  0  0
 15 26  1  0  0  0  0
 16 30  2  0  0  0  0
 16 31  1  0  0  0  0
 17 32  1  0  0  0  0
 18 32  1  0  0  0  0
 18 33  2  0  0  0  0
 18 34  1  0  0  0  0
 19 21  2  0  0  0  0
 19 40  1  0  0  0  0
 20 23  2  0  0  0  0
 20 41  1  0  0  0  0
 21 50  1  0  0  0  0
 22 24  2  0  0  0  0
 22 51  1  0  0  0  0
 23 43  1  0  0  0  0
 24 25  1  0  0  0  0
 24 42  1  0  0  0  0
 25 59  1  0  0  0  0
 26 70  1  0  0  0  0
 27 82  1  0  0  0  0
 28 83  1  0  0  0  0
 29 31  2  0  0  0  0
 29 82  1  0  0  0  0
 30 84  1  0  0  0  0
 31 85  1  0  0  0  0
 32 64  2  0  0  0  0
 33 65  1  0  0  0  0
 33 68  1  0  0  0  0
 34 69  1  0  0  0  0
 34 76  2  0  0  0  0
 35 52  1  0  0  0  0
 35 71  1  0  0  0  0
 35 77  2  0  0  0  0
 36 61  1  0  0  0  0
 36 66  1  0  0  0  0
 36 78  2  0  0  0  0
 37 60  1  0  0  0  0
 37 70  1  0  0  0  0
 37 79  2  0  0  0  0
 38 62  1  0  0  0  0
 38 72  1  0  0  0  0
 38 80  2  0  0  0  0
 39 67  1  0  0  0  0
 39 73  1  0  0  0  0
 39 81  2  0  0  0  0
 40 44  1  0  0  0  0
 41 52  1  0  0  0  0
 42 51  1  0  0  0  0
 43 66  1  0  0  0  0
 44 46  1  0  0  0  0
 45 47  1  0  0  0  0
 45 48  1  0  0  0  0
 46 50  1  0  0  0  0
 47 53  1  0  0  0  0
 48 67  1  0  0  0  0
 49 53  1  0  0  0  0
 49 67  1  0  0  0  0
 50 71  1  0  0  0  0
 51 73  1  0  0  0  0
 52 66  1  0  0  0  0
 53 65  1  0  0  0  0
 54 62  1  0  0  0  0
 55 63  1  0  0  0  0
 56 63  1  0  0  0  0
 57 63  1  0  0  0  0
 58 75  1  0  0  0  0
 59 74  1  0  0  0  0
 60 83  1  0  0  0  0
 61 63  1  0  0  0  0
 61 72  1  0  0  0  0
 62 75  1  0  0  0  0
 64 65  1  0  0  0  0
M  CHG  2  74   1  75   1
M  ISO  4  39 100  60 101  73 100  83 101
M  END
> <Batch ID>
0155

> <Smiles>
CNC(C)C(=O)NC(C(=O)N1Cc2cc([101O:1][101CH2:1]C(=O)Nc3cc(CN)c4c(c3)C([100NH:0][100C:0](=O)N3CCCC(n5nc(-c6ccc(Oc7ccc(F)cc7F)cc6)c(C(N)=O)c5N)C3)C4)ccc2CC1C(=O)NC1CCCc2ccccc21)C(C)(C)C

> <Shape>
0.196

> <Color>
0.186

> <Negative vol penalty>
0.000

$$$$

  -OEChem-04052303363D

 85 94  0     1  0  0  0  0  0999 V2000
  -17.6568  -21.1323   25.9035 C   0  0  0  0  0  0  0  0  0  0  0  0
  -18.6422  -20.6726   25.0357 C   0  0  0  0  0  0  0  0  0  0  0  0
  -26.5202  -12.3553   21.2257 C   0  0  0  0  0  0  0  0  0  0  0  0
  -24.9802  -13.7976   20.0487 C   0  0  0  0  0  0  0  0  0  0  0  0
  -17.0166  -22.3447   25.6501 C   0  0  0  0  0  0  0  0  0  0  0  0
  -18.9871  -21.4246   23.9132 C   0  0  0  0  0  0  0  0  0  0  0  0
  -25.9475  -24.1889   21.6909 C   0  0  0  0  0  0  0  0  0  0  0  0
  -25.4983  -11.4272   21.4256 C   0  0  0  0  0  0  0  0  0  0  0  0
  -23.9583  -12.8695   20.2485 C   0  0  0  0  0  0  0  0  0  0  0  0
  -27.0958  -24.8637   21.2758 C   0  0  0  0  0  0  0  0  0  0  0  0
  -23.9228   -9.0322   19.6326 C   0  0  0  0  0  0  0  0  0  0  0  0
  -24.2123   -7.6884   19.3966 C   0  0  0  0  0  0  0  0  0  0  0  0
  -31.0253  -23.0454   19.3114 C   0  0  0  0  0  0  0  0  0  0  0  0
  -25.7318  -26.5279   20.1722 C   0  0  0  0  0  0  0  0  0  0  0  0
  -23.6718   -7.1685   21.6933 C   0  0  0  0  0  0  0  0  0  0  0  0
  -31.2513  -23.0153   16.9984 C   0  0  0  0  0  0  0  0  0  0  0  0
  -26.2611  -13.5405   20.5373 C   0  0  0  0  0  0  0  0  0  0  0  0
  -31.5088  -23.7203   18.1534 C   0  0  0  0  0  0  0  0  0  0  0  0
  -28.2069  -14.5631   19.2427 C   0  0  0  0  0  0  0  0  0  0  0  0
  -17.3607  -23.1166   24.5292 C   0  0  0  0  0  0  0  0  0  0  0  0
  -24.6853  -24.6901   21.3609 C   0  0  0  0  0  0  0  0  0  0  0  0
  -18.3500  -22.6478   23.6439 C   0  0  0  0  0  0  0  0  0  0  0  0
  -24.5779  -25.8632   20.5959 C   0  0  0  0  0  0  0  0  0  0  0  0
  -24.2174  -11.6843   20.9369 C   0  0  0  0  0  0  0  0  0  0  0  0
  -26.9881  -26.0301   20.5181 C   0  0  0  0  0  0  0  0  0  0  0  0
  -23.5078   -9.4443   20.8990 C   0  0  0  0  0  0  0  0  0  0  0  0
  -24.0868   -6.7565   20.4269 C   0  0  0  0  0  0  0  0  0  0  0  0
  -23.3823   -8.5124   21.9293 C   0  0  0  0  0  0  0  0  0  0  0  0
  -27.3162  -14.4999   20.3310 C   0  0  0  0  0  0  0  0  0  0  0  0
  -29.0083  -15.6443   19.5172 C   0  0  0  0  0  0  0  0  0  0  0  0
  -30.4164  -21.8502   18.9972 C   0  0  0  0  0  0  0  0  0  0  0  0
  -29.4197  -27.4081   18.2866 C   0  0  0  0  0  0  0  0  0  0  0  0
  -32.2028  -25.0201   18.1891 C   0  0  0  0  0  0  0  0  0  0  0  0
  -28.3014  -13.7200   18.0869 C   0  0  0  0  0  0  0  0  0  0  0  0
  -20.9635  -24.2887   21.6116 C   0  0  0  0  0  0  0  0  0  0  0  0
  -21.5612  -27.2797   21.9393 C   0  0  0  0  0  0  0  0  0  0  0  0
  -22.6727  -30.4202   22.6735 C   0  0  0  0  0  0  0  0  0  0  0  0
  -29.6776  -20.9055   21.2126 C   0  0  0  0  0  0  0  0  0  0  0  0
  -16.6077  -24.3977   24.2712 C   0  0  0  0  0  0  0  0  0  0  0  0
  -23.4222  -23.9628   21.7343 C   0  0  0  0  0  0  0  0  0  0  0  0
  -23.1998  -26.3465   20.2350 C   0  0  0  0  0  0  0  0  0  0  0  0
  -30.0370  -26.0745   17.9649 C   0  0  0  0  0  0  0  0  0  0  0  0
  -17.2947  -25.3155   23.2632 C   0  0  0  0  0  0  0  0  0  0  0  0
  -29.4909  -18.4001   23.7355 C   0  0  0  0  0  0  0  0  0  0  0  0
  -17.7474  -24.5225   22.0413 C   0  0  0  0  0  0  0  0  0  0  0  0
  -28.9817  -17.1673   22.9852 C   0  0  0  0  0  0  0  0  0  0  0  0
  -31.3063  -28.4555   17.4059 C   0  0  0  0  0  0  0  0  0  0  0  0
  -28.8516  -19.6857   23.2138 C   0  0  0  0  0  0  0  0  0  0  0  0
  -32.1712  -27.4454   18.1352 C   0  0  0  0  0  0  0  0  0  0  0  0
  -28.4488  -18.6548   21.0128 C   0  0  0  0  0  0  0  0  0  0  0  0
  -18.7694  -23.4470   22.4291 C   0  0  1  0  0  0  0  0  0  0  0  0
  -22.2536  -24.9106   22.0591 C   0  0  1  0  0  0  0  0  0  0  0  0
  -29.1129  -17.3421   21.4595 C   0  0  2  0  0  0  0  0  0  0  0  0
  -21.8453  -32.7153   23.2610 C   0  0  0  0  0  0  0  0  0  0  0  0
  -20.7690  -27.7350   19.0291 C   0  0  0  0  0  0  0  0  0  0  0  0
  -20.8720  -30.1990   19.4606 C   0  0  0  0  0  0  0  0  0  0  0  0
  -19.2367  -28.7841   20.7042 C   0  0  0  0  0  0  0  0  0  0  0  0
  -24.0697  -30.3825   25.2823 C   0  0  0  0  0  0  0  0  0  0  0  0
  -28.0415  -27.4103   18.8924 C   0  0  0  0  0  0  0  0  0  1  0  0
  -21.6958  -28.6236   21.2691 C   0  0  1  0  0  0  0  0  0  0  0  0
  -22.3218  -31.3755   23.7999 C   0  0  2  0  0  0  0  0  0  0  0  0
  -20.6660  -28.8189   20.1207 C   0  0  0  0  0  0  0  0  0  0  0  0
  -27.5313  -15.4641   21.2300 N   0  0  0  0  0  0  0  0  0  0  0  0
  -29.9851  -28.5405   18.0299 N   0  0  0  0  0  0  0  0  0  0  0  0
  -28.5663  -16.1433   20.7071 N   0  0  0  0  0  0  0  0  0  0  0  0
  -31.4958  -26.1390   18.0988 N   0  0  0  0  0  0  0  0  0  0  0  0
  -22.3047  -26.2248   21.3963 N   0  0  0  0  0  0  0  0  0  0  0  0
  -29.0188  -19.7854   21.7622 N   0  0  0  0  0  0  0  0  0  0  0  0
  -30.0409  -16.2072   18.8545 N   0  0  0  0  0  0  0  0  0  0  0  0
  -27.3999  -12.6541   17.9619 N   0  0  0  0  0  0  0  0  0  0  0  0
  -29.8063  -20.8749   19.8244 N   0  0  0  0  0  0  0  0  0  0  0  0
  -20.0727  -24.0403   22.6384 N   0  0  0  0  0  0  0  0  0  0  0  0
  -21.6033  -29.6202   22.3305 N   0  0  0  0  0  0  0  0  0  0  0  0
  -33.5264  -25.0508   18.3131 N   0  3  0  0  0  0  0  0  0  0  0  0
  -23.5106  -31.6134   24.6665 N   0  3  0  0  0  0  0  0  0  0  0  0
  -29.1703  -13.8964   17.1996 O   0  0  0  0  0  0  0  0  0  0  0  0
  -20.7872  -24.0526   20.4221 O   0  0  0  0  0  0  0  0  0  0  0  0
  -20.8134  -27.1642   22.9144 O   0  0  0  0  0  0  0  0  0  0  0  0
  -23.7831  -30.3895   22.1477 O   0  0  0  0  0  0  0  0  0  0  0  0
  -30.1209  -21.8111   21.9235 O   0  0  0  0  0  0  0  0  0  0  0  0
  -23.2200  -10.7788   21.1316 O   0  0  0  0  0  0  0  0  0  0  0  0
  -28.1131  -26.6863   20.1200 O   0  0  0  0  0  0  0  0  0  1  0  0
  -24.3634   -5.4657   20.1996 F   0  0  0  0  0  0  0  0  0  0  0  0
  -22.9830   -8.9021   23.1477 F   0  0  0  0  0  0  0  0  0  0  0  0
  -30.4297  -21.5460   17.3121 S   0  0  0  0  0  0  0  0  0  0  0  0
  1  2  1  0  0  0  0
  1  5  2  0  0  0  0
  2  6  2  0  0  0  0
  3  8  2  0  0  0  0
  3 17  1  0  0  0  0
  4  9  1  0  0  0  0
  4 17  2  0  0  0  0
  5 20  1  0  0  0  0
  6 22  1  0  0  0  0
  7 10  2  0  0  0  0
  7 21  1  0  0  0  0
  8 24  1  0  0  0  0
  9 24  2  0  0  0  0
 10 25  1  0  0  0  0
 11 12  2  0  0  0  0
 11 26  1  0  0  0  0
 12 27  1  0  0  0  0
 13 18  1  0  0  0  0
 13 31  2  0  0  0  0
 14 23  1  0  0  0  0
 14 25  2  0  0  0  0
 15 27  2  0  0  0  0
 15 28  1  0  0  0  0
 16 18  2  0  0  0  0
 16 85  1  0  0  0  0
 17 29  1  0  0  0  0
 18 33  1  0  0  0  0
 19 29  1  0  0  0  0
 19 30  2  0  0  0  0
 19 34  1  0  0  0  0
 20 22  2  0  0  0  0
 20 39  1  0  0  0  0
 21 23  2  0  0  0  0
 21 40  1  0  0  0  0
 22 51  1  0  0  0  0
 23 41  1  0  0  0  0
 24 81  1  0  0  0  0
 25 82  1  0  0  0  0
 26 28  2  0  0  0  0
 26 81  1  0  0  0  0
 27 83  1  0  0  0  0
 28 84  1  0  0  0  0
 29 63  2  0  0  0  0
 30 65  1  0  0  0  0
 30 69  1  0  0  0  0
 31 71  1  0  0  0  0
 31 85  1  0  0  0  0
 32 42  1  0  0  0  0
 32 59  1  0  0  0  0
 32 64  2  0  0  0  0
 33 66  1  0  0  0  0
 33 74  2  0  0  0  0
 34 70  1  0  0  0  0
 34 76  2  0  0  0  0
 35 52  1  0  0  0  0
 35 72  1  0  0  0  0
 35 77  2  0  0  0  0
 36 60  1  0  0  0  0
 36 67  1  0  0  0  0
 36 78  2  0  0  0  0
 37 61  1  0  0  0  0
 37 73  1  0  0  0  0
 37 79  2  0  0  0  0
 38 68  1  0  0  0  0
 38 71  1  0  0  0  0
 38 80  2  0  0  0  0
 39 43  1  0  0  0  0
 40 52  1  0  0  0  0
 41 67  1  0  0  0  0
 42 66  1  0  0  0  0
 43 45  1  0  0  0  0
 44 46  1  0  0  0  0
 44 48  1  0  0  0  0
 45 51  1  0  0  0  0
 46 53  1  0  0  0  0
 47 49  1  0  0  0  0
 47 64  1  0  0  0  0
 48 68  1  0  0  0  0
 49 66  1  0  0  0  0
 50 53  1  0  0  0  0
 50 68  1  0  0  0  0
 51 72  1  0  0  0  0
 52 67  1  0  0  0  0
 53 65  1  0  0  0  0
 54 61  1  0  0  0  0
 55 62  1  0  0  0  0
 56 62  1  0  0  0  0
 57 62  1  0  0  0  0
 58 75  1  0  0  0  0
 59 82  1  0  0  0  0
 60 62  1  0  0  0  0
 60 73  1  0  0  0  0
 61 75  1  0  0  0  0
 63 65  1  0  0  0  0
M  CHG  2  74   1  75   1
M  ISO  4  38 100  59 101  71 100  82 101
M  END
> <Batch ID>
0155

> <Smiles>
CNC(C)C(=O)NC(C(=O)N1Cc2cc([101O:1][101CH2:1]C3=NCCN(C(=N)c4csc([100NH:0][100C:0](=O)N5CCCC(n6nc(-c7ccc(Oc8ccc(F)cc8F)cc7)c(C(N)=O)c6N)C5)c4)C3)ccc2CC1C(=O)NC1CCCc2ccccc21)C(C)(C)C

> <Shape>
0.220

> <Color>
0.055

> <Negative vol penalty>
0.000

$$$$

  -OEChem-04052303363D

 84 93  0     1  0  0  0  0  0999 V2000
  -26.1688  -38.7333   20.3056 C   0  0  0  0  0  0  0  0  0  0  0  0
  -26.7793  -37.6695   19.6491 C   0  0  0  0  0  0  0  0  0  0  0  0
  -26.1357   -8.3426   22.5224 C   0  0  0  0  0  0  0  0  0  0  0  0
  -24.1263   -8.3453   21.1809 C   0  0  0  0  0  0  0  0  0  0  0  0
  -25.6064  -38.5422   21.5670 C   0  0  0  0  0  0  0  0  0  0  0  0
  -26.8286  -36.4141   20.2541 C   0  0  0  0  0  0  0  0  0  0  0  0
  -29.6111  -20.0390   17.1180 C   0  0  0  0  0  0  0  0  0  0  0  0
  -26.7231  -29.4341   18.6464 C   0  0  0  0  0  0  0  0  0  0  0  0
  -29.4103  -21.4178   17.1763 C   0  0  0  0  0  0  0  0  0  0  0  0
  -25.5380   -7.4538   23.4159 C   0  0  0  0  0  0  0  0  0  0  0  0
  -23.5286   -7.4564   22.0744 C   0  0  0  0  0  0  0  0  0  0  0  0
  -27.4457  -28.2645   18.8779 C   0  0  0  0  0  0  0  0  0  0  0  0
  -23.6243   -4.1420   22.7271 C   0  0  0  0  0  0  0  0  0  0  0  0
  -22.9298   -3.0570   22.1924 C   0  0  0  0  0  0  0  0  0  0  0  0
  -28.8737  -21.2388   19.5222 C   0  0  0  0  0  0  0  0  0  0  0  0
  -26.3709  -28.0327   21.0251 C   0  0  0  0  0  0  0  0  0  0  0  0
  -20.9072   -3.8199   23.2714 C   0  0  0  0  0  0  0  0  0  0  0  0
  -25.4298   -8.7884   21.4049 C   0  0  0  0  0  0  0  0  0  0  0  0
  -26.8069   -9.3845   19.3419 C   0  0  0  0  0  0  0  0  0  0  0  0
  -25.6404  -37.2815   22.1836 C   0  0  0  0  0  0  0  0  0  0  0  0
  -25.8256  -29.9185   19.6088 C   0  0  0  0  0  0  0  0  0  0  0  0
  -29.4397  -19.2445   18.2609 C   0  0  0  0  0  0  0  0  0  0  0  0
  -26.2673  -36.2063   21.5254 C   0  0  0  0  0  0  0  0  0  0  0  0
  -29.0841  -19.8532   19.4776 C   0  0  0  0  0  0  0  0  0  0  0  0
  -25.6363  -29.2073   20.8023 C   0  0  0  0  0  0  0  0  0  0  0  0
  -29.0393  -22.0170   18.3770 C   0  0  0  0  0  0  0  0  0  0  0  0
  -24.2345   -7.0107   23.1919 C   0  0  0  0  0  0  0  0  0  0  0  0
  -27.2718  -27.5651   20.0686 C   0  0  0  0  0  0  0  0  0  0  0  0
  -22.9603   -5.0660   23.5340 C   0  0  0  0  0  0  0  0  0  0  0  0
  -21.5713   -2.8959   22.4645 C   0  0  0  0  0  0  0  0  0  0  0  0
  -21.6018   -4.9050   23.8061 C   0  0  0  0  0  0  0  0  0  0  0  0
  -26.0465   -9.7070   20.4818 C   0  0  0  0  0  0  0  0  0  0  0  0
  -27.1621  -10.6003   18.8108 C   0  0  0  0  0  0  0  0  0  0  0  0
  -27.1605   -8.1007   18.8105 C   0  0  0  0  0  0  0  0  0  0  0  0
  -25.6134  -32.5742   21.3426 C   0  0  0  0  0  0  0  0  0  0  0  0
  -22.7736  -31.2929   22.2459 C   0  0  0  0  0  0  0  0  0  0  0  0
  -28.4590  -24.1709   19.5423 C   0  0  0  0  0  0  0  0  0  0  0  0
  -20.8509  -28.5018   22.6462 C   0  0  0  0  0  0  0  0  0  0  0  0
  -29.0009  -15.6345   19.2084 C   0  0  0  0  0  0  0  0  0  0  0  0
  -25.0607  -37.1348   23.5682 C   0  0  0  0  0  0  0  0  0  0  0  0
  -25.0339  -31.1673   19.3324 C   0  0  0  0  0  0  0  0  0  0  0  0
  -28.8726  -19.0297   20.7219 C   0  0  0  0  0  0  0  0  0  0  0  0
  -29.6812  -17.7603   18.1664 C   0  0  0  0  0  0  0  0  0  0  0  0
  -24.6699  -29.6743   21.8589 C   0  0  0  0  0  0  0  0  0  0  0  0
  -24.8245  -35.6837   23.9790 C   0  0  0  0  0  0  0  0  0  0  0  0
  -25.5688  -15.2692   19.8907 C   0  0  0  0  0  0  0  0  0  0  0  0
  -26.0440  -34.8296   23.6469 C   0  0  0  0  0  0  0  0  0  0  0  0
  -25.4445  -13.7516   20.0195 C   0  0  0  0  0  0  0  0  0  0  0  0
  -29.5281  -17.6559   20.6298 C   0  0  0  0  0  0  0  0  0  0  0  0
  -26.8505  -15.7969   20.5377 C   0  0  0  0  0  0  0  0  0  0  0  0
  -27.9579  -13.6131   20.1875 C   0  0  0  0  0  0  0  0  0  0  0  0
  -26.3190  -34.8236   22.1383 C   0  0  1  0  0  0  0  0  0  0  0  0
  -24.5277  -31.8468   20.6010 C   0  0  1  0  0  0  0  0  0  0  0  0
  -26.7085  -13.0485   19.4939 C   0  0  1  0  0  0  0  0  0  0  0  0
  -18.5866  -27.7668   23.4401 C   0  0  0  0  0  0  0  0  0  0  0  0
  -23.6734  -31.6538   25.1390 C   0  0  0  0  0  0  0  0  0  0  0  0
  -21.8550  -30.0769   25.8281 C   0  0  0  0  0  0  0  0  0  0  0  0
  -21.2780  -32.2317   24.7117 C   0  0  0  0  0  0  0  0  0  0  0  0
  -20.1466  -27.4064   19.9886 C   0  0  0  0  0  0  0  0  0  0  0  0
  -28.3406  -25.6381   19.1741 C   0  0  0  0  0  0  0  0  0  1  0  0
  -22.3201  -30.3718   23.3527 C   0  0  1  0  0  0  0  0  0  0  0  0
  -19.4191  -28.1986   22.2429 C   0  0  2  0  0  0  0  0  0  0  0  0
  -22.3013  -31.0755   24.7390 C   0  0  0  0  0  0  0  0  0  0  0  0
  -25.9254  -11.0245   20.6650 N   0  0  0  0  0  0  0  0  0  0  0  0
  -26.6145  -11.5406   19.6331 N   0  0  0  0  0  0  0  0  0  0  0  0
  -23.9238  -30.9040   21.5448 N   0  0  0  0  0  0  0  0  0  0  0  0
  -29.2354  -17.0137   19.3437 N   0  0  0  0  0  0  0  0  0  0  0  0
  -28.0247  -15.0687   20.0406 N   0  0  0  0  0  0  0  0  0  0  0  0
  -27.8863  -10.9462   17.7253 N   0  0  0  0  0  0  0  0  0  0  0  0
  -26.7126   -6.9539   19.4803 N   0  0  0  0  0  0  0  0  0  0  0  0
  -28.8320  -23.3954   18.4342 N   0  0  0  0  0  0  0  0  0  0  0  0
  -25.4001  -33.9344   21.4606 N   0  0  0  0  0  0  0  0  0  0  0  0
  -21.0278  -29.8383   22.9359 N   0  0  0  0  0  0  0  0  0  0  0  0
  -19.3867  -27.1065   21.2294 N   0  3  0  0  0  0  0  0  0  0  0  0
  -27.8668   -7.9741   17.7816 O   0  0  0  0  0  0  0  0  0  0  0  0
  -26.5728  -31.9476   21.7768 O   0  0  0  0  0  0  0  0  0  0  0  0
  -22.1269  -32.3159   22.0074 O   0  0  0  0  0  0  0  0  0  0  0  0
  -28.2426  -23.7752   20.6830 O   0  0  0  0  0  0  0  0  0  0  0  0
  -21.7241  -27.6388   22.7025 O   0  0  0  0  0  0  0  0  0  0  0  0
  -29.6308  -14.9509   18.3912 O   0  0  0  0  0  0  0  0  0  0  0  0
  -23.6511   -6.1432   24.0634 O   0  0  0  0  0  0  0  0  0  0  0  0
  -27.9836  -26.4117   20.2998 O   0  0  0  0  0  0  0  0  0  1  0  0
  -20.9041   -1.8547   21.9497 F   0  0  0  0  0  0  0  0  0  0  0  0
  -20.9582   -5.7900   24.5796 F   0  0  0  0  0  0  0  0  0  0  0  0
  1  2  1  0  0  0  0
  1  5  2  0  0  0  0
  2  6  2  0  0  0  0
  3 10  2  0  0  0  0
  3 18  1  0  0  0  0
  4 11  1  0  0  0  0
  4 18  2  0  0  0  0
  5 20  1  0  0  0  0
  6 23  1  0  0  0  0
  7  9  2  0  0  0  0
  7 22  1  0  0  0  0
  8 12  2  0  0  0  0
  8 21  1  0  0  0  0
  9 26  1  0  0  0  0
 10 27  1  0  0  0  0
 11 27  2  0  0  0  0
 12 28  1  0  0  0  0
 13 14  2  0  0  0  0
 13 29  1  0  0  0  0
 14 30  1  0  0  0  0
 15 24  1  0  0  0  0
 15 26  2  0  0  0  0
 16 25  1  0  0  0  0
 16 28  2  0  0  0  0
 17 30  2  0  0  0  0
 17 31  1  0  0  0  0
 18 32  1  0  0  0  0
 19 32  1  0  0  0  0
 19 33  2  0  0  0  0
 19 34  1  0  0  0  0
 20 23  2  0  0  0  0
 20 40  1  0  0  0  0
 21 25  2  0  0  0  0
 21 41  1  0  0  0  0
 22 24  2  0  0  0  0
 22 43  1  0  0  0  0
 23 52  1  0  0  0  0
 24 42  1  0  0  0  0
 25 44  1  0  0  0  0
 26 71  1  0  0  0  0
 27 81  1  0  0  0  0
 28 82  1  0  0  0  0
 29 31  2  0  0  0  0
 29 81  1  0  0  0  0
 30 83  1  0  0  0  0
 31 84  1  0  0  0  0
 32 64  2  0  0  0  0
 33 65  1  0  0  0  0
 33 69  1  0  0  0  0
 34 70  1  0  0  0  0
 34 75  2  0  0  0  0
 35 53  1  0  0  0  0
 35 72  1  0  0  0  0
 35 76  2  0  0  0  0
 36 61  1  0  0  0  0
 36 66  1  0  0  0  0
 36 77  2  0  0  0  0
 37 60  1  0  0  0  0
 37 71  1  0  0  0  0
 37 78  2  0  0  0  0
 38 62  1  0  0  0  0
 38 73  1  0  0  0  0
 38 79  2  0  0  0  0
 39 67  1  0  0  0  0
 39 68  1  0  0  0  0
 39 80  2  0  0  0  0
 40 45  1  0  0  0  0
 41 53  1  0  0  0  0
 42 49  1  0  0  0  0
 43 67  1  0  0  0  0
 44 66  1  0  0  0  0
 45 47  1  0  0  0  0
 46 48  1  0  0  0  0
 46 50  1  0  0  0  0
 47 52  1  0  0  0  0
 48 54  1  0  0  0  0
 49 67  1  0  0  0  0
 50 68  1  0  0  0  0
 51 54  1  0  0  0  0
 51 68  1  0  0  0  0
 52 72  1  0  0  0  0
 53 66  1  0  0  0  0
 54 65  1  0  0  0  0
 55 62  1  0  0  0  0
 56 63  1  0  0  0  0
 57 63  1  0  0  0  0
 58 63  1  0  0  0  0
 59 74  1  0  0  0  0
 60 82  1  0  0  0  0
 61 63  1  0  0  0  0
 61 73  1  0  0  0  0
 62 74  1  0  0  0  0
 64 65  1  0  0  0  0
M  CHG  1  74   1
M  ISO  4  39 100  60 101  67 100  82 101
M  END
> <Batch ID>
0155

> <Smiles>
CNC(C)C(=O)NC(C(=O)N1Cc2cc([101O:1][101CH2:1]C(=O)Nc3ccc4c(c3)CC[100N:0]([100C:0](=O)N3CCCC(n5nc(-c6ccc(Oc7ccc(F)cc7F)cc6)c(C(N)=O)c5N)C3)C4)ccc2CC1C(=O)NC1CCCc2ccccc21)C(C)(C)C

> <Shape>
0.301

> <Color>
0.062

> <Negative vol penalty>
0.000

$$$$

  -OEChem-04052303363D

 83 92  0     1  0  0  0  0  0999 V2000
  -30.9971  -31.3270   15.6135 C   0  0  0  0  0  0  0  0  0  0  0  0
  -30.9667  -30.3973   16.6479 C   0  0  0  0  0  0  0  0  0  0  0  0
  -22.8925  -10.6883   19.6921 C   0  0  0  0  0  0  0  0  0  0  0  0
  -23.6251   -9.7935   21.8134 C   0  0  0  0  0  0  0  0  0  0  0  0
  -30.0814  -32.3782   15.5953 C   0  0  0  0  0  0  0  0  0  0  0  0
  -30.0211  -30.5189   17.6656 C   0  0  0  0  0  0  0  0  0  0  0  0
  -27.8201  -26.1041   18.8103 C   0  0  0  0  0  0  0  0  0  0  0  0
  -21.9734   -9.6463   19.5699 C   0  0  0  0  0  0  0  0  0  0  0  0
  -22.7059   -8.7515   21.6912 C   0  0  0  0  0  0  0  0  0  0  0  0
  -28.5474  -25.2165   19.6020 C   0  0  0  0  0  0  0  0  0  0  0  0
  -22.4717   -5.8186   20.0256 C   0  0  0  0  0  0  0  0  0  0  0  0
  -22.9112   -4.5286   20.3230 C   0  0  0  0  0  0  0  0  0  0  0  0
  -27.2908  -25.9220   21.5366 C   0  0  0  0  0  0  0  0  0  0  0  0
  -30.1072  -19.9749   19.2720 C   0  0  0  0  0  0  0  0  0  0  0  0
  -21.2448   -4.3625   22.0645 C   0  0  0  0  0  0  0  0  0  0  0  0
  -23.7184  -10.7619   20.8138 C   0  0  0  0  0  0  0  0  0  0  0  0
  -24.4568  -13.0924   21.5429 C   0  0  0  0  0  0  0  0  0  0  0  0
  -29.1179  -32.5073   16.6081 C   0  0  0  0  0  0  0  0  0  0  0  0
  -26.8285  -26.9166   19.3786 C   0  0  0  0  0  0  0  0  0  0  0  0
  -29.0925  -31.5736   17.6617 C   0  0  0  0  0  0  0  0  0  0  0  0
  -26.5506  -26.8172   20.7494 C   0  0  0  0  0  0  0  0  0  0  0  0
  -29.8519  -18.6070   19.0478 C   0  0  0  0  0  0  0  0  0  0  0  0
  -21.8801   -8.6779   20.5694 C   0  0  0  0  0  0  0  0  0  0  0  0
  -28.2848  -25.1274   20.9659 C   0  0  0  0  0  0  0  0  0  0  0  0
  -21.4188   -6.3805   20.7477 C   0  0  0  0  0  0  0  0  0  0  0  0
  -22.2977   -3.8005   21.3424 C   0  0  0  0  0  0  0  0  0  0  0  0
  -20.8053   -5.6525   21.7670 C   0  0  0  0  0  0  0  0  0  0  0  0
  -24.6685  -11.8378   20.9403 C   0  0  0  0  0  0  0  0  0  0  0  0
  -29.2574  -18.0095   20.1207 C   0  0  0  0  0  0  0  0  0  0  0  0
  -25.6568  -13.7463   21.4053 C   0  0  0  0  0  0  0  0  0  0  0  0
  -29.6783  -20.3491   20.5359 C   0  0  0  0  0  0  0  0  0  0  0  0
  -23.2806  -13.6195   22.1709 C   0  0  0  0  0  0  0  0  0  0  0  0
  -26.3973  -30.0514   19.6795 C   0  0  0  0  0  0  0  0  0  0  0  0
  -23.5202  -29.1473   20.8741 C   0  0  0  0  0  0  0  0  0  0  0  0
  -21.6380  -26.7311   22.3795 C   0  0  0  0  0  0  0  0  0  0  0  0
  -29.9055  -15.1513   17.9856 C   0  0  0  0  0  0  0  0  0  0  0  0
  -28.1792  -33.6872   16.5709 C   0  0  0  0  0  0  0  0  0  0  0  0
  -26.0345  -27.8497   18.5061 C   0  0  0  0  0  0  0  0  0  0  0  0
  -25.4824  -27.6528   21.4046 C   0  0  0  0  0  0  0  0  0  0  0  0
  -30.0692  -17.6449   17.9526 C   0  0  0  0  0  0  0  0  0  0  0  0
  -28.9641  -16.5800   19.9175 C   0  0  0  0  0  0  0  0  0  0  0  0
  -26.9684  -33.5314   17.4874 C   0  0  0  0  0  0  0  0  0  0  0  0
  -30.1948  -12.0563   19.9408 C   0  0  0  0  0  0  0  0  0  0  0  0
  -27.4010  -33.0363   18.8638 C   0  0  0  0  0  0  0  0  0  0  0  0
  -28.7511  -11.8081   20.3834 C   0  0  0  0  0  0  0  0  0  0  0  0
  -30.2665  -12.7875   18.6018 C   0  0  0  0  0  0  0  0  0  0  0  0
  -28.0394  -13.7720   18.9743 C   0  0  0  0  0  0  0  0  0  0  0  0
  -28.0659  -31.6577   18.7704 C   0  0  1  0  0  0  0  0  0  0  0  0
  -25.4004  -28.9995   19.2828 C   0  0  1  0  0  0  0  0  0  0  0  0
  -27.9264  -13.1094   20.3535 C   0  0  1  0  0  0  0  0  0  0  0  0
  -19.3304  -26.2982   23.2655 C   0  0  0  0  0  0  0  0  0  0  0  0
  -24.1484  -30.8429   23.3319 C   0  0  0  0  0  0  0  0  0  0  0  0
  -22.3147  -29.6427   24.5424 C   0  0  0  0  0  0  0  0  0  0  0  0
  -21.7875  -31.0109   22.5243 C   0  0  0  0  0  0  0  0  0  0  0  0
  -31.1372  -23.6796   22.6020 C   0  0  0  0  0  0  0  0  0  0  0  0
  -30.9058  -25.2314   20.6503 C   0  0  0  0  0  0  0  0  0  0  0  0
  -21.2013  -24.5030   20.4811 C   0  0  0  0  0  0  0  0  0  0  0  0
  -30.3399  -22.7519   20.4142 C   0  0  0  0  0  0  0  0  0  0  0  0
  -22.9920  -28.8055   22.2464 C   0  0  1  0  0  0  0  0  0  0  0  0
  -20.2560  -26.1882   22.0638 C   0  0  2  0  0  0  0  0  0  0  0  0
  -22.8322  -30.0610   23.1496 C   0  0  0  0  0  0  0  0  0  0  0  0
  -30.3377  -23.9840   21.3323 C   0  0  0  0  0  0  0  0  0  1  0  0
  -25.9056  -11.7007   20.4558 N   0  0  0  0  0  0  0  0  0  0  0  0
  -26.4820  -12.8776   20.7537 N   0  0  0  0  0  0  0  0  0  0  0  0
  -24.7377  -28.5547   20.5104 N   0  0  0  0  0  0  0  0  0  0  0  0
  -29.5522  -16.3799   18.5546 N   0  0  0  0  0  0  0  0  0  0  0  0
  -29.4451  -13.9966   18.6258 N   0  0  0  0  0  0  0  0  0  0  0  0
  -26.0759  -14.9738   21.7791 N   0  0  0  0  0  0  0  0  0  0  0  0
  -22.1347  -12.8144   22.2261 N   0  0  0  0  0  0  0  0  0  0  0  0
  -29.7664  -21.5877   21.0830 N   0  0  0  0  0  0  0  0  0  0  0  0
  -27.0656  -30.6236   18.6139 N   0  0  0  0  0  0  0  0  0  0  0  0
  -21.7556  -28.0608   22.0342 N   0  0  0  0  0  0  0  0  0  0  0  0
  -20.3410  -24.7546   21.6658 N   0  3  0  0  0  0  0  0  0  0  0  0
  -23.2417  -14.7766   22.6538 O   0  0  0  0  0  0  0  0  0  0  0  0
  -26.5479  -30.3248   20.8645 O   0  0  0  0  0  0  0  0  0  0  0  0
  -22.8726  -29.9063   20.1487 O   0  0  0  0  0  0  0  0  0  0  0  0
  -22.5235  -26.0452   22.8855 O   0  0  0  0  0  0  0  0  0  0  0  0
  -30.6394  -15.0881   16.9913 O   0  0  0  0  0  0  0  0  0  0  0  0
  -20.9832   -7.6610   20.4506 O   0  0  0  0  0  0  0  0  0  0  0  0
  -28.9969  -24.2583   21.7447 O   0  0  0  0  0  0  0  0  0  1  0  0
  -22.7188   -2.5612   21.6269 F   0  0  0  0  0  0  0  0  0  0  0  0
  -19.7926   -6.1866   22.4634 F   0  0  0  0  0  0  0  0  0  0  0  0
  -28.9812  -19.0306   21.4147 S   0  0  0  0  0  0  0  0  0  0  0  0
  1  2  1  0  0  0  0
  1  5  2  0  0  0  0
  2  6  2  0  0  0  0
  3  8  2  0  0  0  0
  3 16  1  0  0  0  0
  4  9  1  0  0  0  0
  4 16  2  0  0  0  0
  5 18  1  0  0  0  0
  6 20  1  0  0  0  0
  7 10  2  0  0  0  0
  7 19  1  0  0  0  0
  8 23  1  0  0  0  0
  9 23  2  0  0  0  0
 10 24  1  0  0  0  0
 11 12  2  0  0  0  0
 11 25  1  0  0  0  0
 12 26  1  0  0  0  0
 13 21  1  0  0  0  0
 13 24  2  0  0  0  0
 14 22  1  0  0  0  0
 14 31  2  0  0  0  0
 15 26  2  0  0  0  0
 15 27  1  0  0  0  0
 16 28  1  0  0  0  0
 17 28  1  0  0  0  0
 17 30  2  0  0  0  0
 17 32  1  0  0  0  0
 18 20  2  0  0  0  0
 18 37  1  0  0  0  0
 19 21  2  0  0  0  0
 19 38  1  0  0  0  0
 20 48  1  0  0  0  0
 21 39  1  0  0  0  0
 22 29  2  0  0  0  0
 22 40  1  0  0  0  0
 23 79  1  0  0  0  0
 24 80  1  0  0  0  0
 25 27  2  0  0  0  0
 25 79  1  0  0  0  0
 26 81  1  0  0  0  0
 27 82  1  0  0  0  0
 28 63  2  0  0  0  0
 29 41  1  0  0  0  0
 29 83  1  0  0  0  0
 30 64  1  0  0  0  0
 30 68  1  0  0  0  0
 31 70  1  0  0  0  0
 31 83  1  0  0  0  0
 32 69  1  0  0  0  0
 32 74  2  0  0  0  0
 33 49  1  0  0  0  0
 33 71  1  0  0  0  0
 33 75  2  0  0  0  0
 34 59  1  0  0  0  0
 34 65  1  0  0  0  0
 34 76  2  0  0  0  0
 35 60  1  0  0  0  0
 35 72  1  0  0  0  0
 35 77  2  0  0  0  0
 36 66  1  0  0  0  0
 36 67  1  0  0  0  0
 36 78  2  0  0  0  0
 37 42  1  0  0  0  0
 38 49  1  0  0  0  0
 39 65  1  0  0  0  0
 40 66  1  0  0  0  0
 41 66  1  0  0  0  0
 42 44  1  0  0  0  0
 43 45  1  0  0  0  0
 43 46  1  0  0  0  0
 44 48  1  0  0  0  0
 45 50  1  0  0  0  0
 46 67  1  0  0  0  0
 47 50  1  0  0  0  0
 47 67  1  0  0  0  0
 48 71  1  0  0  0  0
 49 65  1  0  0  0  0
 50 64  1  0  0  0  0
 51 60  1  0  0  0  0
 52 61  1  0  0  0  0
 53 61  1  0  0  0  0
 54 61  1  0  0  0  0
 55 62  1  0  0  0  0
 56 62  1  0  0  0  0
 57 73  1  0  0  0  0
 58 62  1  0  0  0  0
 58 70  1  0  0  0  0
 59 61  1  0  0  0  0
 59 72  1  0  0  0  0
 60 73  1  0  0  0  0
 62 80  1  0  0  0  0
 63 64  1  0  0  0  0
M  CHG  1  73   1
M  ISO  4  36 100  62 101  66 100  80 101
M  END
> <Batch ID>
0155

> <Smiles>
CNC(C)C(=O)NC(C(=O)N1Cc2cc([101O:1][101C:1](C)(C)CNc3cc4c(s3)C[100N:0]([100C:0](=O)N3CCCC(n5nc(-c6ccc(Oc7ccc(F)cc7F)cc6)c(C(N)=O)c5N)C3)C4)ccc2CC1C(=O)NC1CCCc2ccccc21)C(C)(C)C

> <Shape>
0.296

> <Color>
0.109

> <Negative vol penalty>
0.000

$$$$

  -OEChem-04052303363D

 88 97  0     1  0  0  0  0  0999 V2000
  -30.5236  -35.8670   20.6366 C   0  0  0  0  0  0  0  0  0  0  0  0
  -30.4196  -34.4845   20.7518 C   0  0  0  0  0  0  0  0  0  0  0  0
  -21.8339  -14.6303   22.7438 C   0  0  0  0  0  0  0  0  0  0  0  0
  -23.2103  -14.5088   24.7256 C   0  0  0  0  0  0  0  0  0  0  0  0
  -29.5955  -36.6902   21.2728 C   0  0  0  0  0  0  0  0  0  0  0  0
  -29.3878  -33.9244   21.5043 C   0  0  0  0  0  0  0  0  0  0  0  0
  -27.1703  -30.0220   19.1594 C   0  0  0  0  0  0  0  0  0  0  0  0
  -20.7767  -15.1237   23.5082 C   0  0  0  0  0  0  0  0  0  0  0  0
  -22.1531  -15.0022   25.4901 C   0  0  0  0  0  0  0  0  0  0  0  0
  -27.8413  -28.8002   19.1832 C   0  0  0  0  0  0  0  0  0  0  0  0
  -18.4314  -13.8888   25.6056 C   0  0  0  0  0  0  0  0  0  0  0  0
  -17.1656  -13.3450   25.3872 C   0  0  0  0  0  0  0  0  0  0  0  0
  -28.2269  -20.7354   16.7493 C   0  0  0  0  0  0  0  0  0  0  0  0
  -29.3903  -19.3280   18.3312 C   0  0  0  0  0  0  0  0  0  0  0  0
  -26.4109  -28.0566   20.9777 C   0  0  0  0  0  0  0  0  0  0  0  0
  -27.2260  -18.6640   17.4872 C   0  0  0  0  0  0  0  0  0  0  0  0
  -16.3320  -15.5297   24.7795 C   0  0  0  0  0  0  0  0  0  0  0  0
  -23.0507  -14.3228   23.3525 C   0  0  0  0  0  0  0  0  0  0  0  0
  -29.3360  -20.4876   17.5580 C   0  0  0  0  0  0  0  0  0  0  0  0
  -24.1591  -12.6321   21.7966 C   0  0  0  0  0  0  0  0  0  0  0  0
  -28.5462  -36.1397   22.0256 C   0  0  0  0  0  0  0  0  0  0  0  0
  -26.1199  -30.2748   20.0534 C   0  0  0  0  0  0  0  0  0  0  0  0
  -28.4456  -34.7411   22.1523 C   0  0  0  0  0  0  0  0  0  0  0  0
  -25.7265  -29.2815   20.9615 C   0  0  0  0  0  0  0  0  0  0  0  0
  -27.1718  -19.8236   16.7140 C   0  0  0  0  0  0  0  0  0  0  0  0
  -28.3353  -18.4161   18.2958 C   0  0  0  0  0  0  0  0  0  0  0  0
  -20.9362  -15.3096   24.8814 C   0  0  0  0  0  0  0  0  0  0  0  0
  -27.4635  -27.8183   20.0944 C   0  0  0  0  0  0  0  0  0  0  0  0
  -18.6475  -15.2531   25.4111 C   0  0  0  0  0  0  0  0  0  0  0  0
  -16.1159  -14.1655   24.9741 C   0  0  0  0  0  0  0  0  0  0  0  0
  -17.5978  -16.0735   24.9980 C   0  0  0  0  0  0  0  0  0  0  0  0
  -24.1430  -13.8126   22.5634 C   0  0  0  0  0  0  0  0  0  0  0  0
  -25.4163  -12.5983   21.2446 C   0  0  0  0  0  0  0  0  0  0  0  0
  -30.4508  -21.4510   17.5955 C   0  0  0  0  0  0  0  0  0  0  0  0
  -23.1295  -11.6536   21.6008 C   0  0  0  0  0  0  0  0  0  0  0  0
  -25.6121  -32.3804   22.3798 C   0  0  0  0  0  0  0  0  0  0  0  0
  -22.6582  -31.0406   22.4172 C   0  0  0  0  0  0  0  0  0  0  0  0
  -20.6937  -28.3379   21.7223 C   0  0  0  0  0  0  0  0  0  0  0  0
  -29.4162  -16.8406   19.9377 C   0  0  0  0  0  0  0  0  0  0  0  0
  -27.5947  -37.0710   22.7341 C   0  0  0  0  0  0  0  0  0  0  0  0
  -25.3887  -31.5881   19.9969 C   0  0  0  0  0  0  0  0  0  0  0  0
  -24.5920  -29.4956   21.9287 C   0  0  0  0  0  0  0  0  0  0  0  0
  -26.3121  -36.3895   23.2040 C   0  0  0  0  0  0  0  0  0  0  0  0
  -29.9094  -14.0339   22.0722 C   0  0  0  0  0  0  0  0  0  0  0  0
  -26.6325  -35.0699   23.8989 C   0  0  0  0  0  0  0  0  0  0  0  0
  -28.4883  -13.5475   22.3657 C   0  0  0  0  0  0  0  0  0  0  0  0
  -30.9332  -24.8162   18.3932 C   0  0  0  0  0  0  0  0  0  0  0  0
  -28.7186  -23.9698   19.2839 C   0  0  0  0  0  0  0  0  0  0  0  0
  -29.9815  -15.5576   21.9893 C   0  0  0  0  0  0  0  0  0  0  0  0
  -31.5252  -23.4210   18.5583 C   0  0  0  0  0  0  0  0  0  0  0  0
  -29.3218  -22.5789   19.4437 C   0  0  0  0  0  0  0  0  0  0  0  0
  -27.6048  -15.6884   21.3543 C   0  0  0  0  0  0  0  0  0  0  0  0
  -27.3259  -34.0952   22.9394 C   0  0  1  0  0  0  0  0  0  0  0  0
  -24.6709  -31.9287   21.2992 C   0  0  1  0  0  0  0  0  0  0  0  0
  -27.4697  -14.1572   21.3827 C   0  0  2  0  0  0  0  0  0  0  0  0
  -29.7891  -25.0635   19.3840 C   0  0  0  0  0  0  0  0  0  0  0  0
  -18.3258  -27.5260   21.8993 C   0  0  0  0  0  0  0  0  0  0  0  0
  -23.0437  -30.5759   25.4081 C   0  0  0  0  0  0  0  0  0  0  0  0
  -21.1326  -28.9602   25.3325 C   0  0  0  0  0  0  0  0  0  0  0  0
  -20.7587  -31.3592   24.7600 C   0  0  0  0  0  0  0  0  0  0  0  0
  -20.4597  -28.0236   18.7888 C   0  0  0  0  0  0  0  0  0  0  0  0
  -29.1806  -26.4466   19.1855 C   0  0  0  0  0  0  0  0  0  1  0  0
  -22.0194  -29.8808   23.1423 C   0  0  1  0  0  0  0  0  0  0  0  0
  -19.3533  -28.2209   21.0194 C   0  0  2  0  0  0  0  0  0  0  0  0
  -21.7613  -30.1904   24.6439 C   0  0  0  0  0  0  0  0  0  0  0  0
  -25.2984  -14.4803   22.5062 N   0  0  0  0  0  0  0  0  0  0  0  0
  -26.0522  -13.7168   21.6969 N   0  0  0  0  0  0  0  0  0  0  0  0
  -30.4320  -22.4344   18.4843 N   0  0  0  0  0  0  0  0  0  0  0  0
  -23.9122  -30.7985   21.8388 N   0  0  0  0  0  0  0  0  0  0  0  0
  -28.9915  -16.0636   21.0362 N   0  0  0  0  0  0  0  0  0  0  0  0
  -26.0500  -20.0745   15.8967 N   0  0  0  0  0  0  0  0  0  0  0  0
  -26.0288  -11.7211   20.4213 N   0  0  0  0  0  0  0  0  0  0  0  0
  -21.8976  -11.8425   22.2419 N   0  0  0  0  0  0  0  0  0  0  0  0
  -28.3899  -17.2382   19.0814 N   0  0  0  0  0  0  0  0  0  0  0  0
  -26.3602  -33.4931   22.0454 N   0  0  0  0  0  0  0  0  0  0  0  0
  -20.8185  -29.5391   22.3876 N   0  0  0  0  0  0  0  0  0  0  0  0
  -31.4587  -21.3176   16.7384 N   0  3  0  0  0  0  0  0  0  0  0  0
  -19.4963  -27.4406   19.7578 N   0  3  0  0  0  0  0  0  0  0  0  0
  -23.3026  -10.6333   20.8918 O   0  0  0  0  0  0  0  0  0  0  0  0
  -25.6554  -31.7659   23.4392 O   0  0  0  0  0  0  0  0  0  0  0  0
  -22.0630  -32.1196   22.3597 O   0  0  0  0  0  0  0  0  0  0  0  0
  -21.5436  -27.4506   21.6879 O   0  0  0  0  0  0  0  0  0  0  0  0
  -30.6063  -17.1090   19.7541 O   0  0  0  0  0  0  0  0  0  0  0  0
  -19.9049  -15.7913   25.6276 O   0  0  0  0  0  0  0  0  0  0  0  0
  -28.1172  -26.6250   20.1202 O   0  0  0  0  0  0  0  0  0  1  0  0
  -14.9008  -13.6429   24.7629 F   0  0  0  0  0  0  0  0  0  0  0  0
  -17.7995  -17.3847   24.8083 F   0  0  0  0  0  0  0  0  0  0  0  0
  -30.3106  -25.0280   20.6466 F   0  0  0  0  0  0  0  0  0  0  0  0
  1  2  1  0  0  0  0
  1  5  2  0  0  0  0
  2  6  2  0  0  0  0
  3  8  2  0  0  0  0
  3 18  1  0  0  0  0
  4  9  1  0  0  0  0
  4 18  2  0  0  0  0
  5 21  1  0  0  0  0
  6 23  1  0  0  0  0
  7 10  2  0  0  0  0
  7 22  1  0  0  0  0
  8 27  1  0  0  0  0
  9 27  2  0  0  0  0
 10 28  1  0  0  0  0
 11 12  2  0  0  0  0
 11 29  1  0  0  0  0
 12 30  1  0  0  0  0
 13 19  1  0  0  0  0
 13 25  2  0  0  0  0
 14 19  2  0  0  0  0
 14 26  1  0  0  0  0
 15 24  1  0  0  0  0
 15 28  2  0  0  0  0
 16 25  1  0  0  0  0
 16 26  2  0  0  0  0
 17 30  2  0  0  0  0
 17 31  1  0  0  0  0
 18 32  1  0  0  0  0
 19 34  1  0  0  0  0
 20 32  1  0  0  0  0
 20 33  2  0  0  0  0
 20 35  1  0  0  0  0
 21 23  2  0  0  0  0
 21 40  1  0  0  0  0
 22 24  2  0  0  0  0
 22 41  1  0  0  0  0
 23 53  1  0  0  0  0
 24 42  1  0  0  0  0
 25 71  1  0  0  0  0
 26 74  1  0  0  0  0
 27 84  1  0  0  0  0
 28 85  1  0  0  0  0
 29 31  2  0  0  0  0
 29 84  1  0  0  0  0
 30 86  1  0  0  0  0
 31 87  1  0  0  0  0
 32 66  2  0  0  0  0
 33 67  1  0  0  0  0
 33 72  1  0  0  0  0
 34 68  1  0  0  0  0
 34 77  2  0  0  0  0
 35 73  1  0  0  0  0
 35 79  2  0  0  0  0
 36 54  1  0  0  0  0
 36 75  1  0  0  0  0
 36 80  2  0  0  0  0
 37 63  1  0  0  0  0
 37 69  1  0  0  0  0
 37 81  2  0  0  0  0
 38 64  1  0  0  0  0
 38 76  1  0  0  0  0
 38 82  2  0  0  0  0
 39 70  1  0  0  0  0
 39 74  1  0  0  0  0
 39 83  2  0  0  0  0
 40 43  1  0  0  0  0
 41 54  1  0  0  0  0
 42 69  1  0  0  0  0
 43 45  1  0  0  0  0
 44 46  1  0  0  0  0
 44 49  1  0  0  0  0
 45 53  1  0  0  0  0
 46 55  1  0  0  0  0
 47 50  1  0  0  0  0
 47 56  1  0  0  0  0
 48 51  1  0  0  0  0
 48 56  1  0  0  0  0
 49 70  1  0  0  0  0
 50 68  1  0  0  0  0
 51 68  1  0  0  0  0
 52 55  1  0  0  0  0
 52 70  1  0  0  0  0
 53 75  1  0  0  0  0
 54 69  1  0  0  0  0
 55 67  1  0  0  0  0
 56 62  1  0  0  0  0
 56 88  1  0  0  0  0
 57 64  1  0  0  0  0
 58 65  1  0  0  0  0
 59 65  1  0  0  0  0
 60 65  1  0  0  0  0
 61 78  1  0  0  0  0
 62 85  1  0  0  0  0
 63 65  1  0  0  0  0
 63 76  1  0  0  0  0
 64 78  1  0  0  0  0
 66 67  1  0  0  0  0
M  CHG  2  77   1  78   1
M  ISO  4  39 100  62 101  74 100  85 101
M  END
> <Batch ID>
0155

> <Smiles>
CNC(C)C(=O)NC(C(=O)N1Cc2cc([101O:1][101CH2:1]C3(F)CCN(C(=N)c4cc(N)cc([100NH:0][100C:0](=O)N5CCCC(n6nc(-c7ccc(Oc8ccc(F)cc8F)cc7)c(C(N)=O)c6N)C5)c4)CC3)ccc2CC1C(=O)NC1CCCc2ccccc21)C(C)(C)C

> <Shape>
0.253

> <Color>
0.087

> <Negative vol penalty>
0.000

$$$$

  -OEChem-04052303363D

 81 89  0     1  0  0  0  0  0999 V2000
  -27.7305  -36.0299   20.2944 C   0  0  0  0  0  0  0  0  0  0  0  0
  -28.3888  -34.8722   19.8922 C   0  0  0  0  0  0  0  0  0  0  0  0
  -25.2432   -9.7459   21.7831 C   0  0  0  0  0  0  0  0  0  0  0  0
  -25.2238  -11.2578   23.6674 C   0  0  0  0  0  0  0  0  0  0  0  0
  -26.9653  -36.0262   21.4599 C   0  0  0  0  0  0  0  0  0  0  0  0
  -28.2832  -33.7104   20.6560 C   0  0  0  0  0  0  0  0  0  0  0  0
  -28.1540  -27.9463   18.5909 C   0  0  0  0  0  0  0  0  0  0  0  0
  -25.2877   -8.6587   22.6558 C   0  0  0  0  0  0  0  0  0  0  0  0
  -25.2682  -10.1706   24.5402 C   0  0  0  0  0  0  0  0  0  0  0  0
  -29.1385  -26.9645   18.4879 C   0  0  0  0  0  0  0  0  0  0  0  0
  -23.1225   -6.9305   24.5944 C   0  0  0  0  0  0  0  0  0  0  0  0
  -22.2759   -5.8536   24.3320 C   0  0  0  0  0  0  0  0  0  0  0  0
  -28.4220  -26.0334   20.5947 C   0  0  0  0  0  0  0  0  0  0  0  0
  -24.1922   -4.3961   24.1304 C   0  0  0  0  0  0  0  0  0  0  0  0
  -27.6294  -19.9891   21.9535 C   0  0  0  0  0  0  0  0  0  0  0  0
  -25.2113  -11.0455   22.2889 C   0  0  0  0  0  0  0  0  0  0  0  0
  -24.0177  -12.7985   20.8712 C   0  0  0  0  0  0  0  0  0  0  0  0
  -26.8424  -34.8611   22.2332 C   0  0  0  0  0  0  0  0  0  0  0  0
  -27.3017  -27.9855   19.7038 C   0  0  0  0  0  0  0  0  0  0  0  0
  -27.5167  -33.6914   21.8336 C   0  0  0  0  0  0  0  0  0  0  0  0
  -27.4258  -27.0151   20.7082 C   0  0  0  0  0  0  0  0  0  0  0  0
  -25.3002   -8.8711   24.0343 C   0  0  0  0  0  0  0  0  0  0  0  0
  -29.2745  -26.0096   19.4912 C   0  0  0  0  0  0  0  0  0  0  0  0
  -24.5041   -6.7403   24.6248 C   0  0  0  0  0  0  0  0  0  0  0  0
  -22.8107   -4.5864   24.1000 C   0  0  0  0  0  0  0  0  0  0  0  0
  -25.0389   -5.4731   24.3928 C   0  0  0  0  0  0  0  0  0  0  0  0
  -25.1660  -12.1690   21.3879 C   0  0  0  0  0  0  0  0  0  0  0  0
  -28.8933  -19.6713   21.5024 C   0  0  0  0  0  0  0  0  0  0  0  0
  -24.5069  -13.8025   20.0718 C   0  0  0  0  0  0  0  0  0  0  0  0
  -28.5925  -21.5216   20.3640 C   0  0  0  0  0  0  0  0  0  0  0  0
  -22.6327  -12.5022   21.0940 C   0  0  0  0  0  0  0  0  0  0  0  0
  -26.7349  -30.0850   22.0221 C   0  0  0  0  0  0  0  0  0  0  0  0
  -24.3828  -27.9941   22.8083 C   0  0  0  0  0  0  0  0  0  0  0  0
  -23.1846  -24.8010   22.6853 C   0  0  0  0  0  0  0  0  0  0  0  0
  -29.6594  -16.8525   20.0499 C   0  0  0  0  0  0  0  0  0  0  0  0
  -26.0425  -34.9185   23.5105 C   0  0  0  0  0  0  0  0  0  0  0  0
  -26.2273  -29.0349   19.7870 C   0  0  0  0  0  0  0  0  0  0  0  0
  -26.5227  -27.0013   21.9135 C   0  0  0  0  0  0  0  0  0  0  0  0
  -25.6775  -33.5431   24.0630 C   0  0  0  0  0  0  0  0  0  0  0  0
  -28.2958  -14.9341   17.3784 C   0  0  0  0  0  0  0  0  0  0  0  0
  -26.8940  -32.6229   24.0509 C   0  0  0  0  0  0  0  0  0  0  0  0
  -27.2354  -14.0647   18.0564 C   0  0  0  0  0  0  0  0  0  0  0  0
  -29.5180  -15.1334   18.2720 C   0  0  0  0  0  0  0  0  0  0  0  0
  -28.1609  -14.7815   20.2988 C   0  0  0  0  0  0  0  0  0  0  0  0
  -27.4063  -32.4045   22.6222 C   0  0  1  0  0  0  0  0  0  0  0  0
  -25.7498  -29.2893   21.2135 C   0  0  1  0  0  0  0  0  0  0  0  0
  -26.8855  -14.5985   19.4585 C   0  0  2  0  0  0  0  0  0  0  0  0
  -21.2558  -23.3899   23.4505 C   0  0  0  0  0  0  0  0  0  0  0  0
  -31.4462  -24.3843   17.4550 C   0  0  0  0  0  0  0  0  0  0  0  0
  -25.5414  -27.9453   25.6305 C   0  0  0  0  0  0  0  0  0  0  0  0
  -24.2150  -25.8666   26.0641 C   0  0  0  0  0  0  0  0  0  0  0  0
  -23.0433  -28.0029   25.5293 C   0  0  0  0  0  0  0  0  0  0  0  0
  -22.4059  -24.1519   19.9047 C   0  0  0  0  0  0  0  0  0  0  0  0
  -29.6841  -18.4936   21.9115 C   0  0  0  0  0  0  0  0  0  0  0  0
  -30.0416  -22.7357   18.7356 C   0  0  0  0  0  0  0  0  0  0  0  0
  -24.2862  -26.7792   23.6991 C   0  0  1  0  0  0  0  0  0  0  0  0
  -21.8147  -24.2522   22.3295 C   0  0  2  0  0  0  0  0  0  0  0  0
  -30.1728  -24.1818   18.2632 C   0  0  1  0  0  0  0  0  0  1  0  0
  -24.2899  -27.1497   25.2091 C   0  0  0  0  0  0  0  0  0  0  0  0
  -26.2993  -12.7262   20.9531 N   0  0  0  0  0  0  0  0  0  0  0  0
  -29.4470  -20.5487   20.5906 N   0  0  0  0  0  0  0  0  0  0  0  0
  -25.8655  -13.7165   20.1547 N   0  0  0  0  0  0  0  0  0  0  0  0
  -25.4918  -28.0516   21.9523 N   0  0  0  0  0  0  0  0  0  0  0  0
  -29.1175  -15.6425   19.5859 N   0  0  0  0  0  0  0  0  0  0  0  0
  -23.9031  -14.7417   19.3129 N   0  0  0  0  0  0  0  0  0  0  0  0
  -22.3057  -11.4371   21.9443 N   0  0  0  0  0  0  0  0  0  0  0  0
  -28.8241  -22.5774   19.4982 N   0  0  0  0  0  0  0  0  0  0  0  0
  -26.5680  -31.4533   21.9245 N   0  0  0  0  0  0  0  0  0  0  0  0
  -23.0999  -26.0487   23.2659 N   0  0  0  0  0  0  0  0  0  0  0  0
  -29.2219  -17.2664   21.3021 N   0  0  0  0  0  0  0  0  0  0  0  0
  -21.8939  -23.4230   21.0937 N   0  3  0  0  0  0  0  0  0  0  0  0
  -21.7125  -13.1521   20.5422 O   0  0  0  0  0  0  0  0  0  0  0  0
  -27.5828  -29.5009   22.6867 O   0  0  0  0  0  0  0  0  0  0  0  0
  -23.5029  -28.8568   22.8646 O   0  0  0  0  0  0  0  0  0  0  0  0
  -24.2255  -24.1829   22.4729 O   0  0  0  0  0  0  0  0  0  0  0  0
  -30.4687  -17.5175   19.3944 O   0  0  0  0  0  0  0  0  0  0  0  0
  -25.3433   -7.8104   24.8862 O   0  0  0  0  0  0  0  0  0  0  0  0
  -30.2351  -25.0507   19.3934 O   0  0  0  0  0  0  0  0  0  1  0  0
  -21.9974   -3.5520   23.8496 F   0  0  0  0  0  0  0  0  0  0  0  0
  -26.3652   -5.2840   24.4218 F   0  0  0  0  0  0  0  0  0  0  0  0
  -27.1037  -21.4446   21.2141 S   0  0  0  0  0  0  0  0  0  0  0  0
  1  2  1  0  0  0  0
  1  5  2  0  0  0  0
  2  6  2  0  0  0  0
  3  8  2  0  0  0  0
  3 16  1  0  0  0  0
  4  9  1  0  0  0  0
  4 16  2  0  0  0  0
  5 18  1  0  0  0  0
  6 20  1  0  0  0  0
  7 10  2  0  0  0  0
  7 19  1  0  0  0  0
  8 22  1  0  0  0  0
  9 22  2  0  0  0  0
 10 23  1  0  0  0  0
 11 12  2  0  0  0  0
 11 24  1  0  0  0  0
 12 25  1  0  0  0  0
 13 21  1  0  0  0  0
 13 23  2  0  0  0  0
 14 25  2  0  0  0  0
 14 26  1  0  0  0  0
 15 28  2  0  0  0  0
 15 81  1  0  0  0  0
 16 27  1  0  0  0  0
 17 27  1  0  0  0  0
 17 29  2  0  0  0  0
 17 31  1  0  0  0  0
 18 20  2  0  0  0  0
 18 36  1  0  0  0  0
 19 21  2  0  0  0  0
 19 37  1  0  0  0  0
 20 45  1  0  0  0  0
 21 38  1  0  0  0  0
 22 77  1  0  0  0  0
 23 78  1  0  0  0  0
 24 26  2  0  0  0  0
 24 77  1  0  0  0  0
 25 79  1  0  0  0  0
 26 80  1  0  0  0  0
 27 60  2  0  0  0  0
 28 54  1  0  0  0  0
 28 61  1  0  0  0  0
 29 62  1  0  0  0  0
 29 65  1  0  0  0  0
 30 61  2  0  0  0  0
 30 67  1  0  0  0  0
 30 81  1  0  0  0  0
 31 66  1  0  0  0  0
 31 72  2  0  0  0  0
 32 46  1  0  0  0  0
 32 68  1  0  0  0  0
 32 73  2  0  0  0  0
 33 56  1  0  0  0  0
 33 63  1  0  0  0  0
 33 74  2  0  0  0  0
 34 57  1  0  0  0  0
 34 69  1  0  0  0  0
 34 75  2  0  0  0  0
 35 64  1  0  0  0  0
 35 70  1  0  0  0  0
 35 76  2  0  0  0  0
 36 39  1  0  0  0  0
 37 46  1  0  0  0  0
 38 63  1  0  0  0  0
 39 41  1  0  0  0  0
 40 42  1  0  0  0  0
 40 43  1  0  0  0  0
 41 45  1  0  0  0  0
 42 47  1  0  0  0  0
 43 64  1  0  0  0  0
 44 47  1  0  0  0  0
 44 64  1  0  0  0  0
 45 68  1  0  0  0  0
 46 63  1  0  0  0  0
 47 62  1  0  0  0  0
 48 57  1  0  0  0  0
 49 58  1  0  0  0  0
 50 59  1  0  0  0  0
 51 59  1  0  0  0  0
 52 59  1  0  0  0  0
 53 71  1  0  0  0  0
 54 70  1  0  0  0  0
 55 58  1  0  0  0  0
 55 67  1  0  0  0  0
 56 59  1  0  0  0  0
 56 69  1  0  0  0  0
 57 71  1  0  0  0  0
 58 78  1  0  0  0  0
 60 62  1  0  0  0  0
M  CHG  1  71   1
M  ISO  4  35 100  58 101  70 100  78 101
M  END
> <Batch ID>
0155

> <Smiles>
CNC(C)C(=O)NC(C(=O)N1Cc2cc([101O:1][101CH:1](C)CNc3nc(C[100NH:0][100C:0](=O)N4CCCC(n5nc(-c6ccc(Oc7ccc(F)cc7F)cc6)c(C(N)=O)c5N)C4)cs3)ccc2CC1C(=O)NC1CCCc2ccccc21)C(C)(C)C

> <Shape>
0.249

> <Color>
0.092

> <Negative vol penalty>
0.000

$$$$

  -OEChem-04052303363D

 85 94  0     1  0  0  0  0  0999 V2000
  -22.8662  -22.6915   19.2897 C   0  0  0  0  0  0  0  0  0  0  0  0
  -23.7422  -21.6130   19.2191 C   0  0  0  0  0  0  0  0  0  0  0  0
  -22.2825  -27.3267   20.3516 C   0  0  0  0  0  0  0  0  0  0  0  0
  -22.6993  -28.7608   22.2507 C   0  0  0  0  0  0  0  0  0  0  0  0
  -22.6914  -23.3682   20.4961 C   0  0  0  0  0  0  0  0  0  0  0  0
  -24.4446  -21.2113   20.3547 C   0  0  0  0  0  0  0  0  0  0  0  0
  -24.4210  -16.1856   20.9770 C   0  0  0  0  0  0  0  0  0  0  0  0
  -21.0125  -27.0361   20.8497 C   0  0  0  0  0  0  0  0  0  0  0  0
  -21.4292  -28.4702   22.7489 C   0  0  0  0  0  0  0  0  0  0  0  0
  -25.2930  -15.4417   20.1833 C   0  0  0  0  0  0  0  0  0  0  0  0
  -18.2435  -29.4298   22.1563 C   0  0  0  0  0  0  0  0  0  0  0  0
  -17.4768  -30.4933   22.6324 C   0  0  0  0  0  0  0  0  0  0  0  0
  -26.8371  -15.2919   22.0305 C   0  0  0  0  0  0  0  0  0  0  0  0
  -17.3923  -29.4563   24.8129 C   0  0  0  0  0  0  0  0  0  0  0  0
  -30.4422  -18.9844   20.0269 C   0  0  0  0  0  0  0  0  0  0  0  0
  -23.1260  -28.1891   21.0521 C   0  0  0  0  0  0  0  0  0  0  0  0
  -24.7912  -29.5385   19.6688 C   0  0  0  0  0  0  0  0  0  0  0  0
  -23.3848  -22.9686   21.6494 C   0  0  0  0  0  0  0  0  0  0  0  0
  -24.7560  -16.4981   22.3023 C   0  0  0  0  0  0  0  0  0  0  0  0
  -24.2799  -21.8842   21.5773 C   0  0  0  0  0  0  0  0  0  0  0  0
  -25.9665  -16.0378   22.8398 C   0  0  0  0  0  0  0  0  0  0  0  0
  -20.5858  -27.6079   22.0483 C   0  0  0  0  0  0  0  0  0  0  0  0
  -26.5025  -14.9971   20.7091 C   0  0  0  0  0  0  0  0  0  0  0  0
  -18.5846  -28.3794   23.0085 C   0  0  0  0  0  0  0  0  0  0  0  0
  -17.0512  -30.5066   23.9607 C   0  0  0  0  0  0  0  0  0  0  0  0
  -18.1590  -28.3927   24.3368 C   0  0  0  0  0  0  0  0  0  0  0  0
  -24.4383  -28.4892   20.5384 C   0  0  0  0  0  0  0  0  0  0  0  0
  -29.4762  -19.5338   19.2210 C   0  0  0  0  0  0  0  0  0  0  0  0
  -26.1443  -29.3911   19.4843 C   0  0  0  0  0  0  0  0  0  0  0  0
  -29.4393  -17.4000   19.0746 C   0  0  0  0  0  0  0  0  0  0  0  0
  -23.9695  -30.5556   19.0806 C   0  0  0  0  0  0  0  0  0  0  0  0
  -25.2462  -19.1921   23.9166 C   0  0  0  0  0  0  0  0  0  0  0  0
  -25.4423  -17.1788   26.4524 C   0  0  0  0  0  0  0  0  0  0  0  0
  -26.0657  -14.0295   27.6100 C   0  0  0  0  0  0  0  0  0  0  0  0
  -29.8718  -24.8667   19.7651 C   0  0  0  0  0  0  0  0  0  0  0  0
  -23.1987  -23.7606   22.9193 C   0  0  0  0  0  0  0  0  0  0  0  0
  -23.7926  -17.2788   23.1537 C   0  0  0  0  0  0  0  0  0  0  0  0
  -26.3640  -16.3291   24.2630 C   0  0  0  0  0  0  0  0  0  0  0  0
  -23.6981  -23.0369   24.1672 C   0  0  0  0  0  0  0  0  0  0  0  0
  -30.0721  -27.7539   21.6552 C   0  0  0  0  0  0  0  0  0  0  0  0
  -25.0805  -22.4409   23.9214 C   0  0  0  0  0  0  0  0  0  0  0  0
  -28.6876  -28.3838   21.5043 C   0  0  0  0  0  0  0  0  0  0  0  0
  -28.4783  -21.6689   20.1522 C   0  0  0  0  0  0  0  0  0  0  0  0
  -30.1351  -21.7762   18.2409 C   0  0  0  0  0  0  0  0  0  0  0  0
  -29.9687  -26.2423   21.8216 C   0  0  0  0  0  0  0  0  0  0  0  0
  -28.0519  -23.1050   19.8342 C   0  0  0  0  0  0  0  0  0  0  0  0
  -29.6530  -23.1950   17.9524 C   0  0  0  0  0  0  0  0  0  0  0  0
  -27.8492  -26.1807   20.5481 C   0  0  0  0  0  0  0  0  0  0  0  0
  -25.0412  -21.4028   22.7934 C   0  0  1  0  0  0  0  0  0  0  0  0
  -29.0219  -20.9467   18.9063 C   0  0  0  0  0  0  0  0  0  0  0  0
  -24.4660  -17.9768   24.3312 C   0  0  1  0  0  0  0  0  0  0  0  0
  -27.8951  -27.7118   20.3690 C   0  0  1  0  0  0  0  0  0  0  0  0
  -26.1852  -12.6994   29.7346 C   0  0  0  0  0  0  0  0  0  0  0  0
  -29.2653  -13.0285   20.6407 C   0  0  0  0  0  0  0  0  0  0  0  0
  -28.1407  -18.4504   27.0939 C   0  0  0  0  0  0  0  0  0  0  0  0
  -28.6266  -16.4998   28.5864 C   0  0  0  0  0  0  0  0  0  0  0  0
  -26.6988  -18.0016   29.0873 C   0  0  0  0  0  0  0  0  0  0  0  0
  -23.8987  -12.2150   26.7324 C   0  0  0  0  0  0  0  0  0  0  0  0
  -29.4849  -14.9070   18.9813 C   0  0  0  0  0  0  0  0  0  0  0  0
  -26.5553  -16.4129   27.1258 C   0  0  1  0  0  0  0  0  0  0  0  0
  -25.3032  -13.1427   28.5777 C   0  0  2  0  0  0  0  0  0  0  0  0
  -28.7513  -14.3975   20.2198 C   0  0  1  0  0  0  0  0  0  1  0  0
  -27.4990  -17.3372   27.9459 C   0  0  0  0  0  0  0  0  0  0  0  0
  -30.4135  -17.6168   19.9291 N   0  0  0  0  0  0  0  0  0  0  0  0
  -25.4828  -27.7311   20.8823 N   0  0  0  0  0  0  0  0  0  0  0  0
  -26.5054  -28.3046   20.2254 N   0  0  0  0  0  0  0  0  0  0  0  0
  -25.3912  -17.1013   25.0534 N   0  0  0  0  0  0  0  0  0  0  0  0
  -29.2066  -25.6423   20.7266 N   0  0  0  0  0  0  0  0  0  0  0  0
  -29.1384  -23.8327   19.1639 N   0  0  0  0  0  0  0  0  0  0  0  0
  -27.0484  -30.0862   18.7620 N   0  0  0  0  0  0  0  0  0  0  0  0
  -22.5995  -30.5614   19.3759 N   0  0  0  0  0  0  0  0  0  0  0  0
  -28.9684  -16.2220   18.6045 N   0  0  0  0  0  0  0  0  0  0  0  0
  -24.4901  -20.1542   23.2746 N   0  0  0  0  0  0  0  0  0  0  0  0
  -25.9124  -15.3660   27.9127 N   0  0  0  0  0  0  0  0  0  0  0  0
  -24.7986  -11.9271   27.8787 N   0  3  0  0  0  0  0  0  0  0  0  0
  -24.4336  -31.4234   18.3027 O   0  0  0  0  0  0  0  0  0  0  0  0
  -26.4453  -19.2531   24.1622 O   0  0  0  0  0  0  0  0  0  0  0  0
  -24.6432  -17.8165   27.1428 O   0  0  0  0  0  0  0  0  0  0  0  0
  -26.7338  -13.5813   26.6808 O   0  0  0  0  0  0  0  0  0  0  0  0
  -31.0511  -25.0851   19.4606 O   0  0  0  0  0  0  0  0  0  0  0  0
  -28.8201  -18.5150   18.5990 O   0  0  0  0  0  0  0  0  0  0  0  0
  -19.3465  -27.3247   22.5345 O   0  0  0  0  0  0  0  0  0  0  0  0
  -27.3605  -14.2673   19.9320 O   0  0  0  0  0  0  0  0  0  1  0  0
  -16.3163  -31.5287   24.4182 F   0  0  0  0  0  0  0  0  0  0  0  0
  -18.4846  -27.3871   25.1605 F   0  0  0  0  0  0  0  0  0  0  0  0
  1  2  1  0  0  0  0
  1  5  2  0  0  0  0
  2  6  2  0  0  0  0
  3  8  2  0  0  0  0
  3 16  1  0  0  0  0
  4  9  1  0  0  0  0
  4 16  2  0  0  0  0
  5 18  1  0  0  0  0
  6 20  1  0  0  0  0
  7 10  2  0  0  0  0
  7 19  1  0  0  0  0
  8 22  1  0  0  0  0
  9 22  2  0  0  0  0
 10 23  1  0  0  0  0
 11 12  2  0  0  0  0
 11 24  1  0  0  0  0
 12 25  1  0  0  0  0
 13 21  1  0  0  0  0
 13 23  2  0  0  0  0
 14 25  2  0  0  0  0
 14 26  1  0  0  0  0
 15 28  2  0  0  0  0
 15 64  1  0  0  0  0
 16 27  1  0  0  0  0
 17 27  1  0  0  0  0
 17 29  2  0  0  0  0
 17 31  1  0  0  0  0
 18 20  2  0  0  0  0
 18 36  1  0  0  0  0
 19 21  2  0  0  0  0
 19 37  1  0  0  0  0
 20 49  1  0  0  0  0
 21 38  1  0  0  0  0
 22 82  1  0  0  0  0
 23 83  1  0  0  0  0
 24 26  2  0  0  0  0
 24 82  1  0  0  0  0
 25 84  1  0  0  0  0
 26 85  1  0  0  0  0
 27 65  2  0  0  0  0
 28 50  1  0  0  0  0
 28 81  1  0  0  0  0
 29 66  1  0  0  0  0
 29 70  1  0  0  0  0
 30 64  2  0  0  0  0
 30 72  1  0  0  0  0
 30 81  1  0  0  0  0
 31 71  1  0  0  0  0
 31 76  2  0  0  0  0
 32 51  1  0  0  0  0
 32 73  1  0  0  0  0
 32 77  2  0  0  0  0
 33 60  1  0  0  0  0
 33 67  1  0  0  0  0
 33 78  2  0  0  0  0
 34 61  1  0  0  0  0
 34 74  1  0  0  0  0
 34 79  2  0  0  0  0
 35 68  1  0  0  0  0
 35 69  1  0  0  0  0
 35 80  2  0  0  0  0
 36 39  1  0  0  0  0
 37 51  1  0  0  0  0
 38 67  1  0  0  0  0
 39 41  1  0  0  0  0
 40 42  1  0  0  0  0
 40 45  1  0  0  0  0
 41 49  1  0  0  0  0
 42 52  1  0  0  0  0
 43 46  1  0  0  0  0
 43 50  1  0  0  0  0
 44 47  1  0  0  0  0
 44 50  1  0  0  0  0
 45 68  1  0  0  0  0
 46 69  1  0  0  0  0
 47 69  1  0  0  0  0
 48 52  1  0  0  0  0
 48 68  1  0  0  0  0
 49 73  1  0  0  0  0
 51 67  1  0  0  0  0
 52 66  1  0  0  0  0
 53 61  1  0  0  0  0
 54 62  1  0  0  0  0
 55 63  1  0  0  0  0
 56 63  1  0  0  0  0
 57 63  1  0  0  0  0
 58 75  1  0  0  0  0
 59 62  1  0  0  0  0
 59 72  1  0  0  0  0
 60 63  1  0  0  0  0
 60 74  1  0  0  0  0
 61 75  1  0  0  0  0
 62 83  1  0  0  0  0
 65 66  1  0  0  0  0
M  CHG  1  75   1
M  ISO  4  35 100  62 101  69 100  83 101
M  END
> <Batch ID>
0155

> <Smiles>
CNC(C)C(=O)NC(C(=O)N1Cc2cc([101O:1][101CH:1](C)CNc3ncc(C4CC[100N:0]([100C:0](=O)N5CCCC(n6nc(-c7ccc(Oc8ccc(F)cc8F)cc7)c(C(N)=O)c6N)C5)CC4)o3)ccc2CC1C(=O)NC1CCCc2ccccc21)C(C)(C)C

> <Shape>
0.218

> <Color>
0.067

> <Negative vol penalty>
0.000

$$$$

  -OEChem-04052303363D

 82 90  0     1  0  0  0  0  0999 V2000
  -21.6044  -11.7044   21.8400 C   0  0  0  0  0  0  0  0  0  0  0  0
  -22.0723  -12.6381   22.7592 C   0  0  0  0  0  0  0  0  0  0  0  0
  -23.8787  -28.8433   19.2424 C   0  0  0  0  0  0  0  0  0  0  0  0
  -24.1687  -27.7328   21.3684 C   0  0  0  0  0  0  0  0  0  0  0  0
  -22.4060  -11.3248   20.7643 C   0  0  0  0  0  0  0  0  0  0  0  0
  -23.3426  -13.1918   22.6037 C   0  0  0  0  0  0  0  0  0  0  0  0
  -25.0661  -18.9005   23.9988 C   0  0  0  0  0  0  0  0  0  0  0  0
  -22.5444  -28.4377   19.2125 C   0  0  0  0  0  0  0  0  0  0  0  0
  -22.8344  -27.3273   21.3386 C   0  0  0  0  0  0  0  0  0  0  0  0
  -25.7212  -19.4385   25.1056 C   0  0  0  0  0  0  0  0  0  0  0  0
  -19.8043  -28.6897   21.9571 C   0  0  0  0  0  0  0  0  0  0  0  0
  -19.0583  -28.8343   23.1267 C   0  0  0  0  0  0  0  0  0  0  0  0
  -27.8216  -19.2862   23.9290 C   0  0  0  0  0  0  0  0  0  0  0  0
  -30.9265  -24.1308   25.5237 C   0  0  0  0  0  0  0  0  0  0  0  0
  -18.6613  -26.4515   23.1681 C   0  0  0  0  0  0  0  0  0  0  0  0
  -24.6908  -28.4908   20.3203 C   0  0  0  0  0  0  0  0  0  0  0  0
  -26.5849  -30.0975   20.9021 C   0  0  0  0  0  0  0  0  0  0  0  0
  -23.6830  -11.8813   20.5902 C   0  0  0  0  0  0  0  0  0  0  0  0
  -25.7865  -18.5406   22.8508 C   0  0  0  0  0  0  0  0  0  0  0  0
  -24.1625  -12.8182   21.5253 C   0  0  0  0  0  0  0  0  0  0  0  0
  -27.1729  -18.7462   22.8079 C   0  0  0  0  0  0  0  0  0  0  0  0
  -31.8495  -24.6758   24.5994 C   0  0  0  0  0  0  0  0  0  0  0  0
  -22.0223  -27.6797   20.2606 C   0  0  0  0  0  0  0  0  0  0  0  0
  -27.0995  -19.6287   25.0719 C   0  0  0  0  0  0  0  0  0  0  0  0
  -19.9788  -27.4260   21.3928 C   0  0  0  0  0  0  0  0  0  0  0  0
  -18.4868  -27.7152   23.7323 C   0  0  0  0  0  0  0  0  0  0  0  0
  -19.4073  -26.3069   21.9983 C   0  0  0  0  0  0  0  0  0  0  0  0
  -26.0694  -28.9089   20.3514 C   0  0  0  0  0  0  0  0  0  0  0  0
  -31.5365  -24.1263   23.3779 C   0  0  0  0  0  0  0  0  0  0  0  0
  -27.9379  -30.0209   20.6785 C   0  0  0  0  0  0  0  0  0  0  0  0
  -30.1152  -23.2873   24.8010 C   0  0  0  0  0  0  0  0  0  0  0  0
  -25.9019  -31.1745   21.5573 C   0  0  0  0  0  0  0  0  0  0  0  0
  -26.3007  -15.8222   21.2856 C   0  0  0  0  0  0  0  0  0  0  0  0
  -27.7671  -17.7801   19.1552 C   0  0  0  0  0  0  0  0  0  0  0  0
  -29.3476  -20.7450   18.5566 C   0  0  0  0  0  0  0  0  0  0  0  0
  -31.6824  -25.4197   19.8669 C   0  0  0  0  0  0  0  0  0  0  0  0
  -24.5317  -11.4046   19.4382 C   0  0  0  0  0  0  0  0  0  0  0  0
  -25.0614  -17.9863   21.6552 C   0  0  0  0  0  0  0  0  0  0  0  0
  -27.9894  -18.3952   21.5920 C   0  0  0  0  0  0  0  0  0  0  0  0
  -25.7174  -12.3175   19.1365 C   0  0  0  0  0  0  0  0  0  0  0  0
  -31.1322  -28.1492   17.6480 C   0  0  0  0  0  0  0  0  0  0  0  0
  -26.4464  -12.6888   20.4239 C   0  0  0  0  0  0  0  0  0  0  0  0
  -29.8188  -28.7607   18.1389 C   0  0  0  0  0  0  0  0  0  0  0  0
  -31.1290  -26.6275   17.7761 C   0  0  0  0  0  0  0  0  0  0  0  0
  -29.4890  -26.7315   19.6129 C   0  0  0  0  0  0  0  0  0  0  0  0
  -25.5251  -13.4598   21.3769 C   0  0  1  0  0  0  0  0  0  0  0  0
  -25.9654  -17.1774   20.7301 C   0  0  1  0  0  0  0  0  0  0  0  0
  -29.4661  -28.2686   19.5555 C   0  0  2  0  0  0  0  0  0  0  0  0
  -30.4677  -22.0458   16.7261 C   0  0  0  0  0  0  0  0  0  0  0  0
  -26.7930  -21.3378   27.9856 C   0  0  0  0  0  0  0  0  0  0  0  0
  -30.2232  -15.9845   19.3854 C   0  0  0  0  0  0  0  0  0  0  0  0
  -31.5703  -17.8090   18.3248 C   0  0  0  0  0  0  0  0  0  0  0  0
  -29.7012  -16.7451   17.0609 C   0  0  0  0  0  0  0  0  0  0  0  0
  -27.3962  -22.9590   18.7774 C   0  0  0  0  0  0  0  0  0  0  0  0
  -32.1015  -24.2729   22.0276 C   0  0  0  0  0  0  0  0  0  0  0  0
  -28.5467  -22.3982   26.5258 C   0  0  0  0  0  0  0  0  0  0  0  0
  -29.1707  -18.3065   18.9774 C   0  0  1  0  0  0  0  0  0  0  0  0
  -29.1638  -21.7816   17.4630 C   0  0  2  0  0  0  0  0  0  0  0  0
  -27.3448  -21.4574   26.5724 C   0  0  1  0  0  0  0  0  0  1  0  0
  -30.1515  -17.2162   18.4609 C   0  0  0  0  0  0  0  0  0  0  0  0
  -27.0175  -28.1341   19.8179 N   0  0  0  0  0  0  0  0  0  0  0  0
  -28.1425  -28.8374   20.0323 N   0  0  0  0  0  0  0  0  0  0  0  0
  -27.2355  -17.8505   20.4507 N   0  0  0  0  0  0  0  0  0  0  0  0
  -30.7889  -26.2268   19.1435 N   0  0  0  0  0  0  0  0  0  0  0  0
  -32.8363  -25.5563   24.8629 N   0  0  0  0  0  0  0  0  0  0  0  0
  -28.9607  -30.8512   20.9735 N   0  0  0  0  0  0  0  0  0  0  0  0
  -24.5104  -31.0926   21.7035 N   0  0  0  0  0  0  0  0  0  0  0  0
  -29.0456  -22.4898   25.1724 N   0  0  0  0  0  0  0  0  0  0  0  0
  -25.3931  -14.8360   20.9491 N   0  0  0  0  0  0  0  0  0  0  0  0
  -29.0622  -19.4728   18.1077 N   0  0  0  0  0  0  0  0  0  0  0  0
  -31.2863  -25.0911   21.1576 N   0  0  0  0  0  0  0  0  0  0  0  0
  -28.6832  -23.0673   18.0434 N   0  3  0  0  0  0  0  0  0  0  0  0
  -26.5056  -32.1873   21.9854 O   0  0  0  0  0  0  0  0  0  0  0  0
  -27.3089  -15.6813   21.9677 O   0  0  0  0  0  0  0  0  0  0  0  0
  -27.1619  -17.3299   18.1792 O   0  0  0  0  0  0  0  0  0  0  0  0
  -29.7119  -21.0343   19.6942 O   0  0  0  0  0  0  0  0  0  0  0  0
  -32.7563  -25.0259   19.3993 O   0  0  0  0  0  0  0  0  0  0  0  0
  -30.4804  -23.2789   23.4922 O   0  0  0  0  0  0  0  0  0  0  0  0
  -20.7203  -27.2840   20.2320 O   0  0  0  0  0  0  0  0  0  0  0  0
  -27.7416  -20.1530   26.1512 O   0  0  0  0  0  0  0  0  0  1  0  0
  -17.7717  -27.8540   24.8564 F   0  0  0  0  0  0  0  0  0  0  0  0
  -19.5725  -25.0902   21.4616 F   0  0  0  0  0  0  0  0  0  0  0  0
  1  2  1  0  0  0  0
  1  5  2  0  0  0  0
  2  6  2  0  0  0  0
  3  8  2  0  0  0  0
  3 16  1  0  0  0  0
  4  9  1  0  0  0  0
  4 16  2  0  0  0  0
  5 18  1  0  0  0  0
  6 20  1  0  0  0  0
  7 10  2  0  0  0  0
  7 19  1  0  0  0  0
  8 23  1  0  0  0  0
  9 23  2  0  0  0  0
 10 24  1  0  0  0  0
 11 12  2  0  0  0  0
 11 25  1  0  0  0  0
 12 26  1  0  0  0  0
 13 21  1  0  0  0  0
 13 24  2  0  0  0  0
 14 22  1  0  0  0  0
 14 31  2  0  0  0  0
 15 26  2  0  0  0  0
 15 27  1  0  0  0  0
 16 28  1  0  0  0  0
 17 28  1  0  0  0  0
 17 30  2  0  0  0  0
 17 32  1  0  0  0  0
 18 20  2  0  0  0  0
 18 37  1  0  0  0  0
 19 21  2  0  0  0  0
 19 38  1  0  0  0  0
 20 46  1  0  0  0  0
 21 39  1  0  0  0  0
 22 29  2  0  0  0  0
 22 65  1  0  0  0  0
 23 79  1  0  0  0  0
 24 80  1  0  0  0  0
 25 27  2  0  0  0  0
 25 79  1  0  0  0  0
 26 81  1  0  0  0  0
 27 82  1  0  0  0  0
 28 61  2  0  0  0  0
 29 55  1  0  0  0  0
 29 78  1  0  0  0  0
 30 62  1  0  0  0  0
 30 66  1  0  0  0  0
 31 68  1  0  0  0  0
 31 78  1  0  0  0  0
 32 67  1  0  0  0  0
 32 73  2  0  0  0  0
 33 47  1  0  0  0  0
 33 69  1  0  0  0  0
 33 74  2  0  0  0  0
 34 57  1  0  0  0  0
 34 63  1  0  0  0  0
 34 75  2  0  0  0  0
 35 58  1  0  0  0  0
 35 70  1  0  0  0  0
 35 76  2  0  0  0  0
 36 64  1  0  0  0  0
 36 71  1  0  0  0  0
 36 77  2  0  0  0  0
 37 40  1  0  0  0  0
 38 47  1  0  0  0  0
 39 63  1  0  0  0  0
 40 42  1  0  0  0  0
 41 43  1  0  0  0  0
 41 44  1  0  0  0  0
 42 46  1  0  0  0  0
 43 48  1  0  0  0  0
 44 64  1  0  0  0  0
 45 48  1  0  0  0  0
 45 64  1  0  0  0  0
 46 69  1  0  0  0  0
 47 63  1  0  0  0  0
 48 62  1  0  0  0  0
 49 58  1  0  0  0  0
 50 59  1  0  0  0  0
 51 60  1  0  0  0  0
 52 60  1  0  0  0  0
 53 60  1  0  0  0  0
 54 72  1  0  0  0  0
 55 71  1  0  0  0  0
 56 59  1  0  0  0  0
 56 68  1  0  0  0  0
 57 60  1  0  0  0  0
 57 70  1  0  0  0  0
 58 72  1  0  0  0  0
 59 80  1  0  0  0  0
 61 62  1  0  0  0  0
M  CHG  1  72   1
M  ISO  4  36 100  59 101  71 100  80 101
M  END
> <Batch ID>
0155

> <Smiles>
CNC(C)C(=O)NC(C(=O)N1Cc2cc([101O:1][101CH:1](C)CNc3cc(N)c(C[100NH:0][100C:0](=O)N4CCCC(n5nc(-c6ccc(Oc7ccc(F)cc7F)cc6)c(C(N)=O)c5N)C4)o3)ccc2CC1C(=O)NC1CCCc2ccccc21)C(C)(C)C

> <Shape>
0.232

> <Color>
0.059

> <Negative vol penalty>
0.000

$$$$

  -OEChem-04052303363D

 83 92  0     1  0  0  0  0  0999 V2000
  -18.3670  -32.6727   20.6382 C   0  0  0  0  0  0  0  0  0  0  0  0
  -19.6137  -32.3497   20.1119 C   0  0  0  0  0  0  0  0  0  0  0  0
  -27.3694  -11.1901   20.6728 C   0  0  0  0  0  0  0  0  0  0  0  0
  -26.8827  -12.3764   18.6251 C   0  0  0  0  0  0  0  0  0  0  0  0
  -18.0667  -32.3542   21.9619 C   0  0  0  0  0  0  0  0  0  0  0  0
  -20.5612  -31.7091   20.9096 C   0  0  0  0  0  0  0  0  0  0  0  0
  -24.6742  -27.5423   19.1129 C   0  0  0  0  0  0  0  0  0  0  0  0
  -26.3789  -10.2567   20.3675 C   0  0  0  0  0  0  0  0  0  0  0  0
  -25.8922  -11.4429   18.3198 C   0  0  0  0  0  0  0  0  0  0  0  0
  -26.0260  -27.6391   18.7858 C   0  0  0  0  0  0  0  0  0  0  0  0
  -23.7323   -7.7637   20.3016 C   0  0  0  0  0  0  0  0  0  0  0  0
  -22.8585   -7.3861   21.3211 C   0  0  0  0  0  0  0  0  0  0  0  0
  -30.3344  -22.2242   19.4632 C   0  0  0  0  0  0  0  0  0  0  0  0
  -26.6104  -26.9813   21.0319 C   0  0  0  0  0  0  0  0  0  0  0  0
  -22.1326   -9.6793   21.5483 C   0  0  0  0  0  0  0  0  0  0  0  0
  -27.6213  -12.2500   19.8016 C   0  0  0  0  0  0  0  0  0  0  0  0
  -30.8320  -22.8338   18.2867 C   0  0  0  0  0  0  0  0  0  0  0  0
  -30.0047  -13.1585   19.7604 C   0  0  0  0  0  0  0  0  0  0  0  0
  -19.0075  -31.7006   22.7733 C   0  0  0  0  0  0  0  0  0  0  0  0
  -24.2796  -27.1743   20.4073 C   0  0  0  0  0  0  0  0  0  0  0  0
  -20.2736  -31.3828   22.2458 C   0  0  0  0  0  0  0  0  0  0  0  0
  -25.2529  -26.8781   21.3722 C   0  0  0  0  0  0  0  0  0  0  0  0
  -25.6403  -10.3830   19.1910 C   0  0  0  0  0  0  0  0  0  0  0  0
  -26.9943  -27.3614   19.7462 C   0  0  0  0  0  0  0  0  0  0  0  0
  -23.8064   -9.0991   19.9055 C   0  0  0  0  0  0  0  0  0  0  0  0
  -22.0586   -8.3439   21.9444 C   0  0  0  0  0  0  0  0  0  0  0  0
  -23.0065  -10.0568   20.5287 C   0  0  0  0  0  0  0  0  0  0  0  0
  -28.6439  -13.2149   20.1167 C   0  0  0  0  0  0  0  0  0  0  0  0
  -30.8894  -21.8406   17.3368 C   0  0  0  0  0  0  0  0  0  0  0  0
  -30.5468  -14.3024   20.2932 C   0  0  0  0  0  0  0  0  0  0  0  0
  -30.1231  -20.9020   19.1483 C   0  0  0  0  0  0  0  0  0  0  0  0
  -31.2101  -24.2483   18.1179 C   0  0  0  0  0  0  0  0  0  0  0  0
  -30.7150  -12.1613   19.0143 C   0  0  0  0  0  0  0  0  0  0  0  0
  -22.6277  -28.5767   22.7328 C   0  0  0  0  0  0  0  0  0  0  0  0
  -22.9262  -25.6796   24.1612 C   0  0  0  0  0  0  0  0  0  0  0  0
  -24.6598  -22.7536   24.4438 C   0  0  0  0  0  0  0  0  0  0  0  0
  -29.2409  -19.8454   21.2582 C   0  0  0  0  0  0  0  0  0  0  0  0
  -18.6542  -31.4192   24.2123 C   0  0  0  0  0  0  0  0  0  0  0  0
  -22.8174  -27.0485   20.7366 C   0  0  0  0  0  0  0  0  0  0  0  0
  -24.8816  -26.4590   22.7704 C   0  0  0  0  0  0  0  0  0  0  0  0
  -19.5791  -30.4044   24.8793 C   0  0  0  0  0  0  0  0  0  0  0  0
  -29.2256  -17.4404   23.8836 C   0  0  0  0  0  0  0  0  0  0  0  0
  -21.0379  -30.7330   24.5781 C   0  0  0  0  0  0  0  0  0  0  0  0
  -29.2071  -16.0993   23.1467 C   0  0  0  0  0  0  0  0  0  0  0  0
  -28.3886  -18.4954   23.1624 C   0  0  0  0  0  0  0  0  0  0  0  0
  -28.6984  -17.3438   21.0067 C   0  0  0  0  0  0  0  0  0  0  0  0
  -28.9259  -25.1194   18.6735 C   0  0  0  0  0  0  0  0  0  0  0  0
  -30.3807  -26.6116   18.2280 C   0  0  0  0  0  0  0  0  0  0  0  0
  -21.3191  -30.6655   23.0721 C   0  0  1  0  0  0  0  0  0  0  0  0
  -22.5293  -27.1641   22.2303 C   0  0  1  0  0  0  0  0  0  0  0  0
  -29.5803  -16.2676   21.6607 C   0  0  2  0  0  0  0  0  0  0  0  0
  -28.8489  -26.6258   18.3719 C   0  0  0  0  0  0  0  0  0  1  0  0
  -31.3098  -21.8131   15.9280 C   0  0  0  0  0  0  0  0  0  0  0  0
  -24.6855  -20.5948   25.7230 C   0  0  0  0  0  0  0  0  0  0  0  0
  -24.0732  -27.1332   26.5864 C   0  0  0  0  0  0  0  0  0  0  0  0
  -24.9400  -24.9328   27.4080 C   0  0  0  0  0  0  0  0  0  0  0  0
  -22.4850  -25.2809   27.1352 C   0  0  0  0  0  0  0  0  0  0  0  0
  -24.2942  -21.1550   21.9801 C   0  0  0  0  0  0  0  0  0  0  0  0
  -23.9386  -25.0402   25.0806 C   0  0  1  0  0  0  0  0  0  0  0  0
  -24.1979  -21.3078   24.4713 C   0  0  2  0  0  0  0  0  0  0  0  0
  -23.8665  -25.6065   26.5269 C   0  0  0  0  0  0  0  0  0  0  0  0
  -28.3403  -14.3080   20.8216 N   0  0  0  0  0  0  0  0  0  0  0  0
  -29.5180  -14.9491   20.9125 N   0  0  0  0  0  0  0  0  0  0  0  0
  -30.3156  -25.1770   18.3065 N   0  0  0  0  0  0  0  0  0  0  0  0
  -23.4390  -26.3565   23.0455 N   0  0  0  0  0  0  0  0  0  0  0  0
  -28.8009  -18.6027   21.7612 N   0  0  0  0  0  0  0  0  0  0  0  0
  -31.7985  -14.8081   20.2879 N   0  0  0  0  0  0  0  0  0  0  0  0
  -30.0051  -11.0498   18.5400 N   0  0  0  0  0  0  0  0  0  0  0  0
  -29.6383  -19.8183   19.9218 N   0  0  0  0  0  0  0  0  0  0  0  0
  -21.4472  -29.2893   22.6431 N   0  0  0  0  0  0  0  0  0  0  0  0
  -23.7194  -23.6007   24.9910 N   0  0  0  0  0  0  0  0  0  0  0  0
  -32.4585  -24.5547   17.7775 N   0  3  0  0  0  0  0  0  0  0  0  0
  -24.7164  -20.5757   23.2813 N   0  3  0  0  0  0  0  0  0  0  0  0
  -31.9463  -12.2450   18.7894 O   0  0  0  0  0  0  0  0  0  0  0  0
  -23.6953  -28.9891   23.1709 O   0  0  0  0  0  0  0  0  0  0  0  0
  -21.7245  -25.5761   24.4194 O   0  0  0  0  0  0  0  0  0  0  0  0
  -25.7477  -23.0968   23.9863 O   0  0  0  0  0  0  0  0  0  0  0  0
  -29.2892  -20.8528   21.9687 O   0  0  0  0  0  0  0  0  0  0  0  0
  -30.4589  -20.6600   17.8540 O   0  0  0  0  0  0  0  0  0  0  0  0
  -24.6739   -9.4722   18.8926 O   0  0  0  0  0  0  0  0  0  0  0  0
  -28.3145  -27.4557   19.4297 O   0  0  0  0  0  0  0  0  0  1  0  0
  -21.2184   -7.9809   22.9224 F   0  0  0  0  0  0  0  0  0  0  0  0
  -23.0724  -11.3411   20.1517 F   0  0  0  0  0  0  0  0  0  0  0  0
  1  2  1  0  0  0  0
  1  5  2  0  0  0  0
  2  6  2  0  0  0  0
  3  8  2  0  0  0  0
  3 16  1  0  0  0  0
  4  9  1  0  0  0  0
  4 16  2  0  0  0  0
  5 19  1  0  0  0  0
  6 21  1  0  0  0  0
  7 10  2  0  0  0  0
  7 20  1  0  0  0  0
  8 23  1  0  0  0  0
  9 23  2  0  0  0  0
 10 24  1  0  0  0  0
 11 12  2  0  0  0  0
 11 25  1  0  0  0  0
 12 26  1  0  0  0  0
 13 17  1  0  0  0  0
 13 31  2  0  0  0  0
 14 22  1  0  0  0  0
 14 24  2  0  0  0  0
 15 26  2  0  0  0  0
 15 27  1  0  0  0  0
 16 28  1  0  0  0  0
 17 29  2  0  0  0  0
 17 32  1  0  0  0  0
 18 28  1  0  0  0  0
 18 30  2  0  0  0  0
 18 33  1  0  0  0  0
 19 21  2  0  0  0  0
 19 38  1  0  0  0  0
 20 22  2  0  0  0  0
 20 39  1  0  0  0  0
 21 49  1  0  0  0  0
 22 40  1  0  0  0  0
 23 80  1  0  0  0  0
 24 81  1  0  0  0  0
 25 27  2  0  0  0  0
 25 80  1  0  0  0  0
 26 82  1  0  0  0  0
 27 83  1  0  0  0  0
 28 62  2  0  0  0  0
 29 53  1  0  0  0  0
 29 79  1  0  0  0  0
 30 63  1  0  0  0  0
 30 67  1  0  0  0  0
 31 69  1  0  0  0  0
 31 79  1  0  0  0  0
 32 64  1  0  0  0  0
 32 72  2  0  0  0  0
 33 68  1  0  0  0  0
 33 74  2  0  0  0  0
 34 50  1  0  0  0  0
 34 70  1  0  0  0  0
 34 75  2  0  0  0  0
 35 59  1  0  0  0  0
 35 65  1  0  0  0  0
 35 76  2  0  0  0  0
 36 60  1  0  0  0  0
 36 71  1  0  0  0  0
 36 77  2  0  0  0  0
 37 66  1  0  0  0  0
 37 69  1  0  0  0  0
 37 78  2  0  0  0  0
 38 41  1  0  0  0  0
 39 50  1  0  0  0  0
 40 65  1  0  0  0  0
 41 43  1  0  0  0  0
 42 44  1  0  0  0  0
 42 45  1  0  0  0  0
 43 49  1  0  0  0  0
 44 51  1  0  0  0  0
 45 66  1  0  0  0  0
 46 51  1  0  0  0  0
 46 66  1  0  0  0  0
 47 52  1  0  0  0  0
 47 64  1  0  0  0  0
 48 52  1  0  0  0  0
 48 64  1  0  0  0  0
 49 70  1  0  0  0  0
 50 65  1  0  0  0  0
 51 63  1  0  0  0  0
 52 81  1  0  0  0  0
 54 60  1  0  0  0  0
 55 61  1  0  0  0  0
 56 61  1  0  0  0  0
 57 61  1  0  0  0  0
 58 73  1  0  0  0  0
 59 61  1  0  0  0  0
 59 71  1  0  0  0  0
 60 73  1  0  0  0  0
 62 63  1  0  0  0  0
M  CHG  2  72   1  73   1
M  ISO  4  37 100  52 101  69 100  81 101
M  END
> <Batch ID>
0155

> <Smiles>
CNC(C)C(=O)NC(C(=O)N1Cc2cc([101O:1][101CH:1]3CN(C(=N)c4cc([100NH:0][100C:0](=O)N5CCCC(n6nc(-c7ccc(Oc8ccc(F)cc8F)cc7)c(C(N)=O)c6N)C5)oc4C)C3)ccc2CC1C(=O)NC1CCCc2ccccc21)C(C)(C)C

> <Shape>
0.235

> <Color>
0.080

> <Negative vol penalty>
0.000

$$$$

  -OEChem-04052303363D

 85 93  0     1  0  0  0  0  0999 V2000
  -27.6834  -38.3170   23.2745 C   0  0  0  0  0  0  0  0  0  0  0  0
  -28.3450  -37.1519   22.9001 C   0  0  0  0  0  0  0  0  0  0  0  0
  -23.9555   -9.6298   21.1513 C   0  0  0  0  0  0  0  0  0  0  0  0
  -24.8355  -10.4873   23.2315 C   0  0  0  0  0  0  0  0  0  0  0  0
  -26.5470  -38.2442   24.0789 C   0  0  0  0  0  0  0  0  0  0  0  0
  -27.8710  -35.9132   23.3308 C   0  0  0  0  0  0  0  0  0  0  0  0
  -28.0304  -30.6314   20.2353 C   0  0  0  0  0  0  0  0  0  0  0  0
  -23.5604   -8.4603   21.8006 C   0  0  0  0  0  0  0  0  0  0  0  0
  -24.4403   -9.3178   23.8808 C   0  0  0  0  0  0  0  0  0  0  0  0
  -28.8992  -29.5421   20.2829 C   0  0  0  0  0  0  0  0  0  0  0  0
  -21.0287   -7.4577   23.8051 C   0  0  0  0  0  0  0  0  0  0  0  0
  -19.7514   -6.9665   23.5354 C   0  0  0  0  0  0  0  0  0  0  0  0
  -27.3862  -28.4084   21.7811 C   0  0  0  0  0  0  0  0  0  0  0  0
  -28.7437  -20.7290   20.8086 C   0  0  0  0  0  0  0  0  0  0  0  0
  -30.5535  -19.0760   19.4764 C   0  0  0  0  0  0  0  0  0  0  0  0
  -20.7159   -4.9085   22.7160 C   0  0  0  0  0  0  0  0  0  0  0  0
  -24.5932  -10.6434   21.8668 C   0  0  0  0  0  0  0  0  0  0  0  0
  -24.2480  -13.0286   21.0306 C   0  0  0  0  0  0  0  0  0  0  0  0
  -26.0532  -37.0034   24.5118 C   0  0  0  0  0  0  0  0  0  0  0  0
  -26.8360  -30.6218   20.9701 C   0  0  0  0  0  0  0  0  0  0  0  0
  -26.7277  -35.8238   24.1429 C   0  0  0  0  0  0  0  0  0  0  0  0
  -26.5026  -29.4977   21.7391 C   0  0  0  0  0  0  0  0  0  0  0  0
  -28.5427  -19.3489   20.7876 C   0  0  0  0  0  0  0  0  0  0  0  0
  -29.8496  -21.2827   20.1634 C   0  0  0  0  0  0  0  0  0  0  0  0
  -29.4476  -18.5224   20.1215 C   0  0  0  0  0  0  0  0  0  0  0  0
  -23.8027   -8.3042   23.1653 C   0  0  0  0  0  0  0  0  0  0  0  0
  -28.5786  -28.4316   21.0582 C   0  0  0  0  0  0  0  0  0  0  0  0
  -22.1496   -6.6744   23.5302 C   0  0  0  0  0  0  0  0  0  0  0  0
  -19.5949   -5.6919   22.9909 C   0  0  0  0  0  0  0  0  0  0  0  0
  -30.7545  -20.4561   19.4973 C   0  0  0  0  0  0  0  0  0  0  0  0
  -21.9932   -5.3998   22.9857 C   0  0  0  0  0  0  0  0  0  0  0  0
  -25.0021  -11.8515   21.1965 C   0  0  0  0  0  0  0  0  0  0  0  0
  -25.0774  -13.8723   20.3329 C   0  0  0  0  0  0  0  0  0  0  0  0
  -22.9168  -13.3322   21.4680 C   0  0  0  0  0  0  0  0  0  0  0  0
  -25.6353  -32.3907   23.3223 C   0  0  0  0  0  0  0  0  0  0  0  0
  -29.6814  -24.9965   20.6746 C   0  0  0  0  0  0  0  0  0  0  0  0
  -22.9942  -30.5776   22.8130 C   0  0  0  0  0  0  0  0  0  0  0  0
  -21.6643  -27.6592   21.6462 C   0  0  0  0  0  0  0  0  0  0  0  0
  -30.0732  -16.1723   19.4643 C   0  0  0  0  0  0  0  0  0  0  0  0
  -24.8487  -36.9779   25.4191 C   0  0  0  0  0  0  0  0  0  0  0  0
  -25.8967  -31.7937   20.8869 C   0  0  0  0  0  0  0  0  0  0  0  0
  -25.2229  -29.4294   22.5304 C   0  0  0  0  0  0  0  0  0  0  0  0
  -24.1941  -35.6029   25.5238 C   0  0  0  0  0  0  0  0  0  0  0  0
  -29.4822  -12.9790   18.0045 C   0  0  0  0  0  0  0  0  0  0  0  0
  -25.2497  -34.5247   25.7471 C   0  0  0  0  0  0  0  0  0  0  0  0
  -28.2019  -12.4979   18.6912 C   0  0  0  0  0  0  0  0  0  0  0  0
  -30.3813  -13.7580   18.9628 C   0  0  0  0  0  0  0  0  0  0  0  0
  -28.4458  -14.3885   20.3504 C   0  0  0  0  0  0  0  0  0  0  0  0
  -26.2299  -34.4599   24.5696 C   0  0  1  0  0  0  0  0  0  0  0  0
  -24.9527  -31.8887   22.0815 C   0  0  1  0  0  0  0  0  0  0  0  0
  -27.4780  -13.6545   19.4079 C   0  0  2  0  0  0  0  0  0  0  0  0
  -26.2400  -18.3963   20.5104 C   0  0  0  0  0  0  0  0  0  0  0  0
  -19.4794  -26.4497   21.4001 C   0  0  0  0  0  0  0  0  0  0  0  0
  -23.0300  -29.9121   25.7905 C   0  0  0  0  0  0  0  0  0  0  0  0
  -21.4696  -28.0131   25.3137 C   0  0  0  0  0  0  0  0  0  0  0  0
  -20.7566  -30.3578   24.8484 C   0  0  0  0  0  0  0  0  0  0  0  0
  -21.9075  -27.5801   18.6977 C   0  0  0  0  0  0  0  0  0  0  0  0
  -27.3481  -18.7834   21.4847 C   0  0  0  0  0  0  0  0  0  0  0  0
  -29.1663  -23.5832   20.8461 C   0  0  0  0  0  0  0  0  0  0  0  0
  -28.8418  -26.0824   21.3190 C   0  0  0  0  0  0  0  0  0  1  0  0
  -22.4777  -29.2658   23.3527 C   0  0  1  0  0  0  0  0  0  0  0  0
  -20.4796  -27.3844   20.7377 C   0  0  2  0  0  0  0  0  0  0  0  0
  -21.9586  -29.3890   24.8131 C   0  0  0  0  0  0  0  0  0  0  0  0
  -26.2172  -11.9360   20.6483 N   0  0  0  0  0  0  0  0  0  0  0  0
  -26.2328  -13.1763   20.1309 N   0  0  0  0  0  0  0  0  0  0  0  0
  -24.3403  -30.6027   22.4217 N   0  0  0  0  0  0  0  0  0  0  0  0
  -29.6290  -14.8401   19.6016 N   0  0  0  0  0  0  0  0  0  0  0  0
  -24.9237  -15.1342   19.8785 N   0  0  0  0  0  0  0  0  0  0  0  0
  -22.2050  -12.3516   22.1725 N   0  0  0  0  0  0  0  0  0  0  0  0
  -29.2599  -17.1183   20.0872 N   0  0  0  0  0  0  0  0  0  0  0  0
  -30.0479  -22.6558   20.1846 N   0  0  0  0  0  0  0  0  0  0  0  0
  -25.6297  -33.7666   23.4499 N   0  0  0  0  0  0  0  0  0  0  0  0
  -21.4764  -28.7984   22.4001 N   0  0  0  0  0  0  0  0  0  0  0  0
  -20.9370  -26.7579   19.4652 N   0  3  0  0  0  0  0  0  0  0  0  0
  -22.3685  -14.4343   21.2267 O   0  0  0  0  0  0  0  0  0  0  0  0
  -26.1292  -31.5891   24.1066 O   0  0  0  0  0  0  0  0  0  0  0  0
  -30.7117  -25.2585   20.0552 O   0  0  0  0  0  0  0  0  0  0  0  0
  -22.2296  -31.5424   22.7346 O   0  0  0  0  0  0  0  0  0  0  0  0
  -22.6556  -26.9337   21.6861 O   0  0  0  0  0  0  0  0  0  0  0  0
  -31.0845  -16.4557   18.8171 O   0  0  0  0  0  0  0  0  0  0  0  0
  -23.4170   -7.1632   23.7992 O   0  0  0  0  0  0  0  0  0  0  0  0
  -29.4252  -27.3673   21.1070 O   0  0  0  0  0  0  0  0  0  1  0  0
  -18.3682   -5.2197   22.7334 F   0  0  0  0  0  0  0  0  0  0  0  0
  -31.8202  -20.9770   18.8727 F   0  0  0  0  0  0  0  0  0  0  0  0
  -23.0662   -4.6421   22.7205 F   0  0  0  0  0  0  0  0  0  0  0  0
  1  2  1  0  0  0  0
  1  5  2  0  0  0  0
  2  6  2  0  0  0  0
  3  8  2  0  0  0  0
  3 17  1  0  0  0  0
  4  9  1  0  0  0  0
  4 17  2  0  0  0  0
  5 19  1  0  0  0  0
  6 21  1  0  0  0  0
  7 10  2  0  0  0  0
  7 20  1  0  0  0  0
  8 26  1  0  0  0  0
  9 26  2  0  0  0  0
 10 27  1  0  0  0  0
 11 12  2  0  0  0  0
 11 28  1  0  0  0  0
 12 29  1  0  0  0  0
 13 22  1  0  0  0  0
 13 27  2  0  0  0  0
 14 23  1  0  0  0  0
 14 24  2  0  0  0  0
 15 25  1  0  0  0  0
 15 30  2  0  0  0  0
 16 29  2  0  0  0  0
 16 31  1  0  0  0  0
 17 32  1  0  0  0  0
 18 32  1  0  0  0  0
 18 33  2  0  0  0  0
 18 34  1  0  0  0  0
 19 21  2  0  0  0  0
 19 40  1  0  0  0  0
 20 22  2  0  0  0  0
 20 41  1  0  0  0  0
 21 49  1  0  0  0  0
 22 42  1  0  0  0  0
 23 25  2  0  0  0  0
 23 58  1  0  0  0  0
 24 30  1  0  0  0  0
 24 71  1  0  0  0  0
 25 70  1  0  0  0  0
 26 81  1  0  0  0  0
 27 82  1  0  0  0  0
 28 31  2  0  0  0  0
 28 81  1  0  0  0  0
 29 83  1  0  0  0  0
 30 84  1  0  0  0  0
 31 85  1  0  0  0  0
 32 64  2  0  0  0  0
 33 65  1  0  0  0  0
 33 68  1  0  0  0  0
 34 69  1  0  0  0  0
 34 75  2  0  0  0  0
 35 50  1  0  0  0  0
 35 72  1  0  0  0  0
 35 76  2  0  0  0  0
 36 59  1  0  0  0  0
 36 60  1  0  0  0  0
 36 77  2  0  0  0  0
 37 61  1  0  0  0  0
 37 66  1  0  0  0  0
 37 78  2  0  0  0  0
 38 62  1  0  0  0  0
 38 73  1  0  0  0  0
 38 79  2  0  0  0  0
 39 67  1  0  0  0  0
 39 70  1  0  0  0  0
 39 80  2  0  0  0  0
 40 43  1  0  0  0  0
 41 50  1  0  0  0  0
 42 66  1  0  0  0  0
 43 45  1  0  0  0  0
 44 46  1  0  0  0  0
 44 47  1  0  0  0  0
 45 49  1  0  0  0  0
 46 51  1  0  0  0  0
 47 67  1  0  0  0  0
 48 51  1  0  0  0  0
 48 67  1  0  0  0  0
 49 72  1  0  0  0  0
 50 66  1  0  0  0  0
 51 65  1  0  0  0  0
 52 58  1  0  0  0  0
 53 62  1  0  0  0  0
 54 63  1  0  0  0  0
 55 63  1  0  0  0  0
 56 63  1  0  0  0  0
 57 74  1  0  0  0  0
 59 71  1  0  0  0  0
 60 82  1  0  0  0  0
 61 63  1  0  0  0  0
 61 73  1  0  0  0  0
 62 74  1  0  0  0  0
 64 65  1  0  0  0  0
M  CHG  1  74   1
M  ISO  4  39 100  60 101  70 100  82 101
M  END
> <Batch ID>
0155

> <Smiles>
CCc1cc(NCC(=O)[101CH2:1][101O:1]c2ccc3c(c2)CN(C(=O)C(NC(=O)C(C)NC)C(C)(C)C)C(C(=O)NC2CCCc4ccccc42)C3)c(F)cc1[100NH:0][100C:0](=O)N1CCCC(n2nc(-c3ccc(Oc4ccc(F)cc4F)cc3)c(C(N)=O)c2N)C1

> <Shape>
0.385

> <Color>
0.150

> <Negative vol penalty>
0.000

$$$$

  -OEChem-04052303363D

 88 97  0     1  0  0  0  0  0999 V2000
  -25.2921  -24.2236    8.9919 C   0  0  0  0  0  0  0  0  0  0  0  0
  -25.8614  -23.7277   10.1604 C   0  0  0  0  0  0  0  0  0  0  0  0
  -23.0738   -9.8731   19.9391 C   0  0  0  0  0  0  0  0  0  0  0  0
  -23.8339   -9.8755   22.2324 C   0  0  0  0  0  0  0  0  0  0  0  0
  -25.2684  -25.5979    8.7582 C   0  0  0  0  0  0  0  0  0  0  0  0
  -26.4084  -24.6058   11.0953 C   0  0  0  0  0  0  0  0  0  0  0  0
  -29.6999  -19.2630   22.3890 C   0  0  0  0  0  0  0  0  0  0  0  0
  -31.3307  -19.0746   20.6163 C   0  0  0  0  0  0  0  0  0  0  0  0
  -25.0733  -23.4651   15.8452 C   0  0  0  0  0  0  0  0  0  0  0  0
  -29.5296  -17.8787   22.3795 C   0  0  0  0  0  0  0  0  0  0  0  0
  -31.1604  -17.6902   20.6068 C   0  0  0  0  0  0  0  0  0  0  0  0
  -22.3283   -8.7207   20.1874 C   0  0  0  0  0  0  0  0  0  0  0  0
  -23.0884   -8.7230   22.4808 C   0  0  0  0  0  0  0  0  0  0  0  0
  -25.7428  -22.4069   16.4581 C   0  0  0  0  0  0  0  0  0  0  0  0
  -19.8591   -7.9290   23.0824 C   0  0  0  0  0  0  0  0  0  0  0  0
  -19.1022   -7.8884   24.2534 C   0  0  0  0  0  0  0  0  0  0  0  0
  -27.1504  -23.9809   17.6245 C   0  0  0  0  0  0  0  0  0  0  0  0
  -20.3409   -5.9481   24.9867 C   0  0  0  0  0  0  0  0  0  0  0  0
  -23.8267  -10.4505   20.9616 C   0  0  0  0  0  0  0  0  0  0  0  0
  -24.1722  -12.9753   20.8454 C   0  0  0  0  0  0  0  0  0  0  0  0
  -30.6005  -19.8610   21.5074 C   0  0  0  0  0  0  0  0  0  0  0  0
  -25.8067  -26.4939    9.6952 C   0  0  0  0  0  0  0  0  0  0  0  0
  -25.4451  -24.7912   16.1095 C   0  0  0  0  0  0  0  0  0  0  0  0
  -26.3931  -25.9933   10.8733 C   0  0  0  0  0  0  0  0  0  0  0  0
  -26.4823  -25.0543   17.0157 C   0  0  0  0  0  0  0  0  0  0  0  0
  -30.2598  -17.0922   21.4884 C   0  0  0  0  0  0  0  0  0  0  0  0
  -22.3355   -8.1456   21.4582 C   0  0  0  0  0  0  0  0  0  0  0  0
  -26.7834  -22.6646   17.3457 C   0  0  0  0  0  0  0  0  0  0  0  0
  -20.8569   -6.9791   22.8636 C   0  0  0  0  0  0  0  0  0  0  0  0
  -19.3431   -6.8980   25.2055 C   0  0  0  0  0  0  0  0  0  0  0  0
  -21.0978   -5.9887   23.8158 C   0  0  0  0  0  0  0  0  0  0  0  0
  -24.5975  -11.6406   20.7056 C   0  0  0  0  0  0  0  0  0  0  0  0
  -25.2654  -13.7238   20.4832 C   0  0  0  0  0  0  0  0  0  0  0  0
  -22.9025  -13.4924   21.2653 C   0  0  0  0  0  0  0  0  0  0  0  0
  -26.5744  -27.1948   14.3628 C   0  0  0  0  0  0  0  0  0  0  0  0
  -26.1821  -28.8659   17.1152 C   0  0  0  0  0  0  0  0  0  0  0  0
  -25.9431  -28.8267   20.5193 C   0  0  0  0  0  0  0  0  0  0  0  0
  -30.7331  -14.7611   20.6588 C   0  0  0  0  0  0  0  0  0  0  0  0
  -25.8003  -27.9681    9.3767 C   0  0  0  0  0  0  0  0  0  0  0  0
  -24.6953  -25.9222   15.4607 C   0  0  0  0  0  0  0  0  0  0  0  0
  -26.9066  -26.4605   17.3489 C   0  0  0  0  0  0  0  0  0  0  0  0
  -26.0653  -28.8547   10.5908 C   0  0  0  0  0  0  0  0  0  0  0  0
  -29.6149  -12.3525   18.2870 C   0  0  0  0  0  0  0  0  0  0  0  0
  -27.2527  -28.3258   11.3891 C   0  0  0  0  0  0  0  0  0  0  0  0
  -32.2456  -21.7181   21.8528 C   0  0  0  0  0  0  0  0  0  0  0  0
  -28.1749  -12.0624   18.7163 C   0  0  0  0  0  0  0  0  0  0  0  0
  -32.4961  -23.2227   21.8808 C   0  0  0  0  0  0  0  0  0  0  0  0
  -30.5305  -12.5782   19.4889 C   0  0  0  0  0  0  0  0  0  0  0  0
  -28.6248  -13.3033   20.8715 C   0  0  0  0  0  0  0  0  0  0  0  0
  -30.5967  -23.5684   20.2709 C   0  0  0  0  0  0  0  0  0  0  0  0
  -26.9744  -26.9155   11.9229 C   0  0  1  0  0  0  0  0  0  0  0  0
  -30.7858  -21.3682   21.5178 C   0  0  1  0  0  0  0  0  0  0  0  0
  -25.4970  -27.2191   15.4098 C   0  0  1  0  0  0  0  0  0  0  0  0
  -27.6515  -13.1333   19.6935 C   0  0  2  0  0  0  0  0  0  0  0  0
  -32.0592  -23.9254   20.5826 C   0  0  0  0  0  0  0  0  0  0  0  0
  -32.9859  -23.5433   19.4118 C   0  0  0  0  0  0  0  0  0  0  0  0
  -32.1588  -25.4496   20.7847 C   0  0  0  0  0  0  0  0  0  0  0  0
  -25.6633  -30.3523   22.4921 C   0  0  0  0  0  0  0  0  0  0  0  0
  -29.6792  -20.8539   17.5142 C   0  0  0  0  0  0  0  0  0  0  0  0
  -29.1008  -29.7197   16.8659 C   0  0  0  0  0  0  0  0  0  0  0  0
  -29.0301  -30.4152   19.2700 C   0  0  0  0  0  0  0  0  0  0  0  0
  -27.5435  -31.5311   17.6063 C   0  0  0  0  0  0  0  0  0  0  0  0
  -23.4033  -27.5291   21.3095 C   0  0  0  0  0  0  0  0  0  0  0  0
  -28.9661  -21.7659   19.7953 C   0  0  0  0  0  0  0  0  0  0  0  0
  -27.0429  -29.1581   18.3204 C   0  0  1  0  0  0  0  0  0  0  0  0
  -24.9541  -29.4807   21.4673 C   0  0  2  0  0  0  0  0  0  0  0  0
  -28.8102  -21.8430   18.2800 C   0  0  2  0  0  0  0  0  0  1  0  0
  -28.1729  -30.1794   18.0081 C   0  0  0  0  0  0  0  0  0  0  0  0
  -25.8621  -11.5436   20.2871 N   0  0  0  0  0  0  0  0  0  0  0  0
  -26.2409  -12.8268   20.1606 N   0  0  0  0  0  0  0  0  0  0  0  0
  -26.1470  -27.5322   16.6841 N   0  0  0  0  0  0  0  0  0  0  0  0
  -29.9731  -13.6085   20.3679 N   0  0  0  0  0  0  0  0  0  0  0  0
  -25.4777  -15.0550   20.4121 N   0  0  0  0  0  0  0  0  0  0  0  0
  -21.8893  -12.5841   21.6013 N   0  0  0  0  0  0  0  0  0  0  0  0
  -30.0872  -15.6859   21.4787 N   0  0  0  0  0  0  0  0  0  0  0  0
  -26.1081  -26.9751   13.0807 N   0  0  0  0  0  0  0  0  0  0  0  0
  -26.1326  -29.5795   19.3797 N   0  0  0  0  0  0  0  0  0  0  0  0
  -30.3886  -22.0671   20.2115 N   0  3  1  0  0  0  0  0  0  0  0  0
  -24.1702  -28.4429   22.1948 N   0  3  0  0  0  0  0  0  0  0  0  0
  -22.6680  -14.7232   21.3245 O   0  0  0  0  0  0  0  0  0  0  0  0
  -27.7421  -27.3643   14.6934 O   0  0  0  0  0  0  0  0  0  0  0  0
  -25.5580  -29.7858   16.5804 O   0  0  0  0  0  0  0  0  0  0  0  0
  -26.4954  -27.7570   20.7669 O   0  0  0  0  0  0  0  0  0  0  0  0
  -31.8624  -14.9289   20.1913 O   0  0  0  0  0  0  0  0  0  0  0  0
  -21.6079   -7.0212   21.7009 O   0  0  0  0  0  0  0  0  0  0  0  0
  -27.4391  -21.6336   17.9448 O   0  0  0  0  0  0  0  0  0  1  0  0
  -18.6173   -6.8601   26.3306 F   0  0  0  0  0  0  0  0  0  0  0  0
  -22.0557   -5.0741   23.6117 F   0  0  0  0  0  0  0  0  0  0  0  0
  1  2  1  0  0  0  0
  1  5  2  0  0  0  0
  2  6  2  0  0  0  0
  3 12  2  0  0  0  0
  3 19  1  0  0  0  0
  4 13  1  0  0  0  0
  4 19  2  0  0  0  0
  5 22  1  0  0  0  0
  6 24  1  0  0  0  0
  7 10  2  0  0  0  0
  7 21  1  0  0  0  0
  8 11  1  0  0  0  0
  8 21  2  0  0  0  0
  9 14  2  0  0  0  0
  9 23  1  0  0  0  0
 10 26  1  0  0  0  0
 11 26  2  0  0  0  0
 12 27  1  0  0  0  0
 13 27  2  0  0  0  0
 14 28  1  0  0  0  0
 15 16  2  0  0  0  0
 15 29  1  0  0  0  0
 16 30  1  0  0  0  0
 17 25  1  0  0  0  0
 17 28  2  0  0  0  0
 18 30  2  0  0  0  0
 18 31  1  0  0  0  0
 19 32  1  0  0  0  0
 20 32  1  0  0  0  0
 20 33  2  0  0  0  0
 20 34  1  0  0  0  0
 21 52  1  0  0  0  0
 22 24  2  0  0  0  0
 22 39  1  0  0  0  0
 23 25  2  0  0  0  0
 23 40  1  0  0  0  0
 24 51  1  0  0  0  0
 25 41  1  0  0  0  0
 26 75  1  0  0  0  0
 27 85  1  0  0  0  0
 28 86  1  0  0  0  0
 29 31  2  0  0  0  0
 29 85  1  0  0  0  0
 30 87  1  0  0  0  0
 31 88  1  0  0  0  0
 32 69  2  0  0  0  0
 33 70  1  0  0  0  0
 33 73  1  0  0  0  0
 34 74  1  0  0  0  0
 34 80  2  0  0  0  0
 35 53  1  0  0  0  0
 35 76  1  0  0  0  0
 35 81  2  0  0  0  0
 36 65  1  0  0  0  0
 36 71  1  0  0  0  0
 36 82  2  0  0  0  0
 37 66  1  0  0  0  0
 37 77  1  0  0  0  0
 37 83  2  0  0  0  0
 38 72  1  0  0  0  0
 38 75  1  0  0  0  0
 38 84  2  0  0  0  0
 39 42  1  0  0  0  0
 40 53  1  0  0  0  0
 41 71  1  0  0  0  0
 42 44  1  0  0  0  0
 43 46  1  0  0  0  0
 43 48  1  0  0  0  0
 44 51  1  0  0  0  0
 45 47  1  0  0  0  0
 45 52  1  0  0  0  0
 46 54  1  0  0  0  0
 47 55  1  0  0  0  0
 48 72  1  0  0  0  0
 49 54  1  0  0  0  0
 49 72  1  0  0  0  0
 50 55  1  0  0  0  0
 50 78  1  0  0  0  0
 51 76  1  0  0  0  0
 52 78  1  0  0  0  0
 53 71  1  0  0  0  0
 54 70  1  0  0  0  0
 55 56  1  0  0  0  0
 55 57  1  0  0  0  0
 58 66  1  0  0  0  0
 59 67  1  0  0  0  0
 60 68  1  0  0  0  0
 61 68  1  0  0  0  0
 62 68  1  0  0  0  0
 63 79  1  0  0  0  0
 64 67  1  0  0  0  0
 64 78  1  0  0  0  0
 65 68  1  0  0  0  0
 65 77  1  0  0  0  0
 66 79  1  0  0  0  0
 67 86  1  0  0  0  0
 69 70  1  0  0  0  0
M  CHG  2  78   1  79   1
M  ISO  4  38 100  67 101  75 100  86 101
M  END
> <Batch ID>
0155

> <Smiles>
CNC(C)C(=O)NC(C(=O)N1Cc2cc([101O:1][101CH:1](C)CN3CC(C)(C)CCC3c3ccc([100NH:0][100C:0](=O)N4CCCC(n5nc(-c6ccc(Oc7ccc(F)cc7F)cc6)c(C(N)=O)c5N)C4)cc3)ccc2CC1C(=O)NC1CCCc2ccccc21)C(C)(C)C

> <Shape>
0.238

> <Color>
0.184

> <Negative vol penalty>
0.000

$$$$

  -OEChem-04052303363D

 83 91  0     1  0  0  0  0  0999 V2000
  -18.3014  -25.5882   19.7281 C   0  0  0  0  0  0  0  0  0  0  0  0
  -19.2369  -24.7070   20.2608 C   0  0  0  0  0  0  0  0  0  0  0  0
  -23.1303   -9.8148   19.8866 C   0  0  0  0  0  0  0  0  0  0  0  0
  -23.9646   -9.7154   22.1518 C   0  0  0  0  0  0  0  0  0  0  0  0
  -18.2040  -26.8859   20.2284 C   0  0  0  0  0  0  0  0  0  0  0  0
  -20.0763  -25.1234   21.2935 C   0  0  0  0  0  0  0  0  0  0  0  0
  -22.1569  -21.7246   25.9438 C   0  0  0  0  0  0  0  0  0  0  0  0
  -22.4463   -8.6156   20.0859 C   0  0  0  0  0  0  0  0  0  0  0  0
  -23.2806   -8.5163   22.3511 C   0  0  0  0  0  0  0  0  0  0  0  0
  -23.3662  -21.0637   26.1550 C   0  0  0  0  0  0  0  0  0  0  0  0
  -20.1121   -7.5361   22.9998 C   0  0  0  0  0  0  0  0  0  0  0  0
  -19.3968   -7.3897   24.1883 C   0  0  0  0  0  0  0  0  0  0  0  0
  -24.1731  -22.9557   27.4153 C   0  0  0  0  0  0  0  0  0  0  0  0
  -31.8905  -16.7892   22.6429 C   0  0  0  0  0  0  0  0  0  0  0  0
  -29.7018  -17.4953   23.3467 C   0  0  0  0  0  0  0  0  0  0  0  0
  -20.7455   -5.4694   24.7634 C   0  0  0  0  0  0  0  0  0  0  0  0
  -23.8895  -10.3647   20.9195 C   0  0  0  0  0  0  0  0  0  0  0  0
  -24.1164  -12.9054   20.9483 C   0  0  0  0  0  0  0  0  0  0  0  0
  -19.0360  -27.3154   21.2743 C   0  0  0  0  0  0  0  0  0  0  0  0
  -21.9503  -23.0126   26.4584 C   0  0  0  0  0  0  0  0  0  0  0  0
  -19.9908  -26.4285   21.8074 C   0  0  0  0  0  0  0  0  0  0  0  0
  -22.9594  -23.6298   27.2114 C   0  0  0  0  0  0  0  0  0  0  0  0
  -30.5071  -16.7155   22.5241 C   0  0  0  0  0  0  0  0  0  0  0  0
  -22.5214   -7.9664   21.3182 C   0  0  0  0  0  0  0  0  0  0  0  0
  -24.3756  -21.6804   26.8884 C   0  0  0  0  0  0  0  0  0  0  0  0
  -21.1441   -6.6492   22.6931 C   0  0  0  0  0  0  0  0  0  0  0  0
  -19.7135   -6.3564   25.0701 C   0  0  0  0  0  0  0  0  0  0  0  0
  -21.4608   -5.6159   23.5749 C   0  0  0  0  0  0  0  0  0  0  0  0
  -24.5968  -11.6031   20.7140 C   0  0  0  0  0  0  0  0  0  0  0  0
  -32.4149  -17.6514   23.5923 C   0  0  0  0  0  0  0  0  0  0  0  0
  -30.3241  -18.3258   24.2647 C   0  0  0  0  0  0  0  0  0  0  0  0
  -25.1621  -13.7250   20.6000 C   0  0  0  0  0  0  0  0  0  0  0  0
  -22.8391  -13.3358   21.4372 C   0  0  0  0  0  0  0  0  0  0  0  0
  -21.3693  -25.8685   25.1896 C   0  0  0  0  0  0  0  0  0  0  0  0
  -27.4971  -20.0349   26.0447 C   0  0  0  0  0  0  0  0  0  0  0  0
  -21.0215  -26.7446   28.2934 C   0  0  0  0  0  0  0  0  0  0  0  0
  -21.7453  -26.1395   31.5732 C   0  0  0  0  0  0  0  0  0  0  0  0
  -30.5801  -15.0067   20.6744 C   0  0  0  0  0  0  0  0  0  0  0  0
  -18.9260  -28.7423   21.7502 C   0  0  0  0  0  0  0  0  0  0  0  0
  -20.6303  -23.7013   26.2444 C   0  0  0  0  0  0  0  0  0  0  0  0
  -22.7801  -25.0034   27.8025 C   0  0  0  0  0  0  0  0  0  0  0  0
  -19.5970  -28.9880   23.0992 C   0  0  0  0  0  0  0  0  0  0  0  0
  -29.4946  -12.6947   18.1938 C   0  0  0  0  0  0  0  0  0  0  0  0
  -20.9848  -28.3555   23.1282 C   0  0  0  0  0  0  0  0  0  0  0  0
  -28.0841  -12.3117   18.6476 C   0  0  0  0  0  0  0  0  0  0  0  0
  -30.4381  -12.8908   19.3792 C   0  0  0  0  0  0  0  0  0  0  0  0
  -28.5480  -13.4410   20.8605 C   0  0  0  0  0  0  0  0  0  0  0  0
  -20.9021  -26.8352   22.9450 C   0  0  1  0  0  0  0  0  0  0  0  0
  -20.7193  -25.2184   26.3780 C   0  0  1  0  0  0  0  0  0  0  0  0
  -27.5452  -13.2962   19.7041 C   0  0  2  0  0  0  0  0  0  0  0  0
  -21.3502  -27.0499   33.8781 C   0  0  0  0  0  0  0  0  0  0  0  0
  -23.0618  -28.9518   27.7688 C   0  0  0  0  0  0  0  0  0  0  0  0
  -23.3325  -29.1945   30.2459 C   0  0  0  0  0  0  0  0  0  0  0  0
  -21.1195  -29.6418   29.1850 C   0  0  0  0  0  0  0  0  0  0  0  0
  -20.3716  -23.6658   32.4406 C   0  0  0  0  0  0  0  0  0  0  0  0
  -28.0682  -19.0794   25.0186 C   0  0  0  0  0  0  0  0  0  0  0  0
  -25.9838  -20.1221   26.0876 C   0  0  0  0  0  0  0  0  0  1  0  0
  -21.9470  -27.2599   29.3690 C   0  0  1  0  0  0  0  0  0  0  0  0
  -20.8619  -26.0874   32.8066 C   0  0  2  0  0  0  0  0  0  0  0  0
  -22.3696  -28.7369   29.1295 C   0  0  0  0  0  0  0  0  0  0  0  0
  -25.8501  -11.5911   20.2524 N   0  0  0  0  0  0  0  0  0  0  0  0
  -31.6647  -18.4244   24.4091 N   0  0  0  0  0  0  0  0  0  0  0  0
  -26.1661  -12.8960   20.1937 N   0  0  0  0  0  0  0  0  0  0  0  0
  -21.4741  -25.6384   27.5604 N   0  0  0  0  0  0  0  0  0  0  0  0
  -29.8639  -13.8391   20.3362 N   0  0  0  0  0  0  0  0  0  0  0  0
  -33.8264  -17.7156   23.7011 N   0  0  0  0  0  0  0  0  0  0  0  0
  -25.3115  -15.0666   20.6046 N   0  0  0  0  0  0  0  0  0  0  0  0
  -21.8797  -12.3623   21.7471 N   0  0  0  0  0  0  0  0  0  0  0  0
  -29.9203  -15.8491   21.5687 N   0  0  0  0  0  0  0  0  0  0  0  0
  -29.5074  -19.0975   25.0786 N   0  0  0  0  0  0  0  0  0  0  0  0
  -20.4885  -26.1994   24.1775 N   0  0  0  0  0  0  0  0  0  0  0  0
  -21.2648  -27.0319   30.6382 N   0  0  0  0  0  0  0  0  0  0  0  0
  -20.8528  -24.7117   33.3795 N   0  3  0  0  0  0  0  0  0  0  0  0
  -22.5513  -14.5485   21.5790 O   0  0  0  0  0  0  0  0  0  0  0  0
  -22.5801  -26.0574   25.1913 O   0  0  0  0  0  0  0  0  0  0  0  0
  -28.2043  -20.7019   26.7989 O   0  0  0  0  0  0  0  0  0  0  0  0
  -19.9339  -27.2987   28.1151 O   0  0  0  0  0  0  0  0  0  0  0  0
  -22.7620  -25.4596   31.4528 O   0  0  0  0  0  0  0  0  0  0  0  0
  -31.6846  -15.2554   20.1844 O   0  0  0  0  0  0  0  0  0  0  0  0
  -21.8538   -6.7964   21.5131 O   0  0  0  0  0  0  0  0  0  0  0  0
  -25.5571  -21.0378   27.0955 O   0  0  0  0  0  0  0  0  0  1  0  0
  -19.0275   -6.2168   26.2121 F   0  0  0  0  0  0  0  0  0  0  0  0
  -22.4519   -4.7614   23.2862 F   0  0  0  0  0  0  0  0  0  0  0  0
  1  2  1  0  0  0  0
  1  5  2  0  0  0  0
  2  6  2  0  0  0  0
  3  8  2  0  0  0  0
  3 17  1  0  0  0  0
  4  9  1  0  0  0  0
  4 17  2  0  0  0  0
  5 19  1  0  0  0  0
  6 21  1  0  0  0  0
  7 10  2  0  0  0  0
  7 20  1  0  0  0  0
  8 24  1  0  0  0  0
  9 24  2  0  0  0  0
 10 25  1  0  0  0  0
 11 12  2  0  0  0  0
 11 26  1  0  0  0  0
 12 27  1  0  0  0  0
 13 22  1  0  0  0  0
 13 25  2  0  0  0  0
 14 23  1  0  0  0  0
 14 30  2  0  0  0  0
 15 23  2  0  0  0  0
 15 31  1  0  0  0  0
 16 27  2  0  0  0  0
 16 28  1  0  0  0  0
 17 29  1  0  0  0  0
 18 29  1  0  0  0  0
 18 32  2  0  0  0  0
 18 33  1  0  0  0  0
 19 21  2  0  0  0  0
 19 39  1  0  0  0  0
 20 22  2  0  0  0  0
 20 40  1  0  0  0  0
 21 48  1  0  0  0  0
 22 41  1  0  0  0  0
 23 69  1  0  0  0  0
 24 80  1  0  0  0  0
 25 81  1  0  0  0  0
 26 28  2  0  0  0  0
 26 80  1  0  0  0  0
 27 82  1  0  0  0  0
 28 83  1  0  0  0  0
 29 61  2  0  0  0  0
 30 62  1  0  0  0  0
 30 66  1  0  0  0  0
 31 62  2  0  0  0  0
 31 70  1  0  0  0  0
 32 63  1  0  0  0  0
 32 67  1  0  0  0  0
 33 68  1  0  0  0  0
 33 74  2  0  0  0  0
 34 49  1  0  0  0  0
 34 71  1  0  0  0  0
 34 75  2  0  0  0  0
 35 56  1  0  0  0  0
 35 57  1  0  0  0  0
 35 76  2  0  0  0  0
 36 58  1  0  0  0  0
 36 64  1  0  0  0  0
 36 77  2  0  0  0  0
 37 59  1  0  0  0  0
 37 72  1  0  0  0  0
 37 78  2  0  0  0  0
 38 65  1  0  0  0  0
 38 69  1  0  0  0  0
 38 79  2  0  0  0  0
 39 42  1  0  0  0  0
 40 49  1  0  0  0  0
 41 64  1  0  0  0  0
 42 44  1  0  0  0  0
 43 45  1  0  0  0  0
 43 46  1  0  0  0  0
 44 48  1  0  0  0  0
 45 50  1  0  0  0  0
 46 65  1  0  0  0  0
 47 50  1  0  0  0  0
 47 65  1  0  0  0  0
 48 71  1  0  0  0  0
 49 64  1  0  0  0  0
 50 63  1  0  0  0  0
 51 59  1  0  0  0  0
 52 60  1  0  0  0  0
 53 60  1  0  0  0  0
 54 60  1  0  0  0  0
 55 73  1  0  0  0  0
 56 70  1  0  0  0  0
 57 81  1  0  0  0  0
 58 60  1  0  0  0  0
 58 72  1  0  0  0  0
 59 73  1  0  0  0  0
 61 63  1  0  0  0  0
M  CHG  1  73   1
M  ISO  4  38 100  57 101  69 100  81 101
M  END
> <Batch ID>
0155

> <Smiles>
CNC(C)C(=O)NC(C(=O)N1Cc2cc([101O:1][101CH2:1]C(=O)CNc3cc([100NH:0][100C:0](=O)N4CCCC(n5nc(-c6ccc(Oc7ccc(F)cc7F)cc6)c(C(N)=O)c5N)C4)cc(N)n3)ccc2CC1C(=O)NC1CCCc2ccccc21)C(C)(C)C

> <Shape>
0.224

> <Color>
0.184

> <Negative vol penalty>
0.000

$$$$

  -OEChem-04052303363D

 85 94  0     1  0  0  0  0  0999 V2000
  -20.7532  -30.9568   28.7993 C   0  0  0  0  0  0  0  0  0  0  0  0
  -21.5516  -29.8839   28.4158 C   0  0  0  0  0  0  0  0  0  0  0  0
  -24.4610   -9.5308   21.4455 C   0  0  0  0  0  0  0  0  0  0  0  0
  -24.8494  -10.6192   23.5672 C   0  0  0  0  0  0  0  0  0  0  0  0
  -20.4648  -31.9708   27.8868 C   0  0  0  0  0  0  0  0  0  0  0  0
  -22.0612  -29.8239   27.1192 C   0  0  0  0  0  0  0  0  0  0  0  0
  -27.7910  -27.5462   23.4725 C   0  0  0  0  0  0  0  0  0  0  0  0
  -24.1460   -8.3461   22.1109 C   0  0  0  0  0  0  0  0  0  0  0  0
  -24.5344   -9.4345   24.2326 C   0  0  0  0  0  0  0  0  0  0  0  0
  -28.1236  -26.7580   22.3717 C   0  0  0  0  0  0  0  0  0  0  0  0
  -21.5013   -7.0487   23.7708 C   0  0  0  0  0  0  0  0  0  0  0  0
  -20.3742   -6.3460   23.3449 C   0  0  0  0  0  0  0  0  0  0  0  0
  -27.6244  -28.6067   20.9047 C   0  0  0  0  0  0  0  0  0  0  0  0
  -27.5988  -19.9893   21.0378 C   0  0  0  0  0  0  0  0  0  0  0  0
  -21.7590   -4.4322   22.8379 C   0  0  0  0  0  0  0  0  0  0  0  0
  -29.6440  -19.9461   20.1479 C   0  0  0  0  0  0  0  0  0  0  0  0
  -24.8127  -10.6674   22.1736 C   0  0  0  0  0  0  0  0  0  0  0  0
  -24.2530  -12.9223   21.1202 C   0  0  0  0  0  0  0  0  0  0  0  0
  -20.9791  -31.9280   26.5813 C   0  0  0  0  0  0  0  0  0  0  0  0
  -27.3614  -28.8695   23.2966 C   0  0  0  0  0  0  0  0  0  0  0  0
  -21.7783  -30.8376   26.1880 C   0  0  0  0  0  0  0  0  0  0  0  0
  -27.2894  -29.4105   22.0050 C   0  0  0  0  0  0  0  0  0  0  0  0
  -28.6418  -19.1296   20.6179 C   0  0  0  0  0  0  0  0  0  0  0  0
  -24.1827   -8.2979   23.5044 C   0  0  0  0  0  0  0  0  0  0  0  0
  -28.0376  -27.2872   21.0874 C   0  0  0  0  0  0  0  0  0  0  0  0
  -22.7573   -6.4433   23.7302 C   0  0  0  0  0  0  0  0  0  0  0  0
  -20.5031   -5.0377   22.8785 C   0  0  0  0  0  0  0  0  0  0  0  0
  -22.8861   -5.1351   23.2638 C   0  0  0  0  0  0  0  0  0  0  0  0
  -25.1387  -11.8914   21.4868 C   0  0  0  0  0  0  0  0  0  0  0  0
  -28.0382  -21.2699   20.7948 C   0  0  0  0  0  0  0  0  0  0  0  0
  -25.0484  -13.8533   20.4980 C   0  0  0  0  0  0  0  0  0  0  0  0
  -26.7845  -24.8305   20.4814 C   0  0  0  0  0  0  0  0  0  0  0  0
  -22.8378  -13.0290   21.3241 C   0  0  0  0  0  0  0  0  0  0  0  0
  -27.2704  -22.4949   21.0812 C   0  0  0  0  0  0  0  0  0  0  0  0
  -24.6893  -30.4651   23.9430 C   0  0  0  0  0  0  0  0  0  0  0  0
  -26.4354  -33.0150   22.9572 C   0  0  0  0  0  0  0  0  0  0  0  0
  -29.0561  -34.1946   21.1167 C   0  0  0  0  0  0  0  0  0  0  0  0
  -29.7139  -16.8814   20.2404 C   0  0  0  0  0  0  0  0  0  0  0  0
  -20.6012  -33.0235   25.6160 C   0  0  0  0  0  0  0  0  0  0  0  0
  -27.0319  -29.7151   24.4961 C   0  0  0  0  0  0  0  0  0  0  0  0
  -26.8533  -30.8318   21.7637 C   0  0  0  0  0  0  0  0  0  0  0  0
  -21.4880  -33.0741   24.3745 C   0  0  0  0  0  0  0  0  0  0  0  0
  -29.8584  -13.5671   18.9475 C   0  0  0  0  0  0  0  0  0  0  0  0
  -21.6737  -31.6758   23.7938 C   0  0  0  0  0  0  0  0  0  0  0  0
  -28.5705  -12.9205   19.4627 C   0  0  0  0  0  0  0  0  0  0  0  0
  -27.9024  -24.7892   18.3915 C   0  0  0  0  0  0  0  0  0  0  0  0
  -30.4607  -14.5265   19.9724 C   0  0  0  0  0  0  0  0  0  0  0  0
  -28.4076  -23.6036   19.2115 C   0  0  0  0  0  0  0  0  0  0  0  0
  -28.2515  -14.9047   20.9951 C   0  0  0  0  0  0  0  0  0  0  0  0
  -22.3701  -30.7494   24.7980 C   0  0  1  0  0  0  0  0  0  0  0  0
  -26.1137  -30.8880   24.1663 C   0  0  1  0  0  0  0  0  0  0  0  0
  -27.5729  -13.9793   19.9719 C   0  0  2  0  0  0  0  0  0  0  0  0
  -27.3173  -25.7651   19.4201 C   0  0  1  0  0  0  0  0  0  1  0  0
  -26.2578  -26.6812   18.8376 C   0  0  0  0  0  0  0  0  0  0  0  0
  -30.2109  -36.3284   20.4760 C   0  0  0  0  0  0  0  0  0  0  0  0
  -24.1770  -33.6483   21.0056 C   0  0  0  0  0  0  0  0  0  0  0  0
  -25.7550  -35.1545   19.7770 C   0  0  0  0  0  0  0  0  0  0  0  0
  -25.1582  -35.6444   22.1490 C   0  0  0  0  0  0  0  0  0  0  0  0
  -31.5976  -33.3290   22.3619 C   0  0  0  0  0  0  0  0  0  0  0  0
  -26.6814  -33.6940   21.6316 C   0  0  1  0  0  0  0  0  0  0  0  0
  -30.1695  -35.1682   21.4584 C   0  0  2  0  0  0  0  0  0  0  0  0
  -25.4493  -34.5079   21.1449 C   0  0  0  0  0  0  0  0  0  0  0  0
  -26.4002  -12.1432   21.1272 N   0  0  0  0  0  0  0  0  0  0  0  0
  -26.3129  -13.3430   20.5282 N   0  0  0  0  0  0  0  0  0  0  0  0
  -27.4537  -23.5663   20.3301 N   0  0  0  0  0  0  0  0  0  0  0  0
  -26.5357  -31.6165   22.9682 N   0  0  0  0  0  0  0  0  0  0  0  0
  -29.4595  -15.5035   20.4059 N   0  0  0  0  0  0  0  0  0  0  0  0
  -24.7825  -15.0503   19.9334 N   0  0  0  0  0  0  0  0  0  0  0  0
  -22.1767  -11.9824   21.9812 N   0  0  0  0  0  0  0  0  0  0  0  0
  -28.6763  -17.7137   20.6591 N   0  0  0  0  0  0  0  0  0  0  0  0
  -23.7912  -31.0205   24.8343 N   0  0  0  0  0  0  0  0  0  0  0  0
  -27.8940  -34.4879   21.7985 N   0  0  0  0  0  0  0  0  0  0  0  0
  -26.4040  -22.5021   22.0899 N   0  3  0  0  0  0  0  0  0  0  0  0
  -31.4896  -34.4776   21.4260 N   0  3  0  0  0  0  0  0  0  0  0  0
  -25.9694  -25.0609   21.3565 O   0  0  0  0  0  0  0  0  0  0  0  0
  -22.1764  -14.0155   20.9205 O   0  0  0  0  0  0  0  0  0  0  0  0
  -24.4245  -29.6933   23.0287 O   0  0  0  0  0  0  0  0  0  0  0  0
  -26.1711  -33.7006   23.9480 O   0  0  0  0  0  0  0  0  0  0  0  0
  -29.2015  -33.2688   20.3216 O   0  0  0  0  0  0  0  0  0  0  0  0
  -30.7629  -17.2918   19.7373 O   0  0  0  0  0  0  0  0  0  0  0  0
  -29.2841  -21.2523   20.2524 O   0  0  0  0  0  0  0  0  0  0  0  0
  -23.8752   -7.1421   24.1541 O   0  0  0  0  0  0  0  0  0  0  0  0
  -28.3610  -26.5198   20.0111 O   0  0  0  0  0  0  0  0  0  1  0  0
  -19.4204   -4.3624   22.4710 F   0  0  0  0  0  0  0  0  0  0  0  0
  -24.0900   -4.5477   23.2236 F   0  0  0  0  0  0  0  0  0  0  0  0
  1  2  1  0  0  0  0
  1  5  2  0  0  0  0
  2  6  2  0  0  0  0
  3  8  2  0  0  0  0
  3 17  1  0  0  0  0
  4  9  1  0  0  0  0
  4 17  2  0  0  0  0
  5 19  1  0  0  0  0
  6 21  1  0  0  0  0
  7 10  2  0  0  0  0
  7 20  1  0  0  0  0
  8 24  1  0  0  0  0
  9 24  2  0  0  0  0
 10 25  1  0  0  0  0
 11 12  2  0  0  0  0
 11 26  1  0  0  0  0
 12 27  1  0  0  0  0
 13 22  1  0  0  0  0
 13 25  2  0  0  0  0
 14 23  1  0  0  0  0
 14 30  2  0  0  0  0
 15 27  2  0  0  0  0
 15 28  1  0  0  0  0
 16 23  2  0  0  0  0
 16 81  1  0  0  0  0
 17 29  1  0  0  0  0
 18 29  1  0  0  0  0
 18 31  2  0  0  0  0
 18 33  1  0  0  0  0
 19 21  2  0  0  0  0
 19 39  1  0  0  0  0
 20 22  2  0  0  0  0
 20 40  1  0  0  0  0
 21 50  1  0  0  0  0
 22 41  1  0  0  0  0
 23 70  1  0  0  0  0
 24 82  1  0  0  0  0
 25 83  1  0  0  0  0
 26 28  2  0  0  0  0
 26 82  1  0  0  0  0
 27 84  1  0  0  0  0
 28 85  1  0  0  0  0
 29 63  2  0  0  0  0
 30 34  1  0  0  0  0
 30 81  1  0  0  0  0
 31 64  1  0  0  0  0
 31 68  1  0  0  0  0
 32 53  1  0  0  0  0
 32 65  1  0  0  0  0
 32 75  2  0  0  0  0
 33 69  1  0  0  0  0
 33 76  2  0  0  0  0
 34 65  1  0  0  0  0
 34 73  2  0  0  0  0
 35 51  1  0  0  0  0
 35 71  1  0  0  0  0
 35 77  2  0  0  0  0
 36 60  1  0  0  0  0
 36 66  1  0  0  0  0
 36 78  2  0  0  0  0
 37 61  1  0  0  0  0
 37 72  1  0  0  0  0
 37 79  2  0  0  0  0
 38 67  1  0  0  0  0
 38 70  1  0  0  0  0
 38 80  2  0  0  0  0
 39 42  1  0  0  0  0
 40 51  1  0  0  0  0
 41 66  1  0  0  0  0
 42 44  1  0  0  0  0
 43 45  1  0  0  0  0
 43 47  1  0  0  0  0
 44 50  1  0  0  0  0
 45 52  1  0  0  0  0
 46 48  1  0  0  0  0
 46 53  1  0  0  0  0
 47 67  1  0  0  0  0
 48 65  1  0  0  0  0
 49 52  1  0  0  0  0
 49 67  1  0  0  0  0
 50 71  1  0  0  0  0
 51 66  1  0  0  0  0
 52 64  1  0  0  0  0
 53 54  1  0  0  0  0
 53 83  1  0  0  0  0
 55 61  1  0  0  0  0
 56 62  1  0  0  0  0
 57 62  1  0  0  0  0
 58 62  1  0  0  0  0
 59 74  1  0  0  0  0
 60 62  1  0  0  0  0
 60 72  1  0  0  0  0
 61 74  1  0  0  0  0
 63 64  1  0  0  0  0
M  CHG  2  73   1  74   1
M  ISO  4  38 100  53 101  70 100  83 101
M  END
> <Batch ID>
0155

> <Smiles>
CNC(C)C(=O)NC(C(=O)N1Cc2cc([101O:1][101C:1]3(C)CCN(C(=N)c4cc([100NH:0][100C:0](=O)N5CCCC(n6nc(-c7ccc(Oc8ccc(F)cc8F)cc7)c(C(N)=O)c6N)C5)co4)C3=O)ccc2CC1C(=O)NC1CCCc2ccccc21)C(C)(C)C

> <Shape>
0.272

> <Color>
0.129

> <Negative vol penalty>
0.000

$$$$

  -OEChem-04052303363D

 85 93  0     1  0  0  0  0  0999 V2000
  -27.9472  -38.2707   26.0101 C   0  0  0  0  0  0  0  0  0  0  0  0
  -28.5622  -37.0276   25.9008 C   0  0  0  0  0  0  0  0  0  0  0  0
  -23.4200   -9.6823   21.5290 C   0  0  0  0  0  0  0  0  0  0  0  0
  -23.9601  -10.8638   23.5659 C   0  0  0  0  0  0  0  0  0  0  0  0
  -26.5568  -38.3654   25.9673 C   0  0  0  0  0  0  0  0  0  0  0  0
  -27.7871  -35.8784   25.7497 C   0  0  0  0  0  0  0  0  0  0  0  0
  -29.1927  -30.8932   22.4820 C   0  0  0  0  0  0  0  0  0  0  0  0
  -22.8108   -8.6737   22.2755 C   0  0  0  0  0  0  0  0  0  0  0  0
  -23.3509   -9.8553   24.3125 C   0  0  0  0  0  0  0  0  0  0  0  0
  -29.7229  -29.6548   22.8414 C   0  0  0  0  0  0  0  0  0  0  0  0
  -23.7759   -5.9980   24.1013 C   0  0  0  0  0  0  0  0  0  0  0  0
  -24.0599   -4.6765   23.7572 C   0  0  0  0  0  0  0  0  0  0  0  0
  -31.0004  -19.7880   21.3160 C   0  0  0  0  0  0  0  0  0  0  0  0
  -27.4943  -28.7370   22.9435 C   0  0  0  0  0  0  0  0  0  0  0  0
  -21.7160   -4.2866   23.3200 C   0  0  0  0  0  0  0  0  0  0  0  0
  -23.9947  -10.7773   22.1742 C   0  0  0  0  0  0  0  0  0  0  0  0
  -31.0821  -18.4220   20.9189 C   0  0  0  0  0  0  0  0  0  0  0  0
  -24.0187  -12.9815   20.8903 C   0  0  0  0  0  0  0  0  0  0  0  0
  -25.7647  -37.2178   25.8060 C   0  0  0  0  0  0  0  0  0  0  0  0
  -27.8063  -31.0658   22.3611 C   0  0  0  0  0  0  0  0  0  0  0  0
  -26.3848  -35.9577   25.7061 C   0  0  0  0  0  0  0  0  0  0  0  0
  -26.9492  -29.9779   22.5800 C   0  0  0  0  0  0  0  0  0  0  0  0
  -22.7762   -8.7602   23.6673 C   0  0  0  0  0  0  0  0  0  0  0  0
  -28.8735  -28.5772   23.0750 C   0  0  0  0  0  0  0  0  0  0  0  0
  -22.4619   -6.4639   24.0549 C   0  0  0  0  0  0  0  0  0  0  0  0
  -23.0300   -3.8208   23.3665 C   0  0  0  0  0  0  0  0  0  0  0  0
  -21.4320   -5.6082   23.6642 C   0  0  0  0  0  0  0  0  0  0  0  0
  -24.6246  -11.8192   21.4036 C   0  0  0  0  0  0  0  0  0  0  0  0
  -25.0340  -13.6396   20.2403 C   0  0  0  0  0  0  0  0  0  0  0  0
  -29.6977  -20.2316   21.3787 C   0  0  0  0  0  0  0  0  0  0  0  0
  -29.8386  -17.8735   20.6936 C   0  0  0  0  0  0  0  0  0  0  0  0
  -32.3065  -17.6794   20.7642 C   0  0  0  0  0  0  0  0  0  0  0  0
  -22.6595  -13.4266   20.9920 C   0  0  0  0  0  0  0  0  0  0  0  0
  -25.6344  -32.8682   23.8233 C   0  0  0  0  0  0  0  0  0  0  0  0
  -23.6616  -31.6440   21.5579 C   0  0  0  0  0  0  0  0  0  0  0  0
  -29.8694  -22.6399   22.0949 C   0  0  0  0  0  0  0  0  0  0  0  0
  -22.9934  -29.1283   19.3507 C   0  0  0  0  0  0  0  0  0  0  0  0
  -30.2816  -15.4879   20.0161 C   0  0  0  0  0  0  0  0  0  0  0  0
  -24.2637  -37.3649   25.8129 C   0  0  0  0  0  0  0  0  0  0  0  0
  -27.2518  -32.4012   21.9466 C   0  0  0  0  0  0  0  0  0  0  0  0
  -25.4547  -30.1059   22.4436 C   0  0  0  0  0  0  0  0  0  0  0  0
  -23.5291  -36.1399   25.2743 C   0  0  0  0  0  0  0  0  0  0  0  0
  -29.7074  -12.1137   19.0350 C   0  0  0  0  0  0  0  0  0  0  0  0
  -24.1006  -34.8638   25.8841 C   0  0  0  0  0  0  0  0  0  0  0  0
  -28.2840  -11.8319   19.5215 C   0  0  0  0  0  0  0  0  0  0  0  0
  -30.4720  -13.0103   20.0073 C   0  0  0  0  0  0  0  0  0  0  0  0
  -28.3698  -13.9816   20.8477 C   0  0  0  0  0  0  0  0  0  0  0  0
  -25.5792  -34.6908   25.5162 C   0  0  1  0  0  0  0  0  0  0  0  0
  -25.7946  -32.5956   22.3544 C   0  0  1  0  0  0  0  0  0  0  0  0
  -27.5388  -13.1355   19.8692 C   0  0  2  0  0  0  0  0  0  0  0  0
  -33.3141  -18.1779   19.7596 C   0  0  0  0  0  0  0  0  0  0  0  0
  -21.2880  -28.3877   17.6654 C   0  0  0  0  0  0  0  0  0  0  0  0
  -21.8049  -30.7805   23.8199 C   0  0  0  0  0  0  0  0  0  0  0  0
  -20.6522  -29.2594   22.1995 C   0  0  0  0  0  0  0  0  0  0  0  0
  -20.6410  -31.7246   21.8178 C   0  0  0  0  0  0  0  0  0  0  0  0
  -24.9671  -29.2070   17.1468 C   0  0  0  0  0  0  0  0  0  0  0  0
  -28.9101  -23.7867   22.3820 C   0  0  0  0  0  0  0  0  0  0  0  0
  -29.6304  -25.0656   22.7949 C   0  0  0  0  0  0  0  0  0  0  0  0
  -28.6548  -26.2095   23.0301 C   0  0  0  0  0  0  0  0  0  1  0  0
  -22.7785  -30.4239   21.4554 C   0  0  1  0  0  0  0  0  0  0  0  0
  -22.5829  -29.1530   17.8895 C   0  0  2  0  0  0  0  0  0  0  0  0
  -21.4972  -30.5449   22.3277 C   0  0  0  0  0  0  0  0  0  0  0  0
  -25.9242  -11.7404   21.1053 N   0  0  0  0  0  0  0  0  0  0  0  0
  -26.1431  -12.8616   20.3974 N   0  0  0  0  0  0  0  0  0  0  0  0
  -24.9604  -31.4333   22.0423 N   0  0  0  0  0  0  0  0  0  0  0  0
  -29.7075  -14.2278   20.2868 N   0  0  0  0  0  0  0  0  0  0  0  0
  -25.0773  -14.8021   19.5553 N   0  0  0  0  0  0  0  0  0  0  0  0
  -21.7463  -12.6296   21.6956 N   0  0  0  0  0  0  0  0  0  0  0  0
  -29.1666  -21.4973   21.7229 N   0  0  0  0  0  0  0  0  0  0  0  0
  -29.4487  -16.5720   20.2913 N   0  0  0  0  0  0  0  0  0  0  0  0
  -25.7089  -34.2067   24.1586 N   0  0  0  0  0  0  0  0  0  0  0  0
  -22.5172  -30.2275   20.0336 N   0  0  0  0  0  0  0  0  0  0  0  0
  -23.6444  -28.5387   17.0428 N   0  3  0  0  0  0  0  0  0  0  0  0
  -32.6086  -16.6501   21.3880 O   0  0  0  0  0  0  0  0  0  0  0  0
  -22.2628  -14.4913   20.4603 O   0  0  0  0  0  0  0  0  0  0  0  0
  -25.4549  -31.9335   24.5952 O   0  0  0  0  0  0  0  0  0  0  0  0
  -23.2179  -32.7424   21.2139 O   0  0  0  0  0  0  0  0  0  0  0  0
  -31.0851  -22.7671   22.1957 O   0  0  0  0  0  0  0  0  0  0  0  0
  -23.6659  -28.2226   19.8385 O   0  0  0  0  0  0  0  0  0  0  0  0
  -31.4175  -15.5963   19.5473 O   0  0  0  0  0  0  0  0  0  0  0  0
  -22.1817   -7.7764   24.3960 O   0  0  0  0  0  0  0  0  0  0  0  0
  -29.3884  -27.3676   23.4265 O   0  0  0  0  0  0  0  0  0  1  0  0
  -23.3031   -2.5521   23.0346 F   0  0  0  0  0  0  0  0  0  0  0  0
  -20.1679   -6.0503   23.6164 F   0  0  0  0  0  0  0  0  0  0  0  0
  -28.5800  -19.0036   20.9602 S   0  0  0  0  0  0  0  0  0  0  0  0
  1  2  1  0  0  0  0
  1  5  2  0  0  0  0
  2  6  2  0  0  0  0
  3  8  2  0  0  0  0
  3 16  1  0  0  0  0
  4  9  1  0  0  0  0
  4 16  2  0  0  0  0
  5 19  1  0  0  0  0
  6 21  1  0  0  0  0
  7 10  2  0  0  0  0
  7 20  1  0  0  0  0
  8 23  1  0  0  0  0
  9 23  2  0  0  0  0
 10 24  1  0  0  0  0
 11 12  2  0  0  0  0
 11 25  1  0  0  0  0
 12 26  1  0  0  0  0
 13 17  1  0  0  0  0
 13 30  2  0  0  0  0
 14 22  1  0  0  0  0
 14 24  2  0  0  0  0
 15 26  2  0  0  0  0
 15 27  1  0  0  0  0
 16 28  1  0  0  0  0
 17 31  2  0  0  0  0
 17 32  1  0  0  0  0
 18 28  1  0  0  0  0
 18 29  2  0  0  0  0
 18 33  1  0  0  0  0
 19 21  2  0  0  0  0
 19 39  1  0  0  0  0
 20 22  2  0  0  0  0
 20 40  1  0  0  0  0
 21 48  1  0  0  0  0
 22 41  1  0  0  0  0
 23 81  1  0  0  0  0
 24 82  1  0  0  0  0
 25 27  2  0  0  0  0
 25 81  1  0  0  0  0
 26 83  1  0  0  0  0
 27 84  1  0  0  0  0
 28 63  2  0  0  0  0
 29 64  1  0  0  0  0
 29 67  1  0  0  0  0
 30 69  1  0  0  0  0
 30 85  1  0  0  0  0
 31 70  1  0  0  0  0
 31 85  1  0  0  0  0
 32 51  1  0  0  0  0
 32 74  2  0  0  0  0
 33 68  1  0  0  0  0
 33 75  2  0  0  0  0
 34 49  1  0  0  0  0
 34 71  1  0  0  0  0
 34 76  2  0  0  0  0
 35 60  1  0  0  0  0
 35 65  1  0  0  0  0
 35 77  2  0  0  0  0
 36 57  1  0  0  0  0
 36 69  1  0  0  0  0
 36 78  2  0  0  0  0
 37 61  1  0  0  0  0
 37 72  1  0  0  0  0
 37 79  2  0  0  0  0
 38 66  1  0  0  0  0
 38 70  1  0  0  0  0
 38 80  2  0  0  0  0
 39 42  1  0  0  0  0
 40 49  1  0  0  0  0
 41 65  1  0  0  0  0
 42 44  1  0  0  0  0
 43 45  1  0  0  0  0
 43 46  1  0  0  0  0
 44 48  1  0  0  0  0
 45 50  1  0  0  0  0
 46 66  1  0  0  0  0
 47 50  1  0  0  0  0
 47 66  1  0  0  0  0
 48 71  1  0  0  0  0
 49 65  1  0  0  0  0
 50 64  1  0  0  0  0
 52 61  1  0  0  0  0
 53 62  1  0  0  0  0
 54 62  1  0  0  0  0
 55 62  1  0  0  0  0
 56 73  1  0  0  0  0
 57 58  1  0  0  0  0
 58 59  1  0  0  0  0
 59 82  1  0  0  0  0
 60 62  1  0  0  0  0
 60 72  1  0  0  0  0
 61 73  1  0  0  0  0
 63 64  1  0  0  0  0
M  CHG  1  73   1
M  ISO  4  38 100  59 101  70 100  82 101
M  END
> <Batch ID>
0155

> <Smiles>
CNC(C)C(=O)NC(C(=O)N1Cc2cc([101O:1][101CH2:1]CCC(=O)Nc3cc(C(C)=O)c([100NH:0][100C:0](=O)N4CCCC(n5nc(-c6ccc(Oc7ccc(F)cc7F)cc6)c(C(N)=O)c5N)C4)s3)ccc2CC1C(=O)NC1CCCc2ccccc21)C(C)(C)C

> <Shape>
0.311

> <Color>
0.130

> <Negative vol penalty>
0.000

$$$$

  -OEChem-04052303363D

 82 91  0     1  0  0  0  0  0999 V2000
  -28.4141  -22.5532   12.1030 C   0  0  0  0  0  0  0  0  0  0  0  0
  -28.2624  -22.0023   13.3714 C   0  0  0  0  0  0  0  0  0  0  0  0
  -23.7276   -9.7272   19.7719 C   0  0  0  0  0  0  0  0  0  0  0  0
  -24.4950   -9.7207   22.0627 C   0  0  0  0  0  0  0  0  0  0  0  0
  -28.7014  -23.9104   11.9634 C   0  0  0  0  0  0  0  0  0  0  0  0
  -28.3991  -22.8082   14.5012 C   0  0  0  0  0  0  0  0  0  0  0  0
  -25.3123  -22.3183   19.7678 C   0  0  0  0  0  0  0  0  0  0  0  0
  -23.3134   -8.4022   19.9068 C   0  0  0  0  0  0  0  0  0  0  0  0
  -24.0808   -8.3956   22.1977 C   0  0  0  0  0  0  0  0  0  0  0  0
  -25.6338  -21.7352   20.9927 C   0  0  0  0  0  0  0  0  0  0  0  0
  -22.8975   -5.1249   23.2562 C   0  0  0  0  0  0  0  0  0  0  0  0
  -22.1969   -4.7781   24.4114 C   0  0  0  0  0  0  0  0  0  0  0  0
  -26.3477  -23.8852   21.8218 C   0  0  0  0  0  0  0  0  0  0  0  0
  -30.1746  -19.2223   22.3241 C   0  0  0  0  0  0  0  0  0  0  0  0
  -20.4799   -6.3831   23.8518 C   0  0  0  0  0  0  0  0  0  0  0  0
  -24.3185  -10.3865   20.8498 C   0  0  0  0  0  0  0  0  0  0  0  0
  -23.9895  -12.9135   20.9681 C   0  0  0  0  0  0  0  0  0  0  0  0
  -28.8321  -24.7353   13.0917 C   0  0  0  0  0  0  0  0  0  0  0  0
  -25.5166  -23.6894   19.5567 C   0  0  0  0  0  0  0  0  0  0  0  0
  -28.6897  -24.1774   14.3766 C   0  0  0  0  0  0  0  0  0  0  0  0
  -26.0256  -24.4836   20.5941 C   0  0  0  0  0  0  0  0  0  0  0  0
  -29.9440  -20.3931   23.1028 C   0  0  0  0  0  0  0  0  0  0  0  0
  -23.4900   -7.7364   21.1197 C   0  0  0  0  0  0  0  0  0  0  0  0
  -26.1543  -22.5181   22.0190 C   0  0  0  0  0  0  0  0  0  0  0  0
  -22.3894   -6.1008   22.3988 C   0  0  0  0  0  0  0  0  0  0  0  0
  -20.9881   -5.4072   24.7092 C   0  0  0  0  0  0  0  0  0  0  0  0
  -21.1806   -6.7299   22.6966 C   0  0  0  0  0  0  0  0  0  0  0  0
  -24.7471  -11.7551   20.7108 C   0  0  0  0  0  0  0  0  0  0  0  0
  -28.7710  -20.3143   23.8208 C   0  0  0  0  0  0  0  0  0  0  0  0
  -24.8433  -13.9517   20.6859 C   0  0  0  0  0  0  0  0  0  0  0  0
  -29.1691  -18.2931   22.4768 C   0  0  0  0  0  0  0  0  0  0  0  0
  -22.6353  -13.0396   21.4217 C   0  0  0  0  0  0  0  0  0  0  0  0
  -27.3067  -25.4113   17.5731 C   0  0  0  0  0  0  0  0  0  0  0  0
  -25.6953  -27.8956   18.8976 C   0  0  0  0  0  0  0  0  0  0  0  0
  -23.9314  -29.1203   21.5501 C   0  0  0  0  0  0  0  0  0  0  0  0
  -29.8511  -16.3645   21.0065 C   0  0  0  0  0  0  0  0  0  0  0  0
  -29.1898  -26.1868   12.8923 C   0  0  0  0  0  0  0  0  0  0  0  0
  -25.1396  -24.3081   18.2385 C   0  0  0  0  0  0  0  0  0  0  0  0
  -26.2448  -25.9641   20.4250 C   0  0  0  0  0  0  0  0  0  0  0  0
  -28.9482  -27.0491   14.1286 C   0  0  0  0  0  0  0  0  0  0  0  0
  -28.0509  -22.0589   26.8748 C   0  0  0  0  0  0  0  0  0  0  0  0
  -29.3665  -13.9726   18.4141 C   0  0  0  0  0  0  0  0  0  0  0  0
  -29.5050  -26.3654   15.3734 C   0  0  0  0  0  0  0  0  0  0  0  0
  -28.0592  -13.2777   18.8016 C   0  0  0  0  0  0  0  0  0  0  0  0
  -27.3508  -20.9887   26.0193 C   0  0  0  0  0  0  0  0  0  0  0  0
  -29.2111  -22.0278   25.8645 C   0  0  0  0  0  0  0  0  0  0  0  0
  -30.2091  -14.3202   19.6400 C   0  0  0  0  0  0  0  0  0  0  0  0
  -28.2011  -14.3924   21.0654 C   0  0  0  0  0  0  0  0  0  0  0  0
  -28.8059  -25.0241   15.6255 C   0  0  1  0  0  0  0  0  0  0  0  0
  -25.8704  -25.6185   17.9627 C   0  0  1  0  0  0  0  0  0  0  0  0
  -27.2886  -14.0810   19.8678 C   0  0  2  0  0  0  0  0  0  0  0  0
  -28.2148  -21.4562   24.7976 C   0  0  0  0  0  0  0  0  0  0  0  0
  -22.7761  -31.1964   22.3577 C   0  0  0  0  0  0  0  0  0  0  0  0
  -28.4029  -29.1570   19.5203 C   0  0  0  0  0  0  0  0  0  0  0  0
  -27.2411  -30.6933   21.1198 C   0  0  0  0  0  0  0  0  0  0  0  0
  -26.6709  -30.7599   18.6922 C   0  0  0  0  0  0  0  0  0  0  0  0
  -21.3166  -27.7431   21.7091 C   0  0  0  0  0  0  0  0  0  0  0  0
  -27.5364  -22.5452   23.9542 C   0  0  0  0  0  0  0  0  0  1  0  0
  -25.9109  -28.7954   20.0905 C   0  0  1  0  0  0  0  0  0  0  0  0
  -22.6160  -29.8745   21.6231 C   0  0  2  0  0  0  0  0  0  0  0  0
  -27.0542  -29.8232   19.8586 C   0  0  0  0  0  0  0  0  0  0  0  0
  -25.9866  -12.0311   20.2969 N   0  0  0  0  0  0  0  0  0  0  0  0
  -26.0145  -13.3747   20.2918 N   0  0  0  0  0  0  0  0  0  0  0  0
  -25.8667  -26.5212   19.1157 N   0  0  0  0  0  0  0  0  0  0  0  0
  -29.4149  -15.0844   20.6044 N   0  0  0  0  0  0  0  0  0  0  0  0
  -30.7862  -21.4532   23.1270 N   0  0  0  0  0  0  0  0  0  0  0  0
  -24.6988  -15.2929   20.7389 N   0  0  0  0  0  0  0  0  0  0  0  0
  -21.9002  -11.8712   21.6638 N   0  0  0  0  0  0  0  0  0  0  0  0
  -28.9982  -17.0095   21.9016 N   0  0  0  0  0  0  0  0  0  0  0  0
  -27.5020  -25.2370   16.2163 N   0  0  0  0  0  0  0  0  0  0  0  0
  -24.6159  -29.3987   20.3860 N   0  0  0  0  0  0  0  0  0  0  0  0
  -21.5914  -29.0612   22.3370 N   0  3  0  0  0  0  0  0  0  0  0  0
  -22.0878  -14.1555   21.5910 O   0  0  0  0  0  0  0  0  0  0  0  0
  -28.1736  -25.4111   18.4392 O   0  0  0  0  0  0  0  0  0  0  0  0
  -25.3793  -28.3932   17.8141 O   0  0  0  0  0  0  0  0  0  0  0  0
  -24.3151  -28.3629   22.4387 O   0  0  0  0  0  0  0  0  0  0  0  0
  -30.8900  -16.8639   20.5668 O   0  0  0  0  0  0  0  0  0  0  0  0
  -23.0857   -6.4434   21.2519 O   0  0  0  0  0  0  0  0  0  0  0  0
  -26.4696  -21.9515   23.2154 O   0  0  0  0  0  0  0  0  0  1  0  0
  -20.3147   -5.0730   25.8178 F   0  0  0  0  0  0  0  0  0  0  0  0
  -20.6868   -7.6674   21.8761 F   0  0  0  0  0  0  0  0  0  0  0  0
  -27.9534  -18.8333   23.5550 S   0  0  0  0  0  0  0  0  0  0  0  0
  1  2  1  0  0  0  0
  1  5  2  0  0  0  0
  2  6  2  0  0  0  0
  3  8  2  0  0  0  0
  3 16  1  0  0  0  0
  4  9  1  0  0  0  0
  4 16  2  0  0  0  0
  5 18  1  0  0  0  0
  6 20  1  0  0  0  0
  7 10  2  0  0  0  0
  7 19  1  0  0  0  0
  8 23  1  0  0  0  0
  9 23  2  0  0  0  0
 10 24  1  0  0  0  0
 11 12  2  0  0  0  0
 11 25  1  0  0  0  0
 12 26  1  0  0  0  0
 13 21  1  0  0  0  0
 13 24  2  0  0  0  0
 14 22  1  0  0  0  0
 14 31  2  0  0  0  0
 15 26  2  0  0  0  0
 15 27  1  0  0  0  0
 16 28  1  0  0  0  0
 17 28  1  0  0  0  0
 17 30  2  0  0  0  0
 17 32  1  0  0  0  0
 18 20  2  0  0  0  0
 18 37  1  0  0  0  0
 19 21  2  0  0  0  0
 19 38  1  0  0  0  0
 20 49  1  0  0  0  0
 21 39  1  0  0  0  0
 22 29  2  0  0  0  0
 22 66  1  0  0  0  0
 23 78  1  0  0  0  0
 24 79  1  0  0  0  0
 25 27  2  0  0  0  0
 25 78  1  0  0  0  0
 26 80  1  0  0  0  0
 27 81  1  0  0  0  0
 28 62  2  0  0  0  0
 29 52  1  0  0  0  0
 29 82  1  0  0  0  0
 30 63  1  0  0  0  0
 30 67  1  0  0  0  0
 31 69  1  0  0  0  0
 31 82  1  0  0  0  0
 32 68  1  0  0  0  0
 32 73  2  0  0  0  0
 33 50  1  0  0  0  0
 33 70  1  0  0  0  0
 33 74  2  0  0  0  0
 34 59  1  0  0  0  0
 34 64  1  0  0  0  0
 34 75  2  0  0  0  0
 35 60  1  0  0  0  0
 35 71  1  0  0  0  0
 35 76  2  0  0  0  0
 36 65  1  0  0  0  0
 36 69  1  0  0  0  0
 36 77  2  0  0  0  0
 37 40  1  0  0  0  0
 38 50  1  0  0  0  0
 39 64  1  0  0  0  0
 40 43  1  0  0  0  0
 41 45  1  0  0  0  0
 41 46  1  0  0  0  0
 42 44  1  0  0  0  0
 42 47  1  0  0  0  0
 43 49  1  0  0  0  0
 44 51  1  0  0  0  0
 45 52  1  0  0  0  0
 46 52  1  0  0  0  0
 47 65  1  0  0  0  0
 48 51  1  0  0  0  0
 48 65  1  0  0  0  0
 49 70  1  0  0  0  0
 50 64  1  0  0  0  0
 51 63  1  0  0  0  0
 52 58  1  0  0  0  0
 53 60  1  0  0  0  0
 54 61  1  0  0  0  0
 55 61  1  0  0  0  0
 56 61  1  0  0  0  0
 57 72  1  0  0  0  0
 58 79  1  0  0  0  0
 59 61  1  0  0  0  0
 59 71  1  0  0  0  0
 60 72  1  0  0  0  0
 62 63  1  0  0  0  0
M  CHG  1  72   1
M  ISO  4  36 100  58 101  69 100  79 101
M  END
> <Batch ID>
0155

> <Smiles>
CNC(C)C(=O)NC(C(=O)N1Cc2cc([101O:1][101CH2:1]C3(c4sc([100NH:0][100C:0](=O)N5CCCC(n6nc(-c7ccc(Oc8ccc(F)cc8F)cc7)c(C(N)=O)c6N)C5)cc4N)CCC3)ccc2CC1C(=O)NC1CCCc2ccccc21)C(C)(C)C

> <Shape>
0.238

> <Color>
0.126

> <Negative vol penalty>
0.000

$$$$

  -OEChem-04052303363D

 83 92  0     1  0  0  0  0  0999 V2000
  -29.0274  -36.2886   21.8915 C   0  0  0  0  0  0  0  0  0  0  0  0
  -29.4728  -35.2482   21.0824 C   0  0  0  0  0  0  0  0  0  0  0  0
  -23.0236  -10.2000   20.3653 C   0  0  0  0  0  0  0  0  0  0  0  0
  -24.2772   -9.2478   22.1980 C   0  0  0  0  0  0  0  0  0  0  0  0
  -28.2531  -36.0120   23.0175 C   0  0  0  0  0  0  0  0  0  0  0  0
  -29.1451  -33.9304   21.3995 C   0  0  0  0  0  0  0  0  0  0  0  0
  -27.7050  -27.6350   18.2994 C   0  0  0  0  0  0  0  0  0  0  0  0
  -22.2057   -9.0705   20.3378 C   0  0  0  0  0  0  0  0  0  0  0  0
  -23.4592   -8.1182   22.1706 C   0  0  0  0  0  0  0  0  0  0  0  0
  -28.1007  -26.2988   18.3403 C   0  0  0  0  0  0  0  0  0  0  0  0
  -20.3738   -7.2525   23.2436 C   0  0  0  0  0  0  0  0  0  0  0  0
  -19.9038   -6.7649   24.4629 C   0  0  0  0  0  0  0  0  0  0  0  0
  -26.6909  -25.9465   20.2658 C   0  0  0  0  0  0  0  0  0  0  0  0
  -21.0038   -4.6552   24.0433 C   0  0  0  0  0  0  0  0  0  0  0  0
  -24.0594  -10.2887   21.2954 C   0  0  0  0  0  0  0  0  0  0  0  0
  -24.7060  -12.6312   22.0713 C   0  0  0  0  0  0  0  0  0  0  0  0
  -27.9076  -34.6909   23.3432 C   0  0  0  0  0  0  0  0  0  0  0  0
  -26.8061  -28.1406   19.2497 C   0  0  0  0  0  0  0  0  0  0  0  0
  -28.3665  -33.6358   22.5316 C   0  0  0  0  0  0  0  0  0  0  0  0
  -26.2834  -27.2889   20.2333 C   0  0  0  0  0  0  0  0  0  0  0  0
  -22.4235   -8.0296   21.2405 C   0  0  0  0  0  0  0  0  0  0  0  0
  -27.5959  -25.4550   19.3254 C   0  0  0  0  0  0  0  0  0  0  0  0
  -21.1588   -6.4415   22.4240 C   0  0  0  0  0  0  0  0  0  0  0  0
  -20.2188   -5.4662   24.8628 C   0  0  0  0  0  0  0  0  0  0  0  0
  -21.4739   -5.1428   22.8239 C   0  0  0  0  0  0  0  0  0  0  0  0
  -24.9050  -11.4550   21.3238 C   0  0  0  0  0  0  0  0  0  0  0  0
  -25.7791  -13.4267   21.7518 C   0  0  0  0  0  0  0  0  0  0  0  0
  -29.3836  -20.3079   21.0454 C   0  0  0  0  0  0  0  0  0  0  0  0
  -28.8871  -21.5445   21.1132 C   0  0  0  0  0  0  0  0  0  0  0  0
  -28.9154  -19.3720   20.0403 C   0  0  0  0  0  0  0  0  0  0  0  0
  -27.9855  -19.7557   19.1397 C   0  0  0  0  0  0  0  0  0  0  0  0
  -27.3983  -21.1534   19.2367 C   0  0  0  0  0  0  0  0  0  0  0  0
  -23.6461  -12.9740   22.9739 C   0  0  0  0  0  0  0  0  0  0  0  0
  -26.9424  -30.3884   21.4929 C   0  0  0  0  0  0  0  0  0  0  0  0
  -23.7835  -29.7200   21.8044 C   0  0  0  0  0  0  0  0  0  0  0  0
  -21.2410  -27.4817   21.3888 C   0  0  0  0  0  0  0  0  0  0  0  0
  -28.9915  -15.5037   17.5563 C   0  0  0  0  0  0  0  0  0  0  0  0
  -27.1082  -34.4377   24.5968 C   0  0  0  0  0  0  0  0  0  0  0  0
  -26.3686  -29.5777   19.1757 C   0  0  0  0  0  0  0  0  0  0  0  0
  -25.3001  -27.7775   21.2642 C   0  0  0  0  0  0  0  0  0  0  0  0
  -29.5294  -17.9927   20.1445 C   0  0  0  0  0  0  0  0  0  0  0  0
  -27.4763  -18.9238   17.9837 C   0  0  0  0  0  0  0  0  0  0  0  0
  -26.4906  -33.0428   24.6539 C   0  0  0  0  0  0  0  0  0  0  0  0
  -30.0424  -12.3890   19.2514 C   0  0  0  0  0  0  0  0  0  0  0  0
  -27.5207  -31.9866   24.2667 C   0  0  0  0  0  0  0  0  0  0  0  0
  -28.7573  -11.9363   19.9431 C   0  0  0  0  0  0  0  0  0  0  0  0
  -28.6476  -16.8300   19.6777 C   0  0  0  0  0  0  0  0  0  0  0  0
  -28.4539  -17.8962   17.4136 C   0  0  0  0  0  0  0  0  0  0  0  0
  -29.7538  -13.1948   17.9883 C   0  0  0  0  0  0  0  0  0  0  0  0
  -27.5669  -13.9031   18.8987 C   0  0  0  0  0  0  0  0  0  0  0  0
  -28.0110  -32.1952   22.8287 C   0  0  1  0  0  0  0  0  0  0  0  0
  -25.8445  -30.1119   20.5051 C   0  0  1  0  0  0  0  0  0  0  0  0
  -27.8224  -13.1309   20.2014 C   0  0  1  0  0  0  0  0  0  0  0  0
  -18.7762  -27.2070   21.7713 C   0  0  0  0  0  0  0  0  0  0  0  0
  -24.2958  -29.2909   24.7815 C   0  0  0  0  0  0  0  0  0  0  0  0
  -22.0852  -28.1241   24.9227 C   0  0  0  0  0  0  0  0  0  0  0  0
  -22.1858  -30.5251   24.2534 C   0  0  0  0  0  0  0  0  0  0  0  0
  -20.7151  -27.1200   18.4989 C   0  0  0  0  0  0  0  0  0  0  0  0
  -27.4247  -23.3437   20.4032 C   0  0  0  0  0  0  0  0  0  1  0  0
  -22.9720  -28.7522   22.6314 C   0  0  1  0  0  0  0  0  0  0  0  0
  -19.8553  -27.6316   20.7875 C   0  0  2  0  0  0  0  0  0  0  0  0
  -22.9047  -29.1641   24.1291 C   0  0  0  0  0  0  0  0  0  0  0  0
  -26.0170  -11.4955   20.5850 N   0  0  0  0  0  0  0  0  0  0  0  0
  -26.5263  -12.7068   20.8666 N   0  0  0  0  0  0  0  0  0  0  0  0
  -27.9133  -21.9781   20.2410 N   0  0  0  0  0  0  0  0  0  0  0  0
  -24.9079  -29.1922   21.1540 N   0  0  0  0  0  0  0  0  0  0  0  0
  -28.5965  -16.6838   18.2172 N   0  0  0  0  0  0  0  0  0  0  0  0
  -28.8292  -14.2966   18.2558 N   0  0  0  0  0  0  0  0  0  0  0  0
  -26.1470  -14.6648   22.1444 N   0  0  0  0  0  0  0  0  0  0  0  0
  -22.6227  -12.0406   23.1879 N   0  0  0  0  0  0  0  0  0  0  0  0
  -27.0273  -31.7110   21.8841 N   0  0  0  0  0  0  0  0  0  0  0  0
  -21.6703  -28.6509   21.9805 N   0  0  0  0  0  0  0  0  0  0  0  0
  -19.7293  -26.7940   19.5613 N   0  3  0  0  0  0  0  0  0  0  0  0
  -26.5125  -21.4989   18.4535 O   0  0  0  0  0  0  0  0  0  0  0  0
  -23.5989  -14.0819   23.5602 O   0  0  0  0  0  0  0  0  0  0  0  0
  -27.6584  -29.4696   21.8733 O   0  0  0  0  0  0  0  0  0  0  0  0
  -23.4287  -30.8992   21.7322 O   0  0  0  0  0  0  0  0  0  0  0  0
  -21.8774  -26.4313   21.3418 O   0  0  0  0  0  0  0  0  0  0  0  0
  -29.4634  -15.5306   16.4125 O   0  0  0  0  0  0  0  0  0  0  0  0
  -21.6254   -6.9274   21.2141 O   0  0  0  0  0  0  0  0  0  0  0  0
  -27.9836  -24.1417   19.3682 O   0  0  0  0  0  0  0  0  0  1  0  0
  -19.7686   -4.9986   26.0345 F   0  0  0  0  0  0  0  0  0  0  0  0
  -22.2286   -4.3594   22.0413 F   0  0  0  0  0  0  0  0  0  0  0  0
  1  2  1  0  0  0  0
  1  5  2  0  0  0  0
  2  6  2  0  0  0  0
  3  8  2  0  0  0  0
  3 15  1  0  0  0  0
  4  9  1  0  0  0  0
  4 15  2  0  0  0  0
  5 17  1  0  0  0  0
  6 19  1  0  0  0  0
  7 10  2  0  0  0  0
  7 18  1  0  0  0  0
  8 21  1  0  0  0  0
  9 21  2  0  0  0  0
 10 22  1  0  0  0  0
 11 12  2  0  0  0  0
 11 23  1  0  0  0  0
 12 24  1  0  0  0  0
 13 20  1  0  0  0  0
 13 22  2  0  0  0  0
 14 24  2  0  0  0  0
 14 25  1  0  0  0  0
 15 26  1  0  0  0  0
 16 26  1  0  0  0  0
 16 27  2  0  0  0  0
 16 33  1  0  0  0  0
 17 19  2  0  0  0  0
 17 38  1  0  0  0  0
 18 20  2  0  0  0  0
 18 39  1  0  0  0  0
 19 51  1  0  0  0  0
 20 40  1  0  0  0  0
 21 80  1  0  0  0  0
 22 81  1  0  0  0  0
 23 25  2  0  0  0  0
 23 80  1  0  0  0  0
 24 82  1  0  0  0  0
 25 83  1  0  0  0  0
 26 63  2  0  0  0  0
 27 64  1  0  0  0  0
 27 69  1  0  0  0  0
 28 29  2  0  0  0  0
 28 30  1  0  0  0  0
 29 65  1  0  0  0  0
 30 31  2  0  0  0  0
 30 41  1  0  0  0  0
 31 32  1  0  0  0  0
 31 42  1  0  0  0  0
 32 65  1  0  0  0  0
 32 74  2  0  0  0  0
 33 70  1  0  0  0  0
 33 75  2  0  0  0  0
 34 52  1  0  0  0  0
 34 71  1  0  0  0  0
 34 76  2  0  0  0  0
 35 60  1  0  0  0  0
 35 66  1  0  0  0  0
 35 77  2  0  0  0  0
 36 61  1  0  0  0  0
 36 72  1  0  0  0  0
 36 78  2  0  0  0  0
 37 67  1  0  0  0  0
 37 68  1  0  0  0  0
 37 79  2  0  0  0  0
 38 43  1  0  0  0  0
 39 52  1  0  0  0  0
 40 66  1  0  0  0  0
 41 47  1  0  0  0  0
 42 48  1  0  0  0  0
 43 45  1  0  0  0  0
 44 46  1  0  0  0  0
 44 49  1  0  0  0  0
 45 51  1  0  0  0  0
 46 53  1  0  0  0  0
 47 67  1  0  0  0  0
 48 67  1  0  0  0  0
 49 68  1  0  0  0  0
 50 53  1  0  0  0  0
 50 68  1  0  0  0  0
 51 71  1  0  0  0  0
 52 66  1  0  0  0  0
 53 64  1  0  0  0  0
 54 61  1  0  0  0  0
 55 62  1  0  0  0  0
 56 62  1  0  0  0  0
 57 62  1  0  0  0  0
 58 73  1  0  0  0  0
 59 65  1  0  0  0  0
 59 81  1  0  0  0  0
 60 62  1  0  0  0  0
 60 72  1  0  0  0  0
 61 73  1  0  0  0  0
 63 64  1  0  0  0  0
M  CHG  1  73   1
M  ISO  4  37 100  59 101  67 100  81 101
M  END
> <Batch ID>
0155

> <Smiles>
CNC(C)C(=O)NC(C(=O)N1Cc2cc([101O:1][101CH2:1]n3ccc4c(c3=O)CC[100N:0]([100C:0](=O)N3CCCC(n5nc(-c6ccc(Oc7ccc(F)cc7F)cc6)c(C(N)=O)c5N)C3)CC4)ccc2CC1C(=O)NC1CCCc2ccccc21)C(C)(C)C

> <Shape>
0.337

> <Color>
0.119

> <Negative vol penalty>
0.000

$$$$

  -OEChem-04052303363D

 85 93  0     1  0  0  0  0  0999 V2000
  -25.5678  -34.5724   27.1212 C   0  0  0  0  0  0  0  0  0  0  0  0
  -26.2031  -33.4472   26.6059 C   0  0  0  0  0  0  0  0  0  0  0  0
  -24.5629   -9.0472   21.5519 C   0  0  0  0  0  0  0  0  0  0  0  0
  -24.0492  -10.6127   23.3189 C   0  0  0  0  0  0  0  0  0  0  0  0
  -24.1865  -34.7119   26.9926 C   0  0  0  0  0  0  0  0  0  0  0  0
  -25.4573  -32.4601   25.9625 C   0  0  0  0  0  0  0  0  0  0  0  0
  -27.6155  -30.8903   21.6587 C   0  0  0  0  0  0  0  0  0  0  0  0
  -25.8546  -20.8694   20.0095 C   0  0  0  0  0  0  0  0  0  0  0  0
  -26.9067  -21.7218   20.3439 C   0  0  0  0  0  0  0  0  0  0  0  0
  -24.2056   -7.9881   22.3863 C   0  0  0  0  0  0  0  0  0  0  0  0
  -23.6918   -9.5536   24.1533 C   0  0  0  0  0  0  0  0  0  0  0  0
  -28.6835  -30.0010   21.7694 C   0  0  0  0  0  0  0  0  0  0  0  0
  -23.0851   -4.8943   23.9316 C   0  0  0  0  0  0  0  0  0  0  0  0
  -22.2826   -3.8878   23.3945 C   0  0  0  0  0  0  0  0  0  0  0  0
  -27.2011  -28.1669   21.2616 C   0  0  0  0  0  0  0  0  0  0  0  0
  -28.4222  -19.8404   20.3714 C   0  0  0  0  0  0  0  0  0  0  0  0
  -20.5553   -5.5124   22.9312 C   0  0  0  0  0  0  0  0  0  0  0  0
  -24.4847  -10.3595   22.0182 C   0  0  0  0  0  0  0  0  0  0  0  0
  -24.0143  -12.1674   20.2809 C   0  0  0  0  0  0  0  0  0  0  0  0
  -23.4246  -33.7306   26.3388 C   0  0  0  0  0  0  0  0  0  0  0  0
  -26.3279  -30.4225   21.3588 C   0  0  0  0  0  0  0  0  0  0  0  0
  -24.0644  -32.5859   25.8262 C   0  0  0  0  0  0  0  0  0  0  0  0
  -26.1190  -29.0526   21.1451 C   0  0  0  0  0  0  0  0  0  0  0  0
  -26.0861  -19.5024   19.8561 C   0  0  0  0  0  0  0  0  0  0  0  0
  -28.1906  -21.2074   20.5248 C   0  0  0  0  0  0  0  0  0  0  0  0
  -27.3700  -18.9880   20.0371 C   0  0  0  0  0  0  0  0  0  0  0  0
  -23.7700   -8.2413   23.6870 C   0  0  0  0  0  0  0  0  0  0  0  0
  -28.4759  -28.6387   21.5737 C   0  0  0  0  0  0  0  0  0  0  0  0
  -22.6228   -6.2098   23.9686 C   0  0  0  0  0  0  0  0  0  0  0  0
  -21.0177   -4.1968   22.8943 C   0  0  0  0  0  0  0  0  0  0  0  0
  -21.3579   -6.5189   23.4683 C   0  0  0  0  0  0  0  0  0  0  0  0
  -24.8542  -11.4540   21.1569 C   0  0  0  0  0  0  0  0  0  0  0  0
  -24.8384  -13.0982   19.6970 C   0  0  0  0  0  0  0  0  0  0  0  0
  -22.6143  -12.0034   20.0186 C   0  0  0  0  0  0  0  0  0  0  0  0
  -30.4242  -24.0807   21.3880 C   0  0  0  0  0  0  0  0  0  0  0  0
  -30.4968  -25.5783   21.6131 C   0  0  0  0  0  0  0  0  0  0  0  0
  -23.5242  -30.4555   22.8559 C   0  0  0  0  0  0  0  0  0  0  0  0
  -22.4555  -29.2105   20.0577 C   0  0  0  0  0  0  0  0  0  0  0  0
  -23.1587  -27.4861   17.1978 C   0  0  0  0  0  0  0  0  0  0  0  0
  -28.8474  -16.9475   20.0338 C   0  0  0  0  0  0  0  0  0  0  0  0
  -21.9281  -33.9026   26.2658 C   0  0  0  0  0  0  0  0  0  0  0  0
  -25.1917  -31.3977   21.2165 C   0  0  0  0  0  0  0  0  0  0  0  0
  -24.7600  -28.5019   20.8011 C   0  0  0  0  0  0  0  0  0  0  0  0
  -21.2594  -32.9907   25.2404 C   0  0  0  0  0  0  0  0  0  0  0  0
  -29.8793  -13.5491   19.7822 C   0  0  0  0  0  0  0  0  0  0  0  0
  -21.7849  -31.5646   25.3713 C   0  0  0  0  0  0  0  0  0  0  0  0
  -28.5949  -12.7598   20.0453 C   0  0  0  0  0  0  0  0  0  0  0  0
  -29.9571  -14.8090   20.6426 C   0  0  0  0  0  0  0  0  0  0  0  0
  -27.5018  -14.9020   20.8218 C   0  0  0  0  0  0  0  0  0  0  0  0
  -23.2930  -31.5054   25.0998 C   0  0  1  0  0  0  0  0  0  0  0  0
  -23.8230  -30.7533   21.4138 C   0  0  1  0  0  0  0  0  0  0  0  0
  -27.3478  -13.6583   19.9312 C   0  0  2  0  0  0  0  0  0  0  0  0
  -24.9401  -18.6130   19.4978 C   0  0  0  0  0  0  0  0  0  0  0  0
  -22.0729  -26.5898   15.1206 C   0  0  0  0  0  0  0  0  0  0  0  0
  -21.2330  -26.9349   21.6815 C   0  0  0  0  0  0  0  0  0  0  0  0
  -21.0127  -25.6298   19.5563 C   0  0  0  0  0  0  0  0  0  0  0  0
  -19.7880  -27.7861   19.8263 C   0  0  0  0  0  0  0  0  0  0  0  0
  -24.8707  -29.1475   15.4464 C   0  0  0  0  0  0  0  0  0  0  0  0
  -29.0886  -23.4785   21.0357 C   0  0  0  0  0  0  0  0  0  0  0  0
  -29.2322  -26.3864   21.4687 C   0  0  0  0  0  0  0  0  0  1  0  0
  -22.2948  -27.8170   19.4997 C   0  0  1  0  0  0  0  0  0  0  0  0
  -22.8145  -27.7614   15.7452 C   0  0  2  0  0  0  0  0  0  0  0  0
  -21.1075  -27.0518   20.1493 C   0  0  0  0  0  0  0  0  0  0  0  0
  -26.1152  -11.8937   21.1346 N   0  0  0  0  0  0  0  0  0  0  0  0
  -26.0738  -12.8935   20.2374 N   0  0  0  0  0  0  0  0  0  0  0  0
  -23.6797  -29.4947   20.6793 N   0  0  0  0  0  0  0  0  0  0  0  0
  -28.7438  -15.6130   20.4800 N   0  0  0  0  0  0  0  0  0  0  0  0
  -24.6195  -14.0635   18.7791 N   0  0  0  0  0  0  0  0  0  0  0  0
  -21.9190  -10.9988   20.7054 N   0  0  0  0  0  0  0  0  0  0  0  0
  -27.6252  -17.6024   19.8857 N   0  0  0  0  0  0  0  0  0  0  0  0
  -29.2363  -22.0551   20.8572 N   0  0  0  0  0  0  0  0  0  0  0  0
  -23.5533  -31.5662   23.6775 N   0  0  0  0  0  0  0  0  0  0  0  0
  -22.1890  -27.9665   18.0523 N   0  0  0  0  0  0  0  0  0  0  0  0
  -24.0549  -28.0067   14.9565 N   0  3  0  0  0  0  0  0  0  0  0  0
  -22.0017  -12.7155   19.1872 O   0  0  0  0  0  0  0  0  0  0  0  0
  -31.4660  -23.4484   21.5092 O   0  0  0  0  0  0  0  0  0  0  0  0
  -31.5881  -26.0534   21.8998 O   0  0  0  0  0  0  0  0  0  0  0  0
  -23.2834  -29.3036   23.1977 O   0  0  0  0  0  0  0  0  0  0  0  0
  -21.5317  -30.0194   19.9398 O   0  0  0  0  0  0  0  0  0  0  0  0
  -24.1833  -26.8999   17.5401 O   0  0  0  0  0  0  0  0  0  0  0  0
  -29.9382  -17.4621   19.7743 O   0  0  0  0  0  0  0  0  0  0  0  0
  -23.4211   -7.2081   24.5014 O   0  0  0  0  0  0  0  0  0  0  0  0
  -29.5165  -27.7685   21.6819 O   0  0  0  0  0  0  0  0  0  1  0  0
  -20.2477   -3.2305   22.3771 F   0  0  0  0  0  0  0  0  0  0  0  0
  -20.9088   -7.7810   23.5000 F   0  0  0  0  0  0  0  0  0  0  0  0
  1  2  1  0  0  0  0
  1  5  2  0  0  0  0
  2  6  2  0  0  0  0
  3 10  2  0  0  0  0
  3 18  1  0  0  0  0
  4 11  1  0  0  0  0
  4 18  2  0  0  0  0
  5 20  1  0  0  0  0
  6 22  1  0  0  0  0
  7 12  2  0  0  0  0
  7 21  1  0  0  0  0
  8  9  2  0  0  0  0
  8 24  1  0  0  0  0
  9 25  1  0  0  0  0
 10 27  1  0  0  0  0
 11 27  2  0  0  0  0
 12 28  1  0  0  0  0
 13 14  2  0  0  0  0
 13 29  1  0  0  0  0
 14 30  1  0  0  0  0
 15 23  1  0  0  0  0
 15 28  2  0  0  0  0
 16 25  2  0  0  0  0
 16 26  1  0  0  0  0
 17 30  2  0  0  0  0
 17 31  1  0  0  0  0
 18 32  1  0  0  0  0
 19 32  1  0  0  0  0
 19 33  2  0  0  0  0
 19 34  1  0  0  0  0
 20 22  2  0  0  0  0
 20 41  1  0  0  0  0
 21 23  2  0  0  0  0
 21 42  1  0  0  0  0
 22 50  1  0  0  0  0
 23 43  1  0  0  0  0
 24 26  2  0  0  0  0
 24 53  1  0  0  0  0
 25 71  1  0  0  0  0
 26 70  1  0  0  0  0
 27 82  1  0  0  0  0
 28 83  1  0  0  0  0
 29 31  2  0  0  0  0
 29 82  1  0  0  0  0
 30 84  1  0  0  0  0
 31 85  1  0  0  0  0
 32 64  2  0  0  0  0
 33 65  1  0  0  0  0
 33 68  1  0  0  0  0
 34 69  1  0  0  0  0
 34 75  2  0  0  0  0
 35 36  1  0  0  0  0
 35 59  1  0  0  0  0
 35 76  2  0  0  0  0
 36 60  1  0  0  0  0
 36 77  2  0  0  0  0
 37 51  1  0  0  0  0
 37 72  1  0  0  0  0
 37 78  2  0  0  0  0
 38 61  1  0  0  0  0
 38 66  1  0  0  0  0
 38 79  2  0  0  0  0
 39 62  1  0  0  0  0
 39 73  1  0  0  0  0
 39 80  2  0  0  0  0
 40 67  1  0  0  0  0
 40 70  1  0  0  0  0
 40 81  2  0  0  0  0
 41 44  1  0  0  0  0
 42 51  1  0  0  0  0
 43 66  1  0  0  0  0
 44 46  1  0  0  0  0
 45 47  1  0  0  0  0
 45 48  1  0  0  0  0
 46 50  1  0  0  0  0
 47 52  1  0  0  0  0
 48 67  1  0  0  0  0
 49 52  1  0  0  0  0
 49 67  1  0  0  0  0
 50 72  1  0  0  0  0
 51 66  1  0  0  0  0
 52 65  1  0  0  0  0
 54 62  1  0  0  0  0
 55 63  1  0  0  0  0
 56 63  1  0  0  0  0
 57 63  1  0  0  0  0
 58 74  1  0  0  0  0
 59 71  1  0  0  0  0
 60 83  1  0  0  0  0
 61 63  1  0  0  0  0
 61 73  1  0  0  0  0
 62 74  1  0  0  0  0
 64 65  1  0  0  0  0
M  CHG  1  74   1
M  ISO  4  40 100  60 101  70 100  83 101
M  END
> <Batch ID>
0155

> <Smiles>
CNC(C)C(=O)NC(C(=O)N1Cc2cc([101O:1][101CH2:1]C(=O)C(=O)CNc3ccc(C)c([100NH:0][100C:0](=O)N4CCCC(n5nc(-c6ccc(Oc7ccc(F)cc7F)cc6)c(C(N)=O)c5N)C4)c3)ccc2CC1C(=O)NC1CCCc2ccccc21)C(C)(C)C

> <Shape>
0.292

> <Color>
0.097

> <Negative vol penalty>
0.000

$$$$

  -OEChem-04052303363D

 88 97  0     1  0  0  0  0  0999 V2000
  -28.5290  -37.5310   21.9178 C   0  0  0  0  0  0  0  0  0  0  0  0
  -28.9331  -36.2660   21.5032 C   0  0  0  0  0  0  0  0  0  0  0  0
  -24.7577   -8.6992   20.7385 C   0  0  0  0  0  0  0  0  0  0  0  0
  -22.8836  -10.1765   20.3616 C   0  0  0  0  0  0  0  0  0  0  0  0
  -27.5337  -37.6613   22.8855 C   0  0  0  0  0  0  0  0  0  0  0  0
  -28.3428  -35.1305   22.0568 C   0  0  0  0  0  0  0  0  0  0  0  0
  -27.1883  -29.8270   19.2203 C   0  0  0  0  0  0  0  0  0  0  0  0
  -23.9004   -7.7560   21.3051 C   0  0  0  0  0  0  0  0  0  0  0  0
  -22.0262   -9.2333   20.9281 C   0  0  0  0  0  0  0  0  0  0  0  0
  -27.8719  -28.6123   19.1880 C   0  0  0  0  0  0  0  0  0  0  0  0
  -21.7014   -5.4242   20.2281 C   0  0  0  0  0  0  0  0  0  0  0  0
  -21.8543   -4.0933   19.8397 C   0  0  0  0  0  0  0  0  0  0  0  0
  -26.4499  -27.7723   20.9463 C   0  0  0  0  0  0  0  0  0  0  0  0
  -28.2308  -19.4960   17.7102 C   0  0  0  0  0  0  0  0  0  0  0  0
  -22.3053   -3.4762   22.1316 C   0  0  0  0  0  0  0  0  0  0  0  0
  -26.9861  -18.2429   16.1993 C   0  0  0  0  0  0  0  0  0  0  0  0
  -24.2493   -9.9095   20.2668 C   0  0  0  0  0  0  0  0  0  0  0  0
  -25.4969  -10.9986   18.3265 C   0  0  0  0  0  0  0  0  0  0  0  0
  -26.9241  -36.5269   23.4442 C   0  0  0  0  0  0  0  0  0  0  0  0
  -26.1357  -30.0275   20.1248 C   0  0  0  0  0  0  0  0  0  0  0  0
  -27.3393  -35.2457   23.0338 C   0  0  0  0  0  0  0  0  0  0  0  0
  -25.7529  -28.9895   20.9863 C   0  0  0  0  0  0  0  0  0  0  0  0
  -27.4807  -18.3060   17.4834 C   0  0  0  0  0  0  0  0  0  0  0  0
  -22.5346   -8.0230   21.3998 C   0  0  0  0  0  0  0  0  0  0  0  0
  -27.5046  -27.5857   20.0531 C   0  0  0  0  0  0  0  0  0  0  0  0
  -21.8506   -5.7812   21.5682 C   0  0  0  0  0  0  0  0  0  0  0  0
  -22.1562   -3.1193   20.7914 C   0  0  0  0  0  0  0  0  0  0  0  0
  -22.1525   -4.8072   22.5200 C   0  0  0  0  0  0  0  0  0  0  0  0
  -25.1345  -10.8844   19.6820 C   0  0  0  0  0  0  0  0  0  0  0  0
  -28.2811  -20.2971   16.5905 C   0  0  0  0  0  0  0  0  0  0  0  0
  -26.3509  -12.0737   18.2888 C   0  0  0  0  0  0  0  0  0  0  0  0
  -25.0973  -10.2040   17.2020 C   0  0  0  0  0  0  0  0  0  0  0  0
  -28.9889  -21.5883   16.5265 C   0  0  0  0  0  0  0  0  0  0  0  0
  -28.9139  -24.6039   16.1665 C   0  0  0  0  0  0  0  0  0  0  0  0
  -25.6070  -32.0187   22.5455 C   0  0  0  0  0  0  0  0  0  0  0  0
  -22.6671  -30.6481   22.5209 C   0  0  0  0  0  0  0  0  0  0  0  0
  -20.7305  -27.9599   21.7023 C   0  0  0  0  0  0  0  0  0  0  0  0
  -27.7130  -17.2664   19.7663 C   0  0  0  0  0  0  0  0  0  0  0  0
  -25.8858  -36.7171   24.5214 C   0  0  0  0  0  0  0  0  0  0  0  0
  -25.3910  -31.3343   20.1287 C   0  0  0  0  0  0  0  0  0  0  0  0
  -24.6166  -29.1472   21.9622 C   0  0  0  0  0  0  0  0  0  0  0  0
  -25.0473  -35.4693   24.7864 C   0  0  0  0  0  0  0  0  0  0  0  0
  -28.5594  -14.6591   22.0385 C   0  0  0  0  0  0  0  0  0  0  0  0
  -25.9419  -34.2390   24.8992 C   0  0  0  0  0  0  0  0  0  0  0  0
  -27.7737  -13.4541   21.5164 C   0  0  0  0  0  0  0  0  0  0  0  0
  -27.3655  -23.8477   18.8470 C   0  0  0  0  0  0  0  0  0  0  0  0
  -27.7746  -15.9601   21.8793 C   0  0  0  0  0  0  0  0  0  0  0  0
  -27.5521  -22.4225   18.3337 C   0  0  0  0  0  0  0  0  0  0  0  0
  -26.4889  -15.0166   20.0015 C   0  0  0  0  0  0  0  0  0  0  0  0
  -26.7054  -33.9903   23.5928 C   0  0  1  0  0  0  0  0  0  0  0  0
  -29.3112  -23.8754   17.4083 C   0  0  1  0  0  0  0  0  0  0  0  0
  -24.6701  -31.6074   21.4452 C   0  0  1  0  0  0  0  0  0  0  0  0
  -27.2650  -13.6918   20.0810 C   0  0  2  0  0  0  0  0  0  0  0  0
  -28.7577  -24.4748   18.7107 C   0  0  1  0  0  0  0  0  0  0  0  0
  -29.9209  -25.5641   15.5937 C   0  0  0  0  0  0  0  0  0  0  0  0
  -18.3712  -27.1163   21.8416 C   0  0  0  0  0  0  0  0  0  0  0  0
  -23.0584  -30.0504   25.4873 C   0  0  0  0  0  0  0  0  0  0  0  0
  -21.1642  -28.4202   25.3374 C   0  0  0  0  0  0  0  0  0  0  0  0
  -20.7653  -30.8390   24.8757 C   0  0  0  0  0  0  0  0  0  0  0  0
  -20.4986  -27.7784   18.7575 C   0  0  0  0  0  0  0  0  0  0  0  0
  -28.7262  -25.9967   18.7729 C   0  0  0  0  0  0  0  0  0  1  0  0
  -22.0406  -29.4496   23.1919 C   0  0  1  0  0  0  0  0  0  0  0  0
  -19.3911  -27.8615   20.9947 C   0  0  2  0  0  0  0  0  0  0  0  0
  -21.7798  -29.6872   24.7062 C   0  0  0  0  0  0  0  0  0  0  0  0
  -25.7112  -11.8127   20.4499 N   0  0  0  0  0  0  0  0  0  0  0  0
  -26.4447  -12.5205   19.5740 N   0  0  0  0  0  0  0  0  0  0  0  0
  -28.6351  -22.5645   17.3456 N   0  0  0  0  0  0  0  0  0  0  0  0
  -23.9234  -30.4457   21.9322 N   0  0  0  0  0  0  0  0  0  0  0  0
  -27.3287  -16.1200   20.4935 N   0  0  0  0  0  0  0  0  0  0  0  0
  -27.0232  -12.6710   17.2820 N   0  0  0  0  0  0  0  0  0  0  0  0
  -24.2141   -9.1374   17.4177 N   0  0  0  0  0  0  0  0  0  0  0  0
  -27.2568  -17.2933   18.4488 N   0  0  0  0  0  0  0  0  0  0  0  0
  -25.8377  -33.3796   22.6087 N   0  0  0  0  0  0  0  0  0  0  0  0
  -20.8430  -29.1305   22.4222 N   0  0  0  0  0  0  0  0  0  0  0  0
  -29.9732  -21.7509   15.6474 N   0  3  0  0  0  0  0  0  0  0  0  0
  -19.5416  -27.1416   19.6986 N   0  3  0  0  0  0  0  0  0  0  0  0
  -25.5240  -10.4230   16.0429 O   0  0  0  0  0  0  0  0  0  0  0  0
  -27.8180  -24.4261   15.6369 O   0  0  0  0  0  0  0  0  0  0  0  0
  -26.0841  -31.1646   23.2835 O   0  0  0  0  0  0  0  0  0  0  0  0
  -22.0608  -31.7223   22.5130 O   0  0  0  0  0  0  0  0  0  0  0  0
  -21.5894  -27.0840   21.6273 O   0  0  0  0  0  0  0  0  0  0  0  0
  -28.4192  -18.1457   20.2665 O   0  0  0  0  0  0  0  0  0  0  0  0
  -29.5638  -24.0100   19.7988 O   0  0  0  0  0  0  0  0  0  0  0  0
  -21.6977   -7.1028   21.9524 O   0  0  0  0  0  0  0  0  0  0  0  0
  -28.1706  -26.3993   20.0241 O   0  0  0  0  0  0  0  0  0  1  0  0
  -22.3014   -1.8410   20.4185 F   0  0  0  0  0  0  0  0  0  0  0  0
  -22.2957   -5.1439   23.8092 F   0  0  0  0  0  0  0  0  0  0  0  0
  -27.4261  -19.6145   15.2732 S   0  0  0  0  0  0  0  0  0  0  0  0
  1  2  1  0  0  0  0
  1  5  2  0  0  0  0
  2  6  2  0  0  0  0
  3  8  2  0  0  0  0
  3 17  1  0  0  0  0
  4  9  1  0  0  0  0
  4 17  2  0  0  0  0
  5 19  1  0  0  0  0
  6 21  1  0  0  0  0
  7 10  2  0  0  0  0
  7 20  1  0  0  0  0
  8 24  1  0  0  0  0
  9 24  2  0  0  0  0
 10 25  1  0  0  0  0
 11 12  2  0  0  0  0
 11 26  1  0  0  0  0
 12 27  1  0  0  0  0
 13 22  1  0  0  0  0
 13 25  2  0  0  0  0
 14 23  1  0  0  0  0
 14 30  2  0  0  0  0
 15 27  2  0  0  0  0
 15 28  1  0  0  0  0
 16 23  2  0  0  0  0
 16 88  1  0  0  0  0
 17 29  1  0  0  0  0
 18 29  1  0  0  0  0
 18 31  2  0  0  0  0
 18 32  1  0  0  0  0
 19 21  2  0  0  0  0
 19 39  1  0  0  0  0
 20 22  2  0  0  0  0
 20 40  1  0  0  0  0
 21 50  1  0  0  0  0
 22 41  1  0  0  0  0
 23 72  1  0  0  0  0
 24 84  1  0  0  0  0
 25 85  1  0  0  0  0
 26 28  2  0  0  0  0
 26 84  1  0  0  0  0
 27 86  1  0  0  0  0
 28 87  1  0  0  0  0
 29 65  2  0  0  0  0
 30 33  1  0  0  0  0
 30 88  1  0  0  0  0
 31 66  1  0  0  0  0
 31 70  1  0  0  0  0
 32 71  1  0  0  0  0
 32 77  2  0  0  0  0
 33 67  1  0  0  0  0
 33 75  2  0  0  0  0
 34 51  1  0  0  0  0
 34 55  1  0  0  0  0
 34 78  2  0  0  0  0
 35 52  1  0  0  0  0
 35 73  1  0  0  0  0
 35 79  2  0  0  0  0
 36 62  1  0  0  0  0
 36 68  1  0  0  0  0
 36 80  2  0  0  0  0
 37 63  1  0  0  0  0
 37 74  1  0  0  0  0
 37 81  2  0  0  0  0
 38 69  1  0  0  0  0
 38 72  1  0  0  0  0
 38 82  2  0  0  0  0
 39 42  1  0  0  0  0
 40 52  1  0  0  0  0
 41 68  1  0  0  0  0
 42 44  1  0  0  0  0
 43 45  1  0  0  0  0
 43 47  1  0  0  0  0
 44 50  1  0  0  0  0
 45 53  1  0  0  0  0
 46 48  1  0  0  0  0
 46 54  1  0  0  0  0
 47 69  1  0  0  0  0
 48 67  1  0  0  0  0
 49 53  1  0  0  0  0
 49 69  1  0  0  0  0
 50 73  1  0  0  0  0
 51 54  1  0  0  0  0
 51 67  1  0  0  0  0
 52 68  1  0  0  0  0
 53 66  1  0  0  0  0
 54 61  1  0  0  0  0
 54 83  1  0  0  0  0
 56 63  1  0  0  0  0
 57 64  1  0  0  0  0
 58 64  1  0  0  0  0
 59 64  1  0  0  0  0
 60 76  1  0  0  0  0
 61 85  1  0  0  0  0
 62 64  1  0  0  0  0
 62 74  1  0  0  0  0
 63 76  1  0  0  0  0
 65 66  1  0  0  0  0
M  CHG  2  75   1  76   1
M  ISO  4  38 100  61 101  72 100  85 101
M  END
> <Batch ID>
0155

> <Smiles>
CNC(C)C(=O)NC(C(=O)N1Cc2cc([101O:1][101CH2:1]C3(O)CCN(C(=N)c4cc([100NH:0][100C:0](=O)N5CCCC(n6nc(-c7ccc(Oc8ccc(F)cc8F)cc7)c(C(N)=O)c6N)C5)cs4)C3C(C)=O)ccc2CC1C(=O)NC1CCCc2ccccc21)C(C)(C)C

> <Shape>
0.301

> <Color>
0.101

> <Negative vol penalty>
0.000

$$$$

  -OEChem-04052303363D

 86 95  0     1  0  0  0  0  0999 V2000
  -28.4298  -37.4216   25.2723 C   0  0  0  0  0  0  0  0  0  0  0  0
  -28.7940  -36.1661   25.7482 C   0  0  0  0  0  0  0  0  0  0  0  0
  -22.9882   -9.7671   20.0273 C   0  0  0  0  0  0  0  0  0  0  0  0
  -24.5075   -9.1439   21.7994 C   0  0  0  0  0  0  0  0  0  0  0  0
  -27.1108  -37.6662   24.8925 C   0  0  0  0  0  0  0  0  0  0  0  0
  -27.8390  -35.1547   25.8457 C   0  0  0  0  0  0  0  0  0  0  0  0
  -28.6649  -28.9228   22.3282 C   0  0  0  0  0  0  0  0  0  0  0  0
  -21.9488   -9.1125   20.6881 C   0  0  0  0  0  0  0  0  0  0  0  0
  -23.4681   -8.4893   22.4603 C   0  0  0  0  0  0  0  0  0  0  0  0
  -28.8530  -27.6240   21.8552 C   0  0  0  0  0  0  0  0  0  0  0  0
  -21.8281   -5.5424   22.2203 C   0  0  0  0  0  0  0  0  0  0  0  0
  -22.0878   -4.2747   22.7408 C   0  0  0  0  0  0  0  0  0  0  0  0
  -26.6844  -26.9857   22.7141 C   0  0  0  0  0  0  0  0  0  0  0  0
  -21.5569   -5.0761   24.9574 C   0  0  0  0  0  0  0  0  0  0  0  0
  -25.1257  -18.4180   19.0075 C   0  0  0  0  0  0  0  0  0  0  0  0
  -24.2676   -9.7828   20.5829 C   0  0  0  0  0  0  0  0  0  0  0  0
  -25.8386  -10.1808   18.6129 C   0  0  0  0  0  0  0  0  0  0  0  0
  -26.1412  -36.6544   24.9763 C   0  0  0  0  0  0  0  0  0  0  0  0
  -27.4779  -29.2625   22.9831 C   0  0  0  0  0  0  0  0  0  0  0  0
  -26.5054  -35.3864   25.4680 C   0  0  0  0  0  0  0  0  0  0  0  0
  -26.4851  -28.2884   23.1790 C   0  0  0  0  0  0  0  0  0  0  0  0
  -22.1887   -8.4736   21.9046 C   0  0  0  0  0  0  0  0  0  0  0  0
  -27.8653  -26.6578   22.0479 C   0  0  0  0  0  0  0  0  0  0  0  0
  -21.4329   -6.5771   23.0683 C   0  0  0  0  0  0  0  0  0  0  0  0
  -21.9521   -4.0415   24.1093 C   0  0  0  0  0  0  0  0  0  0  0  0
  -21.2972   -6.3438   24.4368 C   0  0  0  0  0  0  0  0  0  0  0  0
  -25.2145  -19.8192   18.8290 C   0  0  0  0  0  0  0  0  0  0  0  0
  -25.3418  -10.4583   19.9005 C   0  0  0  0  0  0  0  0  0  0  0  0
  -26.8480  -11.0941   18.4301 C   0  0  0  0  0  0  0  0  0  0  0  0
  -26.4158  -20.1992   19.3809 C   0  0  0  0  0  0  0  0  0  0  0  0
  -26.2791  -18.0416   19.6555 C   0  0  0  0  0  0  0  0  0  0  0  0
  -25.4246   -9.1864   17.6666 C   0  0  0  0  0  0  0  0  0  0  0  0
  -25.4605  -31.9304   24.6826 C   0  0  0  0  0  0  0  0  0  0  0  0
  -23.5111  -30.2943   22.9699 C   0  0  0  0  0  0  0  0  0  0  0  0
  -20.9290  -29.2071   21.0236 C   0  0  0  0  0  0  0  0  0  0  0  0
  -27.9380  -16.4924   20.7485 C   0  0  0  0  0  0  0  0  0  0  0  0
  -24.7178  -36.9800   24.5988 C   0  0  0  0  0  0  0  0  0  0  0  0
  -27.2581  -30.6331   23.5634 C   0  0  0  0  0  0  0  0  0  0  0  0
  -25.2389  -28.6901   23.9196 C   0  0  0  0  0  0  0  0  0  0  0  0
  -23.8480  -35.7448   24.3798 C   0  0  0  0  0  0  0  0  0  0  0  0
  -30.0759  -13.6481   20.8779 C   0  0  0  0  0  0  0  0  0  0  0  0
  -24.0501  -34.7421   25.5114 C   0  0  0  0  0  0  0  0  0  0  0  0
  -29.1511  -12.4829   20.5188 C   0  0  0  0  0  0  0  0  0  0  0  0
  -26.8690  -23.9048   19.6560 C   0  0  0  0  0  0  0  0  0  0  0  0
  -29.0135  -22.7360   20.2208 C   0  0  0  0  0  0  0  0  0  0  0  0
  -29.3597  -14.7015   21.7213 C   0  0  0  0  0  0  0  0  0  0  0  0
  -26.3642  -22.6371   18.9623 C   0  0  0  0  0  0  0  0  0  0  0  0
  -28.5050  -21.4743   19.5210 C   0  0  0  0  0  0  0  0  0  0  0  0
  -27.1765  -14.0361   20.7938 C   0  0  0  0  0  0  0  0  0  0  0  0
  -25.5036  -34.2564   25.5651 C   0  0  1  0  0  0  0  0  0  0  0  0
  -25.7922  -31.0954   23.4808 C   0  0  1  0  0  0  0  0  0  0  0  0
  -27.8350  -12.9810   19.8900 C   0  0  2  0  0  0  0  0  0  0  0  0
  -28.3973  -24.0131   19.6372 C   0  0  0  0  0  0  0  0  0  0  0  0
  -18.4231  -29.0868   20.9628 C   0  0  0  0  0  0  0  0  0  0  0  0
  -23.5761  -28.0011   24.9801 C   0  0  0  0  0  0  0  0  0  0  0  0
  -21.3041  -27.3246   24.1747 C   0  0  0  0  0  0  0  0  0  0  0  0
  -21.6356  -29.5580   25.2353 C   0  0  0  0  0  0  0  0  0  0  0  0
  -20.7941  -30.8485   18.5646 C   0  0  0  0  0  0  0  0  0  0  0  0
  -30.2291  -24.2694   18.1875 C   0  0  0  0  0  0  0  0  0  0  0  0
  -28.8607  -25.2470   20.4119 C   0  0  0  0  0  0  0  0  0  1  0  0
  -22.5384  -29.1437   22.9104 C   0  0  1  0  0  0  0  0  0  0  0  0
  -19.6523  -29.8913   20.5693 C   0  0  2  0  0  0  0  0  0  0  0  0
  -22.2853  -28.5089   24.3069 C   0  0  0  0  0  0  0  0  0  0  0  0
  -25.9830  -11.4688   20.4938 N   0  0  0  0  0  0  0  0  0  0  0  0
  -26.8930  -11.8341   19.5749 N   0  0  0  0  0  0  0  0  0  0  0  0
  -27.0369  -21.4492   19.4967 N   0  0  0  0  0  0  0  0  0  0  0  0
  -24.7904  -30.0160   23.4662 N   0  0  0  0  0  0  0  0  0  0  0  0
  -28.1243  -15.1292   21.0612 N   0  0  0  0  0  0  0  0  0  0  0  0
  -27.6928  -11.3282   17.4034 N   0  0  0  0  0  0  0  0  0  0  0  0
  -24.3715   -8.3297   18.0153 N   0  0  0  0  0  0  0  0  0  0  0  0
  -26.7402  -16.7751   20.0928 N   0  0  0  0  0  0  0  0  0  0  0  0
  -25.7466  -33.2737   24.5308 N   0  0  0  0  0  0  0  0  0  0  0  0
  -21.3373  -29.6577   22.2611 N   0  0  0  0  0  0  0  0  0  0  0  0
  -19.6517  -30.0561   19.0882 N   0  3  0  0  0  0  0  0  0  0  0  0
  -25.9830   -9.0505   16.5516 O   0  0  0  0  0  0  0  0  0  0  0  0
  -24.9788  -31.3965   25.6749 O   0  0  0  0  0  0  0  0  0  0  0  0
  -23.1473  -31.4117   22.5925 O   0  0  0  0  0  0  0  0  0  0  0  0
  -21.5042  -28.3553   20.3499 O   0  0  0  0  0  0  0  0  0  0  0  0
  -28.7913  -17.3422   21.0164 O   0  0  0  0  0  0  0  0  0  0  0  0
  -27.0709  -19.1215   19.8867 O   0  0  0  0  0  0  0  0  0  0  0  0
  -21.1747   -7.8349   22.5499 O   0  0  0  0  0  0  0  0  0  0  0  0
  -28.0535  -25.3929   21.5797 O   0  0  0  0  0  0  0  0  0  1  0  0
  -28.8179  -24.1628   18.2792 O   0  0  0  0  0  0  0  0  0  0  0  0
  -22.2000   -2.8236   24.6088 F   0  0  0  0  0  0  0  0  0  0  0  0
  -20.9167   -7.3335   25.2563 F   0  0  0  0  0  0  0  0  0  0  0  0
  -24.3175  -20.6071   18.2437 F   0  0  0  0  0  0  0  0  0  0  0  0
  1  2  1  0  0  0  0
  1  5  2  0  0  0  0
  2  6  2  0  0  0  0
  3  8  2  0  0  0  0
  3 16  1  0  0  0  0
  4  9  1  0  0  0  0
  4 16  2  0  0  0  0
  5 18  1  0  0  0  0
  6 20  1  0  0  0  0
  7 10  2  0  0  0  0
  7 19  1  0  0  0  0
  8 22  1  0  0  0  0
  9 22  2  0  0  0  0
 10 23  1  0  0  0  0
 11 12  2  0  0  0  0
 11 24  1  0  0  0  0
 12 25  1  0  0  0  0
 13 21  1  0  0  0  0
 13 23  2  0  0  0  0
 14 25  2  0  0  0  0
 14 26  1  0  0  0  0
 15 27  1  0  0  0  0
 15 31  2  0  0  0  0
 16 28  1  0  0  0  0
 17 28  1  0  0  0  0
 17 29  2  0  0  0  0
 17 32  1  0  0  0  0
 18 20  2  0  0  0  0
 18 37  1  0  0  0  0
 19 21  2  0  0  0  0
 19 38  1  0  0  0  0
 20 50  1  0  0  0  0
 21 39  1  0  0  0  0
 22 81  1  0  0  0  0
 23 82  1  0  0  0  0
 24 26  2  0  0  0  0
 24 81  1  0  0  0  0
 25 84  1  0  0  0  0
 26 85  1  0  0  0  0
 27 30  2  0  0  0  0
 27 86  1  0  0  0  0
 28 64  2  0  0  0  0
 29 65  1  0  0  0  0
 29 69  1  0  0  0  0
 30 66  1  0  0  0  0
 30 80  1  0  0  0  0
 31 71  1  0  0  0  0
 31 80  1  0  0  0  0
 32 70  1  0  0  0  0
 32 75  2  0  0  0  0
 33 51  1  0  0  0  0
 33 72  1  0  0  0  0
 33 76  2  0  0  0  0
 34 61  1  0  0  0  0
 34 67  1  0  0  0  0
 34 77  2  0  0  0  0
 35 62  1  0  0  0  0
 35 73  1  0  0  0  0
 35 78  2  0  0  0  0
 36 68  1  0  0  0  0
 36 71  1  0  0  0  0
 36 79  2  0  0  0  0
 37 40  1  0  0  0  0
 38 51  1  0  0  0  0
 39 67  1  0  0  0  0
 40 42  1  0  0  0  0
 41 43  1  0  0  0  0
 41 46  1  0  0  0  0
 42 50  1  0  0  0  0
 43 52  1  0  0  0  0
 44 47  1  0  0  0  0
 44 53  1  0  0  0  0
 45 48  1  0  0  0  0
 45 53  1  0  0  0  0
 46 68  1  0  0  0  0
 47 66  1  0  0  0  0
 48 66  1  0  0  0  0
 49 52  1  0  0  0  0
 49 68  1  0  0  0  0
 50 72  1  0  0  0  0
 51 67  1  0  0  0  0
 52 65  1  0  0  0  0
 53 60  1  0  0  0  0
 53 83  1  0  0  0  0
 54 62  1  0  0  0  0
 55 63  1  0  0  0  0
 56 63  1  0  0  0  0
 57 63  1  0  0  0  0
 58 74  1  0  0  0  0
 59 83  1  0  0  0  0
 60 82  1  0  0  0  0
 61 63  1  0  0  0  0
 61 73  1  0  0  0  0
 62 74  1  0  0  0  0
 64 65  1  0  0  0  0
M  CHG  1  74   1
M  ISO  4  36 100  60 101  71 100  82 101
M  END
> <Batch ID>
0155

> <Smiles>
CNC(C)C(=O)NC(C(=O)N1Cc2cc([101O:1][101CH2:1]C3(OC)CCN(c4oc([100NH:0][100C:0](=O)N5CCCC(n6nc(-c7ccc(Oc8ccc(F)cc8F)cc7)c(C(N)=O)c6N)C5)cc4F)CC3)ccc2CC1C(=O)NC1CCCc2ccccc21)C(C)(C)C

> <Shape>
0.319

> <Color>
0.095

> <Negative vol penalty>
0.000

$$$$

  -OEChem-04052303363D

 82 91  0     1  0  0  0  0  0999 V2000
  -25.5344  -35.8449   21.8530 C   0  0  0  0  0  0  0  0  0  0  0  0
  -26.1709  -34.6078   21.8441 C   0  0  0  0  0  0  0  0  0  0  0  0
  -23.9226  -13.0539   22.7309 C   0  0  0  0  0  0  0  0  0  0  0  0
  -23.9924  -11.6466   20.7684 C   0  0  0  0  0  0  0  0  0  0  0  0
  -24.2476  -35.9617   22.3767 C   0  0  0  0  0  0  0  0  0  0  0  0
  -25.5212  -33.4870   22.3600 C   0  0  0  0  0  0  0  0  0  0  0  0
  -25.9943  -29.4226   19.3765 C   0  0  0  0  0  0  0  0  0  0  0  0
  -22.8255  -12.3361   23.2067 C   0  0  0  0  0  0  0  0  0  0  0  0
  -22.8952  -10.9286   21.2442 C   0  0  0  0  0  0  0  0  0  0  0  0
  -27.2057  -28.7341   19.4258 C   0  0  0  0  0  0  0  0  0  0  0  0
  -20.3374   -8.4958   22.1143 C   0  0  0  0  0  0  0  0  0  0  0  0
  -20.3898   -7.1040   22.0386 C   0  0  0  0  0  0  0  0  0  0  0  0
  -26.2055  -27.0905   20.8809 C   0  0  0  0  0  0  0  0  0  0  0  0
  -22.3579   -7.1020   23.4399 C   0  0  0  0  0  0  0  0  0  0  0  0
  -30.2506  -25.3544   23.1840 C   0  0  0  0  0  0  0  0  0  0  0  0
  -24.5061  -12.7093   21.5117 C   0  0  0  0  0  0  0  0  0  0  0  0
  -27.0000  -13.1828   21.2597 C   0  0  0  0  0  0  0  0  0  0  0  0
  -23.5780  -34.8399   22.8904 C   0  0  0  0  0  0  0  0  0  0  0  0
  -24.8806  -28.9553   20.0890 C   0  0  0  0  0  0  0  0  0  0  0  0
  -24.2247  -33.5892   22.8923 C   0  0  0  0  0  0  0  0  0  0  0  0
  -24.9804  -27.7735   20.8370 C   0  0  0  0  0  0  0  0  0  0  0  0
  -22.3118  -11.2734   22.4635 C   0  0  0  0  0  0  0  0  0  0  0  0
  -27.3122  -27.5695   20.1803 C   0  0  0  0  0  0  0  0  0  0  0  0
  -21.2952   -9.1907   22.8527 C   0  0  0  0  0  0  0  0  0  0  0  0
  -21.4001   -6.4071   22.7014 C   0  0  0  0  0  0  0  0  0  0  0  0
  -22.3055   -8.4938   23.5156 C   0  0  0  0  0  0  0  0  0  0  0  0
  -25.6391  -13.4508   21.0193 C   0  0  0  0  0  0  0  0  0  0  0  0
  -29.4967  -25.6321   22.0787 C   0  0  0  0  0  0  0  0  0  0  0  0
  -27.6699  -14.1679   20.5761 C   0  0  0  0  0  0  0  0  0  0  0  0
  -29.8246  -23.4440   22.1498 C   0  0  0  0  0  0  0  0  0  0  0  0
  -27.6046  -12.1369   22.0318 C   0  0  0  0  0  0  0  0  0  0  0  0
  -23.0791  -30.1053   22.4419 C   0  0  0  0  0  0  0  0  0  0  0  0
  -21.3094  -27.4497   21.8604 C   0  0  0  0  0  0  0  0  0  0  0  0
  -21.1761  -24.2688   20.6311 C   0  0  0  0  0  0  0  0  0  0  0  0
  -28.3654  -19.3610   18.9730 C   0  0  0  0  0  0  0  0  0  0  0  0
  -22.2061  -35.0245   23.4892 C   0  0  0  0  0  0  0  0  0  0  0  0
  -23.5736  -29.6949   20.0041 C   0  0  0  0  0  0  0  0  0  0  0  0
  -23.8087  -27.2189   21.6037 C   0  0  0  0  0  0  0  0  0  0  0  0
  -21.4414  -33.7164   23.6745 C   0  0  0  0  0  0  0  0  0  0  0  0
  -26.0292  -17.5394   17.1919 C   0  0  0  0  0  0  0  0  0  0  0  0
  -22.3373  -32.6603   24.3138 C   0  0  0  0  0  0  0  0  0  0  0  0
  -25.8233  -16.2846   18.0402 C   0  0  0  0  0  0  0  0  0  0  0  0
  -28.3547  -21.4053   21.8258 C   0  0  0  0  0  0  0  0  0  0  0  0
  -30.4639  -21.6747   20.4517 C   0  0  0  0  0  0  0  0  0  0  0  0
  -26.1340  -18.7806   18.0704 C   0  0  0  0  0  0  0  0  0  0  0  0
  -28.3213  -19.9228   21.4435 C   0  0  0  0  0  0  0  0  0  0  0  0
  -30.3958  -20.1858   20.1244 C   0  0  0  0  0  0  0  0  0  0  0  0
  -27.0199  -17.4506   19.9583 C   0  0  0  0  0  0  0  0  0  0  0  0
  -23.5431  -32.3455   23.4202 C   0  0  1  0  0  0  0  0  0  0  0  0
  -29.7875  -21.9675   21.8032 C   0  0  0  0  0  0  0  0  0  0  0  0
  -22.6476  -29.4090   21.1823 C   0  0  1  0  0  0  0  0  0  0  0  0
  -26.9140  -16.1612   19.1189 C   0  0  1  0  0  0  0  0  0  0  0  0
  -19.6018  -22.3380   20.3290 C   0  0  0  0  0  0  0  0  0  0  0  0
  -21.5542  -26.7887   24.8291 C   0  0  0  0  0  0  0  0  0  0  0  0
  -20.8191  -24.4549   24.2988 C   0  0  0  0  0  0  0  0  0  0  0  0
  -19.2900  -26.3744   23.8513 C   0  0  0  0  0  0  0  0  0  0  0  0
  -21.4670  -24.3420   17.6868 C   0  0  0  0  0  0  0  0  0  0  0  0
  -21.3120  -26.0298   22.3732 C   0  0  1  0  0  0  0  0  0  0  0  0
  -20.1900  -23.5902   19.6975 C   0  0  2  0  0  0  0  0  0  0  0  0
  -20.7666  -25.9232   23.8253 C   0  0  0  0  0  0  0  0  0  0  0  0
  -25.4537  -14.5223   20.2437 N   0  0  0  0  0  0  0  0  0  0  0  0
  -29.2482  -24.4319   21.4575 N   0  0  0  0  0  0  0  0  0  0  0  0
  -26.7070  -14.9363   19.9909 N   0  0  0  0  0  0  0  0  0  0  0  0
  -30.4379  -23.9933   23.2032 N   0  3  0  0  0  0  0  0  0  0  0  0
  -22.5540  -27.9814   21.4942 N   0  0  0  0  0  0  0  0  0  0  0  0
  -27.1773  -18.6229   19.0835 N   0  0  0  0  0  0  0  0  0  0  0  0
  -29.0170  -19.6997   20.1685 N   0  0  0  0  0  0  0  0  0  0  0  0
  -28.9828  -14.4431   20.4245 N   0  0  0  0  0  0  0  0  0  0  0  0
  -26.7698  -11.2086   22.6687 N   0  0  0  0  0  0  0  0  0  0  0  0
  -28.9932  -26.7998   21.5374 N   0  0  0  0  0  0  0  0  0  1  0  0
  -23.1508  -31.4806   22.3282 N   0  0  0  0  0  0  0  0  0  0  0  0
  -20.5684  -25.2417   21.3963 N   0  0  0  0  0  0  0  0  0  0  0  0
  -20.8633  -23.2032   18.4255 N   0  3  0  0  0  0  0  0  0  0  0  0
  -28.8478  -12.0383   22.1668 O   0  0  0  0  0  0  0  0  0  0  0  0
  -23.3272  -29.4439   23.4432 O   0  0  0  0  0  0  0  0  0  0  0  0
  -20.2415  -28.0620   21.7807 O   0  0  0  0  0  0  0  0  0  0  0  0
  -22.3657  -23.9636   20.6796 O   0  0  0  0  0  0  0  0  0  0  0  0
  -28.8183  -19.6972   17.8717 O   0  0  0  0  0  0  0  0  0  0  0  0
  -21.2413  -10.5725   22.9276 O   0  0  0  0  0  0  0  0  0  0  0  0
  -28.5071  -26.8882   20.2312 O   0  0  0  0  0  0  0  0  0  1  0  0
  -21.4494   -5.0705   22.6299 F   0  0  0  0  0  0  0  0  0  0  0  0
  -23.2278   -9.1558   24.2275 F   0  0  0  0  0  0  0  0  0  0  0  0
  1  2  1  0  0  0  0
  1  5  2  0  0  0  0
  2  6  2  0  0  0  0
  3  8  2  0  0  0  0
  3 16  1  0  0  0  0
  4  9  1  0  0  0  0
  4 16  2  0  0  0  0
  5 18  1  0  0  0  0
  6 20  1  0  0  0  0
  7 10  2  0  0  0  0
  7 19  1  0  0  0  0
  8 22  1  0  0  0  0
  9 22  2  0  0  0  0
 10 23  1  0  0  0  0
 11 12  2  0  0  0  0
 11 24  1  0  0  0  0
 12 25  1  0  0  0  0
 13 21  1  0  0  0  0
 13 23  2  0  0  0  0
 14 25  2  0  0  0  0
 14 26  1  0  0  0  0
 15 28  2  0  0  0  0
 15 64  1  0  0  0  0
 16 27  1  0  0  0  0
 17 27  1  0  0  0  0
 17 29  2  0  0  0  0
 17 31  1  0  0  0  0
 18 20  2  0  0  0  0
 18 36  1  0  0  0  0
 19 21  2  0  0  0  0
 19 37  1  0  0  0  0
 20 49  1  0  0  0  0
 21 38  1  0  0  0  0
 22 79  1  0  0  0  0
 23 80  1  0  0  0  0
 24 26  2  0  0  0  0
 24 79  1  0  0  0  0
 25 81  1  0  0  0  0
 26 82  1  0  0  0  0
 27 61  2  0  0  0  0
 28 62  1  0  0  0  0
 28 70  1  0  0  0  0
 29 63  1  0  0  0  0
 29 68  1  0  0  0  0
 30 50  1  0  0  0  0
 30 62  1  0  0  0  0
 30 64  2  0  0  0  0
 31 69  1  0  0  0  0
 31 74  2  0  0  0  0
 32 51  1  0  0  0  0
 32 71  1  0  0  0  0
 32 75  2  0  0  0  0
 33 58  1  0  0  0  0
 33 65  1  0  0  0  0
 33 76  2  0  0  0  0
 34 59  1  0  0  0  0
 34 72  1  0  0  0  0
 34 77  2  0  0  0  0
 35 66  1  0  0  0  0
 35 67  1  0  0  0  0
 35 78  2  0  0  0  0
 36 39  1  0  0  0  0
 37 51  1  0  0  0  0
 38 65  1  0  0  0  0
 39 41  1  0  0  0  0
 40 42  1  0  0  0  0
 40 45  1  0  0  0  0
 41 49  1  0  0  0  0
 42 52  1  0  0  0  0
 43 46  1  0  0  0  0
 43 50  1  0  0  0  0
 44 47  1  0  0  0  0
 44 50  1  0  0  0  0
 45 66  1  0  0  0  0
 46 67  1  0  0  0  0
 47 67  1  0  0  0  0
 48 52  1  0  0  0  0
 48 66  1  0  0  0  0
 49 71  1  0  0  0  0
 51 65  1  0  0  0  0
 52 63  1  0  0  0  0
 53 59  1  0  0  0  0
 54 60  1  0  0  0  0
 55 60  1  0  0  0  0
 56 60  1  0  0  0  0
 57 73  1  0  0  0  0
 58 60  1  0  0  0  0
 58 72  1  0  0  0  0
 59 73  1  0  0  0  0
 61 63  1  0  0  0  0
 70 80  1  0  0  0  0
M  CHG  2  64   1  73   1
M  ISO  4  35 100  67 100  70 101  80 101
M  END
> <Batch ID>
0155

> <Smiles>
CNC(C)C(=O)NC(C(=O)N1Cc2cc([101O:1][101NH:1]c3c[nH]c(C4CC[100N:0]([100C:0](=O)N5CCCC(n6nc(-c7ccc(Oc8ccc(F)cc8F)cc7)c(C(N)=O)c6N)C5)CC4)n3)ccc2CC1C(=O)NC1CCCc2ccccc21)C(C)(C)C

> <Shape>
0.259

> <Color>
0.043

> <Negative vol penalty>
0.000

$$$$

  -OEChem-04052303363D

 86 94  0     1  0  0  0  0  0999 V2000
  -27.5462  -37.3319   22.6880 C   0  0  0  0  0  0  0  0  0  0  0  0
  -28.0676  -36.1518   22.1674 C   0  0  0  0  0  0  0  0  0  0  0  0
  -22.6567  -10.3623   20.5081 C   0  0  0  0  0  0  0  0  0  0  0  0
  -24.3400   -9.5345   22.0307 C   0  0  0  0  0  0  0  0  0  0  0  0
  -26.5375  -37.2827   23.6492 C   0  0  0  0  0  0  0  0  0  0  0  0
  -27.5812  -34.9217   22.6087 C   0  0  0  0  0  0  0  0  0  0  0  0
  -26.9371  -29.8136   19.2922 C   0  0  0  0  0  0  0  0  0  0  0  0
  -22.0806   -9.0931   20.4549 C   0  0  0  0  0  0  0  0  0  0  0  0
  -23.7639   -8.2652   21.9776 C   0  0  0  0  0  0  0  0  0  0  0  0
  -27.7299  -28.6743   19.1609 C   0  0  0  0  0  0  0  0  0  0  0  0
  -21.1104   -6.6770   23.3403 C   0  0  0  0  0  0  0  0  0  0  0  0
  -20.9388   -5.9939   24.5442 C   0  0  0  0  0  0  0  0  0  0  0  0
  -26.3811  -27.5523   20.8165 C   0  0  0  0  0  0  0  0  0  0  0  0
  -30.4479  -19.5770   21.2846 C   0  0  0  0  0  0  0  0  0  0  0  0
  -22.3509   -4.2092   23.7329 C   0  0  0  0  0  0  0  0  0  0  0  0
  -23.7864  -10.5830   21.2960 C   0  0  0  0  0  0  0  0  0  0  0  0
  -24.0757  -12.9298   22.2533 C   0  0  0  0  0  0  0  0  0  0  0  0
  -26.0318  -36.0515   24.0954 C   0  0  0  0  0  0  0  0  0  0  0  0
  -25.8652  -29.8346   20.1961 C   0  0  0  0  0  0  0  0  0  0  0  0
  -26.5657  -34.8559   23.5777 C   0  0  0  0  0  0  0  0  0  0  0  0
  -25.5747  -28.6922   20.9556 C   0  0  0  0  0  0  0  0  0  0  0  0
  -29.9911  -18.5682   22.1659 C   0  0  0  0  0  0  0  0  0  0  0  0
  -22.6342   -8.0446   21.1896 C   0  0  0  0  0  0  0  0  0  0  0  0
  -27.4537  -27.5444   19.9252 C   0  0  0  0  0  0  0  0  0  0  0  0
  -21.9022   -6.1262   22.3326 C   0  0  0  0  0  0  0  0  0  0  0  0
  -21.5591   -4.7600   24.7406 C   0  0  0  0  0  0  0  0  0  0  0  0
  -22.5224   -4.8924   22.5289 C   0  0  0  0  0  0  0  0  0  0  0  0
  -24.3823  -11.8937   21.3509 C   0  0  0  0  0  0  0  0  0  0  0  0
  -28.9036  -19.0973   22.8213 C   0  0  0  0  0  0  0  0  0  0  0  0
  -24.9105  -13.9587   21.8913 C   0  0  0  0  0  0  0  0  0  0  0  0
  -29.6069  -20.6506   21.4640 C   0  0  0  0  0  0  0  0  0  0  0  0
  -23.1218  -12.9594   23.3233 C   0  0  0  0  0  0  0  0  0  0  0  0
  -25.1411  -31.5418   22.7778 C   0  0  0  0  0  0  0  0  0  0  0  0
  -28.8488  -24.1615   20.3774 C   0  0  0  0  0  0  0  0  0  0  0  0
  -22.3402  -29.9165   22.5888 C   0  0  0  0  0  0  0  0  0  0  0  0
  -20.6644  -27.1481   21.5053 C   0  0  0  0  0  0  0  0  0  0  0  0
  -29.9415  -15.8413   20.3781 C   0  0  0  0  0  0  0  0  0  0  0  0
  -24.9741  -36.0478   25.1705 C   0  0  0  0  0  0  0  0  0  0  0  0
  -25.0032  -31.0622   20.3065 C   0  0  0  0  0  0  0  0  0  0  0  0
  -24.4229  -28.6566   21.9255 C   0  0  0  0  0  0  0  0  0  0  0  0
  -24.2526  -34.7099   25.3106 C   0  0  0  0  0  0  0  0  0  0  0  0
  -27.8456  -14.5370   17.8124 C   0  0  0  0  0  0  0  0  0  0  0  0
  -25.2562  -33.5612   25.3255 C   0  0  0  0  0  0  0  0  0  0  0  0
  -26.7366  -13.8137   18.5785 C   0  0  0  0  0  0  0  0  0  0  0  0
  -29.1972  -14.3960   18.5090 C   0  0  0  0  0  0  0  0  0  0  0  0
  -28.0997  -14.0791   20.6928 C   0  0  0  0  0  0  0  0  0  0  0  0
  -26.0469  -33.5025   24.0129 C   0  0  1  0  0  0  0  0  0  0  0  0
  -24.2525  -31.1480   21.6319 C   0  0  1  0  0  0  0  0  0  0  0  0
  -26.7075  -14.2400   20.0586 C   0  0  2  0  0  0  0  0  0  0  0  0
  -18.3920  -26.0836   21.5350 C   0  0  0  0  0  0  0  0  0  0  0  0
  -22.7675  -29.0910   25.4950 C   0  0  0  0  0  0  0  0  0  0  0  0
  -21.0325  -27.3151   25.1728 C   0  0  0  0  0  0  0  0  0  0  0  0
  -20.4151  -29.7192   24.9241 C   0  0  0  0  0  0  0  0  0  0  0  0
  -20.4675  -27.2135   18.5531 C   0  0  0  0  0  0  0  0  0  0  0  0
  -30.5687  -17.2233   22.3417 C   0  0  0  0  0  0  0  0  0  0  0  0
  -28.5950  -22.9159   21.1998 C   0  0  0  0  0  0  0  0  0  0  0  0
  -27.8866  -25.3095   20.6135 C   0  0  0  0  0  0  0  0  0  1  0  0
  -21.8229  -28.6101   23.1408 C   0  0  1  0  0  0  0  0  0  0  0  0
  -19.3439  -26.9923   20.7728 C   0  0  2  0  0  0  0  0  0  0  0  0
  -27.9893  -18.5736   23.8464 C   0  0  0  0  0  0  0  0  0  0  0  0
  -21.5324  -28.6848   24.6664 C   0  0  0  0  0  0  0  0  0  0  0  0
  -25.3371  -12.2334   20.4808 N   0  0  0  0  0  0  0  0  0  0  0  0
  -25.6376  -13.4946   20.8349 N   0  0  0  0  0  0  0  0  0  0  0  0
  -23.6132  -29.8838   22.0022 N   0  0  0  0  0  0  0  0  0  0  0  0
  -29.1016  -14.8180   19.9085 N   0  0  0  0  0  0  0  0  0  0  0  0
  -25.0859  -15.2061   22.3766 N   0  0  0  0  0  0  0  0  0  0  0  0
  -22.3458  -11.8162   23.5585 N   0  0  0  0  0  0  0  0  0  0  0  0
  -29.5703  -21.9066   20.8755 N   0  0  0  0  0  0  0  0  0  0  0  0
  -25.2449  -32.9068   22.9659 N   0  0  0  0  0  0  0  0  0  0  0  0
  -20.6643  -28.2541   22.3287 N   0  0  0  0  0  0  0  0  0  0  0  0
  -29.7817  -16.1847   21.7150 N   0  0  0  0  0  0  0  0  0  0  0  0
  -19.5678  -26.4094   19.4197 N   0  3  0  0  0  0  0  0  0  0  0  0
  -22.9508  -13.9754   24.0389 O   0  0  0  0  0  0  0  0  0  0  0  0
  -25.6905  -30.6716   23.4430 O   0  0  0  0  0  0  0  0  0  0  0  0
  -29.7713  -24.2478   19.5680 O   0  0  0  0  0  0  0  0  0  0  0  0
  -21.6376  -30.9273   22.6687 O   0  0  0  0  0  0  0  0  0  0  0  0
  -21.6008  -26.3646   21.3642 O   0  0  0  0  0  0  0  0  0  0  0  0
  -30.7685  -16.4107   19.6578 O   0  0  0  0  0  0  0  0  0  0  0  0
  -28.6627  -20.3662   22.3990 O   0  0  0  0  0  0  0  0  0  0  0  0
  -22.0721   -6.8060   21.1381 O   0  0  0  0  0  0  0  0  0  0  0  0
  -28.2264  -26.4313   19.7995 O   0  0  0  0  0  0  0  0  0  1  0  0
  -21.3955   -4.1049   25.8974 F   0  0  0  0  0  0  0  0  0  0  0  0
  -23.2852   -4.3587   21.5649 F   0  0  0  0  0  0  0  0  0  0  0  0
  -28.2613  -17.2872   24.2476 F   0  0  0  0  0  0  0  0  0  0  0  0
  -27.9747  -19.2948   25.0165 F   0  0  0  0  0  0  0  0  0  0  0  0
  -26.6771  -18.5407   23.4430 F   0  0  0  0  0  0  0  0  0  0  0  0
  1  2  1  0  0  0  0
  1  5  2  0  0  0  0
  2  6  2  0  0  0  0
  3  8  2  0  0  0  0
  3 16  1  0  0  0  0
  4  9  1  0  0  0  0
  4 16  2  0  0  0  0
  5 18  1  0  0  0  0
  6 20  1  0  0  0  0
  7 10  2  0  0  0  0
  7 19  1  0  0  0  0
  8 23  1  0  0  0  0
  9 23  2  0  0  0  0
 10 24  1  0  0  0  0
 11 12  2  0  0  0  0
 11 25  1  0  0  0  0
 12 26  1  0  0  0  0
 13 21  1  0  0  0  0
 13 24  2  0  0  0  0
 14 22  1  0  0  0  0
 14 31  2  0  0  0  0
 15 26  2  0  0  0  0
 15 27  1  0  0  0  0
 16 28  1  0  0  0  0
 17 28  1  0  0  0  0
 17 30  2  0  0  0  0
 17 32  1  0  0  0  0
 18 20  2  0  0  0  0
 18 38  1  0  0  0  0
 19 21  2  0  0  0  0
 19 39  1  0  0  0  0
 20 47  1  0  0  0  0
 21 40  1  0  0  0  0
 22 29  2  0  0  0  0
 22 55  1  0  0  0  0
 23 80  1  0  0  0  0
 24 81  1  0  0  0  0
 25 27  2  0  0  0  0
 25 80  1  0  0  0  0
 26 82  1  0  0  0  0
 27 83  1  0  0  0  0
 28 62  2  0  0  0  0
 29 60  1  0  0  0  0
 29 79  1  0  0  0  0
 30 63  1  0  0  0  0
 30 66  1  0  0  0  0
 31 68  1  0  0  0  0
 31 79  1  0  0  0  0
 32 67  1  0  0  0  0
 32 73  2  0  0  0  0
 33 48  1  0  0  0  0
 33 69  1  0  0  0  0
 33 74  2  0  0  0  0
 34 56  1  0  0  0  0
 34 57  1  0  0  0  0
 34 75  2  0  0  0  0
 35 58  1  0  0  0  0
 35 64  1  0  0  0  0
 35 76  2  0  0  0  0
 36 59  1  0  0  0  0
 36 70  1  0  0  0  0
 36 77  2  0  0  0  0
 37 65  1  0  0  0  0
 37 71  1  0  0  0  0
 37 78  2  0  0  0  0
 38 41  1  0  0  0  0
 39 48  1  0  0  0  0
 40 64  1  0  0  0  0
 41 43  1  0  0  0  0
 42 44  1  0  0  0  0
 42 45  1  0  0  0  0
 43 47  1  0  0  0  0
 44 49  1  0  0  0  0
 45 65  1  0  0  0  0
 46 49  1  0  0  0  0
 46 65  1  0  0  0  0
 47 69  1  0  0  0  0
 48 64  1  0  0  0  0
 49 63  1  0  0  0  0
 50 59  1  0  0  0  0
 51 61  1  0  0  0  0
 52 61  1  0  0  0  0
 53 61  1  0  0  0  0
 54 72  1  0  0  0  0
 55 71  1  0  0  0  0
 56 68  1  0  0  0  0
 57 81  1  0  0  0  0
 58 61  1  0  0  0  0
 58 70  1  0  0  0  0
 59 72  1  0  0  0  0
 60 84  1  0  0  0  0
 60 85  1  0  0  0  0
 60 86  1  0  0  0  0
 62 63  1  0  0  0  0
M  CHG  1  72   1
M  ISO  4  37 100  57 101  71 100  81 101
M  END
> <Batch ID>
0155

> <Smiles>
CNC(C)C(=O)NC(C(=O)N1Cc2cc([101O:1][101CH2:1]C(=O)CNc3cc(C[100NH:0][100C:0](=O)N4CCCC(n5nc(-c6ccc(Oc7ccc(F)cc7F)cc6)c(C(N)=O)c5N)C4)c(C(F)(F)F)o3)ccc2CC1C(=O)NC1CCCc2ccccc21)C(C)(C)C

> <Shape>
0.380

> <Color>
0.133

> <Negative vol penalty>
0.000

$$$$

  -OEChem-04052303363D

 85 93  0     1  0  0  0  0  0999 V2000
  -23.8025  -20.6994   24.5405 C   0  0  0  0  0  0  0  0  0  0  0  0
  -25.1131  -20.7830   24.9995 C   0  0  0  0  0  0  0  0  0  0  0  0
  -23.0805   -9.8320   19.9941 C   0  0  0  0  0  0  0  0  0  0  0  0
  -23.6571  -10.0304   22.3319 C   0  0  0  0  0  0  0  0  0  0  0  0
  -23.5103  -20.9997   23.2107 C   0  0  0  0  0  0  0  0  0  0  0  0
  -26.1326  -21.1658   24.1285 C   0  0  0  0  0  0  0  0  0  0  0  0
  -31.1007  -24.4726   25.5032 C   0  0  0  0  0  0  0  0  0  0  0  0
  -22.3159   -8.7006   20.2787 C   0  0  0  0  0  0  0  0  0  0  0  0
  -22.8925   -8.8990   22.6165 C   0  0  0  0  0  0  0  0  0  0  0  0
  -32.4176  -24.1134   25.7868 C   0  0  0  0  0  0  0  0  0  0  0  0
  -21.3847   -5.8537   23.9058 C   0  0  0  0  0  0  0  0  0  0  0  0
  -21.9369   -4.8947   24.7549 C   0  0  0  0  0  0  0  0  0  0  0  0
  -33.6460  -19.1766   20.9076 C   0  0  0  0  0  0  0  0  0  0  0  0
  -34.1686  -20.4260   21.3504 C   0  0  0  0  0  0  0  0  0  0  0  0
  -33.0151  -24.5086   23.4833 C   0  0  0  0  0  0  0  0  0  0  0  0
  -23.7694   -4.5834   23.2115 C   0  0  0  0  0  0  0  0  0  0  0  0
  -23.7512  -10.4969   21.0207 C   0  0  0  0  0  0  0  0  0  0  0  0
  -24.1087  -13.0048   20.7206 C   0  0  0  0  0  0  0  0  0  0  0  0
  -24.5253  -21.3958   22.3255 C   0  0  0  0  0  0  0  0  0  0  0  0
  -30.7281  -24.8427   24.2029 C   0  0  0  0  0  0  0  0  0  0  0  0
  -25.8539  -21.4704   22.7853 C   0  0  0  0  0  0  0  0  0  0  0  0
  -31.6934  -24.8746   23.1864 C   0  0  0  0  0  0  0  0  0  0  0  0
  -22.2219   -8.2342   21.5898 C   0  0  0  0  0  0  0  0  0  0  0  0
  -33.3744  -24.1285   24.7762 C   0  0  0  0  0  0  0  0  0  0  0  0
  -22.0248   -6.1775   22.7095 C   0  0  0  0  0  0  0  0  0  0  0  0
  -23.1293   -4.2596   24.4078 C   0  0  0  0  0  0  0  0  0  0  0  0
  -23.2172   -5.5424   22.3624 C   0  0  0  0  0  0  0  0  0  0  0  0
  -24.5416  -11.6653   20.7273 C   0  0  0  0  0  0  0  0  0  0  0  0
  -33.2551  -18.3773   21.9592 C   0  0  0  0  0  0  0  0  0  0  0  0
  -25.2283  -13.7258   20.3842 C   0  0  0  0  0  0  0  0  0  0  0  0
  -34.1570  -20.5341   22.7238 C   0  0  0  0  0  0  0  0  0  0  0  0
  -22.8107  -13.5487   20.9942 C   0  0  0  0  0  0  0  0  0  0  0  0
  -32.6883  -17.0682   21.9259 C   0  0  0  0  0  0  0  0  0  0  0  0
  -28.7106  -23.6902   22.0338 C   0  0  0  0  0  0  0  0  0  0  0  0
  -29.5316  -26.3767   20.4117 C   0  0  0  0  0  0  0  0  0  0  0  0
  -31.8167  -28.8548   19.8787 C   0  0  0  0  0  0  0  0  0  0  0  0
  -30.4605  -14.9031   20.8298 C   0  0  0  0  0  0  0  0  0  0  0  0
  -24.1681  -21.6646   20.8850 C   0  0  0  0  0  0  0  0  0  0  0  0
  -29.3092  -25.2532   23.9191 C   0  0  0  0  0  0  0  0  0  0  0  0
  -31.3491  -25.2838   21.7784 C   0  0  0  0  0  0  0  0  0  0  0  0
  -25.2492  -22.4247   20.1210 C   0  0  0  0  0  0  0  0  0  0  0  0
  -29.7254  -12.2265   18.6463 C   0  0  0  0  0  0  0  0  0  0  0  0
  -26.6214  -21.8153   20.3899 C   0  0  0  0  0  0  0  0  0  0  0  0
  -28.2664  -11.9402   18.9991 C   0  0  0  0  0  0  0  0  0  0  0  0
  -30.5632  -12.5498   19.8848 C   0  0  0  0  0  0  0  0  0  0  0  0
  -28.5450  -13.3522   21.0704 C   0  0  0  0  0  0  0  0  0  0  0  0
  -26.9835  -21.9060   21.8773 C   0  0  1  0  0  0  0  0  0  0  0  0
  -28.9310  -25.1178   22.4474 C   0  0  1  0  0  0  0  0  0  0  0  0
  -27.6686  -13.0834   19.8374 C   0  0  2  0  0  0  0  0  0  0  0  0
  -32.2257  -30.8860   18.4629 C   0  0  0  0  0  0  0  0  0  0  0  0
  -30.2337  -24.5829   18.0454 C   0  0  0  0  0  0  0  0  0  0  0  0
  -31.4955  -26.5041   17.0530 C   0  0  0  0  0  0  0  0  0  0  0  0
  -29.0379  -26.6932   17.4361 C   0  0  0  0  0  0  0  0  0  0  0  0
  -36.9446  -23.3831   24.5319 C   0  0  0  0  0  0  0  0  0  0  0  0
  -35.6795  -25.2535   23.4493 C   0  0  0  0  0  0  0  0  0  0  0  0
  -32.7944  -13.9961   21.1977 C   0  0  0  0  0  0  0  0  0  0  0  0
  -31.9100  -30.6288   22.2458 C   0  0  0  0  0  0  0  0  0  0  0  0
  -32.4358  -16.3565   20.5764 C   0  0  0  0  0  0  0  0  0  0  0  0
  -35.1405  -22.8215   22.8847 C   0  0  0  0  0  0  0  0  0  0  0  0
  -30.6082  -26.7380   19.4171 C   0  0  1  0  0  0  0  0  0  0  0  0
  -31.6629  -30.3614   19.7748 C   0  0  2  0  0  0  0  0  0  0  0  0
  -30.3502  -26.1199   18.0139 C   0  0  0  0  0  0  0  0  0  0  0  0
  -35.5888  -23.8157   23.9672 C   0  0  0  0  0  0  0  0  0  1  0  0
  -25.8353  -11.5399   20.4194 N   0  0  0  0  0  0  0  0  0  0  0  0
  -26.2248  -12.8099   20.2160 N   0  0  0  0  0  0  0  0  0  0  0  0
  -29.9471  -25.6705   21.5495 N   0  0  0  0  0  0  0  0  0  0  0  0
  -29.9331  -13.6120   20.6807 N   0  0  0  0  0  0  0  0  0  0  0  0
  -25.4477  -15.0475   20.2186 N   0  0  0  0  0  0  0  0  0  0  0  0
  -21.7727  -12.6667   21.3242 N   0  0  0  0  0  0  0  0  0  0  0  0
  -34.5941  -21.6167   23.4681 N   0  0  0  0  0  0  0  0  0  0  0  0
  -27.4141  -23.2466   22.2118 N   0  0  0  0  0  0  0  0  0  0  0  0
  -30.6960  -28.1943   19.4216 N   0  0  0  0  0  0  0  0  0  0  0  0
  -31.8563  -15.0363   20.7803 N   0  0  0  0  0  0  0  0  0  0  0  0
  -32.3789  -31.0338   20.8956 N   0  3  0  0  0  0  0  0  0  0  0  0
  -22.5742  -14.7790   20.9312 O   0  0  0  0  0  0  0  0  0  0  0  0
  -32.4113  -16.4412   22.9838 O   0  0  0  0  0  0  0  0  0  0  0  0
  -29.6472  -23.0398   21.5849 O   0  0  0  0  0  0  0  0  0  0  0  0
  -28.3661  -26.7150   20.1909 O   0  0  0  0  0  0  0  0  0  0  0  0
  -32.8311  -28.3175   20.3178 O   0  0  0  0  0  0  0  0  0  0  0  0
  -29.7258  -15.8836   21.0057 O   0  0  0  0  0  0  0  0  0  0  0  0
  -21.4757   -7.1303   21.8679 O   0  0  0  0  0  0  0  0  0  0  0  0
  -34.6604  -23.7777   25.0502 O   0  0  0  0  0  0  0  0  0  1  0  0
  -23.6603   -3.3398   25.2240 F   0  0  0  0  0  0  0  0  0  0  0  0
  -23.8373   -5.8502   21.2150 F   0  0  0  0  0  0  0  0  0  0  0  0
  -33.5183  -19.1331   23.4731 S   0  0  0  0  0  0  0  0  0  0  0  0
  1  2  1  0  0  0  0
  1  5  2  0  0  0  0
  2  6  2  0  0  0  0
  3  8  2  0  0  0  0
  3 17  1  0  0  0  0
  4  9  1  0  0  0  0
  4 17  2  0  0  0  0
  5 19  1  0  0  0  0
  6 21  1  0  0  0  0
  7 10  2  0  0  0  0
  7 20  1  0  0  0  0
  8 23  1  0  0  0  0
  9 23  2  0  0  0  0
 10 24  1  0  0  0  0
 11 12  2  0  0  0  0
 11 25  1  0  0  0  0
 12 26  1  0  0  0  0
 13 14  1  0  0  0  0
 13 29  2  0  0  0  0
 14 31  2  0  0  0  0
 15 22  1  0  0  0  0
 15 24  2  0  0  0  0
 16 26  2  0  0  0  0
 16 27  1  0  0  0  0
 17 28  1  0  0  0  0
 18 28  1  0  0  0  0
 18 30  2  0  0  0  0
 18 32  1  0  0  0  0
 19 21  2  0  0  0  0
 19 38  1  0  0  0  0
 20 22  2  0  0  0  0
 20 39  1  0  0  0  0
 21 47  1  0  0  0  0
 22 40  1  0  0  0  0
 23 81  1  0  0  0  0
 24 82  1  0  0  0  0
 25 27  2  0  0  0  0
 25 81  1  0  0  0  0
 26 83  1  0  0  0  0
 27 84  1  0  0  0  0
 28 64  2  0  0  0  0
 29 33  1  0  0  0  0
 29 85  1  0  0  0  0
 30 65  1  0  0  0  0
 30 68  1  0  0  0  0
 31 70  1  0  0  0  0
 31 85  1  0  0  0  0
 32 69  1  0  0  0  0
 32 75  2  0  0  0  0
 33 58  1  0  0  0  0
 33 76  2  0  0  0  0
 34 48  1  0  0  0  0
 34 71  1  0  0  0  0
 34 77  2  0  0  0  0
 35 60  1  0  0  0  0
 35 66  1  0  0  0  0
 35 78  2  0  0  0  0
 36 61  1  0  0  0  0
 36 72  1  0  0  0  0
 36 79  2  0  0  0  0
 37 67  1  0  0  0  0
 37 73  1  0  0  0  0
 37 80  2  0  0  0  0
 38 41  1  0  0  0  0
 39 48  1  0  0  0  0
 40 66  1  0  0  0  0
 41 43  1  0  0  0  0
 42 44  1  0  0  0  0
 42 45  1  0  0  0  0
 43 47  1  0  0  0  0
 44 49  1  0  0  0  0
 45 67  1  0  0  0  0
 46 49  1  0  0  0  0
 46 67  1  0  0  0  0
 47 71  1  0  0  0  0
 48 66  1  0  0  0  0
 49 65  1  0  0  0  0
 50 61  1  0  0  0  0
 51 62  1  0  0  0  0
 52 62  1  0  0  0  0
 53 62  1  0  0  0  0
 54 63  1  0  0  0  0
 55 63  1  0  0  0  0
 56 73  1  0  0  0  0
 57 74  1  0  0  0  0
 58 73  1  0  0  0  0
 59 63  1  0  0  0  0
 59 70  1  0  0  0  0
 60 62  1  0  0  0  0
 60 72  1  0  0  0  0
 61 74  1  0  0  0  0
 63 82  1  0  0  0  0
 64 65  1  0  0  0  0
M  CHG  1  74   1
M  ISO  4  37 100  63 101  73 100  82 101
M  END
> <Batch ID>
0155

> <Smiles>
CNC(C)C(=O)NC(C(=O)N1Cc2cc([101O:1][101C:1](C)(C)CNc3ccc(C(=O)C[100N:0](C)[100C:0](=O)N4CCCC(n5nc(-c6ccc(Oc7ccc(F)cc7F)cc6)c(C(N)=O)c5N)C4)s3)ccc2CC1C(=O)NC1CCCc2ccccc21)C(C)(C)C

> <Shape>
0.220

> <Color>
0.198

> <Negative vol penalty>
0.000

$$$$

  -OEChem-04052303363D

 88 97  0     1  0  0  0  0  0999 V2000
  -20.6654  -36.6335   24.0735 C   0  0  0  0  0  0  0  0  0  0  0  0
  -20.6173  -35.9397   22.8686 C   0  0  0  0  0  0  0  0  0  0  0  0
  -24.5078   -8.9621   21.1996 C   0  0  0  0  0  0  0  0  0  0  0  0
  -22.6587  -10.4869   20.8954 C   0  0  0  0  0  0  0  0  0  0  0  0
  -21.8831  -36.8021   24.7314 C   0  0  0  0  0  0  0  0  0  0  0  0
  -21.7872  -35.4149   22.3204 C   0  0  0  0  0  0  0  0  0  0  0  0
  -22.4258  -28.3618   21.0024 C   0  0  0  0  0  0  0  0  0  0  0  0
  -23.6105   -7.9080   21.3706 C   0  0  0  0  0  0  0  0  0  0  0  0
  -21.7613   -9.4328   21.0663 C   0  0  0  0  0  0  0  0  0  0  0  0
  -22.5468  -27.0563   20.5259 C   0  0  0  0  0  0  0  0  0  0  0  0
  -21.6267   -6.6997   23.8260 C   0  0  0  0  0  0  0  0  0  0  0  0
  -21.8629   -5.8124   24.8760 C   0  0  0  0  0  0  0  0  0  0  0  0
  -24.8160  -27.5112   19.8246 C   0  0  0  0  0  0  0  0  0  0  0  0
  -27.5217  -20.2520   19.4285 C   0  0  0  0  0  0  0  0  0  0  0  0
  -22.0361   -3.9911   23.2981 C   0  0  0  0  0  0  0  0  0  0  0  0
  -28.0172  -20.0951   17.1631 C   0  0  0  0  0  0  0  0  0  0  0  0
  -24.0319  -10.2516   20.9620 C   0  0  0  0  0  0  0  0  0  0  0  0
  -25.9522  -11.4601   19.7960 C   0  0  0  0  0  0  0  0  0  0  0  0
  -23.0669  -36.2707   24.1958 C   0  0  0  0  0  0  0  0  0  0  0  0
  -23.5060  -29.2434   20.9056 C   0  0  0  0  0  0  0  0  0  0  0  0
  -23.0220  -35.5777   22.9711 C   0  0  0  0  0  0  0  0  0  0  0  0
  -24.7049  -28.8163   20.3115 C   0  0  0  0  0  0  0  0  0  0  0  0
  -28.0366  -20.9094   18.2740 C   0  0  0  0  0  0  0  0  0  0  0  0
  -22.2373   -8.1433   21.3039 C   0  0  0  0  0  0  0  0  0  0  0  0
  -23.7388  -26.6321   19.9382 C   0  0  0  0  0  0  0  0  0  0  0  0
  -21.5952   -6.2326   22.5120 C   0  0  0  0  0  0  0  0  0  0  0  0
  -22.0675   -4.4581   24.6121 C   0  0  0  0  0  0  0  0  0  0  0  0
  -21.7999   -4.8783   22.2481 C   0  0  0  0  0  0  0  0  0  0  0  0
  -24.9583  -11.3410   20.7859 C   0  0  0  0  0  0  0  0  0  0  0  0
  -26.5559  -12.6655   20.0589 C   0  0  0  0  0  0  0  0  0  0  0  0
  -27.1281  -18.9603   19.1559 C   0  0  0  0  0  0  0  0  0  0  0  0
  -26.2986  -10.5616   18.7337 C   0  0  0  0  0  0  0  0  0  0  0  0
  -24.8507  -32.6779   21.5928 C   0  0  0  0  0  0  0  0  0  0  0  0
  -27.1117  -30.6969   22.2042 C   0  0  0  0  0  0  0  0  0  0  0  0
  -29.1934  -28.1713   23.1662 C   0  0  0  0  0  0  0  0  0  0  0  0
  -26.2760  -18.0735   21.3545 C   0  0  0  0  0  0  0  0  0  0  0  0
  -24.3666  -36.5193   24.9195 C   0  0  0  0  0  0  0  0  0  0  0  0
  -23.4001  -30.6771   21.3498 C   0  0  0  0  0  0  0  0  0  0  0  0
  -25.8288  -29.8096   20.1974 C   0  0  0  0  0  0  0  0  0  0  0  0
  -25.5030  -35.6092   24.4605 C   0  0  0  0  0  0  0  0  0  0  0  0
  -30.7724  -24.3633   17.8835 C   0  0  0  0  0  0  0  0  0  0  0  0
  -30.3567  -23.9095   19.2761 C   0  0  0  0  0  0  0  0  0  0  0  0
  -29.6143  -24.2683   16.8990 C   0  0  0  0  0  0  0  0  0  0  0  0
  -26.1503  -15.7514   24.0507 C   0  0  0  0  0  0  0  0  0  0  0  0
  -25.5605  -35.5538   22.9372 C   0  0  0  0  0  0  0  0  0  0  0  0
  -25.9107  -14.4068   23.3602 C   0  0  0  0  0  0  0  0  0  0  0  0
  -29.7406  -22.5085   19.2623 C   0  0  0  0  0  0  0  0  0  0  0  0
  -29.0169  -22.8591   16.8744 C   0  0  0  0  0  0  0  0  0  0  0  0
  -25.4018  -16.8873   23.3554 C   0  0  0  0  0  0  0  0  0  0  0  0
  -25.4078  -15.6560   21.2216 C   0  0  0  0  0  0  0  0  0  0  0  0
  -24.2656  -34.9723   22.3570 C   0  0  1  0  0  0  0  0  0  0  0  0
  -24.7122  -31.2246   21.9396 C   0  0  1  0  0  0  0  0  0  0  0  0
  -26.1932  -14.4919   21.8474 C   0  0  2  0  0  0  0  0  0  0  0  0
  -28.5557  -22.3665   18.2698 C   0  0  0  0  0  0  0  0  0  0  0  0
  -31.4709  -27.7570   24.1352 C   0  0  0  0  0  0  0  0  0  0  0  0
  -28.3738  -31.3363   19.5019 C   0  0  0  0  0  0  0  0  0  0  0  0
  -30.3904  -30.0356   20.2157 C   0  0  0  0  0  0  0  0  0  0  0  0
  -29.7127  -32.0763   21.4803 C   0  0  0  0  0  0  0  0  0  0  0  0
  -28.0632  -26.8191   25.5438 C   0  0  0  0  0  0  0  0  0  0  0  0
  -26.3059  -23.0605   17.7900 C   0  0  0  0  0  0  0  0  0  0  0  0
  -25.0974  -24.9855   18.8892 C   0  0  0  0  0  0  0  0  0  1  0  0
  -28.3299  -29.9704   21.6925 C   0  0  1  0  0  0  0  0  0  0  0  0
  -29.9937  -27.9544   24.4378 C   0  0  2  0  0  0  0  0  0  0  0  0
  -29.1760  -30.8425   20.7224 C   0  0  0  0  0  0  0  0  0  0  0  0
  -25.0224  -23.5318   18.4599 C   0  0  0  0  0  0  0  0  0  0  0  0
  -24.9292  -12.3871   21.6158 N   0  0  0  0  0  0  0  0  0  0  0  0
  -25.9123  -13.1750   21.1481 N   0  0  0  0  0  0  0  0  0  0  0  0
  -25.9422  -30.5851   21.4425 N   0  0  0  0  0  0  0  0  0  0  0  0
  -25.7216  -16.9088   21.9264 N   0  0  0  0  0  0  0  0  0  0  0  0
  -27.5693  -13.3285   19.4625 N   0  0  0  0  0  0  0  0  0  0  0  0
  -25.6542  -10.7083   17.4978 N   0  0  0  0  0  0  0  0  0  0  0  0
  -26.5688  -17.9652   19.9954 N   0  0  0  0  0  0  0  0  0  0  0  0
  -24.2506  -33.5321   22.4981 N   0  0  0  0  0  0  0  0  0  0  0  0
  -29.0565  -29.5113   22.8713 N   0  0  0  0  0  0  0  0  0  0  0  0
  -27.4372  -23.1971   18.7023 N   0  0  0  0  0  0  0  0  0  0  0  0
  -29.4976  -26.7507   25.1630 N   0  3  0  0  0  0  0  0  0  0  0  0
  -27.1423   -9.6451   18.8813 O   0  0  0  0  0  0  0  0  0  0  0  0
  -25.4587  -33.0019   20.5793 O   0  0  0  0  0  0  0  0  0  0  0  0
  -27.1936  -31.3510   23.2476 O   0  0  0  0  0  0  0  0  0  0  0  0
  -28.7387  -27.2447   22.4991 O   0  0  0  0  0  0  0  0  0  0  0  0
  -26.5014  -19.0827   22.0272 O   0  0  0  0  0  0  0  0  0  0  0  0
  -21.3614   -7.1149   21.4705 O   0  0  0  0  0  0  0  0  0  0  0  0
  -23.8517  -25.3549   19.4792 O   0  0  0  0  0  0  0  0  0  1  0  0
  -22.2958   -3.6065   25.6205 F   0  0  0  0  0  0  0  0  0  0  0  0
  -21.7719   -4.4240   20.9877 F   0  0  0  0  0  0  0  0  0  0  0  0
  -23.9789  -23.3744   17.6056 F   0  0  0  0  0  0  0  0  0  0  0  0
  -24.7664  -22.7602   19.5474 F   0  0  0  0  0  0  0  0  0  0  0  0
  -27.3799  -18.5449   17.5139 S   0  0  0  0  0  0  0  0  0  0  0  0
  1  2  1  0  0  0  0
  1  5  2  0  0  0  0
  2  6  2  0  0  0  0
  3  8  2  0  0  0  0
  3 17  1  0  0  0  0
  4  9  1  0  0  0  0
  4 17  2  0  0  0  0
  5 19  1  0  0  0  0
  6 21  1  0  0  0  0
  7 10  2  0  0  0  0
  7 20  1  0  0  0  0
  8 24  1  0  0  0  0
  9 24  2  0  0  0  0
 10 25  1  0  0  0  0
 11 12  2  0  0  0  0
 11 26  1  0  0  0  0
 12 27  1  0  0  0  0
 13 22  1  0  0  0  0
 13 25  2  0  0  0  0
 14 23  1  0  0  0  0
 14 31  2  0  0  0  0
 15 27  2  0  0  0  0
 15 28  1  0  0  0  0
 16 23  2  0  0  0  0
 16 88  1  0  0  0  0
 17 29  1  0  0  0  0
 18 29  1  0  0  0  0
 18 30  2  0  0  0  0
 18 32  1  0  0  0  0
 19 21  2  0  0  0  0
 19 37  1  0  0  0  0
 20 22  2  0  0  0  0
 20 38  1  0  0  0  0
 21 51  1  0  0  0  0
 22 39  1  0  0  0  0
 23 54  1  0  0  0  0
 24 82  1  0  0  0  0
 25 83  1  0  0  0  0
 26 28  2  0  0  0  0
 26 82  1  0  0  0  0
 27 84  1  0  0  0  0
 28 85  1  0  0  0  0
 29 66  2  0  0  0  0
 30 67  1  0  0  0  0
 30 70  1  0  0  0  0
 31 72  1  0  0  0  0
 31 88  1  0  0  0  0
 32 71  1  0  0  0  0
 32 77  2  0  0  0  0
 33 52  1  0  0  0  0
 33 73  1  0  0  0  0
 33 78  2  0  0  0  0
 34 62  1  0  0  0  0
 34 68  1  0  0  0  0
 34 79  2  0  0  0  0
 35 63  1  0  0  0  0
 35 74  1  0  0  0  0
 35 80  2  0  0  0  0
 36 69  1  0  0  0  0
 36 72  1  0  0  0  0
 36 81  2  0  0  0  0
 37 40  1  0  0  0  0
 38 52  1  0  0  0  0
 39 68  1  0  0  0  0
 40 45  1  0  0  0  0
 41 42  1  0  0  0  0
 41 43  1  0  0  0  0
 42 47  1  0  0  0  0
 43 48  1  0  0  0  0
 44 46  1  0  0  0  0
 44 49  1  0  0  0  0
 45 51  1  0  0  0  0
 46 53  1  0  0  0  0
 47 54  1  0  0  0  0
 48 54  1  0  0  0  0
 49 69  1  0  0  0  0
 50 53  1  0  0  0  0
 50 69  1  0  0  0  0
 51 73  1  0  0  0  0
 52 68  1  0  0  0  0
 53 67  1  0  0  0  0
 54 75  1  0  0  0  0
 55 63  1  0  0  0  0
 56 64  1  0  0  0  0
 57 64  1  0  0  0  0
 58 64  1  0  0  0  0
 59 76  1  0  0  0  0
 60 65  1  0  0  0  0
 60 75  1  0  0  0  0
 61 65  1  0  0  0  0
 61 83  1  0  0  0  0
 62 64  1  0  0  0  0
 62 74  1  0  0  0  0
 63 76  1  0  0  0  0
 65 86  1  0  0  0  0
 65 87  1  0  0  0  0
 66 67  1  0  0  0  0
M  CHG  1  76   1
M  ISO  4  36 100  61 101  72 100  83 101
M  END
> <Batch ID>
0155

> <Smiles>
CNC(C)C(=O)NC(C(=O)N1Cc2cc([101O:1][101CH2:1]C(F)(F)CNC3(c4csc([100NH:0][100C:0](=O)N5CCCC(n6nc(-c7ccc(Oc8ccc(F)cc8F)cc7)c(C(N)=O)c6N)C5)c4)CCCCC3)ccc2CC1C(=O)NC1CCCc2ccccc21)C(C)(C)C

> <Shape>
0.268

> <Color>
0.088

> <Negative vol penalty>
0.000

$$$$

  -OEChem-04052303363D

 85 94  0     1  0  0  0  0  0999 V2000
  -17.5376  -32.2914   23.7625 C   0  0  0  0  0  0  0  0  0  0  0  0
  -18.8128  -32.6670   23.3525 C   0  0  0  0  0  0  0  0  0  0  0  0
  -24.3716  -13.9341   20.4824 C   0  0  0  0  0  0  0  0  0  0  0  0
  -26.7024  -13.6419   21.0475 C   0  0  0  0  0  0  0  0  0  0  0  0
  -17.3072  -30.9945   24.2194 C   0  0  0  0  0  0  0  0  0  0  0  0
  -19.8588  -31.7461   23.4003 C   0  0  0  0  0  0  0  0  0  0  0  0
  -25.8802  -29.9533   19.9586 C   0  0  0  0  0  0  0  0  0  0  0  0
  -24.2510  -12.5609   20.2700 C   0  0  0  0  0  0  0  0  0  0  0  0
  -26.5817  -12.2686   20.8352 C   0  0  0  0  0  0  0  0  0  0  0  0
  -27.2317  -29.7159   20.2051 C   0  0  0  0  0  0  0  0  0  0  0  0
  -23.2385   -9.0861   19.9291 C   0  0  0  0  0  0  0  0  0  0  0  0
  -22.1220   -8.4429   20.4633 C   0  0  0  0  0  0  0  0  0  0  0  0
  -26.6992  -27.4802   20.9380 C   0  0  0  0  0  0  0  0  0  0  0  0
  -22.7903   -9.1260   22.6823 C   0  0  0  0  0  0  0  0  0  0  0  0
  -29.9654  -23.0758   22.9105 C   0  0  0  0  0  0  0  0  0  0  0  0
  -25.5974  -14.4747   20.8711 C   0  0  0  0  0  0  0  0  0  0  0  0
  -25.5176  -16.5886   22.2968 C   0  0  0  0  0  0  0  0  0  0  0  0
  -18.3488  -30.0544   24.2637 C   0  0  0  0  0  0  0  0  0  0  0  0
  -24.9252  -28.9579   20.2107 C   0  0  0  0  0  0  0  0  0  0  0  0
  -19.6425  -30.4357   23.8595 C   0  0  0  0  0  0  0  0  0  0  0  0
  -25.3364  -27.7066   20.6915 C   0  0  0  0  0  0  0  0  0  0  0  0
  -25.3560  -11.7281   20.4464 C   0  0  0  0  0  0  0  0  0  0  0  0
  -27.6411  -28.4802   20.6976 C   0  0  0  0  0  0  0  0  0  0  0  0
  -24.1309   -9.7492   20.7715 C   0  0  0  0  0  0  0  0  0  0  0  0
  -21.8979   -8.4629   21.8399 C   0  0  0  0  0  0  0  0  0  0  0  0
  -23.9068   -9.7692   22.1481 C   0  0  0  0  0  0  0  0  0  0  0  0
  -30.5244  -24.3677   23.0576 C   0  0  0  0  0  0  0  0  0  0  0  0
  -25.7229  -15.8933   21.0901 C   0  0  0  0  0  0  0  0  0  0  0  0
  -25.7599  -17.9032   21.9811 C   0  0  0  0  0  0  0  0  0  0  0  0
  -30.5232  -24.9297   21.8022 C   0  0  0  0  0  0  0  0  0  0  0  0
  -29.6621  -22.9406   21.5756 C   0  0  0  0  0  0  0  0  0  0  0  0
  -25.1418  -16.0907   23.5878 C   0  0  0  0  0  0  0  0  0  0  0  0
  -22.4128  -28.6971   22.1404 C   0  0  0  0  0  0  0  0  0  0  0  0
  -21.9616  -25.9135   20.5372 C   0  0  0  0  0  0  0  0  0  0  0  0
  -23.3118  -23.3861   18.6834 C   0  0  0  0  0  0  0  0  0  0  0  0
  -28.8157  -21.8285   19.4797 C   0  0  0  0  0  0  0  0  0  0  0  0
  -18.0618  -28.6781   24.8098 C   0  0  0  0  0  0  0  0  0  0  0  0
  -23.4741  -29.2207   19.9144 C   0  0  0  0  0  0  0  0  0  0  0  0
  -24.3530  -26.5977   20.9595 C   0  0  0  0  0  0  0  0  0  0  0  0
  -19.1424  -27.6529   24.4762 C   0  0  0  0  0  0  0  0  0  0  0  0
  -26.3869  -20.1504   17.4891 C   0  0  0  0  0  0  0  0  0  0  0  0
  -20.5279  -28.2293   24.7501 C   0  0  0  0  0  0  0  0  0  0  0  0
  -25.9807  -18.9505   18.3478 C   0  0  0  0  0  0  0  0  0  0  0  0
  -32.0784  -28.2187   21.2143 C   0  0  0  0  0  0  0  0  0  0  0  0
  -27.8750  -20.4676   17.6254 C   0  0  0  0  0  0  0  0  0  0  0  0
  -31.5255  -27.1925   22.1993 C   0  0  0  0  0  0  0  0  0  0  0  0
  -27.9432  -19.4395   19.8632 C   0  0  0  0  0  0  0  0  0  0  0  0
  -30.8620  -26.5873   19.9491 C   0  0  0  0  0  0  0  0  0  0  0  0
  -20.7974  -29.4580   23.8732 C   0  0  1  0  0  0  0  0  0  0  0  0
  -22.5306  -28.3096   20.6935 C   0  0  1  0  0  0  0  0  0  0  0  0
  -26.4399  -19.1220   19.8090 C   0  0  2  0  0  0  0  0  0  0  0  0
  -31.1672  -28.0918   19.9935 C   0  0  1  0  0  0  0  0  0  0  0  0
  -22.7018  -21.2324   17.5490 C   0  0  0  0  0  0  0  0  0  0  0  0
  -21.8856  -24.5110   23.2460 C   0  0  0  0  0  0  0  0  0  0  0  0
  -22.2322  -22.3377   22.0523 C   0  0  0  0  0  0  0  0  0  0  0  0
  -20.1883  -23.6947   21.6006 C   0  0  0  0  0  0  0  0  0  0  0  0
  -24.0955  -24.4288   16.0269 C   0  0  0  0  0  0  0  0  0  0  0  0
  -32.3113  -29.8413   18.9328 C   0  0  0  0  0  0  0  0  0  0  0  0
  -29.9029  -28.9402   20.1243 C   0  0  0  0  0  0  0  0  0  1  0  0
  -22.4219  -24.4875   20.7205 C   0  0  1  0  0  0  0  0  0  0  0  0
  -22.8618  -22.7361   17.3875 C   0  0  2  0  0  0  0  0  0  0  0  0
  -21.7006  -23.7790   21.9017 C   0  0  0  0  0  0  0  0  0  0  0  0
  -26.0686  -16.6995   20.0829 N   0  0  0  0  0  0  0  0  0  0  0  0
  -26.0825  -17.9150   20.6560 N   0  0  0  0  0  0  0  0  0  0  0  0
  -30.9442  -26.1609   21.3451 N   0  0  3  0  0  0  0  0  0  0  0  0
  -22.9448  -26.9055   20.6599 N   0  0  0  0  0  0  0  0  0  0  0  0
  -28.2364  -20.6207   19.0364 N   0  0  0  0  0  0  0  0  0  0  0  0
  -25.7261  -19.0387   22.7105 N   0  0  0  0  0  0  0  0  0  0  0  0
  -24.9320  -14.7130   23.7374 N   0  0  0  0  0  0  0  0  0  0  0  0
  -29.0865  -21.8703   20.8469 N   0  0  0  0  0  0  0  0  0  0  0  0
  -21.1342  -29.0529   22.5253 N   0  0  0  0  0  0  0  0  0  0  0  0
  -22.2414  -23.8312   19.4301 N   0  0  0  0  0  0  0  0  0  0  0  0
  -23.8573  -22.9896   16.3079 N   0  3  0  0  0  0  0  0  0  0  0  0
  -24.9803  -16.8471   24.5753 O   0  0  0  0  0  0  0  0  0  0  0  0
  -23.4079  -28.6735   22.8552 O   0  0  0  0  0  0  0  0  0  0  0  0
  -20.7748  -26.1384   20.2872 O   0  0  0  0  0  0  0  0  0  0  0  0
  -24.4943  -23.4855   19.0032 O   0  0  0  0  0  0  0  0  0  0  0  0
  -29.0289  -22.7674   18.7083 O   0  0  0  0  0  0  0  0  0  0  0  0
  -29.9991  -24.0663   20.8932 O   0  0  0  0  0  0  0  0  0  0  0  0
  -25.2385  -10.3880   20.2395 O   0  0  0  0  0  0  0  0  0  0  0  0
  -28.9596  -28.2461   20.9396 O   0  0  0  0  0  0  0  0  0  1  0  0
  -31.8770  -28.4945   18.8308 O   0  0  0  0  0  0  0  0  0  0  0  0
  -20.8249   -7.8465   22.3526 F   0  0  0  0  0  0  0  0  0  0  0  0
  -24.7600  -10.4056   22.9623 F   0  0  0  0  0  0  0  0  0  0  0  0
  -30.9602  -24.9246   24.1836 F   0  0  0  0  0  0  0  0  0  0  0  0
  1  2  1  0  0  0  0
  1  5  2  0  0  0  0
  2  6  2  0  0  0  0
  3  8  2  0  0  0  0
  3 16  1  0  0  0  0
  4  9  1  0  0  0  0
  4 16  2  0  0  0  0
  5 18  1  0  0  0  0
  6 20  1  0  0  0  0
  7 10  2  0  0  0  0
  7 19  1  0  0  0  0
  8 22  1  0  0  0  0
  9 22  2  0  0  0  0
 10 23  1  0  0  0  0
 11 12  2  0  0  0  0
 11 24  1  0  0  0  0
 12 25  1  0  0  0  0
 13 21  1  0  0  0  0
 13 23  2  0  0  0  0
 14 25  2  0  0  0  0
 14 26  1  0  0  0  0
 15 27  1  0  0  0  0
 15 31  2  0  0  0  0
 16 28  1  0  0  0  0
 17 28  1  0  0  0  0
 17 29  2  0  0  0  0
 17 32  1  0  0  0  0
 18 20  2  0  0  0  0
 18 37  1  0  0  0  0
 19 21  2  0  0  0  0
 19 38  1  0  0  0  0
 20 49  1  0  0  0  0
 21 39  1  0  0  0  0
 22 80  1  0  0  0  0
 23 81  1  0  0  0  0
 24 26  2  0  0  0  0
 24 80  1  0  0  0  0
 25 83  1  0  0  0  0
 26 84  1  0  0  0  0
 27 30  2  0  0  0  0
 27 85  1  0  0  0  0
 28 63  2  0  0  0  0
 29 64  1  0  0  0  0
 29 68  1  0  0  0  0
 30 65  1  0  0  0  0
 30 79  1  0  0  0  0
 31 70  1  0  0  0  0
 31 79  1  0  0  0  0
 32 69  1  0  0  0  0
 32 74  2  0  0  0  0
 33 50  1  0  0  0  0
 33 71  1  0  0  0  0
 33 75  2  0  0  0  0
 34 60  1  0  0  0  0
 34 66  1  0  0  0  0
 34 76  2  0  0  0  0
 35 61  1  0  0  0  0
 35 72  1  0  0  0  0
 35 77  2  0  0  0  0
 36 67  1  0  0  0  0
 36 70  1  0  0  0  0
 36 78  2  0  0  0  0
 37 40  1  0  0  0  0
 38 50  1  0  0  0  0
 39 66  1  0  0  0  0
 40 42  1  0  0  0  0
 41 43  1  0  0  0  0
 41 45  1  0  0  0  0
 42 49  1  0  0  0  0
 43 51  1  0  0  0  0
 44 46  1  0  0  0  0
 44 52  1  0  0  0  0
 45 67  1  0  0  0  0
 46 65  1  0  0  0  0
 47 51  1  0  0  0  0
 47 67  1  0  0  0  0
 48 52  1  0  0  0  0
 48 65  1  0  0  0  0
 49 71  1  0  0  0  0
 50 66  1  0  0  0  0
 51 64  1  0  0  0  0
 52 59  1  0  0  0  0
 52 82  1  0  0  0  0
 53 61  1  0  0  0  0
 54 62  1  0  0  0  0
 55 62  1  0  0  0  0
 56 62  1  0  0  0  0
 57 73  1  0  0  0  0
 58 82  1  0  0  0  0
 59 81  1  0  0  0  0
 60 62  1  0  0  0  0
 60 72  1  0  0  0  0
 61 73  1  0  0  0  0
 63 64  1  0  0  0  0
M  CHG  1  73   1
M  ISO  4  36 100  59 101  70 100  81 101
M  END
> <Batch ID>
0155

> <Smiles>
CNC(C)C(=O)NC(C(=O)N1Cc2cc([101O:1][101CH2:1]C3(OC)CCN(c4oc([100NH:0][100C:0](=O)N5CCCC(n6nc(-c7ccc(Oc8ccc(F)cc8F)cc7)c(C(N)=O)c6N)C5)cc4F)C3)ccc2CC1C(=O)NC1CCCc2ccccc21)C(C)(C)C

> <Shape>
0.237

> <Color>
0.101

> <Negative vol penalty>
0.000

$$$$

  -OEChem-04052303363D

 88 97  0     1  0  0  0  0  0999 V2000
  -26.7667  -32.2336   23.9065 C   0  0  0  0  0  0  0  0  0  0  0  0
  -26.3037  -31.7689   22.6808 C   0  0  0  0  0  0  0  0  0  0  0  0
  -29.6487  -20.0084   21.0304 C   0  0  0  0  0  0  0  0  0  0  0  0
  -22.9598  -10.0664   21.6003 C   0  0  0  0  0  0  0  0  0  0  0  0
  -24.6056  -10.1980   23.3641 C   0  0  0  0  0  0  0  0  0  0  0  0
  -30.8858  -20.3843   20.5071 C   0  0  0  0  0  0  0  0  0  0  0  0
  -27.7447  -31.5184   24.5944 C   0  0  0  0  0  0  0  0  0  0  0  0
  -26.8097  -30.5827   22.1481 C   0  0  0  0  0  0  0  0  0  0  0  0
  -27.7165  -24.6685   16.9114 C   0  0  0  0  0  0  0  0  0  0  0  0
  -29.2836  -18.6624   21.0596 C   0  0  0  0  0  0  0  0  0  0  0  0
  -22.3326   -9.0121   22.2641 C   0  0  0  0  0  0  0  0  0  0  0  0
  -23.9785   -9.1436   24.0279 C   0  0  0  0  0  0  0  0  0  0  0  0
  -28.5849  -23.6490   16.5239 C   0  0  0  0  0  0  0  0  0  0  0  0
  -22.8121   -5.6917   22.6760 C   0  0  0  0  0  0  0  0  0  0  0  0
  -22.4315   -4.5844   21.9180 C   0  0  0  0  0  0  0  0  0  0  0  0
  -31.3928  -18.0682   20.0421 C   0  0  0  0  0  0  0  0  0  0  0  0
  -28.5410  -22.7666   18.7686 C   0  0  0  0  0  0  0  0  0  0  0  0
  -20.1285   -4.9387   22.5566 C   0  0  0  0  0  0  0  0  0  0  0  0
  -24.0963  -10.6594   22.1502 C   0  0  0  0  0  0  0  0  0  0  0  0
  -31.7578  -19.4142   20.0129 C   0  0  0  0  0  0  0  0  0  0  0  0
  -24.1842  -12.9944   21.1268 C   0  0  0  0  0  0  0  0  0  0  0  0
  -28.2715  -30.3295   24.0634 C   0  0  0  0  0  0  0  0  0  0  0  0
  -27.2617  -24.7512   18.2353 C   0  0  0  0  0  0  0  0  0  0  0  0
  -27.7799  -29.8339   22.8386 C   0  0  0  0  0  0  0  0  0  0  0  0
  -27.6648  -23.7867   19.1698 C   0  0  0  0  0  0  0  0  0  0  0  0
  -30.1557  -17.6924   20.5654 C   0  0  0  0  0  0  0  0  0  0  0  0
  -22.8420   -8.5507   23.4779 C   0  0  0  0  0  0  0  0  0  0  0  0
  -28.9996  -22.6995   17.4532 C   0  0  0  0  0  0  0  0  0  0  0  0
  -21.8508   -6.4225   23.3745 C   0  0  0  0  0  0  0  0  0  0  0  0
  -21.0898   -4.2079   21.8582 C   0  0  0  0  0  0  0  0  0  0  0  0
  -20.5091   -6.0460   23.3147 C   0  0  0  0  0  0  0  0  0  0  0  0
  -24.7449  -11.7482   21.4647 C   0  0  0  0  0  0  0  0  0  0  0  0
  -25.1998  -13.6673   20.4926 C   0  0  0  0  0  0  0  0  0  0  0  0
  -33.0654  -19.8104   19.4603 C   0  0  0  0  0  0  0  0  0  0  0  0
  -22.8634  -13.4988   21.3650 C   0  0  0  0  0  0  0  0  0  0  0  0
  -27.5269  -26.8936   20.5685 C   0  0  0  0  0  0  0  0  0  0  0  0
  -25.4762  -24.9018   22.1015 C   0  0  0  0  0  0  0  0  0  0  0  0
  -25.0631  -21.3389   22.4918 C   0  0  0  0  0  0  0  0  0  0  0  0
  -30.5308  -15.2368   20.1461 C   0  0  0  0  0  0  0  0  0  0  0  0
  -29.3228  -29.5912   24.8538 C   0  0  0  0  0  0  0  0  0  0  0  0
  -26.3041  -25.8416   18.6309 C   0  0  0  0  0  0  0  0  0  0  0  0
  -27.1893  -23.8192   20.5985 C   0  0  0  0  0  0  0  0  0  0  0  0
  -30.1109  -28.5950   24.0096 C   0  0  0  0  0  0  0  0  0  0  0  0
  -29.6931  -12.0380   18.8259 C   0  0  0  0  0  0  0  0  0  0  0  0
  -29.1559  -27.7197   23.2119 C   0  0  0  0  0  0  0  0  0  0  0  0
  -28.2849  -11.7799   19.3670 C   0  0  0  0  0  0  0  0  0  0  0  0
  -33.7702  -22.9501   18.0026 C   0  0  0  0  0  0  0  0  0  0  0  0
  -32.4403  -21.6384   16.2574 C   0  0  0  0  0  0  0  0  0  0  0  0
  -30.5660  -12.7706   19.8432 C   0  0  0  0  0  0  0  0  0  0  0  0
  -34.2762  -21.5400   18.2728 C   0  0  0  0  0  0  0  0  0  0  0  0
  -28.5795  -13.7510   20.9210 C   0  0  0  0  0  0  0  0  0  0  0  0
  -28.3377  -28.5623   22.2252 C   0  0  1  0  0  0  0  0  0  0  0  0
  -26.3108  -26.1281   20.1294 C   0  0  1  0  0  0  0  0  0  0  0  0
  -27.6432  -13.0728   19.9076 C   0  0  2  0  0  0  0  0  0  0  0  0
  -32.8965  -23.0155   16.7467 C   0  0  2  0  0  0  0  0  0  0  0  0
  -32.0127  -20.6908   17.3974 C   0  0  2  0  0  0  0  0  0  0  0  0
  -31.7933  -19.2900   16.8076 C   0  0  0  0  0  0  0  0  0  0  0  0
  -23.0075  -19.9757   22.9535 C   0  0  0  0  0  0  0  0  0  0  0  0
  -26.3199  -25.1507   25.0232 C   0  0  0  0  0  0  0  0  0  0  0  0
  -25.5725  -22.7862   25.3679 C   0  0  0  0  0  0  0  0  0  0  0  0
  -23.9228  -24.5259   24.6791 C   0  0  0  0  0  0  0  0  0  0  0  0
  -25.5049  -19.6502   20.1017 C   0  0  0  0  0  0  0  0  0  0  0  0
  -30.7312  -21.1927   18.0750 C   0  0  0  0  0  0  0  0  0  1  0  0
  -25.6261  -23.7002   23.0030 C   0  0  1  0  0  0  0  0  0  0  0  0
  -23.9676  -20.4794   21.8872 C   0  0  2  0  0  0  0  0  0  0  0  0
  -25.3798  -24.0470   24.4985 C   0  0  0  0  0  0  0  0  0  0  0  0
  -26.0179  -11.6334   21.0771 N   0  0  0  0  0  0  0  0  0  0  0  0
  -26.2655  -12.8162   20.4890 N   0  0  0  0  0  0  0  0  0  0  0  0
  -33.1114  -20.6342   18.4165 N   0  0  0  0  0  0  0  0  0  0  0  0
  -26.2589  -24.9085   20.9382 N   0  0  0  0  0  0  0  0  0  0  0  0
  -29.8958  -13.9872   20.3076 N   0  0  0  0  0  0  0  0  0  0  0  0
  -25.2763  -14.8980   19.9432 N   0  0  0  0  0  0  0  0  0  0  0  0
  -21.9439  -12.6762   22.0301 N   0  0  0  0  0  0  0  0  0  0  0  0
  -29.7840  -16.3253   20.5955 N   0  0  0  0  0  0  0  0  0  0  0  0
  -27.3046  -27.7353   21.6416 N   0  0  0  0  0  0  0  0  0  0  0  0
  -24.7319  -22.6772   22.4718 N   0  0  0  0  0  0  0  0  0  0  0  0
  -34.1787  -19.3396   20.0146 N   0  3  0  0  0  0  0  0  0  0  0  0
  -24.5581  -19.3009   21.1919 N   0  3  0  0  0  0  0  0  0  0  0  0
  -22.5040  -14.6388   20.9844 O   0  0  0  0  0  0  0  0  0  0  0  0
  -28.5886  -26.7314   19.9784 O   0  0  0  0  0  0  0  0  0  0  0  0
  -24.6883  -25.7979   22.4142 O   0  0  0  0  0  0  0  0  0  0  0  0
  -26.1066  -20.8696   22.9406 O   0  0  0  0  0  0  0  0  0  0  0  0
  -31.6428  -15.3367   19.6212 O   0  0  0  0  0  0  0  0  0  0  0  0
  -33.6151  -23.6595   15.6951 O   0  0  0  0  0  0  0  0  0  0  0  0
  -22.2301   -7.5220   24.1260 O   0  0  0  0  0  0  0  0  0  0  0  0
  -29.8477  -21.7037   17.0778 O   0  0  0  0  0  0  0  0  0  1  0  0
  -20.7243   -3.1455   21.1289 F   0  0  0  0  0  0  0  0  0  0  0  0
  -19.5810   -6.7448   23.9826 F   0  0  0  0  0  0  0  0  0  0  0  0
  1  2  1  0  0  0  0
  1  7  2  0  0  0  0
  2  8  2  0  0  0  0
  3  6  2  0  0  0  0
  3 10  1  0  0  0  0
  4 11  2  0  0  0  0
  4 19  1  0  0  0  0
  5 12  1  0  0  0  0
  5 19  2  0  0  0  0
  6 20  1  0  0  0  0
  7 22  1  0  0  0  0
  8 24  1  0  0  0  0
  9 13  2  0  0  0  0
  9 23  1  0  0  0  0
 10 26  2  0  0  0  0
 11 27  1  0  0  0  0
 12 27  2  0  0  0  0
 13 28  1  0  0  0  0
 14 15  2  0  0  0  0
 14 29  1  0  0  0  0
 15 30  1  0  0  0  0
 16 20  2  0  0  0  0
 16 26  1  0  0  0  0
 17 25  1  0  0  0  0
 17 28  2  0  0  0  0
 18 30  2  0  0  0  0
 18 31  1  0  0  0  0
 19 32  1  0  0  0  0
 20 34  1  0  0  0  0
 21 32  1  0  0  0  0
 21 33  2  0  0  0  0
 21 35  1  0  0  0  0
 22 24  2  0  0  0  0
 22 40  1  0  0  0  0
 23 25  2  0  0  0  0
 23 41  1  0  0  0  0
 24 52  1  0  0  0  0
 25 42  1  0  0  0  0
 26 74  1  0  0  0  0
 27 85  1  0  0  0  0
 28 86  1  0  0  0  0
 29 31  2  0  0  0  0
 29 85  1  0  0  0  0
 30 87  1  0  0  0  0
 31 88  1  0  0  0  0
 32 67  2  0  0  0  0
 33 68  1  0  0  0  0
 33 72  1  0  0  0  0
 34 69  1  0  0  0  0
 34 77  2  0  0  0  0
 35 73  1  0  0  0  0
 35 79  2  0  0  0  0
 36 53  1  0  0  0  0
 36 75  1  0  0  0  0
 36 80  2  0  0  0  0
 37 64  1  0  0  0  0
 37 70  1  0  0  0  0
 37 81  2  0  0  0  0
 38 65  1  0  0  0  0
 38 76  1  0  0  0  0
 38 82  2  0  0  0  0
 39 71  1  0  0  0  0
 39 74  1  0  0  0  0
 39 83  2  0  0  0  0
 40 43  1  0  0  0  0
 41 53  1  0  0  0  0
 42 70  1  0  0  0  0
 43 45  1  0  0  0  0
 44 46  1  0  0  0  0
 44 49  1  0  0  0  0
 45 52  1  0  0  0  0
 46 54  1  0  0  0  0
 47 50  1  0  0  0  0
 47 55  1  0  0  0  0
 48 55  1  0  0  0  0
 48 56  1  0  0  0  0
 49 71  1  0  0  0  0
 50 69  1  0  0  0  0
 51 54  1  0  0  0  0
 51 71  1  0  0  0  0
 52 75  1  0  0  0  0
 53 70  1  0  0  0  0
 54 68  1  0  0  0  0
 55 84  1  0  0  0  0
 56 57  1  0  0  0  0
 56 63  1  0  0  0  0
 56 69  1  0  0  0  0
 58 65  1  0  0  0  0
 59 66  1  0  0  0  0
 60 66  1  0  0  0  0
 61 66  1  0  0  0  0
 62 78  1  0  0  0  0
 63 86  1  0  0  0  0
 64 66  1  0  0  0  0
 64 76  1  0  0  0  0
 65 78  1  0  0  0  0
 67 68  1  0  0  0  0
M  CHG  2  77   1  78   1
M  ISO  4  39 100  63 101  74 100  86 101
M  END
> <Batch ID>
0155

> <Smiles>
CNC(C)C(=O)NC(C(=O)N1Cc2cc([101O:1][101CH2:1]C3(C)CC(O)CCN3C(=N)c3cccc([100NH:0][100C:0](=O)N4CCCC(n5nc(-c6ccc(Oc7ccc(F)cc7F)cc6)c(C(N)=O)c5N)C4)c3)ccc2CC1C(=O)NC1CCCc2ccccc21)C(C)(C)C

> <Shape>
0.239

> <Color>
0.153

> <Negative vol penalty>
0.000

$$$$

  -OEChem-04052303363D

 80 88  0     1  0  0  0  0  0999 V2000
  -23.2914  -25.9701   29.5144 C   0  0  0  0  0  0  0  0  0  0  0  0
  -24.3496  -25.1433   29.1510 C   0  0  0  0  0  0  0  0  0  0  0  0
  -22.6517  -10.2304   20.1675 C   0  0  0  0  0  0  0  0  0  0  0  0
  -24.3204   -9.3814   21.6945 C   0  0  0  0  0  0  0  0  0  0  0  0
  -22.4739  -26.5269   28.5317 C   0  0  0  0  0  0  0  0  0  0  0  0
  -24.5902  -24.8719   27.8045 C   0  0  0  0  0  0  0  0  0  0  0  0
  -30.0384  -24.0469   25.1319 C   0  0  0  0  0  0  0  0  0  0  0  0
  -21.9062   -9.0632   20.3332 C   0  0  0  0  0  0  0  0  0  0  0  0
  -23.5748   -8.2141   21.8603 C   0  0  0  0  0  0  0  0  0  0  0  0
  -30.7454  -22.8985   24.7782 C   0  0  0  0  0  0  0  0  0  0  0  0
  -21.9339   -5.1636   22.9645 C   0  0  0  0  0  0  0  0  0  0  0  0
  -21.7655   -4.6794   24.2617 C   0  0  0  0  0  0  0  0  0  0  0  0
  -29.8729  -23.0595   22.5350 C   0  0  0  0  0  0  0  0  0  0  0  0
  -20.6757   -6.7420   24.8902 C   0  0  0  0  0  0  0  0  0  0  0  0
  -23.8588  -10.3895   20.8482 C   0  0  0  0  0  0  0  0  0  0  0  0
  -24.2238  -12.9115   20.9653 C   0  0  0  0  0  0  0  0  0  0  0  0
  -22.7106  -26.2700   27.1721 C   0  0  0  0  0  0  0  0  0  0  0  0
  -29.2333  -24.7052   24.1911 C   0  0  0  0  0  0  0  0  0  0  0  0
  -23.7743  -25.4247   26.8028 C   0  0  0  0  0  0  0  0  0  0  0  0
  -29.1587  -24.2175   22.8785 C   0  0  0  0  0  0  0  0  0  0  0  0
  -22.3677   -8.0551   21.1796 C   0  0  0  0  0  0  0  0  0  0  0  0
  -30.6604  -22.4030   23.4804 C   0  0  0  0  0  0  0  0  0  0  0  0
  -21.4732   -6.4371   22.6302 C   0  0  0  0  0  0  0  0  0  0  0  0
  -21.1364   -5.4686   25.2246 C   0  0  0  0  0  0  0  0  0  0  0  0
  -20.8441   -7.2263   23.5930 C   0  0  0  0  0  0  0  0  0  0  0  0
  -24.6296  -11.5947   20.6770 C   0  0  0  0  0  0  0  0  0  0  0  0
  -25.3079  -13.6859   20.6313 C   0  0  0  0  0  0  0  0  0  0  0  0
  -22.9782  -13.3918   21.4884 C   0  0  0  0  0  0  0  0  0  0  0  0
  -26.1308  -25.3557   23.9576 C   0  0  0  0  0  0  0  0  0  0  0  0
  -27.0779  -27.0406   21.3525 C   0  0  0  0  0  0  0  0  0  0  0  0
  -29.3957  -27.5116   18.8922 C   0  0  0  0  0  0  0  0  0  0  0  0
  -30.8058  -14.6425   20.6812 C   0  0  0  0  0  0  0  0  0  0  0  0
  -21.7711  -26.8563   26.1482 C   0  0  0  0  0  0  0  0  0  0  0  0
  -28.4981  -25.9580   24.5812 C   0  0  0  0  0  0  0  0  0  0  0  0
  -28.3246  -24.8988   21.8257 C   0  0  0  0  0  0  0  0  0  0  0  0
  -22.3219  -26.8204   24.7250 C   0  0  0  0  0  0  0  0  0  0  0  0
  -29.5406  -12.5165   18.1207 C   0  0  0  0  0  0  0  0  0  0  0  0
  -22.9114  -25.4481   24.4152 C   0  0  0  0  0  0  0  0  0  0  0  0
  -28.1197  -12.1911   18.5844 C   0  0  0  0  0  0  0  0  0  0  0  0
  -30.6109  -16.9723   23.5790 C   0  0  0  0  0  0  0  0  0  0  0  0
  -30.7367  -18.4955   23.7201 C   0  0  0  0  0  0  0  0  0  0  0  0
  -30.5105  -12.6098   19.2965 C   0  0  0  0  0  0  0  0  0  0  0  0
  -28.6780  -13.2120   20.8305 C   0  0  0  0  0  0  0  0  0  0  0  0
  -24.0825  -25.1266   25.3515 C   0  0  1  0  0  0  0  0  0  0  0  0
  -27.3028  -26.2543   23.6807 C   0  0  1  0  0  0  0  0  0  0  0  0
  -27.6526  -13.1628   19.6849 C   0  0  2  0  0  0  0  0  0  0  0  0
  -30.9443  -16.6508   22.1189 C   0  0  2  0  0  0  0  0  0  0  0  0
  -30.6468  -17.9592   21.3420 C   0  0  0  0  0  0  0  0  0  0  0  0
  -31.2023  -19.0131   22.3486 C   0  0  1  0  0  0  0  0  0  0  0  0
  -31.3749  -17.9640   19.9883 C   0  0  0  0  0  0  0  0  0  0  0  0
  -29.1360  -18.1433   21.0766 C   0  0  0  0  0  0  0  0  0  0  0  0
  -29.8771  -28.9415   16.8870 C   0  0  0  0  0  0  0  0  0  0  0  0
  -25.0073  -25.4792   19.7449 C   0  0  0  0  0  0  0  0  0  0  0  0
  -26.1630  -26.2330   17.6558 C   0  0  0  0  0  0  0  0  0  0  0  0
  -25.1400  -27.9139   19.1891 C   0  0  0  0  0  0  0  0  0  0  0  0
  -31.8976  -28.5473   20.0867 C   0  0  0  0  0  0  0  0  0  0  0  0
  -30.7809  -20.4608   22.1132 C   0  0  0  0  0  0  0  0  0  1  0  0
  -27.2618  -26.7294   19.8868 C   0  0  1  0  0  0  0  0  0  0  0  0
  -30.0839  -28.7653   18.3833 C   0  0  2  0  0  0  0  0  0  0  0  0
  -25.9073  -26.5747   19.1393 C   0  0  0  0  0  0  0  0  0  0  0  0
  -25.8743  -11.5323   20.1966 N   0  0  0  0  0  0  0  0  0  0  0  0
  -26.2599  -12.8196   20.1804 N   0  0  0  0  0  0  0  0  0  0  0  0
  -27.6194  -26.1169   22.2576 N   0  0  0  0  0  0  0  0  0  0  0  0
  -30.0099  -13.5485   20.3036 N   0  0  0  0  0  0  0  0  0  0  0  0
  -25.5300  -15.0165   20.6820 N   0  0  0  0  0  0  0  0  0  0  0  0
  -22.8343  -13.4992   22.8784 N   0  0  0  0  0  0  0  0  0  0  0  0
  -25.2740  -25.8325   24.9313 N   0  0  0  0  0  0  0  0  0  0  0  0
  -28.1232  -27.7782   19.3517 N   0  0  0  0  0  0  0  0  0  0  0  0
  -30.2536  -15.4867   21.6368 N   0  0  0  0  0  0  0  0  0  0  0  0
  -31.5484  -28.6971   18.6505 N   0  3  0  0  0  0  0  0  0  0  0  0
  -22.0155  -13.7005   20.7459 O   0  0  0  0  0  0  0  0  0  0  0  0
  -26.0117  -24.3082   23.3329 O   0  0  0  0  0  0  0  0  0  0  0  0
  -26.4822  -28.0693   21.6821 O   0  0  0  0  0  0  0  0  0  0  0  0
  -29.9318  -26.4057   18.8797 O   0  0  0  0  0  0  0  0  0  0  0  0
  -31.9233  -14.8545   20.1982 O   0  0  0  0  0  0  0  0  0  0  0  0
  -32.6364  -18.9774   22.3649 O   0  0  0  0  0  0  0  0  0  0  0  0
  -21.6404   -6.9161   21.3416 O   0  0  0  0  0  0  0  0  0  0  0  0
  -31.3489  -21.2819   23.1328 O   0  0  0  0  0  0  0  0  0  1  0  0
  -20.9734   -5.0028   26.4699 F   0  0  0  0  0  0  0  0  0  0  0  0
  -20.3985   -8.4500   23.2774 F   0  0  0  0  0  0  0  0  0  0  0  0
  1  2  1  0  0  0  0
  1  5  2  0  0  0  0
  2  6  2  0  0  0  0
  3  8  2  0  0  0  0
  3 15  1  0  0  0  0
  4  9  1  0  0  0  0
  4 15  2  0  0  0  0
  5 17  1  0  0  0  0
  6 19  1  0  0  0  0
  7 10  2  0  0  0  0
  7 18  1  0  0  0  0
  8 21  1  0  0  0  0
  9 21  2  0  0  0  0
 10 22  1  0  0  0  0
 11 12  2  0  0  0  0
 11 23  1  0  0  0  0
 12 24  1  0  0  0  0
 13 20  1  0  0  0  0
 13 22  2  0  0  0  0
 14 24  2  0  0  0  0
 14 25  1  0  0  0  0
 15 26  1  0  0  0  0
 16 26  1  0  0  0  0
 16 27  2  0  0  0  0
 16 28  1  0  0  0  0
 17 19  2  0  0  0  0
 17 33  1  0  0  0  0
 18 20  2  0  0  0  0
 18 34  1  0  0  0  0
 19 44  1  0  0  0  0
 20 35  1  0  0  0  0
 21 77  1  0  0  0  0
 22 78  1  0  0  0  0
 23 25  2  0  0  0  0
 23 77  1  0  0  0  0
 24 79  1  0  0  0  0
 25 80  1  0  0  0  0
 26 61  2  0  0  0  0
 27 62  1  0  0  0  0
 27 65  1  0  0  0  0
 28 66  1  0  0  0  0
 28 71  2  0  0  0  0
 29 45  1  0  0  0  0
 29 67  1  0  0  0  0
 29 72  2  0  0  0  0
 30 58  1  0  0  0  0
 30 63  1  0  0  0  0
 30 73  2  0  0  0  0
 31 59  1  0  0  0  0
 31 68  1  0  0  0  0
 31 74  2  0  0  0  0
 32 64  1  0  0  0  0
 32 69  1  0  0  0  0
 32 75  2  0  0  0  0
 33 36  1  0  0  0  0
 34 45  1  0  0  0  0
 35 63  1  0  0  0  0
 36 38  1  0  0  0  0
 37 39  1  0  0  0  0
 37 42  1  0  0  0  0
 38 44  1  0  0  0  0
 39 46  1  0  0  0  0
 40 41  1  0  0  0  0
 40 47  1  0  0  0  0
 41 49  1  0  0  0  0
 42 64  1  0  0  0  0
 43 46  1  0  0  0  0
 43 64  1  0  0  0  0
 44 67  1  0  0  0  0
 45 63  1  0  0  0  0
 46 62  1  0  0  0  0
 47 48  1  0  0  0  0
 47 69  1  0  0  0  0
 48 49  1  0  0  0  0
 48 50  1  0  0  0  0
 48 51  1  0  0  0  0
 49 57  1  0  0  0  0
 49 76  1  0  0  0  0
 52 59  1  0  0  0  0
 53 60  1  0  0  0  0
 54 60  1  0  0  0  0
 55 60  1  0  0  0  0
 56 70  1  0  0  0  0
 57 78  1  0  0  0  0
 58 60  1  0  0  0  0
 58 68  1  0  0  0  0
 59 70  1  0  0  0  0
 61 62  1  0  0  0  0
M  CHG  1  70   1
M  ISO  4  32 100  57 101  69 100  78 101
M  END
> <Batch ID>
0155

> <Smiles>
CNC(C)C(=O)NC(C(=O)N1Cc2cc([101O:1][101CH2:1]C3(O)CCC([100NH:0][100C:0](=O)N4CCCC(n5nc(-c6ccc(Oc7ccc(F)cc7F)cc6)c(C(N)=O)c5N)C4)C3(C)C)ccc2CC1C(=O)NC1CCCc2ccccc21)C(C)(C)C

> <Shape>
0.256

> <Color>
0.178

> <Negative vol penalty>
0.000

$$$$

  -OEChem-04052303363D

 87 96  0     1  0  0  0  0  0999 V2000
  -27.7625  -36.1573   21.9595 C   0  0  0  0  0  0  0  0  0  0  0  0
  -28.4895  -35.0886   21.4450 C   0  0  0  0  0  0  0  0  0  0  0  0
  -24.1306   -9.2482   19.9874 C   0  0  0  0  0  0  0  0  0  0  0  0
  -22.8947  -10.2222   21.8207 C   0  0  0  0  0  0  0  0  0  0  0  0
  -26.9157  -35.9623   23.0499 C   0  0  0  0  0  0  0  0  0  0  0  0
  -28.3709  -33.8244   22.0213 C   0  0  0  0  0  0  0  0  0  0  0  0
  -28.5993  -28.4272   19.1362 C   0  0  0  0  0  0  0  0  0  0  0  0
  -23.5144   -8.0196   20.2248 C   0  0  0  0  0  0  0  0  0  0  0  0
  -22.2785   -8.9935   22.0581 C   0  0  0  0  0  0  0  0  0  0  0  0
  -29.6235  -27.4964   18.9673 C   0  0  0  0  0  0  0  0  0  0  0  0
  -20.6477   -6.0249   23.3762 C   0  0  0  0  0  0  0  0  0  0  0  0
  -20.5565   -5.5901   24.6984 C   0  0  0  0  0  0  0  0  0  0  0  0
  -28.7906  -26.2466   20.8550 C   0  0  0  0  0  0  0  0  0  0  0  0
  -22.9656   -5.6277   24.8770 C   0  0  0  0  0  0  0  0  0  0  0  0
  -27.1064  -19.2209   19.2490 C   0  0  0  0  0  0  0  0  0  0  0  0
  -23.8208  -10.3495   20.7854 C   0  0  0  0  0  0  0  0  0  0  0  0
  -24.0062  -12.6465   19.6913 C   0  0  0  0  0  0  0  0  0  0  0  0
  -26.7794  -34.6930   23.6338 C   0  0  0  0  0  0  0  0  0  0  0  0
  -27.6679  -28.2802   20.1742 C   0  0  0  0  0  0  0  0  0  0  0  0
  -27.5226  -33.6125   23.1213 C   0  0  0  0  0  0  0  0  0  0  0  0
  -27.7540  -27.1754   21.0333 C   0  0  0  0  0  0  0  0  0  0  0  0
  -22.5884   -7.8922   21.2601 C   0  0  0  0  0  0  0  0  0  0  0  0
  -29.7210  -26.4075   19.8286 C   0  0  0  0  0  0  0  0  0  0  0  0
  -21.8979   -6.2611   22.8044 C   0  0  0  0  0  0  0  0  0  0  0  0
  -21.7154   -5.3915   25.4488 C   0  0  0  0  0  0  0  0  0  0  0  0
  -23.0568   -6.0625   23.5548 C   0  0  0  0  0  0  0  0  0  0  0  0
  -24.4574  -11.6189   20.5411 C   0  0  0  0  0  0  0  0  0  0  0  0
  -27.0757  -20.0319   20.3641 C   0  0  0  0  0  0  0  0  0  0  0  0
  -24.9561  -13.6315   19.8094 C   0  0  0  0  0  0  0  0  0  0  0  0
  -28.2654  -21.3232   19.0500 C   0  0  0  0  0  0  0  0  0  0  0  0
  -22.8334  -12.7055   18.8687 C   0  0  0  0  0  0  0  0  0  0  0  0
  -26.8598  -29.9993   22.7228 C   0  0  0  0  0  0  0  0  0  0  0  0
  -24.5339  -27.7570   23.0135 C   0  0  0  0  0  0  0  0  0  0  0  0
  -23.4637  -24.5880   22.3358 C   0  0  0  0  0  0  0  0  0  0  0  0
  -28.3453  -16.7742   22.9370 C   0  0  0  0  0  0  0  0  0  0  0  0
  -25.8878  -34.5411   24.8407 C   0  0  0  0  0  0  0  0  0  0  0  0
  -26.5532  -29.2785   20.3264 C   0  0  0  0  0  0  0  0  0  0  0  0
  -26.7673  -26.9611   22.1508 C   0  0  0  0  0  0  0  0  0  0  0  0
  -25.5336  -33.0904   25.1576 C   0  0  0  0  0  0  0  0  0  0  0  0
  -29.5260  -13.5555   21.9766 C   0  0  0  0  0  0  0  0  0  0  0  0
  -26.7802  -32.2129   25.1052 C   0  0  0  0  0  0  0  0  0  0  0  0
  -28.2747  -12.8479   21.4536 C   0  0  0  0  0  0  0  0  0  0  0  0
  -25.8892  -20.9881   22.3643 C   0  0  0  0  0  0  0  0  0  0  0  0
  -26.9228  -19.5778   24.0070 C   0  0  0  0  0  0  0  0  0  0  0  0
  -29.2071  -14.4628   23.1628 C   0  0  0  0  0  0  0  0  0  0  0  0
  -26.8799  -14.7348   22.3986 C   0  0  0  0  0  0  0  0  0  0  0  0
  -27.4020  -32.2208   23.7035 C   0  0  1  0  0  0  0  0  0  0  0  0
  -26.4004  -19.7193   21.6393 C   0  0  2  0  0  0  0  0  0  0  0  0
  -25.9650  -29.3073   21.7337 C   0  0  1  0  0  0  0  0  0  0  0  0
  -26.6503  -21.0461   23.6926 C   0  0  2  0  0  0  0  0  0  0  0  0
  -27.1416  -13.8515   21.1667 C   0  0  2  0  0  0  0  0  0  0  0  0
  -27.3447  -19.0269   22.6484 C   0  0  2  0  0  0  0  0  0  0  0  0
  -25.8828  -21.7602   24.7920 C   0  0  0  0  0  0  0  0  0  0  0  0
  -21.5367  -23.0315   22.7374 C   0  0  0  0  0  0  0  0  0  0  0  0
  -25.4866  -27.3208   25.8792 C   0  0  0  0  0  0  0  0  0  0  0  0
  -24.2081  -25.1683   25.9027 C   0  0  0  0  0  0  0  0  0  0  0  0
  -23.0018  -27.3301   25.5959 C   0  0  0  0  0  0  0  0  0  0  0  0
  -31.7191  -23.5239   18.8019 C   0  0  0  0  0  0  0  0  0  0  0  0
  -30.1671  -24.9045   17.4034 C   0  0  0  0  0  0  0  0  0  0  0  0
  -22.9119  -24.3375   19.4390 C   0  0  0  0  0  0  0  0  0  0  0  0
  -29.2847  -23.5740   19.3971 C   0  0  0  0  0  0  0  0  0  0  0  0
  -24.4171  -26.4217   23.7081 C   0  0  1  0  0  0  0  0  0  0  0  0
  -22.1438  -24.0636   21.7999 C   0  0  2  0  0  0  0  0  0  0  0  0
  -24.2983  -26.5650   25.2517 C   0  0  0  0  0  0  0  0  0  0  0  0
  -30.4529  -24.3846   18.8146 C   0  0  0  0  0  0  0  0  0  1  0  0
  -25.6047  -11.9228   21.1537 N   0  0  0  0  0  0  0  0  0  0  0  0
  -27.7402  -21.2376   20.2520 N   0  0  0  0  0  0  0  0  0  0  0  0
  -25.8825  -13.1525   20.6883 N   0  0  0  0  0  0  0  0  0  0  0  0
  -25.6991  -27.9681   22.2627 N   0  0  0  0  0  0  0  0  0  0  0  0
  -28.1258  -15.3914   22.8246 N   0  0  0  0  0  0  0  0  0  0  0  0
  -25.0809  -14.8520   19.2461 N   0  0  0  0  0  0  0  0  0  0  0  0
  -21.9637  -11.6064   18.8654 N   0  0  0  0  0  0  0  0  0  0  0  0
  -29.0030  -22.4036   18.5964 N   0  0  0  0  0  0  0  0  0  0  0  0
  -26.6511  -31.3624   22.8126 N   0  0  0  0  0  0  0  0  0  0  0  0
  -23.2923  -25.7338   23.0836 N   0  0  0  0  0  0  0  0  0  0  0  0
  -27.2706  -17.5840   22.5908 N   0  0  0  0  0  0  0  0  0  0  0  0
  -22.3419  -23.4284   20.4664 N   0  3  0  0  0  0  0  0  0  0  0  0
  -22.5730  -13.6965   18.1452 O   0  0  0  0  0  0  0  0  0  0  0  0
  -27.6779  -29.3449   23.3584 O   0  0  0  0  0  0  0  0  0  0  0  0
  -23.6217  -28.5795   23.1270 O   0  0  0  0  0  0  0  0  0  0  0  0
  -24.5389  -24.0344   22.1164 O   0  0  0  0  0  0  0  0  0  0  0  0
  -29.4213  -17.2519   23.3125 O   0  0  0  0  0  0  0  0  0  0  0  0
  -21.9868   -6.6935   21.4919 O   0  0  0  0  0  0  0  0  0  0  0  0
  -30.7201  -25.4979   19.6665 O   0  0  0  0  0  0  0  0  0  1  0  0
  -21.6275   -4.9754   26.7190 F   0  0  0  0  0  0  0  0  0  0  0  0
  -24.2606   -6.2889   23.0113 F   0  0  0  0  0  0  0  0  0  0  0  0
  -27.9990  -19.9900   18.0028 S   0  0  0  0  0  0  0  0  0  0  0  0
  1  2  1  0  0  0  0
  1  5  2  0  0  0  0
  2  6  2  0  0  0  0
  3  8  2  0  0  0  0
  3 16  1  0  0  0  0
  4  9  1  0  0  0  0
  4 16  2  0  0  0  0
  5 18  1  0  0  0  0
  6 20  1  0  0  0  0
  7 10  2  0  0  0  0
  7 19  1  0  0  0  0
  8 22  1  0  0  0  0
  9 22  2  0  0  0  0
 10 23  1  0  0  0  0
 11 12  2  0  0  0  0
 11 24  1  0  0  0  0
 12 25  1  0  0  0  0
 13 21  1  0  0  0  0
 13 23  2  0  0  0  0
 14 25  2  0  0  0  0
 14 26  1  0  0  0  0
 15 28  2  0  0  0  0
 15 87  1  0  0  0  0
 16 27  1  0  0  0  0
 17 27  1  0  0  0  0
 17 29  2  0  0  0  0
 17 31  1  0  0  0  0
 18 20  2  0  0  0  0
 18 36  1  0  0  0  0
 19 21  2  0  0  0  0
 19 37  1  0  0  0  0
 20 47  1  0  0  0  0
 21 38  1  0  0  0  0
 22 83  1  0  0  0  0
 23 84  1  0  0  0  0
 24 26  2  0  0  0  0
 24 83  1  0  0  0  0
 25 85  1  0  0  0  0
 26 86  1  0  0  0  0
 27 66  2  0  0  0  0
 28 48  1  0  0  0  0
 28 67  1  0  0  0  0
 29 68  1  0  0  0  0
 29 71  1  0  0  0  0
 30 67  2  0  0  0  0
 30 73  1  0  0  0  0
 30 87  1  0  0  0  0
 31 72  1  0  0  0  0
 31 78  2  0  0  0  0
 32 49  1  0  0  0  0
 32 74  1  0  0  0  0
 32 79  2  0  0  0  0
 33 62  1  0  0  0  0
 33 69  1  0  0  0  0
 33 80  2  0  0  0  0
 34 63  1  0  0  0  0
 34 75  1  0  0  0  0
 34 81  2  0  0  0  0
 35 70  1  0  0  0  0
 35 76  1  0  0  0  0
 35 82  2  0  0  0  0
 36 39  1  0  0  0  0
 37 49  1  0  0  0  0
 38 69  1  0  0  0  0
 39 41  1  0  0  0  0
 40 42  1  0  0  0  0
 40 45  1  0  0  0  0
 41 47  1  0  0  0  0
 42 51  1  0  0  0  0
 43 48  1  0  0  0  0
 43 50  1  0  0  0  0
 44 50  1  0  0  0  0
 44 52  1  0  0  0  0
 45 70  1  0  0  0  0
 46 51  1  0  0  0  0
 46 70  1  0  0  0  0
 47 74  1  0  0  0  0
 48 52  1  0  0  0  0
 49 69  1  0  0  0  0
 50 53  1  0  0  0  0
 51 68  1  0  0  0  0
 52 76  1  0  0  0  0
 54 63  1  0  0  0  0
 55 64  1  0  0  0  0
 56 64  1  0  0  0  0
 57 64  1  0  0  0  0
 58 65  1  0  0  0  0
 59 65  1  0  0  0  0
 60 77  1  0  0  0  0
 61 65  1  0  0  0  0
 61 73  1  0  0  0  0
 62 64  1  0  0  0  0
 62 75  1  0  0  0  0
 63 77  1  0  0  0  0
 65 84  1  0  0  0  0
 66 68  1  0  0  0  0
M  CHG  1  77   1
M  ISO  4  35 100  65 101  76 100  84 101
M  END
> <Batch ID>
0155

> <Smiles>
CNC(C)C(=O)NC(C(=O)N1Cc2cc([101O:1][101C:1](C)(C)CNc3nc(C4CC(C)CC4[100NH:0][100C:0](=O)N4CCCC(n5nc(-c6ccc(Oc7ccc(F)cc7F)cc6)c(C(N)=O)c5N)C4)cs3)ccc2CC1C(=O)NC1CCCc2ccccc21)C(C)(C)C

> <Shape>
0.262

> <Color>
0.120

> <Negative vol penalty>
0.000

$$$$

  -OEChem-04052303363D

 88 98  0     1  0  0  0  0  0999 V2000
  -16.8094  -28.8498   24.3033 C   0  0  0  0  0  0  0  0  0  0  0  0
  -17.1840  -28.0233   23.2487 C   0  0  0  0  0  0  0  0  0  0  0  0
  -23.9287   -9.6694   22.6111 C   0  0  0  0  0  0  0  0  0  0  0  0
  -23.4669   -9.9660   20.2583 C   0  0  0  0  0  0  0  0  0  0  0  0
  -17.5524  -29.9947   24.5881 C   0  0  0  0  0  0  0  0  0  0  0  0
  -18.3013  -28.3419   22.4776 C   0  0  0  0  0  0  0  0  0  0  0  0
  -22.2479  -24.4201   19.9183 C   0  0  0  0  0  0  0  0  0  0  0  0
  -22.9091   -8.7209   22.6916 C   0  0  0  0  0  0  0  0  0  0  0  0
  -22.4474   -9.0176   20.3388 C   0  0  0  0  0  0  0  0  0  0  0  0
  -22.3583  -23.9103   18.6253 C   0  0  0  0  0  0  0  0  0  0  0  0
  -20.6668   -5.9583   23.4366 C   0  0  0  0  0  0  0  0  0  0  0  0
  -20.9312   -4.7795   24.1339 C   0  0  0  0  0  0  0  0  0  0  0  0
  -23.9881  -25.6098   18.1010 C   0  0  0  0  0  0  0  0  0  0  0  0
  -24.7473  -19.4461   17.6858 C   0  0  0  0  0  0  0  0  0  0  0  0
  -22.7358   -4.2809   22.6068 C   0  0  0  0  0  0  0  0  0  0  0  0
  -24.2076  -10.2920   21.3944 C   0  0  0  0  0  0  0  0  0  0  0  0
  -26.6169  -11.0397   21.0150 C   0  0  0  0  0  0  0  0  0  0  0  0
  -18.6850  -30.3223   23.8261 C   0  0  0  0  0  0  0  0  0  0  0  0
  -22.9999  -25.5372   20.3096 C   0  0  0  0  0  0  0  0  0  0  0  0
  -19.0594  -29.4930   22.7517 C   0  0  0  0  0  0  0  0  0  0  0  0
  -23.8872  -26.1302   19.4002 C   0  0  0  0  0  0  0  0  0  0  0  0
  -24.6728  -18.0262   17.7775 C   0  0  0  0  0  0  0  0  0  0  0  0
  -22.1685   -8.3950   21.5555 C   0  0  0  0  0  0  0  0  0  0  0  0
  -23.2264  -24.5069   17.7156 C   0  0  0  0  0  0  0  0  0  0  0  0
  -21.4369   -6.2984   22.3244 C   0  0  0  0  0  0  0  0  0  0  0  0
  -21.9657   -3.9409   23.7190 C   0  0  0  0  0  0  0  0  0  0  0  0
  -22.4714   -5.4597   21.9095 C   0  0  0  0  0  0  0  0  0  0  0  0
  -25.2603  -11.2722   21.3107 C   0  0  0  0  0  0  0  0  0  0  0  0
  -24.4366  -17.4403   16.5534 C   0  0  0  0  0  0  0  0  0  0  0  0
  -27.1958  -12.2845   21.0574 C   0  0  0  0  0  0  0  0  0  0  0  0
  -24.5654  -19.8914   16.3948 C   0  0  0  0  0  0  0  0  0  0  0  0
  -24.4583  -23.0486   14.6376 C   0  0  0  0  0  0  0  0  0  0  0  0
  -27.2931   -9.8085   20.7275 C   0  0  0  0  0  0  0  0  0  0  0  0
  -22.3021  -28.4752   21.3020 C   0  0  0  0  0  0  0  0  0  0  0  0
  -25.5068  -28.6582   21.7697 C   0  0  0  0  0  0  0  0  0  0  0  0
  -28.6222  -27.5234   20.9613 C   0  0  0  0  0  0  0  0  0  0  0  0
  -25.0626  -17.8083   20.2568 C   0  0  0  0  0  0  0  0  0  0  0  0
  -19.4291  -31.5955   24.1422 C   0  0  0  0  0  0  0  0  0  0  0  0
  -22.8891  -26.0586   21.7161 C   0  0  0  0  0  0  0  0  0  0  0  0
  -24.7319  -27.3190   19.7769 C   0  0  0  0  0  0  0  0  0  0  0  0
  -24.3758  -21.5480   14.5871 C   0  0  0  0  0  0  0  0  0  0  0  0
  -20.8181  -31.6616   23.5124 C   0  0  0  0  0  0  0  0  0  0  0  0
  -26.7220  -16.5653   23.1513 C   0  0  0  0  0  0  0  0  0  0  0  0
  -20.7605  -31.2411   22.0473 C   0  0  0  0  0  0  0  0  0  0  0  0
  -25.4278  -15.0216   16.7506 C   0  0  0  0  0  0  0  0  0  0  0  0
  -25.2072  -15.2748   15.2920 C   0  0  0  0  0  0  0  0  0  0  0  0
  -26.6643  -15.0459   22.9779 C   0  0  0  0  0  0  0  0  0  0  0  0
  -25.4496  -17.2426   22.6453 C   0  0  0  0  0  0  0  0  0  0  0  0
  -25.0095  -15.3778   21.0968 C   0  0  0  0  0  0  0  0  0  0  0  0
  -20.2796  -29.7916   21.9079 C   0  0  1  0  0  0  0  0  0  0  0  0
  -24.3020  -15.9308   16.3109 C   0  0  0  0  0  0  0  0  0  0  0  0
  -24.6240  -23.5546   16.0436 C   0  0  2  0  0  0  0  0  0  1  0  0
  -23.3210  -27.5157   21.8489 C   0  0  1  0  0  0  0  0  0  0  0  0
  -26.2958  -14.6572   21.5326 C   0  0  2  0  0  0  0  0  0  0  0  0
  -25.0424  -22.2920   16.8127 C   0  0  2  0  0  0  0  0  0  0  0  0
  -28.5397  -23.0647   18.2798 C   0  0  0  0  0  0  0  0  0  0  0  0
  -31.0493  -27.8916   21.4819 C   0  0  0  0  0  0  0  0  0  0  0  0
  -25.4834  -31.1943   20.0733 C   0  0  0  0  0  0  0  0  0  0  0  0
  -27.9664  -30.9761   19.8377 C   0  0  0  0  0  0  0  0  0  0  0  0
  -26.9534  -31.3041   22.0936 C   0  0  0  0  0  0  0  0  0  0  0  0
  -28.9476  -24.7561   21.9589 C   0  0  0  0  0  0  0  0  0  0  0  0
  -26.5612  -22.2273   16.9785 C   0  0  0  0  0  0  0  0  0  0  0  0
  -27.0326  -23.1481   18.0978 C   0  0  0  0  0  0  0  0  0  0  0  0
  -26.6880  -29.0765   20.9277 C   0  0  1  0  0  0  0  0  0  0  0  0
  -29.7963  -27.1015   21.8261 C   0  0  2  0  0  0  0  0  0  0  0  0
  -26.7556  -30.6166   20.7251 C   0  0  0  0  0  0  0  0  0  0  0  0
  -24.9933  -12.5632   21.5254 N   0  0  0  0  0  0  0  0  0  0  0  0
  -26.1901  -13.1530   21.3645 N   0  0  0  0  0  0  0  0  0  0  0  0
  -24.5787  -21.1689   15.9817 N   0  0  3  0  0  0  0  0  0  0  0  0
  -24.5834  -27.7960   21.1618 N   0  0  0  0  0  0  0  0  0  0  0  0
  -25.1657  -16.8307   21.2689 N   0  0  0  0  0  0  0  0  0  0  0  0
  -28.4620  -12.7098   20.8618 N   0  0  0  0  0  0  0  0  0  0  0  0
  -26.5478   -8.6216   20.7248 N   0  0  0  0  0  0  0  0  0  0  0  0
  -24.8229  -17.2957   18.9823 N   0  0  0  0  0  0  0  0  0  0  0  0
  -21.3510  -28.8712   22.2228 N   0  0  0  0  0  0  0  0  0  0  0  0
  -27.8681  -28.5057   21.5678 N   0  0  0  0  0  0  0  0  0  0  0  0
  -30.0869  -25.6525   21.6340 N   0  3  0  0  0  0  0  0  0  0  0  0
  -24.3483  -23.7711   13.6553 O   0  0  0  0  0  0  0  0  0  0  0  0
  -28.5251   -9.7604   20.4964 O   0  0  0  0  0  0  0  0  0  0  0  0
  -22.3745  -28.8311   20.1316 O   0  0  0  0  0  0  0  0  0  0  0  0
  -25.4109  -29.0753   22.9266 O   0  0  0  0  0  0  0  0  0  0  0  0
  -28.3986  -27.0335   19.8566 O   0  0  0  0  0  0  0  0  0  0  0  0
  -25.2054  -19.0097   20.4980 O   0  0  0  0  0  0  0  0  0  0  0  0
  -21.1736   -7.4694   21.6336 O   0  0  0  0  0  0  0  0  0  0  0  0
  -23.3356  -24.0117   16.4528 O   0  0  0  0  0  0  0  0  0  1  0  0
  -22.2205   -2.8097   24.3896 F   0  0  0  0  0  0  0  0  0  0  0  0
  -23.2153   -5.7817   20.8424 F   0  0  0  0  0  0  0  0  0  0  0  0
  -24.3057  -18.6002   15.3004 S   0  0  0  0  0  0  0  0  0  0  0  0
  1  2  1  0  0  0  0
  1  5  2  0  0  0  0
  2  6  2  0  0  0  0
  3  8  2  0  0  0  0
  3 16  1  0  0  0  0
  4  9  1  0  0  0  0
  4 16  2  0  0  0  0
  5 18  1  0  0  0  0
  6 20  1  0  0  0  0
  7 10  2  0  0  0  0
  7 19  1  0  0  0  0
  8 23  1  0  0  0  0
  9 23  2  0  0  0  0
 10 24  1  0  0  0  0
 11 12  2  0  0  0  0
 11 25  1  0  0  0  0
 12 26  1  0  0  0  0
 13 21  1  0  0  0  0
 13 24  2  0  0  0  0
 14 22  1  0  0  0  0
 14 31  2  0  0  0  0
 15 26  2  0  0  0  0
 15 27  1  0  0  0  0
 16 28  1  0  0  0  0
 17 28  1  0  0  0  0
 17 30  2  0  0  0  0
 17 33  1  0  0  0  0
 18 20  2  0  0  0  0
 18 38  1  0  0  0  0
 19 21  2  0  0  0  0
 19 39  1  0  0  0  0
 20 50  1  0  0  0  0
 21 40  1  0  0  0  0
 22 29  2  0  0  0  0
 22 74  1  0  0  0  0
 23 84  1  0  0  0  0
 24 85  1  0  0  0  0
 25 27  2  0  0  0  0
 25 84  1  0  0  0  0
 26 86  1  0  0  0  0
 27 87  1  0  0  0  0
 28 67  2  0  0  0  0
 29 51  1  0  0  0  0
 29 88  1  0  0  0  0
 30 68  1  0  0  0  0
 30 72  1  0  0  0  0
 31 69  1  0  0  0  0
 31 88  1  0  0  0  0
 32 41  1  0  0  0  0
 32 52  1  0  0  0  0
 32 78  2  0  0  0  0
 33 73  1  0  0  0  0
 33 79  2  0  0  0  0
 34 53  1  0  0  0  0
 34 75  1  0  0  0  0
 34 80  2  0  0  0  0
 35 64  1  0  0  0  0
 35 70  1  0  0  0  0
 35 81  2  0  0  0  0
 36 65  1  0  0  0  0
 36 76  1  0  0  0  0
 36 82  2  0  0  0  0
 37 71  1  0  0  0  0
 37 74  1  0  0  0  0
 37 83  2  0  0  0  0
 38 42  1  0  0  0  0
 39 53  1  0  0  0  0
 40 70  1  0  0  0  0
 41 69  1  0  0  0  0
 42 44  1  0  0  0  0
 43 47  1  0  0  0  0
 43 48  1  0  0  0  0
 44 50  1  0  0  0  0
 45 46  1  0  0  0  0
 45 51  1  0  0  0  0
 46 51  1  0  0  0  0
 47 54  1  0  0  0  0
 48 71  1  0  0  0  0
 49 54  1  0  0  0  0
 49 71  1  0  0  0  0
 50 75  1  0  0  0  0
 52 55  1  0  0  0  0
 52 85  1  0  0  0  0
 53 70  1  0  0  0  0
 54 68  1  0  0  0  0
 55 62  1  0  0  0  0
 55 69  1  0  0  0  0
 56 63  1  0  0  0  0
 57 65  1  0  0  0  0
 58 66  1  0  0  0  0
 59 66  1  0  0  0  0
 60 66  1  0  0  0  0
 61 77  1  0  0  0  0
 62 63  1  0  0  0  0
 64 66  1  0  0  0  0
 64 76  1  0  0  0  0
 65 77  1  0  0  0  0
 67 68  1  0  0  0  0
M  CHG  1  77   1
M  ISO  4  37 100  52 101  74 100  85 101
M  END
> <Batch ID>
0155

> <Smiles>
CCCC1N(c2cc([100NH:0][100C:0](=O)N3CCCC(n4nc(-c5ccc(Oc6ccc(F)cc6F)cc5)c(C(N)=O)c4N)C3)c(C3CC3)s2)CC(=O)[101CH:1]1[101O:1]c1ccc2c(c1)CN(C(=O)C(NC(=O)C(C)NC)C(C)(C)C)C(C(=O)NC1CCCc3ccccc31)C2

> <Shape>
0.233

> <Color>
0.099

> <Negative vol penalty>
0.000

$$$$

  -OEChem-04052303363D

 83 91  0     1  0  0  0  0  0999 V2000
  -26.7868  -20.4089   27.5877 C   0  0  0  0  0  0  0  0  0  0  0  0
  -27.1442  -21.0440   26.4026 C   0  0  0  0  0  0  0  0  0  0  0  0
  -31.1980  -20.9587   15.3561 C   0  0  0  0  0  0  0  0  0  0  0  0
  -25.9033  -12.9304   21.7138 C   0  0  0  0  0  0  0  0  0  0  0  0
  -25.9201  -13.4526   19.3550 C   0  0  0  0  0  0  0  0  0  0  0  0
  -30.9371  -22.3255   15.2599 C   0  0  0  0  0  0  0  0  0  0  0  0
  -25.4515  -20.3828   27.9880 C   0  0  0  0  0  0  0  0  0  0  0  0
  -26.1662  -21.6523   25.6165 C   0  0  0  0  0  0  0  0  0  0  0  0
  -27.5660  -26.2338   23.9746 C   0  0  0  0  0  0  0  0  0  0  0  0
  -30.9335  -20.2801   16.5457 C   0  0  0  0  0  0  0  0  0  0  0  0
  -24.7651  -12.1450   21.5319 C   0  0  0  0  0  0  0  0  0  0  0  0
  -24.7819  -12.6671   19.1730 C   0  0  0  0  0  0  0  0  0  0  0  0
  -28.4507  -26.2815   22.8981 C   0  0  0  0  0  0  0  0  0  0  0  0
  -24.0316   -9.0507   20.3829 C   0  0  0  0  0  0  0  0  0  0  0  0
  -24.0022   -7.7995   20.9986 C   0  0  0  0  0  0  0  0  0  0  0  0
  -30.1474  -22.3353   17.5432 C   0  0  0  0  0  0  0  0  0  0  0  0
  -26.6047  -26.7187   21.4081 C   0  0  0  0  0  0  0  0  0  0  0  0
  -22.0374   -8.4571   22.2412 C   0  0  0  0  0  0  0  0  0  0  0  0
  -26.4808  -13.5843   20.6254 C   0  0  0  0  0  0  0  0  0  0  0  0
  -30.4118  -23.0139   16.3535 C   0  0  0  0  0  0  0  0  0  0  0  0
  -28.9986  -13.9806   20.7301 C   0  0  0  0  0  0  0  0  0  0  0  0
  -24.4580  -20.9995   27.2113 C   0  0  0  0  0  0  0  0  0  0  0  0
  -26.1904  -26.4177   23.7740 C   0  0  0  0  0  0  0  0  0  0  0  0
  -24.8162  -21.6333   26.0061 C   0  0  0  0  0  0  0  0  0  0  0  0
  -25.7049  -26.6755   22.4840 C   0  0  0  0  0  0  0  0  0  0  0  0
  -30.4083  -20.9684   17.6393 C   0  0  0  0  0  0  0  0  0  0  0  0
  -24.2044  -12.0132   20.2615 C   0  0  0  0  0  0  0  0  0  0  0  0
  -27.9698  -26.5211   21.6142 C   0  0  0  0  0  0  0  0  0  0  0  0
  -23.0639  -10.0052   20.6963 C   0  0  0  0  0  0  0  0  0  0  0  0
  -23.0051   -7.5026   21.9278 C   0  0  0  0  0  0  0  0  0  0  0  0
  -22.0668   -9.7083   21.6255 C   0  0  0  0  0  0  0  0  0  0  0  0
  -27.6562  -14.3963   20.8128 C   0  0  0  0  0  0  0  0  0  0  0  0
  -29.7264  -15.1170   20.9859 C   0  0  0  0  0  0  0  0  0  0  0  0
  -30.1343  -24.4702   16.2496 C   0  0  0  0  0  0  0  0  0  0  0  0
  -29.5394  -12.6832   20.4472 C   0  0  0  0  0  0  0  0  0  0  0  0
  -23.5998  -24.6309   24.2208 C   0  0  0  0  0  0  0  0  0  0  0  0
  -29.4261  -25.5575   18.4421 C   0  0  0  0  0  0  0  0  0  0  0  0
  -22.0520  -27.3576   23.3892 C   0  0  0  0  0  0  0  0  0  0  0  0
  -22.1383  -30.3579   21.7650 C   0  0  0  0  0  0  0  0  0  0  0  0
  -29.6182  -20.8116   20.0263 C   0  0  0  0  0  0  0  0  0  0  0  0
  -23.0216  -20.9042   27.6610 C   0  0  0  0  0  0  0  0  0  0  0  0
  -25.2524  -26.3898   24.9495 C   0  0  0  0  0  0  0  0  0  0  0  0
  -24.2394  -26.8997   22.2184 C   0  0  0  0  0  0  0  0  0  0  0  0
  -22.0969  -21.8964   26.9605 C   0  0  0  0  0  0  0  0  0  0  0  0
  -28.7768  -19.4382   23.2016 C   0  0  0  0  0  0  0  0  0  0  0  0
  -22.3512  -21.8929   25.4565 C   0  0  0  0  0  0  0  0  0  0  0  0
  -28.5330  -17.9571   22.9030 C   0  0  0  0  0  0  0  0  0  0  0  0
  -28.2832  -20.3342   22.0671 C   0  0  0  0  0  0  0  0  0  0  0  0
  -28.5517  -18.5072   20.4364 C   0  0  0  0  0  0  0  0  0  0  0  0
  -23.7876  -22.3259   25.1388 C   0  0  1  0  0  0  0  0  0  0  0  0
  -23.8111  -26.0801   24.5566 C   0  0  1  0  0  0  0  0  0  0  0  0
  -29.0911  -17.5614   21.5219 C   0  0  2  0  0  0  0  0  0  0  0  0
  -20.7089  -32.3495   21.2290 C   0  0  0  0  0  0  0  0  0  0  0  0
  -20.5787  -25.7275   21.2722 C   0  0  0  0  0  0  0  0  0  0  0  0
  -19.9126  -27.8791   20.1790 C   0  0  0  0  0  0  0  0  0  0  0  0
  -19.1523  -27.3740   22.5005 C   0  0  0  0  0  0  0  0  0  0  0  0
  -23.9607  -32.1972   23.1983 C   0  0  0  0  0  0  0  0  0  0  0  0
  -29.0086  -25.0690   17.0694 C   0  0  0  0  0  0  0  0  0  0  0  0
  -28.3253  -26.1622   19.2903 C   0  0  0  0  0  0  0  0  0  1  0  0
  -21.5765  -27.9636   22.0909 C   0  0  1  0  0  0  0  0  0  0  0  0
  -21.7161  -31.7502   22.1980 C   0  0  2  0  0  0  0  0  0  0  0  0
  -20.3325  -27.2299   21.5150 C   0  0  0  0  0  0  0  0  0  0  0  0
  -27.5354  -15.6954   21.0990 N   0  0  0  0  0  0  0  0  0  0  0  0
  -30.8186  -25.2603   15.4849 N   0  0  0  0  0  0  0  0  0  0  0  0
  -28.8112  -16.1057   21.1984 N   0  0  0  0  0  0  0  0  0  0  0  0
  -23.3614  -26.8565   23.3994 N   0  0  0  0  0  0  0  0  0  0  0  0
  -28.8564  -19.9024   20.7904 N   0  0  0  0  0  0  0  0  0  0  0  0
  -31.0534  -15.3570   21.0477 N   0  0  0  0  0  0  0  0  0  0  0  0
  -28.6505  -11.6265   20.2077 N   0  0  0  0  0  0  0  0  0  0  0  0
  -30.1394  -20.2789   18.8476 N   0  0  0  0  0  0  0  0  0  0  0  0
  -23.9181  -23.7631   25.2480 N   0  0  0  0  0  0  0  0  0  0  0  0
  -21.3638  -29.3823   22.3563 N   0  0  0  0  0  0  0  0  0  0  0  0
  -22.8997  -32.6534   22.2639 N   0  3  0  0  0  0  0  0  0  0  0  0
  -30.7743  -12.4639   20.4241 O   0  0  0  0  0  0  0  0  0  0  0  0
  -23.1777  -24.3229   23.1123 O   0  0  0  0  0  0  0  0  0  0  0  0
  -30.5846  -25.4692   18.8461 O   0  0  0  0  0  0  0  0  0  0  0  0
  -21.2922  -27.3364   24.3607 O   0  0  0  0  0  0  0  0  0  0  0  0
  -23.0604  -30.1560   20.9779 O   0  0  0  0  0  0  0  0  0  0  0  0
  -29.8179  -21.9689   20.4040 O   0  0  0  0  0  0  0  0  0  0  0  0
  -23.0939  -11.2467   20.0836 O   0  0  0  0  0  0  0  0  0  0  0  0
  -28.8310  -26.5675   20.5616 O   0  0  0  0  0  0  0  0  0  1  0  0
  -22.9762   -6.3005   22.5179 F   0  0  0  0  0  0  0  0  0  0  0  0
  -21.1337  -10.6208   21.9298 F   0  0  0  0  0  0  0  0  0  0  0  0
  1  2  1  0  0  0  0
  1  7  2  0  0  0  0
  2  8  2  0  0  0  0
  3  6  2  0  0  0  0
  3 10  1  0  0  0  0
  4 11  2  0  0  0  0
  4 19  1  0  0  0  0
  5 12  1  0  0  0  0
  5 19  2  0  0  0  0
  6 20  1  0  0  0  0
  7 22  1  0  0  0  0
  8 24  1  0  0  0  0
  9 13  2  0  0  0  0
  9 23  1  0  0  0  0
 10 26  2  0  0  0  0
 11 27  1  0  0  0  0
 12 27  2  0  0  0  0
 13 28  1  0  0  0  0
 14 15  2  0  0  0  0
 14 29  1  0  0  0  0
 15 30  1  0  0  0  0
 16 20  2  0  0  0  0
 16 26  1  0  0  0  0
 17 25  1  0  0  0  0
 17 28  2  0  0  0  0
 18 30  2  0  0  0  0
 18 31  1  0  0  0  0
 19 32  1  0  0  0  0
 20 34  1  0  0  0  0
 21 32  1  0  0  0  0
 21 33  2  0  0  0  0
 21 35  1  0  0  0  0
 22 24  2  0  0  0  0
 22 41  1  0  0  0  0
 23 25  2  0  0  0  0
 23 42  1  0  0  0  0
 24 50  1  0  0  0  0
 25 43  1  0  0  0  0
 26 70  1  0  0  0  0
 27 80  1  0  0  0  0
 28 81  1  0  0  0  0
 29 31  2  0  0  0  0
 29 80  1  0  0  0  0
 30 82  1  0  0  0  0
 31 83  1  0  0  0  0
 32 63  2  0  0  0  0
 33 65  1  0  0  0  0
 33 68  1  0  0  0  0
 34 58  1  0  0  0  0
 34 64  2  0  0  0  0
 35 69  1  0  0  0  0
 35 74  2  0  0  0  0
 36 51  1  0  0  0  0
 36 71  1  0  0  0  0
 36 75  2  0  0  0  0
 37 58  1  0  0  0  0
 37 59  1  0  0  0  0
 37 76  2  0  0  0  0
 38 60  1  0  0  0  0
 38 66  1  0  0  0  0
 38 77  2  0  0  0  0
 39 61  1  0  0  0  0
 39 72  1  0  0  0  0
 39 78  2  0  0  0  0
 40 67  1  0  0  0  0
 40 70  1  0  0  0  0
 40 79  2  0  0  0  0
 41 44  1  0  0  0  0
 42 51  1  0  0  0  0
 43 66  1  0  0  0  0
 44 46  1  0  0  0  0
 45 47  1  0  0  0  0
 45 48  1  0  0  0  0
 46 50  1  0  0  0  0
 47 52  1  0  0  0  0
 48 67  1  0  0  0  0
 49 52  1  0  0  0  0
 49 67  1  0  0  0  0
 50 71  1  0  0  0  0
 51 66  1  0  0  0  0
 52 65  1  0  0  0  0
 53 61  1  0  0  0  0
 54 62  1  0  0  0  0
 55 62  1  0  0  0  0
 56 62  1  0  0  0  0
 57 73  1  0  0  0  0
 59 81  1  0  0  0  0
 60 62  1  0  0  0  0
 60 72  1  0  0  0  0
 61 73  1  0  0  0  0
 63 65  1  0  0  0  0
M  CHG  1  73   1
M  ISO  4  40 100  59 101  70 100  81 101
M  END
> <Batch ID>
0155

> <Smiles>
CNC(C)C(=O)NC(C(=O)N1Cc2cc([101O:1][101CH2:1]C(=O)CC(=N)c3cccc([100NH:0][100C:0](=O)N4CCCC(n5nc(-c6ccc(Oc7ccc(F)cc7F)cc6)c(C(N)=O)c5N)C4)c3)ccc2CC1C(=O)NC1CCCc2ccccc21)C(C)(C)C

> <Shape>
0.246

> <Color>
0.079

> <Negative vol penalty>
0.000

$$$$

  -OEChem-04052303363D

 85 94  0     1  0  0  0  0  0999 V2000
  -22.4396  -21.9958   10.4578 C   0  0  0  0  0  0  0  0  0  0  0  0
  -23.5269  -21.4928   11.1651 C   0  0  0  0  0  0  0  0  0  0  0  0
  -23.0559   -9.8331   19.9385 C   0  0  0  0  0  0  0  0  0  0  0  0
  -23.8136   -9.8352   22.2327 C   0  0  0  0  0  0  0  0  0  0  0  0
  -22.2767  -23.3735   10.3190 C   0  0  0  0  0  0  0  0  0  0  0  0
  -24.4526  -22.3674   11.7332 C   0  0  0  0  0  0  0  0  0  0  0  0
  -27.5003  -21.5978   16.9890 C   0  0  0  0  0  0  0  0  0  0  0  0
  -22.3052   -8.6842   20.1875 C   0  0  0  0  0  0  0  0  0  0  0  0
  -23.0628   -8.6862   22.4816 C   0  0  0  0  0  0  0  0  0  0  0  0
  -28.7898  -21.1470   17.2683 C   0  0  0  0  0  0  0  0  0  0  0  0
  -19.3510   -7.9041   21.6357 C   0  0  0  0  0  0  0  0  0  0  0  0
  -18.0444   -7.8655   21.1492 C   0  0  0  0  0  0  0  0  0  0  0  0
  -31.8184  -17.4685   21.7166 C   0  0  0  0  0  0  0  0  0  0  0  0
  -29.5603  -23.4308   17.3670 C   0  0  0  0  0  0  0  0  0  0  0  0
  -18.5943   -5.9196   19.8269 C   0  0  0  0  0  0  0  0  0  0  0  0
  -23.8102  -10.4086   20.9611 C   0  0  0  0  0  0  0  0  0  0  0  0
  -31.9122  -18.7267   22.3787 C   0  0  0  0  0  0  0  0  0  0  0  0
  -24.1665  -12.9318   20.8421 C   0  0  0  0  0  0  0  0  0  0  0  0
  -23.1956  -24.2656   10.8938 C   0  0  0  0  0  0  0  0  0  0  0  0
  -27.2330  -22.9704   16.8857 C   0  0  0  0  0  0  0  0  0  0  0  0
  -24.3025  -23.7584   11.6007 C   0  0  0  0  0  0  0  0  0  0  0  0
  -28.2661  -23.8965   17.0889 C   0  0  0  0  0  0  0  0  0  0  0  0
  -22.3087   -8.1108   21.4590 C   0  0  0  0  0  0  0  0  0  0  0  0
  -29.8206  -22.0635   17.4544 C   0  0  0  0  0  0  0  0  0  0  0  0
  -20.2794   -6.9505   21.2178 C   0  0  0  0  0  0  0  0  0  0  0  0
  -17.6660   -6.8732   20.2448 C   0  0  0  0  0  0  0  0  0  0  0  0
  -19.9010   -5.9582   20.3135 C   0  0  0  0  0  0  0  0  0  0  0  0
  -24.5863  -11.5951   20.7044 C   0  0  0  0  0  0  0  0  0  0  0  0
  -25.2633  -13.6751   20.4801 C   0  0  0  0  0  0  0  0  0  0  0  0
  -30.6037  -16.8573   21.9365 C   0  0  0  0  0  0  0  0  0  0  0  0
  -30.7652  -19.0294   23.0793 C   0  0  0  0  0  0  0  0  0  0  0  0
  -33.0984  -19.5993   22.3187 C   0  0  0  0  0  0  0  0  0  0  0  0
  -22.8986  -13.4548   21.2599 C   0  0  0  0  0  0  0  0  0  0  0  0
  -26.1861  -24.8840   14.5736 C   0  0  0  0  0  0  0  0  0  0  0  0
  -26.1805  -27.0992   16.9433 C   0  0  0  0  0  0  0  0  0  0  0  0
  -27.4098  -28.1185   19.9593 C   0  0  0  0  0  0  0  0  0  0  0  0
  -30.7353  -14.6892   20.6604 C   0  0  0  0  0  0  0  0  0  0  0  0
  -23.0034  -25.7457   10.6767 C   0  0  0  0  0  0  0  0  0  0  0  0
  -25.8312  -23.4413   16.6104 C   0  0  0  0  0  0  0  0  0  0  0  0
  -28.0272  -25.3814   17.0087 C   0  0  0  0  0  0  0  0  0  0  0  0
  -23.8249  -26.6125   11.6276 C   0  0  0  0  0  0  0  0  0  0  0  0
  -29.6093  -12.2826   18.2903 C   0  0  0  0  0  0  0  0  0  0  0  0
  -25.2619  -26.1067   11.7043 C   0  0  0  0  0  0  0  0  0  0  0  0
  -28.1676  -11.9992   18.7184 C   0  0  0  0  0  0  0  0  0  0  0  0
  -33.8084  -22.4422   20.2112 C   0  0  0  0  0  0  0  0  0  0  0  0
  -30.5246  -12.5058   19.4929 C   0  0  0  0  0  0  0  0  0  0  0  0
  -34.3310  -21.4221   21.2161 C   0  0  0  0  0  0  0  0  0  0  0  0
  -32.1587  -20.7045   20.3296 C   0  0  0  0  0  0  0  0  0  0  0  0
  -28.6205  -13.2407   20.8726 C   0  0  0  0  0  0  0  0  0  0  0  0
  -25.3146  -24.6755   12.2524 C   0  0  1  0  0  0  0  0  0  0  0  0
  -25.7783  -24.8467   16.0193 C   0  0  1  0  0  0  0  0  0  0  0  0
  -32.8656  -21.6211   19.3279 C   0  0  1  0  0  0  0  0  0  0  0  0
  -27.6478  -13.0734   19.6937 C   0  0  2  0  0  0  0  0  0  0  0  0
  -27.2437  -29.9891   21.6238 C   0  0  0  0  0  0  0  0  0  0  0  0
  -27.8861  -28.8622   15.1286 C   0  0  0  0  0  0  0  0  0  0  0  0
  -28.4694  -30.2423   17.1344 C   0  0  0  0  0  0  0  0  0  0  0  0
  -26.0965  -30.0786   16.3825 C   0  0  0  0  0  0  0  0  0  0  0  0
  -26.4362  -26.2992   22.0809 C   0  0  0  0  0  0  0  0  0  0  0  0
  -31.9056  -22.4768   18.5211 C   0  0  0  0  0  0  0  0  0  1  0  0
  -27.1866  -28.0837   17.4888 C   0  0  1  0  0  0  0  0  0  0  0  0
  -26.7157  -28.6239   21.2112 C   0  0  2  0  0  0  0  0  0  0  0  0
  -27.4148  -29.2887   16.5332 C   0  0  0  0  0  0  0  0  0  0  0  0
  -25.8510  -11.4922   20.2874 N   0  0  0  0  0  0  0  0  0  0  0  0
  -26.2354  -12.7736   20.1597 N   0  0  0  0  0  0  0  0  0  0  0  0
  -33.1898  -20.5049   21.3621 N   0  0  0  0  0  0  0  0  0  0  0  0
  -26.6409  -25.7920   16.7308 N   0  0  0  0  0  0  0  0  0  0  0  0
  -29.9707  -13.5395   20.3701 N   0  0  0  0  0  0  0  0  0  0  0  0
  -25.4814  -15.0054   20.4076 N   0  0  0  0  0  0  0  0  0  0  0  0
  -21.8812  -12.5513   21.5959 N   0  0  0  0  0  0  0  0  0  0  0  0
  -30.0924  -15.6177   21.4785 N   0  0  0  0  0  0  0  0  0  0  0  0
  -25.1442  -24.6782   13.6896 N   0  0  0  0  0  0  0  0  0  0  0  0
  -26.7139  -28.4561   18.8178 N   0  0  0  0  0  0  0  0  0  0  0  0
  -34.0572  -19.4622   23.2298 N   0  3  0  0  0  0  0  0  0  0  0  0
  -26.9302  -27.6759   22.3409 N   0  3  0  0  0  0  0  0  0  0  0  0
  -22.6694  -14.6867   21.3173 O   0  0  0  0  0  0  0  0  0  0  0  0
  -27.3590  -25.0862   14.2818 O   0  0  0  0  0  0  0  0  0  0  0  0
  -25.0267  -27.4744   16.7207 O   0  0  0  0  0  0  0  0  0  0  0  0
  -28.4658  -27.4904   19.9907 O   0  0  0  0  0  0  0  0  0  0  0  0
  -31.8658  -14.8516   20.1939 O   0  0  0  0  0  0  0  0  0  0  0  0
  -21.5760   -6.9898   21.7024 O   0  0  0  0  0  0  0  0  0  0  0  0
  -31.0802  -21.6262   17.7264 O   0  0  0  0  0  0  0  0  0  1  0  0
  -16.4107   -6.8353   19.7789 F   0  0  0  0  0  0  0  0  0  0  0  0
  -20.7881   -5.0387   19.9093 F   0  0  0  0  0  0  0  0  0  0  0  0
  -30.5911  -20.1501   23.7884 F   0  0  0  0  0  0  0  0  0  0  0  0
  -29.5824  -17.7993   22.9376 S   0  0  0  0  0  0  0  0  0  0  0  0
  1  2  1  0  0  0  0
  1  5  2  0  0  0  0
  2  6  2  0  0  0  0
  3  8  2  0  0  0  0
  3 16  1  0  0  0  0
  4  9  1  0  0  0  0
  4 16  2  0  0  0  0
  5 19  1  0  0  0  0
  6 21  1  0  0  0  0
  7 10  2  0  0  0  0
  7 20  1  0  0  0  0
  8 23  1  0  0  0  0
  9 23  2  0  0  0  0
 10 24  1  0  0  0  0
 11 12  2  0  0  0  0
 11 25  1  0  0  0  0
 12 26  1  0  0  0  0
 13 17  1  0  0  0  0
 13 30  2  0  0  0  0
 14 22  1  0  0  0  0
 14 24  2  0  0  0  0
 15 26  2  0  0  0  0
 15 27  1  0  0  0  0
 16 28  1  0  0  0  0
 17 31  2  0  0  0  0
 17 32  1  0  0  0  0
 18 28  1  0  0  0  0
 18 29  2  0  0  0  0
 18 33  1  0  0  0  0
 19 21  2  0  0  0  0
 19 38  1  0  0  0  0
 20 22  2  0  0  0  0
 20 39  1  0  0  0  0
 21 50  1  0  0  0  0
 22 40  1  0  0  0  0
 23 80  1  0  0  0  0
 24 81  1  0  0  0  0
 25 27  2  0  0  0  0
 25 80  1  0  0  0  0
 26 82  1  0  0  0  0
 27 83  1  0  0  0  0
 28 63  2  0  0  0  0
 29 64  1  0  0  0  0
 29 68  1  0  0  0  0
 30 70  1  0  0  0  0
 30 85  1  0  0  0  0
 31 84  1  0  0  0  0
 31 85  1  0  0  0  0
 32 65  1  0  0  0  0
 32 73  2  0  0  0  0
 33 69  1  0  0  0  0
 33 75  2  0  0  0  0
 34 51  1  0  0  0  0
 34 71  1  0  0  0  0
 34 76  2  0  0  0  0
 35 60  1  0  0  0  0
 35 66  1  0  0  0  0
 35 77  2  0  0  0  0
 36 61  1  0  0  0  0
 36 72  1  0  0  0  0
 36 78  2  0  0  0  0
 37 67  1  0  0  0  0
 37 70  1  0  0  0  0
 37 79  2  0  0  0  0
 38 41  1  0  0  0  0
 39 51  1  0  0  0  0
 40 66  1  0  0  0  0
 41 43  1  0  0  0  0
 42 44  1  0  0  0  0
 42 46  1  0  0  0  0
 43 50  1  0  0  0  0
 44 53  1  0  0  0  0
 45 47  1  0  0  0  0
 45 52  1  0  0  0  0
 46 67  1  0  0  0  0
 47 65  1  0  0  0  0
 48 52  1  0  0  0  0
 48 65  1  0  0  0  0
 49 53  1  0  0  0  0
 49 67  1  0  0  0  0
 50 71  1  0  0  0  0
 51 66  1  0  0  0  0
 52 59  1  0  0  0  0
 53 64  1  0  0  0  0
 54 61  1  0  0  0  0
 55 62  1  0  0  0  0
 56 62  1  0  0  0  0
 57 62  1  0  0  0  0
 58 74  1  0  0  0  0
 59 81  1  0  0  0  0
 60 62  1  0  0  0  0
 60 72  1  0  0  0  0
 61 74  1  0  0  0  0
 63 64  1  0  0  0  0
M  CHG  2  73   1  74   1
M  ISO  4  37 100  59 101  70 100  81 101
M  END
> <Batch ID>
0155

> <Smiles>
CNC(C)C(=O)NC(C(=O)N1Cc2cc([101O:1][101CH2:1]C3CCN(C(=N)c4cc([100NH:0][100C:0](=O)N5CCCC(n6nc(-c7ccc(Oc8ccc(F)cc8F)cc7)c(C(N)=O)c6N)C5)sc4F)C3)ccc2CC1C(=O)NC1CCCc2ccccc21)C(C)(C)C

> <Shape>
0.196

> <Color>
0.201

> <Negative vol penalty>
0.000

$$$$

  -OEChem-04052303363D

 84 92  0     1  0  0  0  0  0999 V2000
  -25.2777  -30.7396   28.1756 C   0  0  0  0  0  0  0  0  0  0  0  0
  -26.3901  -30.3905   27.4165 C   0  0  0  0  0  0  0  0  0  0  0  0
  -24.4881   -9.5620   21.4609 C   0  0  0  0  0  0  0  0  0  0  0  0
  -24.8516  -10.6388   23.5929 C   0  0  0  0  0  0  0  0  0  0  0  0
  -24.0243  -30.2213   27.8526 C   0  0  0  0  0  0  0  0  0  0  0  0
  -26.2498  -29.5220   26.3346 C   0  0  0  0  0  0  0  0  0  0  0  0
  -28.9723  -28.2094   19.8399 C   0  0  0  0  0  0  0  0  0  0  0  0
  -24.1759   -8.3706   22.1157 C   0  0  0  0  0  0  0  0  0  0  0  0
  -24.5394   -9.4474   24.2478 C   0  0  0  0  0  0  0  0  0  0  0  0
  -29.5104  -27.1656   19.0884 C   0  0  0  0  0  0  0  0  0  0  0  0
  -22.9325   -5.1438   23.2365 C   0  0  0  0  0  0  0  0  0  0  0  0
  -21.8160   -4.4340   22.7945 C   0  0  0  0  0  0  0  0  0  0  0  0
  -27.2829  -26.3945   18.5756 C   0  0  0  0  0  0  0  0  0  0  0  0
  -29.5394  -20.1156   20.3036 C   0  0  0  0  0  0  0  0  0  0  0  0
  -20.4091   -6.3318   23.3010 C   0  0  0  0  0  0  0  0  0  0  0  0
  -24.8260  -10.6960   22.1994 C   0  0  0  0  0  0  0  0  0  0  0  0
  -24.2592  -12.9541   21.1566 C   0  0  0  0  0  0  0  0  0  0  0  0
  -23.8670  -29.3536   26.7604 C   0  0  0  0  0  0  0  0  0  0  0  0
  -27.5833  -28.3474   19.9740 C   0  0  0  0  0  0  0  0  0  0  0  0
  -24.9934  -28.9905   25.9976 C   0  0  0  0  0  0  0  0  0  0  0  0
  -26.7297  -27.4424   19.3272 C   0  0  0  0  0  0  0  0  0  0  0  0
  -29.0754  -21.4544   20.4533 C   0  0  0  0  0  0  0  0  0  0  0  0
  -24.2016   -8.3134   23.5092 C   0  0  0  0  0  0  0  0  0  0  0  0
  -28.6658  -26.2562   18.4585 C   0  0  0  0  0  0  0  0  0  0  0  0
  -22.7873   -6.4475   23.7108 C   0  0  0  0  0  0  0  0  0  0  0  0
  -20.5543   -5.0280   22.8267 C   0  0  0  0  0  0  0  0  0  0  0  0
  -21.5256   -7.0415   23.7430 C   0  0  0  0  0  0  0  0  0  0  0  0
  -25.1490  -11.9268   21.5235 C   0  0  0  0  0  0  0  0  0  0  0  0
  -25.0531  -13.8947   20.5471 C   0  0  0  0  0  0  0  0  0  0  0  0
  -28.6090  -19.1946   20.7323 C   0  0  0  0  0  0  0  0  0  0  0  0
  -27.8079  -21.5057   20.9904 C   0  0  0  0  0  0  0  0  0  0  0  0
  -22.8417  -13.0496   21.3495 C   0  0  0  0  0  0  0  0  0  0  0  0
  -25.5476  -28.2792   22.4143 C   0  0  0  0  0  0  0  0  0  0  0  0
  -23.3994  -29.1383   20.1406 C   0  0  0  0  0  0  0  0  0  0  0  0
  -22.5390  -29.1867   16.8385 C   0  0  0  0  0  0  0  0  0  0  0  0
  -29.6996  -16.9564   20.3483 C   0  0  0  0  0  0  0  0  0  0  0  0
  -22.5003  -28.7814   26.4787 C   0  0  0  0  0  0  0  0  0  0  0  0
  -27.0181  -29.4944   20.7661 C   0  0  0  0  0  0  0  0  0  0  0  0
  -25.2311  -27.5585   19.4232 C   0  0  0  0  0  0  0  0  0  0  0  0
  -22.3735  -28.1629   25.0889 C   0  0  0  0  0  0  0  0  0  0  0  0
  -29.8774  -13.6521   19.0341 C   0  0  0  0  0  0  0  0  0  0  0  0
  -23.5717  -27.2669   24.7920 C   0  0  0  0  0  0  0  0  0  0  0  0
  -28.5899  -12.9932   19.5344 C   0  0  0  0  0  0  0  0  0  0  0  0
  -30.4648  -14.6086   20.0704 C   0  0  0  0  0  0  0  0  0  0  0  0
  -28.2449  -14.9646   21.0776 C   0  0  0  0  0  0  0  0  0  0  0  0
  -24.8775  -28.0708   24.8015 C   0  0  1  0  0  0  0  0  0  0  0  0
  -25.5972  -29.2379   21.2584 C   0  0  1  0  0  0  0  0  0  0  0  0
  -27.5810  -14.0417   20.0427 C   0  0  2  0  0  0  0  0  0  0  0  0
  -20.7060  -29.9235   15.2910 C   0  0  0  0  0  0  0  0  0  0  0  0
  -21.7001  -26.7640   21.0269 C   0  0  0  0  0  0  0  0  0  0  0  0
  -20.4125  -26.9772   18.8903 C   0  0  0  0  0  0  0  0  0  0  0  0
  -20.4069  -28.8485   20.5399 C   0  0  0  0  0  0  0  0  0  0  0  0
  -30.1356  -22.9747   16.1297 C   0  0  0  0  0  0  0  0  0  0  0  0
  -28.5041  -21.5283   17.3182 C   0  0  0  0  0  0  0  0  0  0  0  0
  -24.3485  -31.0191   15.3801 C   0  0  0  0  0  0  0  0  0  0  0  0
  -30.4028  -22.6960   18.6028 C   0  0  0  0  0  0  0  0  0  0  0  0
  -28.4314  -24.0281   17.6607 C   0  0  0  0  0  0  0  0  0  1  0  0
  -29.8935  -22.6636   20.0621 C   0  0  2  0  0  0  0  0  0  0  0  0
  -22.4948  -28.3936   19.1887 C   0  0  1  0  0  0  0  0  0  0  0  0
  -22.0240  -30.3031   15.9480 C   0  0  2  0  0  0  0  0  0  0  0  0
  -21.2818  -27.7422   19.9110 C   0  0  0  0  0  0  0  0  0  0  0  0
  -29.3522  -22.8058   17.4539 C   0  0  0  0  0  0  0  0  0  0  0  0
  -26.4116  -12.1898   21.1760 N   0  0  0  0  0  0  0  0  0  0  0  0
  -26.3209  -13.3930   20.5843 N   0  0  0  0  0  0  0  0  0  0  0  0
  -24.7269  -28.6932   20.2143 N   0  0  0  0  0  0  0  0  0  0  0  0
  -29.4534  -15.5757   20.5024 N   0  0  0  0  0  0  0  0  0  0  0  0
  -24.7836  -15.0936   19.9883 N   0  0  0  0  0  0  0  0  0  0  0  0
  -27.0805  -22.6197   21.2598 N   0  0  0  0  0  0  0  0  0  0  0  0
  -22.1825  -11.9941   21.9941 N   0  0  0  0  0  0  0  0  0  0  0  0
  -28.6529  -17.7787   20.7642 N   0  0  0  0  0  0  0  0  0  0  0  0
  -25.0190  -28.8196   23.5711 N   0  0  0  0  0  0  0  0  0  0  0  0
  -22.1284  -29.3451   18.1452 N   0  0  0  0  0  0  0  0  0  0  0  0
  -31.1025  -22.7893   20.9512 N   0  3  0  0  0  0  0  0  0  0  0  0
  -23.0129  -30.6083   14.8757 N   0  3  0  0  0  0  0  0  0  0  0  0
  -22.1768  -14.0343   20.9470 O   0  0  0  0  0  0  0  0  0  0  0  0
  -25.9571  -27.1337   22.2672 O   0  0  0  0  0  0  0  0  0  0  0  0
  -22.9467  -30.0847   20.7895 O   0  0  0  0  0  0  0  0  0  0  0  0
  -23.2328  -28.2643   16.4163 O   0  0  0  0  0  0  0  0  0  0  0  0
  -30.7498  -17.3774   19.8566 O   0  0  0  0  0  0  0  0  0  0  0  0
  -23.8968   -7.1511   24.1486 O   0  0  0  0  0  0  0  0  0  0  0  0
  -29.1884  -25.2361   17.7250 O   0  0  0  0  0  0  0  0  0  1  0  0
  -19.4825   -4.3469   22.4008 F   0  0  0  0  0  0  0  0  0  0  0  0
  -21.3801   -8.2941   24.1965 F   0  0  0  0  0  0  0  0  0  0  0  0
  -27.1828  -19.9443   21.3122 S   0  0  0  0  0  0  0  0  0  0  0  0
  1  2  1  0  0  0  0
  1  5  2  0  0  0  0
  2  6  2  0  0  0  0
  3  8  2  0  0  0  0
  3 16  1  0  0  0  0
  4  9  1  0  0  0  0
  4 16  2  0  0  0  0
  5 18  1  0  0  0  0
  6 20  1  0  0  0  0
  7 10  2  0  0  0  0
  7 19  1  0  0  0  0
  8 23  1  0  0  0  0
  9 23  2  0  0  0  0
 10 24  1  0  0  0  0
 11 12  2  0  0  0  0
 11 25  1  0  0  0  0
 12 26  1  0  0  0  0
 13 21  1  0  0  0  0
 13 24  2  0  0  0  0
 14 22  1  0  0  0  0
 14 30  2  0  0  0  0
 15 26  2  0  0  0  0
 15 27  1  0  0  0  0
 16 28  1  0  0  0  0
 17 28  1  0  0  0  0
 17 29  2  0  0  0  0
 17 32  1  0  0  0  0
 18 20  2  0  0  0  0
 18 37  1  0  0  0  0
 19 21  2  0  0  0  0
 19 38  1  0  0  0  0
 20 46  1  0  0  0  0
 21 39  1  0  0  0  0
 22 31  2  0  0  0  0
 22 58  1  0  0  0  0
 23 80  1  0  0  0  0
 24 81  1  0  0  0  0
 25 27  2  0  0  0  0
 25 80  1  0  0  0  0
 26 82  1  0  0  0  0
 27 83  1  0  0  0  0
 28 63  2  0  0  0  0
 29 64  1  0  0  0  0
 29 67  1  0  0  0  0
 30 70  1  0  0  0  0
 30 84  1  0  0  0  0
 31 68  1  0  0  0  0
 31 84  1  0  0  0  0
 32 69  1  0  0  0  0
 32 75  2  0  0  0  0
 33 47  1  0  0  0  0
 33 71  1  0  0  0  0
 33 76  2  0  0  0  0
 34 59  1  0  0  0  0
 34 65  1  0  0  0  0
 34 77  2  0  0  0  0
 35 60  1  0  0  0  0
 35 72  1  0  0  0  0
 35 78  2  0  0  0  0
 36 66  1  0  0  0  0
 36 70  1  0  0  0  0
 36 79  2  0  0  0  0
 37 40  1  0  0  0  0
 38 47  1  0  0  0  0
 39 65  1  0  0  0  0
 40 42  1  0  0  0  0
 41 43  1  0  0  0  0
 41 44  1  0  0  0  0
 42 46  1  0  0  0  0
 43 48  1  0  0  0  0
 44 66  1  0  0  0  0
 45 48  1  0  0  0  0
 45 66  1  0  0  0  0
 46 71  1  0  0  0  0
 47 65  1  0  0  0  0
 48 64  1  0  0  0  0
 49 60  1  0  0  0  0
 50 61  1  0  0  0  0
 51 61  1  0  0  0  0
 52 61  1  0  0  0  0
 53 62  1  0  0  0  0
 54 62  1  0  0  0  0
 55 74  1  0  0  0  0
 56 58  1  0  0  0  0
 56 62  1  0  0  0  0
 57 62  1  0  0  0  0
 57 81  1  0  0  0  0
 58 73  1  0  0  0  0
 59 61  1  0  0  0  0
 59 72  1  0  0  0  0
 60 74  1  0  0  0  0
 63 64  1  0  0  0  0
M  CHG  2  73   1  74   1
M  ISO  4  36 100  57 101  70 100  81 101
M  END
> <Batch ID>
0155

> <Smiles>
CNC(C)C(=O)NC(C(=O)N1Cc2cc([101O:1][101CH2:1]C(C)(C)CC(N)c3cc([100NH:0][100C:0](=O)N4CCCC(n5nc(-c6ccc(Oc7ccc(F)cc7F)cc6)c(C(N)=O)c5N)C4)sc3N)ccc2CC1C(=O)NC1CCCc2ccccc21)C(C)(C)C

> <Shape>
0.299

> <Color>
0.113

> <Negative vol penalty>
0.000

$$$$

  -OEChem-04052303363D

 86 95  0     1  0  0  0  0  0999 V2000
  -31.0167  -25.2171   18.9754 C   0  0  0  0  0  0  0  0  0  0  0  0
  -29.6279  -25.1444   19.0154 C   0  0  0  0  0  0  0  0  0  0  0  0
  -26.5046  -12.8855   19.3894 C   0  0  0  0  0  0  0  0  0  0  0  0
  -24.3810  -13.5157   20.3539 C   0  0  0  0  0  0  0  0  0  0  0  0
  -31.7054  -25.9202   19.9629 C   0  0  0  0  0  0  0  0  0  0  0  0
  -28.9272  -25.7737   20.0437 C   0  0  0  0  0  0  0  0  0  0  0  0
  -23.4336  -28.4520   19.6531 C   0  0  0  0  0  0  0  0  0  0  0  0
  -26.4502  -11.6669   20.0658 C   0  0  0  0  0  0  0  0  0  0  0  0
  -24.3266  -12.2970   21.0303 C   0  0  0  0  0  0  0  0  0  0  0  0
  -22.1510  -28.0135   19.9792 C   0  0  0  0  0  0  0  0  0  0  0  0
  -23.5558   -9.0854   20.3151 C   0  0  0  0  0  0  0  0  0  0  0  0
  -22.3473   -8.3891   20.2967 C   0  0  0  0  0  0  0  0  0  0  0  0
  -22.8791  -23.6981   22.8880 C   0  0  0  0  0  0  0  0  0  0  0  0
  -24.0952  -23.1893   22.3474 C   0  0  0  0  0  0  0  0  0  0  0  0
  -22.3290  -29.1054   22.1228 C   0  0  0  0  0  0  0  0  0  0  0  0
  -22.2437   -8.5054   22.7077 C   0  0  0  0  0  0  0  0  0  0  0  0
  -25.4700  -13.8100   19.5334 C   0  0  0  0  0  0  0  0  0  0  0  0
  -25.0257  -15.3517   17.5501 C   0  0  0  0  0  0  0  0  0  0  0  0
  -31.0122  -26.5666   20.9984 C   0  0  0  0  0  0  0  0  0  0  0  0
  -24.1791  -29.2127   20.5654 C   0  0  0  0  0  0  0  0  0  0  0  0
  -29.6075  -26.4850   21.0467 C   0  0  0  0  0  0  0  0  0  0  0  0
  -23.6199  -29.5546   21.8049 C   0  0  0  0  0  0  0  0  0  0  0  0
  -25.3613  -11.3726   20.8862 C   0  0  0  0  0  0  0  0  0  0  0  0
  -21.5996  -28.3377   21.2153 C   0  0  0  0  0  0  0  0  0  0  0  0
  -24.1083   -9.4916   21.5298 C   0  0  0  0  0  0  0  0  0  0  0  0
  -21.6912   -8.0991   21.4930 C   0  0  0  0  0  0  0  0  0  0  0  0
  -23.4522   -9.2016   22.7261 C   0  0  0  0  0  0  0  0  0  0  0  0
  -25.5259  -15.0692   18.8354 C   0  0  0  0  0  0  0  0  0  0  0  0
  -21.8795  -22.7504   22.8952 C   0  0  0  0  0  0  0  0  0  0  0  0
  -25.3262  -16.6766   17.3483 C   0  0  0  0  0  0  0  0  0  0  0  0
  -23.9788  -21.8717   21.9622 C   0  0  0  0  0  0  0  0  0  0  0  0
  -19.7168  -25.2714   23.0130 C   0  0  0  0  0  0  0  0  0  0  0  0
  -24.3498  -14.4932   16.6218 C   0  0  0  0  0  0  0  0  0  0  0  0
  -26.9346  -28.8097   22.0977 C   0  0  0  0  0  0  0  0  0  0  0  0
  -26.4017  -31.8633   23.0536 C   0  0  0  0  0  0  0  0  0  0  0  0
  -24.1575  -34.3687   23.6304 C   0  0  0  0  0  0  0  0  0  0  0  0
  -26.2524  -21.2643   21.0631 C   0  0  0  0  0  0  0  0  0  0  0  0
  -31.8030  -27.2748   22.0698 C   0  0  0  0  0  0  0  0  0  0  0  0
  -25.5509  -29.7006   20.1879 C   0  0  0  0  0  0  0  0  0  0  0  0
  -24.3710  -30.3859   22.8115 C   0  0  0  0  0  0  0  0  0  0  0  0
  -30.9638  -28.2287   22.9161 C   0  0  0  0  0  0  0  0  0  0  0  0
  -28.5091  -20.0278   18.6023 C   0  0  0  0  0  0  0  0  0  0  0  0
  -29.6641  -27.5568   23.3476 C   0  0  0  0  0  0  0  0  0  0  0  0
  -27.9512  -18.6441   18.2615 C   0  0  0  0  0  0  0  0  0  0  0  0
  -18.1534  -24.8615   21.2579 C   0  0  0  0  0  0  0  0  0  0  0  0
  -28.3482  -20.3544   20.0860 C   0  0  0  0  0  0  0  0  0  0  0  0
  -19.0316  -23.6378   21.4414 C   0  0  0  0  0  0  0  0  0  0  0  0
  -26.4262  -18.8242   20.2686 C   0  0  0  0  0  0  0  0  0  0  0  0
  -28.8104  -27.1753   22.1322 C   0  0  1  0  0  0  0  0  0  0  0  0
  -26.4197  -30.0348   21.3966 C   0  0  1  0  0  0  0  0  0  0  0  0
  -26.5069  -18.4771   18.7731 C   0  0  2  0  0  0  0  0  0  0  0  0
  -18.9480  -25.9952   21.9181 C   0  0  2  0  0  0  0  0  0  0  0  0
  -24.0164  -36.7381   24.4451 C   0  0  0  0  0  0  0  0  0  0  0  0
  -26.7626  -30.8951   25.9246 C   0  0  0  0  0  0  0  0  0  0  0  0
  -25.6950  -33.0220   26.7023 C   0  0  0  0  0  0  0  0  0  0  0  0
  -27.8357  -33.0979   25.4239 C   0  0  0  0  0  0  0  0  0  0  0  0
  -23.0565  -35.3127   21.0505 C   0  0  0  0  0  0  0  0  0  0  0  0
  -17.3531  -27.6601   21.5032 C   0  0  0  0  0  0  0  0  0  0  0  0
  -20.4643  -22.8882   23.3773 C   0  0  0  0  0  0  0  0  0  0  0  0
  -19.9141  -26.6795   20.9592 C   0  0  0  0  0  0  0  0  0  1  0  0
  -25.6923  -32.5105   24.2184 C   0  0  1  0  0  0  0  0  0  0  0  0
  -24.1581  -35.8333   23.2310 C   0  0  2  0  0  0  0  0  0  0  0  0
  -26.4827  -32.3641   25.5493 C   0  0  0  0  0  0  0  0  0  0  0  0
  -26.1007  -16.1294   19.4095 N   0  0  0  0  0  0  0  0  0  0  0  0
  -25.9636  -17.0910   18.4806 N   0  0  0  0  0  0  0  0  0  0  0  0
  -19.7474  -23.9223   22.6633 N   0  0  0  0  0  0  0  0  0  0  0  0
  -25.7112  -30.8340   22.3984 N   0  0  0  0  0  0  0  0  0  0  0  0
  -26.9540  -20.1782   20.4984 N   0  0  0  0  0  0  0  0  0  0  0  0
  -25.1049  -17.5159   16.3144 N   0  0  0  0  0  0  0  0  0  0  0  0
  -24.1218  -13.1599   16.9889 N   0  0  0  0  0  0  0  0  0  0  0  0
  -24.9244  -20.9874   21.3863 N   0  0  0  0  0  0  0  0  0  0  0  0
  -28.1364  -28.3411   21.6021 N   0  0  0  0  0  0  0  0  0  0  0  0
  -25.4366  -33.8917   23.8242 N   0  0  0  0  0  0  0  0  0  0  0  0
  -23.0297  -36.1166   22.2995 N   0  3  0  0  0  0  0  0  0  0  0  0
  -20.2178  -25.8060   23.9915 O   0  0  0  0  0  0  0  0  0  0  0  0
  -23.9742  -14.8921   15.4934 O   0  0  0  0  0  0  0  0  0  0  0  0
  -26.2901  -28.3262   23.0211 O   0  0  0  0  0  0  0  0  0  0  0  0
  -27.5242  -32.2613   22.7324 O   0  0  0  0  0  0  0  0  0  0  0  0
  -23.1253  -33.7144   23.7613 O   0  0  0  0  0  0  0  0  0  0  0  0
  -26.7821  -22.3672   21.2215 O   0  0  0  0  0  0  0  0  0  0  0  0
  -25.3078  -10.1835   21.5463 O   0  0  0  0  0  0  0  0  0  0  0  0
  -20.3481  -27.9103   21.5363 O   0  0  0  0  0  0  0  0  0  1  0  0
  -18.0923  -26.9587   22.4942 O   0  0  0  0  0  0  0  0  0  0  0  0
  -20.5300   -7.4318   21.4752 F   0  0  0  0  0  0  0  0  0  0  0  0
  -23.9775   -9.5904   23.8960 F   0  0  0  0  0  0  0  0  0  0  0  0
  -22.4083  -21.2539   22.2522 S   0  0  0  0  0  0  0  0  0  0  0  0
  1  2  1  0  0  0  0
  1  5  2  0  0  0  0
  2  6  2  0  0  0  0
  3  8  2  0  0  0  0
  3 17  1  0  0  0  0
  4  9  1  0  0  0  0
  4 17  2  0  0  0  0
  5 19  1  0  0  0  0
  6 21  1  0  0  0  0
  7 10  2  0  0  0  0
  7 20  1  0  0  0  0
  8 23  1  0  0  0  0
  9 23  2  0  0  0  0
 10 24  1  0  0  0  0
 11 12  2  0  0  0  0
 11 25  1  0  0  0  0
 12 26  1  0  0  0  0
 13 14  1  0  0  0  0
 13 29  2  0  0  0  0
 14 31  2  0  0  0  0
 15 22  1  0  0  0  0
 15 24  2  0  0  0  0
 16 26  2  0  0  0  0
 16 27  1  0  0  0  0
 17 28  1  0  0  0  0
 18 28  1  0  0  0  0
 18 30  2  0  0  0  0
 18 33  1  0  0  0  0
 19 21  2  0  0  0  0
 19 38  1  0  0  0  0
 20 22  2  0  0  0  0
 20 39  1  0  0  0  0
 21 49  1  0  0  0  0
 22 40  1  0  0  0  0
 23 81  1  0  0  0  0
 24 82  1  0  0  0  0
 25 27  2  0  0  0  0
 25 81  1  0  0  0  0
 26 84  1  0  0  0  0
 27 85  1  0  0  0  0
 28 64  2  0  0  0  0
 29 59  1  0  0  0  0
 29 86  1  0  0  0  0
 30 65  1  0  0  0  0
 30 69  1  0  0  0  0
 31 71  1  0  0  0  0
 31 86  1  0  0  0  0
 32 52  1  0  0  0  0
 32 66  1  0  0  0  0
 32 75  2  0  0  0  0
 33 70  1  0  0  0  0
 33 76  2  0  0  0  0
 34 50  1  0  0  0  0
 34 72  1  0  0  0  0
 34 77  2  0  0  0  0
 35 61  1  0  0  0  0
 35 67  1  0  0  0  0
 35 78  2  0  0  0  0
 36 62  1  0  0  0  0
 36 73  1  0  0  0  0
 36 79  2  0  0  0  0
 37 68  1  0  0  0  0
 37 71  1  0  0  0  0
 37 80  2  0  0  0  0
 38 41  1  0  0  0  0
 39 50  1  0  0  0  0
 40 67  1  0  0  0  0
 41 43  1  0  0  0  0
 42 44  1  0  0  0  0
 42 46  1  0  0  0  0
 43 49  1  0  0  0  0
 44 51  1  0  0  0  0
 45 47  1  0  0  0  0
 45 52  1  0  0  0  0
 46 68  1  0  0  0  0
 47 66  1  0  0  0  0
 48 51  1  0  0  0  0
 48 68  1  0  0  0  0
 49 72  1  0  0  0  0
 50 67  1  0  0  0  0
 51 65  1  0  0  0  0
 52 60  1  0  0  0  0
 52 83  1  0  0  0  0
 53 62  1  0  0  0  0
 54 63  1  0  0  0  0
 55 63  1  0  0  0  0
 56 63  1  0  0  0  0
 57 74  1  0  0  0  0
 58 83  1  0  0  0  0
 59 66  1  0  0  0  0
 60 82  1  0  0  0  0
 61 63  1  0  0  0  0
 61 73  1  0  0  0  0
 62 74  1  0  0  0  0
 64 65  1  0  0  0  0
M  CHG  1  74   1
M  ISO  4  37 100  60 101  71 100  82 101
M  END
> <Batch ID>
0155

> <Smiles>
CNC(C)C(=O)NC(C(=O)N1Cc2cc([101O:1][101CH2:1]C3(OC)CCN(Cc4ccc([100NH:0][100C:0](=O)N5CCCC(n6nc(-c7ccc(Oc8ccc(F)cc8F)cc7)c(C(N)=O)c6N)C5)s4)C3=O)ccc2CC1C(=O)NC1CCCc2ccccc21)C(C)(C)C

> <Shape>
0.303

> <Color>
0.066

> <Negative vol penalty>
0.000

$$$$

  -OEChem-04052303363D

 81 89  0     1  0  0  0  0  0999 V2000
  -38.0751  -30.7448   28.2079 C   0  0  0  0  0  0  0  0  0  0  0  0
  -37.0995  -29.7589   28.0997 C   0  0  0  0  0  0  0  0  0  0  0  0
  -23.1067   -9.8095   19.9645 C   0  0  0  0  0  0  0  0  0  0  0  0
  -23.8219   -9.8970   22.2705 C   0  0  0  0  0  0  0  0  0  0  0  0
  -37.7023  -32.0838   28.3171 C   0  0  0  0  0  0  0  0  0  0  0  0
  -35.7504  -30.1114   28.1017 C   0  0  0  0  0  0  0  0  0  0  0  0
  -33.1042  -27.6901   24.5268 C   0  0  0  0  0  0  0  0  0  0  0  0
  -22.3691   -8.6574   20.2369 C   0  0  0  0  0  0  0  0  0  0  0  0
  -23.0843   -8.7449   22.5430 C   0  0  0  0  0  0  0  0  0  0  0  0
  -32.7512  -26.3659   24.7831 C   0  0  0  0  0  0  0  0  0  0  0  0
  -19.8528   -7.9340   23.1091 C   0  0  0  0  0  0  0  0  0  0  0  0
  -19.0737   -7.9237   24.2660 C   0  0  0  0  0  0  0  0  0  0  0  0
  -30.5365  -27.0848   25.4136 C   0  0  0  0  0  0  0  0  0  0  0  0
  -20.3190   -6.0233   25.0875 C   0  0  0  0  0  0  0  0  0  0  0  0
  -31.7091  -17.6611   21.6683 C   0  0  0  0  0  0  0  0  0  0  0  0
  -23.8332  -10.4293   20.9813 C   0  0  0  0  0  0  0  0  0  0  0  0
  -24.1532  -12.9526   20.7871 C   0  0  0  0  0  0  0  0  0  0  0  0
  -36.3481  -32.4538   28.3108 C   0  0  0  0  0  0  0  0  0  0  0  0
  -32.1779  -28.7244   24.7228 C   0  0  0  0  0  0  0  0  0  0  0  0
  -35.3591  -31.4565   28.2123 C   0  0  0  0  0  0  0  0  0  0  0  0
  -30.8795  -28.4210   25.1567 C   0  0  0  0  0  0  0  0  0  0  0  0
  -22.3579   -8.1251   21.5262 C   0  0  0  0  0  0  0  0  0  0  0  0
  -31.4680  -26.0634   25.2294 C   0  0  0  0  0  0  0  0  0  0  0  0
  -20.8649   -6.9890   22.9413 C   0  0  0  0  0  0  0  0  0  0  0  0
  -19.3068   -6.9683   25.2553 C   0  0  0  0  0  0  0  0  0  0  0  0
  -21.0980   -6.0336   23.9306 C   0  0  0  0  0  0  0  0  0  0  0  0
  -24.5957  -11.6191   20.7003 C   0  0  0  0  0  0  0  0  0  0  0  0
  -25.2450  -13.7012   20.4209 C   0  0  0  0  0  0  0  0  0  0  0  0
  -30.5087  -17.0125   21.8692 C   0  0  0  0  0  0  0  0  0  0  0  0
  -30.7067  -19.1902   22.8795 C   0  0  0  0  0  0  0  0  0  0  0  0
  -22.8700  -13.4686   21.1650 C   0  0  0  0  0  0  0  0  0  0  0  0
  -32.0377  -31.2839   26.6024 C   0  0  0  0  0  0  0  0  0  0  0  0
  -30.8583  -22.5692   24.5048 C   0  0  0  0  0  0  0  0  0  0  0  0
  -29.3659  -31.9223   24.8774 C   0  0  0  0  0  0  0  0  0  0  0  0
  -26.8174  -30.7406   22.9394 C   0  0  0  0  0  0  0  0  0  0  0  0
  -30.6967  -14.8070   20.6664 C   0  0  0  0  0  0  0  0  0  0  0  0
  -35.9926  -33.9098   28.4789 C   0  0  0  0  0  0  0  0  0  0  0  0
  -32.5661  -30.1449   24.4162 C   0  0  0  0  0  0  0  0  0  0  0  0
  -29.8417  -29.4927   25.3634 C   0  0  0  0  0  0  0  0  0  0  0  0
  -34.5506  -34.2328   28.0962 C   0  0  0  0  0  0  0  0  0  0  0  0
  -29.6513  -12.3081   18.3555 C   0  0  0  0  0  0  0  0  0  0  0  0
  -33.5948  -33.2136   28.7081 C   0  0  0  0  0  0  0  0  0  0  0  0
  -28.2064  -12.0158   18.7666 C   0  0  0  0  0  0  0  0  0  0  0  0
  -30.5407  -12.5842   19.5664 C   0  0  0  0  0  0  0  0  0  0  0  0
  -28.6006  -13.3328   20.8873 C   0  0  0  0  0  0  0  0  0  0  0  0
  -33.8858  -31.8015   28.1859 C   0  0  1  0  0  0  0  0  0  0  0  0
  -31.7013  -31.1706   25.1424 C   0  0  1  0  0  0  0  0  0  0  0  0
  -27.6525  -13.1124   19.6973 C   0  0  2  0  0  0  0  0  0  0  0  0
  -24.7664  -31.4964   21.7067 C   0  0  0  0  0  0  0  0  0  0  0  0
  -27.8648  -32.1566   27.5235 C   0  0  0  0  0  0  0  0  0  0  0  0
  -25.7212  -31.9595   26.2449 C   0  0  0  0  0  0  0  0  0  0  0  0
  -27.2524  -33.8825   25.8203 C   0  0  0  0  0  0  0  0  0  0  0  0
  -27.9022  -29.8299   20.3408 C   0  0  0  0  0  0  0  0  0  0  0  0
  -31.4376  -21.4357   23.6853 C   0  0  0  0  0  0  0  0  0  0  0  0
  -31.7712  -23.7625   24.7095 C   0  0  0  0  0  0  0  0  0  1  0  0
  -27.9017  -31.5783   25.0075 C   0  0  1  0  0  0  0  0  0  0  0  0
  -26.2581  -31.2166   21.6108 C   0  0  2  0  0  0  0  0  0  0  0  0
  -27.2050  -32.3740   26.1471 C   0  0  0  0  0  0  0  0  0  0  0  0
  -31.8243  -18.9102   22.2465 N   0  0  0  0  0  0  0  0  0  0  0  0
  -25.8693  -11.5228   20.3095 N   0  0  0  0  0  0  0  0  0  0  0  0
  -26.2364  -12.8054   20.1474 N   0  0  0  0  0  0  0  0  0  0  0  0
  -30.2714  -30.8669   25.0561 N   0  0  0  0  0  0  0  0  0  0  0  0
  -29.9551  -13.6366   20.3997 N   0  0  0  0  0  0  0  0  0  0  0  0
  -25.4442  -15.0318   20.3094 N   0  0  0  0  0  0  0  0  0  0  0  0
  -21.8605  -12.5605   21.5118 N   0  0  0  0  0  0  0  0  0  0  0  0
  -30.0248  -15.7509   21.4424 N   0  0  0  0  0  0  0  0  0  0  0  0
  -30.4756  -20.3693   23.5735 N   0  0  0  0  0  0  0  0  0  0  0  0
  -33.3506  -31.6357   26.8516 N   0  0  0  0  0  0  0  0  0  0  0  0
  -27.3147  -31.7862   23.6882 N   0  0  0  0  0  0  0  0  0  0  0  0
  -26.4760  -30.1849   20.5576 N   0  3  0  0  0  0  0  0  0  0  0  0
  -22.6210  -14.6980   21.1785 O   0  0  0  0  0  0  0  0  0  0  0  0
  -31.1701  -31.0695   27.4408 O   0  0  0  0  0  0  0  0  0  0  0  0
  -29.7234  -22.5352   24.9787 O   0  0  0  0  0  0  0  0  0  0  0  0
  -29.6937  -33.0832   24.6194 O   0  0  0  0  0  0  0  0  0  0  0  0
  -26.8101  -29.5599   23.2805 O   0  0  0  0  0  0  0  0  0  0  0  0
  -31.8330  -14.9722   20.2152 O   0  0  0  0  0  0  0  0  0  0  0  0
  -21.6381   -7.0010   21.7925 O   0  0  0  0  0  0  0  0  0  0  0  0
  -31.1210  -24.7718   25.4809 O   0  0  0  0  0  0  0  0  0  1  0  0
  -18.5596   -6.9595   26.3669 F   0  0  0  0  0  0  0  0  0  0  0  0
  -22.0697   -5.1239   23.7756 F   0  0  0  0  0  0  0  0  0  0  0  0
  -29.4754  -17.9963   22.8209 S   0  0  0  0  0  0  0  0  0  0  0  0
  1  2  1  0  0  0  0
  1  5  2  0  0  0  0
  2  6  2  0  0  0  0
  3  8  2  0  0  0  0
  3 16  1  0  0  0  0
  4  9  1  0  0  0  0
  4 16  2  0  0  0  0
  5 18  1  0  0  0  0
  6 20  1  0  0  0  0
  7 10  2  0  0  0  0
  7 19  1  0  0  0  0
  8 22  1  0  0  0  0
  9 22  2  0  0  0  0
 10 23  1  0  0  0  0
 11 12  2  0  0  0  0
 11 24  1  0  0  0  0
 12 25  1  0  0  0  0
 13 21  1  0  0  0  0
 13 23  2  0  0  0  0
 14 25  2  0  0  0  0
 14 26  1  0  0  0  0
 15 29  2  0  0  0  0
 15 59  1  0  0  0  0
 16 27  1  0  0  0  0
 17 27  1  0  0  0  0
 17 28  2  0  0  0  0
 17 31  1  0  0  0  0
 18 20  2  0  0  0  0
 18 37  1  0  0  0  0
 19 21  2  0  0  0  0
 19 38  1  0  0  0  0
 20 46  1  0  0  0  0
 21 39  1  0  0  0  0
 22 77  1  0  0  0  0
 23 78  1  0  0  0  0
 24 26  2  0  0  0  0
 24 77  1  0  0  0  0
 25 79  1  0  0  0  0
 26 80  1  0  0  0  0
 27 60  2  0  0  0  0
 28 61  1  0  0  0  0
 28 64  1  0  0  0  0
 29 66  1  0  0  0  0
 29 81  1  0  0  0  0
 30 59  2  0  0  0  0
 30 67  1  0  0  0  0
 30 81  1  0  0  0  0
 31 65  1  0  0  0  0
 31 71  2  0  0  0  0
 32 47  1  0  0  0  0
 32 68  1  0  0  0  0
 32 72  2  0  0  0  0
 33 54  1  0  0  0  0
 33 55  1  0  0  0  0
 33 73  2  0  0  0  0
 34 56  1  0  0  0  0
 34 62  1  0  0  0  0
 34 74  2  0  0  0  0
 35 57  1  0  0  0  0
 35 69  1  0  0  0  0
 35 75  2  0  0  0  0
 36 63  1  0  0  0  0
 36 66  1  0  0  0  0
 36 76  2  0  0  0  0
 37 40  1  0  0  0  0
 38 47  1  0  0  0  0
 39 62  1  0  0  0  0
 40 42  1  0  0  0  0
 41 43  1  0  0  0  0
 41 44  1  0  0  0  0
 42 46  1  0  0  0  0
 43 48  1  0  0  0  0
 44 63  1  0  0  0  0
 45 48  1  0  0  0  0
 45 63  1  0  0  0  0
 46 68  1  0  0  0  0
 47 62  1  0  0  0  0
 48 61  1  0  0  0  0
 49 57  1  0  0  0  0
 50 58  1  0  0  0  0
 51 58  1  0  0  0  0
 52 58  1  0  0  0  0
 53 70  1  0  0  0  0
 54 67  1  0  0  0  0
 55 78  1  0  0  0  0
 56 58  1  0  0  0  0
 56 69  1  0  0  0  0
 57 70  1  0  0  0  0
 60 61  1  0  0  0  0
M  CHG  1  70   1
M  ISO  4  36 100  55 101  66 100  78 101
M  END
> <Batch ID>
0155

> <Smiles>
CNC(C)C(=O)NC(C(=O)N1Cc2cc([101O:1][101CH2:1]C(=O)CNc3ncc([100NH:0][100C:0](=O)N4CCCC(n5nc(-c6ccc(Oc7ccc(F)cc7F)cc6)c(C(N)=O)c5N)C4)s3)ccc2CC1C(=O)NC1CCCc2ccccc21)C(C)(C)C

> <Shape>
0.247

> <Color>
0.188

> <Negative vol penalty>
0.000

$$$$

  -OEChem-04052303363D

 83 92  0     1  0  0  0  0  0999 V2000
  -35.9897  -29.1334   18.6221 C   0  0  0  0  0  0  0  0  0  0  0  0
  -35.8180  -27.9255   19.2906 C   0  0  0  0  0  0  0  0  0  0  0  0
  -23.1856   -9.9599   19.8746 C   0  0  0  0  0  0  0  0  0  0  0  0
  -23.9275   -9.9002   22.1731 C   0  0  0  0  0  0  0  0  0  0  0  0
  -34.8955  -29.7628   18.0300 C   0  0  0  0  0  0  0  0  0  0  0  0
  -34.5517  -27.3468   19.3683 C   0  0  0  0  0  0  0  0  0  0  0  0
  -34.6263  -22.3741   18.4136 C   0  0  0  0  0  0  0  0  0  0  0  0
  -22.4823   -8.7714   20.0707 C   0  0  0  0  0  0  0  0  0  0  0  0
  -23.2242   -8.7117   22.3692 C   0  0  0  0  0  0  0  0  0  0  0  0
  -35.0644  -21.5356   19.4378 C   0  0  0  0  0  0  0  0  0  0  0  0
  -20.0228   -7.7739   22.9097 C   0  0  0  0  0  0  0  0  0  0  0  0
  -19.2590   -7.6587   24.0712 C   0  0  0  0  0  0  0  0  0  0  0  0
  -32.7729  -21.0204   19.9880 C   0  0  0  0  0  0  0  0  0  0  0  0
  -32.5724  -15.7605   23.0099 C   0  0  0  0  0  0  0  0  0  0  0  0
  -20.5646   -5.7386   24.7392 C   0  0  0  0  0  0  0  0  0  0  0  0
  -30.7210  -15.6516   24.4110 C   0  0  0  0  0  0  0  0  0  0  0  0
  -23.9082  -10.5243   20.9258 C   0  0  0  0  0  0  0  0  0  0  0  0
  -24.1588  -13.0629   20.9118 C   0  0  0  0  0  0  0  0  0  0  0  0
  -33.6169  -29.1867   18.0921 C   0  0  0  0  0  0  0  0  0  0  0  0
  -33.2557  -22.5507   18.1756 C   0  0  0  0  0  0  0  0  0  0  0  0
  -33.4391  -27.9697   18.7776 C   0  0  0  0  0  0  0  0  0  0  0  0
  -32.3200  -21.8596   18.9586 C   0  0  0  0  0  0  0  0  0  0  0  0
  -31.2483  -15.2687   23.1973 C   0  0  0  0  0  0  0  0  0  0  0  0
  -22.5016   -8.1473   21.3180 C   0  0  0  0  0  0  0  0  0  0  0  0
  -34.1376  -20.8609   20.2270 C   0  0  0  0  0  0  0  0  0  0  0  0
  -21.0574   -6.8714   22.6629 C   0  0  0  0  0  0  0  0  0  0  0  0
  -19.5299   -6.6411   24.9859 C   0  0  0  0  0  0  0  0  0  0  0  0
  -21.3283   -5.8539   23.5777 C   0  0  0  0  0  0  0  0  0  0  0  0
  -24.6353  -11.7517   20.7237 C   0  0  0  0  0  0  0  0  0  0  0  0
  -33.0066  -16.5008   24.0876 C   0  0  0  0  0  0  0  0  0  0  0  0
  -25.2256  -13.8656   20.5892 C   0  0  0  0  0  0  0  0  0  0  0  0
  -22.8672  -13.5150   21.3400 C   0  0  0  0  0  0  0  0  0  0  0  0
  -34.3328  -17.1379   24.1749 C   0  0  0  0  0  0  0  0  0  0  0  0
  -31.2646  -25.0269   18.2639 C   0  0  0  0  0  0  0  0  0  0  0  0
  -29.1536  -22.8737   17.0681 C   0  0  0  0  0  0  0  0  0  0  0  0
  -28.2419  -19.6052   16.7038 C   0  0  0  0  0  0  0  0  0  0  0  0
  -30.9831  -14.0419   21.0131 C   0  0  0  0  0  0  0  0  0  0  0  0
  -32.4560  -29.9279   17.4776 C   0  0  0  0  0  0  0  0  0  0  0  0
  -32.7998  -23.4379   17.0498 C   0  0  0  0  0  0  0  0  0  0  0  0
  -30.8378  -21.9993   18.7308 C   0  0  0  0  0  0  0  0  0  0  0  0
  -31.2144  -29.0614   17.2830 C   0  0  0  0  0  0  0  0  0  0  0  0
  -29.3614  -13.2668   17.9396 C   0  0  0  0  0  0  0  0  0  0  0  0
  -30.9268  -28.2503   18.5425 C   0  0  0  0  0  0  0  0  0  0  0  0
  -27.9303  -12.9251   18.3609 C   0  0  0  0  0  0  0  0  0  0  0  0
  -35.3574  -20.5272   23.4590 C   0  0  0  0  0  0  0  0  0  0  0  0
  -30.3859  -12.7750   18.9605 C   0  0  0  0  0  0  0  0  0  0  0  0
  -35.7718  -19.0923   23.7734 C   0  0  0  0  0  0  0  0  0  0  0  0
  -28.7101  -12.8642   20.7641 C   0  0  0  0  0  0  0  0  0  0  0  0
  -33.3995  -19.1686   23.1385 C   0  0  0  0  0  0  0  0  0  0  0  0
  -32.0856  -27.2982   18.8621 C   0  0  1  0  0  0  0  0  0  0  0  0
  -31.3716  -23.9435   17.2283 C   0  0  1  0  0  0  0  0  0  0  0  0
  -27.6384  -13.3967   19.7989 C   0  0  2  0  0  0  0  0  0  0  0  0
  -34.1433  -20.3637   22.5495 C   0  0  2  0  0  0  0  0  0  1  0  0
  -26.4479  -18.1597   15.7091 C   0  0  0  0  0  0  0  0  0  0  0  0
  -27.2828  -23.6234   19.3589 C   0  0  0  0  0  0  0  0  0  0  0  0
  -25.9793  -21.5392   18.8841 C   0  0  0  0  0  0  0  0  0  0  0  0
  -26.1550  -23.3212   17.1473 C   0  0  0  0  0  0  0  0  0  0  0  0
  -30.1685  -18.2427   14.9174 C   0  0  0  0  0  0  0  0  0  0  0  0
  -28.1748  -21.8913   17.6648 C   0  0  1  0  0  0  0  0  0  0  0  0
  -27.8038  -18.8114   15.4862 C   0  0  2  0  0  0  0  0  0  0  0  0
  -26.9258  -22.5925   18.2696 C   0  0  0  0  0  0  0  0  0  0  0  0
  -25.9059  -11.7188   20.3133 N   0  0  0  0  0  0  0  0  0  0  0  0
  -26.2368  -13.0193   20.2407 N   0  0  0  0  0  0  0  0  0  0  0  0
  -34.4904  -18.3713   23.7304 N   0  0  0  0  0  0  0  0  0  0  0  0
  -30.4416  -22.8831   17.6220 N   0  0  0  0  0  0  0  0  0  0  0  0
  -30.0473  -13.2643   20.2987 N   0  0  0  0  0  0  0  0  0  0  0  0
  -25.3879  -15.2057   20.5724 N   0  0  0  0  0  0  0  0  0  0  0  0
  -21.8866  -12.5568   21.6308 N   0  0  0  0  0  0  0  0  0  0  0  0
  -30.5378  -14.4780   22.2605 N   0  0  0  0  0  0  0  0  0  0  0  0
  -32.0404  -26.1388   17.9972 N   0  0  0  0  0  0  0  0  0  0  0  0
  -27.8687  -20.9294   16.6115 N   0  0  0  0  0  0  0  0  0  0  0  0
  -35.3492  -16.4614   24.7016 N   0  3  0  0  0  0  0  0  0  0  0  0
  -28.7952  -17.7413   15.1813 N   0  3  0  0  0  0  0  0  0  0  0  0
  -22.5859  -14.7329   21.4453 O   0  0  0  0  0  0  0  0  0  0  0  0
  -30.5312  -24.8665   19.2325 O   0  0  0  0  0  0  0  0  0  0  0  0
  -28.7909  -23.6007   16.1399 O   0  0  0  0  0  0  0  0  0  0  0  0
  -28.8508  -19.1003   17.6444 O   0  0  0  0  0  0  0  0  0  0  0  0
  -32.0872  -14.3246   20.5408 O   0  0  0  0  0  0  0  0  0  0  0  0
  -21.8153   -6.9877   21.5098 O   0  0  0  0  0  0  0  0  0  0  0  0
  -34.5625  -20.0424   21.2277 O   0  0  0  0  0  0  0  0  0  1  0  0
  -18.7974   -6.5315   26.1020 F   0  0  0  0  0  0  0  0  0  0  0  0
  -22.3218   -4.9847   23.3466 F   0  0  0  0  0  0  0  0  0  0  0  0
  -31.8205  -16.6002   25.3186 S   0  0  0  0  0  0  0  0  0  0  0  0
  1  2  1  0  0  0  0
  1  5  2  0  0  0  0
  2  6  2  0  0  0  0
  3  8  2  0  0  0  0
  3 17  1  0  0  0  0
  4  9  1  0  0  0  0
  4 17  2  0  0  0  0
  5 19  1  0  0  0  0
  6 21  1  0  0  0  0
  7 10  2  0  0  0  0
  7 20  1  0  0  0  0
  8 24  1  0  0  0  0
  9 24  2  0  0  0  0
 10 25  1  0  0  0  0
 11 12  2  0  0  0  0
 11 26  1  0  0  0  0
 12 27  1  0  0  0  0
 13 22  1  0  0  0  0
 13 25  2  0  0  0  0
 14 23  1  0  0  0  0
 14 30  2  0  0  0  0
 15 27  2  0  0  0  0
 15 28  1  0  0  0  0
 16 23  2  0  0  0  0
 16 83  1  0  0  0  0
 17 29  1  0  0  0  0
 18 29  1  0  0  0  0
 18 31  2  0  0  0  0
 18 32  1  0  0  0  0
 19 21  2  0  0  0  0
 19 38  1  0  0  0  0
 20 22  2  0  0  0  0
 20 39  1  0  0  0  0
 21 50  1  0  0  0  0
 22 40  1  0  0  0  0
 23 69  1  0  0  0  0
 24 79  1  0  0  0  0
 25 80  1  0  0  0  0
 26 28  2  0  0  0  0
 26 79  1  0  0  0  0
 27 81  1  0  0  0  0
 28 82  1  0  0  0  0
 29 62  2  0  0  0  0
 30 33  1  0  0  0  0
 30 83  1  0  0  0  0
 31 63  1  0  0  0  0
 31 67  1  0  0  0  0
 32 68  1  0  0  0  0
 32 74  2  0  0  0  0
 33 64  1  0  0  0  0
 33 72  2  0  0  0  0
 34 51  1  0  0  0  0
 34 70  1  0  0  0  0
 34 75  2  0  0  0  0
 35 59  1  0  0  0  0
 35 65  1  0  0  0  0
 35 76  2  0  0  0  0
 36 60  1  0  0  0  0
 36 71  1  0  0  0  0
 36 77  2  0  0  0  0
 37 66  1  0  0  0  0
 37 69  1  0  0  0  0
 37 78  2  0  0  0  0
 38 41  1  0  0  0  0
 39 51  1  0  0  0  0
 40 65  1  0  0  0  0
 41 43  1  0  0  0  0
 42 44  1  0  0  0  0
 42 46  1  0  0  0  0
 43 50  1  0  0  0  0
 44 52  1  0  0  0  0
 45 47  1  0  0  0  0
 45 53  1  0  0  0  0
 46 66  1  0  0  0  0
 47 64  1  0  0  0  0
 48 52  1  0  0  0  0
 48 66  1  0  0  0  0
 49 53  1  0  0  0  0
 49 64  1  0  0  0  0
 50 70  1  0  0  0  0
 51 65  1  0  0  0  0
 52 63  1  0  0  0  0
 53 80  1  0  0  0  0
 54 60  1  0  0  0  0
 55 61  1  0  0  0  0
 56 61  1  0  0  0  0
 57 61  1  0  0  0  0
 58 73  1  0  0  0  0
 59 61  1  0  0  0  0
 59 71  1  0  0  0  0
 60 73  1  0  0  0  0
 62 63  1  0  0  0  0
M  CHG  2  72   1  73   1
M  ISO  4  37 100  53 101  69 100  80 101
M  END
> <Batch ID>
0155

> <Smiles>
CNC(C)C(=O)NC(C(=O)N1Cc2cc([101O:1][101CH:1]3CCN(C(=N)c4cc([100NH:0][100C:0](=O)N5CCCC(n6nc(-c7ccc(Oc8ccc(F)cc8F)cc7)c(C(N)=O)c6N)C5)cs4)C3)ccc2CC1C(=O)NC1CCCc2ccccc21)C(C)(C)C

> <Shape>
0.203

> <Color>
0.196

> <Negative vol penalty>
0.000

$$$$

  -OEChem-04052303363D

 87 96  0     1  0  0  0  0  0999 V2000
  -28.4134  -32.9330   26.7348 C   0  0  0  0  0  0  0  0  0  0  0  0
  -28.5232  -31.8678   25.8467 C   0  0  0  0  0  0  0  0  0  0  0  0
  -23.7326  -10.8990   23.4508 C   0  0  0  0  0  0  0  0  0  0  0  0
  -24.4892   -9.4095   21.7055 C   0  0  0  0  0  0  0  0  0  0  0  0
  -27.1688  -33.2732   27.2631 C   0  0  0  0  0  0  0  0  0  0  0  0
  -27.3885  -31.1415   25.4871 C   0  0  0  0  0  0  0  0  0  0  0  0
  -27.1556  -30.2400   20.5094 C   0  0  0  0  0  0  0  0  0  0  0  0
  -30.5589  -20.4554   19.7207 C   0  0  0  0  0  0  0  0  0  0  0  0
  -30.4246  -19.0734   19.8532 C   0  0  0  0  0  0  0  0  0  0  0  0
  -23.2461   -9.8080   24.1710 C   0  0  0  0  0  0  0  0  0  0  0  0
  -24.0028   -8.3185   22.4258 C   0  0  0  0  0  0  0  0  0  0  0  0
  -27.9600  -29.2170   20.0093 C   0  0  0  0  0  0  0  0  0  0  0  0
  -20.5378   -7.7870   24.1035 C   0  0  0  0  0  0  0  0  0  0  0  0
  -19.2663   -7.8977   24.6662 C   0  0  0  0  0  0  0  0  0  0  0  0
  -26.0556  -27.7363   19.9917 C   0  0  0  0  0  0  0  0  0  0  0  0
  -28.1786  -19.3721   20.6920 C   0  0  0  0  0  0  0  0  0  0  0  0
  -20.2095   -7.5583   26.8644 C   0  0  0  0  0  0  0  0  0  0  0  0
  -24.3540  -10.6997   22.2180 C   0  0  0  0  0  0  0  0  0  0  0  0
  -24.1182  -12.9244   20.9921 C   0  0  0  0  0  0  0  0  0  0  0  0
  -26.0167  -32.5568   26.9023 C   0  0  0  0  0  0  0  0  0  0  0  0
  -25.7952  -30.0153   20.7651 C   0  0  0  0  0  0  0  0  0  0  0  0
  -26.1275  -31.4717   26.0121 C   0  0  0  0  0  0  0  0  0  0  0  0
  -25.2356  -28.7589   20.4926 C   0  0  0  0  0  0  0  0  0  0  0  0
  -28.3129  -20.7542   20.5595 C   0  0  0  0  0  0  0  0  0  0  0  0
  -29.5031  -21.2958   20.0738 C   0  0  0  0  0  0  0  0  0  0  0  0
  -29.2344  -18.5318   20.3388 C   0  0  0  0  0  0  0  0  0  0  0  0
  -23.3813   -8.5177   23.6586 C   0  0  0  0  0  0  0  0  0  0  0  0
  -27.4107  -27.9641   19.7531 C   0  0  0  0  0  0  0  0  0  0  0  0
  -21.6452   -7.5618   24.9213 C   0  0  0  0  0  0  0  0  0  0  0  0
  -19.1021   -7.7834   26.0467 C   0  0  0  0  0  0  0  0  0  0  0  0
  -21.4810   -7.4475   26.3017 C   0  0  0  0  0  0  0  0  0  0  0  0
  -24.8562  -11.8264   21.4733 C   0  0  0  0  0  0  0  0  0  0  0  0
  -25.0479  -13.7110   20.3569 C   0  0  0  0  0  0  0  0  0  0  0  0
  -22.7177  -13.2081   21.1090 C   0  0  0  0  0  0  0  0  0  0  0  0
  -23.9568  -30.0964   23.3569 C   0  0  0  0  0  0  0  0  0  0  0  0
  -21.5763  -29.6118   21.2073 C   0  0  0  0  0  0  0  0  0  0  0  0
  -21.0562  -27.5885   18.2657 C   0  0  0  0  0  0  0  0  0  0  0  0
  -30.0479  -16.1537   20.1672 C   0  0  0  0  0  0  0  0  0  0  0  0
  -24.7005  -32.9320   27.5359 C   0  0  0  0  0  0  0  0  0  0  0  0
  -24.9352  -31.1370   21.2794 C   0  0  0  0  0  0  0  0  0  0  0  0
  -23.7763  -28.4722   20.7309 C   0  0  0  0  0  0  0  0  0  0  0  0
  -23.4887  -32.3483   26.8140 C   0  0  0  0  0  0  0  0  0  0  0  0
  -29.8585  -12.7622   19.0999 C   0  0  0  0  0  0  0  0  0  0  0  0
  -23.7109  -30.8708   26.5068 C   0  0  0  0  0  0  0  0  0  0  0  0
  -28.4795  -12.3067   19.5826 C   0  0  0  0  0  0  0  0  0  0  0  0
  -29.5071  -24.7118   18.5428 C   0  0  0  0  0  0  0  0  0  0  0  0
  -29.7441  -24.8893   21.0320 C   0  0  0  0  0  0  0  0  0  0  0  0
  -30.5208  -13.7153   20.0932 C   0  0  0  0  0  0  0  0  0  0  0  0
  -29.9338  -23.2433   18.6099 C   0  0  0  0  0  0  0  0  0  0  0  0
  -30.1753  -23.4227   21.0912 C   0  0  0  0  0  0  0  0  0  0  0  0
  -28.3259  -14.4174   20.9642 C   0  0  0  0  0  0  0  0  0  0  0  0
  -24.9158  -30.6754   25.5786 C   0  0  1  0  0  0  0  0  0  0  0  0
  -23.6757  -30.6477   21.9877 C   0  0  1  0  0  0  0  0  0  0  0  0
  -27.5918  -13.5070   19.9661 C   0  0  2  0  0  0  0  0  0  0  0  0
  -30.0910  -25.5438   19.6894 C   0  0  0  0  0  0  0  0  0  0  0  0
  -27.1670  -21.6314   20.9463 C   0  0  0  0  0  0  0  0  0  0  0  0
  -19.5686  -27.9520   16.2777 C   0  0  0  0  0  0  0  0  0  0  0  0
  -19.5722  -27.9150   22.7611 C   0  0  0  0  0  0  0  0  0  0  0  0
  -18.8991  -26.8525   20.5963 C   0  0  0  0  0  0  0  0  0  0  0  0
  -18.5715  -29.3019   20.9364 C   0  0  0  0  0  0  0  0  0  0  0  0
  -23.3206  -27.3287   16.3779 C   0  0  0  0  0  0  0  0  0  0  0  0
  -32.1197  -26.3396   20.5684 C   0  0  0  0  0  0  0  0  0  0  0  0
  -29.5729  -26.9810   19.6319 C   0  0  0  0  0  0  0  0  0  1  0  0
  -20.9095  -28.3982   20.6061 C   0  0  1  0  0  0  0  0  0  0  0  0
  -20.9802  -28.0751   16.8298 C   0  0  2  0  0  0  0  0  0  0  0  0
  -19.5152  -28.1162   21.2336 C   0  0  0  0  0  0  0  0  0  0  0  0
  -26.1545  -11.9047   21.1695 N   0  0  0  0  0  0  0  0  0  0  0  0
  -26.2396  -13.0614   20.4906 N   0  0  0  0  0  0  0  0  0  0  0  0
  -29.6557  -22.6812   19.9350 N   0  0  0  0  0  0  0  0  0  0  0  0
  -22.9779  -29.5995   21.2403 N   0  0  0  0  0  0  0  0  0  0  0  0
  -29.6235  -14.8295   20.4064 N   0  0  0  0  0  0  0  0  0  0  0  0
  -24.9540  -14.8880   19.7024 N   0  0  0  0  0  0  0  0  0  0  0  0
  -21.9057  -12.2938   21.7940 N   0  0  0  0  0  0  0  0  0  0  0  0
  -29.0980  -17.1278   20.4728 N   0  0  0  0  0  0  0  0  0  0  0  0
  -24.5596  -30.9978   24.2135 N   0  0  0  0  0  0  0  0  0  0  0  0
  -20.8821  -28.6197   19.1643 N   0  0  0  0  0  0  0  0  0  0  0  0
  -21.8947  -27.2785   15.9638 N   0  3  0  0  0  0  0  0  0  0  0  0
  -22.1987  -14.2335   20.6064 O   0  0  0  0  0  0  0  0  0  0  0  0
  -23.6483  -28.9394   23.6174 O   0  0  0  0  0  0  0  0  0  0  0  0
  -20.8794  -30.5397   21.6256 O   0  0  0  0  0  0  0  0  0  0  0  0
  -21.2468  -26.4107   18.5607 O   0  0  0  0  0  0  0  0  0  0  0  0
  -31.1614  -16.4036   19.6984 O   0  0  0  0  0  0  0  0  0  0  0  0
  -22.9070   -7.4529   24.3612 O   0  0  0  0  0  0  0  0  0  0  0  0
  -28.1938  -26.9636   19.2655 O   0  0  0  0  0  0  0  0  0  1  0  0
  -31.5117  -25.5819   19.5354 O   0  0  0  0  0  0  0  0  0  0  0  0
  -17.8813   -7.8913   26.5870 F   0  0  0  0  0  0  0  0  0  0  0  0
  -22.5413   -7.2324   27.0926 F   0  0  0  0  0  0  0  0  0  0  0  0
  1  2  1  0  0  0  0
  1  5  2  0  0  0  0
  2  6  2  0  0  0  0
  3 10  2  0  0  0  0
  3 18  1  0  0  0  0
  4 11  1  0  0  0  0
  4 18  2  0  0  0  0
  5 20  1  0  0  0  0
  6 22  1  0  0  0  0
  7 12  2  0  0  0  0
  7 21  1  0  0  0  0
  8  9  2  0  0  0  0
  8 25  1  0  0  0  0
  9 26  1  0  0  0  0
 10 27  1  0  0  0  0
 11 27  2  0  0  0  0
 12 28  1  0  0  0  0
 13 14  2  0  0  0  0
 13 29  1  0  0  0  0
 14 30  1  0  0  0  0
 15 23  1  0  0  0  0
 15 28  2  0  0  0  0
 16 24  1  0  0  0  0
 16 26  2  0  0  0  0
 17 30  2  0  0  0  0
 17 31  1  0  0  0  0
 18 32  1  0  0  0  0
 19 32  1  0  0  0  0
 19 33  2  0  0  0  0
 19 34  1  0  0  0  0
 20 22  2  0  0  0  0
 20 39  1  0  0  0  0
 21 23  2  0  0  0  0
 21 40  1  0  0  0  0
 22 52  1  0  0  0  0
 23 41  1  0  0  0  0
 24 25  2  0  0  0  0
 24 56  1  0  0  0  0
 25 69  1  0  0  0  0
 26 74  1  0  0  0  0
 27 83  1  0  0  0  0
 28 84  1  0  0  0  0
 29 31  2  0  0  0  0
 29 83  1  0  0  0  0
 30 86  1  0  0  0  0
 31 87  1  0  0  0  0
 32 67  2  0  0  0  0
 33 68  1  0  0  0  0
 33 72  1  0  0  0  0
 34 73  1  0  0  0  0
 34 78  2  0  0  0  0
 35 53  1  0  0  0  0
 35 75  1  0  0  0  0
 35 79  2  0  0  0  0
 36 64  1  0  0  0  0
 36 70  1  0  0  0  0
 36 80  2  0  0  0  0
 37 65  1  0  0  0  0
 37 76  1  0  0  0  0
 37 81  2  0  0  0  0
 38 71  1  0  0  0  0
 38 74  1  0  0  0  0
 38 82  2  0  0  0  0
 39 42  1  0  0  0  0
 40 53  1  0  0  0  0
 41 70  1  0  0  0  0
 42 44  1  0  0  0  0
 43 45  1  0  0  0  0
 43 48  1  0  0  0  0
 44 52  1  0  0  0  0
 45 54  1  0  0  0  0
 46 49  1  0  0  0  0
 46 55  1  0  0  0  0
 47 50  1  0  0  0  0
 47 55  1  0  0  0  0
 48 71  1  0  0  0  0
 49 69  1  0  0  0  0
 50 69  1  0  0  0  0
 51 54  1  0  0  0  0
 51 71  1  0  0  0  0
 52 75  1  0  0  0  0
 53 70  1  0  0  0  0
 54 68  1  0  0  0  0
 55 63  1  0  0  0  0
 55 85  1  0  0  0  0
 57 65  1  0  0  0  0
 58 66  1  0  0  0  0
 59 66  1  0  0  0  0
 60 66  1  0  0  0  0
 61 77  1  0  0  0  0
 62 85  1  0  0  0  0
 63 84  1  0  0  0  0
 64 66  1  0  0  0  0
 64 76  1  0  0  0  0
 65 77  1  0  0  0  0
 67 68  1  0  0  0  0
M  CHG  1  77   1
M  ISO  4  38 100  63 101  74 100  84 101
M  END
> <Batch ID>
0155

> <Smiles>
CNC(C)C(=O)NC(C(=O)N1Cc2cc([101O:1][101CH2:1]C3(OC)CCN(c4ccc([100NH:0][100C:0](=O)N5CCCC(n6nc(-c7ccc(Oc8ccc(F)cc8F)cc7)c(C(N)=O)c6N)C5)cc4C)CC3)ccc2CC1C(=O)NC1CCCc2ccccc21)C(C)(C)C

> <Shape>
0.374

> <Color>
0.161

> <Negative vol penalty>
0.000

$$$$

  -OEChem-04052303363D

 87 96  0     1  0  0  0  0  0999 V2000
  -17.5445  -26.5768   22.2975 C   0  0  0  0  0  0  0  0  0  0  0  0
  -18.5361  -26.4822   21.3263 C   0  0  0  0  0  0  0  0  0  0  0  0
  -30.7915  -21.4838   16.0408 C   0  0  0  0  0  0  0  0  0  0  0  0
  -25.4939  -13.8794   21.8986 C   0  0  0  0  0  0  0  0  0  0  0  0
  -26.3264  -14.0414   19.6363 C   0  0  0  0  0  0  0  0  0  0  0  0
  -31.4788  -22.6599   16.3409 C   0  0  0  0  0  0  0  0  0  0  0  0
  -17.7092  -27.4419   23.3784 C   0  0  0  0  0  0  0  0  0  0  0  0
  -19.6926  -27.2537   21.4350 C   0  0  0  0  0  0  0  0  0  0  0  0
  -25.3554  -25.6586   19.7336 C   0  0  0  0  0  0  0  0  0  0  0  0
  -29.7961  -21.0190   16.9004 C   0  0  0  0  0  0  0  0  0  0  0  0
  -24.5372  -12.9546   21.4804 C   0  0  0  0  0  0  0  0  0  0  0  0
  -25.3696  -13.1165   19.2181 C   0  0  0  0  0  0  0  0  0  0  0  0
  -26.1052  -25.9372   18.5916 C   0  0  0  0  0  0  0  0  0  0  0  0
  -24.4201   -9.6613   20.7230 C   0  0  0  0  0  0  0  0  0  0  0  0
  -24.2358   -8.5208   21.5046 C   0  0  0  0  0  0  0  0  0  0  0  0
  -30.1755  -22.9063   18.3603 C   0  0  0  0  0  0  0  0  0  0  0  0
  -27.1642  -27.7739   19.7424 C   0  0  0  0  0  0  0  0  0  0  0  0
  -21.9261   -9.1356   21.8572 C   0  0  0  0  0  0  0  0  0  0  0  0
  -26.3885  -14.4228   20.9766 C   0  0  0  0  0  0  0  0  0  0  0  0
  -31.1708  -23.3711   17.5007 C   0  0  0  0  0  0  0  0  0  0  0  0
  -28.6791  -15.1062   21.8674 C   0  0  0  0  0  0  0  0  0  0  0  0
  -18.8725  -28.2172   23.5054 C   0  0  0  0  0  0  0  0  0  0  0  0
  -25.4967  -26.4437   20.8869 C   0  0  0  0  0  0  0  0  0  0  0  0
  -19.8724  -28.1310   22.5179 C   0  0  0  0  0  0  0  0  0  0  0  0
  -26.4169  -27.5016   20.8985 C   0  0  0  0  0  0  0  0  0  0  0  0
  -29.4881  -21.7302   18.0602 C   0  0  0  0  0  0  0  0  0  0  0  0
  -24.4750  -12.5731   20.1401 C   0  0  0  0  0  0  0  0  0  0  0  0
  -27.0076  -26.9967   18.5950 C   0  0  0  0  0  0  0  0  0  0  0  0
  -23.3574  -10.5391   20.5086 C   0  0  0  0  0  0  0  0  0  0  0  0
  -22.9888   -8.2580   22.0717 C   0  0  0  0  0  0  0  0  0  0  0  0
  -22.1104  -10.2762   21.0756 C   0  0  0  0  0  0  0  0  0  0  0  0
  -27.3767  -15.3787   21.4079 C   0  0  0  0  0  0  0  0  0  0  0  0
  -29.2090  -16.3415   22.1499 C   0  0  0  0  0  0  0  0  0  0  0  0
  -31.8961  -24.6142   17.8183 C   0  0  0  0  0  0  0  0  0  0  0  0
  -29.3501  -13.8490   22.0248 C   0  0  0  0  0  0  0  0  0  0  0  0
  -23.5623  -28.3164   22.5764 C   0  0  0  0  0  0  0  0  0  0  0  0
  -26.1047  -28.4715   24.5850 C   0  0  0  0  0  0  0  0  0  0  0  0
  -29.4799  -28.2029   25.0123 C   0  0  0  0  0  0  0  0  0  0  0  0
  -28.0477  -21.8417   20.1239 C   0  0  0  0  0  0  0  0  0  0  0  0
  -18.9846  -29.1732   24.6665 C   0  0  0  0  0  0  0  0  0  0  0  0
  -24.7000  -26.1136   22.1192 C   0  0  0  0  0  0  0  0  0  0  0  0
  -26.6207  -28.3620   22.1177 C   0  0  0  0  0  0  0  0  0  0  0  0
  -20.4053  -29.6783   24.9047 C   0  0  0  0  0  0  0  0  0  0  0  0
  -27.9177  -20.7481   23.5098 C   0  0  0  0  0  0  0  0  0  0  0  0
  -21.0455  -30.1113   23.5895 C   0  0  0  0  0  0  0  0  0  0  0  0
  -27.8889  -19.2221   23.3971 C   0  0  0  0  0  0  0  0  0  0  0  0
  -31.3644  -27.9938   16.6759 C   0  0  0  0  0  0  0  0  0  0  0  0
  -27.1210  -21.4147   22.3897 C   0  0  0  0  0  0  0  0  0  0  0  0
  -32.0811  -27.0598   17.6415 C   0  0  0  0  0  0  0  0  0  0  0  0
  -27.4588  -19.4675   20.9188 C   0  0  0  0  0  0  0  0  0  0  0  0
  -30.2020  -25.8924   16.5724 C   0  0  0  0  0  0  0  0  0  0  0  0
  -21.1521  -28.9332   22.6137 C   0  0  1  0  0  0  0  0  0  0  0  0
  -24.5508  -27.2978   23.0693 C   0  0  1  0  0  0  0  0  0  0  0  0
  -28.3016  -18.7532   21.9880 C   0  0  2  0  0  0  0  0  0  0  0  0
  -29.9539  -27.4047   16.5480 C   0  0  1  0  0  0  0  0  0  0  0  0
  -31.2681  -28.4231   26.7591 C   0  0  0  0  0  0  0  0  0  0  0  0
  -25.9013  -31.5107   24.4065 C   0  0  0  0  0  0  0  0  0  0  0  0
  -28.2140  -31.6516   25.3551 C   0  0  0  0  0  0  0  0  0  0  0  0
  -26.3770  -30.6298   26.6983 C   0  0  0  0  0  0  0  0  0  0  0  0
  -30.2844  -25.3706   24.7121 C   0  0  0  0  0  0  0  0  0  0  0  0
  -29.2845  -29.1891   15.1824 C   0  0  0  0  0  0  0  0  0  0  0  0
  -29.0291  -27.8513   17.6787 C   0  0  0  0  0  0  0  0  0  1  0  0
  -27.3110  -29.3698   24.7153 C   0  0  1  0  0  0  0  0  0  0  0  0
  -30.3084  -27.4758   26.0561 C   0  0  2  0  0  0  0  0  0  0  0  0
  -26.9458  -30.7757   25.2700 C   0  0  0  0  0  0  0  0  0  0  0  0
  -27.0961  -16.6845   21.3976 N   0  0  0  0  0  0  0  0  0  0  0  0
  -28.2297  -17.2436   21.8543 N   0  0  0  0  0  0  0  0  0  0  0  0
  -31.4296  -25.7683   17.3773 N   0  0  0  0  0  0  0  0  0  0  0  0
  -25.8138  -28.0033   23.2958 N   0  0  0  0  0  0  0  0  0  0  0  0
  -27.5695  -20.9253   21.0843 N   0  0  0  0  0  0  0  0  0  0  0  0
  -30.4123  -16.7332   22.6200 N   0  0  0  0  0  0  0  0  0  0  0  0
  -28.6600  -12.6766   21.6877 N   0  0  0  0  0  0  0  0  0  0  0  0
  -28.4769  -21.2573   18.9328 N   0  0  0  0  0  0  0  0  0  0  0  0
  -22.2611  -28.0764   22.9750 N   0  0  0  0  0  0  0  0  0  0  0  0
  -28.2779  -28.6396   25.5278 N   0  0  0  0  0  0  0  0  0  0  0  0
  -33.0078  -24.5543   18.5455 N   0  3  0  0  0  0  0  0  0  0  0  0
  -31.1037  -26.3876   25.4202 N   0  3  0  0  0  0  0  0  0  0  0  0
  -30.5210  -13.7665   22.4672 O   0  0  0  0  0  0  0  0  0  0  0  0
  -23.9515  -29.2518   21.8869 O   0  0  0  0  0  0  0  0  0  0  0  0
  -25.4491  -28.1897   25.5911 O   0  0  0  0  0  0  0  0  0  0  0  0
  -29.8626  -28.3702   23.8564 O   0  0  0  0  0  0  0  0  0  0  0  0
  -28.1000  -23.0529   20.3524 O   0  0  0  0  0  0  0  0  0  0  0  0
  -23.5417  -11.6705   19.7317 O   0  0  0  0  0  0  0  0  0  0  0  0
  -27.7403  -27.2712   17.4815 O   0  0  0  0  0  0  0  0  0  1  0  0
  -29.3802  -27.7785   15.3034 O   0  0  0  0  0  0  0  0  0  0  0  0
  -22.8116   -7.1619   22.8209 F   0  0  0  0  0  0  0  0  0  0  0  0
  -21.0854  -11.1151   20.8721 F   0  0  0  0  0  0  0  0  0  0  0  0
  1  2  1  0  0  0  0
  1  7  2  0  0  0  0
  2  8  2  0  0  0  0
  3  6  2  0  0  0  0
  3 10  1  0  0  0  0
  4 11  2  0  0  0  0
  4 19  1  0  0  0  0
  5 12  1  0  0  0  0
  5 19  2  0  0  0  0
  6 20  1  0  0  0  0
  7 22  1  0  0  0  0
  8 24  1  0  0  0  0
  9 13  2  0  0  0  0
  9 23  1  0  0  0  0
 10 26  2  0  0  0  0
 11 27  1  0  0  0  0
 12 27  2  0  0  0  0
 13 28  1  0  0  0  0
 14 15  2  0  0  0  0
 14 29  1  0  0  0  0
 15 30  1  0  0  0  0
 16 20  2  0  0  0  0
 16 26  1  0  0  0  0
 17 25  1  0  0  0  0
 17 28  2  0  0  0  0
 18 30  2  0  0  0  0
 18 31  1  0  0  0  0
 19 32  1  0  0  0  0
 20 34  1  0  0  0  0
 21 32  1  0  0  0  0
 21 33  2  0  0  0  0
 21 35  1  0  0  0  0
 22 24  2  0  0  0  0
 22 40  1  0  0  0  0
 23 25  2  0  0  0  0
 23 41  1  0  0  0  0
 24 52  1  0  0  0  0
 25 42  1  0  0  0  0
 26 73  1  0  0  0  0
 27 83  1  0  0  0  0
 28 84  1  0  0  0  0
 29 31  2  0  0  0  0
 29 83  1  0  0  0  0
 30 86  1  0  0  0  0
 31 87  1  0  0  0  0
 32 66  2  0  0  0  0
 33 67  1  0  0  0  0
 33 71  1  0  0  0  0
 34 68  1  0  0  0  0
 34 76  2  0  0  0  0
 35 72  1  0  0  0  0
 35 78  2  0  0  0  0
 36 53  1  0  0  0  0
 36 74  1  0  0  0  0
 36 79  2  0  0  0  0
 37 63  1  0  0  0  0
 37 69  1  0  0  0  0
 37 80  2  0  0  0  0
 38 64  1  0  0  0  0
 38 75  1  0  0  0  0
 38 81  2  0  0  0  0
 39 70  1  0  0  0  0
 39 73  1  0  0  0  0
 39 82  2  0  0  0  0
 40 43  1  0  0  0  0
 41 53  1  0  0  0  0
 42 69  1  0  0  0  0
 43 45  1  0  0  0  0
 44 46  1  0  0  0  0
 44 48  1  0  0  0  0
 45 52  1  0  0  0  0
 46 54  1  0  0  0  0
 47 49  1  0  0  0  0
 47 55  1  0  0  0  0
 48 70  1  0  0  0  0
 49 68  1  0  0  0  0
 50 54  1  0  0  0  0
 50 70  1  0  0  0  0
 51 55  1  0  0  0  0
 51 68  1  0  0  0  0
 52 74  1  0  0  0  0
 53 69  1  0  0  0  0
 54 67  1  0  0  0  0
 55 62  1  0  0  0  0
 55 85  1  0  0  0  0
 56 64  1  0  0  0  0
 57 65  1  0  0  0  0
 58 65  1  0  0  0  0
 59 65  1  0  0  0  0
 60 77  1  0  0  0  0
 61 85  1  0  0  0  0
 62 84  1  0  0  0  0
 63 65  1  0  0  0  0
 63 75  1  0  0  0  0
 64 77  1  0  0  0  0
 66 67  1  0  0  0  0
M  CHG  2  76   1  77   1
M  ISO  4  39 100  62 101  73 100  84 101
M  END
> <Batch ID>
0155

> <Smiles>
CNC(C)C(=O)NC(C(=O)N1Cc2cc([101O:1][101CH2:1]C3(OC)CCN(C(=N)c4cccc([100NH:0][100C:0](=O)N5CCCC(n6nc(-c7ccc(Oc8ccc(F)cc8F)cc7)c(C(N)=O)c6N)C5)c4)C3)ccc2CC1C(=O)NC1CCCc2ccccc21)C(C)(C)C

> <Shape>
0.278

> <Color>
0.059

> <Negative vol penalty>
0.000

$$$$

  -OEChem-04052303363D

 84 93  0     1  0  0  0  0  0999 V2000
  -26.4581  -38.4516   20.4620 C   0  0  0  0  0  0  0  0  0  0  0  0
  -27.1283  -37.3418   19.9574 C   0  0  0  0  0  0  0  0  0  0  0  0
  -23.3930   -8.6149   19.0454 C   0  0  0  0  0  0  0  0  0  0  0  0
  -23.6937   -9.6358   21.2143 C   0  0  0  0  0  0  0  0  0  0  0  0
  -25.6767  -38.3301   21.6102 C   0  0  0  0  0  0  0  0  0  0  0  0
  -27.0183  -36.1100   20.6016 C   0  0  0  0  0  0  0  0  0  0  0  0
  -26.9002  -29.0809   19.2249 C   0  0  0  0  0  0  0  0  0  0  0  0
  -22.5330   -7.6720   19.6084 C   0  0  0  0  0  0  0  0  0  0  0  0
  -22.8337   -8.6929   21.7774 C   0  0  0  0  0  0  0  0  0  0  0  0
  -27.5212  -27.8960   19.6173 C   0  0  0  0  0  0  0  0  0  0  0  0
  -22.9847   -5.4667   22.7769 C   0  0  0  0  0  0  0  0  0  0  0  0
  -23.3737   -4.8691   23.9758 C   0  0  0  0  0  0  0  0  0  0  0  0
  -26.0795  -27.7869   21.5483 C   0  0  0  0  0  0  0  0  0  0  0  0
  -28.6019  -20.6569   20.5647 C   0  0  0  0  0  0  0  0  0  0  0  0
  -21.3917   -5.7365   25.0512 C   0  0  0  0  0  0  0  0  0  0  0  0
  -23.9734   -9.5968   19.8483 C   0  0  0  0  0  0  0  0  0  0  0  0
  -24.5617  -11.4953   18.2492 C   0  0  0  0  0  0  0  0  0  0  0  0
  -25.5493  -37.0940   22.2633 C   0  0  0  0  0  0  0  0  0  0  0  0
  -25.8698  -29.6344   19.9985 C   0  0  0  0  0  0  0  0  0  0  0  0
  -26.2355  -35.9721   21.7604 C   0  0  0  0  0  0  0  0  0  0  0  0
  -25.4453  -28.9776   21.1623 C   0  0  0  0  0  0  0  0  0  0  0  0
  -28.9398  -19.3568   20.1389 C   0  0  0  0  0  0  0  0  0  0  0  0
  -22.2534   -7.7110   20.9744 C   0  0  0  0  0  0  0  0  0  0  0  0
  -27.1129  -27.2503   20.7807 C   0  0  0  0  0  0  0  0  0  0  0  0
  -21.7993   -6.1992   22.7152 C   0  0  0  0  0  0  0  0  0  0  0  0
  -22.5772   -5.0040   25.1129 C   0  0  0  0  0  0  0  0  0  0  0  0
  -21.0028   -6.3341   23.8523 C   0  0  0  0  0  0  0  0  0  0  0  0
  -24.8622  -10.5708   19.2674 C   0  0  0  0  0  0  0  0  0  0  0  0
  -29.4796  -19.3459   18.8818 C   0  0  0  0  0  0  0  0  0  0  0  0
  -25.7327  -12.1870   18.0570 C   0  0  0  0  0  0  0  0  0  0  0  0
  -28.9111  -21.5857   19.5832 C   0  0  0  0  0  0  0  0  0  0  0  0
  -23.3339  -11.7097   17.5405 C   0  0  0  0  0  0  0  0  0  0  0  0
  -25.4707  -32.3616   21.5819 C   0  0  0  0  0  0  0  0  0  0  0  0
  -22.4653  -31.2193   22.0124 C   0  0  0  0  0  0  0  0  0  0  0  0
  -28.2284  -23.8015   20.5621 C   0  0  0  0  0  0  0  0  0  0  0  0
  -20.3862  -28.5169   22.1575 C   0  0  0  0  0  0  0  0  0  0  0  0
  -30.2186  -14.7630   19.9141 C   0  0  0  0  0  0  0  0  0  0  0  0
  -24.7313  -37.0223   23.5284 C   0  0  0  0  0  0  0  0  0  0  0  0
  -25.1919  -30.8991   19.5473 C   0  0  0  0  0  0  0  0  0  0  0  0
  -28.8590  -17.9854   20.7025 C   0  0  0  0  0  0  0  0  0  0  0  0
  -24.3300  -29.5198   22.0170 C   0  0  0  0  0  0  0  0  0  0  0  0
  -29.8489  -17.9950   18.3937 C   0  0  0  0  0  0  0  0  0  0  0  0
  -24.3660  -35.5977   23.9375 C   0  0  0  0  0  0  0  0  0  0  0  0
  -30.4069  -11.3041   19.7507 C   0  0  0  0  0  0  0  0  0  0  0  0
  -25.5876  -34.6880   23.8526 C   0  0  0  0  0  0  0  0  0  0  0  0
  -28.9594  -10.8674   19.5297 C   0  0  0  0  0  0  0  0  0  0  0  0
  -30.4829  -12.4495   20.7532 C   0  0  0  0  0  0  0  0  0  0  0  0
  -28.2136  -13.2224   20.1417 C   0  0  0  0  0  0  0  0  0  0  0  0
  -26.1210  -34.6134   22.4169 C   0  0  1  0  0  0  0  0  0  0  0  0
  -24.5013  -31.6453   20.6847 C   0  0  1  0  0  0  0  0  0  0  0  0
  -28.0771  -12.0638   19.1325 C   0  0  2  0  0  0  0  0  0  0  0  0
  -29.7887  -17.1836   19.7308 C   0  0  2  0  0  0  0  0  0  0  0  0
  -17.9891  -27.8953   22.5640 C   0  0  0  0  0  0  0  0  0  0  0  0
  -22.8610  -31.6601   25.0055 C   0  0  0  0  0  0  0  0  0  0  0  0
  -20.8854  -30.1776   25.4143 C   0  0  0  0  0  0  0  0  0  0  0  0
  -20.6035  -32.3067   24.1453 C   0  0  0  0  0  0  0  0  0  0  0  0
  -27.9366  -15.6281   19.2440 C   0  0  0  0  0  0  0  0  0  0  0  0
  -20.1107  -27.3448   19.4540 C   0  0  0  0  0  0  0  0  0  0  0  0
  -28.2376  -25.2572   20.1338 C   0  0  0  0  0  0  0  0  0  1  0  0
  -21.7872  -30.3590   23.0511 C   0  0  1  0  0  0  0  0  0  0  0  0
  -19.0352  -28.2499   21.5187 C   0  0  2  0  0  0  0  0  0  0  0  0
  -21.5566  -31.1164   24.3892 C   0  0  0  0  0  0  0  0  0  0  0  0
  -26.1251  -10.6640   19.6923 N   0  0  0  0  0  0  0  0  0  0  0  0
  -26.6285  -11.6552   18.9373 N   0  0  0  0  0  0  0  0  0  0  0  0
  -23.7028  -30.7623   21.5373 N   0  0  0  0  0  0  0  0  0  0  0  0
  -29.6291  -13.5662   20.3473 N   0  0  0  0  0  0  0  0  0  0  0  0
  -26.0731  -13.1921   17.2226 N   0  0  0  0  0  0  0  0  0  0  0  0
  -22.4153  -12.6323   18.0595 N   0  0  0  0  0  0  0  0  0  0  0  0
  -28.7530  -22.9917   19.5605 N   0  0  0  0  0  0  0  0  0  0  0  0
  -25.2977  -33.7321   21.6169 N   0  0  0  0  0  0  0  0  0  0  0  0
  -20.5661  -29.8564   22.4309 N   0  0  0  0  0  0  0  0  0  0  0  0
  -29.3561  -15.8060   19.5442 N   0  0  0  0  0  0  0  0  0  0  0  0
  -19.1340  -27.1210   20.5508 N   0  3  0  0  0  0  0  0  0  0  0  0
  -23.0524  -11.0892   16.4873 O   0  0  0  0  0  0  0  0  0  0  0  0
  -26.3123  -31.7182   22.1980 O   0  0  0  0  0  0  0  0  0  0  0  0
  -21.9139  -32.2548   21.6312 O   0  0  0  0  0  0  0  0  0  0  0  0
  -27.8006  -23.4572   21.6589 O   0  0  0  0  0  0  0  0  0  0  0  0
  -21.1989  -27.6259   22.3941 O   0  0  0  0  0  0  0  0  0  0  0  0
  -31.4483  -14.8966   19.8673 O   0  0  0  0  0  0  0  0  0  0  0  0
  -21.4141   -6.7912   21.5241 O   0  0  0  0  0  0  0  0  0  0  0  0
  -27.7179  -26.0939   21.1663 O   0  0  0  0  0  0  0  0  0  1  0  0
  -22.9500   -4.4288   26.2636 F   0  0  0  0  0  0  0  0  0  0  0  0
  -19.8622   -7.0357   23.7988 F   0  0  0  0  0  0  0  0  0  0  0  0
  -29.6010  -20.8556   18.1734 S   0  0  0  0  0  0  0  0  0  0  0  0
  1  2  1  0  0  0  0
  1  5  2  0  0  0  0
  2  6  2  0  0  0  0
  3  8  2  0  0  0  0
  3 16  1  0  0  0  0
  4  9  1  0  0  0  0
  4 16  2  0  0  0  0
  5 18  1  0  0  0  0
  6 20  1  0  0  0  0
  7 10  2  0  0  0  0
  7 19  1  0  0  0  0
  8 23  1  0  0  0  0
  9 23  2  0  0  0  0
 10 24  1  0  0  0  0
 11 12  2  0  0  0  0
 11 25  1  0  0  0  0
 12 26  1  0  0  0  0
 13 21  1  0  0  0  0
 13 24  2  0  0  0  0
 14 22  1  0  0  0  0
 14 31  2  0  0  0  0
 15 26  2  0  0  0  0
 15 27  1  0  0  0  0
 16 28  1  0  0  0  0
 17 28  1  0  0  0  0
 17 30  2  0  0  0  0
 17 32  1  0  0  0  0
 18 20  2  0  0  0  0
 18 38  1  0  0  0  0
 19 21  2  0  0  0  0
 19 39  1  0  0  0  0
 20 49  1  0  0  0  0
 21 41  1  0  0  0  0
 22 29  2  0  0  0  0
 22 40  1  0  0  0  0
 23 80  1  0  0  0  0
 24 81  1  0  0  0  0
 25 27  2  0  0  0  0
 25 80  1  0  0  0  0
 26 82  1  0  0  0  0
 27 83  1  0  0  0  0
 28 63  2  0  0  0  0
 29 42  1  0  0  0  0
 29 84  1  0  0  0  0
 30 64  1  0  0  0  0
 30 67  1  0  0  0  0
 31 69  1  0  0  0  0
 31 84  1  0  0  0  0
 32 68  1  0  0  0  0
 32 74  2  0  0  0  0
 33 50  1  0  0  0  0
 33 70  1  0  0  0  0
 33 75  2  0  0  0  0
 34 60  1  0  0  0  0
 34 65  1  0  0  0  0
 34 76  2  0  0  0  0
 35 59  1  0  0  0  0
 35 69  1  0  0  0  0
 35 77  2  0  0  0  0
 36 61  1  0  0  0  0
 36 71  1  0  0  0  0
 36 78  2  0  0  0  0
 37 66  1  0  0  0  0
 37 72  1  0  0  0  0
 37 79  2  0  0  0  0
 38 43  1  0  0  0  0
 39 50  1  0  0  0  0
 40 52  1  0  0  0  0
 41 65  1  0  0  0  0
 42 52  1  0  0  0  0
 43 45  1  0  0  0  0
 44 46  1  0  0  0  0
 44 47  1  0  0  0  0
 45 49  1  0  0  0  0
 46 51  1  0  0  0  0
 47 66  1  0  0  0  0
 48 51  1  0  0  0  0
 48 66  1  0  0  0  0
 49 70  1  0  0  0  0
 50 65  1  0  0  0  0
 51 64  1  0  0  0  0
 52 72  1  0  0  0  0
 53 61  1  0  0  0  0
 54 62  1  0  0  0  0
 55 62  1  0  0  0  0
 56 62  1  0  0  0  0
 57 72  1  0  0  0  0
 58 73  1  0  0  0  0
 59 81  1  0  0  0  0
 60 62  1  0  0  0  0
 60 71  1  0  0  0  0
 61 73  1  0  0  0  0
 63 64  1  0  0  0  0
M  CHG  1  73   1
M  ISO  4  37 100  59 101  72 100  81 101
M  END
> <Batch ID>
0155

> <Smiles>
CNC(C)C(=O)NC(C(=O)N1Cc2cc([101O:1][101CH2:1]C(=O)Nc3cc4c(s3)CC([100N:0](C)[100C:0](=O)N3CCCC(n5nc(-c6ccc(Oc7ccc(F)cc7F)cc6)c(C(N)=O)c5N)C3)C4)ccc2CC1C(=O)NC1CCCc2ccccc21)C(C)(C)C

> <Shape>
0.327

> <Color>
0.113

> <Negative vol penalty>
0.000

$$$$

  -OEChem-04052303363D

 85 94  0     1  0  0  0  0  0999 V2000
  -26.6528  -35.2807   23.7629 C   0  0  0  0  0  0  0  0  0  0  0  0
  -27.0955  -34.0001   23.4477 C   0  0  0  0  0  0  0  0  0  0  0  0
  -23.6514  -14.1836   21.5589 C   0  0  0  0  0  0  0  0  0  0  0  0
  -25.8276  -14.2466   22.6063 C   0  0  0  0  0  0  0  0  0  0  0  0
  -25.3572  -35.4710   24.2416 C   0  0  0  0  0  0  0  0  0  0  0  0
  -26.2432  -32.9088   23.6121 C   0  0  0  0  0  0  0  0  0  0  0  0
  -26.3614  -29.7395   19.6641 C   0  0  0  0  0  0  0  0  0  0  0  0
  -23.9430  -12.9269   21.0286 C   0  0  0  0  0  0  0  0  0  0  0  0
  -26.1192  -12.9898   22.0760 C   0  0  0  0  0  0  0  0  0  0  0  0
  -27.4474  -28.8693   19.5785 C   0  0  0  0  0  0  0  0  0  0  0  0
  -24.0137   -9.7232   22.1077 C   0  0  0  0  0  0  0  0  0  0  0  0
  -23.0309   -8.7376   22.1981 C   0  0  0  0  0  0  0  0  0  0  0  0
  -29.6980  -22.8187   21.4546 C   0  0  0  0  0  0  0  0  0  0  0  0
  -26.0899  -27.0953   20.4893 C   0  0  0  0  0  0  0  0  0  0  0  0
  -30.0972  -21.1478   23.1534 C   0  0  0  0  0  0  0  0  0  0  0  0
  -22.9913   -8.5562   19.7892 C   0  0  0  0  0  0  0  0  0  0  0  0
  -24.5937  -14.8435   22.3477 C   0  0  0  0  0  0  0  0  0  0  0  0
  -23.6887  -16.4225   24.1352 C   0  0  0  0  0  0  0  0  0  0  0  0
  -24.4853  -34.3826   24.4028 C   0  0  0  0  0  0  0  0  0  0  0  0
  -25.1326  -29.2962   20.1740 C   0  0  0  0  0  0  0  0  0  0  0  0
  -24.9352  -33.0845   24.0947 C   0  0  0  0  0  0  0  0  0  0  0  0
  -31.0607  -23.1149   21.4257 C   0  0  0  0  0  0  0  0  0  0  0  0
  -24.9892  -27.9612   20.5780 C   0  0  0  0  0  0  0  0  0  0  0  0
  -29.2162  -21.8352   22.3185 C   0  0  0  0  0  0  0  0  0  0  0  0
  -31.9417  -22.4276   22.2606 C   0  0  0  0  0  0  0  0  0  0  0  0
  -25.1768  -12.3300   21.2872 C   0  0  0  0  0  0  0  0  0  0  0  0
  -27.3125  -27.5477   19.9938 C   0  0  0  0  0  0  0  0  0  0  0  0
  -24.4853  -10.1254   20.8581 C   0  0  0  0  0  0  0  0  0  0  0  0
  -22.5197   -8.1541   21.0388 C   0  0  0  0  0  0  0  0  0  0  0  0
  -31.4599  -21.4440   23.1245 C   0  0  0  0  0  0  0  0  0  0  0  0
  -23.9741   -9.5419   19.6989 C   0  0  0  0  0  0  0  0  0  0  0  0
  -24.2934  -16.1419   22.8953 C   0  0  0  0  0  0  0  0  0  0  0  0
  -23.6262  -17.7936   24.1844 C   0  0  0  0  0  0  0  0  0  0  0  0
  -23.2249  -15.5239   25.1517 C   0  0  0  0  0  0  0  0  0  0  0  0
  -23.3254  -30.0798   22.6687 C   0  0  0  0  0  0  0  0  0  0  0  0
  -21.2361  -28.0014   21.3133 C   0  0  0  0  0  0  0  0  0  0  0  0
  -20.7364  -25.3180   19.2648 C   0  0  0  0  0  0  0  0  0  0  0  0
  -26.8231  -22.1214   21.5853 C   0  0  0  0  0  0  0  0  0  0  0  0
  -23.1096  -34.6321   24.9683 C   0  0  0  0  0  0  0  0  0  0  0  0
  -23.9633  -30.2403   20.2349 C   0  0  0  0  0  0  0  0  0  0  0  0
  -23.6855  -27.4305   21.1138 C   0  0  0  0  0  0  0  0  0  0  0  0
  -22.1448  -33.4678   24.7591 C   0  0  0  0  0  0  0  0  0  0  0  0
  -23.3050  -21.6321   21.3388 C   0  0  0  0  0  0  0  0  0  0  0  0
  -31.2202  -23.8396   19.0218 C   0  0  0  0  0  0  0  0  0  0  0  0
  -22.8137  -32.1473   25.1275 C   0  0  0  0  0  0  0  0  0  0  0  0
  -30.2501  -24.9216   18.5584 C   0  0  0  0  0  0  0  0  0  0  0  0
  -23.1035  -20.1963   21.8286 C   0  0  0  0  0  0  0  0  0  0  0  0
  -30.8690  -25.5241   20.7768 C   0  0  0  0  0  0  0  0  0  0  0  0
  -24.5963  -21.7816   20.5362 C   0  0  0  0  0  0  0  0  0  0  0  0
  -25.6049  -19.8591   21.7006 C   0  0  0  0  0  0  0  0  0  0  0  0
  -31.5484  -24.1714   20.4927 C   0  0  1  0  0  0  0  0  0  0  0  0
  -24.0320  -31.8785   24.2360 C   0  0  1  0  0  0  0  0  0  0  0  0
  -22.9059  -29.8171   21.2500 C   0  0  1  0  0  0  0  0  0  0  0  0
  -30.6410  -26.1346   19.3954 C   0  0  2  0  0  0  0  0  0  0  0  0
  -24.3500  -19.6732   22.5691 C   0  0  2  0  0  0  0  0  0  0  0  0
  -18.9236  -23.8236   18.3827 C   0  0  0  0  0  0  0  0  0  0  0  0
  -21.1200  -26.5603   24.0003 C   0  0  0  0  0  0  0  0  0  0  0  0
  -20.0933  -24.6016   22.8266 C   0  0  0  0  0  0  0  0  0  0  0  0
  -18.9131  -26.7991   22.8484 C   0  0  0  0  0  0  0  0  0  0  0  0
  -21.2902  -26.1041   16.4658 C   0  0  0  0  0  0  0  0  0  0  0  0
  -29.5901  -27.2242   19.3906 C   0  0  0  0  0  0  0  0  0  1  0  0
  -20.9817  -26.5173   21.4225 C   0  0  1  0  0  0  0  0  0  0  0  0
  -19.7450  -25.0802   18.1400 C   0  0  2  0  0  0  0  0  0  0  0  0
  -20.3023  -26.1298   22.7662 C   0  0  0  0  0  0  0  0  0  0  0  0
  -24.5935  -17.2462   22.2064 N   0  0  0  0  0  0  0  0  0  0  0  0
  -24.1756  -18.2339   23.0163 N   0  0  0  0  0  0  0  0  0  0  0  0
  -22.5733  -28.3940   21.1596 N   0  0  0  0  0  0  0  0  0  0  0  0
  -25.7347  -21.2695   21.3022 N   0  0  0  0  0  0  0  0  0  0  0  0
  -33.3239  -22.7161   22.2429 N   0  0  0  0  0  0  0  0  0  0  0  0
  -23.1555  -18.6536   25.1124 N   0  0  0  0  0  0  0  0  0  0  0  0
  -23.3659  -14.1456   24.9401 N   0  0  0  0  0  0  0  0  0  0  0  0
  -27.8320  -21.5339   22.3480 N   0  0  0  0  0  0  0  0  0  0  0  0
  -23.6114  -31.4053   22.9346 N   0  0  0  0  0  0  0  0  0  0  0  0
  -20.2166  -26.1460   20.2371 N   0  0  0  0  0  0  0  0  0  0  0  0
  -20.4610  -24.9301   16.8416 N   0  3  0  0  0  0  0  0  0  0  0  0
  -22.6862  -15.9307   26.2090 O   0  0  0  0  0  0  0  0  0  0  0  0
  -23.3836  -29.1491   23.4637 O   0  0  0  0  0  0  0  0  0  0  0  0
  -20.2827  -28.7830   21.3554 O   0  0  0  0  0  0  0  0  0  0  0  0
  -21.8582  -24.8161   19.2811 O   0  0  0  0  0  0  0  0  0  0  0  0
  -26.8453  -23.2945   21.2042 O   0  0  0  0  0  0  0  0  0  0  0  0
  -25.4616  -11.1035   20.7701 O   0  0  0  0  0  0  0  0  0  0  0  0
  -28.3711  -26.6965   19.9119 O   0  0  0  0  0  0  0  0  0  1  0  0
  -21.5770   -7.2065   21.1258 F   0  0  0  0  0  0  0  0  0  0  0  0
  -32.2971  -20.7764   23.9313 F   0  0  0  0  0  0  0  0  0  0  0  0
  -24.4241   -9.9233   18.4956 F   0  0  0  0  0  0  0  0  0  0  0  0
  1  2  1  0  0  0  0
  1  5  2  0  0  0  0
  2  6  2  0  0  0  0
  3  8  2  0  0  0  0
  3 17  1  0  0  0  0
  4  9  1  0  0  0  0
  4 17  2  0  0  0  0
  5 19  1  0  0  0  0
  6 21  1  0  0  0  0
  7 10  2  0  0  0  0
  7 20  1  0  0  0  0
  8 26  1  0  0  0  0
  9 26  2  0  0  0  0
 10 27  1  0  0  0  0
 11 12  2  0  0  0  0
 11 28  1  0  0  0  0
 12 29  1  0  0  0  0
 13 22  1  0  0  0  0
 13 24  2  0  0  0  0
 14 23  1  0  0  0  0
 14 27  2  0  0  0  0
 15 24  1  0  0  0  0
 15 30  2  0  0  0  0
 16 29  2  0  0  0  0
 16 31  1  0  0  0  0
 17 32  1  0  0  0  0
 18 32  1  0  0  0  0
 18 33  2  0  0  0  0
 18 34  1  0  0  0  0
 19 21  2  0  0  0  0
 19 39  1  0  0  0  0
 20 23  2  0  0  0  0
 20 40  1  0  0  0  0
 21 52  1  0  0  0  0
 22 25  2  0  0  0  0
 22 51  1  0  0  0  0
 23 41  1  0  0  0  0
 24 72  1  0  0  0  0
 25 30  1  0  0  0  0
 25 69  1  0  0  0  0
 26 81  1  0  0  0  0
 27 82  1  0  0  0  0
 28 31  2  0  0  0  0
 28 81  1  0  0  0  0
 29 83  1  0  0  0  0
 30 84  1  0  0  0  0
 31 85  1  0  0  0  0
 32 65  2  0  0  0  0
 33 66  1  0  0  0  0
 33 70  1  0  0  0  0
 34 71  1  0  0  0  0
 34 76  2  0  0  0  0
 35 53  1  0  0  0  0
 35 73  1  0  0  0  0
 35 77  2  0  0  0  0
 36 62  1  0  0  0  0
 36 67  1  0  0  0  0
 36 78  2  0  0  0  0
 37 63  1  0  0  0  0
 37 74  1  0  0  0  0
 37 79  2  0  0  0  0
 38 68  1  0  0  0  0
 38 72  1  0  0  0  0
 38 80  2  0  0  0  0
 39 42  1  0  0  0  0
 40 53  1  0  0  0  0
 41 67  1  0  0  0  0
 42 45  1  0  0  0  0
 43 47  1  0  0  0  0
 43 49  1  0  0  0  0
 44 46  1  0  0  0  0
 44 51  1  0  0  0  0
 45 52  1  0  0  0  0
 46 54  1  0  0  0  0
 47 55  1  0  0  0  0
 48 51  1  0  0  0  0
 48 54  1  0  0  0  0
 49 68  1  0  0  0  0
 50 55  1  0  0  0  0
 50 68  1  0  0  0  0
 52 73  1  0  0  0  0
 53 67  1  0  0  0  0
 54 61  1  0  0  0  0
 55 66  1  0  0  0  0
 56 63  1  0  0  0  0
 57 64  1  0  0  0  0
 58 64  1  0  0  0  0
 59 64  1  0  0  0  0
 60 75  1  0  0  0  0
 61 82  1  0  0  0  0
 62 64  1  0  0  0  0
 62 74  1  0  0  0  0
 63 75  1  0  0  0  0
 65 66  1  0  0  0  0
M  CHG  1  75   1
M  ISO  4  38 100  61 101  72 100  82 101
M  END
> <Batch ID>
0155

> <Smiles>
CNC(C)C(=O)NC(C(=O)N1Cc2cc([101O:1][101CH2:1]C3CCC(c4cc([100NH:0][100C:0](=O)N5CCCC(n6nc(-c7ccc(Oc8ccc(F)cc8F)cc7)c(C(N)=O)c6N)C5)cc(F)c4N)C3)ccc2CC1C(=O)NC1CCCc2ccccc21)C(C)(C)C

> <Shape>
0.239

> <Color>
0.084

> <Negative vol penalty>
0.000

$$$$

  -OEChem-04052303363D

 81 89  0     1  0  0  0  0  0999 V2000
  -31.1877  -11.3903   22.7860 C   0  0  0  0  0  0  0  0  0  0  0  0
  -31.1005  -12.6156   22.1330 C   0  0  0  0  0  0  0  0  0  0  0  0
  -21.6010  -28.5441   22.4848 C   0  0  0  0  0  0  0  0  0  0  0  0
  -23.5686  -27.8285   23.6905 C   0  0  0  0  0  0  0  0  0  0  0  0
  -30.1664  -10.4518   22.6441 C   0  0  0  0  0  0  0  0  0  0  0  0
  -29.9924  -12.9027   21.3367 C   0  0  0  0  0  0  0  0  0  0  0  0
  -28.1871  -17.5673   22.1288 C   0  0  0  0  0  0  0  0  0  0  0  0
  -20.8140  -27.7001   23.2682 C   0  0  0  0  0  0  0  0  0  0  0  0
  -22.7815  -26.9844   24.4739 C   0  0  0  0  0  0  0  0  0  0  0  0
  -28.8764  -18.6256   21.5385 C   0  0  0  0  0  0  0  0  0  0  0  0
  -18.3361  -25.4643   24.7122 C   0  0  0  0  0  0  0  0  0  0  0  0
  -17.3762  -24.6854   24.0660 C   0  0  0  0  0  0  0  0  0  0  0  0
  -31.5613  -26.8330   20.7413 C   0  0  0  0  0  0  0  0  0  0  0  0
  -31.5901  -25.6114   21.4553 C   0  0  0  0  0  0  0  0  0  0  0  0
  -27.2415  -18.6938   19.7660 C   0  0  0  0  0  0  0  0  0  0  0  0
  -19.1134  -23.6242   22.7648 C   0  0  0  0  0  0  0  0  0  0  0  0
  -22.9784  -28.6083   22.6959 C   0  0  0  0  0  0  0  0  0  0  0  0
  -24.1200  -30.8231   22.1493 C   0  0  0  0  0  0  0  0  0  0  0  0
  -29.0406  -10.7314   21.8534 C   0  0  0  0  0  0  0  0  0  0  0  0
  -27.0238  -17.0563   21.5354 C   0  0  0  0  0  0  0  0  0  0  0  0
  -28.9557  -11.9666   21.1830 C   0  0  0  0  0  0  0  0  0  0  0  0
  -26.5378  -17.6307   20.3522 C   0  0  0  0  0  0  0  0  0  0  0  0
  -21.4042  -26.9203   24.2628 C   0  0  0  0  0  0  0  0  0  0  0  0
  -28.4053  -19.1871   20.3553 C   0  0  0  0  0  0  0  0  0  0  0  0
  -19.6846  -25.3232   24.3846 C   0  0  0  0  0  0  0  0  0  0  0  0
  -17.7648  -23.7653   23.0923 C   0  0  0  0  0  0  0  0  0  0  0  0
  -20.0732  -24.4032   23.4109 C   0  0  0  0  0  0  0  0  0  0  0  0
  -23.7920  -29.4796   21.8866 C   0  0  0  0  0  0  0  0  0  0  0  0
  -30.8520  -26.5854   19.5891 C   0  0  0  0  0  0  0  0  0  0  0  0
  -24.9076  -31.1981   21.0884 C   0  0  0  0  0  0  0  0  0  0  0  0
  -30.8961  -24.7044   20.6887 C   0  0  0  0  0  0  0  0  0  0  0  0
  -23.7463  -31.6576   23.2537 C   0  0  0  0  0  0  0  0  0  0  0  0
  -26.1703  -14.2406   20.3324 C   0  0  0  0  0  0  0  0  0  0  0  0
  -23.2674  -15.6662   20.0812 C   0  0  0  0  0  0  0  0  0  0  0  0
  -29.8837  -22.4899   20.0520 C   0  0  0  0  0  0  0  0  0  0  0  0
  -21.4713  -18.5574   19.8335 C   0  0  0  0  0  0  0  0  0  0  0  0
  -28.3814  -28.1243   17.3021 C   0  0  0  0  0  0  0  0  0  0  0  0
  -27.9844   -9.6670   21.6922 C   0  0  0  0  0  0  0  0  0  0  0  0
  -26.2770  -15.9319   22.1990 C   0  0  0  0  0  0  0  0  0  0  0  0
  -25.2825  -17.1320   19.6859 C   0  0  0  0  0  0  0  0  0  0  0  0
  -26.6671  -10.1962   21.1309 C   0  0  0  0  0  0  0  0  0  0  0  0
  -25.6521  -30.2494   16.4584 C   0  0  0  0  0  0  0  0  0  0  0  0
  -26.9237  -11.1016   19.9305 C   0  0  0  0  0  0  0  0  0  0  0  0
  -24.8955  -30.4143   17.7776 C   0  0  0  0  0  0  0  0  0  0  0  0
  -26.2282  -28.8430   16.3102 C   0  0  0  0  0  0  0  0  0  0  0  0
  -26.3102  -28.5601   18.7570 C   0  0  0  0  0  0  0  0  0  0  0  0
  -27.7578  -12.3247   20.3304 C   0  0  1  0  0  0  0  0  0  0  0  0
  -25.3882  -15.1534   21.2339 C   0  0  1  0  0  0  0  0  0  0  0  0
  -25.7586  -29.9791   18.9772 C   0  0  2  0  0  0  0  0  0  0  0  0
  -19.1193  -19.4019   19.6048 C   0  0  0  0  0  0  0  0  0  0  0  0
  -23.2704  -14.8695   17.1358 C   0  0  0  0  0  0  0  0  0  0  0  0
  -21.4222  -16.5161   16.7604 C   0  0  0  0  0  0  0  0  0  0  0  0
  -21.0724  -14.5790   18.2928 C   0  0  0  0  0  0  0  0  0  0  0  0
  -21.6283  -20.0322   22.3947 C   0  0  0  0  0  0  0  0  0  0  0  0
  -30.4706  -27.4231   18.4434 C   0  0  0  0  0  0  0  0  0  0  0  0
  -29.7938  -21.0961   20.6450 C   0  0  0  0  0  0  0  0  0  1  0  0
  -22.5658  -16.4837   19.0236 C   0  0  1  0  0  0  0  0  0  0  0  0
  -20.2367  -19.0427   20.5717 C   0  0  2  0  0  0  0  0  0  0  0  0
  -22.1075  -15.6204   17.8144 C   0  0  0  0  0  0  0  0  0  0  0  0
  -24.3273  -29.0313   20.7480 N   0  0  0  0  0  0  0  0  0  0  0  0
  -24.9995  -30.0992   20.2857 N   0  0  0  0  0  0  0  0  0  0  0  0
  -24.5912  -16.0266   20.3700 N   0  0  0  0  0  0  0  0  0  0  0  0
  -27.0374  -28.4922   17.4798 N   0  0  0  0  0  0  0  0  0  0  0  0
  -25.5233  -32.3573   20.7730 N   0  0  0  0  0  0  0  0  0  0  0  0
  -22.9327  -31.1135   24.2569 N   0  0  0  0  0  0  0  0  0  0  0  0
  -30.5994  -23.3358   20.8925 N   0  0  0  0  0  0  0  0  0  0  0  0
  -26.9305  -13.3023   21.0043 N   0  0  0  0  0  0  0  0  0  0  0  0
  -21.4814  -17.1849   19.7024 N   0  0  0  0  0  0  0  0  0  0  0  0
  -29.0785  -27.8134   18.4632 N   0  0  0  0  0  0  0  0  0  0  0  0
  -20.5602  -20.2488   21.3851 N   0  3  0  0  0  0  0  0  0  0  0  0
  -24.1091  -32.8553   23.3398 O   0  0  0  0  0  0  0  0  0  0  0  0
  -26.0890  -14.3765   19.1173 O   0  0  0  0  0  0  0  0  0  0  0  0
  -22.6608  -14.7463   20.6358 O   0  0  0  0  0  0  0  0  0  0  0  0
  -29.3703  -22.7630   18.9720 O   0  0  0  0  0  0  0  0  0  0  0  0
  -22.3380  -19.3200   19.4119 O   0  0  0  0  0  0  0  0  0  0  0  0
  -28.9215  -28.0816   16.1916 O   0  0  0  0  0  0  0  0  0  0  0  0
  -30.4429  -25.2902   19.5494 O   0  0  0  0  0  0  0  0  0  0  0  0
  -20.6365  -26.0967   25.0276 O   0  0  0  0  0  0  0  0  0  0  0  0
  -29.0766  -20.2198   19.7766 O   0  0  0  0  0  0  0  0  0  1  0  0
  -16.8431  -23.0163   22.4730 F   0  0  0  0  0  0  0  0  0  0  0  0
  -21.3674  -24.2623   23.0928 F   0  0  0  0  0  0  0  0  0  0  0  0
  1  2  1  0  0  0  0
  1  5  2  0  0  0  0
  2  6  2  0  0  0  0
  3  8  2  0  0  0  0
  3 17  1  0  0  0  0
  4  9  1  0  0  0  0
  4 17  2  0  0  0  0
  5 19  1  0  0  0  0
  6 21  1  0  0  0  0
  7 10  2  0  0  0  0
  7 20  1  0  0  0  0
  8 23  1  0  0  0  0
  9 23  2  0  0  0  0
 10 24  1  0  0  0  0
 11 12  2  0  0  0  0
 11 25  1  0  0  0  0
 12 26  1  0  0  0  0
 13 14  1  0  0  0  0
 13 29  2  0  0  0  0
 14 31  2  0  0  0  0
 15 22  1  0  0  0  0
 15 24  2  0  0  0  0
 16 26  2  0  0  0  0
 16 27  1  0  0  0  0
 17 28  1  0  0  0  0
 18 28  1  0  0  0  0
 18 30  2  0  0  0  0
 18 32  1  0  0  0  0
 19 21  2  0  0  0  0
 19 38  1  0  0  0  0
 20 22  2  0  0  0  0
 20 39  1  0  0  0  0
 21 47  1  0  0  0  0
 22 40  1  0  0  0  0
 23 78  1  0  0  0  0
 24 79  1  0  0  0  0
 25 27  2  0  0  0  0
 25 78  1  0  0  0  0
 26 80  1  0  0  0  0
 27 81  1  0  0  0  0
 28 60  2  0  0  0  0
 29 55  1  0  0  0  0
 29 77  1  0  0  0  0
 30 61  1  0  0  0  0
 30 64  1  0  0  0  0
 31 66  1  0  0  0  0
 31 77  1  0  0  0  0
 32 65  1  0  0  0  0
 32 71  2  0  0  0  0
 33 48  1  0  0  0  0
 33 67  1  0  0  0  0
 33 72  2  0  0  0  0
 34 57  1  0  0  0  0
 34 62  1  0  0  0  0
 34 73  2  0  0  0  0
 35 56  1  0  0  0  0
 35 66  1  0  0  0  0
 35 74  2  0  0  0  0
 36 58  1  0  0  0  0
 36 68  1  0  0  0  0
 36 75  2  0  0  0  0
 37 63  1  0  0  0  0
 37 69  1  0  0  0  0
 37 76  2  0  0  0  0
 38 41  1  0  0  0  0
 39 48  1  0  0  0  0
 40 62  1  0  0  0  0
 41 43  1  0  0  0  0
 42 44  1  0  0  0  0
 42 45  1  0  0  0  0
 43 47  1  0  0  0  0
 44 49  1  0  0  0  0
 45 63  1  0  0  0  0
 46 49  1  0  0  0  0
 46 63  1  0  0  0  0
 47 67  1  0  0  0  0
 48 62  1  0  0  0  0
 49 61  1  0  0  0  0
 50 58  1  0  0  0  0
 51 59  1  0  0  0  0
 52 59  1  0  0  0  0
 53 59  1  0  0  0  0
 54 70  1  0  0  0  0
 55 69  1  0  0  0  0
 56 79  1  0  0  0  0
 57 59  1  0  0  0  0
 57 68  1  0  0  0  0
 58 70  1  0  0  0  0
 60 61  1  0  0  0  0
M  CHG  1  70   1
M  ISO  4  37 100  56 101  69 100  79 101
M  END
> <Batch ID>
0155

> <Smiles>
CNC(C)C(=O)NC(C(=O)N1Cc2cc([101O:1][101CH2:1]C(=O)Nc3ccc(C[100NH:0][100C:0](=O)N4CCCC(n5nc(-c6ccc(Oc7ccc(F)cc7F)cc6)c(C(N)=O)c5N)C4)o3)ccc2CC1C(=O)NC1CCCc2ccccc21)C(C)(C)C

> <Shape>
0.203

> <Color>
0.091

> <Negative vol penalty>
0.000

$$$$

  -OEChem-04052303363D

 83 91  0     1  0  0  0  0  0999 V2000
  -26.0737  -21.1128   24.5433 C   0  0  0  0  0  0  0  0  0  0  0  0
  -26.1656  -19.7575   24.2474 C   0  0  0  0  0  0  0  0  0  0  0  0
  -25.0348  -29.8223   19.4914 C   0  0  0  0  0  0  0  0  0  0  0  0
  -24.5663  -28.9654   21.7012 C   0  0  0  0  0  0  0  0  0  0  0  0
  -26.8861  -22.0252   23.8734 C   0  0  0  0  0  0  0  0  0  0  0  0
  -27.0783  -19.3128   23.2902 C   0  0  0  0  0  0  0  0  0  0  0  0
  -27.5975  -14.4464   22.7880 C   0  0  0  0  0  0  0  0  0  0  0  0
  -24.6455  -31.0969   19.9031 C   0  0  0  0  0  0  0  0  0  0  0  0
  -24.1771  -30.2400   22.1130 C   0  0  0  0  0  0  0  0  0  0  0  0
  -26.6219  -13.6408   22.2024 C   0  0  0  0  0  0  0  0  0  0  0  0
  -25.9722  -33.6581   21.6674 C   0  0  0  0  0  0  0  0  0  0  0  0
  -26.7831  -34.7329   21.3030 C   0  0  0  0  0  0  0  0  0  0  0  0
  -27.9414  -13.5186   20.1866 C   0  0  0  0  0  0  0  0  0  0  0  0
  -24.9317  -35.7251   20.1093 C   0  0  0  0  0  0  0  0  0  0  0  0
  -24.9952  -28.7565   20.3905 C   0  0  0  0  0  0  0  0  0  0  0  0
  -26.6889  -26.8844   20.0245 C   0  0  0  0  0  0  0  0  0  0  0  0
  -27.8001  -21.5920   22.8988 C   0  0  0  0  0  0  0  0  0  0  0  0
  -28.7492  -14.8038   22.0722 C   0  0  0  0  0  0  0  0  0  0  0  0
  -27.9238  -20.2156   22.6204 C   0  0  0  0  0  0  0  0  0  0  0  0
  -28.9313  -14.3268   20.7663 C   0  0  0  0  0  0  0  0  0  0  0  0
  -24.2167  -31.3058   21.2139 C   0  0  0  0  0  0  0  0  0  0  0  0
  -26.7924  -13.1791   20.9005 C   0  0  0  0  0  0  0  0  0  0  0  0
  -24.6410  -33.6167   21.2528 C   0  0  0  0  0  0  0  0  0  0  0  0
  -26.2629  -35.7664   20.5240 C   0  0  0  0  0  0  0  0  0  0  0  0
  -24.1208  -34.6502   20.4738 C   0  0  0  0  0  0  0  0  0  0  0  0
  -25.3966  -27.4396   19.9656 C   0  0  0  0  0  0  0  0  0  0  0  0
  -26.5440  -25.6213   19.5049 C   0  0  0  0  0  0  0  0  0  0  0  0
  -20.8107  -15.6830   21.0188 C   0  0  0  0  0  0  0  0  0  0  0  0
  -22.9974  -16.4270   19.9856 C   0  0  0  0  0  0  0  0  0  0  0  0
  -20.1854  -16.8568   20.8318 C   0  0  0  0  0  0  0  0  0  0  0  0
  -22.5788  -17.6708   19.7008 C   0  0  0  0  0  0  0  0  0  0  0  0
  -22.2002  -15.3702   20.6329 C   0  0  0  0  0  0  0  0  0  0  0  0
  -27.9111  -27.4591   20.5059 C   0  0  0  0  0  0  0  0  0  0  0  0
  -30.0112  -17.5463   21.0774 C   0  0  0  0  0  0  0  0  0  0  0  0
  -32.4768  -15.6375   20.1833 C   0  0  0  0  0  0  0  0  0  0  0  0
  -33.5585  -12.5213   19.3079 C   0  0  0  0  0  0  0  0  0  0  0  0
  -23.7945  -20.8553   19.3729 C   0  0  0  0  0  0  0  0  0  0  0  0
  -28.6606  -22.6217   22.2099 C   0  0  0  0  0  0  0  0  0  0  0  0
  -29.8048  -15.6516   22.7276 C   0  0  0  0  0  0  0  0  0  0  0  0
  -30.1593  -14.6651   19.9625 C   0  0  0  0  0  0  0  0  0  0  0  0
  -29.2724  -22.1113   20.9094 C   0  0  0  0  0  0  0  0  0  0  0  0
  -22.6900  -23.4791   17.0548 C   0  0  0  0  0  0  0  0  0  0  0  0
  -29.9277  -20.7577   21.1393 C   0  0  0  0  0  0  0  0  0  0  0  0
  -23.3768  -24.7079   17.6456 C   0  0  0  0  0  0  0  0  0  0  0  0
  -22.2562  -22.4933   18.1383 C   0  0  0  0  0  0  0  0  0  0  0  0
  -24.0518  -23.3062   19.6374 C   0  0  0  0  0  0  0  0  0  0  0  0
  -28.8876  -19.7120   21.5611 C   0  0  1  0  0  0  0  0  0  0  0  0
  -30.6969  -16.3764   21.7245 C   0  0  1  0  0  0  0  0  0  0  0  0
  -24.5368  -24.2956   18.5660 C   0  0  2  0  0  0  0  0  0  0  0  0
  -35.6194  -11.2796   18.5948 C   0  0  0  0  0  0  0  0  0  0  0  0
  -23.6247  -11.5788   20.0174 C   0  0  0  0  0  0  0  0  0  0  0  0
  -32.2353  -16.8448   17.3916 C   0  0  0  0  0  0  0  0  0  0  0  0
  -33.6166  -14.9445   16.5261 C   0  0  0  0  0  0  0  0  0  0  0  0
  -34.5835  -16.5295   18.1922 C   0  0  0  0  0  0  0  0  0  0  0  0
  -33.4464  -10.7440   21.6717 C   0  0  0  0  0  0  0  0  0  0  0  0
  -24.0650  -14.0195   20.4368 C   0  0  0  0  0  0  0  0  0  0  0  0
  -32.8327  -14.8643   18.9365 C   0  0  1  0  0  0  0  0  0  0  0  0
  -34.7506  -11.7023   19.7692 C   0  0  2  0  0  0  0  0  0  0  0  0
  -24.4932  -12.5898   20.7507 C   0  0  2  0  0  0  0  0  0  1  0  0
  -33.2929  -15.7908   17.7758 C   0  0  0  0  0  0  0  0  0  0  0  0
  -24.4970  -26.5981   19.4491 N   0  0  0  0  0  0  0  0  0  0  0  0
  -22.6753  -14.2049   20.8668 N   0  0  0  0  0  0  0  0  0  0  0  0
  -25.2252  -25.5014   19.1787 N   0  0  0  0  0  0  0  0  0  0  0  0
  -31.1598  -15.5021   20.6449 N   0  0  0  0  0  0  0  0  0  0  0  0
  -23.3750  -22.1540   19.0305 N   0  0  0  0  0  0  0  0  0  0  0  0
  -27.4174  -24.6126   19.2996 N   0  0  0  0  0  0  0  0  0  0  0  0
  -18.8811  -16.9903   21.2507 N   0  0  0  0  0  0  0  0  0  0  0  0
  -27.8823  -28.7679   21.0065 N   0  0  0  0  0  0  0  0  0  0  0  0
  -23.4368  -18.5307   19.1005 N   0  0  0  0  0  0  0  0  0  0  0  0
  -29.5710  -18.5048   21.9701 N   0  0  0  0  0  0  0  0  0  0  0  0
  -33.8250  -13.8738   19.3397 N   0  0  0  0  0  0  0  0  0  0  0  0
  -23.0683  -19.8232   18.8004 N   0  0  0  0  0  0  0  0  0  0  0  0
  -34.2921  -10.4755   20.4802 N   0  3  0  0  0  0  0  0  0  0  0  0
  -28.9997  -26.8365   20.4774 O   0  0  0  0  0  0  0  0  0  0  0  0
  -29.8917  -17.5778   19.8582 O   0  0  0  0  0  0  0  0  0  0  0  0
  -33.3377  -16.3301   20.7317 O   0  0  0  0  0  0  0  0  0  0  0  0
  -32.4984  -12.0120   18.9512 O   0  0  0  0  0  0  0  0  0  0  0  0
  -24.7465  -20.6410   20.1317 O   0  0  0  0  0  0  0  0  0  0  0  0
  -23.8370  -32.5494   21.6161 O   0  0  0  0  0  0  0  0  0  0  0  0
  -25.8414  -12.3932   20.3263 O   0  0  0  0  0  0  0  0  0  1  0  0
  -27.0413  -36.7992   20.1753 F   0  0  0  0  0  0  0  0  0  0  0  0
  -22.8423  -34.6166   20.0734 F   0  0  0  0  0  0  0  0  0  0  0  0
  -20.9632  -18.2277   20.0734 S   0  0  0  0  0  0  0  0  0  0  0  0
  1  2  1  0  0  0  0
  1  5  2  0  0  0  0
  2  6  2  0  0  0  0
  3  8  2  0  0  0  0
  3 15  1  0  0  0  0
  4  9  1  0  0  0  0
  4 15  2  0  0  0  0
  5 17  1  0  0  0  0
  6 19  1  0  0  0  0
  7 10  2  0  0  0  0
  7 18  1  0  0  0  0
  8 21  1  0  0  0  0
  9 21  2  0  0  0  0
 10 22  1  0  0  0  0
 11 12  2  0  0  0  0
 11 23  1  0  0  0  0
 12 24  1  0  0  0  0
 13 20  1  0  0  0  0
 13 22  2  0  0  0  0
 14 24  2  0  0  0  0
 14 25  1  0  0  0  0
 15 26  1  0  0  0  0
 16 26  1  0  0  0  0
 16 27  2  0  0  0  0
 16 33  1  0  0  0  0
 17 19  2  0  0  0  0
 17 38  1  0  0  0  0
 18 20  2  0  0  0  0
 18 39  1  0  0  0  0
 19 47  1  0  0  0  0
 20 40  1  0  0  0  0
 21 79  1  0  0  0  0
 22 80  1  0  0  0  0
 23 25  2  0  0  0  0
 23 79  1  0  0  0  0
 24 81  1  0  0  0  0
 25 82  1  0  0  0  0
 26 61  2  0  0  0  0
 27 63  1  0  0  0  0
 27 66  1  0  0  0  0
 28 30  2  0  0  0  0
 28 32  1  0  0  0  0
 29 31  2  0  0  0  0
 29 32  1  0  0  0  0
 30 67  1  0  0  0  0
 30 83  1  0  0  0  0
 31 69  1  0  0  0  0
 31 83  1  0  0  0  0
 32 62  2  0  0  0  0
 33 68  1  0  0  0  0
 33 74  2  0  0  0  0
 34 48  1  0  0  0  0
 34 70  1  0  0  0  0
 34 75  2  0  0  0  0
 35 57  1  0  0  0  0
 35 64  1  0  0  0  0
 35 76  2  0  0  0  0
 36 58  1  0  0  0  0
 36 71  1  0  0  0  0
 36 77  2  0  0  0  0
 37 65  1  0  0  0  0
 37 72  1  0  0  0  0
 37 78  2  0  0  0  0
 38 41  1  0  0  0  0
 39 48  1  0  0  0  0
 40 64  1  0  0  0  0
 41 43  1  0  0  0  0
 42 44  1  0  0  0  0
 42 45  1  0  0  0  0
 43 47  1  0  0  0  0
 44 49  1  0  0  0  0
 45 65  1  0  0  0  0
 46 49  1  0  0  0  0
 46 65  1  0  0  0  0
 47 70  1  0  0  0  0
 48 64  1  0  0  0  0
 49 63  1  0  0  0  0
 50 58  1  0  0  0  0
 51 59  1  0  0  0  0
 52 60  1  0  0  0  0
 53 60  1  0  0  0  0
 54 60  1  0  0  0  0
 55 73  1  0  0  0  0
 56 59  1  0  0  0  0
 56 62  1  0  0  0  0
 57 60  1  0  0  0  0
 57 71  1  0  0  0  0
 58 73  1  0  0  0  0
 59 80  1  0  0  0  0
 61 63  1  0  0  0  0
 69 72  1  0  0  0  0
M  CHG  1  73   1
M  ISO  4  37 100  59 101  72 100  80 101
M  END
> <Batch ID>
0155

> <Smiles>
CNC(C)C(=O)NC(C(=O)N1Cc2cc([101O:1][101CH:1](C)CNc3cc(N)sc(=N[100NH:0][100C:0](=O)N4CCCC(n5nc(-c6ccc(Oc7ccc(F)cc7F)cc6)c(C(N)=O)c5N)C4)c3)ccc2CC1C(=O)NC1CCCc2ccccc21)C(C)(C)C

> <Shape>
0.185

> <Color>
0.067

> <Negative vol penalty>
0.000

$$$$

  -OEChem-04052303363D

 82 90  0     1  0  0  0  0  0999 V2000
  -33.8680  -31.7965   12.4626 C   0  0  0  0  0  0  0  0  0  0  0  0
  -34.3313  -30.5538   12.8827 C   0  0  0  0  0  0  0  0  0  0  0  0
  -22.9560  -10.0644   19.8012 C   0  0  0  0  0  0  0  0  0  0  0  0
  -23.7385   -9.8446   22.0764 C   0  0  0  0  0  0  0  0  0  0  0  0
  -32.9222  -32.4807   13.2249 C   0  0  0  0  0  0  0  0  0  0  0  0
  -33.8497  -29.9951   14.0661 C   0  0  0  0  0  0  0  0  0  0  0  0
  -32.8923  -24.0553   15.2102 C   0  0  0  0  0  0  0  0  0  0  0  0
  -22.1591   -8.9315   19.9658 C   0  0  0  0  0  0  0  0  0  0  0  0
  -22.9416   -8.7117   22.2410 C   0  0  0  0  0  0  0  0  0  0  0  0
  -33.6521  -23.0938   15.8750 C   0  0  0  0  0  0  0  0  0  0  0  0
  -23.0638   -5.4373   21.4077 C   0  0  0  0  0  0  0  0  0  0  0  0
  -23.6356   -4.3276   22.0299 C   0  0  0  0  0  0  0  0  0  0  0  0
  -32.3901  -23.4987   17.8905 C   0  0  0  0  0  0  0  0  0  0  0  0
  -31.8973  -18.1669   20.4608 C   0  0  0  0  0  0  0  0  0  0  0  0
  -21.9621   -4.4404   23.7689 C   0  0  0  0  0  0  0  0  0  0  0  0
  -23.7458  -10.5209   20.8565 C   0  0  0  0  0  0  0  0  0  0  0  0
  -24.2096  -13.0280   20.9401 C   0  0  0  0  0  0  0  0  0  0  0  0
  -32.4216  -31.9258   14.4132 C   0  0  0  0  0  0  0  0  0  0  0  0
  -31.8812  -24.7547   15.8847 C   0  0  0  0  0  0  0  0  0  0  0  0
  -32.8973  -30.6731   14.8457 C   0  0  0  0  0  0  0  0  0  0  0  0
  -31.6172  -24.4668   17.2314 C   0  0  0  0  0  0  0  0  0  0  0  0
  -30.8843  -17.7096   21.3524 C   0  0  0  0  0  0  0  0  0  0  0  0
  -22.1519   -8.2552   21.1857 C   0  0  0  0  0  0  0  0  0  0  0  0
  -33.4030  -22.8174   17.2161 C   0  0  0  0  0  0  0  0  0  0  0  0
  -21.9412   -6.0486   21.9661 C   0  0  0  0  0  0  0  0  0  0  0  0
  -23.0848   -3.8291   23.2105 C   0  0  0  0  0  0  0  0  0  0  0  0
  -21.3904   -5.5501   23.1467 C   0  0  0  0  0  0  0  0  0  0  0  0
  -24.5696  -11.6908   20.6869 C   0  0  0  0  0  0  0  0  0  0  0  0
  -25.3334  -13.7518   20.6244 C   0  0  0  0  0  0  0  0  0  0  0  0
  -31.5037  -19.2860   19.7606 C   0  0  0  0  0  0  0  0  0  0  0  0
  -29.7549  -18.4969   21.2997 C   0  0  0  0  0  0  0  0  0  0  0  0
  -22.9702  -13.5676   21.4181 C   0  0  0  0  0  0  0  0  0  0  0  0
  -31.3584  -27.8077   16.5989 C   0  0  0  0  0  0  0  0  0  0  0  0
  -28.5192  -26.6656   17.6744 C   0  0  0  0  0  0  0  0  0  0  0  0
  -26.7223  -24.0149   18.8544 C   0  0  0  0  0  0  0  0  0  0  0  0
  -30.8621  -14.4875   20.8184 C   0  0  0  0  0  0  0  0  0  0  0  0
  -31.4352  -32.7242   15.2281 C   0  0  0  0  0  0  0  0  0  0  0  0
  -31.0527  -25.7699   15.1462 C   0  0  0  0  0  0  0  0  0  0  0  0
  -30.5295  -25.1753   17.9953 C   0  0  0  0  0  0  0  0  0  0  0  0
  -30.6976  -31.8943   16.2757 C   0  0  0  0  0  0  0  0  0  0  0  0
  -29.5849  -12.3666   18.2596 C   0  0  0  0  0  0  0  0  0  0  0  0
  -31.6769  -31.0141   17.0457 C   0  0  0  0  0  0  0  0  0  0  0  0
  -28.1393  -12.1073   18.6872 C   0  0  0  0  0  0  0  0  0  0  0  0
  -30.5239  -12.4428   19.4615 C   0  0  0  0  0  0  0  0  0  0  0  0
  -28.6744  -13.1466   20.9304 C   0  0  0  0  0  0  0  0  0  0  0  0
  -32.3806  -30.0230   16.1108 C   0  0  1  0  0  0  0  0  0  0  0  0
  -30.3905  -26.7871   16.0704 C   0  0  1  0  0  0  0  0  0  0  0  0
  -27.6810  -13.1173   19.7563 C   0  0  2  0  0  0  0  0  0  0  0  0
  -24.4358  -23.3981   19.6842 C   0  0  0  0  0  0  0  0  0  0  0  0
  -35.5170  -20.1816   16.9198 C   0  0  0  0  0  0  0  0  0  0  0  0
  -29.1154  -28.0405   20.3323 C   0  0  0  0  0  0  0  0  0  0  0  0
  -27.3281  -26.6351   21.3805 C   0  0  0  0  0  0  0  0  0  0  0  0
  -26.7442  -28.2408   19.5630 C   0  0  0  0  0  0  0  0  0  0  0  0
  -26.3379  -22.0445   16.6799 C   0  0  0  0  0  0  0  0  0  0  0  0
  -31.0458  -16.5223   22.2273 C   0  0  0  0  0  0  0  0  0  0  0  0
  -33.5921  -19.5979   18.4313 C   0  0  0  0  0  0  0  0  0  0  0  0
  -28.0123  -26.1295   18.9916 C   0  0  1  0  0  0  0  0  0  0  0  0
  -25.3548  -23.4762   18.4750 C   0  0  2  0  0  0  0  0  0  0  0  0
  -34.1053  -20.5494   17.3530 C   0  0  1  0  0  0  0  0  0  1  0  0
  -27.8219  -27.2493   20.0532 C   0  0  0  0  0  0  0  0  0  0  0  0
  -25.8239  -11.5695   20.2443 N   0  0  0  0  0  0  0  0  0  0  0  0
  -26.2619  -12.8397   20.2168 N   0  0  0  0  0  0  0  0  0  0  0  0
  -29.7510  -26.1639   17.2310 N   0  0  0  0  0  0  0  0  0  0  0  0
  -30.0334  -13.4194   20.4369 N   0  0  0  0  0  0  0  0  0  0  0  0
  -25.6080  -15.0731   20.6584 N   0  0  0  0  0  0  0  0  0  0  0  0
  -28.6143  -18.3362   22.0180 N   0  0  0  0  0  0  0  0  0  0  0  0
  -21.9185  -12.6832   21.6936 N   0  0  0  0  0  0  0  0  0  0  0  0
  -32.2516  -19.9737   18.8196 N   0  0  0  0  0  0  0  0  0  0  0  0
  -31.5013  -28.9191   15.7903 N   0  0  0  0  0  0  0  0  0  0  0  0
  -26.7972  -25.3816   18.6874 N   0  0  0  0  0  0  0  0  0  0  0  0
  -30.3178  -15.3709   21.7425 N   0  0  0  0  0  0  0  0  0  0  0  0
  -25.4797  -22.1109   17.8907 N   0  3  0  0  0  0  0  0  0  0  0  0
  -22.7951  -14.7992   21.5800 O   0  0  0  0  0  0  0  0  0  0  0  0
  -31.9318  -27.6027   17.6622 O   0  0  0  0  0  0  0  0  0  0  0  0
  -27.8435  -27.4934   17.0582 O   0  0  0  0  0  0  0  0  0  0  0  0
  -27.6319  -23.2959   19.2620 O   0  0  0  0  0  0  0  0  0  0  0  0
  -32.0006  -14.6453   20.3647 O   0  0  0  0  0  0  0  0  0  0  0  0
  -21.3742   -7.1498   21.3467 O   0  0  0  0  0  0  0  0  0  0  0  0
  -34.1436  -21.8798   17.8675 O   0  0  0  0  0  0  0  0  0  1  0  0
  -23.6330   -2.7625   23.8071 F   0  0  0  0  0  0  0  0  0  0  0  0
  -20.3112   -6.1325   23.6872 F   0  0  0  0  0  0  0  0  0  0  0  0
  -29.9186  -19.7810   20.1787 S   0  0  0  0  0  0  0  0  0  0  0  0
  1  2  1  0  0  0  0
  1  5  2  0  0  0  0
  2  6  2  0  0  0  0
  3  8  2  0  0  0  0
  3 16  1  0  0  0  0
  4  9  1  0  0  0  0
  4 16  2  0  0  0  0
  5 18  1  0  0  0  0
  6 20  1  0  0  0  0
  7 10  2  0  0  0  0
  7 19  1  0  0  0  0
  8 23  1  0  0  0  0
  9 23  2  0  0  0  0
 10 24  1  0  0  0  0
 11 12  2  0  0  0  0
 11 25  1  0  0  0  0
 12 26  1  0  0  0  0
 13 21  1  0  0  0  0
 13 24  2  0  0  0  0
 14 22  1  0  0  0  0
 14 30  2  0  0  0  0
 15 26  2  0  0  0  0
 15 27  1  0  0  0  0
 16 28  1  0  0  0  0
 17 28  1  0  0  0  0
 17 29  2  0  0  0  0
 17 32  1  0  0  0  0
 18 20  2  0  0  0  0
 18 37  1  0  0  0  0
 19 21  2  0  0  0  0
 19 38  1  0  0  0  0
 20 46  1  0  0  0  0
 21 39  1  0  0  0  0
 22 31  2  0  0  0  0
 22 55  1  0  0  0  0
 23 78  1  0  0  0  0
 24 79  1  0  0  0  0
 25 27  2  0  0  0  0
 25 78  1  0  0  0  0
 26 80  1  0  0  0  0
 27 81  1  0  0  0  0
 28 61  2  0  0  0  0
 29 62  1  0  0  0  0
 29 65  1  0  0  0  0
 30 68  1  0  0  0  0
 30 82  1  0  0  0  0
 31 66  1  0  0  0  0
 31 82  1  0  0  0  0
 32 67  1  0  0  0  0
 32 73  2  0  0  0  0
 33 47  1  0  0  0  0
 33 69  1  0  0  0  0
 33 74  2  0  0  0  0
 34 57  1  0  0  0  0
 34 63  1  0  0  0  0
 34 75  2  0  0  0  0
 35 58  1  0  0  0  0
 35 70  1  0  0  0  0
 35 76  2  0  0  0  0
 36 64  1  0  0  0  0
 36 71  1  0  0  0  0
 36 77  2  0  0  0  0
 37 40  1  0  0  0  0
 38 47  1  0  0  0  0
 39 63  1  0  0  0  0
 40 42  1  0  0  0  0
 41 43  1  0  0  0  0
 41 44  1  0  0  0  0
 42 46  1  0  0  0  0
 43 48  1  0  0  0  0
 44 64  1  0  0  0  0
 45 48  1  0  0  0  0
 45 64  1  0  0  0  0
 46 69  1  0  0  0  0
 47 63  1  0  0  0  0
 48 62  1  0  0  0  0
 49 58  1  0  0  0  0
 50 59  1  0  0  0  0
 51 60  1  0  0  0  0
 52 60  1  0  0  0  0
 53 60  1  0  0  0  0
 54 72  1  0  0  0  0
 55 71  1  0  0  0  0
 56 59  1  0  0  0  0
 56 68  1  0  0  0  0
 57 60  1  0  0  0  0
 57 70  1  0  0  0  0
 58 72  1  0  0  0  0
 59 79  1  0  0  0  0
 61 62  1  0  0  0  0
M  CHG  1  72   1
M  ISO  4  36 100  59 101  71 100  79 101
M  END
> <Batch ID>
0155

> <Smiles>
CNC(C)C(=O)NC(C(=O)N1Cc2cc([101O:1][101CH:1](C)CNc3cc(C[100NH:0][100C:0](=O)N4CCCC(n5nc(-c6ccc(Oc7ccc(F)cc7F)cc6)c(C(N)=O)c5N)C4)c(N)s3)ccc2CC1C(=O)NC1CCCc2ccccc21)C(C)(C)C

> <Shape>
0.245

> <Color>
0.181

> <Negative vol penalty>
0.000

$$$$

  -OEChem-04052303363D

 82 91  0     1  0  0  0  0  0999 V2000
  -31.6880  -33.1249   15.0006 C   0  0  0  0  0  0  0  0  0  0  0  0
  -31.5999  -31.8342   15.5124 C   0  0  0  0  0  0  0  0  0  0  0  0
  -22.8810  -10.1886   19.9397 C   0  0  0  0  0  0  0  0  0  0  0  0
  -23.8805   -9.7572   22.0965 C   0  0  0  0  0  0  0  0  0  0  0  0
  -31.2491  -34.2070   15.7623 C   0  0  0  0  0  0  0  0  0  0  0  0
  -31.0737  -31.6251   16.7867 C   0  0  0  0  0  0  0  0  0  0  0  0
  -27.7304  -26.8443   18.6502 C   0  0  0  0  0  0  0  0  0  0  0  0
  -22.0783   -9.0572   20.0854 C   0  0  0  0  0  0  0  0  0  0  0  0
  -23.0777   -8.6259   22.2423 C   0  0  0  0  0  0  0  0  0  0  0  0
  -28.0611  -25.6835   19.3479 C   0  0  0  0  0  0  0  0  0  0  0  0
  -19.2484   -8.2057   21.7283 C   0  0  0  0  0  0  0  0  0  0  0  0
  -17.8975   -8.3229   21.4012 C   0  0  0  0  0  0  0  0  0  0  0  0
  -27.3756  -26.7340   21.4084 C   0  0  0  0  0  0  0  0  0  0  0  0
  -30.0146  -19.4135   22.7778 C   0  0  0  0  0  0  0  0  0  0  0  0
  -18.1548   -6.6038   19.7231 C   0  0  0  0  0  0  0  0  0  0  0  0
  -23.7822  -10.5386   20.9452 C   0  0  0  0  0  0  0  0  0  0  0  0
  -24.3103  -13.0215   21.1980 C   0  0  0  0  0  0  0  0  0  0  0  0
  -30.7084  -34.0101   17.0428 C   0  0  0  0  0  0  0  0  0  0  0  0
  -27.2292  -27.9644   19.3289 C   0  0  0  0  0  0  0  0  0  0  0  0
  -30.6284  -32.7057   17.5668 C   0  0  0  0  0  0  0  0  0  0  0  0
  -27.0369  -27.9070   20.7166 C   0  0  0  0  0  0  0  0  0  0  0  0
  -30.5241  -18.1315   22.7570 C   0  0  0  0  0  0  0  0  0  0  0  0
  -22.1766   -8.2759   21.2367 C   0  0  0  0  0  0  0  0  0  0  0  0
  -27.8864  -25.6292   20.7277 C   0  0  0  0  0  0  0  0  0  0  0  0
  -20.0525   -7.2877   21.0528 C   0  0  0  0  0  0  0  0  0  0  0  0
  -17.3507   -7.5219   20.3986 C   0  0  0  0  0  0  0  0  0  0  0  0
  -19.5057   -6.4867   20.0503 C   0  0  0  0  0  0  0  0  0  0  0  0
  -24.6121  -11.7068   20.7951 C   0  0  0  0  0  0  0  0  0  0  0  0
  -30.8605  -17.6768   21.5440 C   0  0  0  0  0  0  0  0  0  0  0  0
  -25.4138  -13.7540   20.8341 C   0  0  0  0  0  0  0  0  0  0  0  0
  -29.9994  -19.8919   21.4664 C   0  0  0  0  0  0  0  0  0  0  0  0
  -23.1375  -13.5346   21.8436 C   0  0  0  0  0  0  0  0  0  0  0  0
  -28.2116  -30.9583   19.7481 C   0  0  0  0  0  0  0  0  0  0  0  0
  -25.3214  -31.2935   21.1823 C   0  0  0  0  0  0  0  0  0  0  0  0
  -29.0578  -22.2197   21.6348 C   0  0  0  0  0  0  0  0  0  0  0  0
  -22.6990  -29.8205   22.7947 C   0  0  0  0  0  0  0  0  0  0  0  0
  -30.9418  -14.4030   20.5167 C   0  0  0  0  0  0  0  0  0  0  0  0
  -30.2908  -35.2153   17.8476 C   0  0  0  0  0  0  0  0  0  0  0  0
  -26.8522  -29.1998   18.5581 C   0  0  0  0  0  0  0  0  0  0  0  0
  -30.9166  -16.8820   23.4709 C   0  0  0  0  0  0  0  0  0  0  0  0
  -26.4831  -29.0751   21.4895 C   0  0  0  0  0  0  0  0  0  0  0  0
  -29.3999  -34.8732   19.0391 C   0  0  0  0  0  0  0  0  0  0  0  0
  -29.3782  -12.5205   17.9431 C   0  0  0  0  0  0  0  0  0  0  0  0
  -29.9747  -33.6912   19.8134 C   0  0  0  0  0  0  0  0  0  0  0  0
  -27.9753  -12.2471   18.4881 C   0  0  0  0  0  0  0  0  0  0  0  0
  -30.4312  -12.4770   19.0484 C   0  0  0  0  0  0  0  0  0  0  0  0
  -28.7528  -13.0756   20.7486 C   0  0  0  0  0  0  0  0  0  0  0  0
  -30.0408  -32.4360   18.9350 C   0  0  1  0  0  0  0  0  0  0  0  0
  -31.3323  -16.3488   22.0561 C   0  0  1  0  0  0  0  0  0  0  0  0
  -26.8331  -30.4588   19.4194 C   0  0  1  0  0  0  0  0  0  0  0  0
  -27.6480  -13.1647   19.6817 C   0  0  2  0  0  0  0  0  0  0  0  0
  -20.5014  -30.3578   23.8806 C   0  0  0  0  0  0  0  0  0  0  0  0
  -26.7961  -32.4012   23.6130 C   0  0  0  0  0  0  0  0  0  0  0  0
  -24.7186  -32.0236   24.9583 C   0  0  0  0  0  0  0  0  0  0  0  0
  -24.6848  -33.6100   23.0335 C   0  0  0  0  0  0  0  0  0  0  0  0
  -21.2086  -28.1154   20.8894 C   0  0  0  0  0  0  0  0  0  0  0  0
  -28.7326  -23.3596   20.6874 C   0  0  0  0  0  0  0  0  0  1  0  0
  -24.7998  -31.1238   22.5887 C   0  0  1  0  0  0  0  0  0  0  0  0
  -21.1988  -29.9396   22.5955 C   0  0  2  0  0  0  0  0  0  0  0  0
  -25.2621  -32.2682   23.5344 C   0  0  0  0  0  0  0  0  0  0  0  0
  -25.8131  -11.6069   20.2191 N   0  0  0  0  0  0  0  0  0  0  0  0
  -26.2757  -12.8681   20.2575 N   0  0  0  0  0  0  0  0  0  0  0  0
  -26.1354  -30.2626   20.6918 N   0  0  0  0  0  0  0  0  0  0  0  0
  -30.0615  -13.3742   20.1460 N   0  0  0  0  0  0  0  0  0  0  0  0
  -25.7211  -15.0630   20.9543 N   0  0  0  0  0  0  0  0  0  0  0  0
  -22.0980  -12.6447   22.1465 N   0  0  0  0  0  0  0  0  0  0  0  0
  -29.5783  -21.1350   20.9374 N   0  0  0  0  0  0  0  0  0  0  0  0
  -28.7301  -31.8344   18.8138 N   0  0  0  0  0  0  0  0  0  0  0  0
  -23.3514  -30.9921   22.4738 N   0  0  0  0  0  0  0  0  0  0  0  0
  -30.5189  -15.2195   21.5605 N   0  0  0  0  0  0  0  0  0  0  0  0
  -20.6295  -28.6346   22.1551 N   0  3  0  0  0  0  0  0  0  0  0  0
  -23.0081  -14.7495   22.1283 O   0  0  0  0  0  0  0  0  0  0  0  0
  -28.7633  -30.5781   20.7741 O   0  0  0  0  0  0  0  0  0  0  0  0
  -25.0121  -32.3001   20.5399 O   0  0  0  0  0  0  0  0  0  0  0  0
  -28.8617  -22.3120   22.8422 O   0  0  0  0  0  0  0  0  0  0  0  0
  -23.2378  -28.7923   23.1985 O   0  0  0  0  0  0  0  0  0  0  0  0
  -32.0268  -14.5918   19.9561 O   0  0  0  0  0  0  0  0  0  0  0  0
  -21.3933   -7.1720   21.3793 O   0  0  0  0  0  0  0  0  0  0  0  0
  -28.2090  -24.4976   21.4113 O   0  0  0  0  0  0  0  0  0  1  0  0
  -16.0531   -7.6334   20.0856 F   0  0  0  0  0  0  0  0  0  0  0  0
  -20.2730   -5.6021   19.3987 F   0  0  0  0  0  0  0  0  0  0  0  0
  -30.6175  -18.7206   20.3097 S   0  0  0  0  0  0  0  0  0  0  0  0
  1  2  1  0  0  0  0
  1  5  2  0  0  0  0
  2  6  2  0  0  0  0
  3  8  2  0  0  0  0
  3 16  1  0  0  0  0
  4  9  1  0  0  0  0
  4 16  2  0  0  0  0
  5 18  1  0  0  0  0
  6 20  1  0  0  0  0
  7 10  2  0  0  0  0
  7 19  1  0  0  0  0
  8 23  1  0  0  0  0
  9 23  2  0  0  0  0
 10 24  1  0  0  0  0
 11 12  2  0  0  0  0
 11 25  1  0  0  0  0
 12 26  1  0  0  0  0
 13 21  1  0  0  0  0
 13 24  2  0  0  0  0
 14 22  1  0  0  0  0
 14 31  2  0  0  0  0
 15 26  2  0  0  0  0
 15 27  1  0  0  0  0
 16 28  1  0  0  0  0
 17 28  1  0  0  0  0
 17 30  2  0  0  0  0
 17 32  1  0  0  0  0
 18 20  2  0  0  0  0
 18 38  1  0  0  0  0
 19 21  2  0  0  0  0
 19 39  1  0  0  0  0
 20 48  1  0  0  0  0
 21 41  1  0  0  0  0
 22 29  2  0  0  0  0
 22 40  1  0  0  0  0
 23 78  1  0  0  0  0
 24 79  1  0  0  0  0
 25 27  2  0  0  0  0
 25 78  1  0  0  0  0
 26 80  1  0  0  0  0
 27 81  1  0  0  0  0
 28 61  2  0  0  0  0
 29 49  1  0  0  0  0
 29 82  1  0  0  0  0
 30 62  1  0  0  0  0
 30 65  1  0  0  0  0
 31 67  1  0  0  0  0
 31 82  1  0  0  0  0
 32 66  1  0  0  0  0
 32 72  2  0  0  0  0
 33 50  1  0  0  0  0
 33 68  1  0  0  0  0
 33 73  2  0  0  0  0
 34 58  1  0  0  0  0
 34 63  1  0  0  0  0
 34 74  2  0  0  0  0
 35 57  1  0  0  0  0
 35 67  1  0  0  0  0
 35 75  2  0  0  0  0
 36 59  1  0  0  0  0
 36 69  1  0  0  0  0
 36 76  2  0  0  0  0
 37 64  1  0  0  0  0
 37 70  1  0  0  0  0
 37 77  2  0  0  0  0
 38 42  1  0  0  0  0
 39 50  1  0  0  0  0
 40 49  1  0  0  0  0
 41 63  1  0  0  0  0
 42 44  1  0  0  0  0
 43 45  1  0  0  0  0
 43 46  1  0  0  0  0
 44 48  1  0  0  0  0
 45 51  1  0  0  0  0
 46 64  1  0  0  0  0
 47 51  1  0  0  0  0
 47 64  1  0  0  0  0
 48 68  1  0  0  0  0
 49 70  1  0  0  0  0
 50 63  1  0  0  0  0
 51 62  1  0  0  0  0
 52 59  1  0  0  0  0
 53 60  1  0  0  0  0
 54 60  1  0  0  0  0
 55 60  1  0  0  0  0
 56 71  1  0  0  0  0
 57 79  1  0  0  0  0
 58 60  1  0  0  0  0
 58 69  1  0  0  0  0
 59 71  1  0  0  0  0
 61 62  1  0  0  0  0
M  CHG  1  71   1
M  ISO  4  37 100  57 101  70 100  79 101
M  END
> <Batch ID>
0155

> <Smiles>
CNC(C)C(=O)NC(C(=O)N1Cc2cc([101O:1][101CH2:1]C(=O)Nc3cc4c(s3)C([100NH:0][100C:0](=O)N3CCCC(n5nc(-c6ccc(Oc7ccc(F)cc7F)cc6)c(C(N)=O)c5N)C3)C4)ccc2CC1C(=O)NC1CCCc2ccccc21)C(C)(C)C

> <Shape>
0.311

> <Color>
0.186

> <Negative vol penalty>
0.000

$$$$

  -OEChem-04052303363D

 81 89  0     1  0  0  0  0  0999 V2000
  -28.8146  -35.9957   21.8420 C   0  0  0  0  0  0  0  0  0  0  0  0
  -28.9823  -34.6165   21.7689 C   0  0  0  0  0  0  0  0  0  0  0  0
  -23.8275   -9.6496   22.5393 C   0  0  0  0  0  0  0  0  0  0  0  0
  -23.4222  -10.0898   20.1986 C   0  0  0  0  0  0  0  0  0  0  0  0
  -27.7069  -36.5281   22.5004 C   0  0  0  0  0  0  0  0  0  0  0  0
  -28.0430  -33.7690   22.3552 C   0  0  0  0  0  0  0  0  0  0  0  0
  -26.7829  -29.8916   19.3514 C   0  0  0  0  0  0  0  0  0  0  0  0
  -22.9691   -8.5517   22.4815 C   0  0  0  0  0  0  0  0  0  0  0  0
  -22.5638   -8.9918   20.1408 C   0  0  0  0  0  0  0  0  0  0  0  0
  -27.6819  -28.8288   19.2727 C   0  0  0  0  0  0  0  0  0  0  0  0
  -23.0878   -5.3514   21.3968 C   0  0  0  0  0  0  0  0  0  0  0  0
  -23.5089   -4.1668   22.0009 C   0  0  0  0  0  0  0  0  0  0  0  0
  -28.9091  -18.4190   18.2936 C   0  0  0  0  0  0  0  0  0  0  0  0
  -29.5414  -19.6468   17.9842 C   0  0  0  0  0  0  0  0  0  0  0  0
  -26.3312  -27.5786   20.8320 C   0  0  0  0  0  0  0  0  0  0  0  0
  -21.5882   -4.2308   23.4651 C   0  0  0  0  0  0  0  0  0  0  0  0
  -24.0540  -10.4187   21.3979 C   0  0  0  0  0  0  0  0  0  0  0  0
  -26.3275  -11.5618   21.2182 C   0  0  0  0  0  0  0  0  0  0  0  0
  -26.7484  -35.6865   23.0866 C   0  0  0  0  0  0  0  0  0  0  0  0
  -25.6552  -29.8099   20.1808 C   0  0  0  0  0  0  0  0  0  0  0  0
  -26.9221  -34.2907   23.0232 C   0  0  0  0  0  0  0  0  0  0  0  0
  -25.4181  -28.6406   20.9176 C   0  0  0  0  0  0  0  0  0  0  0  0
  -22.3373   -8.2228   21.2823 C   0  0  0  0  0  0  0  0  0  0  0  0
  -27.4577  -27.6733   20.0153 C   0  0  0  0  0  0  0  0  0  0  0  0
  -21.9169   -5.9758   21.8268 C   0  0  0  0  0  0  0  0  0  0  0  0
  -22.7591   -3.6065   23.0351 C   0  0  0  0  0  0  0  0  0  0  0  0
  -21.1671   -5.4155   22.8610 C   0  0  0  0  0  0  0  0  0  0  0  0
  -24.9401  -11.5533   21.4571 C   0  0  0  0  0  0  0  0  0  0  0  0
  -26.6990  -12.8716   21.3993 C   0  0  0  0  0  0  0  0  0  0  0  0
  -27.8688  -18.7274   19.1390 C   0  0  0  0  0  0  0  0  0  0  0  0
  -28.8422  -20.6181   18.6623 C   0  0  0  0  0  0  0  0  0  0  0  0
  -27.2021  -10.4822   20.8643 C   0  0  0  0  0  0  0  0  0  0  0  0
  -24.6087  -31.4266   22.7096 C   0  0  0  0  0  0  0  0  0  0  0  0
  -28.6170  -24.2964   19.3707 C   0  0  0  0  0  0  0  0  0  0  0  0
  -21.9842  -29.5584   22.3299 C   0  0  0  0  0  0  0  0  0  0  0  0
  -20.6406  -26.6588   21.1325 C   0  0  0  0  0  0  0  0  0  0  0  0
  -25.8708  -18.3221   20.6188 C   0  0  0  0  0  0  0  0  0  0  0  0
  -25.5923  -36.3091   23.8285 C   0  0  0  0  0  0  0  0  0  0  0  0
  -24.6808  -30.9545   20.2341 C   0  0  0  0  0  0  0  0  0  0  0  0
  -24.2117  -28.4949   21.8074 C   0  0  0  0  0  0  0  0  0  0  0  0
  -24.4474  -35.3362   24.0991 C   0  0  0  0  0  0  0  0  0  0  0  0
  -24.1321  -16.7883   23.3209 C   0  0  0  0  0  0  0  0  0  0  0  0
  -24.9856  -34.0162   24.6420 C   0  0  0  0  0  0  0  0  0  0  0  0
  -24.3015  -15.2903   23.0573 C   0  0  0  0  0  0  0  0  0  0  0  0
  -23.9614  -17.5767   22.0236 C   0  0  0  0  0  0  0  0  0  0  0  0
  -25.1742  -15.8498   20.7524 C   0  0  0  0  0  0  0  0  0  0  0  0
  -25.9119  -33.3382   23.6252 C   0  0  1  0  0  0  0  0  0  0  0  0
  -23.8382  -30.9631   21.5058 C   0  0  1  0  0  0  0  0  0  0  0  0
  -25.4145  -15.0220   22.0254 C   0  0  2  0  0  0  0  0  0  0  0  0
  -18.4763  -25.3949   21.0073 C   0  0  0  0  0  0  0  0  0  0  0  0
  -22.2878  -28.7535   25.2574 C   0  0  0  0  0  0  0  0  0  0  0  0
  -20.7450  -26.8316   24.8166 C   0  0  0  0  0  0  0  0  0  0  0  0
  -19.9322  -29.1725   24.5296 C   0  0  0  0  0  0  0  0  0  0  0  0
  -20.6375  -26.7276   18.1737 C   0  0  0  0  0  0  0  0  0  0  0  0
  -28.1565  -22.8612   19.5133 C   0  0  0  0  0  0  0  0  0  0  0  0
  -27.8053  -25.3237   20.1357 C   0  0  0  0  0  0  0  0  0  1  0  0
  -21.5505  -28.2069   22.8441 C   0  0  1  0  0  0  0  0  0  0  0  0
  -19.3917  -26.3907   20.3122 C   0  0  2  0  0  0  0  0  0  0  0  0
  -21.1527  -28.2443   24.3467 C   0  0  0  0  0  0  0  0  0  0  0  0
  -24.4628  -12.7618   21.7665 N   0  0  0  0  0  0  0  0  0  0  0  0
  -25.5563  -13.5419   21.7234 N   0  0  0  0  0  0  0  0  0  0  0  0
  -23.2916  -29.6441   21.8306 N   0  0  0  0  0  0  0  0  0  0  0  0
  -25.0542  -17.2753   21.0964 N   0  0  0  0  0  0  0  0  0  0  0  0
  -27.8886  -13.5039   21.3115 N   0  0  0  0  0  0  0  0  0  0  0  0
  -26.6555   -9.1999   20.7185 N   0  0  0  0  0  0  0  0  0  0  0  0
  -26.8972  -17.9109   19.7692 N   0  0  0  0  0  0  0  0  0  0  0  0
  -29.0044  -21.9942   18.7357 N   0  0  0  0  0  0  0  0  0  0  0  0
  -25.1370  -32.6973   22.5844 N   0  0  0  0  0  0  0  0  0  0  0  0
  -20.4859  -27.7544   21.9552 N   0  0  0  0  0  0  0  0  0  0  0  0
  -19.7575  -25.8400   18.9766 N   0  3  0  0  0  0  0  0  0  0  0  0
  -28.4346  -10.6468   20.6986 O   0  0  0  0  0  0  0  0  0  0  0  0
  -24.7148  -30.6868   23.6807 O   0  0  0  0  0  0  0  0  0  0  0  0
  -29.5842  -24.6195   18.6823 O   0  0  0  0  0  0  0  0  0  0  0  0
  -21.1899  -30.5015   22.3633 O   0  0  0  0  0  0  0  0  0  0  0  0
  -21.6510  -25.9635   21.0541 O   0  0  0  0  0  0  0  0  0  0  0  0
  -25.6907  -19.4935   20.9614 O   0  0  0  0  0  0  0  0  0  0  0  0
  -27.8211  -20.0658   19.3686 O   0  0  0  0  0  0  0  0  0  0  0  0
  -21.4998   -7.1514   21.2255 O   0  0  0  0  0  0  0  0  0  0  0  0
  -28.3339  -26.6347   19.9407 O   0  0  0  0  0  0  0  0  0  1  0  0
  -23.1628   -2.4681   23.6141 F   0  0  0  0  0  0  0  0  0  0  0  0
  -20.0408   -6.0101   23.2776 F   0  0  0  0  0  0  0  0  0  0  0  0
  1  2  1  0  0  0  0
  1  5  2  0  0  0  0
  2  6  2  0  0  0  0
  3  8  2  0  0  0  0
  3 17  1  0  0  0  0
  4  9  1  0  0  0  0
  4 17  2  0  0  0  0
  5 19  1  0  0  0  0
  6 21  1  0  0  0  0
  7 10  2  0  0  0  0
  7 20  1  0  0  0  0
  8 23  1  0  0  0  0
  9 23  2  0  0  0  0
 10 24  1  0  0  0  0
 11 12  2  0  0  0  0
 11 25  1  0  0  0  0
 12 26  1  0  0  0  0
 13 14  1  0  0  0  0
 13 30  2  0  0  0  0
 14 31  2  0  0  0  0
 15 22  1  0  0  0  0
 15 24  2  0  0  0  0
 16 26  2  0  0  0  0
 16 27  1  0  0  0  0
 17 28  1  0  0  0  0
 18 28  1  0  0  0  0
 18 29  2  0  0  0  0
 18 32  1  0  0  0  0
 19 21  2  0  0  0  0
 19 38  1  0  0  0  0
 20 22  2  0  0  0  0
 20 39  1  0  0  0  0
 21 47  1  0  0  0  0
 22 40  1  0  0  0  0
 23 78  1  0  0  0  0
 24 79  1  0  0  0  0
 25 27  2  0  0  0  0
 25 78  1  0  0  0  0
 26 80  1  0  0  0  0
 27 81  1  0  0  0  0
 28 60  2  0  0  0  0
 29 61  1  0  0  0  0
 29 64  1  0  0  0  0
 30 66  1  0  0  0  0
 30 77  1  0  0  0  0
 31 67  1  0  0  0  0
 31 77  1  0  0  0  0
 32 65  1  0  0  0  0
 32 71  2  0  0  0  0
 33 48  1  0  0  0  0
 33 68  1  0  0  0  0
 33 72  2  0  0  0  0
 34 55  1  0  0  0  0
 34 56  1  0  0  0  0
 34 73  2  0  0  0  0
 35 57  1  0  0  0  0
 35 62  1  0  0  0  0
 35 74  2  0  0  0  0
 36 58  1  0  0  0  0
 36 69  1  0  0  0  0
 36 75  2  0  0  0  0
 37 63  1  0  0  0  0
 37 66  1  0  0  0  0
 37 76  2  0  0  0  0
 38 41  1  0  0  0  0
 39 48  1  0  0  0  0
 40 62  1  0  0  0  0
 41 43  1  0  0  0  0
 42 44  1  0  0  0  0
 42 45  1  0  0  0  0
 43 47  1  0  0  0  0
 44 49  1  0  0  0  0
 45 63  1  0  0  0  0
 46 49  1  0  0  0  0
 46 63  1  0  0  0  0
 47 68  1  0  0  0  0
 48 62  1  0  0  0  0
 49 61  1  0  0  0  0
 50 58  1  0  0  0  0
 51 59  1  0  0  0  0
 52 59  1  0  0  0  0
 53 59  1  0  0  0  0
 54 70  1  0  0  0  0
 55 67  1  0  0  0  0
 56 79  1  0  0  0  0
 57 59  1  0  0  0  0
 57 69  1  0  0  0  0
 58 70  1  0  0  0  0
 60 61  1  0  0  0  0
M  CHG  1  70   1
M  ISO  4  37 100  56 101  66 100  79 101
M  END
> <Batch ID>
0155

> <Smiles>
CNC(C)C(=O)NC(C(=O)N1Cc2cc([101O:1][101CH2:1]C(=O)CNc3ccc([100NH:0][100C:0](=O)N4CCCC(n5nc(-c6ccc(Oc7ccc(F)cc7F)cc6)c(C(N)=O)c5N)C4)o3)ccc2CC1C(=O)NC1CCCc2ccccc21)C(C)(C)C

> <Shape>
0.325

> <Color>
0.098

> <Negative vol penalty>
0.000

$$$$

  -OEChem-04052303363D

 85 94  0     1  0  0  0  0  0999 V2000
  -24.8787  -36.6572   16.2593 C   0  0  0  0  0  0  0  0  0  0  0  0
  -25.4118  -35.3726   16.2250 C   0  0  0  0  0  0  0  0  0  0  0  0
  -24.3379   -8.9916   21.4157 C   0  0  0  0  0  0  0  0  0  0  0  0
  -24.8069  -10.2154   23.4453 C   0  0  0  0  0  0  0  0  0  0  0  0
  -24.7881  -37.3409   17.4711 C   0  0  0  0  0  0  0  0  0  0  0  0
  -25.8555  -34.7714   17.4023 C   0  0  0  0  0  0  0  0  0  0  0  0
  -25.5428  -28.8278   18.8451 C   0  0  0  0  0  0  0  0  0  0  0  0
  -24.0552   -7.8518   22.1682 C   0  0  0  0  0  0  0  0  0  0  0  0
  -24.5241   -9.0756   24.1979 C   0  0  0  0  0  0  0  0  0  0  0  0
  -26.4782  -27.7961   18.7794 C   0  0  0  0  0  0  0  0  0  0  0  0
  -21.4852   -6.6598   24.0141 C   0  0  0  0  0  0  0  0  0  0  0  0
  -20.3449   -5.9291   23.6804 C   0  0  0  0  0  0  0  0  0  0  0  0
  -29.8757  -19.0543   20.3963 C   0  0  0  0  0  0  0  0  0  0  0  0
  -27.0180  -28.1455   21.1044 C   0  0  0  0  0  0  0  0  0  0  0  0
  -27.4384  -19.1781   20.7375 C   0  0  0  0  0  0  0  0  0  0  0  0
  -21.7164   -3.9890   23.2421 C   0  0  0  0  0  0  0  0  0  0  0  0
  -24.7139  -10.1735   22.0542 C   0  0  0  0  0  0  0  0  0  0  0  0
  -29.8876  -20.3453   20.8165 C   0  0  0  0  0  0  0  0  0  0  0  0
  -24.1024  -12.3548   20.8813 C   0  0  0  0  0  0  0  0  0  0  0  0
  -25.2220  -36.7440   18.6653 C   0  0  0  0  0  0  0  0  0  0  0  0
  -25.3454  -29.5345   20.0401 C   0  0  0  0  0  0  0  0  0  0  0  0
  -25.7718  -35.4482   18.6309 C   0  0  0  0  0  0  0  0  0  0  0  0
  -26.0777  -29.1840   21.1834 C   0  0  0  0  0  0  0  0  0  0  0  0
  -28.7651  -21.0320   21.1793 C   0  0  0  0  0  0  0  0  0  0  0  0
  -28.6073  -18.4599   20.3584 C   0  0  0  0  0  0  0  0  0  0  0  0
  -27.5079  -20.5093   21.1639 C   0  0  0  0  0  0  0  0  0  0  0  0
  -24.1483   -7.8937   23.5593 C   0  0  0  0  0  0  0  0  0  0  0  0
  -27.2181  -27.4568   19.9083 C   0  0  0  0  0  0  0  0  0  0  0  0
  -22.7412   -6.0552   23.9617 C   0  0  0  0  0  0  0  0  0  0  0  0
  -20.4605   -4.5937   23.2944 C   0  0  0  0  0  0  0  0  0  0  0  0
  -22.8568   -4.7197   23.5757 C   0  0  0  0  0  0  0  0  0  0  0  0
  -25.0066  -11.3511   21.2773 C   0  0  0  0  0  0  0  0  0  0  0  0
  -24.8680  -13.2450   20.1687 C   0  0  0  0  0  0  0  0  0  0  0  0
  -30.6160  -21.5119   21.1089 C   0  0  0  0  0  0  0  0  0  0  0  0
  -22.6961  -12.4720   21.1350 C   0  0  0  0  0  0  0  0  0  0  0  0
  -25.6939  -32.5635   20.9386 C   0  0  0  0  0  0  0  0  0  0  0  0
  -28.7896  -24.2921   20.7291 C   0  0  0  0  0  0  0  0  0  0  0  0
  -24.3423  -31.4962   23.6875 C   0  0  0  0  0  0  0  0  0  0  0  0
  -23.6959  -28.8700   25.7688 C   0  0  0  0  0  0  0  0  0  0  0  0
  -29.5062  -16.2580   19.5277 C   0  0  0  0  0  0  0  0  0  0  0  0
  -25.1474  -37.5404   19.9438 C   0  0  0  0  0  0  0  0  0  0  0  0
  -24.3134  -30.6270   20.1018 C   0  0  0  0  0  0  0  0  0  0  0  0
  -25.8889  -29.8983   22.4959 C   0  0  0  0  0  0  0  0  0  0  0  0
  -25.2944  -36.6882   21.2018 C   0  0  0  0  0  0  0  0  0  0  0  0
  -29.6126  -12.8675   18.4459 C   0  0  0  0  0  0  0  0  0  0  0  0
  -26.4655  -35.7215   21.0578 C   0  0  0  0  0  0  0  0  0  0  0  0
  -28.3494  -12.2533   19.0535 C   0  0  0  0  0  0  0  0  0  0  0  0
  -30.2517  -13.8920   19.3817 C   0  0  0  0  0  0  0  0  0  0  0  0
  -28.0841  -14.3316   20.4668 C   0  0  0  0  0  0  0  0  0  0  0  0
  -26.2410  -34.7528   19.8904 C   0  0  1  0  0  0  0  0  0  0  0  0
  -24.5618  -31.6204   21.2327 C   0  0  1  0  0  0  0  0  0  0  0  0
  -27.3687  -13.3411   19.5336 C   0  0  2  0  0  0  0  0  0  0  0  0
  -22.6038  -28.3146   27.9589 C   0  0  0  0  0  0  0  0  0  0  0  0
  -26.7236  -32.6905   25.1750 C   0  0  0  0  0  0  0  0  0  0  0  0
  -26.0823  -31.3132   27.1650 C   0  0  0  0  0  0  0  0  0  0  0  0
  -24.5132  -33.0439   26.2901 C   0  0  0  0  0  0  0  0  0  0  0  0
  -21.7597  -27.0449   24.4730 C   0  0  0  0  0  0  0  0  0  0  0  0
  -29.0816  -23.4167   21.9195 C   0  0  0  0  0  0  0  0  0  0  0  0
  -28.3686  -25.7134   21.0454 C   0  0  0  0  0  0  0  0  0  1  0  0
  -24.8631  -30.9113   24.9780 C   0  0  1  0  0  0  0  0  0  0  0  0
  -22.4184  -28.4177   26.4530 C   0  0  2  0  0  0  0  0  0  0  0  0
  -25.5508  -31.9773   25.8769 C   0  0  0  0  0  0  0  0  0  0  0  0
  -26.2514  -11.5814   20.8514 N   0  0  0  0  0  0  0  0  0  0  0  0
  -26.1348  -12.7399   20.1803 N   0  0  0  0  0  0  0  0  0  0  0  0
  -29.4891  -22.1063   21.4413 N   0  0  0  0  0  0  0  0  0  0  0  0
  -24.8726  -30.9635   22.5039 N   0  0  0  0  0  0  0  0  0  0  0  0
  -29.2646  -14.8932   19.7918 N   0  0  0  0  0  0  0  0  0  0  0  0
  -26.3770  -21.2333   21.5413 N   0  0  0  0  0  0  0  0  0  0  0  0
  -24.5743  -14.4026   19.5393 N   0  0  0  0  0  0  0  0  0  0  0  0
  -22.0665  -11.4688   21.8845 N   0  0  0  0  0  0  0  0  0  0  0  0
  -28.4828  -17.1138   19.9337 N   0  0  0  0  0  0  0  0  0  0  0  0
  -25.3112  -33.7107   20.2701 N   0  0  0  0  0  0  0  0  0  0  0  0
  -23.7316  -30.2389   25.6074 N   0  0  0  0  0  0  0  0  0  0  0  0
  -31.8936  -21.7975   21.0453 N   0  3  0  0  0  0  0  0  0  0  0  0
  -22.0000  -27.0831   25.9385 N   0  3  0  0  0  0  0  0  0  0  0  0
  -22.0147  -13.4292   20.6959 O   0  0  0  0  0  0  0  0  0  0  0  0
  -26.8302  -32.2727   21.2933 O   0  0  0  0  0  0  0  0  0  0  0  0
  -28.8840  -23.8870   19.5713 O   0  0  0  0  0  0  0  0  0  0  0  0
  -23.4908  -32.3879   23.7279 O   0  0  0  0  0  0  0  0  0  0  0  0
  -24.5758  -28.0877   25.4165 O   0  0  0  0  0  0  0  0  0  0  0  0
  -30.5323  -16.6369   18.9571 O   0  0  0  0  0  0  0  0  0  0  0  0
  -23.8722   -6.7817   24.2940 O   0  0  0  0  0  0  0  0  0  0  0  0
  -28.1323  -26.4506   19.8467 O   0  0  0  0  0  0  0  0  0  1  0  0
  -19.3653   -3.8916   22.9755 F   0  0  0  0  0  0  0  0  0  0  0  0
  -24.0605   -4.1331   23.5247 F   0  0  0  0  0  0  0  0  0  0  0  0
  1  2  1  0  0  0  0
  1  5  2  0  0  0  0
  2  6  2  0  0  0  0
  3  8  2  0  0  0  0
  3 17  1  0  0  0  0
  4  9  1  0  0  0  0
  4 17  2  0  0  0  0
  5 20  1  0  0  0  0
  6 22  1  0  0  0  0
  7 10  2  0  0  0  0
  7 21  1  0  0  0  0
  8 27  1  0  0  0  0
  9 27  2  0  0  0  0
 10 28  1  0  0  0  0
 11 12  2  0  0  0  0
 11 29  1  0  0  0  0
 12 30  1  0  0  0  0
 13 18  1  0  0  0  0
 13 25  2  0  0  0  0
 14 23  1  0  0  0  0
 14 28  2  0  0  0  0
 15 25  1  0  0  0  0
 15 26  2  0  0  0  0
 16 30  2  0  0  0  0
 16 31  1  0  0  0  0
 17 32  1  0  0  0  0
 18 24  2  0  0  0  0
 18 34  1  0  0  0  0
 19 32  1  0  0  0  0
 19 33  2  0  0  0  0
 19 35  1  0  0  0  0
 20 22  2  0  0  0  0
 20 41  1  0  0  0  0
 21 23  2  0  0  0  0
 21 42  1  0  0  0  0
 22 50  1  0  0  0  0
 23 43  1  0  0  0  0
 24 26  1  0  0  0  0
 24 65  1  0  0  0  0
 25 71  1  0  0  0  0
 26 68  1  0  0  0  0
 27 82  1  0  0  0  0
 28 83  1  0  0  0  0
 29 31  2  0  0  0  0
 29 82  1  0  0  0  0
 30 84  1  0  0  0  0
 31 85  1  0  0  0  0
 32 63  2  0  0  0  0
 33 64  1  0  0  0  0
 33 69  1  0  0  0  0
 34 65  1  0  0  0  0
 34 74  2  0  0  0  0
 35 70  1  0  0  0  0
 35 76  2  0  0  0  0
 36 51  1  0  0  0  0
 36 72  1  0  0  0  0
 36 77  2  0  0  0  0
 37 58  1  0  0  0  0
 37 59  1  0  0  0  0
 37 78  2  0  0  0  0
 38 60  1  0  0  0  0
 38 66  1  0  0  0  0
 38 79  2  0  0  0  0
 39 61  1  0  0  0  0
 39 73  1  0  0  0  0
 39 80  2  0  0  0  0
 40 67  1  0  0  0  0
 40 71  1  0  0  0  0
 40 81  2  0  0  0  0
 41 44  1  0  0  0  0
 42 51  1  0  0  0  0
 43 66  1  0  0  0  0
 44 46  1  0  0  0  0
 45 47  1  0  0  0  0
 45 48  1  0  0  0  0
 46 50  1  0  0  0  0
 47 52  1  0  0  0  0
 48 67  1  0  0  0  0
 49 52  1  0  0  0  0
 49 67  1  0  0  0  0
 50 72  1  0  0  0  0
 51 66  1  0  0  0  0
 52 64  1  0  0  0  0
 53 61  1  0  0  0  0
 54 62  1  0  0  0  0
 55 62  1  0  0  0  0
 56 62  1  0  0  0  0
 57 75  1  0  0  0  0
 58 65  1  0  0  0  0
 59 83  1  0  0  0  0
 60 62  1  0  0  0  0
 60 73  1  0  0  0  0
 61 75  1  0  0  0  0
 63 64  1  0  0  0  0
M  CHG  2  74   1  75   1
M  ISO  4  40 100  59 101  71 100  83 101
M  END
> <Batch ID>
0155

> <Smiles>
CNC(C)C(=O)NC(C(=O)N1Cc2cc([101O:1][101CH2:1]C(=O)CN3C(=N)c4cc([100NH:0][100C:0](=O)N5CCCC(n6nc(-c7ccc(Oc8ccc(F)cc8F)cc7)c(C(N)=O)c6N)C5)cc(N)c43)ccc2CC1C(=O)NC1CCCc2ccccc21)C(C)(C)C

> <Shape>
0.305

> <Color>
0.148

> <Negative vol penalty>
0.000

$$$$

  -OEChem-04052303363D

 85 94  0     1  0  0  0  0  0999 V2000
  -25.1828  -38.2491   21.1504 C   0  0  0  0  0  0  0  0  0  0  0  0
  -25.7895  -37.2875   20.3488 C   0  0  0  0  0  0  0  0  0  0  0  0
  -22.6175  -11.4652   22.0746 C   0  0  0  0  0  0  0  0  0  0  0  0
  -24.5101  -10.7833   20.7367 C   0  0  0  0  0  0  0  0  0  0  0  0
  -24.8107  -37.9326   22.4563 C   0  0  0  0  0  0  0  0  0  0  0  0
  -26.0255  -36.0090   20.8530 C   0  0  0  0  0  0  0  0  0  0  0  0
  -26.3040  -29.1559   18.7856 C   0  0  0  0  0  0  0  0  0  0  0  0
  -22.0464  -10.2033   21.9100 C   0  0  0  0  0  0  0  0  0  0  0  0
  -23.9391   -9.5214   20.5721 C   0  0  0  0  0  0  0  0  0  0  0  0
  -27.1481  -28.0477   18.8411 C   0  0  0  0  0  0  0  0  0  0  0  0
  -22.4262   -7.1077   23.2159 C   0  0  0  0  0  0  0  0  0  0  0  0
  -21.8870   -6.4881   24.3433 C   0  0  0  0  0  0  0  0  0  0  0  0
  -26.3908  -27.5909   21.0854 C   0  0  0  0  0  0  0  0  0  0  0  0
  -29.3837  -20.5821   19.0895 C   0  0  0  0  0  0  0  0  0  0  0  0
  -19.7222   -6.4237   23.2725 C   0  0  0  0  0  0  0  0  0  0  0  0
  -30.2748  -18.9002   20.4236 C   0  0  0  0  0  0  0  0  0  0  0  0
  -23.8493  -11.7552   21.4880 C   0  0  0  0  0  0  0  0  0  0  0  0
  -25.3125  -13.4701   22.6821 C   0  0  0  0  0  0  0  0  0  0  0  0
  -25.0335  -36.6468   22.9736 C   0  0  0  0  0  0  0  0  0  0  0  0
  -25.5038  -29.4970   19.8854 C   0  0  0  0  0  0  0  0  0  0  0  0
  -25.6572  -35.6754   22.1675 C   0  0  0  0  0  0  0  0  0  0  0  0
  -25.5356  -28.7025   21.0404 C   0  0  0  0  0  0  0  0  0  0  0  0
  -29.1906  -19.2960   19.6716 C   0  0  0  0  0  0  0  0  0  0  0  0
  -22.7072   -9.2314   21.1587 C   0  0  0  0  0  0  0  0  0  0  0  0
  -27.1937  -27.2666   19.9921 C   0  0  0  0  0  0  0  0  0  0  0  0
  -21.6134   -7.3854   22.1169 C   0  0  0  0  0  0  0  0  0  0  0  0
  -20.5350   -6.1460   24.3716 C   0  0  0  0  0  0  0  0  0  0  0  0
  -20.2614   -7.0434   22.1451 C   0  0  0  0  0  0  0  0  0  0  0  0
  -24.4395  -13.0587   21.6572 C   0  0  0  0  0  0  0  0  0  0  0  0
  -30.6083  -21.1204   19.4190 C   0  0  0  0  0  0  0  0  0  0  0  0
  -25.5841  -14.7854   22.3945 C   0  0  0  0  0  0  0  0  0  0  0  0
  -25.8315  -12.7295   23.7947 C   0  0  0  0  0  0  0  0  0  0  0  0
  -25.2972  -32.0150   21.8143 C   0  0  0  0  0  0  0  0  0  0  0  0
  -22.7218  -30.4224   22.9777 C   0  0  0  0  0  0  0  0  0  0  0  0
  -21.1143  -27.4448   23.4212 C   0  0  0  0  0  0  0  0  0  0  0  0
  -26.8865  -18.8115   18.7755 C   0  0  0  0  0  0  0  0  0  0  0  0
  -24.6569  -36.3655   24.4067 C   0  0  0  0  0  0  0  0  0  0  0  0
  -24.5789  -30.6800   19.7999 C   0  0  0  0  0  0  0  0  0  0  0  0
  -24.6813  -29.0142   22.2411 C   0  0  0  0  0  0  0  0  0  0  0  0
  -24.6019  -34.8771   24.7412 C   0  0  0  0  0  0  0  0  0  0  0  0
  -23.4468  -17.9373   19.0599 C   0  0  0  0  0  0  0  0  0  0  0  0
  -25.8351  -34.1620   24.1982 C   0  0  0  0  0  0  0  0  0  0  0  0
  -23.4702  -16.6239   19.8453 C   0  0  0  0  0  0  0  0  0  0  0  0
  -30.7319  -25.8268   20.0747 C   0  0  0  0  0  0  0  0  0  0  0  0
  -24.6248  -18.0409   18.0929 C   0  0  0  0  0  0  0  0  0  0  0  0
  -25.9691  -16.5154   19.4839 C   0  0  0  0  0  0  0  0  0  0  0  0
  -31.7939  -24.7877   19.7454 C   0  0  0  0  0  0  0  0  0  0  0  0
  -29.7844  -23.7288   20.6690 C   0  0  0  0  0  0  0  0  0  0  0  0
  -25.9075  -34.2701   22.6703 C   0  0  1  0  0  0  0  0  0  0  0  0
  -24.1890  -31.2337   21.1669 C   0  0  1  0  0  0  0  0  0  0  0  0
  -24.8378  -16.3938   20.5178 C   0  0  2  0  0  0  0  0  0  0  0  0
  -29.8823  -25.1665   21.1534 C   0  0  2  0  0  0  0  0  0  0  0  0
  -19.0461  -26.4556   24.4417 C   0  0  0  0  0  0  0  0  0  0  0  0
  -23.9627  -30.6962   25.7517 C   0  0  0  0  0  0  0  0  0  0  0  0
  -22.3928  -28.9181   26.5531 C   0  0  0  0  0  0  0  0  0  0  0  0
  -21.4913  -31.0710   25.6727 C   0  0  0  0  0  0  0  0  0  0  0  0
  -20.1604  -26.4457   20.8038 C   0  0  0  0  0  0  0  0  0  0  0  0
  -29.8282  -24.6066   23.4352 C   0  0  0  0  0  0  0  0  0  0  0  0
  -31.1872  -22.4431   19.0111 C   0  0  0  0  0  0  0  0  0  0  0  0
  -28.5320  -25.8272   21.3312 C   0  0  0  0  0  0  0  0  0  1  0  0
  -22.4991  -29.3997   24.0656 C   0  0  1  0  0  0  0  0  0  0  0  0
  -19.6729  -27.0329   23.1821 C   0  0  2  0  0  0  0  0  0  0  0  0
  -22.6041  -30.0162   25.4890 C   0  0  0  0  0  0  0  0  0  0  0  0
  -24.1740  -14.0338   20.7838 N   0  0  0  0  0  0  0  0  0  0  0  0
  -24.8843  -15.0709   21.2592 N   0  0  0  0  0  0  0  0  0  0  0  0
  -23.7980  -30.1848   22.1110 N   0  0  0  0  0  0  0  0  0  0  0  0
  -25.8869  -17.8161   18.8011 N   0  0  0  0  0  0  0  0  0  0  0  0
  -26.3508  -15.7140   23.0045 N   0  0  0  0  0  0  0  0  0  0  0  0
  -25.4507  -11.3886   23.9407 N   0  0  0  0  0  0  0  0  0  0  0  0
  -28.0294  -18.4999   19.5113 N   0  0  0  0  0  0  0  0  0  0  0  0
  -24.9861  -33.3399   22.0536 N   0  0  0  0  0  0  0  0  0  0  0  0
  -21.2133  -28.7727   23.7793 N   0  0  0  0  0  0  0  0  0  0  0  0
  -31.1702  -23.4545   20.1118 N   0  3  1  0  0  0  0  0  0  0  0  0
  -19.5999  -26.0038   22.1067 N   0  3  0  0  0  0  0  0  0  0  0  0
  -26.5970  -13.2463   24.6435 O   0  0  0  0  0  0  0  0  0  0  0  0
  -26.3556  -31.4567   22.0786 O   0  0  0  0  0  0  0  0  0  0  0  0
  -21.9643  -31.3925   22.8954 O   0  0  0  0  0  0  0  0  0  0  0  0
  -22.0577  -26.6656   23.3057 O   0  0  0  0  0  0  0  0  0  0  0  0
  -26.7285  -19.8744   18.1696 O   0  0  0  0  0  0  0  0  0  0  0  0
  -22.1503   -7.9999   20.9981 O   0  0  0  0  0  0  0  0  0  0  0  0
  -28.0171  -26.1847   20.0492 O   0  0  0  0  0  0  0  0  0  1  0  0
  -30.5817  -25.2116   22.3957 O   0  0  0  0  0  0  0  0  0  0  0  0
  -20.0177   -5.5496   25.4536 F   0  0  0  0  0  0  0  0  0  0  0  0
  -19.4758   -7.3065   21.0919 F   0  0  0  0  0  0  0  0  0  0  0  0
  -31.5189  -20.0769   20.4259 S   0  0  0  0  0  0  0  0  0  0  0  0
  1  2  1  0  0  0  0
  1  5  2  0  0  0  0
  2  6  2  0  0  0  0
  3  8  2  0  0  0  0
  3 17  1  0  0  0  0
  4  9  1  0  0  0  0
  4 17  2  0  0  0  0
  5 19  1  0  0  0  0
  6 21  1  0  0  0  0
  7 10  2  0  0  0  0
  7 20  1  0  0  0  0
  8 24  1  0  0  0  0
  9 24  2  0  0  0  0
 10 25  1  0  0  0  0
 11 12  2  0  0  0  0
 11 26  1  0  0  0  0
 12 27  1  0  0  0  0
 13 22  1  0  0  0  0
 13 25  2  0  0  0  0
 14 23  1  0  0  0  0
 14 30  2  0  0  0  0
 15 27  2  0  0  0  0
 15 28  1  0  0  0  0
 16 23  2  0  0  0  0
 16 85  1  0  0  0  0
 17 29  1  0  0  0  0
 18 29  1  0  0  0  0
 18 31  2  0  0  0  0
 18 32  1  0  0  0  0
 19 21  2  0  0  0  0
 19 37  1  0  0  0  0
 20 22  2  0  0  0  0
 20 38  1  0  0  0  0
 21 49  1  0  0  0  0
 22 39  1  0  0  0  0
 23 70  1  0  0  0  0
 24 80  1  0  0  0  0
 25 81  1  0  0  0  0
 26 28  2  0  0  0  0
 26 80  1  0  0  0  0
 27 83  1  0  0  0  0
 28 84  1  0  0  0  0
 29 64  2  0  0  0  0
 30 59  1  0  0  0  0
 30 85  1  0  0  0  0
 31 65  1  0  0  0  0
 31 68  1  0  0  0  0
 32 69  1  0  0  0  0
 32 75  2  0  0  0  0
 33 50  1  0  0  0  0
 33 71  1  0  0  0  0
 33 76  2  0  0  0  0
 34 61  1  0  0  0  0
 34 66  1  0  0  0  0
 34 77  2  0  0  0  0
 35 62  1  0  0  0  0
 35 72  1  0  0  0  0
 35 78  2  0  0  0  0
 36 67  1  0  0  0  0
 36 70  1  0  0  0  0
 36 79  2  0  0  0  0
 37 40  1  0  0  0  0
 38 50  1  0  0  0  0
 39 66  1  0  0  0  0
 40 42  1  0  0  0  0
 41 43  1  0  0  0  0
 41 45  1  0  0  0  0
 42 49  1  0  0  0  0
 43 51  1  0  0  0  0
 44 47  1  0  0  0  0
 44 52  1  0  0  0  0
 45 67  1  0  0  0  0
 46 51  1  0  0  0  0
 46 67  1  0  0  0  0
 47 73  1  0  0  0  0
 48 52  1  0  0  0  0
 48 73  1  0  0  0  0
 49 71  1  0  0  0  0
 50 66  1  0  0  0  0
 51 65  1  0  0  0  0
 52 60  1  0  0  0  0
 52 82  1  0  0  0  0
 53 62  1  0  0  0  0
 54 63  1  0  0  0  0
 55 63  1  0  0  0  0
 56 63  1  0  0  0  0
 57 74  1  0  0  0  0
 58 82  1  0  0  0  0
 59 73  1  0  0  0  0
 60 81  1  0  0  0  0
 61 63  1  0  0  0  0
 61 72  1  0  0  0  0
 62 74  1  0  0  0  0
 64 65  1  0  0  0  0
M  CHG  2  73   1  74   1
M  ISO  4  36 100  60 101  70 100  81 101
M  END
> <Batch ID>
0155

> <Smiles>
CNC(C)C(=O)NC(C(=O)N1Cc2cc([101O:1][101CH2:1]C3(OC)CCN(Cc4cc([100NH:0][100C:0](=O)N5CCCC(n6nc(-c7ccc(Oc8ccc(F)cc8F)cc7)c(C(N)=O)c6N)C5)cs4)C3)ccc2CC1C(=O)NC1CCCc2ccccc21)C(C)(C)C

> <Shape>
0.296

> <Color>
0.057

> <Negative vol penalty>
0.000

$$$$

  -OEChem-04052303363D

 83 91  0     1  0  0  0  0  0999 V2000
  -27.8469  -34.4985   24.0998 C   0  0  0  0  0  0  0  0  0  0  0  0
  -28.0269  -33.1558   23.7833 C   0  0  0  0  0  0  0  0  0  0  0  0
  -23.4472  -10.0089   22.3145 C   0  0  0  0  0  0  0  0  0  0  0  0
  -23.3345   -9.7695   19.9130 C   0  0  0  0  0  0  0  0  0  0  0  0
  -26.5838  -34.9649   24.4618 C   0  0  0  0  0  0  0  0  0  0  0  0
  -26.9440  -32.2784   23.8296 C   0  0  0  0  0  0  0  0  0  0  0  0
  -26.7532  -29.2134   19.8030 C   0  0  0  0  0  0  0  0  0  0  0  0
  -29.9856  -19.5065   17.1944 C   0  0  0  0  0  0  0  0  0  0  0  0
  -29.8548  -18.1846   16.7691 C   0  0  0  0  0  0  0  0  0  0  0  0
  -22.6763   -8.8564   22.4656 C   0  0  0  0  0  0  0  0  0  0  0  0
  -22.5636   -8.6169   20.0641 C   0  0  0  0  0  0  0  0  0  0  0  0
  -27.6249  -28.1254   19.7891 C   0  0  0  0  0  0  0  0  0  0  0  0
  -23.1444   -5.5106   22.3264 C   0  0  0  0  0  0  0  0  0  0  0  0
  -23.5548   -4.5763   23.2774 C   0  0  0  0  0  0  0  0  0  0  0  0
  -25.8284  -26.6847   20.5075 C   0  0  0  0  0  0  0  0  0  0  0  0
  -27.6984  -19.4826   17.9723 C   0  0  0  0  0  0  0  0  0  0  0  0
  -21.4538   -4.8381   24.4412 C   0  0  0  0  0  0  0  0  0  0  0  0
  -23.7763  -10.4656   21.0382 C   0  0  0  0  0  0  0  0  0  0  0  0
  -25.9756  -11.7373   20.8072 C   0  0  0  0  0  0  0  0  0  0  0  0
  -25.4830  -34.0947   24.5033 C   0  0  0  0  0  0  0  0  0  0  0  0
  -25.4130  -29.0469   20.1804 C   0  0  0  0  0  0  0  0  0  0  0  0
  -25.6653  -32.7334   24.1938 C   0  0  0  0  0  0  0  0  0  0  0  0
  -24.9411  -27.7717   20.5229 C   0  0  0  0  0  0  0  0  0  0  0  0
  -28.9073  -20.1556   17.7960 C   0  0  0  0  0  0  0  0  0  0  0  0
  -28.6458  -17.5116   16.9454 C   0  0  0  0  0  0  0  0  0  0  0  0
  -27.5676  -18.1606   17.5470 C   0  0  0  0  0  0  0  0  0  0  0  0
  -22.2345   -8.1603   21.3405 C   0  0  0  0  0  0  0  0  0  0  0  0
  -27.1632  -26.8613   20.1441 C   0  0  0  0  0  0  0  0  0  0  0  0
  -21.8888   -6.1087   22.4329 C   0  0  0  0  0  0  0  0  0  0  0  0
  -22.7095   -4.2400   24.3347 C   0  0  0  0  0  0  0  0  0  0  0  0
  -21.0435   -5.7724   23.4903 C   0  0  0  0  0  0  0  0  0  0  0  0
  -24.5721  -11.6565   20.8814 C   0  0  0  0  0  0  0  0  0  0  0  0
  -26.2349  -13.0781   20.6605 C   0  0  0  0  0  0  0  0  0  0  0  0
  -26.9570  -10.6938   20.8656 C   0  0  0  0  0  0  0  0  0  0  0  0
  -23.5845  -30.1790   22.5211 C   0  0  0  0  0  0  0  0  0  0  0  0
  -28.4651  -23.6136   19.1848 C   0  0  0  0  0  0  0  0  0  0  0  0
  -21.2344  -28.6330   20.9057 C   0  0  0  0  0  0  0  0  0  0  0  0
  -20.3629  -26.1540   18.7281 C   0  0  0  0  0  0  0  0  0  0  0  0
  -25.1737  -18.0169   18.3185 C   0  0  0  0  0  0  0  0  0  0  0  0
  -24.1465  -34.6355   24.9462 C   0  0  0  0  0  0  0  0  0  0  0  0
  -24.4789  -30.2258   20.1644 C   0  0  0  0  0  0  0  0  0  0  0  0
  -23.5064  -27.5362   20.9161 C   0  0  0  0  0  0  0  0  0  0  0  0
  -22.9753  -33.7168   24.6078 C   0  0  0  0  0  0  0  0  0  0  0  0
  -23.1874  -17.0929   21.1252 C   0  0  0  0  0  0  0  0  0  0  0  0
  -23.2987  -32.2763   24.9913 C   0  0  0  0  0  0  0  0  0  0  0  0
  -23.4860  -15.6028   21.3059 C   0  0  0  0  0  0  0  0  0  0  0  0
  -23.1435  -17.4877   19.6501 C   0  0  0  0  0  0  0  0  0  0  0  0
  -24.6246  -15.6129   19.0497 C   0  0  0  0  0  0  0  0  0  0  0  0
  -24.5103  -31.7557   24.2086 C   0  0  1  0  0  0  0  0  0  0  0  0
  -23.2597  -30.0343   21.0612 C   0  0  1  0  0  0  0  0  0  0  0  0
  -24.7431  -15.1807   20.5203 C   0  0  2  0  0  0  0  0  0  0  0  0
  -18.3626  -25.1102   17.6298 C   0  0  0  0  0  0  0  0  0  0  0  0
  -20.5407  -27.2187   23.5188 C   0  0  0  0  0  0  0  0  0  0  0  0
  -19.2303  -25.5516   22.1876 C   0  0  0  0  0  0  0  0  0  0  0  0
  -18.5645  -27.9556   22.1749 C   0  0  0  0  0  0  0  0  0  0  0  0
  -21.3489  -26.8342   16.0218 C   0  0  0  0  0  0  0  0  0  0  0  0
  -27.9808  -22.2189   18.8496 C   0  0  0  0  0  0  0  0  0  0  0  0
  -27.4463  -24.5184   19.8502 C   0  0  0  0  0  0  0  0  0  1  0  0
  -20.6513  -27.2410   20.9394 C   0  0  1  0  0  0  0  0  0  0  0  0
  -19.4595  -26.1565   17.5082 C   0  0  2  0  0  0  0  0  0  0  0  0
  -19.7743  -26.9962   22.1997 C   0  0  0  0  0  0  0  0  0  0  0  0
  -23.9812  -12.8508   20.7896 N   0  0  0  0  0  0  0  0  0  0  0  0
  -25.0185  -13.6948   20.6563 N   0  0  0  0  0  0  0  0  0  0  0  0
  -22.6336  -28.7215   20.8912 N   0  0  0  0  0  0  0  0  0  0  0  0
  -24.3686  -17.0596   18.9713 N   0  0  0  0  0  0  0  0  0  0  0  0
  -28.5350  -16.1732   16.5057 N   0  0  0  0  0  0  0  0  0  0  0  0
  -27.3826  -13.7779   20.5361 N   0  0  0  0  0  0  0  0  0  0  0  0
  -26.5181   -9.3716   21.0188 N   0  0  0  0  0  0  0  0  0  0  0  0
  -26.3297  -17.4976   17.7365 N   0  0  0  0  0  0  0  0  0  0  0  0
  -29.0382  -21.4703   18.2196 N   0  0  0  0  0  0  0  0  0  0  0  0
  -24.1266  -31.4045   22.8580 N   0  0  0  0  0  0  0  0  0  0  0  0
  -19.9441  -27.0639   19.6757 N   0  0  0  0  0  0  0  0  0  0  0  0
  -20.2496  -25.8684   16.2779 N   0  3  0  0  0  0  0  0  0  0  0  0
  -28.1876  -10.9286   20.8008 O   0  0  0  0  0  0  0  0  0  0  0  0
  -23.3586  -29.2482   23.2855 O   0  0  0  0  0  0  0  0  0  0  0  0
  -29.6073  -23.9985   18.9379 O   0  0  0  0  0  0  0  0  0  0  0  0
  -20.4763  -29.6059   20.8856 O   0  0  0  0  0  0  0  0  0  0  0  0
  -21.3402  -25.4159   18.8318 O   0  0  0  0  0  0  0  0  0  0  0  0
  -24.8747  -19.2137   18.3020 O   0  0  0  0  0  0  0  0  0  0  0  0
  -21.4825   -7.0355   21.4876 O   0  0  0  0  0  0  0  0  0  0  0  0
  -28.0121  -25.7977   20.1321 O   0  0  0  0  0  0  0  0  0  1  0  0
  -23.1031   -3.3417   25.2470 F   0  0  0  0  0  0  0  0  0  0  0  0
  -19.8355   -6.3428   23.5972 F   0  0  0  0  0  0  0  0  0  0  0  0
  1  2  1  0  0  0  0
  1  5  2  0  0  0  0
  2  6  2  0  0  0  0
  3 10  2  0  0  0  0
  3 18  1  0  0  0  0
  4 11  1  0  0  0  0
  4 18  2  0  0  0  0
  5 20  1  0  0  0  0
  6 22  1  0  0  0  0
  7 12  2  0  0  0  0
  7 21  1  0  0  0  0
  8  9  2  0  0  0  0
  8 24  1  0  0  0  0
  9 25  1  0  0  0  0
 10 27  1  0  0  0  0
 11 27  2  0  0  0  0
 12 28  1  0  0  0  0
 13 14  2  0  0  0  0
 13 29  1  0  0  0  0
 14 30  1  0  0  0  0
 15 23  1  0  0  0  0
 15 28  2  0  0  0  0
 16 24  2  0  0  0  0
 16 26  1  0  0  0  0
 17 30  2  0  0  0  0
 17 31  1  0  0  0  0
 18 32  1  0  0  0  0
 19 32  1  0  0  0  0
 19 33  2  0  0  0  0
 19 34  1  0  0  0  0
 20 22  2  0  0  0  0
 20 40  1  0  0  0  0
 21 23  2  0  0  0  0
 21 41  1  0  0  0  0
 22 49  1  0  0  0  0
 23 42  1  0  0  0  0
 24 70  1  0  0  0  0
 25 26  2  0  0  0  0
 25 66  1  0  0  0  0
 26 69  1  0  0  0  0
 27 80  1  0  0  0  0
 28 81  1  0  0  0  0
 29 31  2  0  0  0  0
 29 80  1  0  0  0  0
 30 82  1  0  0  0  0
 31 83  1  0  0  0  0
 32 62  2  0  0  0  0
 33 63  1  0  0  0  0
 33 67  1  0  0  0  0
 34 68  1  0  0  0  0
 34 74  2  0  0  0  0
 35 50  1  0  0  0  0
 35 71  1  0  0  0  0
 35 75  2  0  0  0  0
 36 57  1  0  0  0  0
 36 58  1  0  0  0  0
 36 76  2  0  0  0  0
 37 59  1  0  0  0  0
 37 64  1  0  0  0  0
 37 77  2  0  0  0  0
 38 60  1  0  0  0  0
 38 72  1  0  0  0  0
 38 78  2  0  0  0  0
 39 65  1  0  0  0  0
 39 69  1  0  0  0  0
 39 79  2  0  0  0  0
 40 43  1  0  0  0  0
 41 50  1  0  0  0  0
 42 64  1  0  0  0  0
 43 45  1  0  0  0  0
 44 46  1  0  0  0  0
 44 47  1  0  0  0  0
 45 49  1  0  0  0  0
 46 51  1  0  0  0  0
 47 65  1  0  0  0  0
 48 51  1  0  0  0  0
 48 65  1  0  0  0  0
 49 71  1  0  0  0  0
 50 64  1  0  0  0  0
 51 63  1  0  0  0  0
 52 60  1  0  0  0  0
 53 61  1  0  0  0  0
 54 61  1  0  0  0  0
 55 61  1  0  0  0  0
 56 73  1  0  0  0  0
 57 70  1  0  0  0  0
 58 81  1  0  0  0  0
 59 61  1  0  0  0  0
 59 72  1  0  0  0  0
 60 73  1  0  0  0  0
 62 63  1  0  0  0  0
M  CHG  1  73   1
M  ISO  4  39 100  58 101  69 100  81 101
M  END
> <Batch ID>
0155

> <Smiles>
CNC(C)C(=O)NC(C(=O)N1Cc2cc([101O:1][101CH2:1]C(=O)CNc3ccc(N)c([100NH:0][100C:0](=O)N4CCCC(n5nc(-c6ccc(Oc7ccc(F)cc7F)cc6)c(C(N)=O)c5N)C4)c3)ccc2CC1C(=O)NC1CCCc2ccccc21)C(C)(C)C

> <Shape>
0.300

> <Color>
0.115

> <Negative vol penalty>
0.000

$$$$

  -OEChem-04052303363D

 84 92  0     1  0  0  0  0  0999 V2000
  -18.9027  -24.5079   23.1471 C   0  0  0  0  0  0  0  0  0  0  0  0
  -20.2308  -24.5998   22.7431 C   0  0  0  0  0  0  0  0  0  0  0  0
  -24.0252   -9.2660   22.3683 C   0  0  0  0  0  0  0  0  0  0  0  0
  -25.1447   -7.6667   20.9450 C   0  0  0  0  0  0  0  0  0  0  0  0
  -18.0959  -25.6450   23.1499 C   0  0  0  0  0  0  0  0  0  0  0  0
  -20.7525  -25.8287   22.3407 C   0  0  0  0  0  0  0  0  0  0  0  0
  -25.3239  -26.7401   24.3197 C   0  0  0  0  0  0  0  0  0  0  0  0
  -22.8294   -8.5642   22.2164 C   0  0  0  0  0  0  0  0  0  0  0  0
  -23.9489   -6.9649   20.7930 C   0  0  0  0  0  0  0  0  0  0  0  0
  -26.4118  -26.0945   23.7335 C   0  0  0  0  0  0  0  0  0  0  0  0
  -22.1112   -4.7620   22.5794 C   0  0  0  0  0  0  0  0  0  0  0  0
  -22.1577   -3.3727   22.6947 C   0  0  0  0  0  0  0  0  0  0  0  0
  -30.3251  -18.7051   17.8271 C   0  0  0  0  0  0  0  0  0  0  0  0
  -29.3408  -20.1649   19.4815 C   0  0  0  0  0  0  0  0  0  0  0  0
  -26.9445  -28.1089   22.5179 C   0  0  0  0  0  0  0  0  0  0  0  0
  -30.7631  -21.0801   17.7562 C   0  0  0  0  0  0  0  0  0  0  0  0
  -21.3208   -3.1574   20.4385 C   0  0  0  0  0  0  0  0  0  0  0  0
  -25.1829   -8.8173   21.7326 C   0  0  0  0  0  0  0  0  0  0  0  0
  -29.5230  -18.8867   18.9537 C   0  0  0  0  0  0  0  0  0  0  0  0
  -27.3992   -9.3467   22.8794 C   0  0  0  0  0  0  0  0  0  0  0  0
  -18.6107  -26.8904   22.7566 C   0  0  0  0  0  0  0  0  0  0  0  0
  -25.0313  -28.0739   24.0005 C   0  0  0  0  0  0  0  0  0  0  0  0
  -19.9515  -26.9833   22.3371 C   0  0  0  0  0  0  0  0  0  0  0  0
  -25.8540  -28.7699   23.1034 C   0  0  0  0  0  0  0  0  0  0  0  0
  -30.9453  -19.8018   17.2284 C   0  0  0  0  0  0  0  0  0  0  0  0
  -29.9609  -21.2616   18.8828 C   0  0  0  0  0  0  0  0  0  0  0  0
  -22.7912   -7.4137   21.4287 C   0  0  0  0  0  0  0  0  0  0  0  0
  -27.2205  -26.7780   22.8303 C   0  0  0  0  0  0  0  0  0  0  0  0
  -21.6694   -5.3490   21.3936 C   0  0  0  0  0  0  0  0  0  0  0  0
  -21.7626   -2.5704   21.6243 C   0  0  0  0  0  0  0  0  0  0  0  0
  -21.2743   -4.5467   20.3232 C   0  0  0  0  0  0  0  0  0  0  0  0
  -26.4183   -9.5421   21.8887 C   0  0  0  0  0  0  0  0  0  0  0  0
  -28.3671  -10.2781   22.5928 C   0  0  0  0  0  0  0  0  0  0  0  0
  -28.8765  -17.7432   19.5779 C   0  0  0  0  0  0  0  0  0  0  0  0
  -28.6491  -16.5517   18.9850 C   0  0  0  0  0  0  0  0  0  0  0  0
  -27.4325   -8.4072   23.9620 C   0  0  0  0  0  0  0  0  0  0  0  0
  -27.9877  -15.4810   19.7576 C   0  0  0  0  0  0  0  0  0  0  0  0
  -22.5694  -29.5710   22.6585 C   0  0  0  0  0  0  0  0  0  0  0  0
  -28.9955  -24.2990   20.8639 C   0  0  0  0  0  0  0  0  0  0  0  0
  -24.2553  -32.2273   23.4485 C   0  0  0  0  0  0  0  0  0  0  0  0
  -27.2826  -33.6314   24.1630 C   0  0  0  0  0  0  0  0  0  0  0  0
  -17.6871  -28.0824   22.7313 C   0  0  0  0  0  0  0  0  0  0  0  0
  -23.8701  -28.7643   24.6618 C   0  0  0  0  0  0  0  0  0  0  0  0
  -25.5946  -30.2091   22.7427 C   0  0  0  0  0  0  0  0  0  0  0  0
  -18.4198  -29.4190   22.6474 C   0  0  0  0  0  0  0  0  0  0  0  0
  -30.2674  -12.7232   18.9643 C   0  0  0  0  0  0  0  0  0  0  0  0
  -19.5075  -29.3654   21.5793 C   0  0  0  0  0  0  0  0  0  0  0  0
  -29.5876  -11.5632   19.6869 C   0  0  0  0  0  0  0  0  0  0  0  0
  -29.2544  -13.7228   18.4083 C   0  0  0  0  0  0  0  0  0  0  0  0
  -27.6207  -13.0770   20.1561 C   0  0  0  0  0  0  0  0  0  0  0  0
  -20.5608  -28.3034   21.9172 C   0  0  1  0  0  0  0  0  0  0  0  0
  -23.3614  -29.9666   23.8725 C   0  0  1  0  0  0  0  0  0  0  0  0
  -28.6228  -12.0834   20.7643 C   0  0  1  0  0  0  0  0  0  0  0  0
  -28.3492  -35.8308   24.7308 C   0  0  0  0  0  0  0  0  0  0  0  0
  -24.0214  -33.0911   20.5315 C   0  0  0  0  0  0  0  0  0  0  0  0
  -25.8582  -34.7412   20.9454 C   0  0  0  0  0  0  0  0  0  0  0  0
  -23.7068  -34.9332   22.1934 C   0  0  0  0  0  0  0  0  0  0  0  0
  -28.2382  -32.6250   26.7770 C   0  0  0  0  0  0  0  0  0  0  0  0
  -28.9701  -22.8149   20.5654 C   0  0  0  0  0  0  0  0  0  0  0  0
  -28.1756  -24.7405   22.0606 C   0  0  0  0  0  0  0  0  0  1  0  0
  -25.3107  -33.0653   22.7682 C   0  0  1  0  0  0  0  0  0  0  0  0
  -27.7244  -34.5582   25.2812 C   0  0  2  0  0  0  0  0  0  0  0  0
  -24.7283  -33.9300   21.6147 C   0  0  0  0  0  0  0  0  0  0  0  0
  -26.7341  -10.5208   21.0365 N   0  0  0  0  0  0  0  0  0  0  0  0
  -27.9242  -10.9488   21.4909 N   0  0  0  0  0  0  0  0  0  0  0  0
  -28.3066  -14.1610   19.4439 N   0  0  0  0  0  0  0  0  0  0  0  0
  -24.4436  -30.8384   23.4108 N   0  0  0  0  0  0  0  0  0  0  0  0
  -31.7563  -19.6182   16.0893 N   0  0  0  0  0  0  0  0  0  0  0  0
  -29.5452  -10.5806   23.1783 N   0  0  0  0  0  0  0  0  0  0  0  0
  -26.3563   -7.5219   24.1117 N   0  0  0  0  0  0  0  0  0  0  0  0
  -29.7796  -22.5332   19.4076 N   0  0  0  0  0  0  0  0  0  0  0  0
  -21.4624  -28.7927   22.9381 N   0  0  0  0  0  0  0  0  0  0  0  0
  -25.9623  -33.8356   23.8220 N   0  0  0  0  0  0  0  0  0  0  0  0
  -28.7272  -33.8801   26.1503 N   0  3  0  0  0  0  0  0  0  0  0  0
  -28.3805   -8.3654   24.7824 O   0  0  0  0  0  0  0  0  0  0  0  0
  -27.1885  -15.8213   20.6317 O   0  0  0  0  0  0  0  0  0  0  0  0
  -22.9346  -29.9455   21.5504 O   0  0  0  0  0  0  0  0  0  0  0  0
  -29.6353  -25.1029   20.1870 O   0  0  0  0  0  0  0  0  0  0  0  0
  -23.3027  -32.7848   23.9994 O   0  0  0  0  0  0  0  0  0  0  0  0
  -28.0347  -32.8111   23.6414 O   0  0  0  0  0  0  0  0  0  0  0  0
  -21.6245   -6.7285   21.2804 O   0  0  0  0  0  0  0  0  0  0  0  0
  -28.2826  -26.1500   22.2562 O   0  0  0  0  0  0  0  0  0  1  0  0
  -21.8088   -1.2363   21.7346 F   0  0  0  0  0  0  0  0  0  0  0  0
  -20.8500   -5.1049   19.1812 F   0  0  0  0  0  0  0  0  0  0  0  0
  1  2  1  0  0  0  0
  1  5  2  0  0  0  0
  2  6  2  0  0  0  0
  3  8  2  0  0  0  0
  3 18  1  0  0  0  0
  4  9  1  0  0  0  0
  4 18  2  0  0  0  0
  5 21  1  0  0  0  0
  6 23  1  0  0  0  0
  7 10  2  0  0  0  0
  7 22  1  0  0  0  0
  8 27  1  0  0  0  0
  9 27  2  0  0  0  0
 10 28  1  0  0  0  0
 11 12  2  0  0  0  0
 11 29  1  0  0  0  0
 12 30  1  0  0  0  0
 13 19  2  0  0  0  0
 13 25  1  0  0  0  0
 14 19  1  0  0  0  0
 14 26  2  0  0  0  0
 15 24  1  0  0  0  0
 15 28  2  0  0  0  0
 16 25  2  0  0  0  0
 16 26  1  0  0  0  0
 17 30  2  0  0  0  0
 17 31  1  0  0  0  0
 18 32  1  0  0  0  0
 19 34  1  0  0  0  0
 20 32  1  0  0  0  0
 20 33  2  0  0  0  0
 20 36  1  0  0  0  0
 21 23  2  0  0  0  0
 21 42  1  0  0  0  0
 22 24  2  0  0  0  0
 22 43  1  0  0  0  0
 23 51  1  0  0  0  0
 24 44  1  0  0  0  0
 25 68  1  0  0  0  0
 26 71  1  0  0  0  0
 27 81  1  0  0  0  0
 28 82  1  0  0  0  0
 29 31  2  0  0  0  0
 29 81  1  0  0  0  0
 30 83  1  0  0  0  0
 31 84  1  0  0  0  0
 32 64  2  0  0  0  0
 33 65  1  0  0  0  0
 33 69  1  0  0  0  0
 34 35  2  0  0  0  0
 35 37  1  0  0  0  0
 36 70  1  0  0  0  0
 36 75  2  0  0  0  0
 37 66  1  0  0  0  0
 37 76  2  0  0  0  0
 38 52  1  0  0  0  0
 38 72  1  0  0  0  0
 38 77  2  0  0  0  0
 39 59  1  0  0  0  0
 39 60  1  0  0  0  0
 39 78  2  0  0  0  0
 40 61  1  0  0  0  0
 40 67  1  0  0  0  0
 40 79  2  0  0  0  0
 41 62  1  0  0  0  0
 41 73  1  0  0  0  0
 41 80  2  0  0  0  0
 42 45  1  0  0  0  0
 43 52  1  0  0  0  0
 44 67  1  0  0  0  0
 45 47  1  0  0  0  0
 46 48  1  0  0  0  0
 46 49  1  0  0  0  0
 47 51  1  0  0  0  0
 48 53  1  0  0  0  0
 49 66  1  0  0  0  0
 50 53  1  0  0  0  0
 50 66  1  0  0  0  0
 51 72  1  0  0  0  0
 52 67  1  0  0  0  0
 53 65  1  0  0  0  0
 54 62  1  0  0  0  0
 55 63  1  0  0  0  0
 56 63  1  0  0  0  0
 57 63  1  0  0  0  0
 58 74  1  0  0  0  0
 59 71  1  0  0  0  0
 60 82  1  0  0  0  0
 61 63  1  0  0  0  0
 61 73  1  0  0  0  0
 62 74  1  0  0  0  0
 64 65  1  0  0  0  0
M  CHG  1  74   1
M  ISO  4  35 100  37 100  60 101  82 101
M  END
> <Batch ID>
0155

> <Smiles>
CNC(C)C(=O)NC(C(=O)N1Cc2cc([101O:1][101CH2:1]C(=O)CNc3cc(N)cc(C=[100CH:0][100C:0](=O)N4CCCC(n5nc(-c6ccc(Oc7ccc(F)cc7F)cc6)c(C(N)=O)c5N)C4)c3)ccc2CC1C(=O)NC1CCCc2ccccc21)C(C)(C)C

> <Shape>
0.276

> <Color>
0.095

> <Negative vol penalty>
0.000

$$$$

  -OEChem-04052303363D

 91100  0     1  0  0  0  0  0999 V2000
  -19.9904  -24.2356   24.2449 C   0  0  0  0  0  0  0  0  0  0  0  0
  -21.3257  -24.5847   24.0775 C   0  0  0  0  0  0  0  0  0  0  0  0
  -27.6109  -15.2083   21.0970 C   0  0  0  0  0  0  0  0  0  0  0  0
  -25.6919  -15.5379   19.6667 C   0  0  0  0  0  0  0  0  0  0  0  0
  -18.9885  -25.0818   23.7744 C   0  0  0  0  0  0  0  0  0  0  0  0
  -21.6594  -25.7856   23.4504 C   0  0  0  0  0  0  0  0  0  0  0  0
  -27.0941  -28.0851   21.9324 C   0  0  0  0  0  0  0  0  0  0  0  0
  -27.3962  -13.8304   21.0676 C   0  0  0  0  0  0  0  0  0  0  0  0
  -25.4772  -14.1600   19.6373 C   0  0  0  0  0  0  0  0  0  0  0  0
  -27.9448  -28.0723   20.8279 C   0  0  0  0  0  0  0  0  0  0  0  0
  -25.3410  -11.5980   22.5565 C   0  0  0  0  0  0  0  0  0  0  0  0
  -25.4208  -10.9045   23.7640 C   0  0  0  0  0  0  0  0  0  0  0  0
  -25.2038  -26.7712   15.8788 C   0  0  0  0  0  0  0  0  0  0  0  0
  -24.2064  -25.8288   17.8672 C   0  0  0  0  0  0  0  0  0  0  0  0
  -27.0497  -30.1981   20.1215 C   0  0  0  0  0  0  0  0  0  0  0  0
  -26.2939  -24.9474   17.0289 C   0  0  0  0  0  0  0  0  0  0  0  0
  -27.2183   -9.5587   22.8723 C   0  0  0  0  0  0  0  0  0  0  0  0
  -26.7587  -16.0621   20.3966 C   0  0  0  0  0  0  0  0  0  0  0  0
  -24.1755  -26.7508   16.8210 C   0  0  0  0  0  0  0  0  0  0  0  0
  -28.1270  -18.1772   19.9944 C   0  0  0  0  0  0  0  0  0  0  0  0
  -19.3111  -26.2875   23.1301 C   0  0  0  0  0  0  0  0  0  0  0  0
  -26.2056  -29.1511   22.1342 C   0  0  0  0  0  0  0  0  0  0  0  0
  -20.6623  -26.6645   22.9900 C   0  0  0  0  0  0  0  0  0  0  0  0
  -26.1906  -30.2233   21.2307 C   0  0  0  0  0  0  0  0  0  0  0  0
  -26.2630  -25.8695   15.9827 C   0  0  0  0  0  0  0  0  0  0  0  0
  -25.2656  -24.9271   17.9712 C   0  0  0  0  0  0  0  0  0  0  0  0
  -26.3294  -13.3062   20.3378 C   0  0  0  0  0  0  0  0  0  0  0  0
  -27.9206  -29.1275   19.9207 C   0  0  0  0  0  0  0  0  0  0  0  0
  -26.1997  -11.2718   21.5067 C   0  0  0  0  0  0  0  0  0  0  0  0
  -26.3595   -9.8849   23.9220 C   0  0  0  0  0  0  0  0  0  0  0  0
  -27.1383  -10.2522   21.6647 C   0  0  0  0  0  0  0  0  0  0  0  0
  -26.9797  -17.4856   20.4270 C   0  0  0  0  0  0  0  0  0  0  0  0
  -27.8415  -19.4993   20.2335 C   0  0  0  0  0  0  0  0  0  0  0  0
  -29.6744  -29.8793   15.6320 C   0  0  0  0  0  0  0  0  0  0  0  0
  -28.9016  -29.1388   16.4426 C   0  0  0  0  0  0  0  0  0  0  0  0
  -30.3251  -29.3373   14.4204 C   0  0  0  0  0  0  0  0  0  0  0  0
  -23.0779  -27.6861   16.7131 C   0  0  0  0  0  0  0  0  0  0  0  0
  -29.3420  -17.6700   19.4269 C   0  0  0  0  0  0  0  0  0  0  0  0
  -23.0435  -29.4381   22.2831 C   0  0  0  0  0  0  0  0  0  0  0  0
  -23.7499  -32.4960   23.1033 C   0  0  0  0  0  0  0  0  0  0  0  0
  -25.9755  -35.0813   23.0058 C   0  0  0  0  0  0  0  0  0  0  0  0
  -24.3587  -23.8400   20.0550 C   0  0  0  0  0  0  0  0  0  0  0  0
  -18.1868  -27.1695   22.6473 C   0  0  0  0  0  0  0  0  0  0  0  0
  -25.3133  -29.1627   23.3451 C   0  0  0  0  0  0  0  0  0  0  0  0
  -25.2697  -31.4011   21.4131 C   0  0  0  0  0  0  0  0  0  0  0  0
  -29.4543  -28.6509   13.4001 C   0  0  0  0  0  0  0  0  0  0  0  0
  -18.6376  -28.1934   21.6106 C   0  0  0  0  0  0  0  0  0  0  0  0
  -24.0598  -21.6343   22.8340 C   0  0  0  0  0  0  0  0  0  0  0  0
  -19.8768  -28.9238   22.1062 C   0  0  0  0  0  0  0  0  0  0  0  0
  -24.8872  -20.4153   22.4200 C   0  0  0  0  0  0  0  0  0  0  0  0
  -23.3148  -22.2436   21.6477 C   0  0  0  0  0  0  0  0  0  0  0  0
  -24.9810  -21.3444   20.0715 C   0  0  0  0  0  0  0  0  0  0  0  0
  -29.1006  -27.2306   13.7843 C   0  0  0  0  0  0  0  0  0  0  0  0
  -21.0495  -27.9511   22.2836 C   0  0  1  0  0  0  0  0  0  0  0  0
  -28.6150  -27.6546   16.2929 C   0  0  2  0  0  0  0  0  0  0  0  0
  -24.0858  -30.0523   23.1742 C   0  0  1  0  0  0  0  0  0  0  0  0
  -25.8009  -20.7353   21.2206 C   0  0  2  0  0  0  0  0  0  0  0  0
  -29.8011  -26.8028   16.7572 C   0  0  0  0  0  0  0  0  0  0  0  0
  -26.2563  -37.4672   23.7310 C   0  0  0  0  0  0  0  0  0  0  0  0
  -21.8966  -33.3956   20.8525 C   0  0  0  0  0  0  0  0  0  0  0  0
  -22.9345  -35.6692   21.0008 C   0  0  0  0  0  0  0  0  0  0  0  0
  -21.7052  -34.7312   22.9583 C   0  0  0  0  0  0  0  0  0  0  0  0
  -28.3240  -34.4176   24.6801 C   0  0  0  0  0  0  0  0  0  0  0  0
  -27.3695  -25.8920   14.9698 C   0  0  0  0  0  0  0  0  0  0  0  0
  -28.2904  -29.7794   17.6637 C   0  0  0  0  0  0  0  0  0  1  0  0
  -23.9673  -33.7832   22.3451 C   0  0  1  0  0  0  0  0  0  0  0  0
  -26.4905  -36.0086   24.0918 C   0  0  2  0  0  0  0  0  0  0  0  0
  -22.6420  -34.3718   21.7844 C   0  0  0  0  0  0  0  0  0  0  0  0
  -26.0358  -18.3008   20.9050 N   0  0  0  0  0  0  0  0  0  0  0  0
  -26.5895  -19.5184   20.7742 N   0  0  0  0  0  0  0  0  0  0  0  0
  -24.4120  -31.3632   22.6090 N   0  0  0  0  0  0  0  0  0  0  0  0
  -24.2445  -22.5242   20.5515 N   0  0  0  0  0  0  0  0  0  0  0  0
  -28.5418  -20.6356   20.0321 N   0  0  0  0  0  0  0  0  0  0  0  0
  -23.0397  -28.5783   15.7091 N   0  0  0  0  0  0  0  0  0  0  0  0
  -29.4230  -17.5331   18.0344 N   0  0  0  0  0  0  0  0  0  0  0  0
  -25.2977  -23.9920   19.0353 N   0  0  0  0  0  0  0  0  0  0  0  0
  -22.1353  -28.6371   22.9487 N   0  0  0  0  0  0  0  0  0  0  0  0
  -24.6809  -34.6756   23.2522 N   0  0  0  0  0  0  0  0  0  0  0  0
  -22.0814  -27.6737   17.6142 N   0  3  0  0  0  0  0  0  0  0  0  0
  -28.0991  -27.2168   14.9181 N   0  3  2  0  0  0  0  0  0  0  0  0
  -27.9523  -35.8041   24.2973 N   0  3  0  0  0  0  0  0  0  0  0  0
  -31.5276  -29.5166   14.2402 O   0  0  0  0  0  0  0  0  0  0  0  0
  -30.3209  -17.3324   20.1349 O   0  0  0  0  0  0  0  0  0  0  0  0
  -23.0609  -29.6747   21.0808 O   0  0  0  0  0  0  0  0  0  0  0  0
  -23.0252  -32.4971   24.1015 O   0  0  0  0  0  0  0  0  0  0  0  0
  -26.6526  -34.7529   22.0341 O   0  0  0  0  0  0  0  0  0  0  0  0
  -23.6936  -24.7691   20.5201 O   0  0  0  0  0  0  0  0  0  0  0  0
  -26.1197  -11.9617   20.3087 O   0  0  0  0  0  0  0  0  0  0  0  0
  -28.7495  -29.1172   18.8414 O   0  0  0  0  0  0  0  0  0  1  0  0
  -26.4371   -9.2201   25.0822 F   0  0  0  0  0  0  0  0  0  0  0  0
  -27.9668   -9.9351   20.6602 F   0  0  0  0  0  0  0  0  0  0  0  0
  1  2  1  0  0  0  0
  1  5  2  0  0  0  0
  2  6  2  0  0  0  0
  3  8  2  0  0  0  0
  3 18  1  0  0  0  0
  4  9  1  0  0  0  0
  4 18  2  0  0  0  0
  5 21  1  0  0  0  0
  6 23  1  0  0  0  0
  7 10  2  0  0  0  0
  7 22  1  0  0  0  0
  8 27  1  0  0  0  0
  9 27  2  0  0  0  0
 10 28  1  0  0  0  0
 11 12  2  0  0  0  0
 11 29  1  0  0  0  0
 12 30  1  0  0  0  0
 13 19  1  0  0  0  0
 13 25  2  0  0  0  0
 14 19  2  0  0  0  0
 14 26  1  0  0  0  0
 15 24  1  0  0  0  0
 15 28  2  0  0  0  0
 16 25  1  0  0  0  0
 16 26  2  0  0  0  0
 17 30  2  0  0  0  0
 17 31  1  0  0  0  0
 18 32  1  0  0  0  0
 19 37  1  0  0  0  0
 20 32  1  0  0  0  0
 20 33  2  0  0  0  0
 20 38  1  0  0  0  0
 21 23  2  0  0  0  0
 21 43  1  0  0  0  0
 22 24  2  0  0  0  0
 22 44  1  0  0  0  0
 23 54  1  0  0  0  0
 24 45  1  0  0  0  0
 25 64  1  0  0  0  0
 26 76  1  0  0  0  0
 27 88  1  0  0  0  0
 28 89  1  0  0  0  0
 29 31  2  0  0  0  0
 29 88  1  0  0  0  0
 30 90  1  0  0  0  0
 31 91  1  0  0  0  0
 32 69  2  0  0  0  0
 33 70  1  0  0  0  0
 33 73  1  0  0  0  0
 34 35  2  0  0  0  0
 34 36  1  0  0  0  0
 35 55  1  0  0  0  0
 35 65  1  0  0  0  0
 36 46  1  0  0  0  0
 36 82  2  0  0  0  0
 37 74  1  0  0  0  0
 37 79  2  0  0  0  0
 38 75  1  0  0  0  0
 38 83  2  0  0  0  0
 39 56  1  0  0  0  0
 39 77  1  0  0  0  0
 39 84  2  0  0  0  0
 40 66  1  0  0  0  0
 40 71  1  0  0  0  0
 40 85  2  0  0  0  0
 41 67  1  0  0  0  0
 41 78  1  0  0  0  0
 41 86  2  0  0  0  0
 42 72  1  0  0  0  0
 42 76  1  0  0  0  0
 42 87  2  0  0  0  0
 43 47  1  0  0  0  0
 44 56  1  0  0  0  0
 45 71  1  0  0  0  0
 46 53  1  0  0  0  0
 47 49  1  0  0  0  0
 48 50  1  0  0  0  0
 48 51  1  0  0  0  0
 49 54  1  0  0  0  0
 50 57  1  0  0  0  0
 51 72  1  0  0  0  0
 52 57  1  0  0  0  0
 52 72  1  0  0  0  0
 53 80  1  0  0  0  0
 54 77  1  0  0  0  0
 55 58  1  0  0  0  0
 55 80  1  0  0  0  0
 56 71  1  0  0  0  0
 57 70  1  0  0  0  0
 59 67  1  0  0  0  0
 60 68  1  0  0  0  0
 61 68  1  0  0  0  0
 62 68  1  0  0  0  0
 63 81  1  0  0  0  0
 64 80  1  0  0  0  0
 65 89  1  0  0  0  0
 66 68  1  0  0  0  0
 66 78  1  0  0  0  0
 67 81  1  0  0  0  0
 69 70  1  0  0  0  0
M  CHG  3  79   1  80   1  81   1
M  ISO  4  42 100  65 101  76 100  89 101
M  END
> <Batch ID>
0155

> <Smiles>
CNC(C)C(=O)NC(C(=O)N1Cc2cc([101O:1][101CH2:1]C3=C(C)N(Cc4cc([100NH:0][100C:0](=O)N5CCCC(n6nc(-c7ccc(Oc8ccc(F)cc8F)cc7)c(C(N)=O)c6N)C5)cc(C(=N)N)c4)CCC(=O)C3)ccc2CC1C(=O)NC1CCCc2ccccc21)C(C)(C)C

> <Shape>
0.215

> <Color>
0.091

> <Negative vol penalty>
0.000

$$$$

  -OEChem-04052303363D

 83 92  0     1  0  0  0  0  0999 V2000
  -37.1919  -28.2741   10.3433 C   0  0  0  0  0  0  0  0  0  0  0  0
  -38.0108  -27.5925   11.2378 C   0  0  0  0  0  0  0  0  0  0  0  0
  -23.2515  -10.1382   22.1638 C   0  0  0  0  0  0  0  0  0  0  0  0
  -23.5108   -9.5536   19.8340 C   0  0  0  0  0  0  0  0  0  0  0  0
  -36.1689  -29.0923   10.8210 C   0  0  0  0  0  0  0  0  0  0  0  0
  -37.8080  -27.7295   12.6106 C   0  0  0  0  0  0  0  0  0  0  0  0
  -36.4022  -21.9980   16.7417 C   0  0  0  0  0  0  0  0  0  0  0  0
  -22.4918   -8.9864   22.3683 C   0  0  0  0  0  0  0  0  0  0  0  0
  -22.7511   -8.4018   20.0384 C   0  0  0  0  0  0  0  0  0  0  0  0
  -36.3377  -20.9257   17.6316 C   0  0  0  0  0  0  0  0  0  0  0  0
  -23.0483   -5.6787   22.7955 C   0  0  0  0  0  0  0  0  0  0  0  0
  -23.3293   -4.9087   23.9240 C   0  0  0  0  0  0  0  0  0  0  0  0
  -36.1073  -22.4630   19.4841 C   0  0  0  0  0  0  0  0  0  0  0  0
  -31.9170  -17.2767   21.7824 C   0  0  0  0  0  0  0  0  0  0  0  0
  -21.0705   -5.2418   24.7139 C   0  0  0  0  0  0  0  0  0  0  0  0
  -29.9242  -17.5854   22.9381 C   0  0  0  0  0  0  0  0  0  0  0  0
  -23.7609  -10.4218   20.8966 C   0  0  0  0  0  0  0  0  0  0  0  0
  -24.1393  -12.9446   20.8862 C   0  0  0  0  0  0  0  0  0  0  0  0
  -35.9473  -29.2318   12.2001 C   0  0  0  0  0  0  0  0  0  0  0  0
  -36.3040  -23.3082   17.2185 C   0  0  0  0  0  0  0  0  0  0  0  0
  -36.7820  -28.5513   13.1072 C   0  0  0  0  0  0  0  0  0  0  0  0
  -36.1588  -23.5408   18.5961 C   0  0  0  0  0  0  0  0  0  0  0  0
  -30.6234  -16.7613   22.0840 C   0  0  0  0  0  0  0  0  0  0  0  0
  -22.2416   -8.1181   21.3056 C   0  0  0  0  0  0  0  0  0  0  0  0
  -36.1908  -21.1577   18.9994 C   0  0  0  0  0  0  0  0  0  0  0  0
  -21.7783   -6.2304   22.6262 C   0  0  0  0  0  0  0  0  0  0  0  0
  -22.3405   -4.6902   24.8832 C   0  0  0  0  0  0  0  0  0  0  0  0
  -20.7895   -6.0119   23.5854 C   0  0  0  0  0  0  0  0  0  0  0  0
  -24.5453  -11.6118   20.6846 C   0  0  0  0  0  0  0  0  0  0  0  0
  -32.1572  -18.4754   22.4175 C   0  0  0  0  0  0  0  0  0  0  0  0
  -25.2391  -13.6937   20.5458 C   0  0  0  0  0  0  0  0  0  0  0  0
  -22.8808  -13.4595   21.3407 C   0  0  0  0  0  0  0  0  0  0  0  0
  -36.2431  -26.9697   16.4028 C   0  0  0  0  0  0  0  0  0  0  0  0
  -34.1289  -26.5058   18.5765 C   0  0  0  0  0  0  0  0  0  0  0  0
  -31.6209  -25.5048   20.6610 C   0  0  0  0  0  0  0  0  0  0  0  0
  -30.7217  -14.6511   20.7115 C   0  0  0  0  0  0  0  0  0  0  0  0
  -34.8592  -30.1646   12.6698 C   0  0  0  0  0  0  0  0  0  0  0  0
  -36.4303  -24.4955   16.3030 C   0  0  0  0  0  0  0  0  0  0  0  0
  -36.0920  -24.9678   19.0674 C   0  0  0  0  0  0  0  0  0  0  0  0
  -34.4723  -29.9616   14.1325 C   0  0  0  0  0  0  0  0  0  0  0  0
  -29.5489  -12.3623   18.2492 C   0  0  0  0  0  0  0  0  0  0  0  0
  -35.7192  -29.8602   15.0054 C   0  0  0  0  0  0  0  0  0  0  0  0
  -28.1092  -12.0726   18.6799 C   0  0  0  0  0  0  0  0  0  0  0  0
  -36.2583  -20.1236   22.2701 C   0  0  0  0  0  0  0  0  0  0  0  0
  -34.2116  -19.2815   21.0530 C   0  0  0  0  0  0  0  0  0  0  0  0
  -30.4787  -12.5237   19.4505 C   0  0  0  0  0  0  0  0  0  0  0  0
  -28.5960  -13.2131   20.8820 C   0  0  0  0  0  0  0  0  0  0  0  0
  -35.4661  -20.1631   23.5668 C   0  0  0  0  0  0  0  0  0  0  0  0
  -36.5777  -28.6549   14.6030 C   0  0  1  0  0  0  0  0  0  0  0  0
  -33.4023  -19.3428   22.3597 C   0  0  2  0  0  0  0  0  0  0  0  0
  -35.5456  -25.6814   16.7272 C   0  0  1  0  0  0  0  0  0  0  0  0
  -27.6095  -13.1069   19.7076 C   0  0  2  0  0  0  0  0  0  0  0  0
  -35.3593  -20.2903   21.0488 C   0  0  2  0  0  0  0  0  0  1  0  0
  -29.6965  -26.4006   21.9994 C   0  0  0  0  0  0  0  0  0  0  0  0
  -36.0806  -27.5608   20.6698 C   0  0  0  0  0  0  0  0  0  0  0  0
  -34.2009  -27.5526   22.3235 C   0  0  0  0  0  0  0  0  0  0  0  0
  -34.0707  -29.0015   20.2970 C   0  0  0  0  0  0  0  0  0  0  0  0
  -34.8523  -17.7287   23.7382 C   0  0  0  0  0  0  0  0  0  0  0  0
  -29.6605  -23.8952   19.1363 C   0  0  0  0  0  0  0  0  0  0  0  0
  -33.8103  -26.4988   20.0502 C   0  0  1  0  0  0  0  0  0  0  0  0
  -30.1340  -25.8106   20.6678 C   0  0  2  0  0  0  0  0  0  0  0  0
  -34.5479  -27.6296   20.8214 C   0  0  0  0  0  0  0  0  0  0  0  0
  -25.8045  -11.5165   20.2496 N   0  0  0  0  0  0  0  0  0  0  0  0
  -26.1993  -12.7989   20.1751 N   0  0  0  0  0  0  0  0  0  0  0  0
  -35.2372  -25.7554   18.1654 N   0  0  0  0  0  0  0  0  0  0  0  0
  -29.9435  -13.5221   20.3787 N   0  0  0  0  0  0  0  0  0  0  0  0
  -25.4687  -15.0239   20.5303 N   0  0  0  0  0  0  0  0  0  0  0  0
  -21.8962  -13.7544   20.3879 N   0  0  0  0  0  0  0  0  0  0  0  0
  -30.0960  -15.5478   21.5769 N   0  0  0  0  0  0  0  0  0  0  0  0
  -36.0055  -27.4311   15.1221 N   0  0  0  0  0  0  0  0  0  0  0  0
  -32.3561  -26.5552   20.1537 N   0  0  0  0  0  0  0  0  0  0  0  0
  -34.3516  -19.1391   23.5484 N   0  3  1  0  0  0  0  0  0  0  0  0
  -29.3485  -24.5680   20.4235 N   0  3  0  0  0  0  0  0  0  0  0  0
  -22.6424  -13.6678   22.5545 O   0  0  0  0  0  0  0  0  0  0  0  0
  -36.9445  -27.5074   17.2516 O   0  0  0  0  0  0  0  0  0  0  0  0
  -33.4195  -27.1626   17.8092 O   0  0  0  0  0  0  0  0  0  0  0  0
  -32.0842  -24.4419   21.0687 O   0  0  0  0  0  0  0  0  0  0  0  0
  -31.8487  -14.8242   20.2404 O   0  0  0  0  0  0  0  0  0  0  0  0
  -21.5006   -6.9940   21.5048 O   0  0  0  0  0  0  0  0  0  0  0  0
  -36.1239  -20.1061   19.8622 O   0  0  0  0  0  0  0  0  0  1  0  0
  -22.6101   -3.9494   25.9662 F   0  0  0  0  0  0  0  0  0  0  0  0
  -19.5672   -6.5382   23.4276 F   0  0  0  0  0  0  0  0  0  0  0  0
  -30.8266  -18.9744   23.3728 S   0  0  0  0  0  0  0  0  0  0  0  0
  1  2  1  0  0  0  0
  1  5  2  0  0  0  0
  2  6  2  0  0  0  0
  3  8  2  0  0  0  0
  3 17  1  0  0  0  0
  4  9  1  0  0  0  0
  4 17  2  0  0  0  0
  5 19  1  0  0  0  0
  6 21  1  0  0  0  0
  7 10  2  0  0  0  0
  7 20  1  0  0  0  0
  8 24  1  0  0  0  0
  9 24  2  0  0  0  0
 10 25  1  0  0  0  0
 11 12  2  0  0  0  0
 11 26  1  0  0  0  0
 12 27  1  0  0  0  0
 13 22  1  0  0  0  0
 13 25  2  0  0  0  0
 14 23  1  0  0  0  0
 14 30  2  0  0  0  0
 15 27  2  0  0  0  0
 15 28  1  0  0  0  0
 16 23  2  0  0  0  0
 16 83  1  0  0  0  0
 17 29  1  0  0  0  0
 18 29  1  0  0  0  0
 18 31  2  0  0  0  0
 18 32  1  0  0  0  0
 19 21  2  0  0  0  0
 19 37  1  0  0  0  0
 20 22  2  0  0  0  0
 20 38  1  0  0  0  0
 21 49  1  0  0  0  0
 22 39  1  0  0  0  0
 23 69  1  0  0  0  0
 24 79  1  0  0  0  0
 25 80  1  0  0  0  0
 26 28  2  0  0  0  0
 26 79  1  0  0  0  0
 27 81  1  0  0  0  0
 28 82  1  0  0  0  0
 29 63  2  0  0  0  0
 30 50  1  0  0  0  0
 30 83  1  0  0  0  0
 31 64  1  0  0  0  0
 31 67  1  0  0  0  0
 32 68  1  0  0  0  0
 32 74  2  0  0  0  0
 33 51  1  0  0  0  0
 33 70  1  0  0  0  0
 33 75  2  0  0  0  0
 34 60  1  0  0  0  0
 34 65  1  0  0  0  0
 34 76  2  0  0  0  0
 35 61  1  0  0  0  0
 35 71  1  0  0  0  0
 35 77  2  0  0  0  0
 36 66  1  0  0  0  0
 36 69  1  0  0  0  0
 36 78  2  0  0  0  0
 37 40  1  0  0  0  0
 38 51  1  0  0  0  0
 39 65  1  0  0  0  0
 40 42  1  0  0  0  0
 41 43  1  0  0  0  0
 41 46  1  0  0  0  0
 42 49  1  0  0  0  0
 43 52  1  0  0  0  0
 44 48  1  0  0  0  0
 44 53  1  0  0  0  0
 45 50  1  0  0  0  0
 45 53  1  0  0  0  0
 46 66  1  0  0  0  0
 47 52  1  0  0  0  0
 47 66  1  0  0  0  0
 48 72  1  0  0  0  0
 49 70  1  0  0  0  0
 50 72  1  0  0  0  0
 51 65  1  0  0  0  0
 52 64  1  0  0  0  0
 53 80  1  0  0  0  0
 54 61  1  0  0  0  0
 55 62  1  0  0  0  0
 56 62  1  0  0  0  0
 57 62  1  0  0  0  0
 58 72  1  0  0  0  0
 59 73  1  0  0  0  0
 60 62  1  0  0  0  0
 60 71  1  0  0  0  0
 61 73  1  0  0  0  0
 63 64  1  0  0  0  0
M  CHG  2  72   1  73   1
M  ISO  4  36 100  53 101  69 100  80 101
M  END
> <Batch ID>
0155

> <Smiles>
CNC(C)C(=O)NC(C(=O)N1Cc2cc([101O:1][101CH:1]3CCN(C)C(c4cc([100NH:0][100C:0](=O)N5CCCC(n6nc(-c7ccc(Oc8ccc(F)cc8F)cc7)c(C(N)=O)c6N)C5)cs4)C3)ccc2CC1C(=O)NC1CCCc2ccccc21)C(C)(C)C

> <Shape>
0.198

> <Color>
0.173

> <Negative vol penalty>
0.000

$$$$

  -OEChem-04052303363D

 82 91  0     1  0  0  0  0  0999 V2000
  -27.0200  -37.0284   20.3364 C   0  0  0  0  0  0  0  0  0  0  0  0
  -27.4832  -35.7978   19.8820 C   0  0  0  0  0  0  0  0  0  0  0  0
  -23.2117  -10.1401   19.8074 C   0  0  0  0  0  0  0  0  0  0  0  0
  -23.8728   -9.7349   22.0956 C   0  0  0  0  0  0  0  0  0  0  0  0
  -26.4216  -37.1264   21.5919 C   0  0  0  0  0  0  0  0  0  0  0  0
  -27.3492  -34.6646   20.6834 C   0  0  0  0  0  0  0  0  0  0  0  0
  -26.2927  -28.9319   18.8057 C   0  0  0  0  0  0  0  0  0  0  0  0
  -22.5010   -8.9400   19.8002 C   0  0  0  0  0  0  0  0  0  0  0  0
  -23.1620   -8.5347   22.0884 C   0  0  0  0  0  0  0  0  0  0  0  0
  -27.1369  -27.8415   18.6003 C   0  0  0  0  0  0  0  0  0  0  0  0
  -23.5988   -5.3876   20.9327 C   0  0  0  0  0  0  0  0  0  0  0  0
  -24.2207   -4.2629   21.4747 C   0  0  0  0  0  0  0  0  0  0  0  0
  -26.6066  -27.0230   20.8067 C   0  0  0  0  0  0  0  0  0  0  0  0
  -28.7378  -20.4217   18.3192 C   0  0  0  0  0  0  0  0  0  0  0  0
  -22.4432   -4.0626   23.0987 C   0  0  0  0  0  0  0  0  0  0  0  0
  -23.8977  -10.5376   20.9551 C   0  0  0  0  0  0  0  0  0  0  0  0
  -24.1509  -13.0485   21.3276 C   0  0  0  0  0  0  0  0  0  0  0  0
  -26.2714  -35.9919   22.4050 C   0  0  0  0  0  0  0  0  0  0  0  0
  -25.6064  -29.0820   20.0193 C   0  0  0  0  0  0  0  0  0  0  0  0
  -26.7494  -34.7477   21.9515 C   0  0  0  0  0  0  0  0  0  0  0  0
  -25.7523  -28.1148   21.0240 C   0  0  0  0  0  0  0  0  0  0  0  0
  -28.7436  -19.0123   18.3135 C   0  0  0  0  0  0  0  0  0  0  0  0
  -22.4761   -8.1373   20.9406 C   0  0  0  0  0  0  0  0  0  0  0  0
  -27.2962  -26.8884   19.6020 C   0  0  0  0  0  0  0  0  0  0  0  0
  -22.3991   -5.8499   21.4737 C   0  0  0  0  0  0  0  0  0  0  0  0
  -23.6429   -3.6003   22.5576 C   0  0  0  0  0  0  0  0  0  0  0  0
  -21.8213   -5.1874   22.5567 C   0  0  0  0  0  0  0  0  0  0  0  0
  -24.6325  -11.7770   20.9630 C   0  0  0  0  0  0  0  0  0  0  0  0
  -28.1568  -18.4884   19.4283 C   0  0  0  0  0  0  0  0  0  0  0  0
  -25.2290  -13.8837   21.1649 C   0  0  0  0  0  0  0  0  0  0  0  0
  -28.1281  -20.9011   19.4681 C   0  0  0  0  0  0  0  0  0  0  0  0
  -22.8456  -13.4397   21.7735 C   0  0  0  0  0  0  0  0  0  0  0  0
  -25.5956  -31.2585   22.3358 C   0  0  0  0  0  0  0  0  0  0  0  0
  -23.1473  -29.4633   23.4783 C   0  0  0  0  0  0  0  0  0  0  0  0
  -28.2345  -23.4065   19.2550 C   0  0  0  0  0  0  0  0  0  0  0  0
  -21.5889  -26.4295   23.5976 C   0  0  0  0  0  0  0  0  0  0  0  0
  -29.4924  -15.5042   17.8605 C   0  0  0  0  0  0  0  0  0  0  0  0
  -25.6607  -36.1559   23.7742 C   0  0  0  0  0  0  0  0  0  0  0  0
  -24.6787  -30.2497   20.2150 C   0  0  0  0  0  0  0  0  0  0  0  0
  -25.0222  -28.2192   22.3372 C   0  0  0  0  0  0  0  0  0  0  0  0
  -29.2296  -17.9493   17.4157 C   0  0  0  0  0  0  0  0  0  0  0  0
  -28.1339  -17.0154   19.4511 C   0  0  0  0  0  0  0  0  0  0  0  0
  -25.2188  -34.8383   24.4059 C   0  0  0  0  0  0  0  0  0  0  0  0
  -30.1116  -12.8564   20.3286 C   0  0  0  0  0  0  0  0  0  0  0  0
  -26.3105  -33.7831   24.2586 C   0  0  0  0  0  0  0  0  0  0  0  0
  -28.6950  -12.4170   20.7053 C   0  0  0  0  0  0  0  0  0  0  0  0
  -30.1895  -13.3721   18.8931 C   0  0  0  0  0  0  0  0  0  0  0  0
  -27.8010  -13.9733   18.9367 C   0  0  0  0  0  0  0  0  0  0  0  0
  -26.5998  -33.4910   22.7813 C   0  0  1  0  0  0  0  0  0  0  0  0
  -24.4276  -30.5735   21.6845 C   0  0  1  0  0  0  0  0  0  0  0  0
  -27.6670  -13.5227   20.3973 C   0  0  1  0  0  0  0  0  0  0  0  0
  -19.6317  -25.2602   24.6461 C   0  0  0  0  0  0  0  0  0  0  0  0
  -24.6586  -29.3117   26.1246 C   0  0  0  0  0  0  0  0  0  0  0  0
  -23.1746  -27.4058   26.7830 C   0  0  0  0  0  0  0  0  0  0  0  0
  -22.1921  -29.6575   26.3503 C   0  0  0  0  0  0  0  0  0  0  0  0
  -20.3779  -25.8444   20.9613 C   0  0  0  0  0  0  0  0  0  0  0  0
  -27.8010  -24.6117   20.0687 C   0  0  0  0  0  0  0  0  0  1  0  0
  -23.0330  -28.2777   24.4058 C   0  0  1  0  0  0  0  0  0  0  0  0
  -20.1305  -26.0394   23.4391 C   0  0  2  0  0  0  0  0  0  0  0  0
  -23.2800  -28.6619   25.8920 C   0  0  0  0  0  0  0  0  0  0  0  0
  -25.9167  -11.7977   20.5962 N   0  0  0  0  0  0  0  0  0  0  0  0
  -26.2510  -13.0925   20.7294 N   0  0  0  0  0  0  0  0  0  0  0  0
  -24.1316  -29.3824   22.4831 N   0  0  0  0  0  0  0  0  0  0  0  0
  -28.8796  -16.7192   18.1863 N   0  0  0  0  0  0  0  0  0  0  0  0
  -29.1752  -14.3974   18.6540 N   0  0  0  0  0  0  0  0  0  0  0  0
  -25.3930  -15.2104   21.3532 N   0  0  0  0  0  0  0  0  0  0  0  0
  -21.8545  -12.4550   21.8846 N   0  0  0  0  0  0  0  0  0  0  0  0
  -27.9010  -22.1816   19.8914 N   0  0  0  0  0  0  0  0  0  0  0  0
  -25.5734  -32.6357   22.2249 N   0  0  0  0  0  0  0  0  0  0  0  0
  -21.7244  -27.6850   24.1514 N   0  0  0  0  0  0  0  0  0  0  0  0
  -19.9496  -25.1930   22.2259 N   0  3  0  0  0  0  0  0  0  0  0  0
  -22.5618  -14.6301   22.0491 O   0  0  0  0  0  0  0  0  0  0  0  0
  -26.4526  -30.5874   22.8986 O   0  0  0  0  0  0  0  0  0  0  0  0
  -22.3864  -30.4228   23.6268 O   0  0  0  0  0  0  0  0  0  0  0  0
  -28.8051  -23.5311   18.1764 O   0  0  0  0  0  0  0  0  0  0  0  0
  -22.5153  -25.6926   23.2670 O   0  0  0  0  0  0  0  0  0  0  0  0
  -30.3211  -15.4247   16.9450 O   0  0  0  0  0  0  0  0  0  0  0  0
  -21.7825   -6.9662   20.9340 O   0  0  0  0  0  0  0  0  0  0  0  0
  -28.1287  -25.8124   19.4023 O   0  0  0  0  0  0  0  0  0  1  0  0
  -24.2394   -2.5193   23.0770 F   0  0  0  0  0  0  0  0  0  0  0  0
  -20.6682   -5.6261   23.0800 F   0  0  0  0  0  0  0  0  0  0  0  0
  -27.5832  -19.6285   20.5075 S   0  0  0  0  0  0  0  0  0  0  0  0
  1  2  1  0  0  0  0
  1  5  2  0  0  0  0
  2  6  2  0  0  0  0
  3  8  2  0  0  0  0
  3 16  1  0  0  0  0
  4  9  1  0  0  0  0
  4 16  2  0  0  0  0
  5 18  1  0  0  0  0
  6 20  1  0  0  0  0
  7 10  2  0  0  0  0
  7 19  1  0  0  0  0
  8 23  1  0  0  0  0
  9 23  2  0  0  0  0
 10 24  1  0  0  0  0
 11 12  2  0  0  0  0
 11 25  1  0  0  0  0
 12 26  1  0  0  0  0
 13 21  1  0  0  0  0
 13 24  2  0  0  0  0
 14 22  1  0  0  0  0
 14 31  2  0  0  0  0
 15 26  2  0  0  0  0
 15 27  1  0  0  0  0
 16 28  1  0  0  0  0
 17 28  1  0  0  0  0
 17 30  2  0  0  0  0
 17 32  1  0  0  0  0
 18 20  2  0  0  0  0
 18 38  1  0  0  0  0
 19 21  2  0  0  0  0
 19 39  1  0  0  0  0
 20 49  1  0  0  0  0
 21 40  1  0  0  0  0
 22 29  2  0  0  0  0
 22 41  1  0  0  0  0
 23 78  1  0  0  0  0
 24 79  1  0  0  0  0
 25 27  2  0  0  0  0
 25 78  1  0  0  0  0
 26 80  1  0  0  0  0
 27 81  1  0  0  0  0
 28 61  2  0  0  0  0
 29 42  1  0  0  0  0
 29 82  1  0  0  0  0
 30 62  1  0  0  0  0
 30 66  1  0  0  0  0
 31 68  1  0  0  0  0
 31 82  1  0  0  0  0
 32 67  1  0  0  0  0
 32 72  2  0  0  0  0
 33 50  1  0  0  0  0
 33 69  1  0  0  0  0
 33 73  2  0  0  0  0
 34 58  1  0  0  0  0
 34 63  1  0  0  0  0
 34 74  2  0  0  0  0
 35 57  1  0  0  0  0
 35 68  1  0  0  0  0
 35 75  2  0  0  0  0
 36 59  1  0  0  0  0
 36 70  1  0  0  0  0
 36 76  2  0  0  0  0
 37 64  1  0  0  0  0
 37 65  1  0  0  0  0
 37 77  2  0  0  0  0
 38 43  1  0  0  0  0
 39 50  1  0  0  0  0
 40 63  1  0  0  0  0
 41 64  1  0  0  0  0
 42 64  1  0  0  0  0
 43 45  1  0  0  0  0
 44 46  1  0  0  0  0
 44 47  1  0  0  0  0
 45 49  1  0  0  0  0
 46 51  1  0  0  0  0
 47 65  1  0  0  0  0
 48 51  1  0  0  0  0
 48 65  1  0  0  0  0
 49 69  1  0  0  0  0
 50 63  1  0  0  0  0
 51 62  1  0  0  0  0
 52 59  1  0  0  0  0
 53 60  1  0  0  0  0
 54 60  1  0  0  0  0
 55 60  1  0  0  0  0
 56 71  1  0  0  0  0
 57 79  1  0  0  0  0
 58 60  1  0  0  0  0
 58 70  1  0  0  0  0
 59 71  1  0  0  0  0
 61 62  1  0  0  0  0
M  CHG  1  71   1
M  ISO  4  37 100  57 101  64 100  79 101
M  END
> <Batch ID>
0155

> <Smiles>
CNC(C)C(=O)NC(C(=O)N1Cc2cc([101O:1][101CH2:1]C(=O)Nc3cc4c(s3)C[100N:0]([100C:0](=O)N3CCCC(n5nc(-c6ccc(Oc7ccc(F)cc7F)cc6)c(C(N)=O)c5N)C3)C4)ccc2CC1C(=O)NC1CCCc2ccccc21)C(C)(C)C

> <Shape>
0.337

> <Color>
0.166

> <Negative vol penalty>
0.000

$$$$

  -OEChem-04052303363D

 83 91  0     1  0  0  0  0  0999 V2000
  -23.5969   -7.9089   21.3267 C   0  0  0  0  0  0  0  0  0  0  0  0
  -24.2894   -8.9182   20.6656 C   0  0  0  0  0  0  0  0  0  0  0  0
  -22.5840  -29.2385   22.2333 C   0  0  0  0  0  0  0  0  0  0  0  0
  -23.1709  -27.5207   23.8275 C   0  0  0  0  0  0  0  0  0  0  0  0
  -22.3444   -8.1714   21.8800 C   0  0  0  0  0  0  0  0  0  0  0  0
  -23.7292  -10.1905   20.5564 C   0  0  0  0  0  0  0  0  0  0  0  0
  -27.0578  -13.8719   21.5626 C   0  0  0  0  0  0  0  0  0  0  0  0
  -21.2342  -28.9258   22.3931 C   0  0  0  0  0  0  0  0  0  0  0  0
  -21.8210  -27.2079   23.9874 C   0  0  0  0  0  0  0  0  0  0  0  0
  -27.9711  -14.1959   20.5603 C   0  0  0  0  0  0  0  0  0  0  0  0
  -18.5551  -25.7141   24.5464 C   0  0  0  0  0  0  0  0  0  0  0  0
  -18.1980  -24.3658   24.5504 C   0  0  0  0  0  0  0  0  0  0  0  0
  -26.6160  -16.0954   19.9480 C   0  0  0  0  0  0  0  0  0  0  0  0
  -19.0927  -24.1222   22.3194 C   0  0  0  0  0  0  0  0  0  0  0  0
  -28.8499  -21.8687   21.0376 C   0  0  0  0  0  0  0  0  0  0  0  0
  -23.5524  -28.5359   22.9504 C   0  0  0  0  0  0  0  0  0  0  0  0
  -25.6957  -29.7963   23.5209 C   0  0  0  0  0  0  0  0  0  0  0  0
  -21.7728   -9.4501   21.7859 C   0  0  0  0  0  0  0  0  0  0  0  0
  -25.9092  -14.6522   21.7584 C   0  0  0  0  0  0  0  0  0  0  0  0
  -22.4672  -10.4700   21.1078 C   0  0  0  0  0  0  0  0  0  0  0  0
  -25.6910  -15.7806   20.9552 C   0  0  0  0  0  0  0  0  0  0  0  0
  -20.8526  -27.9105   23.2702 C   0  0  0  0  0  0  0  0  0  0  0  0
  -27.7488  -15.3061   19.7509 C   0  0  0  0  0  0  0  0  0  0  0  0
  -19.1809  -26.2666   23.4288 C   0  0  0  0  0  0  0  0  0  0  0  0
  -18.4669  -23.5698   23.4370 C   0  0  0  0  0  0  0  0  0  0  0  0
  -19.4497  -25.4706   22.3154 C   0  0  0  0  0  0  0  0  0  0  0  0
  -24.9471  -28.8581   22.7853 C   0  0  0  0  0  0  0  0  0  0  0  0
  -30.1405  -22.3343   21.1786 C   0  0  0  0  0  0  0  0  0  0  0  0
  -26.9574  -29.7267   22.9827 C   0  0  0  0  0  0  0  0  0  0  0  0
  -29.9219  -20.0785   20.3623 C   0  0  0  0  0  0  0  0  0  0  0  0
  -25.2871  -30.6540   24.5948 C   0  0  0  0  0  0  0  0  0  0  0  0
  -22.7801  -14.1204   21.5867 C   0  0  0  0  0  0  0  0  0  0  0  0
  -22.5969  -17.1463   22.7413 C   0  0  0  0  0  0  0  0  0  0  0  0
  -23.6546  -20.5913   22.9154 C   0  0  0  0  0  0  0  0  0  0  0  0
  -29.9100  -25.4175   20.0563 C   0  0  0  0  0  0  0  0  0  0  0  0
  -20.3955   -9.6735   22.3586 C   0  0  0  0  0  0  0  0  0  0  0  0
  -24.9474  -14.3047   22.8614 C   0  0  0  0  0  0  0  0  0  0  0  0
  -24.4838  -16.6625   21.1378 C   0  0  0  0  0  0  0  0  0  0  0  0
  -20.0369  -11.1479   22.5251 C   0  0  0  0  0  0  0  0  0  0  0  0
  -29.2358  -28.7163   18.8987 C   0  0  0  0  0  0  0  0  0  0  0  0
  -20.3963  -11.9302   21.2660 C   0  0  0  0  0  0  0  0  0  0  0  0
  -28.1277  -29.2114   19.8299 C   0  0  0  0  0  0  0  0  0  0  0  0
  -29.0852  -27.2299   18.5827 C   0  0  0  0  0  0  0  0  0  0  0  0
  -27.8748  -26.8479   20.6953 C   0  0  0  0  0  0  0  0  0  0  0  0
  -21.9036  -11.8695   20.9901 C   0  0  1  0  0  0  0  0  0  0  0  0
  -23.5494  -14.8722   22.6358 C   0  0  1  0  0  0  0  0  0  0  0  0
  -28.0161  -28.3286   21.0875 C   0  0  2  0  0  0  0  0  0  0  0  0
  -30.8652  -23.7095   23.1648 C   0  0  0  0  0  0  0  0  0  0  0  0
  -22.8527  -22.4726   24.3697 C   0  0  0  0  0  0  0  0  0  0  0  0
  -20.7667  -17.7995   20.3890 C   0  0  0  0  0  0  0  0  0  0  0  0
  -21.1619  -20.2291   20.8462 C   0  0  0  0  0  0  0  0  0  0  0  0
  -20.0608  -18.8005   22.5694 C   0  0  0  0  0  0  0  0  0  0  0  0
  -30.5522  -16.6985   17.8632 C   0  0  0  0  0  0  0  0  0  0  0  0
  -30.5494  -15.8366   20.2144 C   0  0  0  0  0  0  0  0  0  0  0  0
  -26.3834  -21.1250   23.9291 C   0  0  0  0  0  0  0  0  0  0  0  0
  -29.1215  -17.8531   19.5671 C   0  0  0  0  0  0  0  0  0  0  0  0
  -30.6253  -23.6483   21.6430 C   0  0  2  0  0  0  0  0  0  0  0  0
  -22.5344  -18.5234   22.1260 C   0  0  1  0  0  0  0  0  0  0  0  0
  -23.9129  -21.4002   24.1738 C   0  0  2  0  0  0  0  0  0  0  0  0
  -21.1528  -18.8206   21.4777 C   0  0  0  0  0  0  0  0  0  0  0  0
  -29.7061  -16.5028   19.1241 C   0  0  0  0  0  0  0  0  0  1  0  0
  -28.7226  -20.5756   20.5693 N   0  0  0  0  0  0  0  0  0  0  0  0
  -25.6727  -28.2381   21.8509 N   0  0  0  0  0  0  0  0  0  0  0  0
  -26.8904  -28.7879   21.9957 N   0  0  0  0  0  0  0  0  0  0  0  0
  -23.5693  -16.2777   22.2256 N   0  0  0  0  0  0  0  0  0  0  0  0
  -28.9863  -26.4484   19.8179 N   0  0  0  0  0  0  0  0  0  0  0  0
  -28.1066  -30.3777   23.2622 N   0  0  0  0  0  0  0  0  0  0  0  0
  -23.9542  -30.5982   25.0243 N   0  0  0  0  0  0  0  0  0  0  0  0
  -30.1653  -18.7998   19.8904 N   0  0  0  0  0  0  0  0  0  0  0  0
  -22.6144  -12.7771   21.8650 N   0  0  0  0  0  0  0  0  0  0  0  0
  -22.9137  -19.4587   23.1794 N   0  0  0  0  0  0  0  0  0  0  0  0
  -29.7492  -24.7307   21.2535 N   0  0  0  0  0  0  0  0  0  0  0  0
  -25.2449  -22.0643   24.0983 N   0  3  0  0  0  0  0  0  0  0  0  0
  -26.0765  -31.4581   25.1459 O   0  0  0  0  0  0  0  0  0  0  0  0
  -22.3661  -14.7154   20.5986 O   0  0  0  0  0  0  0  0  0  0  0  0
  -21.8167  -16.8544   23.6511 O   0  0  0  0  0  0  0  0  0  0  0  0
  -24.0655  -20.9322   21.8084 O   0  0  0  0  0  0  0  0  0  0  0  0
  -30.8146  -25.1339   19.2637 O   0  0  0  0  0  0  0  0  0  0  0  0
  -19.5355  -27.6052   23.4267 O   0  0  0  0  0  0  0  0  0  0  0  0
  -28.6383  -15.6243   18.7714 O   0  0  0  0  0  0  0  0  0  1  0  0
  -18.1253  -22.2746   23.4416 F   0  0  0  0  0  0  0  0  0  0  0  0
  -20.0518  -25.9954   21.2393 F   0  0  0  0  0  0  0  0  0  0  0  0
  -31.2477  -21.1110   20.7104 S   0  0  0  0  0  0  0  0  0  0  0  0
  1  2  1  0  0  0  0
  1  5  2  0  0  0  0
  2  6  2  0  0  0  0
  3  8  2  0  0  0  0
  3 16  1  0  0  0  0
  4  9  1  0  0  0  0
  4 16  2  0  0  0  0
  5 18  1  0  0  0  0
  6 20  1  0  0  0  0
  7 10  2  0  0  0  0
  7 19  1  0  0  0  0
  8 22  1  0  0  0  0
  9 22  2  0  0  0  0
 10 23  1  0  0  0  0
 11 12  2  0  0  0  0
 11 24  1  0  0  0  0
 12 25  1  0  0  0  0
 13 21  1  0  0  0  0
 13 23  2  0  0  0  0
 14 25  2  0  0  0  0
 14 26  1  0  0  0  0
 15 28  2  0  0  0  0
 15 62  1  0  0  0  0
 16 27  1  0  0  0  0
 17 27  1  0  0  0  0
 17 29  2  0  0  0  0
 17 31  1  0  0  0  0
 18 20  2  0  0  0  0
 18 36  1  0  0  0  0
 19 21  2  0  0  0  0
 19 37  1  0  0  0  0
 20 45  1  0  0  0  0
 21 38  1  0  0  0  0
 22 79  1  0  0  0  0
 23 80  1  0  0  0  0
 24 26  2  0  0  0  0
 24 79  1  0  0  0  0
 25 81  1  0  0  0  0
 26 82  1  0  0  0  0
 27 63  2  0  0  0  0
 28 57  1  0  0  0  0
 28 83  1  0  0  0  0
 29 64  1  0  0  0  0
 29 67  1  0  0  0  0
 30 62  2  0  0  0  0
 30 69  1  0  0  0  0
 30 83  1  0  0  0  0
 31 68  1  0  0  0  0
 31 74  2  0  0  0  0
 32 46  1  0  0  0  0
 32 70  1  0  0  0  0
 32 75  2  0  0  0  0
 33 58  1  0  0  0  0
 33 65  1  0  0  0  0
 33 76  2  0  0  0  0
 34 59  1  0  0  0  0
 34 71  1  0  0  0  0
 34 77  2  0  0  0  0
 35 66  1  0  0  0  0
 35 72  1  0  0  0  0
 35 78  2  0  0  0  0
 36 39  1  0  0  0  0
 37 46  1  0  0  0  0
 38 65  1  0  0  0  0
 39 41  1  0  0  0  0
 40 42  1  0  0  0  0
 40 43  1  0  0  0  0
 41 45  1  0  0  0  0
 42 47  1  0  0  0  0
 43 66  1  0  0  0  0
 44 47  1  0  0  0  0
 44 66  1  0  0  0  0
 45 70  1  0  0  0  0
 46 65  1  0  0  0  0
 47 64  1  0  0  0  0
 48 57  1  0  0  0  0
 49 59  1  0  0  0  0
 50 60  1  0  0  0  0
 51 60  1  0  0  0  0
 52 60  1  0  0  0  0
 53 61  1  0  0  0  0
 54 61  1  0  0  0  0
 55 73  1  0  0  0  0
 56 61  1  0  0  0  0
 56 69  1  0  0  0  0
 57 72  1  0  0  0  0
 58 60  1  0  0  0  0
 58 71  1  0  0  0  0
 59 73  1  0  0  0  0
 61 80  1  0  0  0  0
 63 64  1  0  0  0  0
M  CHG  1  73   1
M  ISO  4  35 100  61 101  72 100  80 101
M  END
> <Batch ID>
0155

> <Smiles>
CNC(C)C(=O)NC(C(=O)N1Cc2cc([101O:1][101C:1](C)(C)CNc3ncc(C(C)[100NH:0][100C:0](=O)N4CCCC(n5nc(-c6ccc(Oc7ccc(F)cc7F)cc6)c(C(N)=O)c5N)C4)s3)ccc2CC1C(=O)NC1CCCc2ccccc21)C(C)(C)C

> <Shape>
0.243

> <Color>
0.077

> <Negative vol penalty>
0.000

$$$$

  -OEChem-04052303363D

 84 93  0     1  0  0  0  0  0999 V2000
  -32.8189  -31.4489   21.9573 C   0  0  0  0  0  0  0  0  0  0  0  0
  -31.7812  -30.8485   21.2532 C   0  0  0  0  0  0  0  0  0  0  0  0
  -22.5018  -13.0746   22.1544 C   0  0  0  0  0  0  0  0  0  0  0  0
  -23.8588  -11.3251   23.1212 C   0  0  0  0  0  0  0  0  0  0  0  0
  -32.6422  -31.7884   23.2969 C   0  0  0  0  0  0  0  0  0  0  0  0
  -30.5625  -30.5985   21.8851 C   0  0  0  0  0  0  0  0  0  0  0  0
  -26.8793  -28.9567   19.0670 C   0  0  0  0  0  0  0  0  0  0  0  0
  -21.6476  -13.0207   23.2558 C   0  0  0  0  0  0  0  0  0  0  0  0
  -23.0046  -11.2711   24.2226 C   0  0  0  0  0  0  0  0  0  0  0  0
  -26.8493  -27.6651   18.5429 C   0  0  0  0  0  0  0  0  0  0  0  0
  -19.1265  -11.0578   24.3582 C   0  0  0  0  0  0  0  0  0  0  0  0
  -17.7533  -11.0628   24.1132 C   0  0  0  0  0  0  0  0  0  0  0  0
  -30.5350  -19.7576   19.2200 C   0  0  0  0  0  0  0  0  0  0  0  0
  -30.8653  -18.3979   19.4326 C   0  0  0  0  0  0  0  0  0  0  0  0
  -25.2304  -27.0306   20.2150 C   0  0  0  0  0  0  0  0  0  0  0  0
  -17.5316  -13.0968   25.3980 C   0  0  0  0  0  0  0  0  0  0  0  0
  -23.6074  -12.2268   22.0871 C   0  0  0  0  0  0  0  0  0  0  0  0
  -24.1548  -12.0510   19.6018 C   0  0  0  0  0  0  0  0  0  0  0  0
  -31.4247  -31.5307   23.9482 C   0  0  0  0  0  0  0  0  0  0  0  0
  -26.0919  -29.2925   20.1777 C   0  0  0  0  0  0  0  0  0  0  0  0
  -30.3566  -30.9556   23.2299 C   0  0  0  0  0  0  0  0  0  0  0  0
  -25.2503  -28.3279   20.7498 C   0  0  0  0  0  0  0  0  0  0  0  0
  -21.8989  -12.1190   24.2899 C   0  0  0  0  0  0  0  0  0  0  0  0
  -26.0270  -26.7011   19.1187 C   0  0  0  0  0  0  0  0  0  0  0  0
  -19.7022  -12.0722   25.1231 C   0  0  0  0  0  0  0  0  0  0  0  0
  -16.9559  -12.0823   24.6330 C   0  0  0  0  0  0  0  0  0  0  0  0
  -18.9047  -13.0918   25.6430 C   0  0  0  0  0  0  0  0  0  0  0  0
  -24.4899  -12.2816   20.9495 C   0  0  0  0  0  0  0  0  0  0  0  0
  -25.3347  -12.2235   18.9202 C   0  0  0  0  0  0  0  0  0  0  0  0
  -29.1715  -19.8486   19.3767 C   0  0  0  0  0  0  0  0  0  0  0  0
  -29.6800  -17.7549   19.7043 C   0  0  0  0  0  0  0  0  0  0  0  0
  -22.8900  -11.7112   19.0181 C   0  0  0  0  0  0  0  0  0  0  0  0
  -26.6943  -30.2915   23.1346 C   0  0  0  0  0  0  0  0  0  0  0  0
  -23.4660  -30.5742   23.2793 C   0  0  0  0  0  0  0  0  0  0  0  0
  -20.4166  -29.6020   22.0949 C   0  0  0  0  0  0  0  0  0  0  0  0
  -30.2990  -15.3415   20.0772 C   0  0  0  0  0  0  0  0  0  0  0  0
  -31.2851  -31.9258   25.3972 C   0  0  0  0  0  0  0  0  0  0  0  0
  -26.1156  -30.6974   20.7146 C   0  0  0  0  0  0  0  0  0  0  0  0
  -24.3704  -28.6431   21.9308 C   0  0  0  0  0  0  0  0  0  0  0  0
  -30.1257  -31.2232   26.0961 C   0  0  0  0  0  0  0  0  0  0  0  0
  -30.0749  -11.8382   19.4824 C   0  0  0  0  0  0  0  0  0  0  0  0
  -28.8618  -31.3474   25.2584 C   0  0  0  0  0  0  0  0  0  0  0  0
  -28.5858  -11.5344   19.6625 C   0  0  0  0  0  0  0  0  0  0  0  0
  -26.1481  -21.9374   19.9773 C   0  0  0  0  0  0  0  0  0  0  0  0
  -27.9040  -23.3274   18.8424 C   0  0  0  0  0  0  0  0  0  0  0  0
  -30.5600  -12.9012   20.4666 C   0  0  0  0  0  0  0  0  0  0  0  0
  -26.8657  -20.6692   19.5168 C   0  0  0  0  0  0  0  0  0  0  0  0
  -28.6166  -22.0510   18.3941 C   0  0  0  0  0  0  0  0  0  0  0  0
  -28.2904  -13.8413   20.6516 C   0  0  0  0  0  0  0  0  0  0  0  0
  -29.0326  -30.6462   23.9049 C   0  0  1  0  0  0  0  0  0  0  0  0
  -25.6583  -30.7898   22.1671 C   0  0  1  0  0  0  0  0  0  0  0  0
  -27.7409  -12.8233   19.6389 C   0  0  2  0  0  0  0  0  0  0  0  0
  -26.4041  -23.1094   19.0315 C   0  0  0  0  0  0  0  0  0  0  0  0
  -17.9593  -29.9797   22.4357 C   0  0  0  0  0  0  0  0  0  0  0  0
  -23.5537  -28.8547   25.7984 C   0  0  0  0  0  0  0  0  0  0  0  0
  -21.0912  -28.4806   25.5447 C   0  0  0  0  0  0  0  0  0  0  0  0
  -21.9696  -30.7868   25.9087 C   0  0  0  0  0  0  0  0  0  0  0  0
  -20.0703  -30.6091   19.3336 C   0  0  0  0  0  0  0  0  0  0  0  0
  -25.7166  -24.3778   19.5210 C   0  0  0  0  0  0  0  0  0  1  0  0
  -22.3296  -29.6619   23.6733 C   0  0  1  0  0  0  0  0  0  0  0  0
  -19.2006  -30.4031   21.6659 C   0  0  2  0  0  0  0  0  0  0  0  0
  -22.2539  -29.4392   25.2102 C   0  0  0  0  0  0  0  0  0  0  0  0
  -25.7816  -12.5779   21.1162 N   0  0  0  0  0  0  0  0  0  0  0  0
  -26.2685  -12.5345   19.8644 N   0  0  0  0  0  0  0  0  0  0  0  0
  -28.2913  -20.9338   19.2857 N   0  0  0  0  0  0  0  0  0  0  0  0
  -24.4336  -30.0290   22.4235 N   0  0  0  0  0  0  0  0  0  0  0  0
  -29.7150  -14.0946   20.3852 N   0  0  0  0  0  0  0  0  0  0  0  0
  -25.6542  -12.1378   17.6114 N   0  0  0  0  0  0  0  0  0  0  0  0
  -22.5570  -10.3562   18.8873 N   0  0  0  0  0  0  0  0  0  0  0  0
  -29.3927  -16.3981   19.9950 N   0  0  0  0  0  0  0  0  0  0  0  0
  -27.9000  -30.9627   23.0629 N   0  0  0  0  0  0  0  0  0  0  0  0
  -21.1222  -30.2399   23.0931 N   0  0  0  0  0  0  0  0  0  0  0  0
  -18.9401  -30.2103   20.2113 N   0  3  0  0  0  0  0  0  0  0  0  0
  -22.0863  -12.5832   18.6093 O   0  0  0  0  0  0  0  0  0  0  0  0
  -26.4196  -29.3675   23.8912 O   0  0  0  0  0  0  0  0  0  0  0  0
  -23.4904  -31.7301   23.7092 O   0  0  0  0  0  0  0  0  0  0  0  0
  -20.7091  -28.5171   21.5970 O   0  0  0  0  0  0  0  0  0  0  0  0
  -31.5100  -15.4581   19.8726 O   0  0  0  0  0  0  0  0  0  0  0  0
  -28.6428  -18.6321   19.6722 O   0  0  0  0  0  0  0  0  0  0  0  0
  -21.0657  -12.0662   25.3648 O   0  0  0  0  0  0  0  0  0  0  0  0
  -25.9963  -25.4395   18.6095 O   0  0  0  0  0  0  0  0  0  1  0  0
  -15.6375  -12.0879   24.3964 F   0  0  0  0  0  0  0  0  0  0  0  0
  -19.4523  -14.0697   26.3776 F   0  0  0  0  0  0  0  0  0  0  0  0
  -25.8651  -22.7978   17.8156 F   0  0  0  0  0  0  0  0  0  0  0  0
  1  2  1  0  0  0  0
  1  5  2  0  0  0  0
  2  6  2  0  0  0  0
  3  8  2  0  0  0  0
  3 17  1  0  0  0  0
  4  9  1  0  0  0  0
  4 17  2  0  0  0  0
  5 19  1  0  0  0  0
  6 21  1  0  0  0  0
  7 10  2  0  0  0  0
  7 20  1  0  0  0  0
  8 23  1  0  0  0  0
  9 23  2  0  0  0  0
 10 24  1  0  0  0  0
 11 12  2  0  0  0  0
 11 25  1  0  0  0  0
 12 26  1  0  0  0  0
 13 14  1  0  0  0  0
 13 30  2  0  0  0  0
 14 31  2  0  0  0  0
 15 22  1  0  0  0  0
 15 24  2  0  0  0  0
 16 26  2  0  0  0  0
 16 27  1  0  0  0  0
 17 28  1  0  0  0  0
 18 28  1  0  0  0  0
 18 29  2  0  0  0  0
 18 32  1  0  0  0  0
 19 21  2  0  0  0  0
 19 37  1  0  0  0  0
 20 22  2  0  0  0  0
 20 38  1  0  0  0  0
 21 50  1  0  0  0  0
 22 39  1  0  0  0  0
 23 80  1  0  0  0  0
 24 81  1  0  0  0  0
 25 27  2  0  0  0  0
 25 80  1  0  0  0  0
 26 82  1  0  0  0  0
 27 83  1  0  0  0  0
 28 63  2  0  0  0  0
 29 64  1  0  0  0  0
 29 68  1  0  0  0  0
 30 65  1  0  0  0  0
 30 79  1  0  0  0  0
 31 70  1  0  0  0  0
 31 79  1  0  0  0  0
 32 69  1  0  0  0  0
 32 74  2  0  0  0  0
 33 51  1  0  0  0  0
 33 71  1  0  0  0  0
 33 75  2  0  0  0  0
 34 60  1  0  0  0  0
 34 66  1  0  0  0  0
 34 76  2  0  0  0  0
 35 61  1  0  0  0  0
 35 72  1  0  0  0  0
 35 77  2  0  0  0  0
 36 67  1  0  0  0  0
 36 70  1  0  0  0  0
 36 78  2  0  0  0  0
 37 40  1  0  0  0  0
 38 51  1  0  0  0  0
 39 66  1  0  0  0  0
 40 42  1  0  0  0  0
 41 43  1  0  0  0  0
 41 46  1  0  0  0  0
 42 50  1  0  0  0  0
 43 52  1  0  0  0  0
 44 47  1  0  0  0  0
 44 53  1  0  0  0  0
 45 48  1  0  0  0  0
 45 53  1  0  0  0  0
 46 67  1  0  0  0  0
 47 65  1  0  0  0  0
 48 65  1  0  0  0  0
 49 52  1  0  0  0  0
 49 67  1  0  0  0  0
 50 71  1  0  0  0  0
 51 66  1  0  0  0  0
 52 64  1  0  0  0  0
 53 59  1  0  0  0  0
 53 84  1  0  0  0  0
 54 61  1  0  0  0  0
 55 62  1  0  0  0  0
 56 62  1  0  0  0  0
 57 62  1  0  0  0  0
 58 73  1  0  0  0  0
 59 81  1  0  0  0  0
 60 62  1  0  0  0  0
 60 72  1  0  0  0  0
 61 73  1  0  0  0  0
 63 64  1  0  0  0  0
M  CHG  1  73   1
M  ISO  4  36 100  59 101  70 100  81 101
M  END
> <Batch ID>
0155

> <Smiles>
CNC(C)C(=O)NC(C(=O)N1Cc2cc([101O:1][101CH2:1]C3(F)CCN(c4ccc([100NH:0][100C:0](=O)N5CCCC(n6nc(-c7ccc(Oc8ccc(F)cc8F)cc7)c(C(N)=O)c6N)C5)o4)CC3)ccc2CC1C(=O)NC1CCCc2ccccc21)C(C)(C)C

> <Shape>
0.232

> <Color>
0.091

> <Negative vol penalty>
0.000

$$$$

  -OEChem-04052303363D

 87 96  0     1  0  0  0  0  0999 V2000
  -30.2667  -37.6078   16.7429 C   0  0  0  0  0  0  0  0  0  0  0  0
  -30.4199  -36.2252   16.7271 C   0  0  0  0  0  0  0  0  0  0  0  0
  -23.5323   -8.6431   19.1670 C   0  0  0  0  0  0  0  0  0  0  0  0
  -24.8290   -8.4036   21.1914 C   0  0  0  0  0  0  0  0  0  0  0  0
  -28.0111  -19.4177   17.9528 C   0  0  0  0  0  0  0  0  0  0  0  0
  -29.8014  -38.2434   17.8933 C   0  0  0  0  0  0  0  0  0  0  0  0
  -30.1088  -35.4774   17.8622 C   0  0  0  0  0  0  0  0  0  0  0  0
  -27.7103  -29.8445   18.0166 C   0  0  0  0  0  0  0  0  0  0  0  0
  -28.1175  -18.0635   18.2700 C   0  0  0  0  0  0  0  0  0  0  0  0
  -22.3920   -8.2151   19.8468 C   0  0  0  0  0  0  0  0  0  0  0  0
  -23.6887   -7.9756   21.8712 C   0  0  0  0  0  0  0  0  0  0  0  0
  -28.2837  -28.5853   18.1881 C   0  0  0  0  0  0  0  0  0  0  0  0
  -21.8801   -5.1336   22.1598 C   0  0  0  0  0  0  0  0  0  0  0  0
  -22.0011   -4.0204   22.9915 C   0  0  0  0  0  0  0  0  0  0  0  0
  -30.3089  -19.7542   18.6190 C   0  0  0  0  0  0  0  0  0  0  0  0
  -27.7620  -28.6750   20.5416 C   0  0  0  0  0  0  0  0  0  0  0  0
  -21.3176   -5.3593   24.8829 C   0  0  0  0  0  0  0  0  0  0  0  0
  -24.7508   -8.7373   19.8393 C   0  0  0  0  0  0  0  0  0  0  0  0
  -29.1069  -20.2630   18.1273 C   0  0  0  0  0  0  0  0  0  0  0  0
  -26.5262   -8.5750   18.0147 C   0  0  0  0  0  0  0  0  0  0  0  0
  -29.4753  -37.5021   19.0399 C   0  0  0  0  0  0  0  0  0  0  0  0
  -27.1674  -30.5343   19.1101 C   0  0  0  0  0  0  0  0  0  0  0  0
  -29.6400  -36.1038   19.0295 C   0  0  0  0  0  0  0  0  0  0  0  0
  -27.1800  -29.9417   20.3808 C   0  0  0  0  0  0  0  0  0  0  0  0
  -29.3196  -17.5547   18.7617 C   0  0  0  0  0  0  0  0  0  0  0  0
  -22.4702   -7.8813   21.1989 C   0  0  0  0  0  0  0  0  0  0  0  0
  -28.3121  -28.0016   19.4512 C   0  0  0  0  0  0  0  0  0  0  0  0
  -21.4780   -6.3597   22.6897 C   0  0  0  0  0  0  0  0  0  0  0  0
  -21.7198   -4.1332   24.3530 C   0  0  0  0  0  0  0  0  0  0  0  0
  -30.4153  -18.4001   18.9362 C   0  0  0  0  0  0  0  0  0  0  0  0
  -21.1967   -6.4725   24.0513 C   0  0  0  0  0  0  0  0  0  0  0  0
  -25.9292   -9.1789   19.1375 C   0  0  0  0  0  0  0  0  0  0  0  0
  -27.6090   -9.3713   17.7317 C   0  0  0  0  0  0  0  0  0  0  0  0
  -28.9954  -21.6940   17.7923 C   0  0  0  0  0  0  0  0  0  0  0  0
  -26.1368   -7.3995   17.2921 C   0  0  0  0  0  0  0  0  0  0  0  0
  -27.8002  -33.2899   20.5625 C   0  0  0  0  0  0  0  0  0  0  0  0
  -25.1201  -32.5718   22.2430 C   0  0  0  0  0  0  0  0  0  0  0  0
  -22.9633  -30.1811   23.3740 C   0  0  0  0  0  0  0  0  0  0  0  0
  -28.4358  -15.1968   18.9708 C   0  0  0  0  0  0  0  0  0  0  0  0
  -29.0209  -38.2382   20.2753 C   0  0  0  0  0  0  0  0  0  0  0  0
  -26.5286  -31.8803   18.9036 C   0  0  0  0  0  0  0  0  0  0  0  0
  -26.5923  -30.6319   21.5836 C   0  0  0  0  0  0  0  0  0  0  0  0
  -28.3576  -37.3357   21.3126 C   0  0  0  0  0  0  0  0  0  0  0  0
  -30.2980  -12.2385   20.5535 C   0  0  0  0  0  0  0  0  0  0  0  0
  -29.1839  -36.0716   21.5268 C   0  0  0  0  0  0  0  0  0  0  0  0
  -29.8085  -11.1146   19.6433 C   0  0  0  0  0  0  0  0  0  0  0  0
  -27.7112  -23.4218   20.7121 C   0  0  0  0  0  0  0  0  0  0  0  0
  -30.2046  -13.6046   19.8857 C   0  0  0  0  0  0  0  0  0  0  0  0
  -28.2622  -22.1394   20.0959 C   0  0  0  0  0  0  0  0  0  0  0  0
  -27.9075  -12.7918   19.3214 C   0  0  0  0  0  0  0  0  0  0  0  0
  -29.2895  -35.2556   20.2328 C   0  0  1  0  0  0  0  0  0  0  0  0
  -26.4662  -32.7141   20.1797 C   0  0  1  0  0  0  0  0  0  0  0  0
  -28.5801  -11.5119   18.8009 C   0  0  2  0  0  0  0  0  0  0  0  0
  -28.4687  -24.5211   19.9646 C   0  0  1  0  0  0  0  0  0  0  0  0
  -28.5050  -24.0130   18.5107 C   0  0  2  0  0  0  0  0  0  0  0  0
  -27.2591  -24.3052   17.6808 C   0  0  0  0  0  0  0  0  0  0  0  0
  -20.8879  -29.8950   24.7556 C   0  0  0  0  0  0  0  0  0  0  0  0
  -26.7631  -32.9532   24.7857 C   0  0  0  0  0  0  0  0  0  0  0  0
  -24.9611  -31.7564   26.0462 C   0  0  0  0  0  0  0  0  0  0  0  0
  -24.4522  -33.9044   24.8843 C   0  0  0  0  0  0  0  0  0  0  0  0
  -21.4561  -29.0588   21.0876 C   0  0  0  0  0  0  0  0  0  0  0  0
  -24.8268  -31.8127   23.5144 C   0  0  1  0  0  0  0  0  0  0  0  0
  -21.4473  -30.1026   23.3567 C   0  0  2  0  0  0  0  0  0  0  0  0
  -25.2637  -32.5942   24.7855 C   0  0  0  0  0  0  0  0  0  0  0  0
  -26.5789  -10.2742   19.5404 N   0  0  0  0  0  0  0  0  0  0  0  0
  -27.5954  -10.3648   18.6660 N   0  0  0  0  0  0  0  0  0  0  0  0
  -28.6016  -22.5492   18.7199 N   0  0  0  0  0  0  0  0  0  0  0  0
  -25.9848  -31.9491   21.3317 N   0  0  0  0  0  0  0  0  0  0  0  0
  -28.8593  -13.9073   19.3759 N   0  0  0  0  0  0  0  0  0  0  0  0
  -28.5619   -9.3115   16.7773 N   0  0  0  0  0  0  0  0  0  0  0  0
  -26.6562   -6.1627   17.6985 N   0  0  0  0  0  0  0  0  0  0  0  0
  -29.4243  -16.1782   19.0828 N   0  0  0  0  0  0  0  0  0  0  0  0
  -28.0644  -34.5224   19.9962 N   0  0  0  0  0  0  0  0  0  0  0  0
  -23.4062  -31.4830   23.4745 N   0  0  0  0  0  0  0  0  0  0  0  0
  -27.8780  -25.8350   20.1432 N   0  0  0  0  0  0  0  0  0  1  0  0
  -29.2944  -22.1023   16.5626 N   0  3  0  0  0  0  0  0  0  0  0  0
  -20.9970  -28.9711   22.4977 N   0  3  0  0  0  0  0  0  0  0  0  0
  -25.3645   -7.4465   16.3047 O   0  0  0  0  0  0  0  0  0  0  0  0
  -28.5347  -32.6632   21.3172 O   0  0  0  0  0  0  0  0  0  0  0  0
  -24.5955  -33.6734   22.0617 O   0  0  0  0  0  0  0  0  0  0  0  0
  -23.6825  -29.1866   23.3089 O   0  0  0  0  0  0  0  0  0  0  0  0
  -27.2955  -15.4015   18.5493 O   0  0  0  0  0  0  0  0  0  0  0  0
  -21.3576   -7.4638   21.8626 O   0  0  0  0  0  0  0  0  0  0  0  0
  -28.8717  -26.7729   19.6215 O   0  0  0  0  0  0  0  0  0  1  0  0
  -21.8345   -3.0637   25.1513 F   0  0  0  0  0  0  0  0  0  0  0  0
  -31.5751  -17.9222   19.4093 F   0  0  0  0  0  0  0  0  0  0  0  0
  -20.8088   -7.6475   24.5659 F   0  0  0  0  0  0  0  0  0  0  0  0
  1  2  1  0  0  0  0
  1  6  2  0  0  0  0
  2  7  2  0  0  0  0
  3 10  2  0  0  0  0
  3 18  1  0  0  0  0
  4 11  1  0  0  0  0
  4 18  2  0  0  0  0
  5  9  2  0  0  0  0
  5 19  1  0  0  0  0
  6 21  1  0  0  0  0
  7 23  1  0  0  0  0
  8 12  2  0  0  0  0
  8 22  1  0  0  0  0
  9 25  1  0  0  0  0
 10 26  1  0  0  0  0
 11 26  2  0  0  0  0
 12 27  1  0  0  0  0
 13 14  2  0  0  0  0
 13 28  1  0  0  0  0
 14 29  1  0  0  0  0
 15 19  2  0  0  0  0
 15 30  1  0  0  0  0
 16 24  1  0  0  0  0
 16 27  2  0  0  0  0
 17 29  2  0  0  0  0
 17 31  1  0  0  0  0
 18 32  1  0  0  0  0
 19 34  1  0  0  0  0
 20 32  1  0  0  0  0
 20 33  2  0  0  0  0
 20 35  1  0  0  0  0
 21 23  2  0  0  0  0
 21 40  1  0  0  0  0
 22 24  2  0  0  0  0
 22 41  1  0  0  0  0
 23 51  1  0  0  0  0
 24 42  1  0  0  0  0
 25 30  2  0  0  0  0
 25 72  1  0  0  0  0
 26 83  1  0  0  0  0
 27 84  1  0  0  0  0
 28 31  2  0  0  0  0
 28 83  1  0  0  0  0
 29 85  1  0  0  0  0
 30 86  1  0  0  0  0
 31 87  1  0  0  0  0
 32 65  2  0  0  0  0
 33 66  1  0  0  0  0
 33 70  1  0  0  0  0
 34 67  1  0  0  0  0
 34 76  2  0  0  0  0
 35 71  1  0  0  0  0
 35 78  2  0  0  0  0
 36 52  1  0  0  0  0
 36 73  1  0  0  0  0
 36 79  2  0  0  0  0
 37 62  1  0  0  0  0
 37 68  1  0  0  0  0
 37 80  2  0  0  0  0
 38 63  1  0  0  0  0
 38 74  1  0  0  0  0
 38 81  2  0  0  0  0
 39 69  1  0  0  0  0
 39 72  1  0  0  0  0
 39 82  2  0  0  0  0
 40 43  1  0  0  0  0
 41 52  1  0  0  0  0
 42 68  1  0  0  0  0
 43 45  1  0  0  0  0
 44 46  1  0  0  0  0
 44 48  1  0  0  0  0
 45 51  1  0  0  0  0
 46 53  1  0  0  0  0
 47 49  1  0  0  0  0
 47 54  1  0  0  0  0
 48 69  1  0  0  0  0
 49 67  1  0  0  0  0
 50 53  1  0  0  0  0
 50 69  1  0  0  0  0
 51 73  1  0  0  0  0
 52 68  1  0  0  0  0
 53 66  1  0  0  0  0
 54 55  1  0  0  0  0
 54 75  1  0  0  0  0
 55 56  1  0  0  0  0
 55 67  1  0  0  0  0
 57 63  1  0  0  0  0
 58 64  1  0  0  0  0
 59 64  1  0  0  0  0
 60 64  1  0  0  0  0
 61 77  1  0  0  0  0
 62 64  1  0  0  0  0
 62 74  1  0  0  0  0
 63 77  1  0  0  0  0
 65 66  1  0  0  0  0
 75 84  1  0  0  0  0
M  CHG  2  76   1  77   1
M  ISO  4  39 100  72 100  75 101  84 101
M  END
> <Batch ID>
0155

> <Smiles>
CNC(C)C(=O)NC(C(=O)N1Cc2cc([101O:1][101NH:1]C3CCN(C(=N)c4ccc([100NH:0][100C:0](=O)N5CCCC(n6nc(-c7ccc(Oc8ccc(F)cc8F)cc7)c(C(N)=O)c6N)C5)c(F)c4)C3C)ccc2CC1C(=O)NC1CCCc2ccccc21)C(C)(C)C

> <Shape>
0.261

> <Color>
0.083

> <Negative vol penalty>
0.000

$$$$

  -OEChem-04052303363D

 82 90  0     1  0  0  0  0  0999 V2000
  -18.0977  -24.2689   23.3698 C   0  0  0  0  0  0  0  0  0  0  0  0
  -19.4639  -24.0635   23.2060 C   0  0  0  0  0  0  0  0  0  0  0  0
  -22.6179  -11.4793   19.1053 C   0  0  0  0  0  0  0  0  0  0  0  0
  -23.1547   -9.8203   20.7776 C   0  0  0  0  0  0  0  0  0  0  0  0
  -17.5470  -25.5240   23.1143 C   0  0  0  0  0  0  0  0  0  0  0  0
  -20.2800  -25.1131   22.7855 C   0  0  0  0  0  0  0  0  0  0  0  0
  -24.5686  -25.4307   25.4599 C   0  0  0  0  0  0  0  0  0  0  0  0
  -21.6006  -10.6589   18.6179 C   0  0  0  0  0  0  0  0  0  0  0  0
  -22.1373   -8.9999   20.2903 C   0  0  0  0  0  0  0  0  0  0  0  0
  -25.5825  -24.5264   25.1470 C   0  0  0  0  0  0  0  0  0  0  0  0
  -19.4458   -6.6239   19.7168 C   0  0  0  0  0  0  0  0  0  0  0  0
  -18.6021   -6.0146   20.6455 C   0  0  0  0  0  0  0  0  0  0  0  0
  -29.3755  -19.9857   21.2697 C   0  0  0  0  0  0  0  0  0  0  0  0
  -26.6968  -26.2320   23.8553 C   0  0  0  0  0  0  0  0  0  0  0  0
  -17.9265   -8.1876   21.4573 C   0  0  0  0  0  0  0  0  0  0  0  0
  -27.2090  -19.4612   21.3580 C   0  0  0  0  0  0  0  0  0  0  0  0
  -23.3950  -11.0600   20.1851 C   0  0  0  0  0  0  0  0  0  0  0  0
  -28.0926  -20.4891   21.5920 C   0  0  0  0  0  0  0  0  0  0  0  0
  -24.3410  -12.8862   21.6944 C   0  0  0  0  0  0  0  0  0  0  0  0
  -18.3583  -26.5920   22.6998 C   0  0  0  0  0  0  0  0  0  0  0  0
  -24.6056  -26.7415   24.9631 C   0  0  0  0  0  0  0  0  0  0  0  0
  -19.7395  -26.3833   22.5229 C   0  0  0  0  0  0  0  0  0  0  0  0
  -25.6834  -27.1517   24.1655 C   0  0  0  0  0  0  0  0  0  0  0  0
  -21.3602   -9.4192   19.2104 C   0  0  0  0  0  0  0  0  0  0  0  0
  -26.6454  -24.9261   24.3423 C   0  0  0  0  0  0  0  0  0  0  0  0
  -19.5299   -8.0151   19.6584 C   0  0  0  0  0  0  0  0  0  0  0  0
  -17.8424   -6.7964   21.5157 C   0  0  0  0  0  0  0  0  0  0  0  0
  -18.7703   -8.7969   20.5286 C   0  0  0  0  0  0  0  0  0  0  0  0
  -24.4465  -11.9068   20.6887 C   0  0  0  0  0  0  0  0  0  0  0  0
  -29.1845  -18.6860   20.8620 C   0  0  0  0  0  0  0  0  0  0  0  0
  -25.6083  -13.4045   21.8031 C   0  0  0  0  0  0  0  0  0  0  0  0
  -27.7213  -21.8475   22.0877 C   0  0  0  0  0  0  0  0  0  0  0  0
  -23.1996  -13.2911   22.4618 C   0  0  0  0  0  0  0  0  0  0  0  0
  -30.1422  -17.6484   20.4003 C   0  0  0  0  0  0  0  0  0  0  0  0
  -22.7411  -28.4711   23.0563 C   0  0  0  0  0  0  0  0  0  0  0  0
  -24.7815  -30.8570   23.8726 C   0  0  0  0  0  0  0  0  0  0  0  0
  -27.8776  -31.7688   24.9815 C   0  0  0  0  0  0  0  0  0  0  0  0
  -30.2977  -15.3250   19.5627 C   0  0  0  0  0  0  0  0  0  0  0  0
  -17.7104  -27.9182   22.3901 C   0  0  0  0  0  0  0  0  0  0  0  0
  -23.5178  -27.7126   25.3317 C   0  0  0  0  0  0  0  0  0  0  0  0
  -25.7804  -28.5537   23.6236 C   0  0  0  0  0  0  0  0  0  0  0  0
  -18.7017  -29.0763   22.3089 C   0  0  0  0  0  0  0  0  0  0  0  0
  -30.0004  -11.8138   19.8453 C   0  0  0  0  0  0  0  0  0  0  0  0
  -19.9114  -28.6853   21.4660 C   0  0  0  0  0  0  0  0  0  0  0  0
  -28.5215  -11.6025   20.1808 C   0  0  0  0  0  0  0  0  0  0  0  0
  -30.1985  -12.9536   18.8470 C   0  0  0  0  0  0  0  0  0  0  0  0
  -28.0906  -14.0113   19.5514 C   0  0  0  0  0  0  0  0  0  0  0  0
  -20.6614  -27.5034   22.0922 C   0  0  1  0  0  0  0  0  0  0  0  0
  -23.3940  -28.8726   24.3486 C   0  0  1  0  0  0  0  0  0  0  0  0
  -27.8440  -12.9206   20.6063 C   0  0  1  0  0  0  0  0  0  0  0  0
  -29.2624  -33.7929   25.5133 C   0  0  0  0  0  0  0  0  0  0  0  0
  -25.1922  -31.3565   20.8907 C   0  0  0  0  0  0  0  0  0  0  0  0
  -27.2350  -32.6849   21.4656 C   0  0  0  0  0  0  0  0  0  0  0  0
  -24.9966  -33.4280   22.2782 C   0  0  0  0  0  0  0  0  0  0  0  0
  -28.1837  -30.9591   27.8117 C   0  0  0  0  0  0  0  0  0  0  0  0
  -28.8251  -22.8764   22.2956 C   0  0  0  0  0  0  0  0  0  0  0  0
  -28.2940  -24.2196   22.7806 C   0  0  0  0  0  0  0  0  0  1  0  0
  -26.0786  -31.3919   23.3154 C   0  0  1  0  0  0  0  0  0  0  0  0
  -28.3144  -32.7391   26.0642 C   0  0  2  0  0  0  0  0  0  0  0  0
  -25.8731  -32.1883   21.9960 C   0  0  0  0  0  0  0  0  0  0  0  0
  -25.6830  -11.8071   20.1936 N   0  0  0  0  0  0  0  0  0  0  0  0
  -26.3661  -12.7306   20.8911 N   0  0  0  0  0  0  0  0  0  0  0  0
  -24.6891  -29.4645   24.0069 N   0  0  0  0  0  0  0  0  0  0  0  0
  -29.5357  -14.1673   19.3278 N   0  0  0  0  0  0  0  0  0  0  0  0
  -26.1371  -14.3665   22.5887 N   0  0  0  0  0  0  0  0  0  0  0  0
  -21.9739  -12.6547   22.2228 N   0  0  0  0  0  0  0  0  0  0  0  0
  -29.5795  -16.4177   20.0611 N   0  0  0  0  0  0  0  0  0  0  0  0
  -21.4697  -27.9509   23.2062 N   0  0  0  0  0  0  0  0  0  0  0  0
  -26.6968  -32.1629   24.3886 N   0  0  0  0  0  0  0  0  0  0  0  0
  -29.0090  -32.0105   27.1632 N   0  3  0  0  0  0  0  0  0  0  0  0
  -26.5402  -22.1001   22.3145 O   0  0  0  0  0  0  0  0  0  0  0  0
  -23.2610  -14.2019   23.3221 O   0  0  0  0  0  0  0  0  0  0  0  0
  -31.3331  -17.9329   20.3069 O   0  0  0  0  0  0  0  0  0  0  0  0
  -23.3454  -28.6234   22.0012 O   0  0  0  0  0  0  0  0  0  0  0  0
  -23.8861  -31.6462   24.1842 O   0  0  0  0  0  0  0  0  0  0  0  0
  -28.5216  -30.7639   24.6883 O   0  0  0  0  0  0  0  0  0  0  0  0
  -31.5185  -15.3708   19.3811 O   0  0  0  0  0  0  0  0  0  0  0  0
  -27.8667  -18.3585   20.9130 O   0  0  0  0  0  0  0  0  0  0  0  0
  -20.3674   -8.6185   18.7353 O   0  0  0  0  0  0  0  0  0  0  0  0
  -27.6361  -24.0453   24.0348 O   0  0  0  0  0  0  0  0  0  1  0  0
  -17.0311   -6.2112   22.4065 F   0  0  0  0  0  0  0  0  0  0  0  0
  -18.8460  -10.1338   20.4764 F   0  0  0  0  0  0  0  0  0  0  0  0
  1  2  1  0  0  0  0
  1  5  2  0  0  0  0
  2  6  2  0  0  0  0
  3  8  2  0  0  0  0
  3 17  1  0  0  0  0
  4  9  1  0  0  0  0
  4 17  2  0  0  0  0
  5 20  1  0  0  0  0
  6 22  1  0  0  0  0
  7 10  2  0  0  0  0
  7 21  1  0  0  0  0
  8 24  1  0  0  0  0
  9 24  2  0  0  0  0
 10 25  1  0  0  0  0
 11 12  2  0  0  0  0
 11 26  1  0  0  0  0
 12 27  1  0  0  0  0
 13 18  1  0  0  0  0
 13 30  2  0  0  0  0
 14 23  1  0  0  0  0
 14 25  2  0  0  0  0
 15 27  2  0  0  0  0
 15 28  1  0  0  0  0
 16 18  2  0  0  0  0
 16 78  1  0  0  0  0
 17 29  1  0  0  0  0
 18 32  1  0  0  0  0
 19 29  1  0  0  0  0
 19 31  2  0  0  0  0
 19 33  1  0  0  0  0
 20 22  2  0  0  0  0
 20 39  1  0  0  0  0
 21 23  2  0  0  0  0
 21 40  1  0  0  0  0
 22 48  1  0  0  0  0
 23 41  1  0  0  0  0
 24 79  1  0  0  0  0
 25 80  1  0  0  0  0
 26 28  2  0  0  0  0
 26 79  1  0  0  0  0
 27 81  1  0  0  0  0
 28 82  1  0  0  0  0
 29 61  2  0  0  0  0
 30 34  1  0  0  0  0
 30 78  1  0  0  0  0
 31 62  1  0  0  0  0
 31 65  1  0  0  0  0
 32 56  1  0  0  0  0
 32 71  2  0  0  0  0
 33 66  1  0  0  0  0
 33 72  2  0  0  0  0
 34 67  1  0  0  0  0
 34 73  2  0  0  0  0
 35 49  1  0  0  0  0
 35 68  1  0  0  0  0
 35 74  2  0  0  0  0
 36 58  1  0  0  0  0
 36 63  1  0  0  0  0
 36 75  2  0  0  0  0
 37 59  1  0  0  0  0
 37 69  1  0  0  0  0
 37 76  2  0  0  0  0
 38 64  1  0  0  0  0
 38 67  1  0  0  0  0
 38 77  2  0  0  0  0
 39 42  1  0  0  0  0
 40 49  1  0  0  0  0
 41 63  1  0  0  0  0
 42 44  1  0  0  0  0
 43 45  1  0  0  0  0
 43 46  1  0  0  0  0
 44 48  1  0  0  0  0
 45 50  1  0  0  0  0
 46 64  1  0  0  0  0
 47 50  1  0  0  0  0
 47 64  1  0  0  0  0
 48 68  1  0  0  0  0
 49 63  1  0  0  0  0
 50 62  1  0  0  0  0
 51 59  1  0  0  0  0
 52 60  1  0  0  0  0
 53 60  1  0  0  0  0
 54 60  1  0  0  0  0
 55 70  1  0  0  0  0
 56 57  1  0  0  0  0
 57 80  1  0  0  0  0
 58 60  1  0  0  0  0
 58 69  1  0  0  0  0
 59 70  1  0  0  0  0
 61 62  1  0  0  0  0
M  CHG  1  70   1
M  ISO  4  38 100  57 101  67 100  80 101
M  END
> <Batch ID>
0155

> <Smiles>
CNC(C)C(=O)NC(C(=O)N1Cc2cc([101O:1][101CH2:1]CC(=O)c3coc(C(=O)[100NH:0][100C:0](=O)N4CCCC(n5nc(-c6ccc(Oc7ccc(F)cc7F)cc6)c(C(N)=O)c5N)C4)c3)ccc2CC1C(=O)NC1CCCc2ccccc21)C(C)(C)C

> <Shape>
0.266

> <Color>
0.117

> <Negative vol penalty>
0.000

$$$$

  -OEChem-04052303363D

 83 92  0     1  0  0  0  0  0999 V2000
  -17.4294  -31.4404   25.0527 C   0  0  0  0  0  0  0  0  0  0  0  0
  -18.6699  -31.9985   24.7653 C   0  0  0  0  0  0  0  0  0  0  0  0
  -22.7067  -10.2152   20.4353 C   0  0  0  0  0  0  0  0  0  0  0  0
  -24.5219   -9.2178   21.6792 C   0  0  0  0  0  0  0  0  0  0  0  0
  -17.2071  -30.0856   24.8158 C   0  0  0  0  0  0  0  0  0  0  0  0
  -19.6848  -31.2046   24.2299 C   0  0  0  0  0  0  0  0  0  0  0  0
  -26.8916  -29.4001   21.3965 C   0  0  0  0  0  0  0  0  0  0  0  0
  -21.7902   -9.4603   21.1672 C   0  0  0  0  0  0  0  0  0  0  0  0
  -23.6054   -8.4629   22.4112 C   0  0  0  0  0  0  0  0  0  0  0  0
  -27.7547  -28.3336   21.1487 C   0  0  0  0  0  0  0  0  0  0  0  0
  -21.7716   -5.6571   21.9690 C   0  0  0  0  0  0  0  0  0  0  0  0
  -22.0553   -4.3056   22.1652 C   0  0  0  0  0  0  0  0  0  0  0  0
  -26.0505  -27.2734   19.8104 C   0  0  0  0  0  0  0  0  0  0  0  0
  -27.1550  -19.4840   21.2024 C   0  0  0  0  0  0  0  0  0  0  0  0
  -22.0517   -4.6521   24.5563 C   0  0  0  0  0  0  0  0  0  0  0  0
  -25.0553  -18.6591   20.6432 C   0  0  0  0  0  0  0  0  0  0  0  0
  -24.0725  -10.0939   20.6912 C   0  0  0  0  0  0  0  0  0  0  0  0
  -25.2174  -10.8523   18.5413 C   0  0  0  0  0  0  0  0  0  0  0  0
  -18.2243  -29.2727   24.2888 C   0  0  0  0  0  0  0  0  0  0  0  0
  -25.5956  -29.4062   20.8611 C   0  0  0  0  0  0  0  0  0  0  0  0
  -19.4724  -29.8403   23.9613 C   0  0  0  0  0  0  0  0  0  0  0  0
  -25.1739  -28.3424   20.0508 C   0  0  0  0  0  0  0  0  0  0  0  0
  -26.3544  -18.3302   20.9621 C   0  0  0  0  0  0  0  0  0  0  0  0
  -22.2396   -8.5842   22.1552 C   0  0  0  0  0  0  0  0  0  0  0  0
  -27.3332  -27.2686   20.3579 C   0  0  0  0  0  0  0  0  0  0  0  0
  -21.6280   -6.5061   23.0663 C   0  0  0  0  0  0  0  0  0  0  0  0
  -22.1953   -3.8031   23.4589 C   0  0  0  0  0  0  0  0  0  0  0  0
  -21.7680   -6.0036   24.3600 C   0  0  0  0  0  0  0  0  0  0  0  0
  -25.0197  -10.8731   19.9350 C   0  0  0  0  0  0  0  0  0  0  0  0
  -26.4373  -20.6511   21.0578 C   0  0  0  0  0  0  0  0  0  0  0  0
  -26.2208  -11.7644   18.3232 C   0  0  0  0  0  0  0  0  0  0  0  0
  -24.5532  -10.0778   17.5340 C   0  0  0  0  0  0  0  0  0  0  0  0
  -22.6626  -29.4279   22.0863 C   0  0  0  0  0  0  0  0  0  0  0  0
  -21.7886  -29.7647   18.9807 C   0  0  0  0  0  0  0  0  0  0  0  0
  -22.7793  -28.3774   15.8009 C   0  0  0  0  0  0  0  0  0  0  0  0
  -28.1059  -16.5609   21.3472 C   0  0  0  0  0  0  0  0  0  0  0  0
  -17.9269  -27.8142   24.0448 C   0  0  0  0  0  0  0  0  0  0  0  0
  -24.6860  -30.5768   21.1158 C   0  0  0  0  0  0  0  0  0  0  0  0
  -23.7994  -28.3105   19.4358 C   0  0  0  0  0  0  0  0  0  0  0  0
  -19.1867  -26.9673   23.8966 C   0  0  0  0  0  0  0  0  0  0  0  0
  -30.0423  -13.7091   20.4560 C   0  0  0  0  0  0  0  0  0  0  0  0
  -20.1362  -27.6178   22.9017 C   0  0  0  0  0  0  0  0  0  0  0  0
  -28.9922  -12.6582   20.0886 C   0  0  0  0  0  0  0  0  0  0  0  0
  -27.3893  -22.3663   22.6608 C   0  0  0  0  0  0  0  0  0  0  0  0
  -28.0168  -22.4388   20.2090 C   0  0  0  0  0  0  0  0  0  0  0  0
  -29.5856  -14.5837   21.6223 C   0  0  0  0  0  0  0  0  0  0  0  0
  -27.2195  -14.1610   21.0817 C   0  0  0  0  0  0  0  0  0  0  0  0
  -27.8659  -23.8015   22.8199 C   0  0  0  0  0  0  0  0  0  0  0  0
  -20.6009  -28.9896   23.4070 C   0  0  1  0  0  0  0  0  0  0  0  0
  -26.9164  -22.0824   21.2254 C   0  0  1  0  0  0  0  0  0  0  0  0
  -23.2094  -30.2348   20.9428 C   0  0  1  0  0  0  0  0  0  0  0  0
  -27.6072  -13.2981   19.8698 C   0  0  2  0  0  0  0  0  0  0  0  0
  -28.5474  -23.8656   20.3705 C   0  0  1  0  0  0  0  0  0  0  0  0
  -22.6338  -29.3358   13.4862 C   0  0  0  0  0  0  0  0  0  0  0  0
  -19.1359  -28.2637   18.8390 C   0  0  0  0  0  0  0  0  0  0  0  0
  -19.6555  -27.7119   16.4528 C   0  0  0  0  0  0  0  0  0  0  0  0
  -19.3914  -30.0919   17.1518 C   0  0  0  0  0  0  0  0  0  0  0  0
  -25.6754  -27.9875   15.3320 C   0  0  0  0  0  0  0  0  0  0  0  0
  -27.5772  -24.9463   19.9074 C   0  0  0  0  0  0  0  0  0  1  0  0
  -21.4578  -28.8158   17.8542 C   0  0  1  0  0  0  0  0  0  0  0  0
  -23.5289  -29.0925   14.6913 C   0  0  2  0  0  0  0  0  0  0  0  0
  -19.9282  -28.7135   17.5952 C   0  0  0  0  0  0  0  0  0  0  0  0
  -25.8325  -11.7303   20.5583 N   0  0  0  0  0  0  0  0  0  0  0  0
  -26.5506  -12.2566   19.5517 N   0  0  0  0  0  0  0  0  0  0  0  0
  -22.9447  -29.4752   19.7192 N   0  0  0  0  0  0  0  0  0  0  0  0
  -28.2684  -15.1594   21.3424 N   0  0  0  0  0  0  0  0  0  0  0  0
  -26.8445  -12.1853   17.2024 N   0  0  0  0  0  0  0  0  0  0  0  0
  -25.0831   -8.8249   17.1969 N   0  0  0  0  0  0  0  0  0  0  0  0
  -26.8172  -16.9930   21.0354 N   0  0  0  0  0  0  0  0  0  0  0  0
  -21.3265  -29.6606   22.3510 N   0  0  0  0  0  0  0  0  0  0  0  0
  -22.2303  -29.2658   16.7013 N   0  0  0  0  0  0  0  0  0  0  0  0
  -28.9234  -24.0935   21.8056 N   0  3  0  0  0  0  0  0  0  0  0  0
  -24.6996  -28.2821   14.2512 N   0  3  0  0  0  0  0  0  0  0  0  0
  -23.5298  -10.4919   16.9384 O   0  0  0  0  0  0  0  0  0  0  0  0
  -23.3981  -28.6505   22.6833 O   0  0  0  0  0  0  0  0  0  0  0  0
  -21.0523  -30.7314   19.1929 O   0  0  0  0  0  0  0  0  0  0  0  0
  -22.6867  -27.1533   15.8607 O   0  0  0  0  0  0  0  0  0  0  0  0
  -29.0475  -17.3226   21.5820 O   0  0  0  0  0  0  0  0  0  0  0  0
  -21.3456   -7.8475   22.8698 O   0  0  0  0  0  0  0  0  0  0  0  0
  -28.1734  -26.2261   20.1150 O   0  0  0  0  0  0  0  0  0  1  0  0
  -22.4662   -2.5049   23.6472 F   0  0  0  0  0  0  0  0  0  0  0  0
  -21.6299   -6.8142   25.4182 F   0  0  0  0  0  0  0  0  0  0  0  0
  -24.8051  -20.3532   20.6343 S   0  0  0  0  0  0  0  0  0  0  0  0
  1  2  1  0  0  0  0
  1  5  2  0  0  0  0
  2  6  2  0  0  0  0
  3  8  2  0  0  0  0
  3 17  1  0  0  0  0
  4  9  1  0  0  0  0
  4 17  2  0  0  0  0
  5 19  1  0  0  0  0
  6 21  1  0  0  0  0
  7 10  2  0  0  0  0
  7 20  1  0  0  0  0
  8 24  1  0  0  0  0
  9 24  2  0  0  0  0
 10 25  1  0  0  0  0
 11 12  2  0  0  0  0
 11 26  1  0  0  0  0
 12 27  1  0  0  0  0
 13 22  1  0  0  0  0
 13 25  2  0  0  0  0
 14 23  1  0  0  0  0
 14 30  2  0  0  0  0
 15 27  2  0  0  0  0
 15 28  1  0  0  0  0
 16 23  2  0  0  0  0
 16 83  1  0  0  0  0
 17 29  1  0  0  0  0
 18 29  1  0  0  0  0
 18 31  2  0  0  0  0
 18 32  1  0  0  0  0
 19 21  2  0  0  0  0
 19 37  1  0  0  0  0
 20 22  2  0  0  0  0
 20 38  1  0  0  0  0
 21 49  1  0  0  0  0
 22 39  1  0  0  0  0
 23 69  1  0  0  0  0
 24 79  1  0  0  0  0
 25 80  1  0  0  0  0
 26 28  2  0  0  0  0
 26 79  1  0  0  0  0
 27 81  1  0  0  0  0
 28 82  1  0  0  0  0
 29 63  2  0  0  0  0
 30 50  1  0  0  0  0
 30 83  1  0  0  0  0
 31 64  1  0  0  0  0
 31 67  1  0  0  0  0
 32 68  1  0  0  0  0
 32 74  2  0  0  0  0
 33 51  1  0  0  0  0
 33 70  1  0  0  0  0
 33 75  2  0  0  0  0
 34 60  1  0  0  0  0
 34 65  1  0  0  0  0
 34 76  2  0  0  0  0
 35 61  1  0  0  0  0
 35 71  1  0  0  0  0
 35 77  2  0  0  0  0
 36 66  1  0  0  0  0
 36 69  1  0  0  0  0
 36 78  2  0  0  0  0
 37 40  1  0  0  0  0
 38 51  1  0  0  0  0
 39 65  1  0  0  0  0
 40 42  1  0  0  0  0
 41 43  1  0  0  0  0
 41 46  1  0  0  0  0
 42 49  1  0  0  0  0
 43 52  1  0  0  0  0
 44 48  1  0  0  0  0
 44 50  1  0  0  0  0
 45 50  1  0  0  0  0
 45 53  1  0  0  0  0
 46 66  1  0  0  0  0
 47 52  1  0  0  0  0
 47 66  1  0  0  0  0
 48 72  1  0  0  0  0
 49 70  1  0  0  0  0
 51 65  1  0  0  0  0
 52 64  1  0  0  0  0
 53 59  1  0  0  0  0
 53 72  1  0  0  0  0
 54 61  1  0  0  0  0
 55 62  1  0  0  0  0
 56 62  1  0  0  0  0
 57 62  1  0  0  0  0
 58 73  1  0  0  0  0
 59 80  1  0  0  0  0
 60 62  1  0  0  0  0
 60 71  1  0  0  0  0
 61 73  1  0  0  0  0
 63 64  1  0  0  0  0
M  CHG  2  72   1  73   1
M  ISO  4  36 100  59 101  69 100  80 101
M  END
> <Batch ID>
0155

> <Smiles>
CNC(C)C(=O)NC(C(=O)N1Cc2cc([101O:1][101CH2:1]C3CC(c4cc([100NH:0][100C:0](=O)N5CCCC(n6nc(-c7ccc(Oc8ccc(F)cc8F)cc7)c(C(N)=O)c6N)C5)cs4)CCN3)ccc2CC1C(=O)NC1CCCc2ccccc21)C(C)(C)C

> <Shape>
0.291

> <Color>
0.126

> <Negative vol penalty>
0.000

$$$$

  -OEChem-04052303363D

 85 94  0     1  0  0  0  0  0999 V2000
  -29.4273  -33.4961   25.7453 C   0  0  0  0  0  0  0  0  0  0  0  0
  -29.1464  -32.2218   25.2629 C   0  0  0  0  0  0  0  0  0  0  0  0
  -22.8482   -9.6950   20.0577 C   0  0  0  0  0  0  0  0  0  0  0  0
  -24.4724   -8.9902   21.7015 C   0  0  0  0  0  0  0  0  0  0  0  0
  -28.3929  -34.4105   25.9394 C   0  0  0  0  0  0  0  0  0  0  0  0
  -27.8305  -31.8609   24.9753 C   0  0  0  0  0  0  0  0  0  0  0  0
  -27.4060  -29.4246   20.5561 C   0  0  0  0  0  0  0  0  0  0  0  0
  -21.8428   -9.0430   20.7715 C   0  0  0  0  0  0  0  0  0  0  0  0
  -23.4670   -8.3383   22.4155 C   0  0  0  0  0  0  0  0  0  0  0  0
  -27.7724  -28.0797   20.5328 C   0  0  0  0  0  0  0  0  0  0  0  0
  -21.7489   -5.4336   22.2106 C   0  0  0  0  0  0  0  0  0  0  0  0
  -22.0156   -4.1464   22.6770 C   0  0  0  0  0  0  0  0  0  0  0  0
  -25.4483  -27.4502   20.6808 C   0  0  0  0  0  0  0  0  0  0  0  0
  -21.6578   -4.8944   24.9462 C   0  0  0  0  0  0  0  0  0  0  0  0
  -25.0591  -18.1399   19.1024 C   0  0  0  0  0  0  0  0  0  0  0  0
  -24.1631   -9.6686   20.5226 C   0  0  0  0  0  0  0  0  0  0  0  0
  -25.6022  -10.0909   18.4591 C   0  0  0  0  0  0  0  0  0  0  0  0
  -27.0649  -34.0638   25.6449 C   0  0  0  0  0  0  0  0  0  0  0  0
  -26.0564  -29.7931   20.6532 C   0  0  0  0  0  0  0  0  0  0  0  0
  -26.7772  -32.7711   25.1669 C   0  0  0  0  0  0  0  0  0  0  0  0
  -25.0673  -28.8005   20.7027 C   0  0  0  0  0  0  0  0  0  0  0  0
  -22.1521   -8.3646   21.9504 C   0  0  0  0  0  0  0  0  0  0  0  0
  -26.7937  -27.0922   20.5980 C   0  0  0  0  0  0  0  0  0  0  0  0
  -21.4366   -6.4513   23.1120 C   0  0  0  0  0  0  0  0  0  0  0  0
  -21.9701   -3.8768   24.0448 C   0  0  0  0  0  0  0  0  0  0  0  0
  -21.3911   -6.1817   24.4798 C   0  0  0  0  0  0  0  0  0  0  0  0
  -25.2022  -10.3414   19.7854 C   0  0  0  0  0  0  0  0  0  0  0  0
  -26.3011  -17.9037   19.6536 C   0  0  0  0  0  0  0  0  0  0  0  0
  -26.6166  -10.9882   18.2310 C   0  0  0  0  0  0  0  0  0  0  0  0
  -26.4742  -20.0712   19.3672 C   0  0  0  0  0  0  0  0  0  0  0  0
  -25.1014   -9.1327   17.5174 C   0  0  0  0  0  0  0  0  0  0  0  0
  -24.3187  -31.4079   22.7689 C   0  0  0  0  0  0  0  0  0  0  0  0
  -21.9924  -31.0689   20.5337 C   0  0  0  0  0  0  0  0  0  0  0  0
  -20.8194  -28.4659   18.3278 C   0  0  0  0  0  0  0  0  0  0  0  0
  -27.9851  -16.2946   20.6132 C   0  0  0  0  0  0  0  0  0  0  0  0
  -25.9747  -35.0703   25.9156 C   0  0  0  0  0  0  0  0  0  0  0  0
  -25.6758  -31.2483   20.6503 C   0  0  0  0  0  0  0  0  0  0  0  0
  -23.6031  -29.1436   20.7872 C   0  0  0  0  0  0  0  0  0  0  0  0
  -24.6519  -34.7342   25.2319 C   0  0  0  0  0  0  0  0  0  0  0  0
  -30.0627  -13.4047   20.5159 C   0  0  0  0  0  0  0  0  0  0  0  0
  -24.3017  -33.2643   25.4402 C   0  0  0  0  0  0  0  0  0  0  0  0
  -29.0894  -12.2693   20.1908 C   0  0  0  0  0  0  0  0  0  0  0  0
  -26.7794  -23.7607   18.8128 C   0  0  0  0  0  0  0  0  0  0  0  0
  -28.5573  -22.9838   20.4000 C   0  0  0  0  0  0  0  0  0  0  0  0
  -29.4303  -14.4478   21.4355 C   0  0  0  0  0  0  0  0  0  0  0  0
  -26.5766  -22.3193   18.3391 C   0  0  0  0  0  0  0  0  0  0  0  0
  -28.3533  -21.5463   19.9179 C   0  0  0  0  0  0  0  0  0  0  0  0
  -27.1738  -13.8540   20.6451 C   0  0  0  0  0  0  0  0  0  0  0  0
  -25.3655  -32.3505   24.8199 C   0  0  1  0  0  0  0  0  0  0  0  0
  -24.3063  -31.5090   21.2698 C   0  0  1  0  0  0  0  0  0  0  0  0
  -27.7444  -12.8120   19.6692 C   0  0  2  0  0  0  0  0  0  0  0  0
  -28.2022  -24.0146   19.3218 C   0  0  0  0  0  0  0  0  0  0  0  0
  -19.6374  -28.6092   16.1188 C   0  0  0  0  0  0  0  0  0  0  0  0
  -19.4512  -30.8333   22.2061 C   0  0  0  0  0  0  0  0  0  0  0  0
  -18.4825  -29.3901   20.4041 C   0  0  0  0  0  0  0  0  0  0  0  0
  -19.1052  -31.7539   19.9067 C   0  0  0  0  0  0  0  0  0  0  0  0
  -22.8635  -26.7920   16.9941 C   0  0  0  0  0  0  0  0  0  0  0  0
  -30.4440  -24.0983   18.6219 C   0  0  0  0  0  0  0  0  0  0  0  0
  -28.3363  -25.4386   19.8617 C   0  0  0  0  0  0  0  0  0  1  0  0
  -20.9295  -30.0364   20.2450 C   0  0  1  0  0  0  0  0  0  0  0  0
  -20.9737  -28.4158   16.8185 C   0  0  2  0  0  0  0  0  0  0  0  0
  -19.5167  -30.4964   20.7030 C   0  0  0  0  0  0  0  0  0  0  0  0
  -25.9054  -11.3211   20.3596 N   0  0  0  0  0  0  0  0  0  0  0  0
  -27.1141  -19.0099   19.8058 N   0  0  0  0  0  0  0  0  0  0  0  0
  -26.7574  -11.6940   19.3896 N   0  0  0  0  0  0  0  0  0  0  0  0
  -27.0023  -21.3685   19.3705 N   0  0  0  0  0  0  0  0  0  0  0  0
  -23.2819  -30.5803   20.7877 N   0  0  0  0  0  0  0  0  0  0  0  0
  -28.1621  -14.9195   20.8751 N   0  0  0  0  0  0  0  0  0  0  0  0
  -27.3931  -11.2345   17.1546 N   0  0  0  0  0  0  0  0  0  0  0  0
  -25.6888   -7.8607   17.4820 N   0  0  0  0  0  0  0  0  0  0  0  0
  -26.7514  -16.6203   20.0508 N   0  0  0  0  0  0  0  0  0  0  0  0
  -25.1964  -32.2799   23.3843 N   0  0  0  0  0  0  0  0  0  0  0  0
  -21.0278  -29.7367   18.8206 N   0  0  0  0  0  0  0  0  0  0  0  0
  -21.5381  -27.1019   16.3988 N   0  3  0  0  0  0  0  0  0  0  0  0
  -24.1718   -9.4020   16.7194 O   0  0  0  0  0  0  0  0  0  0  0  0
  -23.5851  -30.5998   23.3260 O   0  0  0  0  0  0  0  0  0  0  0  0
  -21.6913  -32.2651   20.5268 O   0  0  0  0  0  0  0  0  0  0  0  0
  -20.5382  -27.4774   19.0018 O   0  0  0  0  0  0  0  0  0  0  0  0
  -28.8737  -17.1187   20.8439 O   0  0  0  0  0  0  0  0  0  0  0  0
  -21.1713   -7.7285   22.6474 O   0  0  0  0  0  0  0  0  0  0  0  0
  -27.1487  -25.7786   20.5761 O   0  0  0  0  0  0  0  0  0  1  0  0
  -29.1024  -23.8753   18.2201 O   0  0  0  0  0  0  0  0  0  0  0  0
  -22.2248   -2.6403   24.4924 F   0  0  0  0  0  0  0  0  0  0  0  0
  -21.0905   -7.1550   25.3506 F   0  0  0  0  0  0  0  0  0  0  0  0
  -24.8907  -19.8117   18.7587 S   0  0  0  0  0  0  0  0  0  0  0  0
  1  2  1  0  0  0  0
  1  5  2  0  0  0  0
  2  6  2  0  0  0  0
  3  8  2  0  0  0  0
  3 16  1  0  0  0  0
  4  9  1  0  0  0  0
  4 16  2  0  0  0  0
  5 18  1  0  0  0  0
  6 20  1  0  0  0  0
  7 10  2  0  0  0  0
  7 19  1  0  0  0  0
  8 22  1  0  0  0  0
  9 22  2  0  0  0  0
 10 23  1  0  0  0  0
 11 12  2  0  0  0  0
 11 24  1  0  0  0  0
 12 25  1  0  0  0  0
 13 21  1  0  0  0  0
 13 23  2  0  0  0  0
 14 25  2  0  0  0  0
 14 26  1  0  0  0  0
 15 28  2  0  0  0  0
 15 85  1  0  0  0  0
 16 27  1  0  0  0  0
 17 27  1  0  0  0  0
 17 29  2  0  0  0  0
 17 31  1  0  0  0  0
 18 20  2  0  0  0  0
 18 36  1  0  0  0  0
 19 21  2  0  0  0  0
 19 37  1  0  0  0  0
 20 49  1  0  0  0  0
 21 38  1  0  0  0  0
 22 80  1  0  0  0  0
 23 81  1  0  0  0  0
 24 26  2  0  0  0  0
 24 80  1  0  0  0  0
 25 83  1  0  0  0  0
 26 84  1  0  0  0  0
 27 63  2  0  0  0  0
 28 64  1  0  0  0  0
 28 71  1  0  0  0  0
 29 65  1  0  0  0  0
 29 69  1  0  0  0  0
 30 64  2  0  0  0  0
 30 66  1  0  0  0  0
 30 85  1  0  0  0  0
 31 70  1  0  0  0  0
 31 75  2  0  0  0  0
 32 50  1  0  0  0  0
 32 72  1  0  0  0  0
 32 76  2  0  0  0  0
 33 60  1  0  0  0  0
 33 67  1  0  0  0  0
 33 77  2  0  0  0  0
 34 61  1  0  0  0  0
 34 73  1  0  0  0  0
 34 78  2  0  0  0  0
 35 68  1  0  0  0  0
 35 71  1  0  0  0  0
 35 79  2  0  0  0  0
 36 39  1  0  0  0  0
 37 50  1  0  0  0  0
 38 67  1  0  0  0  0
 39 41  1  0  0  0  0
 40 42  1  0  0  0  0
 40 45  1  0  0  0  0
 41 49  1  0  0  0  0
 42 51  1  0  0  0  0
 43 46  1  0  0  0  0
 43 52  1  0  0  0  0
 44 47  1  0  0  0  0
 44 52  1  0  0  0  0
 45 68  1  0  0  0  0
 46 66  1  0  0  0  0
 47 66  1  0  0  0  0
 48 51  1  0  0  0  0
 48 68  1  0  0  0  0
 49 72  1  0  0  0  0
 50 67  1  0  0  0  0
 51 65  1  0  0  0  0
 52 59  1  0  0  0  0
 52 82  1  0  0  0  0
 53 61  1  0  0  0  0
 54 62  1  0  0  0  0
 55 62  1  0  0  0  0
 56 62  1  0  0  0  0
 57 74  1  0  0  0  0
 58 82  1  0  0  0  0
 59 81  1  0  0  0  0
 60 62  1  0  0  0  0
 60 73  1  0  0  0  0
 61 74  1  0  0  0  0
 63 65  1  0  0  0  0
M  CHG  1  74   1
M  ISO  4  35 100  59 101  71 100  81 101
M  END
> <Batch ID>
0155

> <Smiles>
CNC(C)C(=O)NC(C(=O)N1Cc2cc([101O:1][101CH2:1]C3(OC)CCN(c4nc([100NH:0][100C:0](=O)N5CCCC(n6nc(-c7ccc(Oc8ccc(F)cc8F)cc7)c(C(N)=O)c6N)C5)cs4)CC3)ccc2CC1C(=O)NC1CCCc2ccccc21)C(C)(C)C

> <Shape>
0.311

> <Color>
0.101

> <Negative vol penalty>
0.000

$$$$

  -OEChem-04052303363D

 83 91  0     1  0  0  0  0  0999 V2000
  -18.2523  -25.6683   19.7650 C   0  0  0  0  0  0  0  0  0  0  0  0
  -19.1855  -24.7844   20.2973 C   0  0  0  0  0  0  0  0  0  0  0  0
  -23.1380   -9.8018   19.8848 C   0  0  0  0  0  0  0  0  0  0  0  0
  -23.9649   -9.7115   22.1531 C   0  0  0  0  0  0  0  0  0  0  0  0
  -18.1637  -26.9685   20.2605 C   0  0  0  0  0  0  0  0  0  0  0  0
  -20.0313  -25.2006   21.3248 C   0  0  0  0  0  0  0  0  0  0  0  0
  -22.1139  -21.8096   25.9799 C   0  0  0  0  0  0  0  0  0  0  0  0
  -22.4550   -8.6025   20.0859 C   0  0  0  0  0  0  0  0  0  0  0  0
  -23.2818   -8.5121   22.3543 C   0  0  0  0  0  0  0  0  0  0  0  0
  -23.3206  -21.1433   26.1887 C   0  0  0  0  0  0  0  0  0  0  0  0
  -20.1125   -7.5299   22.9957 C   0  0  0  0  0  0  0  0  0  0  0  0
  -19.3934   -7.3866   24.1823 C   0  0  0  0  0  0  0  0  0  0  0  0
  -24.1426  -23.0361   27.4381 C   0  0  0  0  0  0  0  0  0  0  0  0
  -29.6828  -17.5047   23.3414 C   0  0  0  0  0  0  0  0  0  0  0  0
  -31.8844  -16.7957   22.6435 C   0  0  0  0  0  0  0  0  0  0  0  0
  -31.6441  -18.4362   24.4008 C   0  0  0  0  0  0  0  0  0  0  0  0
  -20.7427   -5.4702   24.7686 C   0  0  0  0  0  0  0  0  0  0  0  0
  -23.8931  -10.3563   20.9183 C   0  0  0  0  0  0  0  0  0  0  0  0
  -24.1164  -12.8975   20.9390 C   0  0  0  0  0  0  0  0  0  0  0  0
  -19.0022  -27.3978   21.3012 C   0  0  0  0  0  0  0  0  0  0  0  0
  -21.9161  -23.1007   26.4902 C   0  0  0  0  0  0  0  0  0  0  0  0
  -19.9547  -26.5081   21.8338 C   0  0  0  0  0  0  0  0  0  0  0  0
  -22.9315  -23.7156   27.2365 C   0  0  0  0  0  0  0  0  0  0  0  0
  -30.4967  -16.7216   22.5230 C   0  0  0  0  0  0  0  0  0  0  0  0
  -30.2564  -18.3621   24.2803 C   0  0  0  0  0  0  0  0  0  0  0  0
  -22.5268   -7.9576   21.3207 C   0  0  0  0  0  0  0  0  0  0  0  0
  -24.3363  -21.7577   26.9154 C   0  0  0  0  0  0  0  0  0  0  0  0
  -21.1467   -6.6433   22.6955 C   0  0  0  0  0  0  0  0  0  0  0  0
  -19.7085   -6.3568   25.0687 C   0  0  0  0  0  0  0  0  0  0  0  0
  -32.4581  -17.6531   23.5825 C   0  0  0  0  0  0  0  0  0  0  0  0
  -21.4618   -5.6135   23.5820 C   0  0  0  0  0  0  0  0  0  0  0  0
  -24.5994  -11.5950   20.7109 C   0  0  0  0  0  0  0  0  0  0  0  0
  -25.1622  -13.7172   20.5914 C   0  0  0  0  0  0  0  0  0  0  0  0
  -22.8369  -13.3279   21.4221 C   0  0  0  0  0  0  0  0  0  0  0  0
  -21.3445  -25.9545   25.2124 C   0  0  0  0  0  0  0  0  0  0  0  0
  -27.4457  -20.0928   26.0653 C   0  0  0  0  0  0  0  0  0  0  0  0
  -21.0141  -26.8446   28.3142 C   0  0  0  0  0  0  0  0  0  0  0  0
  -21.7485  -26.2488   31.5933 C   0  0  0  0  0  0  0  0  0  0  0  0
  -30.5782  -15.0065   20.6795 C   0  0  0  0  0  0  0  0  0  0  0  0
  -18.9016  -28.8272   21.7719 C   0  0  0  0  0  0  0  0  0  0  0  0
  -20.5988  -23.7952   26.2790 C   0  0  0  0  0  0  0  0  0  0  0  0
  -22.7617  -25.0924   27.8229 C   0  0  0  0  0  0  0  0  0  0  0  0
  -19.5795  -29.0747   23.1170 C   0  0  0  0  0  0  0  0  0  0  0  0
  -29.5041  -12.6845   18.2033 C   0  0  0  0  0  0  0  0  0  0  0  0
  -20.9641  -28.4352   23.1428 C   0  0  0  0  0  0  0  0  0  0  0  0
  -28.0926  -12.3012   18.6537 C   0  0  0  0  0  0  0  0  0  0  0  0
  -30.4434  -12.8859   19.3912 C   0  0  0  0  0  0  0  0  0  0  0  0
  -28.5476  -13.4387   20.8642 C   0  0  0  0  0  0  0  0  0  0  0  0
  -20.8728  -26.9147   22.9660 C   0  0  1  0  0  0  0  0  0  0  0  0
  -20.6961  -25.3124   26.4062 C   0  0  1  0  0  0  0  0  0  0  0  0
  -27.5489  -13.2885   19.7050 C   0  0  2  0  0  0  0  0  0  0  0  0
  -21.3678  -27.1703   33.8962 C   0  0  0  0  0  0  0  0  0  0  0  0
  -23.0636  -29.0392   27.7723 C   0  0  0  0  0  0  0  0  0  0  0  0
  -23.3459  -29.2903   30.2473 C   0  0  0  0  0  0  0  0  0  0  0  0
  -21.1308  -29.7448   29.1939 C   0  0  0  0  0  0  0  0  0  0  0  0
  -20.3658  -23.7856   32.4763 C   0  0  0  0  0  0  0  0  0  0  0  0
  -28.0076  -19.1303   25.0406 C   0  0  0  0  0  0  0  0  0  0  0  0
  -25.9331  -20.1879   26.1141 C   0  0  0  0  0  0  0  0  0  1  0  0
  -21.9468  -27.3594   29.3838 C   0  0  1  0  0  0  0  0  0  0  0  0
  -20.8701  -26.2061   32.8306 C   0  0  2  0  0  0  0  0  0  0  0  0
  -22.3760  -28.8332   29.1367 C   0  0  0  0  0  0  0  0  0  0  0  0
  -25.8543  -11.5831   20.2535 N   0  0  0  0  0  0  0  0  0  0  0  0
  -26.1686  -12.8882   20.1914 N   0  0  0  0  0  0  0  0  0  0  0  0
  -21.4579  -25.7332   27.5838 N   0  0  0  0  0  0  0  0  0  0  0  0
  -29.8647  -13.8367   20.3430 N   0  0  0  0  0  0  0  0  0  0  0  0
  -25.3098  -15.0591   20.5918 N   0  0  0  0  0  0  0  0  0  0  0  0
  -21.8778  -12.3541   21.7322 N   0  0  0  0  0  0  0  0  0  0  0  0
  -29.9143  -15.8511   21.5686 N   0  0  0  0  0  0  0  0  0  0  0  0
  -29.4471  -19.1412   25.0946 N   0  0  0  0  0  0  0  0  0  0  0  0
  -20.4612  -26.2859   24.2028 N   0  0  0  0  0  0  0  0  0  0  0  0
  -21.2687  -27.1399   30.6568 N   0  0  0  0  0  0  0  0  0  0  0  0
  -20.8564  -24.8327   33.4090 N   0  3  0  0  0  0  0  0  0  0  0  0
  -22.5470  -14.5406   21.5587 O   0  0  0  0  0  0  0  0  0  0  0  0
  -22.5562  -26.1371   25.2084 O   0  0  0  0  0  0  0  0  0  0  0  0
  -28.1594  -20.7591   26.8139 O   0  0  0  0  0  0  0  0  0  0  0  0
  -19.9287  -27.4036   28.1382 O   0  0  0  0  0  0  0  0  0  0  0  0
  -22.7612  -25.5632   31.4714 O   0  0  0  0  0  0  0  0  0  0  0  0
  -31.6840  -15.2549   20.1923 O   0  0  0  0  0  0  0  0  0  0  0  0
  -21.8602   -6.7874   21.5175 O   0  0  0  0  0  0  0  0  0  0  0  0
  -25.5153  -21.1098   27.1201 O   0  0  0  0  0  0  0  0  0  1  0  0
  -19.0189   -6.2202   26.2089 F   0  0  0  0  0  0  0  0  0  0  0  0
  -33.7907  -17.7248   23.6980 F   0  0  0  0  0  0  0  0  0  0  0  0
  -22.4550   -4.7593   23.2996 F   0  0  0  0  0  0  0  0  0  0  0  0
  1  2  1  0  0  0  0
  1  5  2  0  0  0  0
  2  6  2  0  0  0  0
  3  8  2  0  0  0  0
  3 18  1  0  0  0  0
  4  9  1  0  0  0  0
  4 18  2  0  0  0  0
  5 20  1  0  0  0  0
  6 22  1  0  0  0  0
  7 10  2  0  0  0  0
  7 21  1  0  0  0  0
  8 26  1  0  0  0  0
  9 26  2  0  0  0  0
 10 27  1  0  0  0  0
 11 12  2  0  0  0  0
 11 28  1  0  0  0  0
 12 29  1  0  0  0  0
 13 23  1  0  0  0  0
 13 27  2  0  0  0  0
 14 24  1  0  0  0  0
 14 25  2  0  0  0  0
 15 24  2  0  0  0  0
 15 30  1  0  0  0  0
 16 25  1  0  0  0  0
 16 30  2  0  0  0  0
 17 29  2  0  0  0  0
 17 31  1  0  0  0  0
 18 32  1  0  0  0  0
 19 32  1  0  0  0  0
 19 33  2  0  0  0  0
 19 34  1  0  0  0  0
 20 22  2  0  0  0  0
 20 40  1  0  0  0  0
 21 23  2  0  0  0  0
 21 41  1  0  0  0  0
 22 49  1  0  0  0  0
 23 42  1  0  0  0  0
 24 68  1  0  0  0  0
 25 69  1  0  0  0  0
 26 79  1  0  0  0  0
 27 80  1  0  0  0  0
 28 31  2  0  0  0  0
 28 79  1  0  0  0  0
 29 81  1  0  0  0  0
 30 82  1  0  0  0  0
 31 83  1  0  0  0  0
 32 62  2  0  0  0  0
 33 63  1  0  0  0  0
 33 66  1  0  0  0  0
 34 67  1  0  0  0  0
 34 73  2  0  0  0  0
 35 50  1  0  0  0  0
 35 70  1  0  0  0  0
 35 74  2  0  0  0  0
 36 57  1  0  0  0  0
 36 58  1  0  0  0  0
 36 75  2  0  0  0  0
 37 59  1  0  0  0  0
 37 64  1  0  0  0  0
 37 76  2  0  0  0  0
 38 60  1  0  0  0  0
 38 71  1  0  0  0  0
 38 77  2  0  0  0  0
 39 65  1  0  0  0  0
 39 68  1  0  0  0  0
 39 78  2  0  0  0  0
 40 43  1  0  0  0  0
 41 50  1  0  0  0  0
 42 64  1  0  0  0  0
 43 45  1  0  0  0  0
 44 46  1  0  0  0  0
 44 47  1  0  0  0  0
 45 49  1  0  0  0  0
 46 51  1  0  0  0  0
 47 65  1  0  0  0  0
 48 51  1  0  0  0  0
 48 65  1  0  0  0  0
 49 70  1  0  0  0  0
 50 64  1  0  0  0  0
 51 63  1  0  0  0  0
 52 60  1  0  0  0  0
 53 61  1  0  0  0  0
 54 61  1  0  0  0  0
 55 61  1  0  0  0  0
 56 72  1  0  0  0  0
 57 69  1  0  0  0  0
 58 80  1  0  0  0  0
 59 61  1  0  0  0  0
 59 71  1  0  0  0  0
 60 72  1  0  0  0  0
 62 63  1  0  0  0  0
M  CHG  1  72   1
M  ISO  4  39 100  58 101  68 100  80 101
M  END
> <Batch ID>
0155

> <Smiles>
CNC(C)C(=O)NC(C(=O)N1Cc2cc([101O:1][101CH2:1]C(=O)CNc3cc(F)cc([100NH:0][100C:0](=O)N4CCCC(n5nc(-c6ccc(Oc7ccc(F)cc7F)cc6)c(C(N)=O)c5N)C4)c3)ccc2CC1C(=O)NC1CCCc2ccccc21)C(C)(C)C

> <Shape>
0.225

> <Color>
0.196

> <Negative vol penalty>
0.000

$$$$

  -OEChem-04052303363D

 85 94  0     1  0  0  0  0  0999 V2000
  -27.1774  -39.0427   25.3325 C   0  0  0  0  0  0  0  0  0  0  0  0
  -27.9606  -38.1139   24.6547 C   0  0  0  0  0  0  0  0  0  0  0  0
  -24.3896   -8.6164   21.3849 C   0  0  0  0  0  0  0  0  0  0  0  0
  -24.3720  -10.1552   23.2474 C   0  0  0  0  0  0  0  0  0  0  0  0
  -26.0754  -38.6159   26.0725 C   0  0  0  0  0  0  0  0  0  0  0  0
  -27.6429  -36.7576   24.7174 C   0  0  0  0  0  0  0  0  0  0  0  0
  -29.2681  -20.3018   20.0380 C   0  0  0  0  0  0  0  0  0  0  0  0
  -27.8912  -30.7778   20.7808 C   0  0  0  0  0  0  0  0  0  0  0  0
  -29.3177  -18.9253   19.8182 C   0  0  0  0  0  0  0  0  0  0  0  0
  -24.0434   -7.5731   22.2435 C   0  0  0  0  0  0  0  0  0  0  0  0
  -24.0257   -9.1119   24.1061 C   0  0  0  0  0  0  0  0  0  0  0  0
  -28.3471  -29.4620   20.8483 C   0  0  0  0  0  0  0  0  0  0  0  0
  -21.2498   -6.4144   23.7555 C   0  0  0  0  0  0  0  0  0  0  0  0
  -20.2478   -5.5378   23.3394 C   0  0  0  0  0  0  0  0  0  0  0  0
  -26.3738  -28.8486   22.0928 C   0  0  0  0  0  0  0  0  0  0  0  0
  -26.9061  -18.8590   19.6889 C   0  0  0  0  0  0  0  0  0  0  0  0
  -21.8056   -3.6957   23.4690 C   0  0  0  0  0  0  0  0  0  0  0  0
  -24.5540   -9.9074   21.8869 C   0  0  0  0  0  0  0  0  0  0  0  0
  -24.0368  -11.8314   20.2936 C   0  0  0  0  0  0  0  0  0  0  0  0
  -25.7384  -37.2546   26.1364 C   0  0  0  0  0  0  0  0  0  0  0  0
  -26.6764  -31.1418   21.3792 C   0  0  0  0  0  0  0  0  0  0  0  0
  -26.5362  -36.3121   25.4600 C   0  0  0  0  0  0  0  0  0  0  0  0
  -28.0374  -20.9570   20.0834 C   0  0  0  0  0  0  0  0  0  0  0  0
  -25.9035  -30.1691   22.0292 C   0  0  0  0  0  0  0  0  0  0  0  0
  -28.1367  -18.2039   19.6436 C   0  0  0  0  0  0  0  0  0  0  0  0
  -26.8564  -20.2355   19.9088 C   0  0  0  0  0  0  0  0  0  0  0  0
  -23.8614   -7.8208   23.6041 C   0  0  0  0  0  0  0  0  0  0  0  0
  -27.5898  -28.4978   21.5069 C   0  0  0  0  0  0  0  0  0  0  0  0
  -22.5297   -5.9317   24.0284 C   0  0  0  0  0  0  0  0  0  0  0  0
  -20.5257   -4.1785   23.1962 C   0  0  0  0  0  0  0  0  0  0  0  0
  -22.8076   -4.5723   23.8851 C   0  0  0  0  0  0  0  0  0  0  0  0
  -24.9123  -10.9855   21.0005 C   0  0  0  0  0  0  0  0  0  0  0  0
  -24.8646  -12.6807   19.6009 C   0  0  0  0  0  0  0  0  0  0  0  0
  -28.2248  -24.7175   19.1939 C   0  0  0  0  0  0  0  0  0  0  0  0
  -28.6755  -25.2637   20.3366 C   0  0  0  0  0  0  0  0  0  0  0  0
  -22.6034  -11.8481   20.2657 C   0  0  0  0  0  0  0  0  0  0  0  0
  -25.8299  -33.1398   23.7019 C   0  0  0  0  0  0  0  0  0  0  0  0
  -22.8292  -32.3147   22.7868 C   0  0  0  0  0  0  0  0  0  0  0  0
  -20.7821  -30.0329   21.2869 C   0  0  0  0  0  0  0  0  0  0  0  0
  -29.3258  -16.0028   19.3476 C   0  0  0  0  0  0  0  0  0  0  0  0
  -24.5658  -36.8363   26.9876 C   0  0  0  0  0  0  0  0  0  0  0  0
  -26.1857  -32.5598   21.2744 C   0  0  0  0  0  0  0  0  0  0  0  0
  -24.5825  -30.5042   22.6705 C   0  0  0  0  0  0  0  0  0  0  0  0
  -28.0086  -23.2441   19.0005 C   0  0  0  0  0  0  0  0  0  0  0  0
  -29.0413  -24.4236   21.5347 C   0  0  0  0  0  0  0  0  0  0  0  0
  -24.0771  -35.4196   26.6973 C   0  0  0  0  0  0  0  0  0  0  0  0
  -29.1661  -22.9283   21.2227 C   0  0  0  0  0  0  0  0  0  0  0  0
  -29.8680  -12.5191   18.8511 C   0  0  0  0  0  0  0  0  0  0  0  0
  -25.2551  -34.4534   26.6219 C   0  0  0  0  0  0  0  0  0  0  0  0
  -28.5550  -11.8791   19.3079 C   0  0  0  0  0  0  0  0  0  0  0  0
  -30.2428  -13.7225   19.7142 C   0  0  0  0  0  0  0  0  0  0  0  0
  -27.8811  -14.1019   20.3039 C   0  0  0  0  0  0  0  0  0  0  0  0
  -28.0132  -22.4549   20.3238 C   0  0  2  0  0  0  0  0  0  0  0  0
  -26.2093  -34.8347   25.4836 C   0  0  1  0  0  0  0  0  0  0  0  0
  -25.1820  -32.9267   22.3631 C   0  0  1  0  0  0  0  0  0  0  0  0
  -27.4288  -12.9250   19.4241 C   0  0  2  0  0  0  0  0  0  0  0  0
  -18.3720  -29.6194   20.7234 C   0  0  0  0  0  0  0  0  0  0  0  0
  -22.2753  -31.5899   25.6985 C   0  0  0  0  0  0  0  0  0  0  0  0
  -20.2563  -30.3264   24.9271 C   0  0  0  0  0  0  0  0  0  0  0  0
  -20.4055  -32.7873   24.5476 C   0  0  0  0  0  0  0  0  0  0  0  0
  -21.3527  -29.9623   18.3837 C   0  0  0  0  0  0  0  0  0  0  0  0
  -28.8406  -26.7463   20.4950 C   0  0  0  0  0  0  0  0  0  1  0  0
  -21.8523  -31.2318   23.1768 C   0  0  1  0  0  0  0  0  0  0  0  0
  -19.6955  -30.1903   20.2386 C   0  0  2  0  0  0  0  0  0  0  0  0
  -21.2231  -31.4776   24.5772 C   0  0  0  0  0  0  0  0  0  0  0  0
  -26.1978  -11.2712   20.7772 N   0  0  0  0  0  0  0  0  0  0  0  0
  -26.1361  -12.3062   19.9222 N   0  0  0  0  0  0  0  0  0  0  0  0
  -24.1486  -31.9056   22.5465 N   0  0  0  0  0  0  0  0  0  0  0  0
  -29.1298  -14.6725   19.7750 N   0  0  0  0  0  0  0  0  0  0  0  0
  -25.6018  -20.8828   19.9527 N   0  0  0  0  0  0  0  0  0  0  0  0
  -24.6217  -13.7037   18.7543 N   0  0  0  0  0  0  0  0  0  0  0  0
  -21.9091  -10.9058   21.0366 N   0  0  0  0  0  0  0  0  0  0  0  0
  -28.1879  -16.8055   19.4208 N   0  0  0  0  0  0  0  0  0  0  0  0
  -25.6681  -34.4152   24.2086 N   0  0  0  0  0  0  0  0  0  0  0  0
  -20.8809  -31.1483   22.0915 N   0  0  0  0  0  0  0  0  0  0  0  0
  -20.0803  -29.4846   18.9837 N   0  3  0  0  0  0  0  0  0  0  0  0
  -21.9575  -12.6635   19.5647 O   0  0  0  0  0  0  0  0  0  0  0  0
  -26.4308  -32.2152   24.2364 O   0  0  0  0  0  0  0  0  0  0  0  0
  -22.4346  -33.4795   22.6916 O   0  0  0  0  0  0  0  0  0  0  0  0
  -21.4716  -29.0202   21.3847 O   0  0  0  0  0  0  0  0  0  0  0  0
  -30.4154  -16.3934   18.9207 O   0  0  0  0  0  0  0  0  0  0  0  0
  -23.5232   -6.8031   24.4422 O   0  0  0  0  0  0  0  0  0  0  0  0
  -28.0328  -27.2128   21.5749 O   0  0  0  0  0  0  0  0  0  1  0  0
  -19.5629   -3.3365   22.7980 F   0  0  0  0  0  0  0  0  0  0  0  0
  -24.0350   -4.1024   24.1469 F   0  0  0  0  0  0  0  0  0  0  0  0
  1  2  1  0  0  0  0
  1  5  2  0  0  0  0
  2  6  2  0  0  0  0
  3 10  2  0  0  0  0
  3 18  1  0  0  0  0
  4 11  1  0  0  0  0
  4 18  2  0  0  0  0
  5 20  1  0  0  0  0
  6 22  1  0  0  0  0
  7  9  2  0  0  0  0
  7 23  1  0  0  0  0
  8 12  2  0  0  0  0
  8 21  1  0  0  0  0
  9 25  1  0  0  0  0
 10 27  1  0  0  0  0
 11 27  2  0  0  0  0
 12 28  1  0  0  0  0
 13 14  2  0  0  0  0
 13 29  1  0  0  0  0
 14 30  1  0  0  0  0
 15 24  1  0  0  0  0
 15 28  2  0  0  0  0
 16 25  2  0  0  0  0
 16 26  1  0  0  0  0
 17 30  2  0  0  0  0
 17 31  1  0  0  0  0
 18 32  1  0  0  0  0
 19 32  1  0  0  0  0
 19 33  2  0  0  0  0
 19 36  1  0  0  0  0
 20 22  2  0  0  0  0
 20 41  1  0  0  0  0
 21 24  2  0  0  0  0
 21 42  1  0  0  0  0
 22 54  1  0  0  0  0
 23 26  2  0  0  0  0
 23 53  1  0  0  0  0
 24 43  1  0  0  0  0
 25 73  1  0  0  0  0
 26 70  1  0  0  0  0
 27 82  1  0  0  0  0
 28 83  1  0  0  0  0
 29 31  2  0  0  0  0
 29 82  1  0  0  0  0
 30 84  1  0  0  0  0
 31 85  1  0  0  0  0
 32 66  2  0  0  0  0
 33 67  1  0  0  0  0
 33 71  1  0  0  0  0
 34 35  2  0  0  0  0
 34 44  1  0  0  0  0
 35 45  1  0  0  0  0
 35 62  1  0  0  0  0
 36 72  1  0  0  0  0
 36 77  2  0  0  0  0
 37 55  1  0  0  0  0
 37 74  1  0  0  0  0
 37 78  2  0  0  0  0
 38 63  1  0  0  0  0
 38 68  1  0  0  0  0
 38 79  2  0  0  0  0
 39 64  1  0  0  0  0
 39 75  1  0  0  0  0
 39 80  2  0  0  0  0
 40 69  1  0  0  0  0
 40 73  1  0  0  0  0
 40 81  2  0  0  0  0
 41 46  1  0  0  0  0
 42 55  1  0  0  0  0
 43 68  1  0  0  0  0
 44 53  1  0  0  0  0
 45 47  1  0  0  0  0
 46 49  1  0  0  0  0
 47 53  1  0  0  0  0
 48 50  1  0  0  0  0
 48 51  1  0  0  0  0
 49 54  1  0  0  0  0
 50 56  1  0  0  0  0
 51 69  1  0  0  0  0
 52 56  1  0  0  0  0
 52 69  1  0  0  0  0
 54 74  1  0  0  0  0
 55 68  1  0  0  0  0
 56 67  1  0  0  0  0
 57 64  1  0  0  0  0
 58 65  1  0  0  0  0
 59 65  1  0  0  0  0
 60 65  1  0  0  0  0
 61 76  1  0  0  0  0
 62 83  1  0  0  0  0
 63 65  1  0  0  0  0
 63 75  1  0  0  0  0
 64 76  1  0  0  0  0
 66 67  1  0  0  0  0
M  CHG  1  76   1
M  ISO  4  40 100  62 101  73 100  83 101
M  END
> <Batch ID>
0155

> <Smiles>
CNC(C)C(=O)NC(C(=O)N1Cc2cc([101O:1][101CH2:1]C3=CCC(c4ccc([100NH:0][100C:0](=O)N5CCCC(n6nc(-c7ccc(Oc8ccc(F)cc8F)cc7)c(C(N)=O)c6N)C5)cc4N)CC3)ccc2CC1C(=O)NC1CCCc2ccccc21)C(C)(C)C

> <Shape>
0.316

> <Color>
0.073

> <Negative vol penalty>
0.000

$$$$

  -OEChem-04052303363D

 83 92  0     1  0  0  0  0  0999 V2000
  -26.4679  -34.7608   19.4026 C   0  0  0  0  0  0  0  0  0  0  0  0
  -26.6640  -33.5850   18.6854 C   0  0  0  0  0  0  0  0  0  0  0  0
  -22.9931   -9.9039   19.9841 C   0  0  0  0  0  0  0  0  0  0  0  0
  -23.7234   -9.9526   22.2866 C   0  0  0  0  0  0  0  0  0  0  0  0
  -26.1397  -34.7036   20.7565 C   0  0  0  0  0  0  0  0  0  0  0  0
  -26.5332  -32.3512   19.3219 C   0  0  0  0  0  0  0  0  0  0  0  0
  -24.4516  -25.6131   18.0643 C   0  0  0  0  0  0  0  0  0  0  0  0
  -22.2243   -8.7713   20.2519 C   0  0  0  0  0  0  0  0  0  0  0  0
  -22.9545   -8.8200   22.5544 C   0  0  0  0  0  0  0  0  0  0  0  0
  -24.9065  -24.3022   18.1999 C   0  0  0  0  0  0  0  0  0  0  0  0
  -23.1893   -5.4805   22.0814 C   0  0  0  0  0  0  0  0  0  0  0  0
  -23.7759   -4.4617   22.8320 C   0  0  0  0  0  0  0  0  0  0  0  0
  -24.2587  -24.3241   20.5234 C   0  0  0  0  0  0  0  0  0  0  0  0
  -28.9727  -18.7141   21.4248 C   0  0  0  0  0  0  0  0  0  0  0  0
  -22.0562   -4.7087   24.5110 C   0  0  0  0  0  0  0  0  0  0  0  0
  -23.7427  -10.4945   21.0015 C   0  0  0  0  0  0  0  0  0  0  0  0
  -24.1341  -13.0091   20.8251 C   0  0  0  0  0  0  0  0  0  0  0  0
  -25.9953  -33.4684   21.4077 C   0  0  0  0  0  0  0  0  0  0  0  0
  -23.9059  -26.2942   19.1619 C   0  0  0  0  0  0  0  0  0  0  0  0
  -26.2041  -32.2775   20.6861 C   0  0  0  0  0  0  0  0  0  0  0  0
  -23.7952  -25.6427   20.3986 C   0  0  0  0  0  0  0  0  0  0  0  0
  -29.8311  -17.8818   22.1730 C   0  0  0  0  0  0  0  0  0  0  0  0
  -22.2049   -8.2293   21.5371 C   0  0  0  0  0  0  0  0  0  0  0  0
  -24.8128  -23.6585   19.4303 C   0  0  0  0  0  0  0  0  0  0  0  0
  -22.0362   -6.1135   22.5456 C   0  0  0  0  0  0  0  0  0  0  0  0
  -23.2093   -4.0757   24.0468 C   0  0  0  0  0  0  0  0  0  0  0  0
  -21.4697   -5.7276   23.7604 C   0  0  0  0  0  0  0  0  0  0  0  0
  -24.5376  -11.6641   20.7254 C   0  0  0  0  0  0  0  0  0  0  0  0
  -29.7242  -18.1052   23.5192 C   0  0  0  0  0  0  0  0  0  0  0  0
  -25.2449  -13.7289   20.4584 C   0  0  0  0  0  0  0  0  0  0  0  0
  -28.2383  -19.5368   22.2645 C   0  0  0  0  0  0  0  0  0  0  0  0
  -22.8683  -13.5587   21.2145 C   0  0  0  0  0  0  0  0  0  0  0  0
  -24.6821  -28.9121   20.7892 C   0  0  0  0  0  0  0  0  0  0  0  0
  -21.8585  -28.3492   22.2832 C   0  0  0  0  0  0  0  0  0  0  0  0
  -26.7981  -20.9045   20.7187 C   0  0  0  0  0  0  0  0  0  0  0  0
  -19.4470  -26.1029   23.1696 C   0  0  0  0  0  0  0  0  0  0  0  0
  -30.7441  -14.6495   20.6953 C   0  0  0  0  0  0  0  0  0  0  0  0
  -25.6860  -33.4577   22.8838 C   0  0  0  0  0  0  0  0  0  0  0  0
  -23.3952  -27.6988   18.9925 C   0  0  0  0  0  0  0  0  0  0  0  0
  -23.1987  -26.3229   21.6027 C   0  0  0  0  0  0  0  0  0  0  0  0
  -30.6135  -17.2551   24.3451 C   0  0  0  0  0  0  0  0  0  0  0  0
  -25.1984  -32.1041   23.3942 C   0  0  0  0  0  0  0  0  0  0  0  0
  -31.5746  -16.6876   23.2522 C   0  0  0  0  0  0  0  0  0  0  0  0
  -29.5922  -12.2292   18.3518 C   0  0  0  0  0  0  0  0  0  0  0  0
  -26.0881  -30.9828   22.8670 C   0  0  0  0  0  0  0  0  0  0  0  0
  -28.1440  -11.9731   18.7725 C   0  0  0  0  0  0  0  0  0  0  0  0
  -30.4978  -12.4620   19.5591 C   0  0  0  0  0  0  0  0  0  0  0  0
  -28.5926  -13.2622   20.9022 C   0  0  0  0  0  0  0  0  0  0  0  0
  -26.0468  -30.9196   21.3354 C   0  0  1  0  0  0  0  0  0  0  0  0
  -30.8349  -16.8280   21.8807 C   0  0  1  0  0  0  0  0  0  0  0  0
  -23.3291  -28.4729   20.3055 C   0  0  1  0  0  0  0  0  0  0  0  0
  -27.6306  -13.0772   19.7162 C   0  0  2  0  0  0  0  0  0  0  0  0
  -17.2784  -25.9318   24.4208 C   0  0  0  0  0  0  0  0  0  0  0  0
  -23.3775  -28.4648   24.9270 C   0  0  0  0  0  0  0  0  0  0  0  0
  -21.4116  -27.3697   26.0243 C   0  0  0  0  0  0  0  0  0  0  0  0
  -21.1527  -29.6067   24.9513 C   0  0  0  0  0  0  0  0  0  0  0  0
  -17.9862  -25.2260   20.7497 C   0  0  0  0  0  0  0  0  0  0  0  0
  -25.7515  -21.9955   20.8478 C   0  0  0  0  0  0  0  0  0  1  0  0
  -21.4294  -27.5583   23.4954 C   0  0  1  0  0  0  0  0  0  0  0  0
  -17.9334  -26.1569   23.0669 C   0  0  2  0  0  0  0  0  0  0  0  0
  -21.8558  -28.2375   24.8275 C   0  0  0  0  0  0  0  0  0  0  0  0
  -25.8057  -11.5345   20.3264 N   0  0  0  0  0  0  0  0  0  0  0  0
  -26.2086  -12.8073   20.1722 N   0  0  0  0  0  0  0  0  0  0  0  0
  -22.7193  -27.6983   21.3882 N   0  0  0  0  0  0  0  0  0  0  0  0
  -29.9556  -13.5220   20.4126 N   0  0  0  0  0  0  0  0  0  0  0  0
  -25.4815  -15.0541   20.3561 N   0  0  0  0  0  0  0  0  0  0  0  0
  -21.8350  -12.6771   21.5601 N   0  0  0  0  0  0  0  0  0  0  0  0
  -27.2640  -20.5204   21.9715 N   0  0  0  0  0  0  0  0  0  0  0  0
  -24.8265  -30.2828   20.8886 N   0  0  0  0  0  0  0  0  0  0  0  0
  -19.9908  -27.3553   23.3621 N   0  0  0  0  0  0  0  0  0  0  0  0
  -30.1520  -15.6096   21.5066 N   0  0  0  0  0  0  0  0  0  0  0  0
  -17.4404  -25.1110   22.1266 N   0  3  0  0  0  0  0  0  0  0  0  0
  -22.6548  -14.7945   21.2389 O   0  0  0  0  0  0  0  0  0  0  0  0
  -25.5318  -28.0697   21.0540 O   0  0  0  0  0  0  0  0  0  0  0  0
  -21.4394  -29.4995   22.1323 O   0  0  0  0  0  0  0  0  0  0  0  0
  -27.1393  -20.4676   19.6244 O   0  0  0  0  0  0  0  0  0  0  0  0
  -20.0830  -25.0541   23.0910 O   0  0  0  0  0  0  0  0  0  0  0  0
  -31.8890  -14.7926   20.2528 O   0  0  0  0  0  0  0  0  0  0  0  0
  -21.4546   -7.1243   21.7988 O   0  0  0  0  0  0  0  0  0  0  0  0
  -25.2566  -22.3792   19.5655 O   0  0  0  0  0  0  0  0  0  1  0  0
  -23.7719   -3.0963   24.7668 F   0  0  0  0  0  0  0  0  0  0  0  0
  -20.3613   -6.3312   24.2109 F   0  0  0  0  0  0  0  0  0  0  0  0
  -28.6125  -19.2828   23.9350 S   0  0  0  0  0  0  0  0  0  0  0  0
  1  2  1  0  0  0  0
  1  5  2  0  0  0  0
  2  6  2  0  0  0  0
  3  8  2  0  0  0  0
  3 16  1  0  0  0  0
  4  9  1  0  0  0  0
  4 16  2  0  0  0  0
  5 18  1  0  0  0  0
  6 20  1  0  0  0  0
  7 10  2  0  0  0  0
  7 19  1  0  0  0  0
  8 23  1  0  0  0  0
  9 23  2  0  0  0  0
 10 24  1  0  0  0  0
 11 12  2  0  0  0  0
 11 25  1  0  0  0  0
 12 26  1  0  0  0  0
 13 21  1  0  0  0  0
 13 24  2  0  0  0  0
 14 22  1  0  0  0  0
 14 31  2  0  0  0  0
 15 26  2  0  0  0  0
 15 27  1  0  0  0  0
 16 28  1  0  0  0  0
 17 28  1  0  0  0  0
 17 30  2  0  0  0  0
 17 32  1  0  0  0  0
 18 20  2  0  0  0  0
 18 38  1  0  0  0  0
 19 21  2  0  0  0  0
 19 39  1  0  0  0  0
 20 49  1  0  0  0  0
 21 40  1  0  0  0  0
 22 29  2  0  0  0  0
 22 50  1  0  0  0  0
 23 79  1  0  0  0  0
 24 80  1  0  0  0  0
 25 27  2  0  0  0  0
 25 79  1  0  0  0  0
 26 81  1  0  0  0  0
 27 82  1  0  0  0  0
 28 62  2  0  0  0  0
 29 41  1  0  0  0  0
 29 83  1  0  0  0  0
 30 63  1  0  0  0  0
 30 66  1  0  0  0  0
 31 68  1  0  0  0  0
 31 83  1  0  0  0  0
 32 67  1  0  0  0  0
 32 73  2  0  0  0  0
 33 51  1  0  0  0  0
 33 69  1  0  0  0  0
 33 74  2  0  0  0  0
 34 59  1  0  0  0  0
 34 64  1  0  0  0  0
 34 75  2  0  0  0  0
 35 58  1  0  0  0  0
 35 68  1  0  0  0  0
 35 76  2  0  0  0  0
 36 60  1  0  0  0  0
 36 70  1  0  0  0  0
 36 77  2  0  0  0  0
 37 65  1  0  0  0  0
 37 71  1  0  0  0  0
 37 78  2  0  0  0  0
 38 42  1  0  0  0  0
 39 51  1  0  0  0  0
 40 64  1  0  0  0  0
 41 43  1  0  0  0  0
 42 45  1  0  0  0  0
 43 50  1  0  0  0  0
 44 46  1  0  0  0  0
 44 47  1  0  0  0  0
 45 49  1  0  0  0  0
 46 52  1  0  0  0  0
 47 65  1  0  0  0  0
 48 52  1  0  0  0  0
 48 65  1  0  0  0  0
 49 69  1  0  0  0  0
 50 71  1  0  0  0  0
 51 64  1  0  0  0  0
 52 63  1  0  0  0  0
 53 60  1  0  0  0  0
 54 61  1  0  0  0  0
 55 61  1  0  0  0  0
 56 61  1  0  0  0  0
 57 72  1  0  0  0  0
 58 80  1  0  0  0  0
 59 61  1  0  0  0  0
 59 70  1  0  0  0  0
 60 72  1  0  0  0  0
 62 63  1  0  0  0  0
M  CHG  1  72   1
M  ISO  4  37 100  58 101  71 100  80 101
M  END
> <Batch ID>
0155

> <Smiles>
CNC(C)C(=O)NC(C(=O)N1Cc2cc([101O:1][101CH2:1]C(=O)Nc3cc4c(s3)CCC4[100NH:0][100C:0](=O)N3CCCC(n4nc(-c5ccc(Oc6ccc(F)cc6F)cc5)c(C(N)=O)c4N)C3)ccc2CC1C(=O)NC1CCCc2ccccc21)C(C)(C)C

> <Shape>
0.330

> <Color>
0.193

> <Negative vol penalty>
0.000

$$$$

  -OEChem-04052303363D

 86 95  0     1  0  0  0  0  0999 V2000
  -33.7142  -28.7521   29.3667 C   0  0  0  0  0  0  0  0  0  0  0  0
  -33.7633  -27.3785   29.5815 C   0  0  0  0  0  0  0  0  0  0  0  0
  -23.2880   -9.8005   19.9138 C   0  0  0  0  0  0  0  0  0  0  0  0
  -23.7416   -9.9409   22.2827 C   0  0  0  0  0  0  0  0  0  0  0  0
  -32.5148  -29.3552   28.9904 C   0  0  0  0  0  0  0  0  0  0  0  0
  -32.6126  -26.6073   29.4213 C   0  0  0  0  0  0  0  0  0  0  0  0
  -32.2927  -20.8656   27.3149 C   0  0  0  0  0  0  0  0  0  0  0  0
  -22.5622   -8.6277   20.1222 C   0  0  0  0  0  0  0  0  0  0  0  0
  -23.0157   -8.7681   22.4912 C   0  0  0  0  0  0  0  0  0  0  0  0
  -32.1959  -19.6337   27.9605 C   0  0  0  0  0  0  0  0  0  0  0  0
  -19.7692   -7.8562   22.7122 C   0  0  0  0  0  0  0  0  0  0  0  0
  -18.8681   -7.8341   23.7767 C   0  0  0  0  0  0  0  0  0  0  0  0
  -33.0165  -11.9656   26.0681 C   0  0  0  0  0  0  0  0  0  0  0  0
  -30.8933  -12.5979   25.1042 C   0  0  0  0  0  0  0  0  0  0  0  0
  -29.8011  -19.6788   27.6745 C   0  0  0  0  0  0  0  0  0  0  0  0
  -32.8182  -12.2752   23.6802 C   0  0  0  0  0  0  0  0  0  0  0  0
  -20.0755   -5.9871   24.7605 C   0  0  0  0  0  0  0  0  0  0  0  0
  -23.8778  -10.4570   20.9940 C   0  0  0  0  0  0  0  0  0  0  0  0
  -31.6672  -12.2840   26.2215 C   0  0  0  0  0  0  0  0  0  0  0  0
  -24.1362  -12.9871   20.7954 C   0  0  0  0  0  0  0  0  0  0  0  0
  -31.3511  -28.5897   28.8161 C   0  0  0  0  0  0  0  0  0  0  0  0
  -31.1414  -21.5197   26.8532 C   0  0  0  0  0  0  0  0  0  0  0  0
  -31.3962  -27.2009   29.0436 C   0  0  0  0  0  0  0  0  0  0  0  0
  -29.8862  -20.9178   27.0212 C   0  0  0  0  0  0  0  0  0  0  0  0
  -33.5920  -11.9613   24.7975 C   0  0  0  0  0  0  0  0  0  0  0  0
  -31.4688  -12.5935   23.8336 C   0  0  0  0  0  0  0  0  0  0  0  0
  -22.4260   -8.1116   21.4109 C   0  0  0  0  0  0  0  0  0  0  0  0
  -30.9497  -19.0415   28.1429 C   0  0  0  0  0  0  0  0  0  0  0  0
  -20.8234   -6.9437   22.6718 C   0  0  0  0  0  0  0  0  0  0  0  0
  -19.0212   -6.8996   24.8008 C   0  0  0  0  0  0  0  0  0  0  0  0
  -20.9766   -6.0092   23.6960 C   0  0  0  0  0  0  0  0  0  0  0  0
  -24.6281  -11.6682   20.7792 C   0  0  0  0  0  0  0  0  0  0  0  0
  -25.2372  -13.7674   20.5393 C   0  0  0  0  0  0  0  0  0  0  0  0
  -31.6177  -14.5780   27.8349 C   0  0  0  0  0  0  0  0  0  0  0  0
  -31.4897  -15.5416   28.7524 C   0  0  0  0  0  0  0  0  0  0  0  0
  -31.0589  -12.2888   27.5639 C   0  0  0  0  0  0  0  0  0  0  0  0
  -22.8033  -13.4644   21.0219 C   0  0  0  0  0  0  0  0  0  0  0  0
  -29.7237  -24.2901   27.5001 C   0  0  0  0  0  0  0  0  0  0  0  0
  -27.7930  -23.4313   25.0390 C   0  0  0  0  0  0  0  0  0  0  0  0
  -26.4832  -20.9314   23.1203 C   0  0  0  0  0  0  0  0  0  0  0  0
  -31.0987  -12.9545   21.3680 C   0  0  0  0  0  0  0  0  0  0  0  0
  -30.0668  -29.2930   28.4545 C   0  0  0  0  0  0  0  0  0  0  0  0
  -31.2653  -22.8355   26.1350 C   0  0  0  0  0  0  0  0  0  0  0  0
  -28.6217  -21.5692   26.5260 C   0  0  0  0  0  0  0  0  0  0  0  0
  -30.7821  -15.0208   29.9714 C   0  0  0  0  0  0  0  0  0  0  0  0
  -28.9803  -28.3514   27.9415 C   0  0  0  0  0  0  0  0  0  0  0  0
  -29.4614  -13.6589   18.2857 C   0  0  0  0  0  0  0  0  0  0  0  0
  -28.8664  -27.1262   28.8431 C   0  0  0  0  0  0  0  0  0  0  0  0
  -27.9906  -13.3542   18.5786 C   0  0  0  0  0  0  0  0  0  0  0  0
  -30.4995  -13.5495   29.6261 C   0  0  0  0  0  0  0  0  0  0  0  0
  -30.3957  -12.6839   19.0000 C   0  0  0  0  0  0  0  0  0  0  0  0
  -28.7047  -12.2551   20.7394 C   0  0  0  0  0  0  0  0  0  0  0  0
  -30.1751  -26.3270   28.8558 C   0  0  1  0  0  0  0  0  0  0  0  0
  -29.9786  -23.6547   26.1626 C   0  0  1  0  0  0  0  0  0  0  0  0
  -27.7273  -13.2509   20.0938 C   0  0  2  0  0  0  0  0  0  0  0  0
  -24.9047  -20.5354   21.2100 C   0  0  0  0  0  0  0  0  0  0  0  0
  -25.4227  -23.8691   26.9098 C   0  0  0  0  0  0  0  0  0  0  0  0
  -24.0039  -22.5775   25.3014 C   0  0  0  0  0  0  0  0  0  0  0  0
  -25.0809  -24.7085   24.5789 C   0  0  0  0  0  0  0  0  0  0  0  0
  -28.6218  -19.7578   21.4446 C   0  0  0  0  0  0  0  0  0  0  0  0
  -31.9583  -16.9468   28.6442 C   0  0  0  0  0  0  0  0  0  1  0  0
  -26.5086  -22.6485   24.9106 C   0  0  1  0  0  0  0  0  0  0  0  0
  -26.3497  -20.7810   21.6156 C   0  0  2  0  0  0  0  0  0  0  0  0
  -25.2775  -23.4393   25.4364 C   0  0  0  0  0  0  0  0  0  0  0  0
  -25.9395  -11.6099   20.5321 N   0  0  0  0  0  0  0  0  0  0  0  0
  -26.2809  -12.9020   20.3906 N   0  0  0  0  0  0  0  0  0  0  0  0
  -31.0669  -13.3992   28.2747 N   0  0  0  0  0  0  0  0  0  0  0  0
  -28.7943  -22.8581   25.8356 N   0  0  0  0  0  0  0  0  0  0  0  0
  -30.0906  -12.6417   20.4317 N   0  0  0  0  0  0  0  0  0  0  0  0
  -34.9565  -11.6399   24.6424 N   0  0  0  0  0  0  0  0  0  0  0  0
  -25.4046  -15.1023   20.4288 N   0  0  0  0  0  0  0  0  0  0  0  0
  -21.7913  -12.5271   21.2704 N   0  0  0  0  0  0  0  0  0  0  0  0
  -30.6831  -12.9127   22.6984 N   0  0  0  0  0  0  0  0  0  0  0  0
  -30.2974  -25.5384   27.6485 N   0  0  0  0  0  0  0  0  0  0  0  0
  -26.4104  -22.2520   23.5100 N   0  0  0  0  0  0  0  0  0  0  0  0
  -30.5101  -11.1735   28.0365 N   0  3  0  0  0  0  0  0  0  0  0  0
  -27.1740  -19.6366   21.1342 N   0  3  0  0  0  0  0  0  0  0  0  0
  -22.5151  -14.6847   20.9881 O   0  0  0  0  0  0  0  0  0  0  0  0
  -29.0546  -23.6927   28.3351 O   0  0  0  0  0  0  0  0  0  0  0  0
  -27.9064  -24.5082   24.4482 O   0  0  0  0  0  0  0  0  0  0  0  0
  -26.6329  -19.9728   23.8748 O   0  0  0  0  0  0  0  0  0  0  0  0
  -32.2391  -13.2651   21.0143 O   0  0  0  0  0  0  0  0  0  0  0  0
  -21.7177   -6.9674   21.6147 O   0  0  0  0  0  0  0  0  0  0  0  0
  -30.8524  -17.8394   28.7733 O   0  0  0  0  0  0  0  0  0  1  0  0
  -18.1567   -6.8795   25.8238 F   0  0  0  0  0  0  0  0  0  0  0  0
  -21.9881   -5.1308   23.6632 F   0  0  0  0  0  0  0  0  0  0  0  0
  1  2  1  0  0  0  0
  1  5  2  0  0  0  0
  2  6  2  0  0  0  0
  3  8  2  0  0  0  0
  3 18  1  0  0  0  0
  4  9  1  0  0  0  0
  4 18  2  0  0  0  0
  5 21  1  0  0  0  0
  6 23  1  0  0  0  0
  7 10  2  0  0  0  0
  7 22  1  0  0  0  0
  8 27  1  0  0  0  0
  9 27  2  0  0  0  0
 10 28  1  0  0  0  0
 11 12  2  0  0  0  0
 11 29  1  0  0  0  0
 12 30  1  0  0  0  0
 13 19  1  0  0  0  0
 13 25  2  0  0  0  0
 14 19  2  0  0  0  0
 14 26  1  0  0  0  0
 15 24  1  0  0  0  0
 15 28  2  0  0  0  0
 16 25  1  0  0  0  0
 16 26  2  0  0  0  0
 17 30  2  0  0  0  0
 17 31  1  0  0  0  0
 18 32  1  0  0  0  0
 19 36  1  0  0  0  0
 20 32  1  0  0  0  0
 20 33  2  0  0  0  0
 20 37  1  0  0  0  0
 21 23  2  0  0  0  0
 21 42  1  0  0  0  0
 22 24  2  0  0  0  0
 22 43  1  0  0  0  0
 23 53  1  0  0  0  0
 24 44  1  0  0  0  0
 25 70  1  0  0  0  0
 26 73  1  0  0  0  0
 27 83  1  0  0  0  0
 28 84  1  0  0  0  0
 29 31  2  0  0  0  0
 29 83  1  0  0  0  0
 30 85  1  0  0  0  0
 31 86  1  0  0  0  0
 32 65  2  0  0  0  0
 33 66  1  0  0  0  0
 33 71  1  0  0  0  0
 34 35  2  0  0  0  0
 34 67  1  0  0  0  0
 35 45  1  0  0  0  0
 35 61  1  0  0  0  0
 36 67  1  0  0  0  0
 36 76  2  0  0  0  0
 37 72  1  0  0  0  0
 37 78  2  0  0  0  0
 38 54  1  0  0  0  0
 38 74  1  0  0  0  0
 38 79  2  0  0  0  0
 39 62  1  0  0  0  0
 39 68  1  0  0  0  0
 39 80  2  0  0  0  0
 40 63  1  0  0  0  0
 40 75  1  0  0  0  0
 40 81  2  0  0  0  0
 41 69  1  0  0  0  0
 41 73  1  0  0  0  0
 41 82  2  0  0  0  0
 42 46  1  0  0  0  0
 43 54  1  0  0  0  0
 44 68  1  0  0  0  0
 45 50  1  0  0  0  0
 46 48  1  0  0  0  0
 47 49  1  0  0  0  0
 47 51  1  0  0  0  0
 48 53  1  0  0  0  0
 49 55  1  0  0  0  0
 50 67  1  0  0  0  0
 51 69  1  0  0  0  0
 52 55  1  0  0  0  0
 52 69  1  0  0  0  0
 53 74  1  0  0  0  0
 54 68  1  0  0  0  0
 55 66  1  0  0  0  0
 56 63  1  0  0  0  0
 57 64  1  0  0  0  0
 58 64  1  0  0  0  0
 59 64  1  0  0  0  0
 60 77  1  0  0  0  0
 61 84  1  0  0  0  0
 62 64  1  0  0  0  0
 62 75  1  0  0  0  0
 63 77  1  0  0  0  0
 65 66  1  0  0  0  0
M  CHG  2  76   1  77   1
M  ISO  4  41 100  61 101  73 100  84 101
M  END
> <Batch ID>
0155

> <Smiles>
CNC(C)C(=O)NC(C(=O)N1Cc2cc([101O:1][101CH2:1]C3=CN(C(=N)c4cc(N)cc([100NH:0][100C:0](=O)N5CCCC(n6nc(-c7ccc(Oc8ccc(F)cc8F)cc7)c(C(N)=O)c6N)C5)c4)CC3)ccc2CC1C(=O)NC1CCCc2ccccc21)C(C)(C)C

> <Shape>
0.140

> <Color>
0.164

> <Negative vol penalty>
0.000

$$$$

  -OEChem-04052303363D

 85 93  0     1  0  0  0  0  0999 V2000
  -27.8959  -25.0610   16.3086 C   0  0  0  0  0  0  0  0  0  0  0  0
  -26.7794  -25.7875   16.7070 C   0  0  0  0  0  0  0  0  0  0  0  0
  -26.2131  -20.3547   20.2309 C   0  0  0  0  0  0  0  0  0  0  0  0
  -27.1320  -21.5829   18.3643 C   0  0  0  0  0  0  0  0  0  0  0  0
  -29.0180  -25.0072   17.1326 C   0  0  0  0  0  0  0  0  0  0  0  0
  -26.7891  -26.4700   17.9239 C   0  0  0  0  0  0  0  0  0  0  0  0
  -22.9464  -29.3895   18.8796 C   0  0  0  0  0  0  0  0  0  0  0  0
  -27.4499  -19.7439   20.4379 C   0  0  0  0  0  0  0  0  0  0  0  0
  -28.3689  -20.9722   18.5713 C   0  0  0  0  0  0  0  0  0  0  0  0
  -21.6817  -28.8928   19.1917 C   0  0  0  0  0  0  0  0  0  0  0  0
  -30.2714  -17.5920   21.2329 C   0  0  0  0  0  0  0  0  0  0  0  0
  -30.2864  -16.2168   21.4659 C   0  0  0  0  0  0  0  0  0  0  0  0
  -22.0580  -29.4120   21.5172 C   0  0  0  0  0  0  0  0  0  0  0  0
  -17.3174  -22.3706   19.7616 C   0  0  0  0  0  0  0  0  0  0  0  0
  -29.2555  -15.8408   19.3135 C   0  0  0  0  0  0  0  0  0  0  0  0
  -15.9834  -22.4744   21.5465 C   0  0  0  0  0  0  0  0  0  0  0  0
  -26.0541  -21.2742   19.1940 C   0  0  0  0  0  0  0  0  0  0  0  0
  -24.3174  -23.1093   19.5455 C   0  0  0  0  0  0  0  0  0  0  0  0
  -29.0360  -25.6794   18.3658 C   0  0  0  0  0  0  0  0  0  0  0  0
  -23.7822  -29.8921   19.8873 C   0  0  0  0  0  0  0  0  0  0  0  0
  -27.9211  -26.4475   18.7587 C   0  0  0  0  0  0  0  0  0  0  0  0
  -23.3320  -29.9169   21.2150 C   0  0  0  0  0  0  0  0  0  0  0  0
  -16.7981  -23.2428   20.7479 C   0  0  0  0  0  0  0  0  0  0  0  0
  -28.5278  -20.0527   19.6081 C   0  0  0  0  0  0  0  0  0  0  0  0
  -21.2384  -28.9013   20.5110 C   0  0  0  0  0  0  0  0  0  0  0  0
  -29.7484  -18.0916   20.0402 C   0  0  0  0  0  0  0  0  0  0  0  0
  -29.7785  -15.3412   20.5062 C   0  0  0  0  0  0  0  0  0  0  0  0
  -29.2404  -17.2160   19.0805 C   0  0  0  0  0  0  0  0  0  0  0  0
  -24.7766  -21.9050   18.9793 C   0  0  0  0  0  0  0  0  0  0  0  0
  -16.7832  -21.1313   20.0280 C   0  0  0  0  0  0  0  0  0  0  0  0
  -23.0548  -23.2717   19.0297 C   0  0  0  0  0  0  0  0  0  0  0  0
  -24.9734  -24.0015   20.4561 C   0  0  0  0  0  0  0  0  0  0  0  0
  -26.6374  -29.0980   21.0367 C   0  0  0  0  0  0  0  0  0  0  0  0
  -18.5430  -26.4843   20.7887 C   0  0  0  0  0  0  0  0  0  0  0  0
  -26.2667  -31.8190   22.7634 C   0  0  0  0  0  0  0  0  0  0  0  0
  -19.1122  -18.6105   19.2040 C   0  0  0  0  0  0  0  0  0  0  0  0
  -24.1455  -34.1167   24.1300 C   0  0  0  0  0  0  0  0  0  0  0  0
  -18.4221  -20.2441   17.5020 C   0  0  0  0  0  0  0  0  0  0  0  0
  -30.2798  -25.5937   19.2148 C   0  0  0  0  0  0  0  0  0  0  0  0
  -25.1332  -30.4489   19.5306 C   0  0  0  0  0  0  0  0  0  0  0  0
  -24.1827  -30.4642   22.3308 C   0  0  0  0  0  0  0  0  0  0  0  0
  -30.0334  -25.9761   20.6706 C   0  0  0  0  0  0  0  0  0  0  0  0
  -20.6373  -21.5340   15.0931 C   0  0  0  0  0  0  0  0  0  0  0  0
  -29.2817  -27.2969   20.7410 C   0  0  0  0  0  0  0  0  0  0  0  0
  -21.8948  -21.8700   15.8941 C   0  0  0  0  0  0  0  0  0  0  0  0
  -20.0005  -20.2397   15.5869 C   0  0  0  0  0  0  0  0  0  0  0  0
  -20.9242  -20.5827   17.8583 C   0  0  0  0  0  0  0  0  0  0  0  0
  -27.8974  -27.1727   20.0920 C   0  0  1  0  0  0  0  0  0  0  0  0
  -26.1033  -30.4634   20.7079 C   0  0  1  0  0  0  0  0  0  0  0  0
  -21.5985  -21.8918   17.4040 C   0  0  1  0  0  0  0  0  0  0  0  0
  -19.2938  -18.5070   20.6999 C   0  0  0  0  0  0  0  0  0  0  0  0
  -24.1351  -36.2076   25.5175 C   0  0  0  0  0  0  0  0  0  0  0  0
  -26.8249  -30.1603   25.2629 C   0  0  0  0  0  0  0  0  0  0  0  0
  -25.8815  -32.0326   26.6313 C   0  0  0  0  0  0  0  0  0  0  0  0
  -27.9164  -32.4103   25.2387 C   0  0  0  0  0  0  0  0  0  0  0  0
  -22.8720  -35.6845   21.9669 C   0  0  0  0  0  0  0  0  0  0  0  0
  -16.9258  -19.7882   19.3723 C   0  0  0  0  0  0  0  0  0  0  0  0
  -17.9225  -25.3442   20.0094 C   0  0  0  0  0  0  0  0  0  0  0  0
  -19.4834  -27.3785   20.0042 C   0  0  0  0  0  0  0  0  0  1  0  0
  -25.6694  -32.1592   24.1074 C   0  0  1  0  0  0  0  0  0  0  0  0
  -24.1556  -35.6346   24.1090 C   0  0  2  0  0  0  0  0  0  0  0  0
  -26.5575  -31.6784   25.2896 C   0  0  0  0  0  0  0  0  0  0  0  0
  -23.8788  -21.3421   18.1663 N   0  0  0  0  0  0  0  0  0  0  0  0
  -22.8427  -22.1965   18.2179 N   0  0  0  0  0  0  0  0  0  0  0  0
  -25.4983  -30.9915   21.9323 N   0  0  0  0  0  0  0  0  0  0  0  0
  -19.7451  -20.2939   17.0267 N   0  0  0  0  0  0  0  0  0  0  0  0
  -22.1164  -24.2279   19.1960 N   0  0  0  0  0  0  0  0  0  0  0  0
  -26.2691  -23.6839   20.8858 N   0  0  0  0  0  0  0  0  0  0  0  0
  -17.0462  -24.5604   20.8839 N   0  0  0  0  0  0  0  0  0  0  0  0
  -27.3036  -28.4876   19.9912 N   0  0  0  0  0  0  0  0  0  0  0  0
  -25.4221  -33.5969   24.0921 N   0  0  0  0  0  0  0  0  0  0  0  0
  -18.2386  -19.6183   18.7539 N   0  0  0  0  0  0  0  0  0  0  0  0
  -22.9659  -36.1503   23.3745 N   0  3  0  0  0  0  0  0  0  0  0  0
  -24.4206  -25.0410   20.8890 O   0  0  0  0  0  0  0  0  0  0  0  0
  -26.4596  -28.6333   22.1566 O   0  0  0  0  0  0  0  0  0  0  0  0
  -18.3075  -26.6816   21.9801 O   0  0  0  0  0  0  0  0  0  0  0  0
  -27.3712  -32.2764   22.4592 O   0  0  0  0  0  0  0  0  0  0  0  0
  -19.7174  -17.8326   18.4624 O   0  0  0  0  0  0  0  0  0  0  0  0
  -23.1090  -33.4581   24.1793 O   0  0  0  0  0  0  0  0  0  0  0  0
  -17.4637  -20.6828   16.8558 O   0  0  0  0  0  0  0  0  0  0  0  0
  -15.9689  -21.1861   21.1145 O   0  0  0  0  0  0  0  0  0  0  0  0
  -29.7349  -19.4570   19.8099 O   0  0  0  0  0  0  0  0  0  0  0  0
  -19.9918  -28.4114   20.8215 O   0  0  0  0  0  0  0  0  0  1  0  0
  -29.7944  -14.0206   20.7295 F   0  0  0  0  0  0  0  0  0  0  0  0
  -28.7378  -17.6900   17.9322 F   0  0  0  0  0  0  0  0  0  0  0  0
  1  2  1  0  0  0  0
  1  5  2  0  0  0  0
  2  6  2  0  0  0  0
  3  8  2  0  0  0  0
  3 17  1  0  0  0  0
  4  9  1  0  0  0  0
  4 17  2  0  0  0  0
  5 19  1  0  0  0  0
  6 21  1  0  0  0  0
  7 10  2  0  0  0  0
  7 20  1  0  0  0  0
  8 24  1  0  0  0  0
  9 24  2  0  0  0  0
 10 25  1  0  0  0  0
 11 12  2  0  0  0  0
 11 26  1  0  0  0  0
 12 27  1  0  0  0  0
 13 22  1  0  0  0  0
 13 25  2  0  0  0  0
 14 23  1  0  0  0  0
 14 30  2  0  0  0  0
 15 27  2  0  0  0  0
 15 28  1  0  0  0  0
 16 23  2  0  0  0  0
 16 81  1  0  0  0  0
 17 29  1  0  0  0  0
 18 29  1  0  0  0  0
 18 31  2  0  0  0  0
 18 32  1  0  0  0  0
 19 21  2  0  0  0  0
 19 39  1  0  0  0  0
 20 22  2  0  0  0  0
 20 40  1  0  0  0  0
 21 48  1  0  0  0  0
 22 41  1  0  0  0  0
 23 69  1  0  0  0  0
 24 82  1  0  0  0  0
 25 83  1  0  0  0  0
 26 28  2  0  0  0  0
 26 82  1  0  0  0  0
 27 84  1  0  0  0  0
 28 85  1  0  0  0  0
 29 63  2  0  0  0  0
 30 57  1  0  0  0  0
 30 81  1  0  0  0  0
 31 64  1  0  0  0  0
 31 67  1  0  0  0  0
 32 68  1  0  0  0  0
 32 74  2  0  0  0  0
 33 49  1  0  0  0  0
 33 70  1  0  0  0  0
 33 75  2  0  0  0  0
 34 58  1  0  0  0  0
 34 59  1  0  0  0  0
 34 76  2  0  0  0  0
 35 60  1  0  0  0  0
 35 65  1  0  0  0  0
 35 77  2  0  0  0  0
 36 51  1  0  0  0  0
 36 72  1  0  0  0  0
 36 78  2  0  0  0  0
 37 61  1  0  0  0  0
 37 71  1  0  0  0  0
 37 79  2  0  0  0  0
 38 66  1  0  0  0  0
 38 72  1  0  0  0  0
 38 80  2  0  0  0  0
 39 42  1  0  0  0  0
 40 49  1  0  0  0  0
 41 65  1  0  0  0  0
 42 44  1  0  0  0  0
 43 45  1  0  0  0  0
 43 46  1  0  0  0  0
 44 48  1  0  0  0  0
 45 50  1  0  0  0  0
 46 66  1  0  0  0  0
 47 50  1  0  0  0  0
 47 66  1  0  0  0  0
 48 70  1  0  0  0  0
 49 65  1  0  0  0  0
 50 64  1  0  0  0  0
 52 61  1  0  0  0  0
 53 62  1  0  0  0  0
 54 62  1  0  0  0  0
 55 62  1  0  0  0  0
 56 73  1  0  0  0  0
 57 72  1  0  0  0  0
 58 69  1  0  0  0  0
 59 83  1  0  0  0  0
 60 62  1  0  0  0  0
 60 71  1  0  0  0  0
 61 73  1  0  0  0  0
 63 64  1  0  0  0  0
M  CHG  1  73   1
M  ISO  4  38 100  59 101  72 100  83 101
M  END
> <Batch ID>
0155

> <Smiles>
CNC(C)C(=O)NC(C(=O)N1Cc2cc([101O:1][101CH2:1]C(=O)CNc3coc(C[100N:0](C(C)=O)[100C:0](=O)N4CCCC(n5nc(-c6ccc(Oc7ccc(F)cc7F)cc6)c(C(N)=O)c5N)C4)c3)ccc2CC1C(=O)NC1CCCc2ccccc21)C(C)(C)C

> <Shape>
0.251

> <Color>
0.060

> <Negative vol penalty>
0.000

$$$$

  -OEChem-04052303363D

 87 96  0     1  0  0  0  0  0999 V2000
  -17.8410  -33.1681   22.5935 C   0  0  0  0  0  0  0  0  0  0  0  0
  -18.9791  -33.1688   21.7934 C   0  0  0  0  0  0  0  0  0  0  0  0
  -25.4070  -12.8130   21.9834 C   0  0  0  0  0  0  0  0  0  0  0  0
  -25.9916  -13.2422   19.6789 C   0  0  0  0  0  0  0  0  0  0  0  0
  -17.7901  -32.3627   23.7305 C   0  0  0  0  0  0  0  0  0  0  0  0
  -20.0675  -32.3650   22.1305 C   0  0  0  0  0  0  0  0  0  0  0  0
  -25.3526  -28.5763   19.1254 C   0  0  0  0  0  0  0  0  0  0  0  0
  -24.4319  -11.9066   21.5673 C   0  0  0  0  0  0  0  0  0  0  0  0
  -25.0165  -12.3358   19.2627 C   0  0  0  0  0  0  0  0  0  0  0  0
  -26.7380  -28.4295   19.1795 C   0  0  0  0  0  0  0  0  0  0  0  0
  -24.3075   -8.7105   20.4707 C   0  0  0  0  0  0  0  0  0  0  0  0
  -24.2320   -7.4879   21.1378 C   0  0  0  0  0  0  0  0  0  0  0  0
  -29.4875  -22.3156   18.9928 C   0  0  0  0  0  0  0  0  0  0  0  0
  -26.5066  -27.0195   21.1231 C   0  0  0  0  0  0  0  0  0  0  0  0
  -29.8906  -21.1726   16.4801 C   0  0  0  0  0  0  0  0  0  0  0  0
  -21.9596   -7.9846   21.7910 C   0  0  0  0  0  0  0  0  0  0  0  0
  -26.1868  -13.4808   21.0392 C   0  0  0  0  0  0  0  0  0  0  0  0
  -30.3771  -22.9037   18.0938 C   0  0  0  0  0  0  0  0  0  0  0  0
  -28.5433  -14.1414   21.7592 C   0  0  0  0  0  0  0  0  0  0  0  0
  -18.8747  -31.5413   24.0764 C   0  0  0  0  0  0  0  0  0  0  0  0
  -24.5331  -27.9536   20.0779 C   0  0  0  0  0  0  0  0  0  0  0  0
  -20.0316  -31.5489   23.2739 C   0  0  0  0  0  0  0  0  0  0  0  0
  -25.1110  -27.1579   21.0774 C   0  0  0  0  0  0  0  0  0  0  0  0
  -28.7995  -21.1559   18.6356 C   0  0  0  0  0  0  0  0  0  0  0  0
  -30.5786  -22.3323   16.8374 C   0  0  0  0  0  0  0  0  0  0  0  0
  -24.2366  -11.6680   20.2069 C   0  0  0  0  0  0  0  0  0  0  0  0
  -27.3154  -27.6534   20.1801 C   0  0  0  0  0  0  0  0  0  0  0  0
  -23.2091   -9.5702   20.4638 C   0  0  0  0  0  0  0  0  0  0  0  0
  -23.0581   -7.1249   21.7979 C   0  0  0  0  0  0  0  0  0  0  0  0
  -29.0010  -20.5845   17.3792 C   0  0  0  0  0  0  0  0  0  0  0  0
  -22.0352   -9.2073   21.1239 C   0  0  0  0  0  0  0  0  0  0  0  0
  -27.1939  -14.4177   21.4685 C   0  0  0  0  0  0  0  0  0  0  0  0
  -29.0728  -15.3565   22.1190 C   0  0  0  0  0  0  0  0  0  0  0  0
  -31.0929  -24.1278   18.4955 C   0  0  0  0  0  0  0  0  0  0  0  0
  -29.2546  -12.8975   21.7084 C   0  0  0  0  0  0  0  0  0  0  0  0
  -22.4918  -28.9733   22.2908 C   0  0  0  0  0  0  0  0  0  0  0  0
  -21.8940  -25.8044   22.6418 C   0  0  0  0  0  0  0  0  0  0  0  0
  -22.9881  -22.5922   22.2798 C   0  0  0  0  0  0  0  0  0  0  0  0
  -27.5834  -20.9994   20.8363 C   0  0  0  0  0  0  0  0  0  0  0  0
  -18.7916  -30.7235   25.3409 C   0  0  0  0  0  0  0  0  0  0  0  0
  -23.0387  -28.1001   19.9899 C   0  0  0  0  0  0  0  0  0  0  0  0
  -24.2741  -26.4518   22.1116 C   0  0  0  0  0  0  0  0  0  0  0  0
  -19.8420  -29.6188   25.4219 C   0  0  0  0  0  0  0  0  0  0  0  0
  -27.8363  -19.5481   24.0777 C   0  0  0  0  0  0  0  0  0  0  0  0
  -21.2158  -30.1593   25.0381 C   0  0  0  0  0  0  0  0  0  0  0  0
  -27.8292  -18.0426   23.8024 C   0  0  0  0  0  0  0  0  0  0  0  0
  -26.9111  -20.3032   23.1250 C   0  0  0  0  0  0  0  0  0  0  0  0
  -27.1341  -18.5358   21.4233 C   0  0  0  0  0  0  0  0  0  0  0  0
  -28.9912  -25.4401   18.8454 C   0  0  0  0  0  0  0  0  0  0  0  0
  -21.2230  -30.6720   23.5929 C   0  0  1  0  0  0  0  0  0  0  0  0
  -22.3336  -27.8397   21.3174 C   0  0  1  0  0  0  0  0  0  0  0  0
  -28.1007  -17.7403   22.3157 C   0  0  2  0  0  0  0  0  0  0  0  0
  -29.3052  -26.9238   19.1011 C   0  0  2  0  0  0  0  0  0  1  0  0
  -30.7979  -26.5166   19.2612 C   0  0  0  0  0  0  0  0  0  0  0  0
  -31.3492  -26.4646   20.6793 C   0  0  0  0  0  0  0  0  0  0  0  0
  -31.7416  -27.1940   18.2780 C   0  0  0  0  0  0  0  0  0  0  0  0
  -22.2926  -20.2162   22.6900 C   0  0  0  0  0  0  0  0  0  0  0  0
  -22.4629  -26.1544   25.6190 C   0  0  0  0  0  0  0  0  0  0  0  0
  -22.6906  -23.6675   25.7967 C   0  0  0  0  0  0  0  0  0  0  0  0
  -20.5176  -24.6723   25.0958 C   0  0  0  0  0  0  0  0  0  0  0  0
  -23.1434  -21.9274   19.4000 C   0  0  0  0  0  0  0  0  0  0  0  0
  -22.4694  -24.6953   23.4890 C   0  0  1  0  0  0  0  0  0  0  0  0
  -22.3226  -21.3617   21.6902 C   0  0  2  0  0  0  0  0  0  0  0  0
  -22.0513  -24.8121   24.9819 C   0  0  0  0  0  0  0  0  0  0  0  0
  -26.8852  -15.7071   21.6299 N   0  0  0  0  0  0  0  0  0  0  0  0
  -28.0482  -16.2519   22.0259 N   0  0  0  0  0  0  0  0  0  0  0  0
  -30.4109  -25.1956   18.8092 N   0  0  0  0  0  0  0  0  0  0  0  0
  -22.8181  -26.6310   21.9872 N   0  0  0  0  0  0  0  0  0  0  0  0
  -27.2297  -19.9706   21.7348 N   0  0  0  0  0  0  0  0  0  0  0  0
  -31.4764  -22.9130   15.9143 N   0  0  0  0  0  0  0  0  0  0  0  0
  -30.3103  -15.7358   22.5028 N   0  0  0  0  0  0  0  0  0  0  0  0
  -28.5586  -11.7453   21.3180 N   0  0  0  0  0  0  0  0  0  0  0  0
  -27.8969  -20.5595   19.5506 N   0  0  0  0  0  0  0  0  0  0  0  0
  -21.3000  -29.5647   22.6642 N   0  0  0  0  0  0  0  0  0  0  0  0
  -22.0686  -23.4454   22.8522 N   0  0  0  0  0  0  0  0  0  0  0  0
  -32.4221  -24.1246   18.5339 N   0  3  0  0  0  0  0  0  0  0  0  0
  -23.0575  -20.9069   20.4762 N   0  3  0  0  0  0  0  0  0  0  0  0
  -30.4673  -12.8074   22.0164 O   0  0  0  0  0  0  0  0  0  0  0  0
  -23.6120  -29.2872   22.6758 O   0  0  0  0  0  0  0  0  0  0  0  0
  -20.6695  -25.9283   22.5580 O   0  0  0  0  0  0  0  0  0  0  0  0
  -24.2027  -22.7761   22.2400 O   0  0  0  0  0  0  0  0  0  0  0  0
  -27.6330  -22.1805   21.1891 O   0  0  0  0  0  0  0  0  0  0  0  0
  -23.2854  -10.7834   19.8004 O   0  0  0  0  0  0  0  0  0  0  0  0
  -28.6674  -27.5089   20.2356 O   0  0  0  0  0  0  0  0  0  1  0  0
  -22.9852   -5.9500   22.4372 F   0  0  0  0  0  0  0  0  0  0  0  0
  -28.3455  -19.4700   17.0248 F   0  0  0  0  0  0  0  0  0  0  0  0
  -20.9762  -10.0285   21.1198 F   0  0  0  0  0  0  0  0  0  0  0  0
  1  2  1  0  0  0  0
  1  5  2  0  0  0  0
  2  6  2  0  0  0  0
  3  8  2  0  0  0  0
  3 17  1  0  0  0  0
  4  9  1  0  0  0  0
  4 17  2  0  0  0  0
  5 20  1  0  0  0  0
  6 22  1  0  0  0  0
  7 10  2  0  0  0  0
  7 21  1  0  0  0  0
  8 26  1  0  0  0  0
  9 26  2  0  0  0  0
 10 27  1  0  0  0  0
 11 12  2  0  0  0  0
 11 28  1  0  0  0  0
 12 29  1  0  0  0  0
 13 18  1  0  0  0  0
 13 24  2  0  0  0  0
 14 23  1  0  0  0  0
 14 27  2  0  0  0  0
 15 25  1  0  0  0  0
 15 30  2  0  0  0  0
 16 29  2  0  0  0  0
 16 31  1  0  0  0  0
 17 32  1  0  0  0  0
 18 25  2  0  0  0  0
 18 34  1  0  0  0  0
 19 32  1  0  0  0  0
 19 33  2  0  0  0  0
 19 35  1  0  0  0  0
 20 22  2  0  0  0  0
 20 40  1  0  0  0  0
 21 23  2  0  0  0  0
 21 41  1  0  0  0  0
 22 50  1  0  0  0  0
 23 42  1  0  0  0  0
 24 30  1  0  0  0  0
 24 73  1  0  0  0  0
 25 70  1  0  0  0  0
 26 83  1  0  0  0  0
 27 84  1  0  0  0  0
 28 31  2  0  0  0  0
 28 83  1  0  0  0  0
 29 85  1  0  0  0  0
 30 86  1  0  0  0  0
 31 87  1  0  0  0  0
 32 65  2  0  0  0  0
 33 66  1  0  0  0  0
 33 71  1  0  0  0  0
 34 67  1  0  0  0  0
 34 76  2  0  0  0  0
 35 72  1  0  0  0  0
 35 78  2  0  0  0  0
 36 51  1  0  0  0  0
 36 74  1  0  0  0  0
 36 79  2  0  0  0  0
 37 62  1  0  0  0  0
 37 68  1  0  0  0  0
 37 80  2  0  0  0  0
 38 63  1  0  0  0  0
 38 75  1  0  0  0  0
 38 81  2  0  0  0  0
 39 69  1  0  0  0  0
 39 73  1  0  0  0  0
 39 82  2  0  0  0  0
 40 43  1  0  0  0  0
 41 51  1  0  0  0  0
 42 68  1  0  0  0  0
 43 45  1  0  0  0  0
 44 46  1  0  0  0  0
 44 47  1  0  0  0  0
 45 50  1  0  0  0  0
 46 52  1  0  0  0  0
 47 69  1  0  0  0  0
 48 52  1  0  0  0  0
 48 69  1  0  0  0  0
 49 53  1  0  0  0  0
 49 67  1  0  0  0  0
 50 74  1  0  0  0  0
 51 68  1  0  0  0  0
 52 66  1  0  0  0  0
 53 54  1  0  0  0  0
 53 84  1  0  0  0  0
 54 55  1  0  0  0  0
 54 56  1  0  0  0  0
 54 67  1  0  0  0  0
 57 63  1  0  0  0  0
 58 64  1  0  0  0  0
 59 64  1  0  0  0  0
 60 64  1  0  0  0  0
 61 77  1  0  0  0  0
 62 64  1  0  0  0  0
 62 75  1  0  0  0  0
 63 77  1  0  0  0  0
 65 66  1  0  0  0  0
M  CHG  2  76   1  77   1
M  ISO  4  39 100  53 101  73 100  84 101
M  END
> <Batch ID>
0155

> <Smiles>
CNC(C)C(=O)NC(C(=O)N1Cc2cc([101O:1][101CH:1]3CN(C(=N)c4cc([100NH:0][100C:0](=O)N5CCCC(n6nc(-c7ccc(Oc8ccc(F)cc8F)cc7)c(C(N)=O)c6N)C5)c(F)cc4N)C3(C)C)ccc2CC1C(=O)NC1CCCc2ccccc21)C(C)(C)C

> <Shape>
0.250

> <Color>
0.075

> <Negative vol penalty>
0.000

$$$$

  -OEChem-04052303363D

 84 93  0     1  0  0  0  0  0999 V2000
  -18.5650  -29.6037   26.5662 C   0  0  0  0  0  0  0  0  0  0  0  0
  -19.9085  -29.2445   26.6017 C   0  0  0  0  0  0  0  0  0  0  0  0
  -23.9229   -9.9076   22.2416 C   0  0  0  0  0  0  0  0  0  0  0  0
  -24.3631  -11.4898   24.0137 C   0  0  0  0  0  0  0  0  0  0  0  0
  -17.8440  -29.4850   25.3788 C   0  0  0  0  0  0  0  0  0  0  0  0
  -20.5316  -28.7652   25.4500 C   0  0  0  0  0  0  0  0  0  0  0  0
  -26.8800  -28.7511   22.1312 C   0  0  0  0  0  0  0  0  0  0  0  0
  -23.4370   -8.9946   23.1775 C   0  0  0  0  0  0  0  0  0  0  0  0
  -23.8770  -10.5768   24.9495 C   0  0  0  0  0  0  0  0  0  0  0  0
  -27.7997  -27.8666   21.5693 C   0  0  0  0  0  0  0  0  0  0  0  0
  -20.5891   -8.5046   24.9331 C   0  0  0  0  0  0  0  0  0  0  0  0
  -19.4000   -7.8399   24.6333 C   0  0  0  0  0  0  0  0  0  0  0  0
  -30.7311  -18.8852   19.7851 C   0  0  0  0  0  0  0  0  0  0  0  0
  -26.4753  -27.7788   19.5550 C   0  0  0  0  0  0  0  0  0  0  0  0
  -28.3221  -19.3282   19.8047 C   0  0  0  0  0  0  0  0  0  0  0  0
  -20.5528   -5.7205   24.7604 C   0  0  0  0  0  0  0  0  0  0  0  0
  -24.3861  -11.1552   22.6597 C   0  0  0  0  0  0  0  0  0  0  0  0
  -24.1537  -13.0792   21.0008 C   0  0  0  0  0  0  0  0  0  0  0  0
  -18.4611  -29.0132   24.2095 C   0  0  0  0  0  0  0  0  0  0  0  0
  -25.7435  -29.1482   21.4121 C   0  0  0  0  0  0  0  0  0  0  0  0
  -19.8179  -28.6388   24.2461 C   0  0  0  0  0  0  0  0  0  0  0  0
  -30.9041  -20.2381   19.9014 C   0  0  0  0  0  0  0  0  0  0  0  0
  -25.5441  -28.6704   20.1090 C   0  0  0  0  0  0  0  0  0  0  0  0
  -29.8344  -21.1013   19.9508 C   0  0  0  0  0  0  0  0  0  0  0  0
  -29.4099  -18.4270   19.7302 C   0  0  0  0  0  0  0  0  0  0  0  0
  -28.5337  -20.7047   19.9240 C   0  0  0  0  0  0  0  0  0  0  0  0
  -23.4140   -9.3292   24.5314 C   0  0  0  0  0  0  0  0  0  0  0  0
  -27.5959  -27.3781   20.2821 C   0  0  0  0  0  0  0  0  0  0  0  0
  -21.7600   -7.7773   25.1465 C   0  0  0  0  0  0  0  0  0  0  0  0
  -19.3819   -6.4479   24.5470 C   0  0  0  0  0  0  0  0  0  0  0  0
  -21.7419   -6.3852   25.0602 C   0  0  0  0  0  0  0  0  0  0  0  0
  -24.8888  -12.0986   21.6935 C   0  0  0  0  0  0  0  0  0  0  0  0
  -25.0826  -13.7090   20.2090 C   0  0  0  0  0  0  0  0  0  0  0  0
  -22.7562  -13.3928   21.0673 C   0  0  0  0  0  0  0  0  0  0  0  0
  -22.6067  -28.8515   21.8315 C   0  0  0  0  0  0  0  0  0  0  0  0
  -29.5709  -24.3542   19.9384 C   0  0  0  0  0  0  0  0  0  0  0  0
  -22.4694  -30.7613   19.2131 C   0  0  0  0  0  0  0  0  0  0  0  0
  -23.9938  -31.9169   16.3869 C   0  0  0  0  0  0  0  0  0  0  0  0
  -30.0969  -16.0165   19.4775 C   0  0  0  0  0  0  0  0  0  0  0  0
  -17.6287  -28.8575   22.9615 C   0  0  0  0  0  0  0  0  0  0  0  0
  -24.7749  -30.1238   22.0223 C   0  0  0  0  0  0  0  0  0  0  0  0
  -31.8318  -21.3923   20.0807 C   0  0  0  0  0  0  0  0  0  0  0  0
  -24.3507  -29.0818   19.2875 C   0  0  0  0  0  0  0  0  0  0  0  0
  -18.4597  -28.6949   21.6913 C   0  0  0  0  0  0  0  0  0  0  0  0
  -29.8746  -12.4792   19.1386 C   0  0  0  0  0  0  0  0  0  0  0  0
  -19.5743  -27.6766   21.9093 C   0  0  0  0  0  0  0  0  0  0  0  0
  -28.4972  -12.1455   19.7161 C   0  0  0  0  0  0  0  0  0  0  0  0
  -30.5527  -13.6118   19.9074 C   0  0  0  0  0  0  0  0  0  0  0  0
  -28.3708  -14.4980   20.6309 C   0  0  0  0  0  0  0  0  0  0  0  0
  -20.5355  -28.1382   23.0114 C   0  0  1  0  0  0  0  0  0  0  0  0
  -23.3862  -30.0592   21.3939 C   0  0  1  0  0  0  0  0  0  0  0  0
  -27.6213  -13.4067   19.8492 C   0  0  2  0  0  0  0  0  0  0  0  0
  -23.6182  -33.4405   14.4285 C   0  0  0  0  0  0  0  0  0  0  0  0
  -20.6528  -28.6684   17.9364 C   0  0  0  0  0  0  0  0  0  0  0  0
  -21.0855  -29.7469   15.7187 C   0  0  0  0  0  0  0  0  0  0  0  0
  -19.9597  -31.0372   17.5327 C   0  0  0  0  0  0  0  0  0  0  0  0
  -26.2803  -33.6386   17.1396 C   0  0  0  0  0  0  0  0  0  0  0  0
  -30.3388  -23.3634   20.7873 C   0  0  0  0  0  0  0  0  0  0  0  0
  -29.1975  -25.6537   20.6247 C   0  0  0  0  0  0  0  0  0  1  0  0
  -22.4293  -30.5297   17.7219 C   0  0  1  0  0  0  0  0  0  0  0  0
  -24.1706  -33.3221   15.8405 C   0  0  2  0  0  0  0  0  0  0  0  0
  -21.0534  -29.9861   17.2434 C   0  0  0  0  0  0  0  0  0  0  0  0
  -26.1846  -12.1012   21.3700 N   0  0  0  0  0  0  0  0  0  0  0  0
  -26.2712  -13.0911   20.4653 N   0  0  0  0  0  0  0  0  0  0  0  0
  -30.6219  -22.1814   20.0240 N   0  0  2  0  0  0  0  0  0  0  0  0
  -23.4287  -30.0327   19.9305 N   0  0  0  0  0  0  0  0  0  0  0  0
  -29.6658  -14.7744   19.9895 N   0  0  0  0  0  0  0  0  0  0  0  0
  -27.4672  -21.6036   20.0275 N   0  0  0  0  0  0  0  0  0  0  0  0
  -24.9904  -14.7254   19.3253 N   0  0  0  0  0  0  0  0  0  0  0  0
  -21.9446  -12.6475   21.9333 N   0  0  0  0  0  0  0  0  0  0  0  0
  -29.1564  -17.0408   19.5818 N   0  0  0  0  0  0  0  0  0  0  0  0
  -21.4372  -29.1502   22.5043 N   0  0  0  0  0  0  0  0  0  0  0  0
  -22.8218  -31.7908   17.1022 N   0  0  0  0  0  0  0  0  0  0  0  0
  -25.6147  -33.6891   15.8124 N   0  3  0  0  0  0  0  0  0  0  0  0
  -22.2395  -14.2961   20.3669 O   0  0  0  0  0  0  0  0  0  0  0  0
  -23.0339  -27.7317   21.5764 O   0  0  0  0  0  0  0  0  0  0  0  0
  -29.2644  -24.1304   18.7680 O   0  0  0  0  0  0  0  0  0  0  0  0
  -21.6834  -31.5645   19.7217 O   0  0  0  0  0  0  0  0  0  0  0  0
  -24.8116  -31.0198   16.1949 O   0  0  0  0  0  0  0  0  0  0  0  0
  -31.2075  -16.1542   18.9584 O   0  0  0  0  0  0  0  0  0  0  0  0
  -22.9396   -8.4386   25.4449 O   0  0  0  0  0  0  0  0  0  0  0  0
  -28.4917  -26.5141   19.7315 O   0  0  0  0  0  0  0  0  0  1  0  0
  -18.2396   -5.8096   24.2606 F   0  0  0  0  0  0  0  0  0  0  0  0
  -22.8634   -5.6810   25.2654 F   0  0  0  0  0  0  0  0  0  0  0  0
  1  2  1  0  0  0  0
  1  5  2  0  0  0  0
  2  6  2  0  0  0  0
  3  8  2  0  0  0  0
  3 17  1  0  0  0  0
  4  9  1  0  0  0  0
  4 17  2  0  0  0  0
  5 19  1  0  0  0  0
  6 21  1  0  0  0  0
  7 10  2  0  0  0  0
  7 20  1  0  0  0  0
  8 27  1  0  0  0  0
  9 27  2  0  0  0  0
 10 28  1  0  0  0  0
 11 12  2  0  0  0  0
 11 29  1  0  0  0  0
 12 30  1  0  0  0  0
 13 22  1  0  0  0  0
 13 25  2  0  0  0  0
 14 23  1  0  0  0  0
 14 28  2  0  0  0  0
 15 25  1  0  0  0  0
 15 26  2  0  0  0  0
 16 30  2  0  0  0  0
 16 31  1  0  0  0  0
 17 32  1  0  0  0  0
 18 32  1  0  0  0  0
 18 33  2  0  0  0  0
 18 34  1  0  0  0  0
 19 21  2  0  0  0  0
 19 40  1  0  0  0  0
 20 23  2  0  0  0  0
 20 41  1  0  0  0  0
 21 50  1  0  0  0  0
 22 24  2  0  0  0  0
 22 42  1  0  0  0  0
 23 43  1  0  0  0  0
 24 26  1  0  0  0  0
 24 65  1  0  0  0  0
 25 71  1  0  0  0  0
 26 68  1  0  0  0  0
 27 81  1  0  0  0  0
 28 82  1  0  0  0  0
 29 31  2  0  0  0  0
 29 81  1  0  0  0  0
 30 83  1  0  0  0  0
 31 84  1  0  0  0  0
 32 63  2  0  0  0  0
 33 64  1  0  0  0  0
 33 69  1  0  0  0  0
 34 70  1  0  0  0  0
 34 75  2  0  0  0  0
 35 51  1  0  0  0  0
 35 72  1  0  0  0  0
 35 76  2  0  0  0  0
 36 58  1  0  0  0  0
 36 59  1  0  0  0  0
 36 77  2  0  0  0  0
 37 60  1  0  0  0  0
 37 66  1  0  0  0  0
 37 78  2  0  0  0  0
 38 61  1  0  0  0  0
 38 73  1  0  0  0  0
 38 79  2  0  0  0  0
 39 67  1  0  0  0  0
 39 71  1  0  0  0  0
 39 80  2  0  0  0  0
 40 44  1  0  0  0  0
 41 51  1  0  0  0  0
 42 65  1  0  0  0  0
 43 66  1  0  0  0  0
 44 46  1  0  0  0  0
 45 47  1  0  0  0  0
 45 48  1  0  0  0  0
 46 50  1  0  0  0  0
 47 52  1  0  0  0  0
 48 67  1  0  0  0  0
 49 52  1  0  0  0  0
 49 67  1  0  0  0  0
 50 72  1  0  0  0  0
 51 66  1  0  0  0  0
 52 64  1  0  0  0  0
 53 61  1  0  0  0  0
 54 62  1  0  0  0  0
 55 62  1  0  0  0  0
 56 62  1  0  0  0  0
 57 74  1  0  0  0  0
 58 65  1  0  0  0  0
 59 82  1  0  0  0  0
 60 62  1  0  0  0  0
 60 73  1  0  0  0  0
 61 74  1  0  0  0  0
 63 64  1  0  0  0  0
M  CHG  1  74   1
M  ISO  4  39 100  59 101  71 100  82 101
M  END
> <Batch ID>
0155

> <Smiles>
CNC(C)C(=O)NC(C(=O)N1Cc2cc([101O:1][101CH2:1]C(=O)CN3Cc4cc([100NH:0][100C:0](=O)N5CCCC(n6nc(-c7ccc(Oc8ccc(F)cc8F)cc7)c(C(N)=O)c6N)C5)cc(N)c43)ccc2CC1C(=O)NC1CCCc2ccccc21)C(C)(C)C

> <Shape>
0.297

> <Color>
0.153

> <Negative vol penalty>
0.000

$$$$

  -OEChem-04052303363D

 89 98  0     1  0  0  0  0  0999 V2000
  -19.8784  -29.5503   26.7984 C   0  0  0  0  0  0  0  0  0  0  0  0
  -21.1031  -29.0293   26.3932 C   0  0  0  0  0  0  0  0  0  0  0  0
  -24.5967   -9.5130   21.3096 C   0  0  0  0  0  0  0  0  0  0  0  0
  -22.5894  -10.7134   20.7039 C   0  0  0  0  0  0  0  0  0  0  0  0
  -18.8029  -29.5705   25.9115 C   0  0  0  0  0  0  0  0  0  0  0  0
  -21.2525  -28.5271   25.1009 C   0  0  0  0  0  0  0  0  0  0  0  0
  -26.2701  -28.8049   21.6006 C   0  0  0  0  0  0  0  0  0  0  0  0
  -26.9076  -20.4552   17.7062 C   0  0  0  0  0  0  0  0  0  0  0  0
  -26.2116  -19.5859   18.5461 C   0  0  0  0  0  0  0  0  0  0  0  0
  -23.8400   -8.3643   21.5409 C   0  0  0  0  0  0  0  0  0  0  0  0
  -21.8327   -9.5646   20.9351 C   0  0  0  0  0  0  0  0  0  0  0  0
  -27.2807  -27.8820   21.3348 C   0  0  0  0  0  0  0  0  0  0  0  0
  -22.3947   -5.9217   19.7030 C   0  0  0  0  0  0  0  0  0  0  0  0
  -22.8760   -4.7153   19.1946 C   0  0  0  0  0  0  0  0  0  0  0  0
  -27.5149  -20.3601   20.4274 C   0  0  0  0  0  0  0  0  0  0  0  0
  -26.1334  -27.2149   19.3204 C   0  0  0  0  0  0  0  0  0  0  0  0
  -22.9636   -3.8075   21.4319 C   0  0  0  0  0  0  0  0  0  0  0  0
  -23.9714  -10.6876   20.8912 C   0  0  0  0  0  0  0  0  0  0  0  0
  -28.2109  -21.2294   19.5874 C   0  0  0  0  0  0  0  0  0  0  0  0
  -25.3529  -12.2682   19.4418 C   0  0  0  0  0  0  0  0  0  0  0  0
  -18.9419  -29.0771   24.6047 C   0  0  0  0  0  0  0  0  0  0  0  0
  -25.1762  -28.9324   20.7324 C   0  0  0  0  0  0  0  0  0  0  0  0
  -20.1774  -28.5394   24.1961 C   0  0  0  0  0  0  0  0  0  0  0  0
  -25.1115  -28.1420   19.5760 C   0  0  0  0  0  0  0  0  0  0  0  0
  -27.9073  -21.2769   18.2268 C   0  0  0  0  0  0  0  0  0  0  0  0
  -26.5152  -19.5383   19.9067 C   0  0  0  0  0  0  0  0  0  0  0  0
  -22.4580   -8.3901   21.3536 C   0  0  0  0  0  0  0  0  0  0  0  0
  -27.2110  -27.0847   20.1961 C   0  0  0  0  0  0  0  0  0  0  0  0
  -22.1980   -6.0712   21.0758 C   0  0  0  0  0  0  0  0  0  0  0  0
  -23.1604   -3.6582   20.0590 C   0  0  0  0  0  0  0  0  0  0  0  0
  -22.4824   -5.0140   21.9403 C   0  0  0  0  0  0  0  0  0  0  0  0
  -24.7524  -11.8747   20.6527 C   0  0  0  0  0  0  0  0  0  0  0  0
  -25.9738  -13.4572   19.7369 C   0  0  0  0  0  0  0  0  0  0  0  0
  -29.2634  -22.0895   20.1571 C   0  0  0  0  0  0  0  0  0  0  0  0
  -25.3495  -11.6172   18.1643 C   0  0  0  0  0  0  0  0  0  0  0  0
  -22.0369  -28.5137   21.0032 C   0  0  0  0  0  0  0  0  0  0  0  0
  -22.0092  -29.7228   17.9933 C   0  0  0  0  0  0  0  0  0  0  0  0
  -23.6940  -30.2750   15.0773 C   0  0  0  0  0  0  0  0  0  0  0  0
  -25.9844  -18.4838   22.1321 C   0  0  0  0  0  0  0  0  0  0  0  0
  -17.7375  -29.0767   23.6969 C   0  0  0  0  0  0  0  0  0  0  0  0
  -24.1078  -29.9515   21.0193 C   0  0  0  0  0  0  0  0  0  0  0  0
  -23.9686  -28.2544   18.6016 C   0  0  0  0  0  0  0  0  0  0  0  0
  -18.0843  -28.8683   22.2249 C   0  0  0  0  0  0  0  0  0  0  0  0
  -26.8386  -15.7057   24.1887 C   0  0  0  0  0  0  0  0  0  0  0  0
  -19.0686  -27.7137   22.0667 C   0  0  0  0  0  0  0  0  0  0  0  0
  -26.4214  -14.4937   23.3525 C   0  0  0  0  0  0  0  0  0  0  0  0
  -27.8218  -24.8931   21.9056 C   0  0  0  0  0  0  0  0  0  0  0  0
  -25.8671  -16.8725   24.0202 C   0  0  0  0  0  0  0  0  0  0  0  0
  -27.6115  -23.5756   21.1732 C   0  0  0  0  0  0  0  0  0  0  0  0
  -25.1939  -16.0596   21.7942 C   0  0  0  0  0  0  0  0  0  0  0  0
  -20.3858  -28.0080   22.7945 C   0  0  1  0  0  0  0  0  0  0  0  0
  -22.7813  -29.6352   20.3354 C   0  0  1  0  0  0  0  0  0  0  0  0
  -26.1778  -14.8814   21.8808 C   0  0  2  0  0  0  0  0  0  0  0  0
  -28.8716  -25.6175   21.0547 C   0  0  1  0  0  0  0  0  0  1  0  0
  -29.8565  -24.4756   20.6505 C   0  0  0  0  0  0  0  0  0  0  0  0
  -28.6377  -22.1999   17.3074 C   0  0  0  0  0  0  0  0  0  0  0  0
  -30.5130  -24.6866   19.2848 C   0  0  0  0  0  0  0  0  0  0  0  0
  -30.9283  -24.2114   21.7184 C   0  0  0  0  0  0  0  0  0  0  0  0
  -23.3964  -31.2513   12.7847 C   0  0  0  0  0  0  0  0  0  0  0  0
  -20.4231  -27.2559   17.1513 C   0  0  0  0  0  0  0  0  0  0  0  0
  -20.9759  -27.7989   14.7706 C   0  0  0  0  0  0  0  0  0  0  0  0
  -19.6347  -29.4002   16.1343 C   0  0  0  0  0  0  0  0  0  0  0  0
  -25.8114  -32.2916   15.5346 C   0  0  0  0  0  0  0  0  0  0  0  0
  -30.4880  -27.3242   21.0392 C   0  0  0  0  0  0  0  0  0  0  0  0
  -22.1048  -29.1373   16.6051 C   0  0  1  0  0  0  0  0  0  0  0  0
  -23.8366  -31.5169   14.2160 C   0  0  2  0  0  0  0  0  0  0  0  0
  -20.8053  -28.3943   16.1845 C   0  0  0  0  0  0  0  0  0  0  0  0
  -24.9722  -12.7432   21.6434 N   0  0  0  0  0  0  0  0  0  0  0  0
  -25.7178  -13.6942   21.0554 N   0  0  0  0  0  0  0  0  0  0  0  0
  -28.9456  -23.2918   20.6117 N   0  0  0  0  0  0  0  0  0  0  0  0
  -22.9454  -29.2610   18.9293 N   0  0  0  0  0  0  0  0  0  0  0  0
  -25.6886  -17.1863   22.6009 N   0  0  0  0  0  0  0  0  0  0  0  0
  -26.7085  -14.3126   18.9946 N   0  0  0  0  0  0  0  0  0  0  0  0
  -24.6628  -10.4022   18.0354 N   0  0  0  0  0  0  0  0  0  0  0  0
  -25.8078  -18.6551   20.7595 N   0  0  0  0  0  0  0  0  0  0  0  0
  -21.1970  -28.9235   22.0211 N   0  0  0  0  0  0  0  0  0  0  0  0
  -22.4760  -30.2381   15.7225 N   0  0  0  0  0  0  0  0  0  0  0  0
  -30.5153  -21.6439   20.2072 N   0  3  0  0  0  0  0  0  0  0  0  0
  -25.2554  -31.9723   14.1945 N   0  3  0  0  0  0  0  0  0  0  0  0
  -25.9519  -12.0903   17.1709 O   0  0  0  0  0  0  0  0  0  0  0  0
  -22.2106  -27.3621   20.6222 O   0  0  0  0  0  0  0  0  0  0  0  0
  -21.1405  -30.5642   18.2362 O   0  0  0  0  0  0  0  0  0  0  0  0
  -24.5736  -29.4212   15.1657 O   0  0  0  0  0  0  0  0  0  0  0  0
  -26.3923  -19.3695   22.8878 O   0  0  0  0  0  0  0  0  0  0  0  0
  -21.7194   -7.2693   21.5789 O   0  0  0  0  0  0  0  0  0  0  0  0
  -28.1957  -26.1826   19.9347 O   0  0  0  0  0  0  0  0  0  1  0  0
  -29.5083  -26.6366   21.8079 O   0  0  0  0  0  0  0  0  0  0  0  0
  -23.6210   -2.4991   19.5706 F   0  0  0  0  0  0  0  0  0  0  0  0
  -22.2943   -5.1512   23.2600 F   0  0  0  0  0  0  0  0  0  0  0  0
  1  2  1  0  0  0  0
  1  5  2  0  0  0  0
  2  6  2  0  0  0  0
  3 10  2  0  0  0  0
  3 18  1  0  0  0  0
  4 11  1  0  0  0  0
  4 18  2  0  0  0  0
  5 21  1  0  0  0  0
  6 23  1  0  0  0  0
  7 12  2  0  0  0  0
  7 22  1  0  0  0  0
  8  9  2  0  0  0  0
  8 25  1  0  0  0  0
  9 26  1  0  0  0  0
 10 27  1  0  0  0  0
 11 27  2  0  0  0  0
 12 28  1  0  0  0  0
 13 14  2  0  0  0  0
 13 29  1  0  0  0  0
 14 30  1  0  0  0  0
 15 19  1  0  0  0  0
 15 26  2  0  0  0  0
 16 24  1  0  0  0  0
 16 28  2  0  0  0  0
 17 30  2  0  0  0  0
 17 31  1  0  0  0  0
 18 32  1  0  0  0  0
 19 25  2  0  0  0  0
 19 34  1  0  0  0  0
 20 32  1  0  0  0  0
 20 33  2  0  0  0  0
 20 35  1  0  0  0  0
 21 23  2  0  0  0  0
 21 40  1  0  0  0  0
 22 24  2  0  0  0  0
 22 41  1  0  0  0  0
 23 51  1  0  0  0  0
 24 42  1  0  0  0  0
 25 56  1  0  0  0  0
 26 75  1  0  0  0  0
 27 85  1  0  0  0  0
 28 86  1  0  0  0  0
 29 31  2  0  0  0  0
 29 85  1  0  0  0  0
 30 88  1  0  0  0  0
 31 89  1  0  0  0  0
 32 68  2  0  0  0  0
 33 69  1  0  0  0  0
 33 73  1  0  0  0  0
 34 70  1  0  0  0  0
 34 78  2  0  0  0  0
 35 74  1  0  0  0  0
 35 80  2  0  0  0  0
 36 52  1  0  0  0  0
 36 76  1  0  0  0  0
 36 81  2  0  0  0  0
 37 65  1  0  0  0  0
 37 71  1  0  0  0  0
 37 82  2  0  0  0  0
 38 66  1  0  0  0  0
 38 77  1  0  0  0  0
 38 83  2  0  0  0  0
 39 72  1  0  0  0  0
 39 75  1  0  0  0  0
 39 84  2  0  0  0  0
 40 43  1  0  0  0  0
 41 52  1  0  0  0  0
 42 71  1  0  0  0  0
 43 45  1  0  0  0  0
 44 46  1  0  0  0  0
 44 48  1  0  0  0  0
 45 51  1  0  0  0  0
 46 53  1  0  0  0  0
 47 49  1  0  0  0  0
 47 54  1  0  0  0  0
 48 72  1  0  0  0  0
 49 70  1  0  0  0  0
 50 53  1  0  0  0  0
 50 72  1  0  0  0  0
 51 76  1  0  0  0  0
 52 71  1  0  0  0  0
 53 69  1  0  0  0  0
 54 55  1  0  0  0  0
 54 86  1  0  0  0  0
 54 87  1  0  0  0  0
 55 57  1  0  0  0  0
 55 58  1  0  0  0  0
 55 70  1  0  0  0  0
 59 66  1  0  0  0  0
 60 67  1  0  0  0  0
 61 67  1  0  0  0  0
 62 67  1  0  0  0  0
 63 79  1  0  0  0  0
 64 87  1  0  0  0  0
 65 67  1  0  0  0  0
 65 77  1  0  0  0  0
 66 79  1  0  0  0  0
 68 69  1  0  0  0  0
M  CHG  2  78   1  79   1
M  ISO  4  39 100  54 101  75 100  86 101
M  END
> <Batch ID>
0155

> <Smiles>
CNC(C)C(=O)NC(C(=O)N1Cc2cc([101O:1][101C:1]3(OC)CCN(C(=N)c4cc([100NH:0][100C:0](=O)N5CCCC(n6nc(-c7ccc(Oc8ccc(F)cc8F)cc7)c(C(N)=O)c6N)C5)ccc4C)C3(C)C)ccc2CC1C(=O)NC1CCCc2ccccc21)C(C)(C)C

> <Shape>
0.249

> <Color>
0.101

> <Negative vol penalty>
0.000

$$$$

  -OEChem-04052303363D

 85 94  0     1  0  0  0  0  0999 V2000
  -17.4548  -32.2338   25.9330 C   0  0  0  0  0  0  0  0  0  0  0  0
  -18.3587  -31.4060   26.5911 C   0  0  0  0  0  0  0  0  0  0  0  0
  -26.8729  -12.7948   20.9382 C   0  0  0  0  0  0  0  0  0  0  0  0
  -26.1841  -13.6236   18.7759 C   0  0  0  0  0  0  0  0  0  0  0  0
  -17.0016  -31.8954   24.6586 C   0  0  0  0  0  0  0  0  0  0  0  0
  -18.8091  -30.2386   25.9756 C   0  0  0  0  0  0  0  0  0  0  0  0
  -25.8277  -29.1522   24.7711 C   0  0  0  0  0  0  0  0  0  0  0  0
  -30.0334  -22.7258   18.3712 C   0  0  0  0  0  0  0  0  0  0  0  0
  -26.1999  -11.5978   20.6938 C   0  0  0  0  0  0  0  0  0  0  0  0
  -25.5111  -12.4265   18.5314 C   0  0  0  0  0  0  0  0  0  0  0  0
  -27.1693  -28.7772   24.6966 C   0  0  0  0  0  0  0  0  0  0  0  0
  -24.3614   -8.4617   20.7869 C   0  0  0  0  0  0  0  0  0  0  0  0
  -30.7872  -23.7944   17.8860 C   0  0  0  0  0  0  0  0  0  0  0  0
  -23.5747   -7.9371   21.8124 C   0  0  0  0  0  0  0  0  0  0  0  0
  -28.8614  -24.2273   19.8574 C   0  0  0  0  0  0  0  0  0  0  0  0
  -26.5430  -26.7144   23.6008 C   0  0  0  0  0  0  0  0  0  0  0  0
  -22.2268   -9.9422   21.8039 C   0  0  0  0  0  0  0  0  0  0  0  0
  -26.8650  -13.8078   19.9793 C   0  0  0  0  0  0  0  0  0  0  0  0
  -29.6152  -25.2959   19.3723 C   0  0  0  0  0  0  0  0  0  0  0  0
  -28.8989  -15.3464   19.9202 C   0  0  0  0  0  0  0  0  0  0  0  0
  -17.4541  -30.7283   24.0232 C   0  0  0  0  0  0  0  0  0  0  0  0
  -24.8386  -28.3157   24.2462 C   0  0  0  0  0  0  0  0  0  0  0  0
  -18.3605  -29.8836   24.6920 C   0  0  0  0  0  0  0  0  0  0  0  0
  -25.1985  -27.0905   23.6613 C   0  0  0  0  0  0  0  0  0  0  0  0
  -29.0704  -22.9422   19.3568 C   0  0  0  0  0  0  0  0  0  0  0  0
  -25.5190  -11.4136   19.4904 C   0  0  0  0  0  0  0  0  0  0  0  0
  -27.5260  -27.5612   24.1132 C   0  0  0  0  0  0  0  0  0  0  0  0
  -24.0809   -9.7265   20.2700 C   0  0  0  0  0  0  0  0  0  0  0  0
  -22.5074   -8.6774   22.3208 C   0  0  0  0  0  0  0  0  0  0  0  0
  -30.5782  -25.0795   18.3865 C   0  0  0  0  0  0  0  0  0  0  0  0
  -23.0136  -10.4668   20.7784 C   0  0  0  0  0  0  0  0  0  0  0  0
  -27.5595  -15.0447   20.2314 C   0  0  0  0  0  0  0  0  0  0  0  0
  -29.0712  -16.6365   20.3588 C   0  0  0  0  0  0  0  0  0  0  0  0
  -29.3926  -26.6553   19.9044 C   0  0  0  0  0  0  0  0  0  0  0  0
  -29.8979  -14.5331   19.2907 C   0  0  0  0  0  0  0  0  0  0  0  0
  -21.1843  -27.7667   23.5977 C   0  0  0  0  0  0  0  0  0  0  0  0
  -22.6877  -26.7901   21.1084 C   0  0  0  0  0  0  0  0  0  0  0  0
  -24.6810  -26.2177   18.3998 C   0  0  0  0  0  0  0  0  0  0  0  0
  -27.3110  -21.8982   20.8267 C   0  0  0  0  0  0  0  0  0  0  0  0
  -16.8997  -30.3799   22.6646 C   0  0  0  0  0  0  0  0  0  0  0  0
  -23.3762  -28.6509   24.3595 C   0  0  0  0  0  0  0  0  0  0  0  0
  -24.0979  -26.2068   23.1410 C   0  0  0  0  0  0  0  0  0  0  0  0
  -17.7132  -29.3183   21.9287 C   0  0  0  0  0  0  0  0  0  0  0  0
  -26.1020  -19.5642   23.2284 C   0  0  0  0  0  0  0  0  0  0  0  0
  -18.0400  -28.1554   22.8601 C   0  0  0  0  0  0  0  0  0  0  0  0
  -26.4836  -18.2051   22.6372 C   0  0  0  0  0  0  0  0  0  0  0  0
  -31.1378  -28.1099   23.7745 C   0  0  0  0  0  0  0  0  0  0  0  0
  -30.2245  -29.2710   24.0547 C   0  0  0  0  0  0  0  0  0  0  0  0
  -25.6861  -20.5574   22.1448 C   0  0  0  0  0  0  0  0  0  0  0  0
  -27.0351  -19.3671   20.4617 C   0  0  0  0  0  0  0  0  0  0  0  0
  -18.8914  -28.6217   24.0472 C   0  0  1  0  0  0  0  0  0  0  0  0
  -22.5537  -28.1816   23.1461 C   0  0  1  0  0  0  0  0  0  0  0  0
  -27.5234  -18.3532   21.5092 C   0  0  2  0  0  0  0  0  0  0  0  0
  -29.7067  -28.0697   23.3110 C   0  0  0  0  0  0  0  0  0  1  0  0
  -24.5915  -25.4242   16.0208 C   0  0  0  0  0  0  0  0  0  0  0  0
  -22.3895  -23.9150   22.0825 C   0  0  0  0  0  0  0  0  0  0  0  0
  -23.2455  -23.1476   19.8584 C   0  0  0  0  0  0  0  0  0  0  0  0
  -21.1200  -24.4463   19.9943 C   0  0  0  0  0  0  0  0  0  0  0  0
  -25.7146  -28.7962   17.3789 C   0  0  0  0  0  0  0  0  0  0  0  0
  -29.3896  -28.1662   21.8573 C   0  0  0  0  0  0  0  0  0  0  0  0
  -23.3209  -25.6264   20.3885 C   0  0  1  0  0  0  0  0  0  0  0  0
  -24.5474  -26.6309   16.9452 C   0  0  2  0  0  0  0  0  0  0  0  0
  -22.5344  -24.3015   20.5971 C   0  0  0  0  0  0  0  0  0  0  0  0
  -26.9260  -16.0613   20.8223 N   0  0  0  0  0  0  0  0  0  0  0  0
  -27.8714  -17.0143   20.8860 N   0  0  0  0  0  0  0  0  0  0  0  0
  -23.0981  -27.0169   22.4277 N   0  0  0  0  0  0  0  0  0  0  0  0
  -26.7212  -20.6487   21.1127 N   0  0  0  0  0  0  0  0  0  0  0  0
  -30.1305  -17.4731   20.3413 N   0  0  0  0  0  0  0  0  0  0  0  0
  -29.0150  -27.6090   19.0531 N   0  0  0  0  0  0  0  0  0  0  0  0
  -29.5527  -13.2314   18.9026 N   0  0  0  0  0  0  0  0  0  0  0  0
  -28.3057  -21.8562   19.8503 N   0  0  0  0  0  0  0  0  0  0  0  0
  -20.2690  -28.8009   23.6416 N   0  0  0  0  0  0  0  0  0  0  0  0
  -23.4502  -26.0312   18.9929 N   0  0  0  0  0  0  0  0  0  0  0  0
  -29.5819  -26.8670   21.2137 N   0  3  0  0  0  0  0  0  0  0  0  0
  -25.6535  -27.5546   16.5654 N   0  3  0  0  0  0  0  0  0  0  0  0
  -31.0671  -14.9428   19.0936 O   0  0  0  0  0  0  0  0  0  0  0  0
  -20.9720  -26.5942   23.8840 O   0  0  0  0  0  0  0  0  0  0  0  0
  -21.8475  -27.4776   20.5212 O   0  0  0  0  0  0  0  0  0  0  0  0
  -25.7684  -26.0712   18.9534 O   0  0  0  0  0  0  0  0  0  0  0  0
  -26.9786  -22.9248   21.4247 O   0  0  0  0  0  0  0  0  0  0  0  0
  -24.8624  -10.2456   19.2514 O   0  0  0  0  0  0  0  0  0  0  0  0
  -28.8380  -27.2033   24.0397 O   0  0  0  0  0  0  0  0  0  1  0  0
  -21.7510   -8.1729   23.3045 F   0  0  0  0  0  0  0  0  0  0  0  0
  -31.3076  -26.1001   17.9144 F   0  0  0  0  0  0  0  0  0  0  0  0
  -22.7385  -11.6819   20.2850 F   0  0  0  0  0  0  0  0  0  0  0  0
  1  2  1  0  0  0  0
  1  5  2  0  0  0  0
  2  6  2  0  0  0  0
  3  9  2  0  0  0  0
  3 18  1  0  0  0  0
  4 10  1  0  0  0  0
  4 18  2  0  0  0  0
  5 21  1  0  0  0  0
  6 23  1  0  0  0  0
  7 11  2  0  0  0  0
  7 22  1  0  0  0  0
  8 13  2  0  0  0  0
  8 25  1  0  0  0  0
  9 26  1  0  0  0  0
 10 26  2  0  0  0  0
 11 27  1  0  0  0  0
 12 14  2  0  0  0  0
 12 28  1  0  0  0  0
 13 30  1  0  0  0  0
 14 29  1  0  0  0  0
 15 19  1  0  0  0  0
 15 25  2  0  0  0  0
 16 24  1  0  0  0  0
 16 27  2  0  0  0  0
 17 29  2  0  0  0  0
 17 31  1  0  0  0  0
 18 32  1  0  0  0  0
 19 30  2  0  0  0  0
 19 34  1  0  0  0  0
 20 32  1  0  0  0  0
 20 33  2  0  0  0  0
 20 35  1  0  0  0  0
 21 23  2  0  0  0  0
 21 40  1  0  0  0  0
 22 24  2  0  0  0  0
 22 41  1  0  0  0  0
 23 51  1  0  0  0  0
 24 42  1  0  0  0  0
 25 71  1  0  0  0  0
 26 81  1  0  0  0  0
 27 82  1  0  0  0  0
 28 31  2  0  0  0  0
 28 81  1  0  0  0  0
 29 83  1  0  0  0  0
 30 84  1  0  0  0  0
 31 85  1  0  0  0  0
 32 64  2  0  0  0  0
 33 65  1  0  0  0  0
 33 68  1  0  0  0  0
 34 69  1  0  0  0  0
 34 74  2  0  0  0  0
 35 70  1  0  0  0  0
 35 76  2  0  0  0  0
 36 52  1  0  0  0  0
 36 72  1  0  0  0  0
 36 77  2  0  0  0  0
 37 61  1  0  0  0  0
 37 66  1  0  0  0  0
 37 78  2  0  0  0  0
 38 62  1  0  0  0  0
 38 73  1  0  0  0  0
 38 79  2  0  0  0  0
 39 67  1  0  0  0  0
 39 71  1  0  0  0  0
 39 80  2  0  0  0  0
 40 43  1  0  0  0  0
 41 52  1  0  0  0  0
 42 66  1  0  0  0  0
 43 45  1  0  0  0  0
 44 46  1  0  0  0  0
 44 49  1  0  0  0  0
 45 51  1  0  0  0  0
 46 53  1  0  0  0  0
 47 48  1  0  0  0  0
 47 54  1  0  0  0  0
 48 54  1  0  0  0  0
 49 67  1  0  0  0  0
 50 53  1  0  0  0  0
 50 67  1  0  0  0  0
 51 72  1  0  0  0  0
 52 66  1  0  0  0  0
 53 65  1  0  0  0  0
 54 60  1  0  0  0  0
 54 82  1  0  0  0  0
 55 62  1  0  0  0  0
 56 63  1  0  0  0  0
 57 63  1  0  0  0  0
 58 63  1  0  0  0  0
 59 75  1  0  0  0  0
 60 74  1  0  0  0  0
 61 63  1  0  0  0  0
 61 73  1  0  0  0  0
 62 75  1  0  0  0  0
 64 65  1  0  0  0  0
M  CHG  2  74   1  75   1
M  ISO  4  39 100  54 101  71 100  82 101
M  END
> <Batch ID>
0155

> <Smiles>
CNC(C)C(=O)NC(C(=O)N1Cc2cc([101O:1][101C:1]3(CNC(=N)c4cc([100NH:0][100C:0](=O)N5CCCC(n6nc(-c7ccc(Oc8ccc(F)cc8F)cc7)c(C(N)=O)c6N)C5)ccc4F)CC3)ccc2CC1C(=O)NC1CCCc2ccccc21)C(C)(C)C

> <Shape>
0.247

> <Color>
0.060

> <Negative vol penalty>
0.000

$$$$

  -OEChem-04052303363D

 84 93  0     1  0  0  0  0  0999 V2000
  -27.1508  -18.8284   18.7330 C   0  0  0  0  0  0  0  0  0  0  0  0
  -28.0516  -19.3286   19.6678 C   0  0  0  0  0  0  0  0  0  0  0  0
  -23.0144   -9.8904   19.9759 C   0  0  0  0  0  0  0  0  0  0  0  0
  -23.7320   -9.9440   22.2822 C   0  0  0  0  0  0  0  0  0  0  0  0
  -27.4706  -18.8526   17.3762 C   0  0  0  0  0  0  0  0  0  0  0  0
  -29.2732  -19.8524   19.2463 C   0  0  0  0  0  0  0  0  0  0  0  0
  -30.4100  -24.2204   21.5427 C   0  0  0  0  0  0  0  0  0  0  0  0
  -22.2508   -8.7533   20.2399 C   0  0  0  0  0  0  0  0  0  0  0  0
  -22.9684   -8.8069   22.5463 C   0  0  0  0  0  0  0  0  0  0  0  0
  -30.8998  -24.1460   22.8459 C   0  0  0  0  0  0  0  0  0  0  0  0
  -23.2255   -5.4688   22.0755 C   0  0  0  0  0  0  0  0  0  0  0  0
  -23.8141   -4.4537   22.8296 C   0  0  0  0  0  0  0  0  0  0  0  0
  -33.1456  -24.4273   22.0115 C   0  0  0  0  0  0  0  0  0  0  0  0
  -30.5156  -19.8578   24.2340 C   0  0  0  0  0  0  0  0  0  0  0  0
  -22.0840   -4.6909   24.4992 C   0  0  0  0  0  0  0  0  0  0  0  0
  -32.7352  -19.6385   24.2736 C   0  0  0  0  0  0  0  0  0  0  0  0
  -23.7550  -10.4857   20.9971 C   0  0  0  0  0  0  0  0  0  0  0  0
  -24.1324  -13.0026   20.8220 C   0  0  0  0  0  0  0  0  0  0  0  0
  -28.6927  -19.3859   16.9370 C   0  0  0  0  0  0  0  0  0  0  0  0
  -31.2869  -24.3882   20.4613 C   0  0  0  0  0  0  0  0  0  0  0  0
  -29.6102  -19.8826   17.8824 C   0  0  0  0  0  0  0  0  0  0  0  0
  -32.6643  -24.5061   20.6958 C   0  0  0  0  0  0  0  0  0  0  0  0
  -31.7148  -20.4736   24.6651 C   0  0  0  0  0  0  0  0  0  0  0  0
  -22.2278   -8.2116   21.5251 C   0  0  0  0  0  0  0  0  0  0  0  0
  -32.2680  -24.2465   23.0802 C   0  0  0  0  0  0  0  0  0  0  0  0
  -22.0663   -6.0951   22.5333 C   0  0  0  0  0  0  0  0  0  0  0  0
  -23.2434   -4.0647   24.0414 C   0  0  0  0  0  0  0  0  0  0  0  0
  -21.4955   -5.7061   23.7451 C   0  0  0  0  0  0  0  0  0  0  0  0
  -24.5444  -11.6599   20.7248 C   0  0  0  0  0  0  0  0  0  0  0  0
  -30.8887  -18.6904   23.6095 C   0  0  0  0  0  0  0  0  0  0  0  0
  -25.2408  -13.7289   20.4611 C   0  0  0  0  0  0  0  0  0  0  0  0
  -22.8613  -13.5447   21.2044 C   0  0  0  0  0  0  0  0  0  0  0  0
  -32.0316  -22.6736   17.8904 C   0  0  0  0  0  0  0  0  0  0  0  0
  -33.7721  -25.3010   17.1224 C   0  0  0  0  0  0  0  0  0  0  0  0
  -35.4042  -28.1057   18.1791 C   0  0  0  0  0  0  0  0  0  0  0  0
  -30.7351  -14.6382   20.7510 C   0  0  0  0  0  0  0  0  0  0  0  0
  -29.0141  -19.3473   15.4640 C   0  0  0  0  0  0  0  0  0  0  0  0
  -30.7403  -24.4933   19.0639 C   0  0  0  0  0  0  0  0  0  0  0  0
  -33.6458  -24.7073   19.5712 C   0  0  0  0  0  0  0  0  0  0  0  0
  -30.1707  -20.2618   15.0688 C   0  0  0  0  0  0  0  0  0  0  0  0
  -29.5942  -12.2983   18.3623 C   0  0  0  0  0  0  0  0  0  0  0  0
  -31.3389  -20.0930   16.0350 C   0  0  0  0  0  0  0  0  0  0  0  0
  -28.1573  -12.0017   18.7826 C   0  0  0  0  0  0  0  0  0  0  0  0
  -29.7078  -16.3849   23.8084 C   0  0  0  0  0  0  0  0  0  0  0  0
  -30.4886  -12.4767   19.5817 C   0  0  0  0  0  0  0  0  0  0  0  0
  -29.3333  -15.3227   22.7834 C   0  0  0  0  0  0  0  0  0  0  0  0
  -30.8603  -16.8812   21.7926 C   0  0  0  0  0  0  0  0  0  0  0  0
  -28.5798  -13.3022   20.9326 C   0  0  0  0  0  0  0  0  0  0  0  0
  -30.9349  -20.4816   17.4623 C   0  0  1  0  0  0  0  0  0  0  0  0
  -30.1105  -17.5832   22.9336 C   0  0  2  0  0  0  0  0  0  0  0  0
  -31.7702  -24.1497   17.9921 C   0  0  1  0  0  0  0  0  0  0  0  0
  -27.6347  -13.0911   19.7318 C   0  0  2  0  0  0  0  0  0  0  0  0
  -36.7632  -30.0341   17.3237 C   0  0  0  0  0  0  0  0  0  0  0  0
  -34.9916  -23.7489   25.0419 C   0  0  0  0  0  0  0  0  0  0  0  0
  -36.1816  -23.4570   16.8005 C   0  0  0  0  0  0  0  0  0  0  0  0
  -37.6540  -25.4798   16.8922 C   0  0  0  0  0  0  0  0  0  0  0  0
  -35.9875  -25.2347   15.0522 C   0  0  0  0  0  0  0  0  0  0  0  0
  -33.4284  -30.0814   19.1549 C   0  0  0  0  0  0  0  0  0  0  0  0
  -33.1115  -22.2339   25.7496 C   0  0  0  0  0  0  0  0  0  0  0  0
  -35.1838  -25.7641   17.3901 C   0  0  1  0  0  0  0  0  0  0  0  0
  -35.3702  -29.5391   17.6804 C   0  0  2  0  0  0  0  0  0  0  0  0
  -33.6685  -23.1165   24.6351 C   0  0  1  0  0  0  0  0  0  1  0  0
  -36.2337  -24.9781   16.5550 C   0  0  0  0  0  0  0  0  0  0  0  0
  -25.8153  -11.5377   20.3328 N   0  0  0  0  0  0  0  0  0  0  0  0
  -26.2115  -12.8128   20.1803 N   0  0  0  0  0  0  0  0  0  0  0  0
  -33.0631  -24.7975   18.2222 N   0  0  0  0  0  0  0  0  0  0  0  0
  -29.9678  -13.4967   20.4938 N   0  0  0  0  0  0  0  0  0  0  0  0
  -30.2340  -15.5698   21.6594 N   0  0  0  0  0  0  0  0  0  0  0  0
  -25.4702  -15.0553   20.3596 N   0  0  0  0  0  0  0  0  0  0  0  0
  -21.8314  -12.6571   21.5447 N   0  0  0  0  0  0  0  0  0  0  0  0
  -31.8402  -21.6413   25.3262 N   0  0  0  0  0  0  0  0  0  0  0  0
  -30.9079  -21.9215   17.6056 N   0  0  0  0  0  0  0  0  0  0  0  0
  -35.1920  -27.2043   17.1575 N   0  0  0  0  0  0  0  0  0  0  0  0
  -34.8053  -30.4381   18.7261 N   0  3  0  0  0  0  0  0  0  0  0  0
  -22.6404  -14.7793   21.2273 O   0  0  0  0  0  0  0  0  0  0  0  0
  -33.1689  -22.2486   18.0566 O   0  0  0  0  0  0  0  0  0  0  0  0
  -33.3128  -25.3896   15.9809 O   0  0  0  0  0  0  0  0  0  0  0  0
  -35.6031  -27.8147   19.3565 O   0  0  0  0  0  0  0  0  0  0  0  0
  -31.8434  -14.8003   20.2225 O   0  0  0  0  0  0  0  0  0  0  0  0
  -32.2401  -18.5493   23.6293 O   0  0  0  0  0  0  0  0  0  0  0  0
  -21.4827   -7.1022   21.7831 O   0  0  0  0  0  0  0  0  0  0  0  0
  -32.7514  -24.1732   24.3583 O   0  0  0  0  0  0  0  0  0  1  0  0
  -23.8078   -3.0888   24.7647 F   0  0  0  0  0  0  0  0  0  0  0  0
  -20.3812   -6.3033   24.1895 F   0  0  0  0  0  0  0  0  0  0  0  0
  1  2  1  0  0  0  0
  1  5  2  0  0  0  0
  2  6  2  0  0  0  0
  3  8  2  0  0  0  0
  3 17  1  0  0  0  0
  4  9  1  0  0  0  0
  4 17  2  0  0  0  0
  5 19  1  0  0  0  0
  6 21  1  0  0  0  0
  7 10  2  0  0  0  0
  7 20  1  0  0  0  0
  8 24  1  0  0  0  0
  9 24  2  0  0  0  0
 10 25  1  0  0  0  0
 11 12  2  0  0  0  0
 11 26  1  0  0  0  0
 12 27  1  0  0  0  0
 13 22  1  0  0  0  0
 13 25  2  0  0  0  0
 14 23  1  0  0  0  0
 14 30  2  0  0  0  0
 15 27  2  0  0  0  0
 15 28  1  0  0  0  0
 16 23  2  0  0  0  0
 16 80  1  0  0  0  0
 17 29  1  0  0  0  0
 18 29  1  0  0  0  0
 18 31  2  0  0  0  0
 18 32  1  0  0  0  0
 19 21  2  0  0  0  0
 19 37  1  0  0  0  0
 20 22  2  0  0  0  0
 20 38  1  0  0  0  0
 21 49  1  0  0  0  0
 22 39  1  0  0  0  0
 23 71  1  0  0  0  0
 24 81  1  0  0  0  0
 25 82  1  0  0  0  0
 26 28  2  0  0  0  0
 26 81  1  0  0  0  0
 27 83  1  0  0  0  0
 28 84  1  0  0  0  0
 29 64  2  0  0  0  0
 30 50  1  0  0  0  0
 30 80  1  0  0  0  0
 31 65  1  0  0  0  0
 31 69  1  0  0  0  0
 32 70  1  0  0  0  0
 32 75  2  0  0  0  0
 33 51  1  0  0  0  0
 33 72  1  0  0  0  0
 33 76  2  0  0  0  0
 34 60  1  0  0  0  0
 34 66  1  0  0  0  0
 34 77  2  0  0  0  0
 35 61  1  0  0  0  0
 35 73  1  0  0  0  0
 35 78  2  0  0  0  0
 36 67  1  0  0  0  0
 36 68  1  0  0  0  0
 36 79  2  0  0  0  0
 37 40  1  0  0  0  0
 38 51  1  0  0  0  0
 39 66  1  0  0  0  0
 40 42  1  0  0  0  0
 41 43  1  0  0  0  0
 41 45  1  0  0  0  0
 42 49  1  0  0  0  0
 43 52  1  0  0  0  0
 44 46  1  0  0  0  0
 44 50  1  0  0  0  0
 45 67  1  0  0  0  0
 46 68  1  0  0  0  0
 47 50  1  0  0  0  0
 47 68  1  0  0  0  0
 48 52  1  0  0  0  0
 48 67  1  0  0  0  0
 49 72  1  0  0  0  0
 51 66  1  0  0  0  0
 52 65  1  0  0  0  0
 53 61  1  0  0  0  0
 54 62  1  0  0  0  0
 55 63  1  0  0  0  0
 56 63  1  0  0  0  0
 57 63  1  0  0  0  0
 58 74  1  0  0  0  0
 59 62  1  0  0  0  0
 59 71  1  0  0  0  0
 60 63  1  0  0  0  0
 60 73  1  0  0  0  0
 61 74  1  0  0  0  0
 62 82  1  0  0  0  0
 64 65  1  0  0  0  0
M  CHG  1  74   1
M  ISO  4  36 100  62 101  68 100  82 101
M  END
> <Batch ID>
0155

> <Smiles>
CNC(C)C(=O)NC(C(=O)N1Cc2cc([101O:1][101CH:1](C)CNc3coc(C4CC[100N:0]([100C:0](=O)N5CCCC(n6nc(-c7ccc(Oc8ccc(F)cc8F)cc7)c(C(N)=O)c6N)C5)C4)c3)ccc2CC1C(=O)NC1CCCc2ccccc21)C(C)(C)C

> <Shape>
0.217

> <Color>
0.198

> <Negative vol penalty>
0.000

$$$$

  -OEChem-04052303363D

 86 95  0     1  0  0  0  0  0999 V2000
  -30.6383  -35.8210   21.8461 C   0  0  0  0  0  0  0  0  0  0  0  0
  -30.6705  -34.4871   22.2398 C   0  0  0  0  0  0  0  0  0  0  0  0
  -23.0899   -9.8427   19.9683 C   0  0  0  0  0  0  0  0  0  0  0  0
  -23.8351   -9.8994   22.2658 C   0  0  0  0  0  0  0  0  0  0  0  0
  -30.2478  -36.1549   20.5500 C   0  0  0  0  0  0  0  0  0  0  0  0
  -30.3113  -33.4862   21.3378 C   0  0  0  0  0  0  0  0  0  0  0  0
  -32.7038  -27.8633   20.9330 C   0  0  0  0  0  0  0  0  0  0  0  0
  -22.3505   -8.6908   20.2366 C   0  0  0  0  0  0  0  0  0  0  0  0
  -23.0957   -8.7475   22.5341 C   0  0  0  0  0  0  0  0  0  0  0  0
  -32.2778  -26.6258   21.4136 C   0  0  0  0  0  0  0  0  0  0  0  0
  -19.8680   -7.9446   23.1322 C   0  0  0  0  0  0  0  0  0  0  0  0
  -19.1038   -7.9239   24.2988 C   0  0  0  0  0  0  0  0  0  0  0  0
  -31.2645  -26.1513   19.2765 C   0  0  0  0  0  0  0  0  0  0  0  0
  -31.7590  -17.6081   21.6364 C   0  0  0  0  0  0  0  0  0  0  0  0
  -20.3506   -6.0082   25.0816 C   0  0  0  0  0  0  0  0  0  0  0  0
  -23.8323  -10.4470   20.9830 C   0  0  0  0  0  0  0  0  0  0  0  0
  -24.1617  -12.9711   20.8148 C   0  0  0  0  0  0  0  0  0  0  0  0
  -29.8929  -35.1570   19.6287 C   0  0  0  0  0  0  0  0  0  0  0  0
  -32.4034  -28.2592   19.6217 C   0  0  0  0  0  0  0  0  0  0  0  0
  -29.9145  -33.8071   20.0285 C   0  0  0  0  0  0  0  0  0  0  0  0
  -31.6901  -27.3932   18.7808 C   0  0  0  0  0  0  0  0  0  0  0  0
  -31.8359  -18.8808   22.2725 C   0  0  0  0  0  0  0  0  0  0  0  0
  -22.3534   -8.1432   21.5194 C   0  0  0  0  0  0  0  0  0  0  0  0
  -31.5556  -25.7708   20.5863 C   0  0  0  0  0  0  0  0  0  0  0  0
  -20.8734   -6.9970   22.9401 C   0  0  0  0  0  0  0  0  0  0  0  0
  -19.3451   -6.9557   25.2736 C   0  0  0  0  0  0  0  0  0  0  0  0
  -21.1147   -6.0288   23.9148 C   0  0  0  0  0  0  0  0  0  0  0  0
  -24.5967  -11.6366   20.7064 C   0  0  0  0  0  0  0  0  0  0  0  0
  -30.6823  -19.1858   22.9608 C   0  0  0  0  0  0  0  0  0  0  0  0
  -25.2522  -13.7190   20.4435 C   0  0  0  0  0  0  0  0  0  0  0  0
  -30.5494  -16.9888   21.8629 C   0  0  0  0  0  0  0  0  0  0  0  0
  -22.8858  -13.4883   21.2153 C   0  0  0  0  0  0  0  0  0  0  0  0
  -30.7410  -30.6361   18.3214 C   0  0  0  0  0  0  0  0  0  0  0  0
  -31.9258  -29.4308   15.5527 C   0  0  0  0  0  0  0  0  0  0  0  0
  -33.2013  -26.7486   13.8718 C   0  0  0  0  0  0  0  0  0  0  0  0
  -30.7116  -14.7970   20.6316 C   0  0  0  0  0  0  0  0  0  0  0  0
  -29.4322  -35.5696   18.2531 C   0  0  0  0  0  0  0  0  0  0  0  0
  -32.8932  -29.5861   19.1098 C   0  0  0  0  0  0  0  0  0  0  0  0
  -31.3593  -27.7626   17.3586 C   0  0  0  0  0  0  0  0  0  0  0  0
  -29.4268  -34.4246   17.2436 C   0  0  0  0  0  0  0  0  0  0  0  0
  -29.6249  -12.3308   18.3049 C   0  0  0  0  0  0  0  0  0  0  0  0
  -28.7753  -33.1842   17.8467 C   0  0  0  0  0  0  0  0  0  0  0  0
  -28.1841  -12.0401   18.7312 C   0  0  0  0  0  0  0  0  0  0  0  0
  -29.3373  -23.7449   22.9472 C   0  0  0  0  0  0  0  0  0  0  0  0
  -30.5311  -12.5882   19.5075 C   0  0  0  0  0  0  0  0  0  0  0  0
  -28.6117  -13.3298   20.8621 C   0  0  0  0  0  0  0  0  0  0  0  0
  -29.0268  -22.5648   23.8565 C   0  0  0  0  0  0  0  0  0  0  0  0
  -29.9089  -21.8039   21.6990 C   0  0  0  0  0  0  0  0  0  0  0  0
  -29.5558  -32.6913   19.0712 C   0  0  1  0  0  0  0  0  0  0  0  0
  -32.0875  -30.1024   17.9217 C   0  0  1  0  0  0  0  0  0  0  0  0
  -27.6473  -13.1280   19.6819 C   0  0  2  0  0  0  0  0  0  0  0  0
  -29.2542  -23.1667   21.5400 C   0  0  2  0  0  0  0  0  0  0  0  0
  -33.0238  -19.7641   22.1954 C   0  0  0  0  0  0  0  0  0  0  0  0
  -34.0423  -26.0595   11.6101 C   0  0  0  0  0  0  0  0  0  0  0  0
  -29.0546  -29.2959   14.5288 C   0  0  0  0  0  0  0  0  0  0  0  0
  -29.8469  -27.7614   12.7161 C   0  0  0  0  0  0  0  0  0  0  0  0
  -30.7255  -30.0924   12.8471 C   0  0  0  0  0  0  0  0  0  0  0  0
  -35.8878  -26.1106   14.9369 C   0  0  0  0  0  0  0  0  0  0  0  0
  -27.7542  -22.4679   19.8712 C   0  0  0  0  0  0  0  0  0  0  0  0
  -30.3582  -20.4150   23.7577 C   0  0  0  0  0  0  0  0  0  0  0  0
  -29.9324  -24.0347   20.5018 C   0  0  0  0  0  0  0  0  0  1  0  0
  -31.4716  -28.3885   14.5595 C   0  0  1  0  0  0  0  0  0  0  0  0
  -34.4200  -26.6067   12.9778 C   0  0  2  0  0  0  0  0  0  0  0  0
  -30.2790  -28.8781   13.6903 C   0  0  0  0  0  0  0  0  0  0  0  0
  -25.8647  -11.5393   20.2980 N   0  0  0  0  0  0  0  0  0  0  0  0
  -26.2357  -12.8220   20.1465 N   0  0  0  0  0  0  0  0  0  0  0  0
  -31.8547  -29.0732   16.9065 N   0  0  0  0  0  0  0  0  0  0  0  0
  -29.9612  -13.6333   20.3607 N   0  0  0  0  0  0  0  0  0  0  0  0
  -25.4561  -15.0499   20.3452 N   0  0  0  0  0  0  0  0  0  0  0  0
  -21.8766  -12.5806   21.5643 N   0  0  0  0  0  0  0  0  0  0  0  0
  -30.0543  -15.7346   21.4274 N   0  0  0  0  0  0  0  0  0  0  0  0
  -30.7444  -31.9761   18.6587 N   0  0  0  0  0  0  0  0  0  0  0  0
  -32.6546  -28.0120   13.7932 N   0  0  0  0  0  0  0  0  0  0  0  0
  -29.4127  -21.3358   23.0557 N   0  3  1  0  0  0  0  0  0  0  0  0
  -35.4115  -25.6821   13.5966 N   0  3  0  0  0  0  0  0  0  0  0  0
  -22.6428  -14.7185   21.2466 O   0  0  0  0  0  0  0  0  0  0  0  0
  -29.7705  -29.8878   18.3223 O   0  0  0  0  0  0  0  0  0  0  0  0
  -32.3354  -30.5195   15.1420 O   0  0  0  0  0  0  0  0  0  0  0  0
  -32.7747  -25.8294   14.5672 O   0  0  0  0  0  0  0  0  0  0  0  0
  -31.8428  -14.9624   20.1678 O   0  0  0  0  0  0  0  0  0  0  0  0
  -21.6318   -7.0193   21.7816 O   0  0  0  0  0  0  0  0  0  0  0  0
  -31.1380  -24.5627   21.0532 O   0  0  0  0  0  0  0  0  0  1  0  0
  -27.8838  -23.0056   21.1783 O   0  0  0  0  0  0  0  0  0  0  0  0
  -18.6122   -6.9370   26.3946 F   0  0  0  0  0  0  0  0  0  0  0  0
  -22.0801   -5.1166   23.7365 F   0  0  0  0  0  0  0  0  0  0  0  0
  -29.5130  -17.9407   22.8387 S   0  0  0  0  0  0  0  0  0  0  0  0
  1  2  1  0  0  0  0
  1  5  2  0  0  0  0
  2  6  2  0  0  0  0
  3  8  2  0  0  0  0
  3 16  1  0  0  0  0
  4  9  1  0  0  0  0
  4 16  2  0  0  0  0
  5 18  1  0  0  0  0
  6 20  1  0  0  0  0
  7 10  2  0  0  0  0
  7 19  1  0  0  0  0
  8 23  1  0  0  0  0
  9 23  2  0  0  0  0
 10 24  1  0  0  0  0
 11 12  2  0  0  0  0
 11 25  1  0  0  0  0
 12 26  1  0  0  0  0
 13 21  1  0  0  0  0
 13 24  2  0  0  0  0
 14 22  1  0  0  0  0
 14 31  2  0  0  0  0
 15 26  2  0  0  0  0
 15 27  1  0  0  0  0
 16 28  1  0  0  0  0
 17 28  1  0  0  0  0
 17 30  2  0  0  0  0
 17 32  1  0  0  0  0
 18 20  2  0  0  0  0
 18 37  1  0  0  0  0
 19 21  2  0  0  0  0
 19 38  1  0  0  0  0
 20 49  1  0  0  0  0
 21 39  1  0  0  0  0
 22 29  2  0  0  0  0
 22 53  1  0  0  0  0
 23 81  1  0  0  0  0
 24 82  1  0  0  0  0
 25 27  2  0  0  0  0
 25 81  1  0  0  0  0
 26 84  1  0  0  0  0
 27 85  1  0  0  0  0
 28 65  2  0  0  0  0
 29 60  1  0  0  0  0
 29 86  1  0  0  0  0
 30 66  1  0  0  0  0
 30 69  1  0  0  0  0
 31 71  1  0  0  0  0
 31 86  1  0  0  0  0
 32 70  1  0  0  0  0
 32 76  2  0  0  0  0
 33 50  1  0  0  0  0
 33 72  1  0  0  0  0
 33 77  2  0  0  0  0
 34 62  1  0  0  0  0
 34 67  1  0  0  0  0
 34 78  2  0  0  0  0
 35 63  1  0  0  0  0
 35 73  1  0  0  0  0
 35 79  2  0  0  0  0
 36 68  1  0  0  0  0
 36 71  1  0  0  0  0
 36 80  2  0  0  0  0
 37 40  1  0  0  0  0
 38 50  1  0  0  0  0
 39 67  1  0  0  0  0
 40 42  1  0  0  0  0
 41 43  1  0  0  0  0
 41 45  1  0  0  0  0
 42 49  1  0  0  0  0
 43 51  1  0  0  0  0
 44 47  1  0  0  0  0
 44 52  1  0  0  0  0
 45 68  1  0  0  0  0
 46 51  1  0  0  0  0
 46 68  1  0  0  0  0
 47 74  1  0  0  0  0
 48 52  1  0  0  0  0
 48 74  1  0  0  0  0
 49 72  1  0  0  0  0
 50 67  1  0  0  0  0
 51 66  1  0  0  0  0
 52 61  1  0  0  0  0
 52 83  1  0  0  0  0
 54 63  1  0  0  0  0
 55 64  1  0  0  0  0
 56 64  1  0  0  0  0
 57 64  1  0  0  0  0
 58 75  1  0  0  0  0
 59 83  1  0  0  0  0
 60 74  1  0  0  0  0
 61 82  1  0  0  0  0
 62 64  1  0  0  0  0
 62 73  1  0  0  0  0
 63 75  1  0  0  0  0
 65 66  1  0  0  0  0
M  CHG  2  74   1  75   1
M  ISO  4  36 100  61 101  71 100  82 101
M  END
> <Batch ID>
0155

> <Smiles>
CNC(C)C(=O)NC(C(=O)N1Cc2cc([101O:1][101CH2:1]C3(OC)CCN(Cc4sc([100NH:0][100C:0](=O)N5CCCC(n6nc(-c7ccc(Oc8ccc(F)cc8F)cc7)c(C(N)=O)c6N)C5)cc4C)C3)ccc2CC1C(=O)NC1CCCc2ccccc21)C(C)(C)C

> <Shape>
0.211

> <Color>
0.184

> <Negative vol penalty>
0.000

$$$$

  -OEChem-04052303363D

 86 95  0     1  0  0  0  0  0999 V2000
  -17.0308  -30.4527   22.8917 C   0  0  0  0  0  0  0  0  0  0  0  0
  -18.3087  -29.9446   22.6819 C   0  0  0  0  0  0  0  0  0  0  0  0
  -22.9991   -9.9574   20.0327 C   0  0  0  0  0  0  0  0  0  0  0  0
  -23.7412  -10.0301   22.3308 C   0  0  0  0  0  0  0  0  0  0  0  0
  -16.1775  -29.8349   23.8050 C   0  0  0  0  0  0  0  0  0  0  0  0
  -18.7345  -28.8189   23.3861 C   0  0  0  0  0  0  0  0  0  0  0  0
  -22.4453  -24.3910   21.3539 C   0  0  0  0  0  0  0  0  0  0  0  0
  -22.2047   -8.8486   20.3243 C   0  0  0  0  0  0  0  0  0  0  0  0
  -22.9467   -8.9213   22.6224 C   0  0  0  0  0  0  0  0  0  0  0  0
  -23.8102  -24.1608   21.5211 C   0  0  0  0  0  0  0  0  0  0  0  0
  -19.2141   -8.2407   21.7804 C   0  0  0  0  0  0  0  0  0  0  0  0
  -17.9102   -8.2294   21.2853 C   0  0  0  0  0  0  0  0  0  0  0  0
  -29.7620  -17.7916   22.1799 C   0  0  0  0  0  0  0  0  0  0  0  0
  -30.9181  -19.6881   21.2295 C   0  0  0  0  0  0  0  0  0  0  0  0
  -23.3278  -22.6658   23.3517 C   0  0  0  0  0  0  0  0  0  0  0  0
  -31.3957  -17.4583   20.4316 C   0  0  0  0  0  0  0  0  0  0  0  0
  -18.3961   -6.2095   20.0519 C   0  0  0  0  0  0  0  0  0  0  0  0
  -23.7675  -10.5481   21.0359 C   0  0  0  0  0  0  0  0  0  0  0  0
  -29.9882  -19.1670   22.1291 C   0  0  0  0  0  0  0  0  0  0  0  0
  -24.2180  -13.0490   20.8122 C   0  0  0  0  0  0  0  0  0  0  0  0
  -16.5896  -28.6953   24.5136 C   0  0  0  0  0  0  0  0  0  0  0  0
  -21.5104  -23.7678   22.1929 C   0  0  0  0  0  0  0  0  0  0  0  0
  -17.8864  -28.1860   24.3107 C   0  0  0  0  0  0  0  0  0  0  0  0
  -21.9515  -22.8878   23.1916 C   0  0  0  0  0  0  0  0  0  0  0  0
  -30.4658  -16.9372   21.3312 C   0  0  0  0  0  0  0  0  0  0  0  0
  -22.1784   -8.3306   21.6192 C   0  0  0  0  0  0  0  0  0  0  0  0
  -24.2518  -23.3004   22.5219 C   0  0  0  0  0  0  0  0  0  0  0  0
  -20.1091   -7.2365   21.4112 C   0  0  0  0  0  0  0  0  0  0  0  0
  -17.5011   -7.2137   20.4211 C   0  0  0  0  0  0  0  0  0  0  0  0
  -31.6219  -18.8338   20.3807 C   0  0  0  0  0  0  0  0  0  0  0  0
  -19.7001   -6.2209   20.5470 C   0  0  0  0  0  0  0  0  0  0  0  0
  -24.5888  -11.6931   20.7352 C   0  0  0  0  0  0  0  0  0  0  0  0
  -25.3440  -13.7352   20.4277 C   0  0  0  0  0  0  0  0  0  0  0  0
  -27.2515  -21.4656   23.3845 C   0  0  0  0  0  0  0  0  0  0  0  0
  -29.2458  -20.0701   23.0266 C   0  0  0  0  0  0  0  0  0  0  0  0
  -22.9677  -13.6358   21.1970 C   0  0  0  0  0  0  0  0  0  0  0  0
  -19.3335  -24.7864   24.2731 C   0  0  0  0  0  0  0  0  0  0  0  0
  -18.5376  -21.6438   24.3859 C   0  0  0  0  0  0  0  0  0  0  0  0
  -19.4869  -18.3968   23.9359 C   0  0  0  0  0  0  0  0  0  0  0  0
  -30.8485  -14.5542   20.6092 C   0  0  0  0  0  0  0  0  0  0  0  0
  -15.6488  -28.0899   25.5251 C   0  0  0  0  0  0  0  0  0  0  0  0
  -20.0402  -24.0058   21.9824 C   0  0  0  0  0  0  0  0  0  0  0  0
  -20.9874  -22.1781   24.1055 C   0  0  0  0  0  0  0  0  0  0  0  0
  -16.0425  -26.6791   25.9551 C   0  0  0  0  0  0  0  0  0  0  0  0
  -29.6496  -12.0909   18.3350 C   0  0  0  0  0  0  0  0  0  0  0  0
  -17.5330  -26.6143   26.2729 C   0  0  0  0  0  0  0  0  0  0  0  0
  -28.1956  -11.8793   18.7631 C   0  0  0  0  0  0  0  0  0  0  0  0
  -26.5192  -21.4362   21.1372 C   0  0  0  0  0  0  0  0  0  0  0  0
  -30.5646  -12.3318   19.5344 C   0  0  0  0  0  0  0  0  0  0  0  0
  -27.4987  -20.2818   21.3139 C   0  0  0  0  0  0  0  0  0  0  0  0
  -28.6801  -13.1949   20.8658 C   0  0  0  0  0  0  0  0  0  0  0  0
  -18.3759  -26.9520   25.0372 C   0  0  1  0  0  0  0  0  0  0  0  0
  -26.0287  -21.7506   22.5499 C   0  0  2  0  0  0  0  0  0  1  0  0
  -19.2042  -23.7171   23.2255 C   0  0  1  0  0  0  0  0  0  0  0  0
  -27.7096  -13.0130   19.6873 C   0  0  2  0  0  0  0  0  0  0  0  0
  -18.6308  -16.0471   24.1449 C   0  0  0  0  0  0  0  0  0  0  0  0
  -18.8510  -21.8018   27.4168 C   0  0  0  0  0  0  0  0  0  0  0  0
  -18.9282  -19.3000   27.4694 C   0  0  0  0  0  0  0  0  0  0  0  0
  -16.8849  -20.4658   26.6396 C   0  0  0  0  0  0  0  0  0  0  0  0
  -19.8680  -17.8775   21.0473 C   0  0  0  0  0  0  0  0  0  0  0  0
  -18.9734  -20.4597   25.2146 C   0  0  1  0  0  0  0  0  0  0  0  0
  -18.8129  -17.2403   23.2198 C   0  0  2  0  0  0  0  0  0  0  0  0
  -18.4279  -20.5215   26.6693 C   0  0  0  0  0  0  0  0  0  0  0  0
  -25.8515  -11.5259   20.3332 N   0  0  0  0  0  0  0  0  0  0  0  0
  -26.2840  -12.7856   20.1541 N   0  0  0  0  0  0  0  0  0  0  0  0
  -28.0912  -20.5747   22.6295 N   0  0  0  0  0  0  0  0  0  0  0  0
  -19.5604  -22.4484   23.8641 N   0  0  0  0  0  0  0  0  0  0  0  0
  -30.0437  -13.4220   20.3621 N   0  0  0  0  0  0  0  0  0  0  0  0
  -25.6118  -15.0522   20.3003 N   0  0  0  0  0  0  0  0  0  0  0  0
  -21.9152  -12.7856   21.5629 N   0  0  0  0  0  0  0  0  0  0  0  0
  -30.2352  -15.5400   21.3816 N   0  0  0  0  0  0  0  0  0  0  0  0
  -18.4275  -25.8208   24.1361 N   0  0  0  0  0  0  0  0  0  0  0  0
  -18.5659  -19.2708   24.4738 N   0  0  0  0  0  0  0  0  0  0  0  0
  -29.7488  -20.3615   24.2225 N   0  3  0  0  0  0  0  0  0  0  0  0
  -19.6300  -16.8081   22.0507 N   0  3  0  0  0  0  0  0  0  0  0  0
  -27.5265  -21.8787   24.4962 O   0  0  0  0  0  0  0  0  0  0  0  0
  -22.7839  -14.8766   21.1999 O   0  0  0  0  0  0  0  0  0  0  0  0
  -20.1908  -24.6802   25.1423 O   0  0  0  0  0  0  0  0  0  0  0  0
  -17.3343  -21.8433   24.2020 O   0  0  0  0  0  0  0  0  0  0  0  0
  -20.7081  -18.5112   24.0138 O   0  0  0  0  0  0  0  0  0  0  0  0
  -31.9873  -14.6547   20.1455 O   0  0  0  0  0  0  0  0  0  0  0  0
  -21.4031   -7.2488   21.9042 O   0  0  0  0  0  0  0  0  0  0  0  0
  -25.5835  -23.0745   22.6876 O   0  0  0  0  0  0  0  0  0  1  0  0
  -16.2484   -7.2021   19.9469 F   0  0  0  0  0  0  0  0  0  0  0  0
  -32.5149  -19.3342   19.5169 F   0  0  0  0  0  0  0  0  0  0  0  0
  -20.5551   -5.2529   20.1896 F   0  0  0  0  0  0  0  0  0  0  0  0
  1  2  1  0  0  0  0
  1  5  2  0  0  0  0
  2  6  2  0  0  0  0
  3  8  2  0  0  0  0
  3 18  1  0  0  0  0
  4  9  1  0  0  0  0
  4 18  2  0  0  0  0
  5 21  1  0  0  0  0
  6 23  1  0  0  0  0
  7 10  2  0  0  0  0
  7 22  1  0  0  0  0
  8 26  1  0  0  0  0
  9 26  2  0  0  0  0
 10 27  1  0  0  0  0
 11 12  2  0  0  0  0
 11 28  1  0  0  0  0
 12 29  1  0  0  0  0
 13 19  2  0  0  0  0
 13 25  1  0  0  0  0
 14 19  1  0  0  0  0
 14 30  2  0  0  0  0
 15 24  1  0  0  0  0
 15 27  2  0  0  0  0
 16 25  2  0  0  0  0
 16 30  1  0  0  0  0
 17 29  2  0  0  0  0
 17 31  1  0  0  0  0
 18 32  1  0  0  0  0
 19 35  1  0  0  0  0
 20 32  1  0  0  0  0
 20 33  2  0  0  0  0
 20 36  1  0  0  0  0
 21 23  2  0  0  0  0
 21 41  1  0  0  0  0
 22 24  2  0  0  0  0
 22 42  1  0  0  0  0
 23 52  1  0  0  0  0
 24 43  1  0  0  0  0
 25 71  1  0  0  0  0
 26 82  1  0  0  0  0
 27 83  1  0  0  0  0
 28 31  2  0  0  0  0
 28 82  1  0  0  0  0
 29 84  1  0  0  0  0
 30 85  1  0  0  0  0
 31 86  1  0  0  0  0
 32 64  2  0  0  0  0
 33 65  1  0  0  0  0
 33 69  1  0  0  0  0
 34 53  1  0  0  0  0
 34 66  1  0  0  0  0
 34 76  2  0  0  0  0
 35 66  1  0  0  0  0
 35 74  2  0  0  0  0
 36 70  1  0  0  0  0
 36 77  2  0  0  0  0
 37 54  1  0  0  0  0
 37 72  1  0  0  0  0
 37 78  2  0  0  0  0
 38 61  1  0  0  0  0
 38 67  1  0  0  0  0
 38 79  2  0  0  0  0
 39 62  1  0  0  0  0
 39 73  1  0  0  0  0
 39 80  2  0  0  0  0
 40 68  1  0  0  0  0
 40 71  1  0  0  0  0
 40 81  2  0  0  0  0
 41 44  1  0  0  0  0
 42 54  1  0  0  0  0
 43 67  1  0  0  0  0
 44 46  1  0  0  0  0
 45 47  1  0  0  0  0
 45 49  1  0  0  0  0
 46 52  1  0  0  0  0
 47 55  1  0  0  0  0
 48 50  1  0  0  0  0
 48 53  1  0  0  0  0
 49 68  1  0  0  0  0
 50 66  1  0  0  0  0
 51 55  1  0  0  0  0
 51 68  1  0  0  0  0
 52 72  1  0  0  0  0
 53 83  1  0  0  0  0
 54 67  1  0  0  0  0
 55 65  1  0  0  0  0
 56 62  1  0  0  0  0
 57 63  1  0  0  0  0
 58 63  1  0  0  0  0
 59 63  1  0  0  0  0
 60 75  1  0  0  0  0
 61 63  1  0  0  0  0
 61 73  1  0  0  0  0
 62 75  1  0  0  0  0
 64 65  1  0  0  0  0
M  CHG  2  74   1  75   1
M  ISO  4  40 100  53 101  71 100  83 101
M  END
> <Batch ID>
0155

> <Smiles>
CNC(C)C(=O)NC(C(=O)N1Cc2cc([101O:1][101CH:1]3CCN(C(=N)c4cc(F)cc([100NH:0][100C:0](=O)N5CCCC(n6nc(-c7ccc(Oc8ccc(F)cc8F)cc7)c(C(N)=O)c6N)C5)c4)C3=O)ccc2CC1C(=O)NC1CCCc2ccccc21)C(C)(C)C

> <Shape>
0.193

> <Color>
0.199

> <Negative vol penalty>
0.000

$$$$

  -OEChem-04052303363D

 82 91  0     1  0  0  0  0  0999 V2000
  -30.2810  -34.2634   23.9614 C   0  0  0  0  0  0  0  0  0  0  0  0
  -29.7920  -32.9611   23.9803 C   0  0  0  0  0  0  0  0  0  0  0  0
  -24.3512   -8.6653   20.4410 C   0  0  0  0  0  0  0  0  0  0  0  0
  -22.8666  -10.5272   20.8484 C   0  0  0  0  0  0  0  0  0  0  0  0
  -29.3946  -35.3396   23.9542 C   0  0  0  0  0  0  0  0  0  0  0  0
  -28.4162  -32.7343   23.9932 C   0  0  0  0  0  0  0  0  0  0  0  0
  -27.0159  -29.1006   20.7558 C   0  0  0  0  0  0  0  0  0  0  0  0
  -23.3727   -7.7843   20.9013 C   0  0  0  0  0  0  0  0  0  0  0  0
  -21.8880   -9.6462   21.3087 C   0  0  0  0  0  0  0  0  0  0  0  0
  -27.2299  -27.7803   21.1492 C   0  0  0  0  0  0  0  0  0  0  0  0
  -22.1600   -6.7449   23.8801 C   0  0  0  0  0  0  0  0  0  0  0  0
  -22.5579   -5.7372   24.7587 C   0  0  0  0  0  0  0  0  0  0  0  0
  -24.9089  -27.5985   21.7808 C   0  0  0  0  0  0  0  0  0  0  0  0
  -21.7953   -4.0670   23.1883 C   0  0  0  0  0  0  0  0  0  0  0  0
  -24.0982  -10.0368   20.4145 C   0  0  0  0  0  0  0  0  0  0  0  0
  -25.3005  -11.3900   18.6171 C   0  0  0  0  0  0  0  0  0  0  0  0
  -28.0072  -35.1257   23.9573 C   0  0  0  0  0  0  0  0  0  0  0  0
  -25.7471  -29.6842   20.8824 C   0  0  0  0  0  0  0  0  0  0  0  0
  -27.5104  -33.8087   23.9874 C   0  0  0  0  0  0  0  0  0  0  0  0
  -24.6808  -28.9256   21.3860 C   0  0  0  0  0  0  0  0  0  0  0  0
  -22.1411   -8.2747   21.3352 C   0  0  0  0  0  0  0  0  0  0  0  0
  -26.1771  -27.0299   21.6645 C   0  0  0  0  0  0  0  0  0  0  0  0
  -21.5797   -6.4137   22.6557 C   0  0  0  0  0  0  0  0  0  0  0  0
  -22.3756   -4.3982   24.4127 C   0  0  0  0  0  0  0  0  0  0  0  0
  -21.3974   -5.0747   22.3097 C   0  0  0  0  0  0  0  0  0  0  0  0
  -25.1088  -10.9474   19.9396 C   0  0  0  0  0  0  0  0  0  0  0  0
  -27.7442  -19.2996   20.4236 C   0  0  0  0  0  0  0  0  0  0  0  0
  -28.9315  -19.3112   19.7498 C   0  0  0  0  0  0  0  0  0  0  0  0
  -26.3802  -12.2358   18.6912 C   0  0  0  0  0  0  0  0  0  0  0  0
  -28.1387  -21.4189   20.4716 C   0  0  0  0  0  0  0  0  0  0  0  0
  -24.5681  -11.0656   17.4279 C   0  0  0  0  0  0  0  0  0  0  0  0
  -29.0640  -16.4139   21.2659 C   0  0  0  0  0  0  0  0  0  0  0  0
  -24.5610  -32.1421   22.5120 C   0  0  0  0  0  0  0  0  0  0  0  0
  -21.8759  -31.4641   20.8230 C   0  0  0  0  0  0  0  0  0  0  0  0
  -27.0777  -23.5265   21.3471 C   0  0  0  0  0  0  0  0  0  0  0  0
  -20.0460  -29.1614   19.0923 C   0  0  0  0  0  0  0  0  0  0  0  0
  -27.0885  -36.3212   23.9969 C   0  0  0  0  0  0  0  0  0  0  0  0
  -25.5264  -31.1012   20.4286 C   0  0  0  0  0  0  0  0  0  0  0  0
  -23.2949  -29.4991   21.5233 C   0  0  0  0  0  0  0  0  0  0  0  0
  -27.1898  -17.9374   20.5650 C   0  0  0  0  0  0  0  0  0  0  0  0
  -29.3977  -17.9787   19.3150 C   0  0  0  0  0  0  0  0  0  0  0  0
  -25.6432  -35.9910   23.6329 C   0  0  0  0  0  0  0  0  0  0  0  0
  -29.6609  -13.0804   22.4370 C   0  0  0  0  0  0  0  0  0  0  0  0
  -25.1795  -34.7391   24.3708 C   0  0  0  0  0  0  0  0  0  0  0  0
  -28.5281  -12.2706   21.8076 C   0  0  0  0  0  0  0  0  0  0  0  0
  -29.2019  -14.4868   22.8091 C   0  0  0  0  0  0  0  0  0  0  0  0
  -27.4709  -14.4434   21.0418 C   0  0  0  0  0  0  0  0  0  0  0  0
  -26.0246  -33.5217   23.9768 C   0  0  1  0  0  0  0  0  0  0  0  0
  -28.3879  -17.0457   20.0752 C   0  0  1  0  0  0  0  0  0  0  0  0
  -24.3127  -31.7555   21.0815 C   0  0  1  0  0  0  0  0  0  0  0  0
  -27.9006  -13.0262   20.6228 C   0  0  2  0  0  0  0  0  0  0  0  0
  -17.8758  -28.8917   17.8614 C   0  0  0  0  0  0  0  0  0  0  0  0
  -20.3861  -31.3350   23.4827 C   0  0  0  0  0  0  0  0  0  0  0  0
  -18.5196  -30.1574   22.3004 C   0  0  0  0  0  0  0  0  0  0  0  0
  -19.1395  -32.4827   21.6434 C   0  0  0  0  0  0  0  0  0  0  0  0
  -21.4303  -28.5120   16.5584 C   0  0  0  0  0  0  0  0  0  0  0  0
  -27.3948  -25.0103   21.3574 C   0  0  0  0  0  0  0  0  0  1  0  0
  -20.6774  -30.5708   21.0338 C   0  0  1  0  0  0  0  0  0  0  0  0
  -19.3531  -29.2329   17.7435 C   0  0  2  0  0  0  0  0  0  0  0  0
  -19.7071  -31.1260   22.1144 C   0  0  0  0  0  0  0  0  0  0  0  0
  -25.9956  -11.4688   20.7915 N   0  0  0  0  0  0  0  0  0  0  0  0
  -27.2643  -20.5005   20.8509 N   0  0  0  0  0  0  0  0  0  0  0  0
  -26.7551  -12.2476   20.0024 N   0  0  0  0  0  0  0  0  0  0  0  0
  -28.5914  -15.1630   21.6631 N   0  0  0  0  0  0  0  0  0  0  0  0
  -23.1309  -30.8908   21.0719 N   0  0  0  0  0  0  0  0  0  0  0  0
  -27.0359  -12.9629   17.7619 N   0  0  0  0  0  0  0  0  0  0  0  0
  -23.4867  -10.1800   17.5300 N   0  0  0  0  0  0  0  0  0  0  0  0
  -28.0750  -22.8159   20.6879 N   0  0  0  0  0  0  0  0  0  0  0  0
  -25.6149  -33.0194   22.6829 N   0  0  0  0  0  0  0  0  0  0  0  0
  -20.0682  -30.3885   19.7207 N   0  0  0  0  0  0  0  0  0  0  0  0
  -19.9812  -28.2779   16.7873 N   0  3  0  0  0  0  0  0  0  0  0  0
  -24.8741  -11.5341   16.3053 O   0  0  0  0  0  0  0  0  0  0  0  0
  -29.9865  -17.0145   21.8231 O   0  0  0  0  0  0  0  0  0  0  0  0
  -23.8484  -31.6799   23.3953 O   0  0  0  0  0  0  0  0  0  0  0  0
  -21.7052  -32.6257   20.4445 O   0  0  0  0  0  0  0  0  0  0  0  0
  -26.0600  -23.0833   21.8692 O   0  0  0  0  0  0  0  0  0  0  0  0
  -20.5168  -28.1202   19.5450 O   0  0  0  0  0  0  0  0  0  0  0  0
  -21.1860   -7.4153   21.7842 O   0  0  0  0  0  0  0  0  0  0  0  0
  -26.3834  -25.7412   22.0498 O   0  0  0  0  0  0  0  0  0  1  0  0
  -22.7591   -3.4306   25.2558 F   0  0  0  0  0  0  0  0  0  0  0  0
  -20.8416   -4.7504   21.1343 F   0  0  0  0  0  0  0  0  0  0  0  0
  -29.5396  -20.8614   19.6026 S   0  0  0  0  0  0  0  0  0  0  0  0
  1  2  1  0  0  0  0
  1  5  2  0  0  0  0
  2  6  2  0  0  0  0
  3  8  2  0  0  0  0
  3 15  1  0  0  0  0
  4  9  1  0  0  0  0
  4 15  2  0  0  0  0
  5 17  1  0  0  0  0
  6 19  1  0  0  0  0
  7 10  2  0  0  0  0
  7 18  1  0  0  0  0
  8 21  1  0  0  0  0
  9 21  2  0  0  0  0
 10 22  1  0  0  0  0
 11 12  2  0  0  0  0
 11 23  1  0  0  0  0
 12 24  1  0  0  0  0
 13 20  1  0  0  0  0
 13 22  2  0  0  0  0
 14 24  2  0  0  0  0
 14 25  1  0  0  0  0
 15 26  1  0  0  0  0
 16 26  1  0  0  0  0
 16 29  2  0  0  0  0
 16 31  1  0  0  0  0
 17 19  2  0  0  0  0
 17 37  1  0  0  0  0
 18 20  2  0  0  0  0
 18 38  1  0  0  0  0
 19 48  1  0  0  0  0
 20 39  1  0  0  0  0
 21 78  1  0  0  0  0
 22 79  1  0  0  0  0
 23 25  2  0  0  0  0
 23 78  1  0  0  0  0
 24 80  1  0  0  0  0
 25 81  1  0  0  0  0
 26 61  2  0  0  0  0
 27 28  2  0  0  0  0
 27 40  1  0  0  0  0
 27 62  1  0  0  0  0
 28 41  1  0  0  0  0
 28 82  1  0  0  0  0
 29 63  1  0  0  0  0
 29 66  1  0  0  0  0
 30 62  2  0  0  0  0
 30 68  1  0  0  0  0
 30 82  1  0  0  0  0
 31 67  1  0  0  0  0
 31 72  2  0  0  0  0
 32 49  1  0  0  0  0
 32 64  1  0  0  0  0
 32 73  2  0  0  0  0
 33 50  1  0  0  0  0
 33 69  1  0  0  0  0
 33 74  2  0  0  0  0
 34 58  1  0  0  0  0
 34 65  1  0  0  0  0
 34 75  2  0  0  0  0
 35 57  1  0  0  0  0
 35 68  1  0  0  0  0
 35 76  2  0  0  0  0
 36 59  1  0  0  0  0
 36 70  1  0  0  0  0
 36 77  2  0  0  0  0
 37 42  1  0  0  0  0
 38 50  1  0  0  0  0
 39 65  1  0  0  0  0
 40 49  1  0  0  0  0
 41 49  1  0  0  0  0
 42 44  1  0  0  0  0
 43 45  1  0  0  0  0
 43 46  1  0  0  0  0
 44 48  1  0  0  0  0
 45 51  1  0  0  0  0
 46 64  1  0  0  0  0
 47 51  1  0  0  0  0
 47 64  1  0  0  0  0
 48 69  1  0  0  0  0
 50 65  1  0  0  0  0
 51 63  1  0  0  0  0
 52 59  1  0  0  0  0
 53 60  1  0  0  0  0
 54 60  1  0  0  0  0
 55 60  1  0  0  0  0
 56 71  1  0  0  0  0
 57 79  1  0  0  0  0
 58 60  1  0  0  0  0
 58 70  1  0  0  0  0
 59 71  1  0  0  0  0
 61 63  1  0  0  0  0
M  CHG  1  71   1
M  ISO  4  32 100  49 100  57 101  79 101
M  END
> <Batch ID>
0155

> <Smiles>
CNC(C)C(=O)NC(C(=O)N1Cc2cc([101O:1][101CH2:1]C(=O)Nc3nc4c(s3)C[100CH:0]([100C:0](=O)N3CCCC(n5nc(-c6ccc(Oc7ccc(F)cc7F)cc6)c(C(N)=O)c5N)C3)C4)ccc2CC1C(=O)NC1CCCc2ccccc21)C(C)(C)C

> <Shape>
0.290

> <Color>
0.099

> <Negative vol penalty>
0.000

$$$$

  -OEChem-04052303363D

 86 95  0     1  0  0  0  0  0999 V2000
  -16.3286  -29.1025   23.6596 C   0  0  0  0  0  0  0  0  0  0  0  0
  -17.0195  -28.3246   22.7360 C   0  0  0  0  0  0  0  0  0  0  0  0
  -22.6188  -10.3412   20.3241 C   0  0  0  0  0  0  0  0  0  0  0  0
  -24.1741   -9.7057   22.0603 C   0  0  0  0  0  0  0  0  0  0  0  0
  -16.9267  -30.2423   24.1952 C   0  0  0  0  0  0  0  0  0  0  0  0
  -18.3086  -28.6868   22.3466 C   0  0  0  0  0  0  0  0  0  0  0  0
  -23.8665  -24.2035   23.2957 C   0  0  0  0  0  0  0  0  0  0  0  0
  -21.8287   -9.2320   20.6259 C   0  0  0  0  0  0  0  0  0  0  0  0
  -23.3839   -8.5965   22.3621 C   0  0  0  0  0  0  0  0  0  0  0  0
  -24.9451  -23.3199   23.2506 C   0  0  0  0  0  0  0  0  0  0  0  0
  -20.5336   -7.9591   24.0619 C   0  0  0  0  0  0  0  0  0  0  0  0
  -20.2795   -7.6930   25.4074 C   0  0  0  0  0  0  0  0  0  0  0  0
  -26.3601  -25.0751   22.3758 C   0  0  0  0  0  0  0  0  0  0  0  0
  -32.0648  -17.3635   21.4674 C   0  0  0  0  0  0  0  0  0  0  0  0
  -21.3347   -5.5316   25.1792 C   0  0  0  0  0  0  0  0  0  0  0  0
  -30.1152  -17.8119   22.5008 C   0  0  0  0  0  0  0  0  0  0  0  0
  -23.7915  -10.5780   21.0413 C   0  0  0  0  0  0  0  0  0  0  0  0
  -24.2295  -13.0780   20.7847 C   0  0  0  0  0  0  0  0  0  0  0  0
  -18.2274  -30.6134   23.8195 C   0  0  0  0  0  0  0  0  0  0  0  0
  -24.0347  -25.5319   22.8950 C   0  0  0  0  0  0  0  0  0  0  0  0
  -18.9241  -29.8335   22.8768 C   0  0  0  0  0  0  0  0  0  0  0  0
  -25.2865  -25.9679   22.4305 C   0  0  0  0  0  0  0  0  0  0  0  0
  -30.7722  -16.8592   21.7538 C   0  0  0  0  0  0  0  0  0  0  0  0
  -22.2112   -8.3597   21.6448 C   0  0  0  0  0  0  0  0  0  0  0  0
  -26.1887  -23.7546   22.7916 C   0  0  0  0  0  0  0  0  0  0  0  0
  -21.1881   -7.0114   23.2751 C   0  0  0  0  0  0  0  0  0  0  0  0
  -20.6801   -6.4793   25.9660 C   0  0  0  0  0  0  0  0  0  0  0  0
  -21.5887   -5.7977   23.8337 C   0  0  0  0  0  0  0  0  0  0  0  0
  -24.6084  -11.7233   20.7298 C   0  0  0  0  0  0  0  0  0  0  0  0
  -32.1584  -18.6090   22.0483 C   0  0  0  0  0  0  0  0  0  0  0  0
  -25.3542  -13.7651   20.3981 C   0  0  0  0  0  0  0  0  0  0  0  0
  -33.2426  -20.5246   20.8813 C   0  0  0  0  0  0  0  0  0  0  0  0
  -22.9732  -13.6630   21.1523 C   0  0  0  0  0  0  0  0  0  0  0  0
  -22.4739  -28.9114   22.4275 C   0  0  0  0  0  0  0  0  0  0  0  0
  -25.2846  -29.3776   23.5646 C   0  0  0  0  0  0  0  0  0  0  0  0
  -28.0483  -30.5796   25.1628 C   0  0  0  0  0  0  0  0  0  0  0  0
  -30.8525  -14.6184   20.6055 C   0  0  0  0  0  0  0  0  0  0  0  0
  -18.8143  -31.8802   24.3900 C   0  0  0  0  0  0  0  0  0  0  0  0
  -22.8854  -26.5025   22.8687 C   0  0  0  0  0  0  0  0  0  0  0  0
  -25.4121  -27.3967   21.9770 C   0  0  0  0  0  0  0  0  0  0  0  0
  -20.3261  -31.9872   24.2075 C   0  0  0  0  0  0  0  0  0  0  0  0
  -29.6836  -12.1156   18.3591 C   0  0  0  0  0  0  0  0  0  0  0  0
  -20.7180  -31.6273   22.7779 C   0  0  0  0  0  0  0  0  0  0  0  0
  -28.8215  -20.3691   25.0761 C   0  0  0  0  0  0  0  0  0  0  0  0
  -28.2278  -11.9018   18.7801 C   0  0  0  0  0  0  0  0  0  0  0  0
  -30.2643  -19.8986   24.9238 C   0  0  0  0  0  0  0  0  0  0  0  0
  -29.4283  -20.8797   22.8310 C   0  0  0  0  0  0  0  0  0  0  0  0
  -30.5888  -12.3791   19.5611 C   0  0  0  0  0  0  0  0  0  0  0  0
  -28.6901  -13.2505   20.8668 C   0  0  0  0  0  0  0  0  0  0  0  0
  -20.3335  -30.1799   22.4482 C   0  0  1  0  0  0  0  0  0  0  0  0
  -23.3032  -27.9422   23.2177 C   0  0  1  0  0  0  0  0  0  0  0  0
  -28.6947  -21.4732   24.0323 C   0  0  1  0  0  0  0  0  0  0  0  0
  -30.6266  -20.1288   23.4415 C   0  0  2  0  0  0  0  0  0  0  0  0
  -27.7290  -13.0459   19.6845 C   0  0  2  0  0  0  0  0  0  0  0  0
  -29.4747  -32.6353   25.3544 C   0  0  0  0  0  0  0  0  0  0  0  0
  -26.5476  -28.7488   20.8603 C   0  0  0  0  0  0  0  0  0  0  0  0
  -28.5045  -30.1617   21.5254 C   0  0  0  0  0  0  0  0  0  0  0  0
  -26.2389  -31.1864   21.3263 C   0  0  0  0  0  0  0  0  0  0  0  0
  -27.4705  -30.8523   28.0526 C   0  0  0  0  0  0  0  0  0  0  0  0
  -27.2540  -21.8457   23.7289 C   0  0  0  0  0  0  0  0  0  1  0  0
  -33.2819  -19.5681   22.0579 C   0  0  2  0  0  0  0  0  0  0  0  0
  -26.7382  -29.6509   23.2719 C   0  0  1  0  0  0  0  0  0  0  0  0
  -28.2902  -31.8705   25.9242 C   0  0  2  0  0  0  0  0  0  0  0  0
  -26.9993  -29.9149   21.7620 C   0  0  0  0  0  0  0  0  0  0  0  0
  -25.8748  -11.5575   20.3389 N   0  0  0  0  0  0  0  0  0  0  0  0
  -33.2163  -21.8045   21.0453 N   0  0  0  0  0  0  0  0  0  0  0  0
  -30.9676  -18.8710   22.6739 N   0  0  0  0  0  0  0  0  0  0  0  0
  -26.3014  -12.8171   20.1447 N   0  0  0  0  0  0  0  0  0  0  0  0
  -24.7025  -28.2846   22.9112 N   0  0  0  0  0  0  0  0  0  0  0  0
  -30.0559  -13.4781   20.3693 N   0  0  0  0  0  0  0  0  0  0  0  0
  -25.6154  -15.0816   20.2536 N   0  0  0  0  0  0  0  0  0  0  0  0
  -22.7573  -13.9914   22.4976 N   0  0  0  0  0  0  0  0  0  0  0  0
  -30.2282  -15.6118   21.3592 N   0  0  0  0  0  0  0  0  0  0  0  0
  -21.2825  -29.2586   23.0354 N   0  0  0  0  0  0  0  0  0  0  0  0
  -27.1312  -30.7499   24.1473 N   0  0  0  0  0  0  0  0  0  0  0  0
  -34.6480  -18.9291   22.0766 N   0  3  0  0  0  0  0  0  0  0  0  0
  -28.5642  -31.5813   27.3602 N   0  3  0  0  0  0  0  0  0  0  0  0
  -22.0626  -13.8727   20.3154 O   0  0  0  0  0  0  0  0  0  0  0  0
  -22.8843  -29.3165   21.3462 O   0  0  0  0  0  0  0  0  0  0  0  0
  -24.6777  -30.1150   24.3464 O   0  0  0  0  0  0  0  0  0  0  0  0
  -28.6187  -29.5266   25.4388 O   0  0  0  0  0  0  0  0  0  0  0  0
  -31.9939  -14.7188   20.1482 O   0  0  0  0  0  0  0  0  0  0  0  0
  -21.4404   -7.2774   21.9397 O   0  0  0  0  0  0  0  0  0  0  0  0
  -27.2386  -22.8880   22.7544 O   0  0  0  0  0  0  0  0  0  1  0  0
  -20.4374   -6.2246   27.2585 F   0  0  0  0  0  0  0  0  0  0  0  0
  -22.2191   -4.8839   23.0831 F   0  0  0  0  0  0  0  0  0  0  0  0
  1  2  1  0  0  0  0
  1  5  2  0  0  0  0
  2  6  2  0  0  0  0
  3  8  2  0  0  0  0
  3 17  1  0  0  0  0
  4  9  1  0  0  0  0
  4 17  2  0  0  0  0
  5 19  1  0  0  0  0
  6 21  1  0  0  0  0
  7 10  2  0  0  0  0
  7 20  1  0  0  0  0
  8 24  1  0  0  0  0
  9 24  2  0  0  0  0
 10 25  1  0  0  0  0
 11 12  2  0  0  0  0
 11 26  1  0  0  0  0
 12 27  1  0  0  0  0
 13 22  1  0  0  0  0
 13 25  2  0  0  0  0
 14 23  1  0  0  0  0
 14 30  2  0  0  0  0
 15 27  2  0  0  0  0
 15 28  1  0  0  0  0
 16 23  2  0  0  0  0
 16 67  1  0  0  0  0
 17 29  1  0  0  0  0
 18 29  1  0  0  0  0
 18 31  2  0  0  0  0
 18 33  1  0  0  0  0
 19 21  2  0  0  0  0
 19 38  1  0  0  0  0
 20 22  2  0  0  0  0
 20 39  1  0  0  0  0
 21 50  1  0  0  0  0
 22 40  1  0  0  0  0
 23 73  1  0  0  0  0
 24 83  1  0  0  0  0
 25 84  1  0  0  0  0
 26 28  2  0  0  0  0
 26 83  1  0  0  0  0
 27 85  1  0  0  0  0
 28 86  1  0  0  0  0
 29 65  2  0  0  0  0
 30 61  1  0  0  0  0
 30 67  1  0  0  0  0
 31 68  1  0  0  0  0
 31 71  1  0  0  0  0
 32 61  1  0  0  0  0
 32 66  2  0  0  0  0
 33 72  1  0  0  0  0
 33 78  2  0  0  0  0
 34 51  1  0  0  0  0
 34 74  1  0  0  0  0
 34 79  2  0  0  0  0
 35 62  1  0  0  0  0
 35 69  1  0  0  0  0
 35 80  2  0  0  0  0
 36 63  1  0  0  0  0
 36 75  1  0  0  0  0
 36 81  2  0  0  0  0
 37 70  1  0  0  0  0
 37 73  1  0  0  0  0
 37 82  2  0  0  0  0
 38 41  1  0  0  0  0
 39 51  1  0  0  0  0
 40 69  1  0  0  0  0
 41 43  1  0  0  0  0
 42 45  1  0  0  0  0
 42 48  1  0  0  0  0
 43 50  1  0  0  0  0
 44 46  1  0  0  0  0
 44 52  1  0  0  0  0
 45 54  1  0  0  0  0
 46 53  1  0  0  0  0
 47 52  1  0  0  0  0
 47 53  1  0  0  0  0
 48 70  1  0  0  0  0
 49 54  1  0  0  0  0
 49 70  1  0  0  0  0
 50 74  1  0  0  0  0
 51 69  1  0  0  0  0
 52 60  1  0  0  0  0
 53 67  1  0  0  0  0
 54 68  1  0  0  0  0
 55 63  1  0  0  0  0
 56 64  1  0  0  0  0
 57 64  1  0  0  0  0
 58 64  1  0  0  0  0
 59 77  1  0  0  0  0
 60 84  1  0  0  0  0
 61 76  1  0  0  0  0
 62 64  1  0  0  0  0
 62 75  1  0  0  0  0
 63 77  1  0  0  0  0
 65 68  1  0  0  0  0
M  CHG  2  76   1  77   1
M  ISO  4  37 100  60 101  73 100  84 101
M  END
> <Batch ID>
0155

> <Smiles>
CNC(C)C(=O)NC(C(=O)N1Cc2cc([101O:1][101CH2:1]C3CCC(n4cc([100NH:0][100C:0](=O)N5CCCC(n6nc(-c7ccc(Oc8ccc(F)cc8F)cc7)c(C(N)=O)c6N)C5)cc4C(N)C=N)C3)ccc2CC1C(=O)NC1CCCc2ccccc21)C(C)(C)C

> <Shape>
0.329

> <Color>
0.190

> <Negative vol penalty>
0.000

$$$$

  -OEChem-04052303363D

 87 96  0     1  0  0  0  0  0999 V2000
  -24.7922  -38.3557   19.4632 C   0  0  0  0  0  0  0  0  0  0  0  0
  -25.1022  -37.2369   18.6966 C   0  0  0  0  0  0  0  0  0  0  0  0
  -29.7364  -18.1815   20.8434 C   0  0  0  0  0  0  0  0  0  0  0  0
  -21.1611  -11.3808   20.9885 C   0  0  0  0  0  0  0  0  0  0  0  0
  -23.5340  -11.7300   20.6980 C   0  0  0  0  0  0  0  0  0  0  0  0
  -30.2346  -19.0519   19.8740 C   0  0  0  0  0  0  0  0  0  0  0  0
  -25.0259  -38.3441   20.8376 C   0  0  0  0  0  0  0  0  0  0  0  0
  -25.6471  -36.1061   19.3040 C   0  0  0  0  0  0  0  0  0  0  0  0
  -25.7019  -28.9625   18.7727 C   0  0  0  0  0  0  0  0  0  0  0  0
  -28.3592  -18.0166   20.9911 C   0  0  0  0  0  0  0  0  0  0  0  0
  -21.2991  -10.0681   20.5376 C   0  0  0  0  0  0  0  0  0  0  0  0
  -23.6720  -10.4172   20.2471 C   0  0  0  0  0  0  0  0  0  0  0  0
  -26.5954  -27.8954   18.6912 C   0  0  0  0  0  0  0  0  0  0  0  0
  -22.3440   -7.1033   21.7832 C   0  0  0  0  0  0  0  0  0  0  0  0
  -21.6917   -6.1000   22.4996 C   0  0  0  0  0  0  0  0  0  0  0  0
  -27.9784  -19.5928   19.2001 C   0  0  0  0  0  0  0  0  0  0  0  0
  -26.8821  -27.9604   21.0855 C   0  0  0  0  0  0  0  0  0  0  0  0
  -20.4325   -5.5081   20.5244 C   0  0  0  0  0  0  0  0  0  0  0  0
  -22.2786  -12.2118   21.0686 C   0  0  0  0  0  0  0  0  0  0  0  0
  -29.3556  -19.7575   19.0524 C   0  0  0  0  0  0  0  0  0  0  0  0
  -21.6570  -13.9909   22.7880 C   0  0  0  0  0  0  0  0  0  0  0  0
  -25.5650  -37.2091   21.4636 C   0  0  0  0  0  0  0  0  0  0  0  0
  -25.3996  -29.5447   20.0121 C   0  0  0  0  0  0  0  0  0  0  0  0
  -25.8895  -36.0798   20.6879 C   0  0  0  0  0  0  0  0  0  0  0  0
  -25.9825  -29.0332   21.1804 C   0  0  0  0  0  0  0  0  0  0  0  0
  -27.4802  -18.7223   20.1695 C   0  0  0  0  0  0  0  0  0  0  0  0
  -22.5545   -9.5863   20.1670 C   0  0  0  0  0  0  0  0  0  0  0  0
  -27.1878  -27.3960   19.8474 C   0  0  0  0  0  0  0  0  0  0  0  0
  -22.0405   -7.3092   20.4373 C   0  0  0  0  0  0  0  0  0  0  0  0
  -20.7360   -5.3023   21.8703 C   0  0  0  0  0  0  0  0  0  0  0  0
  -21.0848   -6.5116   19.8080 C   0  0  0  0  0  0  0  0  0  0  0  0
  -22.1367  -13.5681   21.5338 C   0  0  0  0  0  0  0  0  0  0  0  0
  -21.7191  -15.3620   22.7349 C   0  0  0  0  0  0  0  0  0  0  0  0
  -29.8811  -20.6771   18.0274 C   0  0  0  0  0  0  0  0  0  0  0  0
  -21.1966  -13.2138   23.9014 C   0  0  0  0  0  0  0  0  0  0  0  0
  -25.7688  -32.4350   21.2824 C   0  0  0  0  0  0  0  0  0  0  0  0
  -24.0714  -31.1493   23.7295 C   0  0  0  0  0  0  0  0  0  0  0  0
  -23.0853  -28.3509   25.4158 C   0  0  0  0  0  0  0  0  0  0  0  0
  -25.0718  -19.1778   19.5878 C   0  0  0  0  0  0  0  0  0  0  0  0
  -25.8440  -37.2608   22.9449 C   0  0  0  0  0  0  0  0  0  0  0  0
  -24.4133  -30.6779   20.0861 C   0  0  0  0  0  0  0  0  0  0  0  0
  -25.6758  -29.6097   22.5376 C   0  0  0  0  0  0  0  0  0  0  0  0
  -26.0754  -35.8872   23.5694 C   0  0  0  0  0  0  0  0  0  0  0  0
  -21.5159  -19.0024   19.6301 C   0  0  0  0  0  0  0  0  0  0  0  0
  -27.0359  -35.0669   22.7141 C   0  0  0  0  0  0  0  0  0  0  0  0
  -21.2278  -17.6300   20.2428 C   0  0  0  0  0  0  0  0  0  0  0  0
  -29.6396  -24.0679   17.2287 C   0  0  0  0  0  0  0  0  0  0  0  0
  -28.8401  -23.6216   19.5901 C   0  0  0  0  0  0  0  0  0  0  0  0
  -22.7490  -18.9737   18.7288 C   0  0  0  0  0  0  0  0  0  0  0  0
  -30.6169  -22.9037   17.3467 C   0  0  0  0  0  0  0  0  0  0  0  0
  -29.8210  -22.4592   19.6956 C   0  0  0  0  0  0  0  0  0  0  0  0
  -23.6725  -17.0528   19.9643 C   0  0  0  0  0  0  0  0  0  0  0  0
  -26.4589  -34.8253   21.3140 C   0  0  1  0  0  0  0  0  0  0  0  0
  -24.5727  -31.5276   21.3431 C   0  0  1  0  0  0  0  0  0  0  0  0
  -22.4773  -17.0468   20.9314 C   0  0  2  0  0  0  0  0  0  0  0  0
  -29.3297  -24.6841   18.5984 C   0  0  0  0  0  0  0  0  0  0  0  0
  -21.7300  -27.6202   27.3973 C   0  0  0  0  0  0  0  0  0  0  0  0
  -26.3160  -32.0451   25.5920 C   0  0  0  0  0  0  0  0  0  0  0  0
  -25.3969  -30.4961   27.3310 C   0  0  0  0  0  0  0  0  0  0  0  0
  -24.0099  -32.3934   26.4948 C   0  0  0  0  0  0  0  0  0  0  0  0
  -21.2348  -26.7841   23.7188 C   0  0  0  0  0  0  0  0  0  0  0  0
  -28.3240  -25.8224   18.4731 C   0  0  0  0  0  0  0  0  0  1  0  0
  -24.4179  -30.4004   24.9936 C   0  0  1  0  0  0  0  0  0  0  0  0
  -21.7210  -27.8962   25.9018 C   0  0  2  0  0  0  0  0  0  0  0  0
  -25.0427  -31.3239   26.0772 C   0  0  0  0  0  0  0  0  0  0  0  0
  -22.4781  -14.5880   20.7418 N   0  0  0  0  0  0  0  0  0  0  0  0
  -22.2126  -15.6653   21.5002 N   0  0  0  0  0  0  0  0  0  0  0  0
  -30.0924  -21.9480   18.3395 N   0  0  0  0  0  0  0  0  0  0  0  0
  -24.7100  -30.7207   22.5572 N   0  0  0  0  0  0  0  0  0  0  0  0
  -23.8941  -18.4132   19.4495 N   0  0  0  0  0  0  0  0  0  0  0  0
  -21.3991  -16.3257   23.6245 N   0  0  0  0  0  0  0  0  0  0  0  0
  -21.1993  -11.8168   23.7878 N   0  0  0  0  0  0  0  0  0  0  0  0
  -26.0814  -18.5543   20.3203 N   0  0  0  0  0  0  0  0  0  0  0  0
  -25.4590  -33.7798   21.3529 N   0  0  0  0  0  0  0  0  0  0  0  0
  -23.1956  -29.7254   25.4163 N   0  0  0  0  0  0  0  0  0  0  0  0
  -30.1367  -20.2170   16.8062 N   0  3  0  0  0  0  0  0  0  0  0  0
  -21.3088  -26.6498   25.1964 N   0  3  0  0  0  0  0  0  0  0  0  0
  -20.7793  -13.7429   24.9594 O   0  0  0  0  0  0  0  0  0  0  0  0
  -26.8899  -31.9508   21.1808 O   0  0  0  0  0  0  0  0  0  0  0  0
  -23.2584  -32.0757   23.7790 O   0  0  0  0  0  0  0  0  0  0  0  0
  -23.9664  -27.5654   25.0736 O   0  0  0  0  0  0  0  0  0  0  0  0
  -25.1671  -20.3138   19.1162 O   0  0  0  0  0  0  0  0  0  0  0  0
  -22.6895   -8.3053   19.7272 O   0  0  0  0  0  0  0  0  0  0  0  0
  -28.0608  -26.3549   19.7706 O   0  0  0  0  0  0  0  0  0  1  0  0
  -20.1108   -4.3378   22.5580 F   0  0  0  0  0  0  0  0  0  0  0  0
  -20.7899   -6.7038   18.5150 F   0  0  0  0  0  0  0  0  0  0  0  0
  -30.4869  -25.2186   19.0911 F   0  0  0  0  0  0  0  0  0  0  0  0
  1  2  1  0  0  0  0
  1  7  2  0  0  0  0
  2  8  2  0  0  0  0
  3  6  2  0  0  0  0
  3 10  1  0  0  0  0
  4 11  2  0  0  0  0
  4 19  1  0  0  0  0
  5 12  1  0  0  0  0
  5 19  2  0  0  0  0
  6 20  1  0  0  0  0
  7 22  1  0  0  0  0
  8 24  1  0  0  0  0
  9 13  2  0  0  0  0
  9 23  1  0  0  0  0
 10 26  2  0  0  0  0
 11 27  1  0  0  0  0
 12 27  2  0  0  0  0
 13 28  1  0  0  0  0
 14 15  2  0  0  0  0
 14 29  1  0  0  0  0
 15 30  1  0  0  0  0
 16 20  2  0  0  0  0
 16 26  1  0  0  0  0
 17 25  1  0  0  0  0
 17 28  2  0  0  0  0
 18 30  2  0  0  0  0
 18 31  1  0  0  0  0
 19 32  1  0  0  0  0
 20 34  1  0  0  0  0
 21 32  1  0  0  0  0
 21 33  2  0  0  0  0
 21 35  1  0  0  0  0
 22 24  2  0  0  0  0
 22 40  1  0  0  0  0
 23 25  2  0  0  0  0
 23 41  1  0  0  0  0
 24 53  1  0  0  0  0
 25 42  1  0  0  0  0
 26 73  1  0  0  0  0
 27 83  1  0  0  0  0
 28 84  1  0  0  0  0
 29 31  2  0  0  0  0
 29 83  1  0  0  0  0
 30 85  1  0  0  0  0
 31 86  1  0  0  0  0
 32 66  2  0  0  0  0
 33 67  1  0  0  0  0
 33 71  1  0  0  0  0
 34 68  1  0  0  0  0
 34 76  2  0  0  0  0
 35 72  1  0  0  0  0
 35 78  2  0  0  0  0
 36 54  1  0  0  0  0
 36 74  1  0  0  0  0
 36 79  2  0  0  0  0
 37 63  1  0  0  0  0
 37 69  1  0  0  0  0
 37 80  2  0  0  0  0
 38 64  1  0  0  0  0
 38 75  1  0  0  0  0
 38 81  2  0  0  0  0
 39 70  1  0  0  0  0
 39 73  1  0  0  0  0
 39 82  2  0  0  0  0
 40 43  1  0  0  0  0
 41 54  1  0  0  0  0
 42 69  1  0  0  0  0
 43 45  1  0  0  0  0
 44 46  1  0  0  0  0
 44 49  1  0  0  0  0
 45 53  1  0  0  0  0
 46 55  1  0  0  0  0
 47 50  1  0  0  0  0
 47 56  1  0  0  0  0
 48 51  1  0  0  0  0
 48 56  1  0  0  0  0
 49 70  1  0  0  0  0
 50 68  1  0  0  0  0
 51 68  1  0  0  0  0
 52 55  1  0  0  0  0
 52 70  1  0  0  0  0
 53 74  1  0  0  0  0
 54 69  1  0  0  0  0
 55 67  1  0  0  0  0
 56 62  1  0  0  0  0
 56 87  1  0  0  0  0
 57 64  1  0  0  0  0
 58 65  1  0  0  0  0
 59 65  1  0  0  0  0
 60 65  1  0  0  0  0
 61 77  1  0  0  0  0
 62 84  1  0  0  0  0
 63 65  1  0  0  0  0
 63 75  1  0  0  0  0
 64 77  1  0  0  0  0
 66 67  1  0  0  0  0
M  CHG  2  76   1  77   1
M  ISO  4  39 100  62 101  73 100  84 101
M  END
> <Batch ID>
0155

> <Smiles>
CNC(C)C(=O)NC(C(=O)N1Cc2cc([101O:1][101CH2:1]C3(F)CCN(C(=N)c4cccc([100NH:0][100C:0](=O)N5CCCC(n6nc(-c7ccc(Oc8ccc(F)cc8F)cc7)c(C(N)=O)c6N)C5)c4)CC3)ccc2CC1C(=O)NC1CCCc2ccccc21)C(C)(C)C

> <Shape>
0.264

> <Color>
0.083

> <Negative vol penalty>
0.000

$$$$

  -OEChem-04052303363D

 83 91  0     1  0  0  0  0  0999 V2000
  -22.7298  -10.8497   18.7974 C   0  0  0  0  0  0  0  0  0  0  0  0
  -22.2109  -12.1405   18.7924 C   0  0  0  0  0  0  0  0  0  0  0  0
  -30.3708  -26.3897   21.5255 C   0  0  0  0  0  0  0  0  0  0  0  0
  -29.1515  -26.4100   19.4399 C   0  0  0  0  0  0  0  0  0  0  0  0
  -23.8967  -10.5716   19.5078 C   0  0  0  0  0  0  0  0  0  0  0  0
  -22.8581  -13.1537   19.4987 C   0  0  0  0  0  0  0  0  0  0  0  0
  -23.2644  -19.0582   17.9248 C   0  0  0  0  0  0  0  0  0  0  0  0
  -31.5150  -25.9617   20.8524 C   0  0  0  0  0  0  0  0  0  0  0  0
  -30.2958  -25.9820   18.7667 C   0  0  0  0  0  0  0  0  0  0  0  0
  -22.5468  -20.1861   18.3209 C   0  0  0  0  0  0  0  0  0  0  0  0
  -33.9354  -27.3350   18.9318 C   0  0  0  0  0  0  0  0  0  0  0  0
  -35.1424  -27.9613   19.2422 C   0  0  0  0  0  0  0  0  0  0  0  0
  -24.2518  -20.6911   19.9509 C   0  0  0  0  0  0  0  0  0  0  0  0
  -20.5633  -26.5875   22.7152 C   0  0  0  0  0  0  0  0  0  0  0  0
  -36.0642  -25.8396   19.9391 C   0  0  0  0  0  0  0  0  0  0  0  0
  -18.5079  -26.2329   23.5063 C   0  0  0  0  0  0  0  0  0  0  0  0
  -29.1890  -26.6138   20.8192 C   0  0  0  0  0  0  0  0  0  0  0  0
  -27.3306  -26.3862   22.5519 C   0  0  0  0  0  0  0  0  0  0  0  0
  -24.5639  -11.5839   20.2153 C   0  0  0  0  0  0  0  0  0  0  0  0
  -24.4777  -18.7318   18.5474 C   0  0  0  0  0  0  0  0  0  0  0  0
  -24.0343  -12.8885   20.2204 C   0  0  0  0  0  0  0  0  0  0  0  0
  -24.9841  -19.5601   19.5592 C   0  0  0  0  0  0  0  0  0  0  0  0
  -19.6865  -25.5906   23.2058 C   0  0  0  0  0  0  0  0  0  0  0  0
  -31.4776  -25.7578   19.4730 C   0  0  0  0  0  0  0  0  0  0  0  0
  -23.0390  -21.0011   19.3360 C   0  0  0  0  0  0  0  0  0  0  0  0
  -33.7927  -25.9609   19.1252 C   0  0  0  0  0  0  0  0  0  0  0  0
  -36.2069  -27.2137   19.7458 C   0  0  0  0  0  0  0  0  0  0  0  0
  -34.8572  -25.2133   19.6288 C   0  0  0  0  0  0  0  0  0  0  0  0
  -28.0065  -27.0554   21.5141 C   0  0  0  0  0  0  0  0  0  0  0  0
  -19.8578  -27.7678   22.7506 C   0  0  0  0  0  0  0  0  0  0  0  0
  -26.2803  -27.2133   22.8670 C   0  0  0  0  0  0  0  0  0  0  0  0
  -27.6258  -25.1294   23.1756 C   0  0  0  0  0  0  0  0  0  0  0  0
  -20.2366  -29.1517   22.3657 C   0  0  0  0  0  0  0  0  0  0  0  0
  -25.5300  -16.2671   20.2566 C   0  0  0  0  0  0  0  0  0  0  0  0
  -21.1986  -23.1663   21.5789 C   0  0  0  0  0  0  0  0  0  0  0  0
  -28.3621  -17.8355   20.0528 C   0  0  0  0  0  0  0  0  0  0  0  0
  -30.0127  -20.7885   19.6031 C   0  0  0  0  0  0  0  0  0  0  0  0
  -22.0727  -30.5153   21.4208 C   0  0  0  0  0  0  0  0  0  0  0  0
  -25.7962  -11.2249   21.0074 C   0  0  0  0  0  0  0  0  0  0  0  0
  -25.2530  -17.5266   18.0904 C   0  0  0  0  0  0  0  0  0  0  0  0
  -26.2919  -19.2647   20.2455 C   0  0  0  0  0  0  0  0  0  0  0  0
  -26.6274  -12.4360   21.4230 C   0  0  0  0  0  0  0  0  0  0  0  0
  -25.2925  -31.9744   21.4490 C   0  0  0  0  0  0  0  0  0  0  0  0
  -25.7302  -13.5271   21.9986 C   0  0  0  0  0  0  0  0  0  0  0  0
  -26.2331  -30.7715   21.5619 C   0  0  0  0  0  0  0  0  0  0  0  0
  -24.0887  -31.6717   20.5579 C   0  0  0  0  0  0  0  0  0  0  0  0
  -24.2794  -29.2623   21.0235 C   0  0  0  0  0  0  0  0  0  0  0  0
  -24.7213  -14.0198   20.9542 C   0  0  1  0  0  0  0  0  0  0  0  0
  -26.2229  -17.0045   19.1459 C   0  0  1  0  0  0  0  0  0  0  0  0
  -25.4711  -29.4936   21.9668 C   0  0  1  0  0  0  0  0  0  0  0  0
  -32.3248  -21.7611   19.5265 C   0  0  0  0  0  0  0  0  0  0  0  0
  -28.5298  -17.6702   23.0949 C   0  0  0  0  0  0  0  0  0  0  0  0
  -30.3035  -19.4357   23.0235 C   0  0  0  0  0  0  0  0  0  0  0  0
  -30.6874  -17.2387   21.9062 C   0  0  0  0  0  0  0  0  0  0  0  0
  -29.6664  -21.6897   16.8055 C   0  0  0  0  0  0  0  0  0  0  0  0
  -21.2160  -23.6280   23.0207 C   0  0  0  0  0  0  0  0  0  0  0  0
  -22.4728  -22.5081   21.0865 C   0  0  0  0  0  0  0  0  0  1  0  0
  -29.0653  -18.8843   20.8802 C   0  0  1  0  0  0  0  0  0  0  0  0
  -31.1865  -21.1614   18.7157 C   0  0  2  0  0  0  0  0  0  0  0  0
  -29.6209  -18.3120   22.2148 C   0  0  0  0  0  0  0  0  0  0  0  0
  -27.4336  -28.2179   21.1911 N   0  0  0  0  0  0  0  0  0  0  0  0
  -26.3866  -28.2857   22.0309 N   0  0  0  0  0  0  0  0  0  0  0  0
  -27.0098  -18.0715   19.7675 N   0  0  0  0  0  0  0  0  0  0  0  0
  -23.4167  -30.4533   21.0132 N   0  0  0  0  0  0  0  0  0  0  0  0
  -25.2854  -27.1206   23.7747 N   0  0  0  0  0  0  0  0  0  0  0  0
  -27.0598  -23.9664   22.6358 N   0  0  0  0  0  0  0  0  0  0  0  0
  -19.9547  -24.2376   23.3562 N   0  0  0  0  0  0  0  0  0  0  0  0
  -21.5346  -29.3074   21.8785 N   0  0  0  0  0  0  0  0  0  0  0  0
  -25.3620  -14.9167   20.0164 N   0  0  0  0  0  0  0  0  0  0  0  0
  -30.0806  -19.4742   20.0144 N   0  0  0  0  0  0  0  0  0  0  0  0
  -30.7647  -22.1569   17.6900 N   0  3  0  0  0  0  0  0  0  0  0  0
  -28.3563  -25.0421   24.1916 O   0  0  0  0  0  0  0  0  0  0  0  0
  -19.4015  -30.0474   22.4564 O   0  0  0  0  0  0  0  0  0  0  0  0
  -25.1755  -16.8777   21.2582 O   0  0  0  0  0  0  0  0  0  0  0  0
  -20.2211  -23.3107   20.8459 O   0  0  0  0  0  0  0  0  0  0  0  0
  -28.9914  -16.8470   19.6677 O   0  0  0  0  0  0  0  0  0  0  0  0
  -29.1263  -21.5847   19.9047 O   0  0  0  0  0  0  0  0  0  0  0  0
  -21.4193  -31.5633   21.4141 O   0  0  0  0  0  0  0  0  0  0  0  0
  -18.6040  -27.5602   23.2315 O   0  0  0  0  0  0  0  0  0  0  0  0
  -32.5940  -25.3404   18.8159 O   0  0  0  0  0  0  0  0  0  0  0  0
  -22.3402  -22.1022   19.7249 O   0  0  0  0  0  0  0  0  0  1  0  0
  -37.3664  -27.8151   20.0423 F   0  0  0  0  0  0  0  0  0  0  0  0
  -34.7265  -23.8927   19.8156 F   0  0  0  0  0  0  0  0  0  0  0  0
  1  2  1  0  0  0  0
  1  5  2  0  0  0  0
  2  6  2  0  0  0  0
  3  8  2  0  0  0  0
  3 17  1  0  0  0  0
  4  9  1  0  0  0  0
  4 17  2  0  0  0  0
  5 19  1  0  0  0  0
  6 21  1  0  0  0  0
  7 10  2  0  0  0  0
  7 20  1  0  0  0  0
  8 24  1  0  0  0  0
  9 24  2  0  0  0  0
 10 25  1  0  0  0  0
 11 12  2  0  0  0  0
 11 26  1  0  0  0  0
 12 27  1  0  0  0  0
 13 22  1  0  0  0  0
 13 25  2  0  0  0  0
 14 23  1  0  0  0  0
 14 30  2  0  0  0  0
 15 27  2  0  0  0  0
 15 28  1  0  0  0  0
 16 23  2  0  0  0  0
 16 79  1  0  0  0  0
 17 29  1  0  0  0  0
 18 29  1  0  0  0  0
 18 31  2  0  0  0  0
 18 32  1  0  0  0  0
 19 21  2  0  0  0  0
 19 39  1  0  0  0  0
 20 22  2  0  0  0  0
 20 40  1  0  0  0  0
 21 48  1  0  0  0  0
 22 41  1  0  0  0  0
 23 67  1  0  0  0  0
 24 80  1  0  0  0  0
 25 81  1  0  0  0  0
 26 28  2  0  0  0  0
 26 80  1  0  0  0  0
 27 82  1  0  0  0  0
 28 83  1  0  0  0  0
 29 61  2  0  0  0  0
 30 33  1  0  0  0  0
 30 79  1  0  0  0  0
 31 62  1  0  0  0  0
 31 65  1  0  0  0  0
 32 66  1  0  0  0  0
 32 72  2  0  0  0  0
 33 68  1  0  0  0  0
 33 73  2  0  0  0  0
 34 49  1  0  0  0  0
 34 69  1  0  0  0  0
 34 74  2  0  0  0  0
 35 56  1  0  0  0  0
 35 57  1  0  0  0  0
 35 75  2  0  0  0  0
 36 58  1  0  0  0  0
 36 63  1  0  0  0  0
 36 76  2  0  0  0  0
 37 59  1  0  0  0  0
 37 70  1  0  0  0  0
 37 77  2  0  0  0  0
 38 64  1  0  0  0  0
 38 68  1  0  0  0  0
 38 78  2  0  0  0  0
 39 42  1  0  0  0  0
 40 49  1  0  0  0  0
 41 63  1  0  0  0  0
 42 44  1  0  0  0  0
 43 45  1  0  0  0  0
 43 46  1  0  0  0  0
 44 48  1  0  0  0  0
 45 50  1  0  0  0  0
 46 64  1  0  0  0  0
 47 50  1  0  0  0  0
 47 64  1  0  0  0  0
 48 69  1  0  0  0  0
 49 63  1  0  0  0  0
 50 62  1  0  0  0  0
 51 59  1  0  0  0  0
 52 60  1  0  0  0  0
 53 60  1  0  0  0  0
 54 60  1  0  0  0  0
 55 71  1  0  0  0  0
 56 67  1  0  0  0  0
 57 81  1  0  0  0  0
 58 60  1  0  0  0  0
 58 70  1  0  0  0  0
 59 71  1  0  0  0  0
 61 62  1  0  0  0  0
M  CHG  1  71   1
M  ISO  4  38 100  57 101  68 100  81 101
M  END
> <Batch ID>
0155

> <Smiles>
CNC(C)C(=O)NC(C(=O)N1Cc2cc([101O:1][101CH2:1]C(=O)CNc3coc(C(=O)[100NH:0][100C:0](=O)N4CCCC(n5nc(-c6ccc(Oc7ccc(F)cc7F)cc6)c(C(N)=O)c5N)C4)c3)ccc2CC1C(=O)NC1CCCc2ccccc21)C(C)(C)C

> <Shape>
0.223

> <Color>
0.074

> <Negative vol penalty>
0.000

$$$$

  -OEChem-04052303363D

 85 94  0     1  0  0  0  0  0999 V2000
  -15.8302  -29.7498   24.5431 C   0  0  0  0  0  0  0  0  0  0  0  0
  -16.3798  -29.0612   23.4665 C   0  0  0  0  0  0  0  0  0  0  0  0
  -22.9494  -10.1452   21.1278 C   0  0  0  0  0  0  0  0  0  0  0  0
  -23.3347  -12.3946   21.9207 C   0  0  0  0  0  0  0  0  0  0  0  0
  -16.4334  -30.9202   25.0017 C   0  0  0  0  0  0  0  0  0  0  0  0
  -17.5324  -29.5432   22.8471 C   0  0  0  0  0  0  0  0  0  0  0  0
  -23.4984  -25.5235   22.4720 C   0  0  0  0  0  0  0  0  0  0  0  0
  -21.9580   -9.9744   22.0940 C   0  0  0  0  0  0  0  0  0  0  0  0
  -22.3432  -12.2238   22.8869 C   0  0  0  0  0  0  0  0  0  0  0  0
  -24.6112  -24.7367   22.1741 C   0  0  0  0  0  0  0  0  0  0  0  0
  -21.7945   -9.3149   25.4050 C   0  0  0  0  0  0  0  0  0  0  0  0
  -21.7943   -8.1224   26.1285 C   0  0  0  0  0  0  0  0  0  0  0  0
  -30.9467  -19.1733   19.9436 C   0  0  0  0  0  0  0  0  0  0  0  0
  -31.1053  -17.7615   20.0531 C   0  0  0  0  0  0  0  0  0  0  0  0
  -25.6812  -26.6310   21.1183 C   0  0  0  0  0  0  0  0  0  0  0  0
  -19.5754   -7.6270   25.3110 C   0  0  0  0  0  0  0  0  0  0  0  0
  -23.6378  -11.3553   21.0412 C   0  0  0  0  0  0  0  0  0  0  0  0
  -24.5123  -11.4479   18.6466 C   0  0  0  0  0  0  0  0  0  0  0  0
  -17.5994  -31.4115   24.3937 C   0  0  0  0  0  0  0  0  0  0  0  0
  -23.4791  -26.8726   22.1073 C   0  0  0  0  0  0  0  0  0  0  0  0
  -18.1510  -30.7220   23.2971 C   0  0  0  0  0  0  0  0  0  0  0  0
  -24.5745  -27.4272   21.4251 C   0  0  0  0  0  0  0  0  0  0  0  0
  -21.6549  -11.0137   22.9735 C   0  0  0  0  0  0  0  0  0  0  0  0
  -25.6998  -25.2891   21.4987 C   0  0  0  0  0  0  0  0  0  0  0  0
  -20.6852   -9.6636   24.6345 C   0  0  0  0  0  0  0  0  0  0  0  0
  -20.6847   -7.2784   26.0815 C   0  0  0  0  0  0  0  0  0  0  0  0
  -19.5756   -8.8196   24.5875 C   0  0  0  0  0  0  0  0  0  0  0  0
  -24.6625  -11.5321   20.0438 C   0  0  0  0  0  0  0  0  0  0  0  0
  -25.7696  -11.6925   18.1507 C   0  0  0  0  0  0  0  0  0  0  0  0
  -29.6204  -19.5434   19.9038 C   0  0  0  0  0  0  0  0  0  0  0  0
  -29.8940  -17.1064   20.0931 C   0  0  0  0  0  0  0  0  0  0  0  0
  -23.3410  -11.1733   17.8666 C   0  0  0  0  0  0  0  0  0  0  0  0
  -21.5989  -30.1192   22.1132 C   0  0  0  0  0  0  0  0  0  0  0  0
  -24.5358  -30.7894   22.6923 C   0  0  0  0  0  0  0  0  0  0  0  0
  -27.4624  -32.1748   23.7662 C   0  0  0  0  0  0  0  0  0  0  0  0
  -30.4921  -14.6668   20.2854 C   0  0  0  0  0  0  0  0  0  0  0  0
  -18.1888  -32.7064   24.8944 C   0  0  0  0  0  0  0  0  0  0  0  0
  -22.2761  -27.7421   22.3533 C   0  0  0  0  0  0  0  0  0  0  0  0
  -24.4953  -28.8742   21.0217 C   0  0  0  0  0  0  0  0  0  0  0  0
  -19.6202  -32.9471   24.4218 C   0  0  0  0  0  0  0  0  0  0  0  0
  -30.3984  -11.2480   19.2956 C   0  0  0  0  0  0  0  0  0  0  0  0
  -19.7438  -32.6642   22.9280 C   0  0  0  0  0  0  0  0  0  0  0  0
  -28.9030  -10.9269   19.2420 C   0  0  0  0  0  0  0  0  0  0  0  0
  -27.2064  -22.3882   19.5994 C   0  0  0  0  0  0  0  0  0  0  0  0
  -29.4757  -23.2540   20.2190 C   0  0  0  0  0  0  0  0  0  0  0  0
  -30.7336  -12.1987   20.4434 C   0  0  0  0  0  0  0  0  0  0  0  0
  -27.8387  -21.0756   19.1298 C   0  0  0  0  0  0  0  0  0  0  0  0
  -30.1016  -21.9419   19.7427 C   0  0  0  0  0  0  0  0  0  0  0  0
  -28.4465  -13.1139   20.4234 C   0  0  0  0  0  0  0  0  0  0  0  0
  -19.4144  -31.1997   22.6147 C   0  0  1  0  0  0  0  0  0  0  0  0
  -22.6426  -29.2013   22.6785 C   0  0  1  0  0  0  0  0  0  0  0  0
  -28.0505  -12.2110   19.2437 C   0  0  2  0  0  0  0  0  0  0  0  0
  -28.1685  -23.5751   19.4847 C   0  0  0  0  0  0  0  0  0  0  0  0
  -28.7345  -34.3379   23.7661 C   0  0  0  0  0  0  0  0  0  0  0  0
  -25.2751  -30.3503   19.7658 C   0  0  0  0  0  0  0  0  0  0  0  0
  -27.2101  -31.9046   20.0951 C   0  0  0  0  0  0  0  0  0  0  0  0
  -24.8781  -32.7380   20.3950 C   0  0  0  0  0  0  0  0  0  0  0  0
  -27.4573  -32.3119   26.7225 C   0  0  0  0  0  0  0  0  0  0  0  0
  -29.3351  -24.8831   17.9191 C   0  0  0  0  0  0  0  0  0  0  0  0
  -27.5267  -24.8461   20.0415 C   0  0  0  0  0  0  0  0  0  1  0  0
  -25.8754  -31.1940   22.1309 C   0  0  1  0  0  0  0  0  0  0  0  0
  -27.7514  -33.4585   24.5231 C   0  0  2  0  0  0  0  0  0  0  0  0
  -25.8067  -31.5236   20.6130 C   0  0  0  0  0  0  0  0  0  0  0  0
  -25.9164  -11.8084   20.4119 N   0  0  0  0  0  0  0  0  0  0  0  0
  -26.5655  -11.8999   19.2387 N   0  0  0  0  0  0  0  0  0  0  0  0
  -29.1229  -20.8486   19.7993 N   0  0  0  0  0  0  0  0  0  0  0  0
  -23.9210  -29.6705   22.1175 N   0  0  0  0  0  0  0  0  0  0  0  0
  -29.8901  -13.3941   20.3779 N   0  0  0  0  0  0  0  0  0  0  0  0
  -26.2610  -11.7482   16.8946 N   0  0  0  0  0  0  0  0  0  0  0  0
  -22.1309  -10.9452   18.5360 N   0  0  0  0  0  0  0  0  0  0  0  0
  -29.5899  -15.7263   20.1964 N   0  0  0  0  0  0  0  0  0  0  0  0
  -20.5306  -30.3456   22.9599 N   0  0  0  0  0  0  0  0  0  0  0  0
  -26.3498  -32.2961   22.9608 N   0  0  0  0  0  0  0  0  0  0  0  0
  -28.3298  -33.1515   25.8618 N   0  3  0  0  0  0  0  0  0  0  0  0
  -23.3701  -11.1152   16.6139 O   0  0  0  0  0  0  0  0  0  0  0  0
  -21.7511  -30.5894   20.9918 O   0  0  0  0  0  0  0  0  0  0  0  0
  -24.0430  -31.4491   23.6117 O   0  0  0  0  0  0  0  0  0  0  0  0
  -28.1566  -31.1664   23.8753 O   0  0  0  0  0  0  0  0  0  0  0  0
  -31.7178  -14.8045   20.2577 O   0  0  0  0  0  0  0  0  0  0  0  0
  -20.6873  -10.8475   23.9162 O   0  0  0  0  0  0  0  0  0  0  0  0
  -26.7848  -24.5164   21.2150 O   0  0  0  0  0  0  0  0  0  1  0  0
  -28.4460  -23.7930   18.0993 O   0  0  0  0  0  0  0  0  0  0  0  0
  -20.6852   -6.1325   26.7750 F   0  0  0  0  0  0  0  0  0  0  0  0
  -18.5075   -9.1485   23.8482 F   0  0  0  0  0  0  0  0  0  0  0  0
  -28.5731  -18.1920   19.9984 S   0  0  0  0  0  0  0  0  0  0  0  0
  1  2  1  0  0  0  0
  1  5  2  0  0  0  0
  2  6  2  0  0  0  0
  3  8  2  0  0  0  0
  3 17  1  0  0  0  0
  4  9  1  0  0  0  0
  4 17  2  0  0  0  0
  5 19  1  0  0  0  0
  6 21  1  0  0  0  0
  7 10  2  0  0  0  0
  7 20  1  0  0  0  0
  8 23  1  0  0  0  0
  9 23  2  0  0  0  0
 10 24  1  0  0  0  0
 11 12  2  0  0  0  0
 11 25  1  0  0  0  0
 12 26  1  0  0  0  0
 13 14  1  0  0  0  0
 13 30  2  0  0  0  0
 14 31  2  0  0  0  0
 15 22  1  0  0  0  0
 15 24  2  0  0  0  0
 16 26  2  0  0  0  0
 16 27  1  0  0  0  0
 17 28  1  0  0  0  0
 18 28  1  0  0  0  0
 18 29  2  0  0  0  0
 18 32  1  0  0  0  0
 19 21  2  0  0  0  0
 19 37  1  0  0  0  0
 20 22  2  0  0  0  0
 20 38  1  0  0  0  0
 21 50  1  0  0  0  0
 22 39  1  0  0  0  0
 23 80  1  0  0  0  0
 24 81  1  0  0  0  0
 25 27  2  0  0  0  0
 25 80  1  0  0  0  0
 26 83  1  0  0  0  0
 27 84  1  0  0  0  0
 28 64  2  0  0  0  0
 29 65  1  0  0  0  0
 29 69  1  0  0  0  0
 30 66  1  0  0  0  0
 30 85  1  0  0  0  0
 31 71  1  0  0  0  0
 31 85  1  0  0  0  0
 32 70  1  0  0  0  0
 32 75  2  0  0  0  0
 33 51  1  0  0  0  0
 33 72  1  0  0  0  0
 33 76  2  0  0  0  0
 34 61  1  0  0  0  0
 34 67  1  0  0  0  0
 34 77  2  0  0  0  0
 35 62  1  0  0  0  0
 35 73  1  0  0  0  0
 35 78  2  0  0  0  0
 36 68  1  0  0  0  0
 36 71  1  0  0  0  0
 36 79  2  0  0  0  0
 37 40  1  0  0  0  0
 38 51  1  0  0  0  0
 39 67  1  0  0  0  0
 40 42  1  0  0  0  0
 41 43  1  0  0  0  0
 41 46  1  0  0  0  0
 42 50  1  0  0  0  0
 43 52  1  0  0  0  0
 44 47  1  0  0  0  0
 44 53  1  0  0  0  0
 45 48  1  0  0  0  0
 45 53  1  0  0  0  0
 46 68  1  0  0  0  0
 47 66  1  0  0  0  0
 48 66  1  0  0  0  0
 49 52  1  0  0  0  0
 49 68  1  0  0  0  0
 50 72  1  0  0  0  0
 51 67  1  0  0  0  0
 52 65  1  0  0  0  0
 53 60  1  0  0  0  0
 53 82  1  0  0  0  0
 54 62  1  0  0  0  0
 55 63  1  0  0  0  0
 56 63  1  0  0  0  0
 57 63  1  0  0  0  0
 58 74  1  0  0  0  0
 59 82  1  0  0  0  0
 60 81  1  0  0  0  0
 61 63  1  0  0  0  0
 61 73  1  0  0  0  0
 62 74  1  0  0  0  0
 64 65  1  0  0  0  0
M  CHG  1  74   1
M  ISO  4  36 100  60 101  71 100  81 101
M  END
> <Batch ID>
0155

> <Smiles>
CNC(C)C(=O)NC(C(=O)N1Cc2cc([101O:1][101CH2:1]C3(OC)CCN(c4ccc([100NH:0][100C:0](=O)N5CCCC(n6nc(-c7ccc(Oc8ccc(F)cc8F)cc7)c(C(N)=O)c6N)C5)s4)CC3)ccc2CC1C(=O)NC1CCCc2ccccc21)C(C)(C)C

> <Shape>
0.299

> <Color>
0.068

> <Negative vol penalty>
0.000

$$$$

  -OEChem-04052303363D

 88 97  0     1  0  0  0  0  0999 V2000
  -17.0048  -26.3160   24.5638 C   0  0  0  0  0  0  0  0  0  0  0  0
  -17.9544  -25.8578   23.6562 C   0  0  0  0  0  0  0  0  0  0  0  0
  -25.9396  -13.3145   22.0319 C   0  0  0  0  0  0  0  0  0  0  0  0
  -26.1915  -13.9403   19.7120 C   0  0  0  0  0  0  0  0  0  0  0  0
  -16.8077  -27.6858   24.7328 C   0  0  0  0  0  0  0  0  0  0  0  0
  -18.7068  -26.7693   22.9163 C   0  0  0  0  0  0  0  0  0  0  0  0
  -24.5403  -26.1565   21.1554 C   0  0  0  0  0  0  0  0  0  0  0  0
  -24.8096  -12.5642   21.7068 C   0  0  0  0  0  0  0  0  0  0  0  0
  -25.0615  -13.1899   19.3869 C   0  0  0  0  0  0  0  0  0  0  0  0
  -25.1197  -25.7532   19.9532 C   0  0  0  0  0  0  0  0  0  0  0  0
  -24.1317   -9.5416   20.3513 C   0  0  0  0  0  0  0  0  0  0  0  0
  -24.0204   -8.2653   20.9028 C   0  0  0  0  0  0  0  0  0  0  0  0
  -30.2432  -21.3811   16.2427 C   0  0  0  0  0  0  0  0  0  0  0  0
  -30.7064  -20.7083   13.9691 C   0  0  0  0  0  0  0  0  0  0  0  0
  -25.3549  -28.0631   19.2986 C   0  0  0  0  0  0  0  0  0  0  0  0
  -30.7542  -19.0725   15.7464 C   0  0  0  0  0  0  0  0  0  0  0  0
  -21.9583   -8.9120   21.9830 C   0  0  0  0  0  0  0  0  0  0  0  0
  -26.6306  -14.0026   21.0345 C   0  0  0  0  0  0  0  0  0  0  0  0
  -30.3817  -21.7021   14.8924 C   0  0  0  0  0  0  0  0  0  0  0  0
  -28.9887  -14.3114   21.9572 C   0  0  0  0  0  0  0  0  0  0  0  0
  -17.5648  -28.6147   24.0016 C   0  0  0  0  0  0  0  0  0  0  0  0
  -24.3535  -27.5181   21.4340 C   0  0  0  0  0  0  0  0  0  0  0  0
  -18.5187  -28.1528   23.0747 C   0  0  0  0  0  0  0  0  0  0  0  0
  -24.7752  -28.4811   20.5062 C   0  0  0  0  0  0  0  0  0  0  0  0
  -30.4295  -20.0663   16.6698 C   0  0  0  0  0  0  0  0  0  0  0  0
  -24.3705  -12.5019   20.3843 C   0  0  0  0  0  0  0  0  0  0  0  0
  -25.5245  -26.7064   19.0233 C   0  0  0  0  0  0  0  0  0  0  0  0
  -23.1564  -10.5032   20.6157 C   0  0  0  0  0  0  0  0  0  0  0  0
  -22.9336   -7.9505   21.7186 C   0  0  0  0  0  0  0  0  0  0  0  0
  -30.8927  -19.3935   14.3961 C   0  0  0  0  0  0  0  0  0  0  0  0
  -22.0697  -10.1884   21.4315 C   0  0  0  0  0  0  0  0  0  0  0  0
  -27.7976  -14.7783   21.3697 C   0  0  0  0  0  0  0  0  0  0  0  0
  -29.7782  -15.4298   22.0681 C   0  0  0  0  0  0  0  0  0  0  0  0
  -30.1862  -23.0913   14.4408 C   0  0  0  0  0  0  0  0  0  0  0  0
  -29.3493  -12.9853   22.3659 C   0  0  0  0  0  0  0  0  0  0  0  0
  -21.8281  -29.3717   21.9723 C   0  0  0  0  0  0  0  0  0  0  0  0
  -24.0921  -31.6085   22.5994 C   0  0  0  0  0  0  0  0  0  0  0  0
  -27.2931  -32.6989   22.1396 C   0  0  0  0  0  0  0  0  0  0  0  0
  -29.9676  -20.6049   19.0870 C   0  0  0  0  0  0  0  0  0  0  0  0
  -17.2831  -30.0850   24.1840 C   0  0  0  0  0  0  0  0  0  0  0  0
  -23.7514  -27.9376   22.7470 C   0  0  0  0  0  0  0  0  0  0  0  0
  -24.6156  -29.9560   20.7661 C   0  0  0  0  0  0  0  0  0  0  0  0
  -18.3837  -30.9889   23.6344 C   0  0  0  0  0  0  0  0  0  0  0  0
  -29.4883  -20.1815   22.5895 C   0  0  0  0  0  0  0  0  0  0  0  0
  -18.8015  -30.5337   22.2397 C   0  0  0  0  0  0  0  0  0  0  0  0
  -29.1147  -18.7039   22.7283 C   0  0  0  0  0  0  0  0  0  0  0  0
  -27.0585  -23.1772   16.0021 C   0  0  0  0  0  0  0  0  0  0  0  0
  -28.2213  -25.4179   16.1564 C   0  0  0  0  0  0  0  0  0  0  0  0
  -28.8995  -20.7988   21.3223 C   0  0  0  0  0  0  0  0  0  0  0  0
  -27.7631  -22.9072   14.6752 C   0  0  0  0  0  0  0  0  0  0  0  0
  -28.9201  -25.1426   14.8279 C   0  0  0  0  0  0  0  0  0  0  0  0
  -28.8274  -18.5969   20.2197 C   0  0  0  0  0  0  0  0  0  0  0  0
  -19.3718  -29.1106   22.2717 C   0  0  1  0  0  0  0  0  0  0  0  0
  -23.1396  -29.3345   22.7046 C   0  0  1  0  0  0  0  0  0  0  0  0
  -29.4517  -17.9147   21.4480 C   0  0  2  0  0  0  0  0  0  0  0  0
  -26.8732  -24.6824   16.2625 C   0  0  0  0  0  0  0  0  0  0  0  0
  -28.8402  -34.5789   22.7476 C   0  0  0  0  0  0  0  0  0  0  0  0
  -22.6935  -33.4114   20.5737 C   0  0  0  0  0  0  0  0  0  0  0  0
  -24.7555  -34.8303   20.5175 C   0  0  0  0  0  0  0  0  0  0  0  0
  -23.4750  -34.5776   22.6434 C   0  0  0  0  0  0  0  0  0  0  0  0
  -29.1615  -30.8680   23.5237 C   0  0  0  0  0  0  0  0  0  0  0  0
  -26.2379  -24.9124   17.6346 C   0  0  0  0  0  0  0  0  0  1  0  0
  -24.8395  -32.6323   21.7795 C   0  0  1  0  0  0  0  0  0  0  0  0
  -28.3401  -33.1924   23.1219 C   0  0  2  0  0  0  0  0  0  0  0  0
  -23.9423  -33.8351   21.3725 C   0  0  0  0  0  0  0  0  0  0  0  0
  -27.8236  -16.0910   21.1247 N   0  0  0  0  0  0  0  0  0  0  0  0
  -29.0406  -16.4586   21.5605 N   0  0  0  0  0  0  0  0  0  0  0  0
  -29.0167  -23.6829   14.6413 N   0  0  0  0  0  0  0  0  0  0  0  0
  -24.0157  -30.3159   22.0615 N   0  0  0  0  0  0  0  0  0  0  0  0
  -29.2636  -20.0003   20.1498 N   0  0  0  0  0  0  0  0  0  0  0  0
  -31.0244  -15.6238   22.5495 N   0  0  0  0  0  0  0  0  0  0  0  0
  -28.4199  -11.9528   22.1798 N   0  0  0  0  0  0  0  0  0  0  0  0
  -30.2876  -19.7397   18.0412 N   0  0  0  0  0  0  0  0  0  0  0  0
  -20.7296  -29.1215   22.7724 N   0  0  0  0  0  0  0  0  0  0  0  0
  -26.0153  -33.0012   22.5604 N   0  0  0  0  0  0  0  0  0  0  0  0
  -31.1864  -23.7302   13.8411 N   0  3  0  0  0  0  0  0  0  0  0  0
  -29.5051  -32.2634   23.1472 N   0  3  0  0  0  0  0  0  0  0  0  0
  -30.4563  -12.7266   22.8960 O   0  0  0  0  0  0  0  0  0  0  0  0
  -21.8136  -29.6113   20.7706 O   0  0  0  0  0  0  0  0  0  0  0  0
  -23.6007  -31.9415   23.6807 O   0  0  0  0  0  0  0  0  0  0  0  0
  -27.5803  -32.1080   21.1009 O   0  0  0  0  0  0  0  0  0  0  0  0
  -30.2885  -21.7958   19.1155 O   0  0  0  0  0  0  0  0  0  0  0  0
  -25.9779  -25.1977   15.2736 O   0  0  0  0  0  0  0  0  0  0  0  0
  -23.2680  -11.7696   20.0667 O   0  0  0  0  0  0  0  0  0  0  0  0
  -26.0898  -26.3155   17.8488 O   0  0  0  0  0  0  0  0  0  1  0  0
  -22.8260   -6.7243   22.2469 F   0  0  0  0  0  0  0  0  0  0  0  0
  -31.2045  -18.4393   13.5093 F   0  0  0  0  0  0  0  0  0  0  0  0
  -21.1290  -11.1076   21.6881 F   0  0  0  0  0  0  0  0  0  0  0  0
  1  2  1  0  0  0  0
  1  5  2  0  0  0  0
  2  6  2  0  0  0  0
  3  8  2  0  0  0  0
  3 18  1  0  0  0  0
  4  9  1  0  0  0  0
  4 18  2  0  0  0  0
  5 21  1  0  0  0  0
  6 23  1  0  0  0  0
  7 10  2  0  0  0  0
  7 22  1  0  0  0  0
  8 26  1  0  0  0  0
  9 26  2  0  0  0  0
 10 27  1  0  0  0  0
 11 12  2  0  0  0  0
 11 28  1  0  0  0  0
 12 29  1  0  0  0  0
 13 19  2  0  0  0  0
 13 25  1  0  0  0  0
 14 19  1  0  0  0  0
 14 30  2  0  0  0  0
 15 24  1  0  0  0  0
 15 27  2  0  0  0  0
 16 25  2  0  0  0  0
 16 30  1  0  0  0  0
 17 29  2  0  0  0  0
 17 31  1  0  0  0  0
 18 32  1  0  0  0  0
 19 34  1  0  0  0  0
 20 32  1  0  0  0  0
 20 33  2  0  0  0  0
 20 35  1  0  0  0  0
 21 23  2  0  0  0  0
 21 40  1  0  0  0  0
 22 24  2  0  0  0  0
 22 41  1  0  0  0  0
 23 53  1  0  0  0  0
 24 42  1  0  0  0  0
 25 73  1  0  0  0  0
 26 84  1  0  0  0  0
 27 85  1  0  0  0  0
 28 31  2  0  0  0  0
 28 84  1  0  0  0  0
 29 86  1  0  0  0  0
 30 87  1  0  0  0  0
 31 88  1  0  0  0  0
 32 66  2  0  0  0  0
 33 67  1  0  0  0  0
 33 71  1  0  0  0  0
 34 68  1  0  0  0  0
 34 76  2  0  0  0  0
 35 72  1  0  0  0  0
 35 78  2  0  0  0  0
 36 54  1  0  0  0  0
 36 74  1  0  0  0  0
 36 79  2  0  0  0  0
 37 63  1  0  0  0  0
 37 69  1  0  0  0  0
 37 80  2  0  0  0  0
 38 64  1  0  0  0  0
 38 75  1  0  0  0  0
 38 81  2  0  0  0  0
 39 70  1  0  0  0  0
 39 73  1  0  0  0  0
 39 82  2  0  0  0  0
 40 43  1  0  0  0  0
 41 54  1  0  0  0  0
 42 69  1  0  0  0  0
 43 45  1  0  0  0  0
 44 46  1  0  0  0  0
 44 49  1  0  0  0  0
 45 53  1  0  0  0  0
 46 55  1  0  0  0  0
 47 50  1  0  0  0  0
 47 56  1  0  0  0  0
 48 51  1  0  0  0  0
 48 56  1  0  0  0  0
 49 70  1  0  0  0  0
 50 68  1  0  0  0  0
 51 68  1  0  0  0  0
 52 55  1  0  0  0  0
 52 70  1  0  0  0  0
 53 74  1  0  0  0  0
 54 69  1  0  0  0  0
 55 67  1  0  0  0  0
 56 62  1  0  0  0  0
 56 83  1  0  0  0  0
 57 64  1  0  0  0  0
 58 65  1  0  0  0  0
 59 65  1  0  0  0  0
 60 65  1  0  0  0  0
 61 77  1  0  0  0  0
 62 85  1  0  0  0  0
 63 65  1  0  0  0  0
 63 75  1  0  0  0  0
 64 77  1  0  0  0  0
 66 67  1  0  0  0  0
M  CHG  2  76   1  77   1
M  ISO  4  39 100  62 101  73 100  85 101
M  END
> <Batch ID>
0155

> <Smiles>
CNC(C)C(=O)NC(C(=O)N1Cc2cc([101O:1][101CH2:1]C3(O)CCN(C(=N)c4cc(F)cc([100NH:0][100C:0](=O)N5CCCC(n6nc(-c7ccc(Oc8ccc(F)cc8F)cc7)c(C(N)=O)c6N)C5)c4)CC3)ccc2CC1C(=O)NC1CCCc2ccccc21)C(C)(C)C

> <Shape>
0.260

> <Color>
0.075

> <Negative vol penalty>
0.000

$$$$

  -OEChem-04052303363D

 84 93  0     1  0  0  0  0  0999 V2000
  -28.2467  -34.2102   26.4029 C   0  0  0  0  0  0  0  0  0  0  0  0
  -28.5538  -33.1282   25.5842 C   0  0  0  0  0  0  0  0  0  0  0  0
  -24.1997   -9.6701   21.6206 C   0  0  0  0  0  0  0  0  0  0  0  0
  -23.2143  -11.0338   19.8866 C   0  0  0  0  0  0  0  0  0  0  0  0
  -26.9534  -34.3603   26.9019 C   0  0  0  0  0  0  0  0  0  0  0  0
  -27.5681  -32.1950   25.2648 C   0  0  0  0  0  0  0  0  0  0  0  0
  -26.9458  -29.1590   19.9827 C   0  0  0  0  0  0  0  0  0  0  0  0
  -22.9279   -9.3763   22.1123 C   0  0  0  0  0  0  0  0  0  0  0  0
  -21.9425  -10.7399   20.3783 C   0  0  0  0  0  0  0  0  0  0  0  0
  -27.3177  -27.8740   19.5899 C   0  0  0  0  0  0  0  0  0  0  0  0
  -20.3668   -7.3149   21.3222 C   0  0  0  0  0  0  0  0  0  0  0  0
  -20.0895   -5.9880   21.6511 C   0  0  0  0  0  0  0  0  0  0  0  0
  -25.0959  -27.0826   20.0966 C   0  0  0  0  0  0  0  0  0  0  0  0
  -28.1030  -19.1000   18.9791 C   0  0  0  0  0  0  0  0  0  0  0  0
  -26.6721  -20.3451   17.4828 C   0  0  0  0  0  0  0  0  0  0  0  0
  -26.7200  -17.9318   17.3792 C   0  0  0  0  0  0  0  0  0  0  0  0
  -19.6450   -6.6464   23.9328 C   0  0  0  0  0  0  0  0  0  0  0  0
  -24.3429  -10.4989   20.5077 C   0  0  0  0  0  0  0  0  0  0  0  0
  -26.3783  -10.0872   19.0261 C   0  0  0  0  0  0  0  0  0  0  0  0
  -25.9490  -33.4338   26.5807 C   0  0  0  0  0  0  0  0  0  0  0  0
  -25.6471  -29.4136   20.4464 C   0  0  0  0  0  0  0  0  0  0  0  0
  -26.2606  -32.3321   25.7611 C   0  0  0  0  0  0  0  0  0  0  0  0
  -24.7093  -28.3722   20.4922 C   0  0  0  0  0  0  0  0  0  0  0  0
  -27.6101  -20.3194   18.5148 C   0  0  0  0  0  0  0  0  0  0  0  0
  -27.6580  -17.9061   18.4113 C   0  0  0  0  0  0  0  0  0  0  0  0
  -21.7993   -9.9112   21.4911 C   0  0  0  0  0  0  0  0  0  0  0  0
  -26.3936  -26.8350   19.6496 C   0  0  0  0  0  0  0  0  0  0  0  0
  -20.2833   -8.3075   22.2987 C   0  0  0  0  0  0  0  0  0  0  0  0
  -19.7286   -5.6538   22.9563 C   0  0  0  0  0  0  0  0  0  0  0  0
  -26.2271  -19.1513   16.9149 C   0  0  0  0  0  0  0  0  0  0  0  0
  -19.9224   -7.9733   23.6039 C   0  0  0  0  0  0  0  0  0  0  0  0
  -25.6565  -10.8033   19.9997 C   0  0  0  0  0  0  0  0  0  0  0  0
  -27.5587  -10.7775   18.8970 C   0  0  0  0  0  0  0  0  0  0  0  0
  -28.2174  -23.7432   19.6464 C   0  0  0  0  0  0  0  0  0  0  0  0
  -27.7800  -24.9732   19.9364 C   0  0  0  0  0  0  0  0  0  1  0  0
  -26.0144   -8.9039   18.3029 C   0  0  0  0  0  0  0  0  0  0  0  0
  -24.4047  -30.4409   23.1859 C   0  0  0  0  0  0  0  0  0  0  0  0
  -21.6414  -30.4282   21.4869 C   0  0  0  0  0  0  0  0  0  0  0  0
  -19.8710  -29.1921   18.8440 C   0  0  0  0  0  0  0  0  0  0  0  0
  -29.0919  -16.4652   19.8992 C   0  0  0  0  0  0  0  0  0  0  0  0
  -24.5775  -33.6121   27.1822 C   0  0  0  0  0  0  0  0  0  0  0  0
  -25.2539  -30.8107   20.8411 C   0  0  0  0  0  0  0  0  0  0  0  0
  -23.2965  -28.5974   20.9632 C   0  0  0  0  0  0  0  0  0  0  0  0
  -29.3347  -23.0393   20.3493 C   0  0  0  0  0  0  0  0  0  0  0  0
  -27.5858  -22.8188   18.6493 C   0  0  0  0  0  0  0  0  0  0  0  0
  -23.4971  -32.7836   26.4919 C   0  0  0  0  0  0  0  0  0  0  0  0
  -30.5519  -13.5740   21.3779 C   0  0  0  0  0  0  0  0  0  0  0  0
  -23.9770  -31.3513   26.2795 C   0  0  0  0  0  0  0  0  0  0  0  0
  -29.5307  -12.4689   21.0984 C   0  0  0  0  0  0  0  0  0  0  0  0
  -28.9340  -21.5709   20.2384 C   0  0  0  0  0  0  0  0  0  0  0  0
  -29.8742  -14.9109   21.6732 C   0  0  0  0  0  0  0  0  0  0  0  0
  -27.8833  -14.2470   20.3830 C   0  0  0  0  0  0  0  0  0  0  0  0
  -25.2124  -31.3123   25.3720 C   0  0  1  0  0  0  0  0  0  0  0  0
  -24.0546  -30.8503   21.7832 C   0  0  1  0  0  0  0  0  0  0  0  0
  -28.5198  -12.8964   20.0163 C   0  0  2  0  0  0  0  0  0  0  0  0
  -17.6252  -29.3425   17.7344 C   0  0  0  0  0  0  0  0  0  0  0  0
  -20.4363  -28.7049   23.6978 C   0  0  0  0  0  0  0  0  0  0  0  0
  -18.5796  -28.1107   22.1268 C   0  0  0  0  0  0  0  0  0  0  0  0
  -18.9160  -30.4843   22.8163 C   0  0  0  0  0  0  0  0  0  0  0  0
  -21.0555  -30.1843   16.3199 C   0  0  0  0  0  0  0  0  0  0  0  0
  -20.5564  -29.4136   21.2180 C   0  0  1  0  0  0  0  0  0  0  0  0
  -19.0463  -29.8827   17.7728 C   0  0  2  0  0  0  0  0  0  0  0  0
  -19.6492  -29.1734   22.4576 C   0  0  0  0  0  0  0  0  0  0  0  0
  -26.3226  -11.8669   20.4569 N   0  0  0  0  0  0  0  0  0  0  0  0
  -27.4755  -11.8241   19.7675 N   0  0  0  0  0  0  0  0  0  0  0  0
  -28.0509  -21.5016   19.0766 N   0  0  3  0  0  0  0  0  0  0  0  0
  -22.9621  -29.9796   21.3443 N   0  0  0  0  0  0  0  0  0  0  0  0
  -28.9340  -15.2530   20.6037 N   0  0  0  0  0  0  0  0  0  0  0  0
  -28.6493  -10.5852   18.1250 N   0  0  0  0  0  0  0  0  0  0  0  0
  -24.7645   -8.3231   18.5575 N   0  0  0  0  0  0  0  0  0  0  0  0
  -28.1585  -16.6673   18.8831 N   0  0  0  0  0  0  0  0  0  0  0  0
  -24.8281  -31.4839   23.9873 N   0  0  0  0  0  0  0  0  0  0  0  0
  -19.8414  -29.8839   20.0364 N   0  0  0  0  0  0  0  0  0  0  0  0
  -19.6634  -29.6779   16.4318 N   0  3  0  0  0  0  0  0  0  0  0  0
  -26.7818   -8.3677   17.4679 O   0  0  0  0  0  0  0  0  0  0  0  0
  -24.2971  -29.2659   23.5170 O   0  0  0  0  0  0  0  0  0  0  0  0
  -21.3285  -31.5783   21.8046 O   0  0  0  0  0  0  0  0  0  0  0  0
  -20.4774  -28.1420   18.6442 O   0  0  0  0  0  0  0  0  0  0  0  0
  -30.0056  -17.2524   20.1588 O   0  0  0  0  0  0  0  0  0  0  0  0
  -20.5581   -9.6245   21.9705 O   0  0  0  0  0  0  0  0  0  0  0  0
  -26.7542  -25.5796   19.2674 O   0  0  0  0  0  0  0  0  0  1  0  0
  -19.4608   -4.3798   23.2715 F   0  0  0  0  0  0  0  0  0  0  0  0
  -25.3254  -19.1754   15.9246 F   0  0  0  0  0  0  0  0  0  0  0  0
  -19.8393   -8.9227   24.5460 F   0  0  0  0  0  0  0  0  0  0  0  0
  1  2  1  0  0  0  0
  1  5  2  0  0  0  0
  2  6  2  0  0  0  0
  3  8  2  0  0  0  0
  3 18  1  0  0  0  0
  4  9  1  0  0  0  0
  4 18  2  0  0  0  0
  5 20  1  0  0  0  0
  6 22  1  0  0  0  0
  7 10  2  0  0  0  0
  7 21  1  0  0  0  0
  8 26  1  0  0  0  0
  9 26  2  0  0  0  0
 10 27  1  0  0  0  0
 11 12  2  0  0  0  0
 11 28  1  0  0  0  0
 12 29  1  0  0  0  0
 13 23  1  0  0  0  0
 13 27  2  0  0  0  0
 14 24  2  0  0  0  0
 14 25  1  0  0  0  0
 15 24  1  0  0  0  0
 15 30  2  0  0  0  0
 16 25  2  0  0  0  0
 16 30  1  0  0  0  0
 17 29  2  0  0  0  0
 17 31  1  0  0  0  0
 18 32  1  0  0  0  0
 19 32  1  0  0  0  0
 19 33  2  0  0  0  0
 19 36  1  0  0  0  0
 20 22  2  0  0  0  0
 20 41  1  0  0  0  0
 21 23  2  0  0  0  0
 21 42  1  0  0  0  0
 22 53  1  0  0  0  0
 23 43  1  0  0  0  0
 24 66  1  0  0  0  0
 25 71  1  0  0  0  0
 26 80  1  0  0  0  0
 27 81  1  0  0  0  0
 28 31  2  0  0  0  0
 28 80  1  0  0  0  0
 29 82  1  0  0  0  0
 30 83  1  0  0  0  0
 31 84  1  0  0  0  0
 32 64  2  0  0  0  0
 33 65  1  0  0  0  0
 33 69  1  0  0  0  0
 34 35  2  0  0  0  0
 34 44  1  0  0  0  0
 34 45  1  0  0  0  0
 35 81  1  0  0  0  0
 36 70  1  0  0  0  0
 36 75  2  0  0  0  0
 37 54  1  0  0  0  0
 37 72  1  0  0  0  0
 37 76  2  0  0  0  0
 38 61  1  0  0  0  0
 38 67  1  0  0  0  0
 38 77  2  0  0  0  0
 39 62  1  0  0  0  0
 39 73  1  0  0  0  0
 39 78  2  0  0  0  0
 40 68  1  0  0  0  0
 40 71  1  0  0  0  0
 40 79  2  0  0  0  0
 41 46  1  0  0  0  0
 42 54  1  0  0  0  0
 43 67  1  0  0  0  0
 44 50  1  0  0  0  0
 45 66  1  0  0  0  0
 46 48  1  0  0  0  0
 47 49  1  0  0  0  0
 47 51  1  0  0  0  0
 48 53  1  0  0  0  0
 49 55  1  0  0  0  0
 50 66  1  0  0  0  0
 51 68  1  0  0  0  0
 52 55  1  0  0  0  0
 52 68  1  0  0  0  0
 53 72  1  0  0  0  0
 54 67  1  0  0  0  0
 55 65  1  0  0  0  0
 56 62  1  0  0  0  0
 57 63  1  0  0  0  0
 58 63  1  0  0  0  0
 59 63  1  0  0  0  0
 60 74  1  0  0  0  0
 61 63  1  0  0  0  0
 61 73  1  0  0  0  0
 62 74  1  0  0  0  0
 64 65  1  0  0  0  0
M  CHG  1  74   1
M  ISO  4  35 101  40 100  71 100  81 101
M  END
> <Batch ID>
0155

> <Smiles>
CNC(C)C(=O)NC(C(=O)N1Cc2cc([101O:1][101CH:1]=C3CCN(c4cc(F)cc([100NH:0][100C:0](=O)N5CCCC(n6nc(-c7ccc(Oc8ccc(F)cc8F)cc7)c(C(N)=O)c6N)C5)c4)C3)ccc2CC1C(=O)NC1CCCc2ccccc21)C(C)(C)C

> <Shape>
0.290

> <Color>
0.078

> <Negative vol penalty>
0.000

$$$$

  -OEChem-04052303363D

 84 93  0     1  0  0  0  0  0999 V2000
  -30.7887  -32.8225   23.0179 C   0  0  0  0  0  0  0  0  0  0  0  0
  -30.8053  -31.5478   22.4609 C   0  0  0  0  0  0  0  0  0  0  0  0
  -22.9034  -10.2469   19.9262 C   0  0  0  0  0  0  0  0  0  0  0  0
  -23.8820   -9.7972   22.0888 C   0  0  0  0  0  0  0  0  0  0  0  0
  -29.8595  -33.1370   24.0087 C   0  0  0  0  0  0  0  0  0  0  0  0
  -29.8934  -30.5865   22.8951 C   0  0  0  0  0  0  0  0  0  0  0  0
  -27.2648  -26.2113   19.5107 C   0  0  0  0  0  0  0  0  0  0  0  0
  -22.0713   -9.1370   20.0719 C   0  0  0  0  0  0  0  0  0  0  0  0
  -23.0499   -8.6873   22.2346 C   0  0  0  0  0  0  0  0  0  0  0  0
  -27.5561  -24.8592   19.3351 C   0  0  0  0  0  0  0  0  0  0  0  0
  -19.8311   -8.0817   23.0673 C   0  0  0  0  0  0  0  0  0  0  0  0
  -19.1932   -7.9088   24.2956 C   0  0  0  0  0  0  0  0  0  0  0  0
  -25.9159  -24.2944   21.0114 C   0  0  0  0  0  0  0  0  0  0  0  0
  -29.8493  -18.1590   21.8172 C   0  0  0  0  0  0  0  0  0  0  0  0
  -20.2916   -5.7739   24.5655 C   0  0  0  0  0  0  0  0  0  0  0  0
  -23.8088  -10.5770   20.9346 C   0  0  0  0  0  0  0  0  0  0  0  0
  -24.3994  -13.0464   21.1818 C   0  0  0  0  0  0  0  0  0  0  0  0
  -28.9294  -32.1819   24.4485 C   0  0  0  0  0  0  0  0  0  0  0  0
  -26.3031  -26.6164   20.4474 C   0  0  0  0  0  0  0  0  0  0  0  0
  -28.9518  -30.8881   23.8937 C   0  0  0  0  0  0  0  0  0  0  0  0
  -25.6125  -25.6520   21.1952 C   0  0  0  0  0  0  0  0  0  0  0  0
  -30.5912  -17.2205   22.5950 C   0  0  0  0  0  0  0  0  0  0  0  0
  -22.1445   -8.3572   21.2261 C   0  0  0  0  0  0  0  0  0  0  0  0
  -26.8837  -23.9007   20.0876 C   0  0  0  0  0  0  0  0  0  0  0  0
  -20.6993   -7.1007   22.5880 C   0  0  0  0  0  0  0  0  0  0  0  0
  -19.4234   -6.7549   25.0447 C   0  0  0  0  0  0  0  0  0  0  0  0
  -20.9295   -5.9469   23.3371 C   0  0  0  0  0  0  0  0  0  0  0  0
  -24.6691  -11.7231   20.7844 C   0  0  0  0  0  0  0  0  0  0  0  0
  -25.5228  -13.7492   20.8206 C   0  0  0  0  0  0  0  0  0  0  0  0
  -29.1399  -19.0368   22.6064 C   0  0  0  0  0  0  0  0  0  0  0  0
  -30.4163  -17.4222   23.9527 C   0  0  0  0  0  0  0  0  0  0  0  0
  -23.2373  -13.5916   21.8206 C   0  0  0  0  0  0  0  0  0  0  0  0
  -26.3464  -28.3976   23.0797 C   0  0  0  0  0  0  0  0  0  0  0  0
  -23.1326  -27.9769   22.9485 C   0  0  0  0  0  0  0  0  0  0  0  0
  -27.9492  -20.5466   20.9827 C   0  0  0  0  0  0  0  0  0  0  0  0
  -20.4989  -26.0944   21.8685 C   0  0  0  0  0  0  0  0  0  0  0  0
  -31.0748  -14.2415   20.5404 C   0  0  0  0  0  0  0  0  0  0  0  0
  -27.9750  -32.5541   25.5554 C   0  0  0  0  0  0  0  0  0  0  0  0
  -25.9814  -28.0771   20.6059 C   0  0  0  0  0  0  0  0  0  0  0  0
  -24.5567  -26.0336   22.1993 C   0  0  0  0  0  0  0  0  0  0  0  0
  -26.7981  -31.5918   25.6941 C   0  0  0  0  0  0  0  0  0  0  0  0
  -29.4645  -12.4062   17.9490 C   0  0  0  0  0  0  0  0  0  0  0  0
  -27.2835  -30.1461   25.6578 C   0  0  0  0  0  0  0  0  0  0  0  0
  -28.0539  -12.1689   18.4911 C   0  0  0  0  0  0  0  0  0  0  0  0
  -32.4040  -15.6560   23.2271 C   0  0  0  0  0  0  0  0  0  0  0  0
  -30.5135  -12.3388   19.0568 C   0  0  0  0  0  0  0  0  0  0  0  0
  -28.8445  -12.9853   20.7510 C   0  0  0  0  0  0  0  0  0  0  0  0
  -31.6331  -15.5200   24.5494 C   0  0  0  0  0  0  0  0  0  0  0  0
  -27.9625  -29.8255   24.3208 C   0  0  1  0  0  0  0  0  0  0  0  0
  -31.4867  -16.1360   22.0897 C   0  0  1  0  0  0  0  0  0  0  0  0
  -25.3502  -28.4071   21.9550 C   0  0  1  0  0  0  0  0  0  0  0  0
  -27.7462  -13.0990   19.6800 C   0  0  2  0  0  0  0  0  0  0  0  0
  -17.9932  -25.9824   21.9493 C   0  0  0  0  0  0  0  0  0  0  0  0
  -23.2729  -26.9694   25.8251 C   0  0  0  0  0  0  0  0  0  0  0  0
  -20.9822  -26.0045   25.5253 C   0  0  0  0  0  0  0  0  0  0  0  0
  -21.3305  -28.4675   25.3380 C   0  0  0  0  0  0  0  0  0  0  0  0
  -20.2784  -26.3131   18.9253 C   0  0  0  0  0  0  0  0  0  0  0  0
  -27.0028  -21.7306   21.0533 C   0  0  0  0  0  0  0  0  0  1  0  0
  -22.1652  -26.9538   23.4930 C   0  0  1  0  0  0  0  0  0  0  0  0
  -19.2044  -26.4776   21.1743 C   0  0  2  0  0  0  0  0  0  0  0  0
  -21.9589  -27.0914   25.0279 C   0  0  0  0  0  0  0  0  0  0  0  0
  -25.8696  -11.5905   20.2141 N   0  0  0  0  0  0  0  0  0  0  0  0
  -26.3642  -12.8396   20.2506 N   0  0  0  0  0  0  0  0  0  0  0  0
  -24.2824  -27.4748   22.3225 N   0  0  0  0  0  0  0  0  0  0  0  0
  -30.1635  -13.2452   20.1530 N   0  0  0  0  0  0  0  0  0  0  0  0
  -25.8631  -15.0503   20.9379 N   0  0  0  0  0  0  0  0  0  0  0  0
  -22.1740  -12.7295   22.1216 N   0  0  0  0  0  0  0  0  0  0  0  0
  -28.2857  -20.1103   22.2596 N   0  0  0  0  0  0  0  0  0  0  0  0
  -26.9707  -29.6125   23.2886 N   0  0  0  0  0  0  0  0  0  0  0  0
  -20.9416  -27.0923   22.7108 N   0  0  0  0  0  0  0  0  0  0  0  0
  -30.6619  -15.0618   21.5832 N   0  0  0  0  0  0  0  0  0  0  0  0
  -19.1578  -25.8916   19.8049 N   0  3  0  0  0  0  0  0  0  0  0  0
  -23.1378  -14.8102   22.1008 O   0  0  0  0  0  0  0  0  0  0  0  0
  -26.5336  -27.3649   23.7123 O   0  0  0  0  0  0  0  0  0  0  0  0
  -22.8741  -29.1771   23.0676 O   0  0  0  0  0  0  0  0  0  0  0  0
  -28.3258  -20.0883   19.9091 O   0  0  0  0  0  0  0  0  0  0  0  0
  -21.0592  -25.0160   21.6849 O   0  0  0  0  0  0  0  0  0  0  0  0
  -32.1726  -14.3924   19.9937 O   0  0  0  0  0  0  0  0  0  0  0  0
  -30.9820  -16.7365   24.9545 O   0  0  0  0  0  0  0  0  0  0  0  0
  -21.3325   -7.2743   21.3688 O   0  0  0  0  0  0  0  0  0  0  0  0
  -27.1665  -22.5803   19.9186 O   0  0  0  0  0  0  0  0  0  1  0  0
  -18.8120   -6.5897   26.2249 F   0  0  0  0  0  0  0  0  0  0  0  0
  -21.7634   -5.0015   22.8825 F   0  0  0  0  0  0  0  0  0  0  0  0
  -29.3777  -18.7373   24.2742 S   0  0  0  0  0  0  0  0  0  0  0  0
  1  2  1  0  0  0  0
  1  5  2  0  0  0  0
  2  6  2  0  0  0  0
  3  8  2  0  0  0  0
  3 16  1  0  0  0  0
  4  9  1  0  0  0  0
  4 16  2  0  0  0  0
  5 18  1  0  0  0  0
  6 20  1  0  0  0  0
  7 10  2  0  0  0  0
  7 19  1  0  0  0  0
  8 23  1  0  0  0  0
  9 23  2  0  0  0  0
 10 24  1  0  0  0  0
 11 12  2  0  0  0  0
 11 25  1  0  0  0  0
 12 26  1  0  0  0  0
 13 21  1  0  0  0  0
 13 24  2  0  0  0  0
 14 22  1  0  0  0  0
 14 30  2  0  0  0  0
 15 26  2  0  0  0  0
 15 27  1  0  0  0  0
 16 28  1  0  0  0  0
 17 28  1  0  0  0  0
 17 29  2  0  0  0  0
 17 32  1  0  0  0  0
 18 20  2  0  0  0  0
 18 38  1  0  0  0  0
 19 21  2  0  0  0  0
 19 39  1  0  0  0  0
 20 49  1  0  0  0  0
 21 40  1  0  0  0  0
 22 31  2  0  0  0  0
 22 50  1  0  0  0  0
 23 80  1  0  0  0  0
 24 81  1  0  0  0  0
 25 27  2  0  0  0  0
 25 80  1  0  0  0  0
 26 82  1  0  0  0  0
 27 83  1  0  0  0  0
 28 62  2  0  0  0  0
 29 63  1  0  0  0  0
 29 66  1  0  0  0  0
 30 68  1  0  0  0  0
 30 84  1  0  0  0  0
 31 79  1  0  0  0  0
 31 84  1  0  0  0  0
 32 67  1  0  0  0  0
 32 73  2  0  0  0  0
 33 51  1  0  0  0  0
 33 69  1  0  0  0  0
 33 74  2  0  0  0  0
 34 59  1  0  0  0  0
 34 64  1  0  0  0  0
 34 75  2  0  0  0  0
 35 58  1  0  0  0  0
 35 68  1  0  0  0  0
 35 76  2  0  0  0  0
 36 60  1  0  0  0  0
 36 70  1  0  0  0  0
 36 77  2  0  0  0  0
 37 65  1  0  0  0  0
 37 71  1  0  0  0  0
 37 78  2  0  0  0  0
 38 41  1  0  0  0  0
 39 51  1  0  0  0  0
 40 64  1  0  0  0  0
 41 43  1  0  0  0  0
 42 44  1  0  0  0  0
 42 46  1  0  0  0  0
 43 49  1  0  0  0  0
 44 52  1  0  0  0  0
 45 48  1  0  0  0  0
 45 50  1  0  0  0  0
 46 65  1  0  0  0  0
 47 52  1  0  0  0  0
 47 65  1  0  0  0  0
 48 79  1  0  0  0  0
 49 69  1  0  0  0  0
 50 71  1  0  0  0  0
 51 64  1  0  0  0  0
 52 63  1  0  0  0  0
 53 60  1  0  0  0  0
 54 61  1  0  0  0  0
 55 61  1  0  0  0  0
 56 61  1  0  0  0  0
 57 72  1  0  0  0  0
 58 81  1  0  0  0  0
 59 61  1  0  0  0  0
 59 70  1  0  0  0  0
 60 72  1  0  0  0  0
 62 63  1  0  0  0  0
M  CHG  1  72   1
M  ISO  4  37 100  58 101  71 100  81 101
M  END
> <Batch ID>
0155

> <Smiles>
CNC(C)C(=O)NC(C(=O)N1Cc2cc([101O:1][101CH2:1]C(=O)Nc3cc4c(s3)OCCC4[100NH:0][100C:0](=O)N3CCCC(n4nc(-c5ccc(Oc6ccc(F)cc6F)cc5)c(C(N)=O)c4N)C3)ccc2CC1C(=O)NC1CCCc2ccccc21)C(C)(C)C

> <Shape>
0.317

> <Color>
0.171

> <Negative vol penalty>
0.000

$$$$

  -OEChem-04052303363D

 84 93  0     1  0  0  0  0  0999 V2000
  -28.2019  -24.2821   16.8116 C   0  0  0  0  0  0  0  0  0  0  0  0
  -27.0362  -24.4431   17.5536 C   0  0  0  0  0  0  0  0  0  0  0  0
  -22.5908  -23.1376   25.3931 C   0  0  0  0  0  0  0  0  0  0  0  0
  -24.8160  -13.9947   21.4749 C   0  0  0  0  0  0  0  0  0  0  0  0
  -26.9900  -13.4900   20.5497 C   0  0  0  0  0  0  0  0  0  0  0  0
  -29.3902  -24.8675   17.2465 C   0  0  0  0  0  0  0  0  0  0  0  0
  -27.0584  -25.1888   18.7317 C   0  0  0  0  0  0  0  0  0  0  0  0
  -23.6776  -22.4169   24.8936 C   0  0  0  0  0  0  0  0  0  0  0  0
  -23.1331  -28.3679   19.0927 C   0  0  0  0  0  0  0  0  0  0  0  0
  -21.6572  -23.7222   24.5217 C   0  0  0  0  0  0  0  0  0  0  0  0
  -24.3023  -12.8310   20.9026 C   0  0  0  0  0  0  0  0  0  0  0  0
  -26.4763  -12.3263   19.9774 C   0  0  0  0  0  0  0  0  0  0  0  0
  -21.9057  -27.8239   19.4687 C   0  0  0  0  0  0  0  0  0  0  0  0
  -22.5037   -9.8074   19.9870 C   0  0  0  0  0  0  0  0  0  0  0  0
  -21.6820   -9.0041   20.7775 C   0  0  0  0  0  0  0  0  0  0  0  0
  -22.2624  -28.5949   21.7265 C   0  0  0  0  0  0  0  0  0  0  0  0
  -23.4872   -8.7112   22.3563 C   0  0  0  0  0  0  0  0  0  0  0  0
  -26.1598  -14.3243   21.2984 C   0  0  0  0  0  0  0  0  0  0  0  0
  -27.2666  -15.6637   23.1662 C   0  0  0  0  0  0  0  0  0  0  0  0
  -29.4249  -25.6289   18.4254 C   0  0  0  0  0  0  0  0  0  0  0  0
  -23.9407  -29.0210   20.0349 C   0  0  0  0  0  0  0  0  0  0  0  0
  -23.8082  -22.2998   23.5211 C   0  0  0  0  0  0  0  0  0  0  0  0
  -28.2486  -25.7839   19.1835 C   0  0  0  0  0  0  0  0  0  0  0  0
  -23.4985  -29.1485   21.3594 C   0  0  0  0  0  0  0  0  0  0  0  0
  -22.8787  -22.8815   22.6533 C   0  0  0  0  0  0  0  0  0  0  0  0
  -21.7972  -23.5955   23.1378 C   0  0  0  0  0  0  0  0  0  0  0  0
  -25.1324  -11.9968   20.1539 C   0  0  0  0  0  0  0  0  0  0  0  0
  -21.4715  -27.9348   20.7864 C   0  0  0  0  0  0  0  0  0  0  0  0
  -23.8172  -10.0626   20.3811 C   0  0  0  0  0  0  0  0  0  0  0  0
  -22.1737   -8.4560   21.9622 C   0  0  0  0  0  0  0  0  0  0  0  0
  -24.3090   -9.5145   21.5657 C   0  0  0  0  0  0  0  0  0  0  0  0
  -26.6909  -15.5265   21.8888 C   0  0  0  0  0  0  0  0  0  0  0  0
  -27.6101  -16.9911   23.2472 C   0  0  0  0  0  0  0  0  0  0  0  0
  -27.4724  -14.6793   24.1881 C   0  0  0  0  0  0  0  0  0  0  0  0
  -26.8493  -28.5313   21.2198 C   0  0  0  0  0  0  0  0  0  0  0  0
  -26.3122  -31.3807   22.6741 C   0  0  0  0  0  0  0  0  0  0  0  0
  -19.7259  -24.9283   22.6110 C   0  0  0  0  0  0  0  0  0  0  0  0
  -24.0539  -33.6609   23.8347 C   0  0  0  0  0  0  0  0  0  0  0  0
  -25.3658  -21.7564   20.2337 C   0  0  0  0  0  0  0  0  0  0  0  0
  -30.7433  -26.2030   18.8803 C   0  0  0  0  0  0  0  0  0  0  0  0
  -25.2499  -29.6258   19.6074 C   0  0  0  0  0  0  0  0  0  0  0  0
  -24.8568  -21.5703   22.7460 C   0  0  0  0  0  0  0  0  0  0  0  0
  -24.3188  -29.8578   22.4045 C   0  0  0  0  0  0  0  0  0  0  0  0
  -23.2539  -22.6107   21.2355 C   0  0  0  0  0  0  0  0  0  0  0  0
  -30.6002  -27.2904   19.9421 C   0  0  0  0  0  0  0  0  0  0  0  0
  -28.8727  -20.7152   20.5103 C   0  0  0  0  0  0  0  0  0  0  0  0
  -29.6270  -26.8488   21.0305 C   0  0  0  0  0  0  0  0  0  0  0  0
  -28.7534  -19.2599   20.9684 C   0  0  0  0  0  0  0  0  0  0  0  0
  -27.6860  -21.1444   19.6497 C   0  0  0  0  0  0  0  0  0  0  0  0
  -26.2538  -19.4397   20.7030 C   0  0  0  0  0  0  0  0  0  0  0  0
  -28.2270  -26.6063   20.4536 C   0  0  1  0  0  0  0  0  0  0  0  0
  -26.2246  -29.8199   20.7647 C   0  0  1  0  0  0  0  0  0  0  0  0
  -27.3892  -18.9941   21.6338 C   0  0  1  0  0  0  0  0  0  0  0  0
  -23.9154  -35.8744   25.0090 C   0  0  0  0  0  0  0  0  0  0  0  0
  -26.9944  -30.0181   25.3176 C   0  0  0  0  0  0  0  0  0  0  0  0
  -25.9392  -31.9523   26.5067 C   0  0  0  0  0  0  0  0  0  0  0  0
  -27.9358  -32.3204   25.0573 C   0  0  0  0  0  0  0  0  0  0  0  0
  -22.6661  -34.9204   21.5441 C   0  0  0  0  0  0  0  0  0  0  0  0
  -18.9807  -25.3804   21.3603 C   0  0  0  0  0  0  0  0  0  0  0  0
  -19.8252  -26.2530   20.4442 C   0  0  0  0  0  0  0  0  0  1  0  0
  -25.7027  -31.8135   23.9856 C   0  0  1  0  0  0  0  0  0  0  0  0
  -23.9642  -35.1667   23.6638 C   0  0  2  0  0  0  0  0  0  0  0  0
  -26.6282  -31.5109   25.1978 C   0  0  0  0  0  0  0  0  0  0  0  0
  -26.6682  -16.6751   21.2074 N   0  0  0  0  0  0  0  0  0  0  0  0
  -27.2337  -17.5467   22.0598 N   0  0  0  0  0  0  0  0  0  0  0  0
  -25.5943  -30.4268   21.9388 N   0  0  0  0  0  0  0  0  0  0  0  0
  -24.5145  -21.8566   21.3370 N   0  0  0  0  0  0  0  0  0  0  0  0
  -26.4226  -20.8447   20.3216 N   0  0  0  0  0  0  0  0  0  0  0  0
  -28.1944  -17.7255   24.2176 N   0  0  0  0  0  0  0  0  0  0  0  0
  -27.0605  -13.3628   23.9402 N   0  0  0  0  0  0  0  0  0  0  0  0
  -20.8669  -24.1780   22.2786 N   0  0  0  0  0  0  0  0  0  0  0  0
  -27.5472  -27.8644   20.2311 N   0  0  0  0  0  0  0  0  0  0  0  0
  -25.3615  -33.2235   23.8316 N   0  0  0  0  0  0  0  0  0  0  0  0
  -22.7385  -35.5289   22.8974 N   0  3  0  0  0  0  0  0  0  0  0  0
  -27.9909  -14.9623   25.2947 O   0  0  0  0  0  0  0  0  0  0  0  0
  -26.7097  -28.1697   22.3823 O   0  0  0  0  0  0  0  0  0  0  0  0
  -27.3823  -31.8761   22.3119 O   0  0  0  0  0  0  0  0  0  0  0  0
  -19.3373  -25.2093   23.7399 O   0  0  0  0  0  0  0  0  0  0  0  0
  -23.0632  -32.9449   23.9622 O   0  0  0  0  0  0  0  0  0  0  0  0
  -25.2239  -22.4838   19.2425 O   0  0  0  0  0  0  0  0  0  0  0  0
  -24.6315  -10.8611   19.5955 O   0  0  0  0  0  0  0  0  0  0  0  0
  -20.2657  -27.4004   21.1588 O   0  0  0  0  0  0  0  0  0  1  0  0
  -21.3840   -7.6858   22.7220 F   0  0  0  0  0  0  0  0  0  0  0  0
  -25.5696   -9.7571   21.9501 F   0  0  0  0  0  0  0  0  0  0  0  0
  1  2  1  0  0  0  0
  1  6  2  0  0  0  0
  2  7  2  0  0  0  0
  3  8  1  0  0  0  0
  3 10  2  0  0  0  0
  4 11  2  0  0  0  0
  4 18  1  0  0  0  0
  5 12  1  0  0  0  0
  5 18  2  0  0  0  0
  6 20  1  0  0  0  0
  7 23  1  0  0  0  0
  8 22  2  0  0  0  0
  9 13  2  0  0  0  0
  9 21  1  0  0  0  0
 10 26  1  0  0  0  0
 11 27  1  0  0  0  0
 12 27  2  0  0  0  0
 13 28  1  0  0  0  0
 14 15  2  0  0  0  0
 14 29  1  0  0  0  0
 15 30  1  0  0  0  0
 16 24  1  0  0  0  0
 16 28  2  0  0  0  0
 17 30  2  0  0  0  0
 17 31  1  0  0  0  0
 18 32  1  0  0  0  0
 19 32  1  0  0  0  0
 19 33  2  0  0  0  0
 19 34  1  0  0  0  0
 20 23  2  0  0  0  0
 20 40  1  0  0  0  0
 21 24  2  0  0  0  0
 21 41  1  0  0  0  0
 22 25  1  0  0  0  0
 22 42  1  0  0  0  0
 23 51  1  0  0  0  0
 24 43  1  0  0  0  0
 25 26  2  0  0  0  0
 25 44  1  0  0  0  0
 26 71  1  0  0  0  0
 27 81  1  0  0  0  0
 28 82  1  0  0  0  0
 29 31  2  0  0  0  0
 29 81  1  0  0  0  0
 30 83  1  0  0  0  0
 31 84  1  0  0  0  0
 32 64  2  0  0  0  0
 33 65  1  0  0  0  0
 33 69  1  0  0  0  0
 34 70  1  0  0  0  0
 34 75  2  0  0  0  0
 35 52  1  0  0  0  0
 35 72  1  0  0  0  0
 35 76  2  0  0  0  0
 36 61  1  0  0  0  0
 36 66  1  0  0  0  0
 36 77  2  0  0  0  0
 37 59  1  0  0  0  0
 37 71  1  0  0  0  0
 37 78  2  0  0  0  0
 38 62  1  0  0  0  0
 38 73  1  0  0  0  0
 38 79  2  0  0  0  0
 39 67  1  0  0  0  0
 39 68  1  0  0  0  0
 39 80  2  0  0  0  0
 40 45  1  0  0  0  0
 41 52  1  0  0  0  0
 42 67  1  0  0  0  0
 43 66  1  0  0  0  0
 44 67  1  0  0  0  0
 45 47  1  0  0  0  0
 46 48  1  0  0  0  0
 46 49  1  0  0  0  0
 47 51  1  0  0  0  0
 48 53  1  0  0  0  0
 49 68  1  0  0  0  0
 50 53  1  0  0  0  0
 50 68  1  0  0  0  0
 51 72  1  0  0  0  0
 52 66  1  0  0  0  0
 53 65  1  0  0  0  0
 54 62  1  0  0  0  0
 55 63  1  0  0  0  0
 56 63  1  0  0  0  0
 57 63  1  0  0  0  0
 58 74  1  0  0  0  0
 59 60  1  0  0  0  0
 60 82  1  0  0  0  0
 61 63  1  0  0  0  0
 61 73  1  0  0  0  0
 62 74  1  0  0  0  0
 64 65  1  0  0  0  0
M  CHG  1  74   1
M  ISO  4  39 100  60 101  67 100  82 101
M  END
> <Batch ID>
0155

> <Smiles>
CNC(C)C(=O)NC(C(=O)N1Cc2cc([101O:1][101CH2:1]CC(=O)Nc3cccc4c3C[100N:0]([100C:0](=O)N3CCCC(n5nc(-c6ccc(Oc7ccc(F)cc7F)cc6)c(C(N)=O)c5N)C3)C4)ccc2CC1C(=O)NC1CCCc2ccccc21)C(C)(C)C

> <Shape>
0.295

> <Color>
0.084

> <Negative vol penalty>
0.000

$$$$

  -OEChem-04052303363D

 82 90  0     1  0  0  0  0  0999 V2000
  -28.7643  -35.9889   21.8705 C   0  0  0  0  0  0  0  0  0  0  0  0
  -28.9385  -34.6105   21.7986 C   0  0  0  0  0  0  0  0  0  0  0  0
  -23.8219   -9.6653   22.5549 C   0  0  0  0  0  0  0  0  0  0  0  0
  -23.4393  -10.0975   20.2088 C   0  0  0  0  0  0  0  0  0  0  0  0
  -27.6478  -36.5164   22.5178 C   0  0  0  0  0  0  0  0  0  0  0  0
  -27.9968  -33.7588   22.3750 C   0  0  0  0  0  0  0  0  0  0  0  0
  -26.7834  -29.8774   19.3572 C   0  0  0  0  0  0  0  0  0  0  0  0
  -22.9625   -8.5685   22.4930 C   0  0  0  0  0  0  0  0  0  0  0  0
  -22.5799   -9.0006   20.1469 C   0  0  0  0  0  0  0  0  0  0  0  0
  -27.6876  -28.8185   19.2872 C   0  0  0  0  0  0  0  0  0  0  0  0
  -23.0867   -5.3640   21.4210 C   0  0  0  0  0  0  0  0  0  0  0  0
  -23.5003   -4.1811   22.0335 C   0  0  0  0  0  0  0  0  0  0  0  0
  -26.3264  -27.5620   20.8323 C   0  0  0  0  0  0  0  0  0  0  0  0
  -28.9563  -18.4124   18.3253 C   0  0  0  0  0  0  0  0  0  0  0  0
  -21.5660   -4.2532   23.4792 C   0  0  0  0  0  0  0  0  0  0  0  0
  -24.0603  -10.4299   21.4128 C   0  0  0  0  0  0  0  0  0  0  0  0
  -26.3370  -11.5691   21.2505 C   0  0  0  0  0  0  0  0  0  0  0  0
  -26.6869  -35.6706   23.0940 C   0  0  0  0  0  0  0  0  0  0  0  0
  -25.6477  -29.7907   20.1751 C   0  0  0  0  0  0  0  0  0  0  0  0
  -26.8670  -34.2756   23.0318 C   0  0  0  0  0  0  0  0  0  0  0  0
  -25.4080  -28.6202   20.9089 C   0  0  0  0  0  0  0  0  0  0  0  0
  -29.5927  -19.6385   18.0175 C   0  0  0  0  0  0  0  0  0  0  0  0
  -22.3415   -8.2361   21.2890 C   0  0  0  0  0  0  0  0  0  0  0  0
  -27.4607  -27.6616   20.0270 C   0  0  0  0  0  0  0  0  0  0  0  0
  -21.9127   -5.9917   21.8377 C   0  0  0  0  0  0  0  0  0  0  0  0
  -22.7400   -3.6256   23.0625 C   0  0  0  0  0  0  0  0  0  0  0  0
  -21.1524   -5.4362   22.8668 C   0  0  0  0  0  0  0  0  0  0  0  0
  -24.9475  -11.5635   21.4762 C   0  0  0  0  0  0  0  0  0  0  0  0
  -26.7088  -12.8790   21.4303 C   0  0  0  0  0  0  0  0  0  0  0  0
  -27.9084  -18.7248   19.1598 C   0  0  0  0  0  0  0  0  0  0  0  0
  -28.8882  -20.6129   18.6856 C   0  0  0  0  0  0  0  0  0  0  0  0
  -27.2133  -10.4870   20.9087 C   0  0  0  0  0  0  0  0  0  0  0  0
  -24.5689  -31.4020   22.6937 C   0  0  0  0  0  0  0  0  0  0  0  0
  -28.6405  -24.2899   19.3931 C   0  0  0  0  0  0  0  0  0  0  0  0
  -21.9562  -29.5231   22.2867 C   0  0  0  0  0  0  0  0  0  0  0  0
  -20.6369  -26.6184   21.0746 C   0  0  0  0  0  0  0  0  0  0  0  0
  -25.8959  -18.3278   20.6221 C   0  0  0  0  0  0  0  0  0  0  0  0
  -25.5207  -36.2881   23.8243 C   0  0  0  0  0  0  0  0  0  0  0  0
  -24.6681  -30.9313   20.2189 C   0  0  0  0  0  0  0  0  0  0  0  0
  -24.1932  -28.4691   21.7864 C   0  0  0  0  0  0  0  0  0  0  0  0
  -24.3772  -35.3104   24.0829 C   0  0  0  0  0  0  0  0  0  0  0  0
  -24.1296  -16.8063   23.3133 C   0  0  0  0  0  0  0  0  0  0  0  0
  -24.9154  -33.9924   24.6307 C   0  0  0  0  0  0  0  0  0  0  0  0
  -24.2992  -15.3072   23.0567 C   0  0  0  0  0  0  0  0  0  0  0  0
  -23.9723  -17.5903   22.0116 C   0  0  0  0  0  0  0  0  0  0  0  0
  -25.1945  -15.8570   20.7581 C   0  0  0  0  0  0  0  0  0  0  0  0
  -25.8548  -33.3187   23.6232 C   0  0  1  0  0  0  0  0  0  0  0  0
  -23.8125  -30.9358   21.4820 C   0  0  1  0  0  0  0  0  0  0  0  0
  -25.4216  -15.0335   22.0364 C   0  0  2  0  0  0  0  0  0  0  0  0
  -18.4793  -25.3455   20.9270 C   0  0  0  0  0  0  0  0  0  0  0  0
  -22.2334  -28.7182   25.2168 C   0  0  0  0  0  0  0  0  0  0  0  0
  -20.7031  -26.7901   24.7597 C   0  0  0  0  0  0  0  0  0  0  0  0
  -19.8835  -29.1277   24.4653 C   0  0  0  0  0  0  0  0  0  0  0  0
  -20.6635  -26.6884   18.1160 C   0  0  0  0  0  0  0  0  0  0  0  0
  -28.1846  -22.8527   19.5304 C   0  0  0  0  0  0  0  0  0  0  0  0
  -27.8168  -25.3135   20.1501 C   0  0  0  0  0  0  0  0  0  1  0  0
  -21.5229  -28.1696   22.7960 C   0  0  1  0  0  0  0  0  0  0  0  0
  -19.3975  -26.3455   20.2416 C   0  0  2  0  0  0  0  0  0  0  0  0
  -21.1097  -28.2047   24.2945 C   0  0  0  0  0  0  0  0  0  0  0  0
  -24.4690  -12.7737   21.7767 N   0  0  0  0  0  0  0  0  0  0  0  0
  -25.5640  -13.5521   21.7411 N   0  0  0  0  0  0  0  0  0  0  0  0
  -23.2682  -29.6144   21.8007 N   0  0  0  0  0  0  0  0  0  0  0  0
  -25.0733  -17.2839   21.0958 N   0  0  0  0  0  0  0  0  0  0  0  0
  -30.6727  -19.8114   17.2282 N   0  0  0  0  0  0  0  0  0  0  0  0
  -27.9000  -13.5092   21.3514 N   0  0  0  0  0  0  0  0  0  0  0  0
  -26.6663   -9.2049   20.7625 N   0  0  0  0  0  0  0  0  0  0  0  0
  -26.9297  -17.9120   19.7837 N   0  0  0  0  0  0  0  0  0  0  0  0
  -29.0439  -21.9895   18.7611 N   0  0  0  0  0  0  0  0  0  0  0  0
  -25.0932  -32.6750   22.5743 N   0  0  0  0  0  0  0  0  0  0  0  0
  -20.4692  -27.7130   21.8962 N   0  0  0  0  0  0  0  0  0  0  0  0
  -19.7791  -25.7968   18.9096 N   0  3  0  0  0  0  0  0  0  0  0  0
  -28.4476  -10.6491   20.7541 O   0  0  0  0  0  0  0  0  0  0  0  0
  -24.6682  -30.6622   23.6656 O   0  0  0  0  0  0  0  0  0  0  0  0
  -29.6133  -24.6173   18.7146 O   0  0  0  0  0  0  0  0  0  0  0  0
  -21.1576  -30.4629   22.3124 O   0  0  0  0  0  0  0  0  0  0  0  0
  -21.6509  -25.9273   21.0062 O   0  0  0  0  0  0  0  0  0  0  0  0
  -25.7143  -19.5007   20.9587 O   0  0  0  0  0  0  0  0  0  0  0  0
  -27.8599  -20.0641   19.3842 O   0  0  0  0  0  0  0  0  0  0  0  0
  -21.5030   -7.1656   21.2282 O   0  0  0  0  0  0  0  0  0  0  0  0
  -28.3419  -26.6268   19.9610 O   0  0  0  0  0  0  0  0  0  1  0  0
  -23.1365   -2.4888   23.6495 F   0  0  0  0  0  0  0  0  0  0  0  0
  -20.0230   -6.0340   23.2707 F   0  0  0  0  0  0  0  0  0  0  0  0
  1  2  1  0  0  0  0
  1  5  2  0  0  0  0
  2  6  2  0  0  0  0
  3  8  2  0  0  0  0
  3 16  1  0  0  0  0
  4  9  1  0  0  0  0
  4 16  2  0  0  0  0
  5 18  1  0  0  0  0
  6 20  1  0  0  0  0
  7 10  2  0  0  0  0
  7 19  1  0  0  0  0
  8 23  1  0  0  0  0
  9 23  2  0  0  0  0
 10 24  1  0  0  0  0
 11 12  2  0  0  0  0
 11 25  1  0  0  0  0
 12 26  1  0  0  0  0
 13 21  1  0  0  0  0
 13 24  2  0  0  0  0
 14 22  1  0  0  0  0
 14 30  2  0  0  0  0
 15 26  2  0  0  0  0
 15 27  1  0  0  0  0
 16 28  1  0  0  0  0
 17 28  1  0  0  0  0
 17 29  2  0  0  0  0
 17 32  1  0  0  0  0
 18 20  2  0  0  0  0
 18 38  1  0  0  0  0
 19 21  2  0  0  0  0
 19 39  1  0  0  0  0
 20 47  1  0  0  0  0
 21 40  1  0  0  0  0
 22 31  2  0  0  0  0
 22 64  1  0  0  0  0
 23 79  1  0  0  0  0
 24 80  1  0  0  0  0
 25 27  2  0  0  0  0
 25 79  1  0  0  0  0
 26 81  1  0  0  0  0
 27 82  1  0  0  0  0
 28 60  2  0  0  0  0
 29 61  1  0  0  0  0
 29 65  1  0  0  0  0
 30 67  1  0  0  0  0
 30 78  1  0  0  0  0
 31 68  1  0  0  0  0
 31 78  1  0  0  0  0
 32 66  1  0  0  0  0
 32 72  2  0  0  0  0
 33 48  1  0  0  0  0
 33 69  1  0  0  0  0
 33 73  2  0  0  0  0
 34 55  1  0  0  0  0
 34 56  1  0  0  0  0
 34 74  2  0  0  0  0
 35 57  1  0  0  0  0
 35 62  1  0  0  0  0
 35 75  2  0  0  0  0
 36 58  1  0  0  0  0
 36 70  1  0  0  0  0
 36 76  2  0  0  0  0
 37 63  1  0  0  0  0
 37 67  1  0  0  0  0
 37 77  2  0  0  0  0
 38 41  1  0  0  0  0
 39 48  1  0  0  0  0
 40 62  1  0  0  0  0
 41 43  1  0  0  0  0
 42 44  1  0  0  0  0
 42 45  1  0  0  0  0
 43 47  1  0  0  0  0
 44 49  1  0  0  0  0
 45 63  1  0  0  0  0
 46 49  1  0  0  0  0
 46 63  1  0  0  0  0
 47 69  1  0  0  0  0
 48 62  1  0  0  0  0
 49 61  1  0  0  0  0
 50 58  1  0  0  0  0
 51 59  1  0  0  0  0
 52 59  1  0  0  0  0
 53 59  1  0  0  0  0
 54 71  1  0  0  0  0
 55 68  1  0  0  0  0
 56 80  1  0  0  0  0
 57 59  1  0  0  0  0
 57 70  1  0  0  0  0
 58 71  1  0  0  0  0
 60 61  1  0  0  0  0
M  CHG  1  71   1
M  ISO  4  37 100  56 101  67 100  80 101
M  END
> <Batch ID>
0155

> <Smiles>
CNC(C)C(=O)NC(C(=O)N1Cc2cc([101O:1][101CH2:1]C(=O)CNc3oc([100NH:0][100C:0](=O)N4CCCC(n5nc(-c6ccc(Oc7ccc(F)cc7F)cc6)c(C(N)=O)c5N)C4)cc3N)ccc2CC1C(=O)NC1CCCc2ccccc21)C(C)(C)C

> <Shape>
0.325

> <Color>
0.094

> <Negative vol penalty>
0.000

$$$$

  -OEChem-04052303363D

 87 96  0     1  0  0  0  0  0999 V2000
  -37.1316  -27.4744   31.7319 C   0  0  0  0  0  0  0  0  0  0  0  0
  -36.3598  -26.5463   31.0402 C   0  0  0  0  0  0  0  0  0  0  0  0
  -23.0754   -9.8682   19.9402 C   0  0  0  0  0  0  0  0  0  0  0  0
  -23.8346   -9.8744   22.2338 C   0  0  0  0  0  0  0  0  0  0  0  0
  -37.4750  -28.6828   31.1271 C   0  0  0  0  0  0  0  0  0  0  0  0
  -35.9299  -26.8266   29.7437 C   0  0  0  0  0  0  0  0  0  0  0  0
  -36.5278  -22.8967   26.6064 C   0  0  0  0  0  0  0  0  0  0  0  0
  -22.3312   -8.7152   20.1896 C   0  0  0  0  0  0  0  0  0  0  0  0
  -23.0903   -8.7214   22.4833 C   0  0  0  0  0  0  0  0  0  0  0  0
  -35.5895  -21.8687   26.6875 C   0  0  0  0  0  0  0  0  0  0  0  0
  -19.8618   -7.9243   23.0846 C   0  0  0  0  0  0  0  0  0  0  0  0
  -19.1044   -7.8842   24.2552 C   0  0  0  0  0  0  0  0  0  0  0  0
  -34.4525  -22.7623   24.7567 C   0  0  0  0  0  0  0  0  0  0  0  0
  -31.7976  -17.5508   21.7118 C   0  0  0  0  0  0  0  0  0  0  0  0
  -20.3451   -5.9463   24.9916 C   0  0  0  0  0  0  0  0  0  0  0  0
  -23.8272  -10.4478   20.9622 C   0  0  0  0  0  0  0  0  0  0  0  0
  -24.1697  -12.9729   20.8429 C   0  0  0  0  0  0  0  0  0  0  0  0
  -37.0572  -28.9740   29.8189 C   0  0  0  0  0  0  0  0  0  0  0  0
  -36.4291  -23.8731   25.6047 C   0  0  0  0  0  0  0  0  0  0  0  0
  -36.2669  -28.0407   29.1213 C   0  0  0  0  0  0  0  0  0  0  0  0
  -35.3923  -23.8002   24.6635 C   0  0  0  0  0  0  0  0  0  0  0  0
  -31.8863  -18.8087   22.3750 C   0  0  0  0  0  0  0  0  0  0  0  0
  -22.3386   -8.1418   21.4611 C   0  0  0  0  0  0  0  0  0  0  0  0
  -34.5499  -21.8031   25.7643 C   0  0  0  0  0  0  0  0  0  0  0  0
  -20.8607   -6.9752   22.8673 C   0  0  0  0  0  0  0  0  0  0  0  0
  -19.3461   -6.8953   25.2087 C   0  0  0  0  0  0  0  0  0  0  0  0
  -21.1024   -5.9863   23.8209 C   0  0  0  0  0  0  0  0  0  0  0  0
  -24.5966  -11.6385   20.7050 C   0  0  0  0  0  0  0  0  0  0  0  0
  -30.7392  -19.1053   23.0777 C   0  0  0  0  0  0  0  0  0  0  0  0
  -25.2621  -13.7222   20.4802 C   0  0  0  0  0  0  0  0  0  0  0  0
  -30.5860  -16.9336   21.9331 C   0  0  0  0  0  0  0  0  0  0  0  0
  -22.8992  -13.4889   21.2616 C   0  0  0  0  0  0  0  0  0  0  0  0
  -30.5240  -20.3316   23.8663 C   0  0  0  0  0  0  0  0  0  0  0  0
  -36.0195  -27.0251   25.5773 C   0  0  0  0  0  0  0  0  0  0  0  0
  -36.5013  -26.6684   22.3893 C   0  0  0  0  0  0  0  0  0  0  0  0
  -36.4012  -24.6297   19.6543 C   0  0  0  0  0  0  0  0  0  0  0  0
  -30.7286  -14.7662   20.6569 C   0  0  0  0  0  0  0  0  0  0  0  0
  -37.4135  -30.3134   29.2243 C   0  0  0  0  0  0  0  0  0  0  0  0
  -37.4646  -24.9603   25.5146 C   0  0  0  0  0  0  0  0  0  0  0  0
  -35.2534  -24.8122   23.5567 C   0  0  0  0  0  0  0  0  0  0  0  0
  -37.2329  -30.3750   27.7098 C   0  0  0  0  0  0  0  0  0  0  0  0
  -29.6142  -12.3534   18.2876 C   0  0  0  0  0  0  0  0  0  0  0  0
  -35.8886  -29.7766   27.3077 C   0  0  0  0  0  0  0  0  0  0  0  0
  -28.1744  -12.0621   18.7166 C   0  0  0  0  0  0  0  0  0  0  0  0
  -30.9123  -20.9426   27.3998 C   0  0  0  0  0  0  0  0  0  0  0  0
  -30.5290  -12.5816   19.4896 C   0  0  0  0  0  0  0  0  0  0  0  0
  -30.6882  -21.5241   26.0106 C   0  0  0  0  0  0  0  0  0  0  0  0
  -28.6219  -13.3062   20.8705 C   0  0  0  0  0  0  0  0  0  0  0  0
  -31.4586  -19.1972   25.8402 C   0  0  0  0  0  0  0  0  0  0  0  0
  -35.8023  -28.2978   27.7042 C   0  0  1  0  0  0  0  0  0  0  0  0
  -36.9719  -26.1941   24.7648 C   0  0  1  0  0  0  0  0  0  0  0  0
  -27.6493  -13.1336   19.6923 C   0  0  2  0  0  0  0  0  0  0  0  0
  -31.9047  -19.7940   27.1796 C   0  0  1  0  0  0  0  0  0  0  0  0
  -36.8164  -24.6320   17.1794 C   0  0  0  0  0  0  0  0  0  0  0  0
  -33.8746  -28.1582   21.9525 C   0  0  0  0  0  0  0  0  0  0  0  0
  -33.8655  -27.3094   19.5971 C   0  0  0  0  0  0  0  0  0  0  0  0
  -35.7100  -28.7962   20.3781 C   0  0  0  0  0  0  0  0  0  0  0  0
  -38.5121  -22.5687   19.8893 C   0  0  0  0  0  0  0  0  0  0  0  0
  -32.0162  -19.3893   29.4863 C   0  0  0  0  0  0  0  0  0  0  0  0
  -33.3543  -20.2736   27.1381 C   0  0  0  0  0  0  0  0  0  1  0  0
  -35.6137  -26.4060   21.1967 C   0  0  1  0  0  0  0  0  0  0  0  0
  -37.4138  -24.3708   18.5533 C   0  0  2  0  0  0  0  0  0  0  0  0
  -34.7672  -27.6493   20.8030 C   0  0  0  0  0  0  0  0  0  0  0  0
  -25.8616  -11.5425   20.2871 N   0  0  0  0  0  0  0  0  0  0  0  0
  -26.2389  -12.8260   20.1592 N   0  0  0  0  0  0  0  0  0  0  0  0
  -30.8635  -20.3503   25.1425 N   0  0  0  0  0  0  0  0  0  0  0  0
  -36.2871  -25.8597   23.5144 N   0  0  0  0  0  0  0  0  0  0  0  0
  -29.9701  -13.6123   20.3671 N   0  0  0  0  0  0  0  0  0  0  0  0
  -32.9779  -19.6085   22.3130 N   0  0  0  0  0  0  0  0  0  0  0  0
  -25.4729  -15.0536   20.4076 N   0  0  0  0  0  0  0  0  0  0  0  0
  -21.8869  -12.5799   21.5983 N   0  0  0  0  0  0  0  0  0  0  0  0
  -30.0812  -15.6912   21.4754 N   0  0  0  0  0  0  0  0  0  0  0  0
  -36.5468  -27.4799   26.7708 N   0  0  0  0  0  0  0  0  0  0  0  0
  -36.4888  -25.9187   20.1360 N   0  0  0  0  0  0  0  0  0  0  0  0
  -29.9930  -21.4006   23.2801 N   0  3  0  0  0  0  0  0  0  0  0  0
  -37.8811  -22.9565   18.6015 N   0  3  0  0  0  0  0  0  0  0  0  0
  -22.6632  -14.7196   21.3192 O   0  0  0  0  0  0  0  0  0  0  0  0
  -34.8903  -27.2391   25.1520 O   0  0  0  0  0  0  0  0  0  0  0  0
  -37.3580  -27.5534   22.3225 O   0  0  0  0  0  0  0  0  0  0  0  0
  -35.6091  -23.7752   20.0451 O   0  0  0  0  0  0  0  0  0  0  0  0
  -31.8579  -14.9348   20.1897 O   0  0  0  0  0  0  0  0  0  0  0  0
  -21.6123   -7.0168   21.7050 O   0  0  0  0  0  0  0  0  0  0  0  0
  -33.6323  -20.8011   25.8416 O   0  0  0  0  0  0  0  0  0  1  0  0
  -31.7652  -18.8248   28.2088 O   0  0  0  0  0  0  0  0  0  0  0  0
  -18.6198   -6.8579   26.3336 F   0  0  0  0  0  0  0  0  0  0  0  0
  -22.0616   -5.0726   23.6183 F   0  0  0  0  0  0  0  0  0  0  0  0
  -29.5618  -17.8699   22.9365 S   0  0  0  0  0  0  0  0  0  0  0  0
  1  2  1  0  0  0  0
  1  5  2  0  0  0  0
  2  6  2  0  0  0  0
  3  8  2  0  0  0  0
  3 16  1  0  0  0  0
  4  9  1  0  0  0  0
  4 16  2  0  0  0  0
  5 18  1  0  0  0  0
  6 20  1  0  0  0  0
  7 10  2  0  0  0  0
  7 19  1  0  0  0  0
  8 23  1  0  0  0  0
  9 23  2  0  0  0  0
 10 24  1  0  0  0  0
 11 12  2  0  0  0  0
 11 25  1  0  0  0  0
 12 26  1  0  0  0  0
 13 21  1  0  0  0  0
 13 24  2  0  0  0  0
 14 22  1  0  0  0  0
 14 31  2  0  0  0  0
 15 26  2  0  0  0  0
 15 27  1  0  0  0  0
 16 28  1  0  0  0  0
 17 28  1  0  0  0  0
 17 30  2  0  0  0  0
 17 32  1  0  0  0  0
 18 20  2  0  0  0  0
 18 38  1  0  0  0  0
 19 21  2  0  0  0  0
 19 39  1  0  0  0  0
 20 50  1  0  0  0  0
 21 40  1  0  0  0  0
 22 29  2  0  0  0  0
 22 69  1  0  0  0  0
 23 82  1  0  0  0  0
 24 83  1  0  0  0  0
 25 27  2  0  0  0  0
 25 82  1  0  0  0  0
 26 85  1  0  0  0  0
 27 86  1  0  0  0  0
 28 64  2  0  0  0  0
 29 33  1  0  0  0  0
 29 87  1  0  0  0  0
 30 65  1  0  0  0  0
 30 70  1  0  0  0  0
 31 72  1  0  0  0  0
 31 87  1  0  0  0  0
 32 71  1  0  0  0  0
 32 77  2  0  0  0  0
 33 66  1  0  0  0  0
 33 75  2  0  0  0  0
 34 51  1  0  0  0  0
 34 73  1  0  0  0  0
 34 78  2  0  0  0  0
 35 61  1  0  0  0  0
 35 67  1  0  0  0  0
 35 79  2  0  0  0  0
 36 62  1  0  0  0  0
 36 74  1  0  0  0  0
 36 80  2  0  0  0  0
 37 68  1  0  0  0  0
 37 72  1  0  0  0  0
 37 81  2  0  0  0  0
 38 41  1  0  0  0  0
 39 51  1  0  0  0  0
 40 67  1  0  0  0  0
 41 43  1  0  0  0  0
 42 44  1  0  0  0  0
 42 46  1  0  0  0  0
 43 50  1  0  0  0  0
 44 52  1  0  0  0  0
 45 47  1  0  0  0  0
 45 53  1  0  0  0  0
 46 68  1  0  0  0  0
 47 66  1  0  0  0  0
 48 52  1  0  0  0  0
 48 68  1  0  0  0  0
 49 53  1  0  0  0  0
 49 66  1  0  0  0  0
 50 73  1  0  0  0  0
 51 67  1  0  0  0  0
 52 65  1  0  0  0  0
 53 60  1  0  0  0  0
 53 84  1  0  0  0  0
 54 62  1  0  0  0  0
 55 63  1  0  0  0  0
 56 63  1  0  0  0  0
 57 63  1  0  0  0  0
 58 76  1  0  0  0  0
 59 84  1  0  0  0  0
 60 83  1  0  0  0  0
 61 63  1  0  0  0  0
 61 74  1  0  0  0  0
 62 76  1  0  0  0  0
 64 65  1  0  0  0  0
M  CHG  2  75   1  76   1
M  ISO  4  37 100  60 101  72 100  83 101
M  END
> <Batch ID>
0155

> <Smiles>
CNC(C)C(=O)NC(C(=O)N1Cc2cc([101O:1][101CH2:1]C3(OC)CCN(C(=N)c4sc([100NH:0][100C:0](=O)N5CCCC(n6nc(-c7ccc(Oc8ccc(F)cc8F)cc7)c(C(N)=O)c6N)C5)cc4N)C3)ccc2CC1C(=O)NC1CCCc2ccccc21)C(C)(C)C

> <Shape>
0.166

> <Color>
0.176

> <Negative vol penalty>
0.000

$$$$

  -OEChem-04052303363D

 87 96  0     1  0  0  0  0  0999 V2000
  -24.6114   -2.0535   26.1867 C   0  0  0  0  0  0  0  0  0  0  0  0
  -25.4553   -3.0848   26.5864 C   0  0  0  0  0  0  0  0  0  0  0  0
  -22.8492  -10.1052   20.1076 C   0  0  0  0  0  0  0  0  0  0  0  0
  -24.2779   -9.5488   21.9747 C   0  0  0  0  0  0  0  0  0  0  0  0
  -23.7264   -1.4843   27.1014 C   0  0  0  0  0  0  0  0  0  0  0  0
  -25.4140   -3.5481   27.9010 C   0  0  0  0  0  0  0  0  0  0  0  0
  -30.0308   -4.1968   29.8783 C   0  0  0  0  0  0  0  0  0  0  0  0
  -22.1409   -8.9185   20.2960 C   0  0  0  0  0  0  0  0  0  0  0  0
  -23.5695   -8.3620   22.1632 C   0  0  0  0  0  0  0  0  0  0  0  0
  -30.7285   -5.3441   29.5034 C   0  0  0  0  0  0  0  0  0  0  0  0
  -20.6375   -7.4060   23.5451 C   0  0  0  0  0  0  0  0  0  0  0  0
  -20.2777   -7.0679   24.8496 C   0  0  0  0  0  0  0  0  0  0  0  0
  -33.0989  -11.9231   25.9458 C   0  0  0  0  0  0  0  0  0  0  0  0
  -30.9563  -12.5512   25.0231 C   0  0  0  0  0  0  0  0  0  0  0  0
  -30.0957   -6.3995   31.5783 C   0  0  0  0  0  0  0  0  0  0  0  0
  -32.8673  -12.2872   23.5687 C   0  0  0  0  0  0  0  0  0  0  0  0
  -21.5486   -5.0211   24.6697 C   0  0  0  0  0  0  0  0  0  0  0  0
  -23.9178  -10.4203   20.9469 C   0  0  0  0  0  0  0  0  0  0  0  0
  -31.7477  -12.2204   26.1230 C   0  0  0  0  0  0  0  0  0  0  0  0
  -24.1423  -12.9575   20.8064 C   0  0  0  0  0  0  0  0  0  0  0  0
  -23.6810   -1.9344   28.4304 C   0  0  0  0  0  0  0  0  0  0  0  0
  -29.3500   -4.1460   31.1032 C   0  0  0  0  0  0  0  0  0  0  0  0
  -24.5266   -2.9853   28.8340 C   0  0  0  0  0  0  0  0  0  0  0  0
  -29.3922   -5.2494   31.9675 C   0  0  0  0  0  0  0  0  0  0  0  0
  -33.6587  -11.9565   24.6686 C   0  0  0  0  0  0  0  0  0  0  0  0
  -31.5161  -12.5846   23.7459 C   0  0  0  0  0  0  0  0  0  0  0  0
  -22.5009   -8.0469   21.3238 C   0  0  0  0  0  0  0  0  0  0  0  0
  -30.7587   -6.4467   30.3522 C   0  0  0  0  0  0  0  0  0  0  0  0
  -21.4528   -6.5516   22.8028 C   0  0  0  0  0  0  0  0  0  0  0  0
  -20.7332   -5.8755   25.4119 C   0  0  0  0  0  0  0  0  0  0  0  0
  -21.9084   -5.3591   23.3651 C   0  0  0  0  0  0  0  0  0  0  0  0
  -24.6504  -11.6457   20.7525 C   0  0  0  0  0  0  0  0  0  0  0  0
  -25.2302  -13.7576   20.5560 C   0  0  0  0  0  0  0  0  0  0  0  0
  -31.1560  -12.1852   27.4724 C   0  0  0  0  0  0  0  0  0  0  0  0
  -22.8065  -13.4122   21.0603 C   0  0  0  0  0  0  0  0  0  0  0  0
  -26.3128   -3.7847   31.9683 C   0  0  0  0  0  0  0  0  0  0  0  0
  -27.5805   -3.6889   34.9526 C   0  0  0  0  0  0  0  0  0  0  0  0
  -30.1417   -5.4511   36.7835 C   0  0  0  0  0  0  0  0  0  0  0  0
  -31.1112  -12.9999   21.2943 C   0  0  0  0  0  0  0  0  0  0  0  0
  -22.6745   -1.3203   29.3708 C   0  0  0  0  0  0  0  0  0  0  0  0
  -28.6242   -2.8913   31.5047 C   0  0  0  0  0  0  0  0  0  0  0  0
  -28.6948   -5.2383   33.3023 C   0  0  0  0  0  0  0  0  0  0  0  0
  -22.9565   -1.6148   30.8418 C   0  0  0  0  0  0  0  0  0  0  0  0
  -29.4274  -13.7571   18.2499 C   0  0  0  0  0  0  0  0  0  0  0  0
  -23.2728   -3.0940   31.0390 C   0  0  0  0  0  0  0  0  0  0  0  0
  -27.9642  -13.4268   18.5530 C   0  0  0  0  0  0  0  0  0  0  0  0
  -30.7210   -9.8636   30.0455 C   0  0  0  0  0  0  0  0  0  0  0  0
  -31.3123   -8.7176   27.8675 C   0  0  0  0  0  0  0  0  0  0  0  0
  -30.3825  -12.7772   18.9291 C   0  0  0  0  0  0  0  0  0  0  0  0
  -30.0273  -10.9745   29.2685 C   0  0  0  0  0  0  0  0  0  0  0  0
  -30.6179   -9.8325   27.0967 C   0  0  0  0  0  0  0  0  0  0  0  0
  -28.7185  -12.2853   20.6779 C   0  0  0  0  0  0  0  0  0  0  0  0
  -24.5288   -3.4985   30.2577 C   0  0  1  0  0  0  0  0  0  0  0  0
  -27.5384   -3.1369   32.5478 C   0  0  1  0  0  0  0  0  0  0  0  0
  -27.7209  -13.2838   20.0683 C   0  0  2  0  0  0  0  0  0  0  0  0
  -30.7188   -8.5531   29.2645 C   0  0  0  0  0  0  0  0  0  1  0  0
  -31.5655   -4.7157   38.7146 C   0  0  0  0  0  0  0  0  0  0  0  0
  -25.4200   -4.9936   36.6672 C   0  0  0  0  0  0  0  0  0  0  0  0
  -27.2258   -5.8136   38.1952 C   0  0  0  0  0  0  0  0  0  0  0  0
  -26.8748   -3.3636   37.8842 C   0  0  0  0  0  0  0  0  0  0  0  0
  -32.6413   -6.1010   35.3383 C   0  0  0  0  0  0  0  0  0  0  0  0
  -27.9016   -4.7161   36.0112 C   0  0  1  0  0  0  0  0  0  0  0  0
  -31.4936   -4.9062   37.2075 C   0  0  2  0  0  0  0  0  0  0  0  0
  -26.8560   -4.7283   37.1618 C   0  0  0  0  0  0  0  0  0  0  0  0
  -25.9592  -11.6101   20.4883 N   0  0  0  0  0  0  0  0  0  0  0  0
  -26.2827  -12.9095   20.3740 N   0  0  0  0  0  0  0  0  0  0  0  0
  -30.6303  -11.0550   27.9237 N   0  0  0  0  0  0  0  0  0  0  0  0
  -27.9933   -3.9906   33.6471 N   0  0  0  0  0  0  0  0  0  0  0  0
  -30.0956  -12.6968   20.3630 N   0  0  0  0  0  0  0  0  0  0  0  0
  -35.0251  -11.6563   24.4895 N   0  0  0  0  0  0  0  0  0  0  0  0
  -25.3797  -15.0969   20.4758 N   0  0  0  0  0  0  0  0  0  0  0  0
  -21.8093  -12.4564   21.2983 N   0  0  0  0  0  0  0  0  0  0  0  0
  -30.7125  -12.9209   22.6283 N   0  0  0  0  0  0  0  0  0  0  0  0
  -25.7197   -3.0592   30.9527 N   0  0  0  0  0  0  0  0  0  0  0  0
  -29.2663   -4.4403   36.4469 N   0  0  0  0  0  0  0  0  0  0  0  0
  -31.1605  -13.2871   28.2168 N   0  3  0  0  0  0  0  0  0  0  0  0
  -32.5800   -5.8413   36.7997 N   0  3  0  0  0  0  0  0  0  0  0  0
  -22.5027  -14.6292   21.0595 O   0  0  0  0  0  0  0  0  0  0  0  0
  -25.9324   -4.8623   32.4108 O   0  0  0  0  0  0  0  0  0  0  0  0
  -26.9915   -2.6536   35.2734 O   0  0  0  0  0  0  0  0  0  0  0  0
  -29.8864   -6.6531   36.7572 O   0  0  0  0  0  0  0  0  0  0  0  0
  -32.2432  -13.3334   20.9346 O   0  0  0  0  0  0  0  0  0  0  0  0
  -21.8098   -6.8890   21.5080 O   0  0  0  0  0  0  0  0  0  0  0  0
  -31.4384   -7.5681   29.9885 O   0  0  0  0  0  0  0  0  0  1  0  0
  -20.3889   -5.5517   26.6652 F   0  0  0  0  0  0  0  0  0  0  0  0
  -22.6928   -4.5349   22.6574 F   0  0  0  0  0  0  0  0  0  0  0  0
  -29.4390   -8.1070   29.1526 F   0  0  0  0  0  0  0  0  0  0  0  0
  1  2  1  0  0  0  0
  1  5  2  0  0  0  0
  2  6  2  0  0  0  0
  3  8  2  0  0  0  0
  3 18  1  0  0  0  0
  4  9  1  0  0  0  0
  4 18  2  0  0  0  0
  5 21  1  0  0  0  0
  6 23  1  0  0  0  0
  7 10  2  0  0  0  0
  7 22  1  0  0  0  0
  8 27  1  0  0  0  0
  9 27  2  0  0  0  0
 10 28  1  0  0  0  0
 11 12  2  0  0  0  0
 11 29  1  0  0  0  0
 12 30  1  0  0  0  0
 13 19  1  0  0  0  0
 13 25  2  0  0  0  0
 14 19  2  0  0  0  0
 14 26  1  0  0  0  0
 15 24  1  0  0  0  0
 15 28  2  0  0  0  0
 16 25  1  0  0  0  0
 16 26  2  0  0  0  0
 17 30  2  0  0  0  0
 17 31  1  0  0  0  0
 18 32  1  0  0  0  0
 19 34  1  0  0  0  0
 20 32  1  0  0  0  0
 20 33  2  0  0  0  0
 20 35  1  0  0  0  0
 21 23  2  0  0  0  0
 21 40  1  0  0  0  0
 22 24  2  0  0  0  0
 22 41  1  0  0  0  0
 23 53  1  0  0  0  0
 24 42  1  0  0  0  0
 25 70  1  0  0  0  0
 26 73  1  0  0  0  0
 27 83  1  0  0  0  0
 28 84  1  0  0  0  0
 29 31  2  0  0  0  0
 29 83  1  0  0  0  0
 30 85  1  0  0  0  0
 31 86  1  0  0  0  0
 32 65  2  0  0  0  0
 33 66  1  0  0  0  0
 33 71  1  0  0  0  0
 34 67  1  0  0  0  0
 34 76  2  0  0  0  0
 35 72  1  0  0  0  0
 35 78  2  0  0  0  0
 36 54  1  0  0  0  0
 36 74  1  0  0  0  0
 36 79  2  0  0  0  0
 37 62  1  0  0  0  0
 37 68  1  0  0  0  0
 37 80  2  0  0  0  0
 38 63  1  0  0  0  0
 38 75  1  0  0  0  0
 38 81  2  0  0  0  0
 39 69  1  0  0  0  0
 39 73  1  0  0  0  0
 39 82  2  0  0  0  0
 40 43  1  0  0  0  0
 41 54  1  0  0  0  0
 42 68  1  0  0  0  0
 43 45  1  0  0  0  0
 44 46  1  0  0  0  0
 44 49  1  0  0  0  0
 45 53  1  0  0  0  0
 46 55  1  0  0  0  0
 47 50  1  0  0  0  0
 47 56  1  0  0  0  0
 48 51  1  0  0  0  0
 48 56  1  0  0  0  0
 49 69  1  0  0  0  0
 50 67  1  0  0  0  0
 51 67  1  0  0  0  0
 52 55  1  0  0  0  0
 52 69  1  0  0  0  0
 53 74  1  0  0  0  0
 54 68  1  0  0  0  0
 55 66  1  0  0  0  0
 56 84  1  0  0  0  0
 56 87  1  0  0  0  0
 57 63  1  0  0  0  0
 58 64  1  0  0  0  0
 59 64  1  0  0  0  0
 60 64  1  0  0  0  0
 61 77  1  0  0  0  0
 62 64  1  0  0  0  0
 62 75  1  0  0  0  0
 63 77  1  0  0  0  0
 65 66  1  0  0  0  0
M  CHG  2  76   1  77   1
M  ISO  4  39 100  56 101  73 100  84 101
M  END
> <Batch ID>
0155

> <Smiles>
CNC(C)C(=O)NC(C(=O)N1Cc2cc([101O:1][101C:1]3(F)CCN(C(=N)c4cc(N)cc([100NH:0][100C:0](=O)N5CCCC(n6nc(-c7ccc(Oc8ccc(F)cc8F)cc7)c(C(N)=O)c6N)C5)c4)CC3)ccc2CC1C(=O)NC1CCCc2ccccc21)C(C)(C)C

> <Shape>
0.150

> <Color>
0.167

> <Negative vol penalty>
0.000

$$$$

  -OEChem-04052303363D

 85 94  0     1  0  0  0  0  0999 V2000
  -17.7903  -27.7571   19.1933 C   0  0  0  0  0  0  0  0  0  0  0  0
  -19.0345  -27.1982   19.4672 C   0  0  0  0  0  0  0  0  0  0  0  0
  -23.2266   -9.6760   21.4201 C   0  0  0  0  0  0  0  0  0  0  0  0
  -23.8705  -10.6426   23.5386 C   0  0  0  0  0  0  0  0  0  0  0  0
  -17.6413  -29.1431   19.1635 C   0  0  0  0  0  0  0  0  0  0  0  0
  -20.1307  -28.0250   19.7104 C   0  0  0  0  0  0  0  0  0  0  0  0
  -22.8737  -26.4959   23.6832 C   0  0  0  0  0  0  0  0  0  0  0  0
  -22.5437   -8.6613   22.0906 C   0  0  0  0  0  0  0  0  0  0  0  0
  -23.1876   -9.6279   24.2092 C   0  0  0  0  0  0  0  0  0  0  0  0
  -23.7382  -25.4204   23.4839 C   0  0  0  0  0  0  0  0  0  0  0  0
  -23.3043   -5.7790   23.6838 C   0  0  0  0  0  0  0  0  0  0  0  0
  -23.4806   -4.4715   23.2313 C   0  0  0  0  0  0  0  0  0  0  0  0
  -29.3832  -18.4057   21.4927 C   0  0  0  0  0  0  0  0  0  0  0  0
  -25.5872  -26.9545   23.2675 C   0  0  0  0  0  0  0  0  0  0  0  0
  -31.2424  -19.8001   22.1527 C   0  0  0  0  0  0  0  0  0  0  0  0
  -31.6417  -17.5625   21.3338 C   0  0  0  0  0  0  0  0  0  0  0  0
  -21.1107   -4.3036   22.7928 C   0  0  0  0  0  0  0  0  0  0  0  0
  -23.8900  -10.6667   22.1441 C   0  0  0  0  0  0  0  0  0  0  0  0
  -24.0812  -12.9590   21.0411 C   0  0  0  0  0  0  0  0  0  0  0  0
  -18.7341  -29.9872   19.4160 C   0  0  0  0  0  0  0  0  0  0  0  0
  -23.3585  -27.8116   23.6652 C   0  0  0  0  0  0  0  0  0  0  0  0
  -19.9965  -29.4235   19.6827 C   0  0  0  0  0  0  0  0  0  0  0  0
  -29.8698  -19.6163   21.9857 C   0  0  0  0  0  0  0  0  0  0  0  0
  -24.7272  -28.0448   23.4693 C   0  0  0  0  0  0  0  0  0  0  0  0
  -30.2691  -17.3787   21.1667 C   0  0  0  0  0  0  0  0  0  0  0  0
  -22.5242   -8.6373   23.4852 C   0  0  0  0  0  0  0  0  0  0  0  0
  -25.0947  -25.6498   23.2732 C   0  0  0  0  0  0  0  0  0  0  0  0
  -22.0311   -6.3489   23.6909 C   0  0  0  0  0  0  0  0  0  0  0  0
  -22.3839   -3.7338   22.7857 C   0  0  0  0  0  0  0  0  0  0  0  0
  -32.1284  -18.7732   21.8268 C   0  0  0  0  0  0  0  0  0  0  0  0
  -20.9343   -5.6111   23.2454 C   0  0  0  0  0  0  0  0  0  0  0  0
  -24.5961  -11.7149   21.4521 C   0  0  0  0  0  0  0  0  0  0  0  0
  -25.1417  -13.5858   20.4338 C   0  0  0  0  0  0  0  0  0  0  0  0
  -26.8380  -21.3069   23.6937 C   0  0  0  0  0  0  0  0  0  0  0  0
  -26.5118  -22.2720   22.8165 C   0  0  0  0  0  0  0  0  0  0  0  0
  -22.7622  -13.4997   21.1948 C   0  0  0  0  0  0  0  0  0  0  0  0
  -22.8250  -30.3742   21.8619 C   0  0  0  0  0  0  0  0  0  0  0  0
  -24.7361  -31.8261   24.0441 C   0  0  0  0  0  0  0  0  0  0  0  0
  -27.1885  -31.5315   26.3990 C   0  0  0  0  0  0  0  0  0  0  0  0
  -30.5178  -15.0284   20.2947 C   0  0  0  0  0  0  0  0  0  0  0  0
  -18.5347  -31.4795   19.3263 C   0  0  0  0  0  0  0  0  0  0  0  0
  -22.4173  -28.9594   23.9083 C   0  0  0  0  0  0  0  0  0  0  0  0
  -25.3011  -29.4373   23.4611 C   0  0  0  0  0  0  0  0  0  0  0  0
  -27.9530  -20.3244   23.4787 C   0  0  0  0  0  0  0  0  0  0  0  0
  -27.2306  -22.4324   21.5002 C   0  0  0  0  0  0  0  0  0  0  0  0
  -19.6639  -32.2844   19.9644 C   0  0  0  0  0  0  0  0  0  0  0  0
  -28.1054  -21.2309   21.1265 C   0  0  0  0  0  0  0  0  0  0  0  0
  -29.6724  -11.8002   19.0532 C   0  0  0  0  0  0  0  0  0  0  0  0
  -21.0203  -31.7415   19.5261 C   0  0  0  0  0  0  0  0  0  0  0  0
  -28.2340  -11.5926   19.5328 C   0  0  0  0  0  0  0  0  0  0  0  0
  -30.5113  -12.5523   20.0849 C   0  0  0  0  0  0  0  0  0  0  0  0
  -28.4975  -13.6144   21.0260 C   0  0  0  0  0  0  0  0  0  0  0  0
  -28.9066  -20.7339   22.3399 C   0  0  2  0  0  0  0  0  0  0  0  0
  -21.2040  -30.2872   19.9762 C   0  0  1  0  0  0  0  0  0  0  0  0
  -22.9358  -30.2842   23.3576 C   0  0  1  0  0  0  0  0  0  0  0  0
  -27.5965  -12.9182   19.9929 C   0  0  2  0  0  0  0  0  0  0  0  0
  -28.5699  -32.8989   27.9862 C   0  0  0  0  0  0  0  0  0  0  0  0
  -26.4475  -32.7989   21.7128 C   0  0  0  0  0  0  0  0  0  0  0  0
  -28.2662  -33.3151   23.3541 C   0  0  0  0  0  0  0  0  0  0  0  0
  -26.0742  -34.4953   23.5120 C   0  0  0  0  0  0  0  0  0  0  0  0
  -26.1201  -30.0906   28.7529 C   0  0  0  0  0  0  0  0  0  0  0  0
  -25.4126  -23.2549   23.0923 C   0  0  0  0  0  0  0  0  0  1  0  0
  -26.2215  -32.0604   24.1765 C   0  0  1  0  0  0  0  0  0  0  0  0
  -27.3009  -32.0794   27.8102 C   0  0  2  0  0  0  0  0  0  0  0  0
  -26.7415  -33.1412   23.1870 C   0  0  0  0  0  0  0  0  0  0  0  0
  -25.8835  -11.5587   21.1326 N   0  0  0  0  0  0  0  0  0  0  0  0
  -26.1865  -12.7129   20.5144 N   0  0  0  0  0  0  0  0  0  0  0  0
  -24.3394  -30.5268   23.6971 N   0  0  0  0  0  0  0  0  0  0  0  0
  -29.8473  -13.7994   20.4704 N   0  0  0  0  0  0  0  0  0  0  0  0
  -25.2730  -14.7929   19.8439 N   0  0  0  0  0  0  0  0  0  0  0  0
  -21.7928  -12.7225   21.8432 N   0  0  0  0  0  0  0  0  0  0  0  0
  -29.7751  -16.1486   20.6661 N   0  0  0  0  0  0  0  0  0  0  0  0
  -21.5364  -30.2318   21.3836 N   0  0  0  0  0  0  0  0  0  0  0  0
  -26.4621  -32.3713   25.5814 N   0  0  0  0  0  0  0  0  0  0  0  0
  -27.3206  -30.9644   28.7988 N   0  3  0  0  0  0  0  0  0  0  0  0
  -22.4481  -14.6318   20.7551 O   0  0  0  0  0  0  0  0  0  0  0  0
  -23.8336  -30.5606   21.1914 O   0  0  0  0  0  0  0  0  0  0  0  0
  -23.9561  -32.7597   24.2482 O   0  0  0  0  0  0  0  0  0  0  0  0
  -27.6975  -30.4669   26.0552 O   0  0  0  0  0  0  0  0  0  0  0  0
  -31.6561  -15.0848   19.8223 O   0  0  0  0  0  0  0  0  0  0  0  0
  -21.8577   -7.6474   24.1398 O   0  0  0  0  0  0  0  0  0  0  0  0
  -25.9406  -24.6018   23.0778 O   0  0  0  0  0  0  0  0  0  1  0  0
  -22.5536   -2.4787   22.3497 F   0  0  0  0  0  0  0  0  0  0  0  0
  -33.4464  -18.9498   21.9872 F   0  0  0  0  0  0  0  0  0  0  0  0
  -19.7089   -6.1536   23.2487 F   0  0  0  0  0  0  0  0  0  0  0  0
  1  2  1  0  0  0  0
  1  5  2  0  0  0  0
  2  6  2  0  0  0  0
  3  8  2  0  0  0  0
  3 18  1  0  0  0  0
  4  9  1  0  0  0  0
  4 18  2  0  0  0  0
  5 20  1  0  0  0  0
  6 22  1  0  0  0  0
  7 10  2  0  0  0  0
  7 21  1  0  0  0  0
  8 26  1  0  0  0  0
  9 26  2  0  0  0  0
 10 27  1  0  0  0  0
 11 12  2  0  0  0  0
 11 28  1  0  0  0  0
 12 29  1  0  0  0  0
 13 23  2  0  0  0  0
 13 25  1  0  0  0  0
 14 24  1  0  0  0  0
 14 27  2  0  0  0  0
 15 23  1  0  0  0  0
 15 30  2  0  0  0  0
 16 25  2  0  0  0  0
 16 30  1  0  0  0  0
 17 29  2  0  0  0  0
 17 31  1  0  0  0  0
 18 32  1  0  0  0  0
 19 32  1  0  0  0  0
 19 33  2  0  0  0  0
 19 36  1  0  0  0  0
 20 22  2  0  0  0  0
 20 41  1  0  0  0  0
 21 24  2  0  0  0  0
 21 42  1  0  0  0  0
 22 54  1  0  0  0  0
 23 53  1  0  0  0  0
 24 43  1  0  0  0  0
 25 72  1  0  0  0  0
 26 81  1  0  0  0  0
 27 82  1  0  0  0  0
 28 31  2  0  0  0  0
 28 81  1  0  0  0  0
 29 83  1  0  0  0  0
 30 84  1  0  0  0  0
 31 85  1  0  0  0  0
 32 66  2  0  0  0  0
 33 67  1  0  0  0  0
 33 70  1  0  0  0  0
 34 35  2  0  0  0  0
 34 44  1  0  0  0  0
 35 45  1  0  0  0  0
 35 62  1  0  0  0  0
 36 71  1  0  0  0  0
 36 76  2  0  0  0  0
 37 55  1  0  0  0  0
 37 73  1  0  0  0  0
 37 77  2  0  0  0  0
 38 63  1  0  0  0  0
 38 68  1  0  0  0  0
 38 78  2  0  0  0  0
 39 64  1  0  0  0  0
 39 74  1  0  0  0  0
 39 79  2  0  0  0  0
 40 69  1  0  0  0  0
 40 72  1  0  0  0  0
 40 80  2  0  0  0  0
 41 46  1  0  0  0  0
 42 55  1  0  0  0  0
 43 68  1  0  0  0  0
 44 53  1  0  0  0  0
 45 47  1  0  0  0  0
 46 49  1  0  0  0  0
 47 53  1  0  0  0  0
 48 50  1  0  0  0  0
 48 51  1  0  0  0  0
 49 54  1  0  0  0  0
 50 56  1  0  0  0  0
 51 69  1  0  0  0  0
 52 56  1  0  0  0  0
 52 69  1  0  0  0  0
 54 73  1  0  0  0  0
 55 68  1  0  0  0  0
 56 67  1  0  0  0  0
 57 64  1  0  0  0  0
 58 65  1  0  0  0  0
 59 65  1  0  0  0  0
 60 65  1  0  0  0  0
 61 75  1  0  0  0  0
 62 82  1  0  0  0  0
 63 65  1  0  0  0  0
 63 74  1  0  0  0  0
 64 75  1  0  0  0  0
 66 67  1  0  0  0  0
M  CHG  1  75   1
M  ISO  4  40 100  62 101  72 100  82 101
M  END
> <Batch ID>
0155

> <Smiles>
CNC(C)C(=O)NC(C(=O)N1Cc2cc([101O:1][101CH2:1]C3=CCC(c4cc(F)cc([100NH:0][100C:0](=O)N5CCCC(n6nc(-c7ccc(Oc8ccc(F)cc8F)cc7)c(C(N)=O)c6N)C5)c4)CC3)ccc2CC1C(=O)NC1CCCc2ccccc21)C(C)(C)C

> <Shape>
0.285

> <Color>
0.162

> <Negative vol penalty>
0.000

$$$$

  -OEChem-04052303363D

 85 94  0     1  0  0  0  0  0999 V2000
  -31.7608  -33.9713   20.2274 C   0  0  0  0  0  0  0  0  0  0  0  0
  -31.2800  -32.6689   20.1383 C   0  0  0  0  0  0  0  0  0  0  0  0
  -23.1037   -9.6571   19.8707 C   0  0  0  0  0  0  0  0  0  0  0  0
  -24.7302   -8.6534   21.3486 C   0  0  0  0  0  0  0  0  0  0  0  0
  -31.2792  -34.8247   21.2192 C   0  0  0  0  0  0  0  0  0  0  0  0
  -30.3179  -32.2187   21.0418 C   0  0  0  0  0  0  0  0  0  0  0  0
  -26.5913  -29.6368   18.7856 C   0  0  0  0  0  0  0  0  0  0  0  0
  -22.2317   -8.5948   20.1089 C   0  0  0  0  0  0  0  0  0  0  0  0
  -23.8582   -7.5910   21.5868 C   0  0  0  0  0  0  0  0  0  0  0  0
  -26.8591  -28.3171   18.4244 C   0  0  0  0  0  0  0  0  0  0  0  0
  -21.1167   -6.9955   23.4709 C   0  0  0  0  0  0  0  0  0  0  0  0
  -20.9551   -6.5753   24.7911 C   0  0  0  0  0  0  0  0  0  0  0  0
  -25.6982  -27.5486   20.3944 C   0  0  0  0  0  0  0  0  0  0  0  0
  -21.7551   -4.3765   24.1892 C   0  0  0  0  0  0  0  0  0  0  0  0
  -27.1831  -18.7434   18.5786 C   0  0  0  0  0  0  0  0  0  0  0  0
  -24.3530   -9.6864   20.4905 C   0  0  0  0  0  0  0  0  0  0  0  0
  -25.7924  -11.1798   19.0055 C   0  0  0  0  0  0  0  0  0  0  0  0
  -30.3037  -34.3878   22.1293 C   0  0  0  0  0  0  0  0  0  0  0  0
  -25.8832  -29.9231   19.9616 C   0  0  0  0  0  0  0  0  0  0  0  0
  -29.8238  -33.0666   22.0476 C   0  0  0  0  0  0  0  0  0  0  0  0
  -25.4205  -28.8726   20.7670 C   0  0  0  0  0  0  0  0  0  0  0  0
  -22.6090   -7.5618   20.9669 C   0  0  0  0  0  0  0  0  0  0  0  0
  -26.4151  -27.2728   19.2302 C   0  0  0  0  0  0  0  0  0  0  0  0
  -21.5975   -6.1062   22.5098 C   0  0  0  0  0  0  0  0  0  0  0  0
  -21.2743   -5.2658   25.1503 C   0  0  0  0  0  0  0  0  0  0  0  0
  -21.9167   -4.7967   22.8690 C   0  0  0  0  0  0  0  0  0  0  0  0
  -25.2545  -10.7831   20.2444 C   0  0  0  0  0  0  0  0  0  0  0  0
  -27.4902  -18.5452   19.9084 C   0  0  0  0  0  0  0  0  0  0  0  0
  -26.5823  -12.2628   19.3050 C   0  0  0  0  0  0  0  0  0  0  0  0
  -28.3295  -20.5577   19.6726 C   0  0  0  0  0  0  0  0  0  0  0  0
  -25.5957  -10.6194   17.7005 C   0  0  0  0  0  0  0  0  0  0  0  0
  -26.5390  -31.4858   22.6508 C   0  0  0  0  0  0  0  0  0  0  0  0
  -27.7695  -23.9699   19.4683 C   0  0  0  0  0  0  0  0  0  0  0  0
  -23.4029  -30.9394   23.2742 C   0  0  0  0  0  0  0  0  0  0  0  0
  -21.0784  -28.2071   22.8883 C   0  0  0  0  0  0  0  0  0  0  0  0
  -27.4378  -17.0824   21.9587 C   0  0  0  0  0  0  0  0  0  0  0  0
  -29.8480  -35.3317   23.2137 C   0  0  0  0  0  0  0  0  0  0  0  0
  -25.5793  -31.3511   20.3234 C   0  0  0  0  0  0  0  0  0  0  0  0
  -24.6385  -29.1261   22.0290 C   0  0  0  0  0  0  0  0  0  0  0  0
  -28.5553  -34.8946   23.8980 C   0  0  0  0  0  0  0  0  0  0  0  0
  -29.6503  -21.7891   22.4848 C   0  0  0  0  0  0  0  0  0  0  0  0
  -28.6020  -22.8616   22.7629 C   0  0  0  0  0  0  0  0  0  0  0  0
  -28.1083  -14.0920   23.7712 C   0  0  0  0  0  0  0  0  0  0  0  0
  -28.6138  -33.4122   24.2527 C   0  0  0  0  0  0  0  0  0  0  0  0
  -30.1575  -21.8598   21.0422 C   0  0  0  0  0  0  0  0  0  0  0  0
  -27.4699  -12.9972   22.9133 C   0  0  0  0  0  0  0  0  0  0  0  0
  -27.4893  -22.8312   21.7216 C   0  0  0  0  0  0  0  0  0  0  0  0
  -27.2816  -15.3765   23.7589 C   0  0  0  0  0  0  0  0  0  0  0  0
  -26.3202  -14.7994   21.5654 C   0  0  0  0  0  0  0  0  0  0  0  0
  -28.7621  -32.5492   22.9938 C   0  0  1  0  0  0  0  0  0  0  0  0
  -29.0245  -21.8803   19.9925 C   0  0  2  0  0  0  0  0  0  0  0  0
  -25.2951  -31.5434   21.8099 C   0  0  1  0  0  0  0  0  0  0  0  0
  -27.1505  -13.5075   21.4945 C   0  0  2  0  0  0  0  0  0  0  0  0
  -18.5851  -28.2140   22.6042 C   0  0  0  0  0  0  0  0  0  0  0  0
  -23.3471  -30.5934   26.3052 C   0  0  0  0  0  0  0  0  0  0  0  0
  -21.4023  -29.0424   26.0225 C   0  0  0  0  0  0  0  0  0  0  0  0
  -21.2086  -31.4253   25.3107 C   0  0  0  0  0  0  0  0  0  0  0  0
  -21.2421  -26.6267   20.3914 C   0  0  0  0  0  0  0  0  0  0  0  0
  -26.8167  -25.0389   19.9403 C   0  0  0  0  0  0  0  0  0  1  0  0
  -22.6230  -29.8351   23.9459 C   0  0  1  0  0  0  0  0  0  0  0  0
  -19.9296  -28.1241   21.8994 C   0  0  2  0  0  0  0  0  0  0  0  0
  -22.1699  -30.2189   25.3828 C   0  0  0  0  0  0  0  0  0  0  0  0
  -25.6678  -11.5515   21.2558 N   0  0  0  0  0  0  0  0  0  0  0  0
  -28.1479  -19.5843   20.5373 N   0  0  0  0  0  0  0  0  0  0  0  0
  -26.4739  -12.4418   20.6527 N   0  0  0  0  0  0  0  0  0  0  0  0
  -24.3722  -30.5395   22.3434 N   0  0  0  0  0  0  0  0  0  0  0  0
  -28.0518  -22.9367   20.3675 N   0  0  0  0  0  0  0  0  0  0  0  0
  -27.0218  -15.8023   22.3820 N   0  0  0  0  0  0  0  0  0  0  0  0
  -27.3521  -13.0698   18.5444 N   0  0  0  0  0  0  0  0  0  0  0  0
  -26.4652   -9.6082   17.2695 N   0  0  0  0  0  0  0  0  0  0  0  0
  -27.1659  -17.3637   20.6203 N   0  0  0  0  0  0  0  0  0  0  0  0
  -27.4914  -32.4277   22.3118 N   0  0  0  0  0  0  0  0  0  0  0  0
  -21.5268  -29.5019   23.0427 N   0  0  0  0  0  0  0  0  0  0  0  0
  -19.9826  -26.8366   21.1508 N   0  3  0  0  0  0  0  0  0  0  0  0
  -24.6862  -11.0155   16.9327 O   0  0  0  0  0  0  0  0  0  0  0  0
  -26.6274  -30.6496   23.5422 O   0  0  0  0  0  0  0  0  0  0  0  0
  -28.2467  -24.0500   18.3332 O   0  0  0  0  0  0  0  0  0  0  0  0
  -23.1561  -32.1139   23.5594 O   0  0  0  0  0  0  0  0  0  0  0  0
  -21.5302  -27.2225   23.4687 O   0  0  0  0  0  0  0  0  0  0  0  0
  -28.0187  -17.8605   22.7197 O   0  0  0  0  0  0  0  0  0  0  0  0
  -21.7582   -6.5252   21.1998 O   0  0  0  0  0  0  0  0  0  0  0  0
  -26.6757  -25.9839   18.8803 O   0  0  0  0  0  0  0  0  0  1  0  0
  -21.1204   -4.8629   26.4184 F   0  0  0  0  0  0  0  0  0  0  0  0
  -22.3802   -3.9382   21.9503 F   0  0  0  0  0  0  0  0  0  0  0  0
  -27.7338  -20.2909   18.0855 S   0  0  0  0  0  0  0  0  0  0  0  0
  1  2  1  0  0  0  0
  1  5  2  0  0  0  0
  2  6  2  0  0  0  0
  3  8  2  0  0  0  0
  3 16  1  0  0  0  0
  4  9  1  0  0  0  0
  4 16  2  0  0  0  0
  5 18  1  0  0  0  0
  6 20  1  0  0  0  0
  7 10  2  0  0  0  0
  7 19  1  0  0  0  0
  8 22  1  0  0  0  0
  9 22  2  0  0  0  0
 10 23  1  0  0  0  0
 11 12  2  0  0  0  0
 11 24  1  0  0  0  0
 12 25  1  0  0  0  0
 13 21  1  0  0  0  0
 13 23  2  0  0  0  0
 14 25  2  0  0  0  0
 14 26  1  0  0  0  0
 15 28  2  0  0  0  0
 15 85  1  0  0  0  0
 16 27  1  0  0  0  0
 17 27  1  0  0  0  0
 17 29  2  0  0  0  0
 17 31  1  0  0  0  0
 18 20  2  0  0  0  0
 18 37  1  0  0  0  0
 19 21  2  0  0  0  0
 19 38  1  0  0  0  0
 20 50  1  0  0  0  0
 21 39  1  0  0  0  0
 22 81  1  0  0  0  0
 23 82  1  0  0  0  0
 24 26  2  0  0  0  0
 24 81  1  0  0  0  0
 25 83  1  0  0  0  0
 26 84  1  0  0  0  0
 27 63  2  0  0  0  0
 28 64  1  0  0  0  0
 28 71  1  0  0  0  0
 29 65  1  0  0  0  0
 29 69  1  0  0  0  0
 30 51  1  0  0  0  0
 30 64  2  0  0  0  0
 30 85  1  0  0  0  0
 31 70  1  0  0  0  0
 31 75  2  0  0  0  0
 32 52  1  0  0  0  0
 32 72  1  0  0  0  0
 32 76  2  0  0  0  0
 33 59  1  0  0  0  0
 33 67  1  0  0  0  0
 33 77  2  0  0  0  0
 34 60  1  0  0  0  0
 34 66  1  0  0  0  0
 34 78  2  0  0  0  0
 35 61  1  0  0  0  0
 35 73  1  0  0  0  0
 35 79  2  0  0  0  0
 36 68  1  0  0  0  0
 36 71  1  0  0  0  0
 36 80  2  0  0  0  0
 37 40  1  0  0  0  0
 38 52  1  0  0  0  0
 39 66  1  0  0  0  0
 40 44  1  0  0  0  0
 41 42  1  0  0  0  0
 41 45  1  0  0  0  0
 42 47  1  0  0  0  0
 43 46  1  0  0  0  0
 43 48  1  0  0  0  0
 44 50  1  0  0  0  0
 45 51  1  0  0  0  0
 46 53  1  0  0  0  0
 47 67  1  0  0  0  0
 48 68  1  0  0  0  0
 49 53  1  0  0  0  0
 49 68  1  0  0  0  0
 50 72  1  0  0  0  0
 51 67  1  0  0  0  0
 52 66  1  0  0  0  0
 53 65  1  0  0  0  0
 54 61  1  0  0  0  0
 55 62  1  0  0  0  0
 56 62  1  0  0  0  0
 57 62  1  0  0  0  0
 58 74  1  0  0  0  0
 59 82  1  0  0  0  0
 60 62  1  0  0  0  0
 60 73  1  0  0  0  0
 61 74  1  0  0  0  0
 63 65  1  0  0  0  0
M  CHG  1  74   1
M  ISO  4  36 100  59 101  71 100  82 101
M  END
> <Batch ID>
0155

> <Smiles>
CNC(C)C(=O)NC(C(=O)N1Cc2cc([101O:1][101CH2:1]C(=O)N3CCCCC3c3nc([100NH:0][100C:0](=O)N4CCCC(n5nc(-c6ccc(Oc7ccc(F)cc7F)cc6)c(C(N)=O)c5N)C4)cs3)ccc2CC1C(=O)NC1CCCc2ccccc21)C(C)(C)C

> <Shape>
0.288

> <Color>
0.115

> <Negative vol penalty>
0.000

$$$$

  -OEChem-04052303363D

 82 90  0     1  0  0  0  0  0999 V2000
  -18.0496  -26.9439   22.3725 C   0  0  0  0  0  0  0  0  0  0  0  0
  -19.1291  -26.1235   22.6842 C   0  0  0  0  0  0  0  0  0  0  0  0
  -23.0279   -9.8281   19.9705 C   0  0  0  0  0  0  0  0  0  0  0  0
  -23.7134   -9.9359   22.2846 C   0  0  0  0  0  0  0  0  0  0  0  0
  -18.2422  -28.3150   22.2081 C   0  0  0  0  0  0  0  0  0  0  0  0
  -20.4020  -26.6736   22.8306 C   0  0  0  0  0  0  0  0  0  0  0  0
  -24.7723  -24.8580   26.7178 C   0  0  0  0  0  0  0  0  0  0  0  0
  -22.2730   -8.6883   20.2472 C   0  0  0  0  0  0  0  0  0  0  0  0
  -22.9585   -8.7962   22.5614 C   0  0  0  0  0  0  0  0  0  0  0  0
  -25.8942  -24.0465   26.5552 C   0  0  0  0  0  0  0  0  0  0  0  0
  -23.2576   -5.4522   22.1619 C   0  0  0  0  0  0  0  0  0  0  0  0
  -23.8466   -4.4590   22.9442 C   0  0  0  0  0  0  0  0  0  0  0  0
  -27.2579  -26.0086   26.2239 C   0  0  0  0  0  0  0  0  0  0  0  0
  -22.0915   -4.7108   24.5854 C   0  0  0  0  0  0  0  0  0  0  0  0
  -23.7482  -10.4519   20.9892 C   0  0  0  0  0  0  0  0  0  0  0  0
  -24.1010  -12.9687   20.7682 C   0  0  0  0  0  0  0  0  0  0  0  0
  -19.5165  -28.8835   22.3621 C   0  0  0  0  0  0  0  0  0  0  0  0
  -24.8830  -26.2527   26.6237 C   0  0  0  0  0  0  0  0  0  0  0  0
  -20.6121  -28.0533   22.6668 C   0  0  0  0  0  0  0  0  0  0  0  0
  -26.1363  -26.8357   26.3882 C   0  0  0  0  0  0  0  0  0  0  0  0
  -22.2383   -8.1723   21.5426 C   0  0  0  0  0  0  0  0  0  0  0  0
  -27.1368  -24.6216   26.3053 C   0  0  0  0  0  0  0  0  0  0  0  0
  -22.0855   -6.0749   22.5913 C   0  0  0  0  0  0  0  0  0  0  0  0
  -23.2636   -4.0882   24.1559 C   0  0  0  0  0  0  0  0  0  0  0  0
  -21.5025   -5.7042   23.8030 C   0  0  0  0  0  0  0  0  0  0  0  0
  -24.5286  -11.6290   20.7038 C   0  0  0  0  0  0  0  0  0  0  0  0
  -31.7104  -18.7672   22.1666 C   0  0  0  0  0  0  0  0  0  0  0  0
  -25.2065  -13.6997   20.4076 C   0  0  0  0  0  0  0  0  0  0  0  0
  -30.5865  -19.1683   22.8580 C   0  0  0  0  0  0  0  0  0  0  0  0
  -30.4788  -16.9786   21.8600 C   0  0  0  0  0  0  0  0  0  0  0  0
  -22.8192  -13.5045   21.1225 C   0  0  0  0  0  0  0  0  0  0  0  0
  -23.6650  -28.4752   24.7051 C   0  0  0  0  0  0  0  0  0  0  0  0
  -29.2474  -22.0619   24.8369 C   0  0  0  0  0  0  0  0  0  0  0  0
  -25.1256  -30.5044   26.7718 C   0  0  0  0  0  0  0  0  0  0  0  0
  -27.5809  -31.0099   29.0876 C   0  0  0  0  0  0  0  0  0  0  0  0
  -30.6673  -14.7438   20.7125 C   0  0  0  0  0  0  0  0  0  0  0  0
  -19.6839  -30.3640   22.1282 C   0  0  0  0  0  0  0  0  0  0  0  0
  -23.6679  -27.1154   26.8281 C   0  0  0  0  0  0  0  0  0  0  0  0
  -26.3121  -28.3288   26.2982 C   0  0  0  0  0  0  0  0  0  0  0  0
  -20.9979  -30.9214   22.6693 C   0  0  0  0  0  0  0  0  0  0  0  0
  -29.6228  -12.2289   18.4188 C   0  0  0  0  0  0  0  0  0  0  0  0
  -22.1639  -30.0230   22.2693 C   0  0  0  0  0  0  0  0  0  0  0  0
  -28.1692  -11.9588   18.8141 C   0  0  0  0  0  0  0  0  0  0  0  0
  -30.4993  -12.5095   19.6381 C   0  0  0  0  0  0  0  0  0  0  0  0
  -28.5509  -13.2974   20.9235 C   0  0  0  0  0  0  0  0  0  0  0  0
  -22.0037  -28.6162   22.8582 C   0  0  1  0  0  0  0  0  0  0  0  0
  -23.8053  -28.4993   26.2009 C   0  0  1  0  0  0  0  0  0  0  0  0
  -27.6161  -13.0735   19.7236 C   0  0  2  0  0  0  0  0  0  0  0  0
  -28.5507  -32.7829   30.5753 C   0  0  0  0  0  0  0  0  0  0  0  0
  -26.4956  -31.7755   24.3598 C   0  0  0  0  0  0  0  0  0  0  0  0
  -28.1170  -32.8511   25.9354 C   0  0  0  0  0  0  0  0  0  0  0  0
  -25.6885  -33.4029   26.0787 C   0  0  0  0  0  0  0  0  0  0  0  0
  -26.9566  -29.4635   31.5325 C   0  0  0  0  0  0  0  0  0  0  0  0
  -29.1459  -20.6828   24.2205 C   0  0  0  0  0  0  0  0  0  0  0  0
  -28.0227  -22.5309   25.5981 C   0  0  0  0  0  0  0  0  0  1  0  0
  -26.4931  -31.1376   26.8617 C   0  0  1  0  0  0  0  0  0  0  0  0
  -27.5496  -31.6432   30.4669 C   0  0  2  0  0  0  0  0  0  0  0  0
  -26.6952  -32.2635   25.8086 C   0  0  0  0  0  0  0  0  0  0  0  0
  -25.8060  -11.5128   20.3314 N   0  0  0  0  0  0  0  0  0  0  0  0
  -31.6507  -17.5117   21.5940 N   0  0  0  0  0  0  0  0  0  0  0  0
  -26.1906  -12.7888   20.1584 N   0  0  0  0  0  0  0  0  0  0  0  0
  -25.0931  -29.1296   26.4988 N   0  0  0  0  0  0  0  0  0  0  0  0
  -29.9154  -13.5791   20.4504 N   0  0  0  0  0  0  0  0  0  0  0  0
  -32.8270  -19.5235   22.0311 N   0  0  0  0  0  0  0  0  0  0  0  0
  -25.4230  -15.0263   20.2823 N   0  0  0  0  0  0  0  0  0  0  0  0
  -21.7943  -12.6127   21.4669 N   0  0  0  0  0  0  0  0  0  0  0  0
  -30.3669  -20.3647   23.5255 N   0  0  0  0  0  0  0  0  0  0  0  0
  -29.9966  -15.7053   21.4677 N   0  0  0  0  0  0  0  0  0  0  0  0
  -22.3639  -28.6110   24.2599 N   0  0  0  0  0  0  0  0  0  0  0  0
  -26.6493  -31.5772   28.2439 N   0  0  0  0  0  0  0  0  0  0  0  0
  -27.8763  -30.6299   31.5097 N   0  3  0  0  0  0  0  0  0  0  0  0
  -22.5848  -14.7368   21.1175 O   0  0  0  0  0  0  0  0  0  0  0  0
  -24.6633  -28.3446   24.0066 O   0  0  0  0  0  0  0  0  0  0  0  0
  -30.2520  -22.7646   24.7333 O   0  0  0  0  0  0  0  0  0  0  0  0
  -24.1234  -31.2025   26.9447 O   0  0  0  0  0  0  0  0  0  0  0  0
  -28.3567  -30.1052   28.7875 O   0  0  0  0  0  0  0  0  0  0  0  0
  -31.8114  -14.8899   20.2746 O   0  0  0  0  0  0  0  0  0  0  0  0
  -21.5015   -7.0603   21.8131 O   0  0  0  0  0  0  0  0  0  0  0  0
  -28.2334  -23.8318   26.1455 O   0  0  0  0  0  0  0  0  0  1  0  0
  -23.8285   -3.1333   24.9063 F   0  0  0  0  0  0  0  0  0  0  0  0
  -20.3759   -6.2979   24.2203 F   0  0  0  0  0  0  0  0  0  0  0  0
  -29.3997  -17.9320   22.7935 S   0  0  0  0  0  0  0  0  0  0  0  0
  1  2  1  0  0  0  0
  1  5  2  0  0  0  0
  2  6  2  0  0  0  0
  3  8  2  0  0  0  0
  3 15  1  0  0  0  0
  4  9  1  0  0  0  0
  4 15  2  0  0  0  0
  5 17  1  0  0  0  0
  6 19  1  0  0  0  0
  7 10  2  0  0  0  0
  7 18  1  0  0  0  0
  8 21  1  0  0  0  0
  9 21  2  0  0  0  0
 10 22  1  0  0  0  0
 11 12  2  0  0  0  0
 11 23  1  0  0  0  0
 12 24  1  0  0  0  0
 13 20  1  0  0  0  0
 13 22  2  0  0  0  0
 14 24  2  0  0  0  0
 14 25  1  0  0  0  0
 15 26  1  0  0  0  0
 16 26  1  0  0  0  0
 16 28  2  0  0  0  0
 16 31  1  0  0  0  0
 17 19  2  0  0  0  0
 17 37  1  0  0  0  0
 18 20  2  0  0  0  0
 18 38  1  0  0  0  0
 19 46  1  0  0  0  0
 20 39  1  0  0  0  0
 21 78  1  0  0  0  0
 22 79  1  0  0  0  0
 23 25  2  0  0  0  0
 23 78  1  0  0  0  0
 24 80  1  0  0  0  0
 25 81  1  0  0  0  0
 26 59  2  0  0  0  0
 27 29  2  0  0  0  0
 27 60  1  0  0  0  0
 27 64  1  0  0  0  0
 28 61  1  0  0  0  0
 28 65  1  0  0  0  0
 29 67  1  0  0  0  0
 29 82  1  0  0  0  0
 30 60  2  0  0  0  0
 30 68  1  0  0  0  0
 30 82  1  0  0  0  0
 31 66  1  0  0  0  0
 31 72  2  0  0  0  0
 32 47  1  0  0  0  0
 32 69  1  0  0  0  0
 32 73  2  0  0  0  0
 33 54  1  0  0  0  0
 33 55  1  0  0  0  0
 33 74  2  0  0  0  0
 34 56  1  0  0  0  0
 34 62  1  0  0  0  0
 34 75  2  0  0  0  0
 35 57  1  0  0  0  0
 35 70  1  0  0  0  0
 35 76  2  0  0  0  0
 36 63  1  0  0  0  0
 36 68  1  0  0  0  0
 36 77  2  0  0  0  0
 37 40  1  0  0  0  0
 38 47  1  0  0  0  0
 39 62  1  0  0  0  0
 40 42  1  0  0  0  0
 41 43  1  0  0  0  0
 41 44  1  0  0  0  0
 42 46  1  0  0  0  0
 43 48  1  0  0  0  0
 44 63  1  0  0  0  0
 45 48  1  0  0  0  0
 45 63  1  0  0  0  0
 46 69  1  0  0  0  0
 47 62  1  0  0  0  0
 48 61  1  0  0  0  0
 49 57  1  0  0  0  0
 50 58  1  0  0  0  0
 51 58  1  0  0  0  0
 52 58  1  0  0  0  0
 53 71  1  0  0  0  0
 54 67  1  0  0  0  0
 55 79  1  0  0  0  0
 56 58  1  0  0  0  0
 56 70  1  0  0  0  0
 57 71  1  0  0  0  0
 59 61  1  0  0  0  0
M  CHG  1  71   1
M  ISO  4  36 100  55 101  68 100  79 101
M  END
> <Batch ID>
0155

> <Smiles>
CNC(C)C(=O)NC(C(=O)N1Cc2cc([101O:1][101CH2:1]C(=O)CNc3sc([100NH:0][100C:0](=O)N4CCCC(n5nc(-c6ccc(Oc7ccc(F)cc7F)cc6)c(C(N)=O)c5N)C4)nc3N)ccc2CC1C(=O)NC1CCCc2ccccc21)C(C)(C)C

> <Shape>
0.299

> <Color>
0.218

> <Negative vol penalty>
0.000

$$$$

  -OEChem-04052303363D

 84 93  0     1  0  0  0  0  0999 V2000
  -27.9823  -33.5444   25.8389 C   0  0  0  0  0  0  0  0  0  0  0  0
  -28.1492  -32.3298   25.1813 C   0  0  0  0  0  0  0  0  0  0  0  0
  -22.7034  -10.3056   20.4384 C   0  0  0  0  0  0  0  0  0  0  0  0
  -24.5391   -9.2234   21.5767 C   0  0  0  0  0  0  0  0  0  0  0  0
  -26.7122  -33.9421   26.2543 C   0  0  0  0  0  0  0  0  0  0  0  0
  -27.0460  -31.5118   24.9397 C   0  0  0  0  0  0  0  0  0  0  0  0
  -27.0052  -29.6455   20.2322 C   0  0  0  0  0  0  0  0  0  0  0  0
  -21.7974   -9.6202   21.2476 C   0  0  0  0  0  0  0  0  0  0  0  0
  -23.6332   -8.5379   22.3860 C   0  0  0  0  0  0  0  0  0  0  0  0
  -27.8518  -28.5702   19.9662 C   0  0  0  0  0  0  0  0  0  0  0  0
  -21.6118   -5.8398   22.1317 C   0  0  0  0  0  0  0  0  0  0  0  0
  -21.8287   -4.4774   22.3376 C   0  0  0  0  0  0  0  0  0  0  0  0
  -25.9873  -27.0556   20.1865 C   0  0  0  0  0  0  0  0  0  0  0  0
  -27.7299  -19.3032   20.6969 C   0  0  0  0  0  0  0  0  0  0  0  0
  -22.0117   -4.8659   24.7151 C   0  0  0  0  0  0  0  0  0  0  0  0
  -25.5516  -18.5959   20.3006 C   0  0  0  0  0  0  0  0  0  0  0  0
  -24.0743  -10.1072   20.6029 C   0  0  0  0  0  0  0  0  0  0  0  0
  -25.1093  -10.7573   18.3637 C   0  0  0  0  0  0  0  0  0  0  0  0
  -25.5916  -33.1330   26.0092 C   0  0  0  0  0  0  0  0  0  0  0  0
  -25.6431  -29.4326   20.4885 C   0  0  0  0  0  0  0  0  0  0  0  0
  -25.7600  -31.8985   25.3534 C   0  0  0  0  0  0  0  0  0  0  0  0
  -25.1250  -28.1301   20.4529 C   0  0  0  0  0  0  0  0  0  0  0  0
  -26.8482  -18.1954   20.5371 C   0  0  0  0  0  0  0  0  0  0  0  0
  -22.2623   -8.7363   22.2215 C   0  0  0  0  0  0  0  0  0  0  0  0
  -27.3435  -27.2748   19.9462 C   0  0  0  0  0  0  0  0  0  0  0  0
  -21.5948   -6.7152   23.2175 C   0  0  0  0  0  0  0  0  0  0  0  0
  -22.0287   -3.9904   23.6293 C   0  0  0  0  0  0  0  0  0  0  0  0
  -21.7948   -6.2283   24.5092 C   0  0  0  0  0  0  0  0  0  0  0  0
  -25.0106  -10.8146   19.7669 C   0  0  0  0  0  0  0  0  0  0  0  0
  -27.0735  -20.5084   20.5762 C   0  0  0  0  0  0  0  0  0  0  0  0
  -26.1469  -11.6035   18.0576 C   0  0  0  0  0  0  0  0  0  0  0  0
  -24.3324  -10.0063   17.4213 C   0  0  0  0  0  0  0  0  0  0  0  0
  -23.7163  -29.9620   22.9605 C   0  0  0  0  0  0  0  0  0  0  0  0
  -21.4232  -28.9908   20.8818 C   0  0  0  0  0  0  0  0  0  0  0  0
  -20.6158  -27.2183   18.0795 C   0  0  0  0  0  0  0  0  0  0  0  0
  -28.5155  -16.3313   20.8401 C   0  0  0  0  0  0  0  0  0  0  0  0
  -24.2455  -33.5833   26.5190 C   0  0  0  0  0  0  0  0  0  0  0  0
  -24.7379  -30.6056   20.7474 C   0  0  0  0  0  0  0  0  0  0  0  0
  -23.6662  -27.8499   20.7015 C   0  0  0  0  0  0  0  0  0  0  0  0
  -23.0741  -32.8316   25.8921 C   0  0  0  0  0  0  0  0  0  0  0  0
  -29.3874  -23.3916   21.7752 C   0  0  0  0  0  0  0  0  0  0  0  0
  -30.2149  -13.3531   19.8811 C   0  0  0  0  0  0  0  0  0  0  0  0
  -23.3440  -31.3303   25.8882 C   0  0  0  0  0  0  0  0  0  0  0  0
  -28.8154  -21.9802   21.6751 C   0  0  0  0  0  0  0  0  0  0  0  0
  -29.0819  -12.3608   19.6094 C   0  0  0  0  0  0  0  0  0  0  0  0
  -29.8007  -23.9315   20.4066 C   0  0  0  0  0  0  0  0  0  0  0  0
  -28.0638  -22.4575   19.2991 C   0  0  0  0  0  0  0  0  0  0  0  0
  -29.8924  -14.2741   21.0565 C   0  0  0  0  0  0  0  0  0  0  0  0
  -27.4738  -13.9846   20.6883 C   0  0  0  0  0  0  0  0  0  0  0  0
  -24.5843  -30.9949   25.0511 C   0  0  1  0  0  0  0  0  0  0  0  0
  -27.6465  -21.9121   20.6794 C   0  0  1  0  0  0  0  0  0  0  0  0
  -23.4679  -30.2252   21.5022 C   0  0  1  0  0  0  0  0  0  0  0  0
  -27.7249  -13.0785   19.4719 C   0  0  2  0  0  0  0  0  0  0  0  0
  -28.6680  -23.8815   19.3567 C   0  0  2  0  0  0  0  0  0  0  0  0
  -29.2533  -24.2306   17.9746 C   0  0  0  0  0  0  0  0  0  0  0  0
  -18.6551  -26.5795   16.6494 C   0  0  0  0  0  0  0  0  0  0  0  0
  -20.5574  -26.9545   22.9828 C   0  0  0  0  0  0  0  0  0  0  0  0
  -19.2842  -25.7531   21.1929 C   0  0  0  0  0  0  0  0  0  0  0  0
  -18.6739  -28.0951   21.7971 C   0  0  0  0  0  0  0  0  0  0  0  0
  -21.7620  -28.5621   15.7047 C   0  0  0  0  0  0  0  0  0  0  0  0
  -27.5799  -24.9230   19.6826 C   0  0  0  0  0  0  0  0  0  1  0  0
  -20.8081  -27.6625   20.5126 C   0  0  1  0  0  0  0  0  0  0  0  0
  -19.7801  -27.5799   16.8649 C   0  0  2  0  0  0  0  0  0  0  0  0
  -19.8588  -27.1211   21.6185 C   0  0  0  0  0  0  0  0  0  0  0  0
  -25.9136  -11.6325   20.3143 N   0  0  0  0  0  0  0  0  0  0  0  0
  -26.5896  -12.0969   19.2496 N   0  0  0  0  0  0  0  0  0  0  0  0
  -22.8227  -29.0293   20.9563 N   0  0  0  0  0  0  0  0  0  0  0  0
  -28.5949  -14.9227   20.8548 N   0  0  0  0  0  0  0  0  0  0  0  0
  -26.7147  -11.9663   16.8878 N   0  0  0  0  0  0  0  0  0  0  0  0
  -24.7633   -8.7180   17.0763 N   0  0  0  0  0  0  0  0  0  0  0  0
  -27.2358  -16.8343   20.6077 N   0  0  0  0  0  0  0  0  0  0  0  0
  -24.2666  -31.0322   23.6396 N   0  0  0  0  0  0  0  0  0  0  0  0
  -20.1667  -27.8558   19.2166 N   0  0  0  0  0  0  0  0  0  0  0  0
  -20.6290  -27.6033   15.6403 N   0  3  0  0  0  0  0  0  0  0  0  0
  -23.2961  -10.4703   16.8882 O   0  0  0  0  0  0  0  0  0  0  0  0
  -23.4285  -28.8693   23.4348 O   0  0  0  0  0  0  0  0  0  0  0  0
  -20.6892  -29.9602   21.0894 O   0  0  0  0  0  0  0  0  0  0  0  0
  -21.5692  -26.4446   18.0256 O   0  0  0  0  0  0  0  0  0  0  0  0
  -29.5142  -17.0393   20.9933 O   0  0  0  0  0  0  0  0  0  0  0  0
  -21.3785   -8.0674   23.0115 O   0  0  0  0  0  0  0  0  0  0  0  0
  -28.1678  -26.2233   19.6874 O   0  0  0  0  0  0  0  0  0  1  0  0
  -22.2355   -2.6819   23.8270 F   0  0  0  0  0  0  0  0  0  0  0  0
  -21.7784   -7.0643   25.5564 F   0  0  0  0  0  0  0  0  0  0  0  0
  -25.4011  -20.3014   20.2719 S   0  0  0  0  0  0  0  0  0  0  0  0
  1  2  1  0  0  0  0
  1  5  2  0  0  0  0
  2  6  2  0  0  0  0
  3  8  2  0  0  0  0
  3 17  1  0  0  0  0
  4  9  1  0  0  0  0
  4 17  2  0  0  0  0
  5 19  1  0  0  0  0
  6 21  1  0  0  0  0
  7 10  2  0  0  0  0
  7 20  1  0  0  0  0
  8 24  1  0  0  0  0
  9 24  2  0  0  0  0
 10 25  1  0  0  0  0
 11 12  2  0  0  0  0
 11 26  1  0  0  0  0
 12 27  1  0  0  0  0
 13 22  1  0  0  0  0
 13 25  2  0  0  0  0
 14 23  1  0  0  0  0
 14 30  2  0  0  0  0
 15 27  2  0  0  0  0
 15 28  1  0  0  0  0
 16 23  2  0  0  0  0
 16 84  1  0  0  0  0
 17 29  1  0  0  0  0
 18 29  1  0  0  0  0
 18 31  2  0  0  0  0
 18 32  1  0  0  0  0
 19 21  2  0  0  0  0
 19 37  1  0  0  0  0
 20 22  2  0  0  0  0
 20 38  1  0  0  0  0
 21 50  1  0  0  0  0
 22 39  1  0  0  0  0
 23 71  1  0  0  0  0
 24 80  1  0  0  0  0
 25 81  1  0  0  0  0
 26 28  2  0  0  0  0
 26 80  1  0  0  0  0
 27 82  1  0  0  0  0
 28 83  1  0  0  0  0
 29 65  2  0  0  0  0
 30 51  1  0  0  0  0
 30 84  1  0  0  0  0
 31 66  1  0  0  0  0
 31 69  1  0  0  0  0
 32 70  1  0  0  0  0
 32 75  2  0  0  0  0
 33 52  1  0  0  0  0
 33 72  1  0  0  0  0
 33 76  2  0  0  0  0
 34 62  1  0  0  0  0
 34 67  1  0  0  0  0
 34 77  2  0  0  0  0
 35 63  1  0  0  0  0
 35 73  1  0  0  0  0
 35 78  2  0  0  0  0
 36 68  1  0  0  0  0
 36 71  1  0  0  0  0
 36 79  2  0  0  0  0
 37 40  1  0  0  0  0
 38 52  1  0  0  0  0
 39 67  1  0  0  0  0
 40 43  1  0  0  0  0
 41 44  1  0  0  0  0
 41 46  1  0  0  0  0
 42 45  1  0  0  0  0
 42 48  1  0  0  0  0
 43 50  1  0  0  0  0
 44 51  1  0  0  0  0
 45 53  1  0  0  0  0
 46 54  1  0  0  0  0
 47 51  1  0  0  0  0
 47 54  1  0  0  0  0
 48 68  1  0  0  0  0
 49 53  1  0  0  0  0
 49 68  1  0  0  0  0
 50 72  1  0  0  0  0
 52 67  1  0  0  0  0
 53 66  1  0  0  0  0
 54 55  1  0  0  0  0
 54 61  1  0  0  0  0
 56 63  1  0  0  0  0
 57 64  1  0  0  0  0
 58 64  1  0  0  0  0
 59 64  1  0  0  0  0
 60 74  1  0  0  0  0
 61 81  1  0  0  0  0
 62 64  1  0  0  0  0
 62 73  1  0  0  0  0
 63 74  1  0  0  0  0
 65 66  1  0  0  0  0
M  CHG  1  74   1
M  ISO  4  36 100  61 101  71 100  81 101
M  END
> <Batch ID>
0155

> <Smiles>
CNC(C)C(=O)NC(C(=O)N1Cc2cc([101O:1][101CH2:1]C3(C)CCCC(c4cc([100NH:0][100C:0](=O)N5CCCC(n6nc(-c7ccc(Oc8ccc(F)cc8F)cc7)c(C(N)=O)c6N)C5)cs4)C3)ccc2CC1C(=O)NC1CCCc2ccccc21)C(C)(C)C

> <Shape>
0.354

> <Color>
0.121

> <Negative vol penalty>
0.000

$$$$

  -OEChem-04052303363D

 88 96  0     1  0  0  0  0  0999 V2000
  -17.9649  -29.5125   25.9974 C   0  0  0  0  0  0  0  0  0  0  0  0
  -19.2870  -29.1144   26.1677 C   0  0  0  0  0  0  0  0  0  0  0  0
  -26.9759   -9.6661   20.7520 C   0  0  0  0  0  0  0  0  0  0  0  0
  -27.5380  -11.0100   22.6794 C   0  0  0  0  0  0  0  0  0  0  0  0
  -28.9758  -21.0980   20.7769 C   0  0  0  0  0  0  0  0  0  0  0  0
  -17.4028  -29.5322   24.7217 C   0  0  0  0  0  0  0  0  0  0  0  0
  -20.0475  -28.7348   25.0623 C   0  0  0  0  0  0  0  0  0  0  0  0
  -26.7727  -28.8746   22.5989 C   0  0  0  0  0  0  0  0  0  0  0  0
  -28.2021  -20.1181   20.1550 C   0  0  0  0  0  0  0  0  0  0  0  0
  -27.9174   -8.7135   21.1416 C   0  0  0  0  0  0  0  0  0  0  0  0
  -28.4795  -10.0574   23.0691 C   0  0  0  0  0  0  0  0  0  0  0  0
  -27.7446  -28.0251   22.0720 C   0  0  0  0  0  0  0  0  0  0  0  0
  -28.1330   -6.1999   23.3929 C   0  0  0  0  0  0  0  0  0  0  0  0
  -27.7552   -4.8581   23.3459 C   0  0  0  0  0  0  0  0  0  0  0  0
  -28.4880  -20.1165   22.9300 C   0  0  0  0  0  0  0  0  0  0  0  0
  -26.6924  -28.1744   19.9064 C   0  0  0  0  0  0  0  0  0  0  0  0
  -29.5382   -4.4109   21.7780 C   0  0  0  0  0  0  0  0  0  0  0  0
  -26.7862  -10.8144   21.5209 C   0  0  0  0  0  0  0  0  0  0  0  0
  -29.1188  -21.0972   22.1645 C   0  0  0  0  0  0  0  0  0  0  0  0
  -24.4547  -11.8488   21.4807 C   0  0  0  0  0  0  0  0  0  0  0  0
  -18.1598  -29.1619   23.5989 C   0  0  0  0  0  0  0  0  0  0  0  0
  -25.7454  -29.3724   21.7846 C   0  0  0  0  0  0  0  0  0  0  0  0
  -19.4946  -28.7484   23.7704 C   0  0  0  0  0  0  0  0  0  0  0  0
  -25.7101  -29.0321   20.4248 C   0  0  0  0  0  0  0  0  0  0  0  0
  -27.5712  -19.1375   20.9205 C   0  0  0  0  0  0  0  0  0  0  0  0
  -28.6692   -8.9091   22.3001 C   0  0  0  0  0  0  0  0  0  0  0  0
  -27.7029  -27.6726   20.7262 C   0  0  0  0  0  0  0  0  0  0  0  0
  -29.2134   -6.6473   22.6324 C   0  0  0  0  0  0  0  0  0  0  0  0
  -28.4577   -3.9635   22.5385 C   0  0  0  0  0  0  0  0  0  0  0  0
  -27.7142  -19.1367   22.3081 C   0  0  0  0  0  0  0  0  0  0  0  0
  -29.9160   -5.7528   21.8250 C   0  0  0  0  0  0  0  0  0  0  0  0
  -25.8142  -11.7990   21.1187 C   0  0  0  0  0  0  0  0  0  0  0  0
  -23.9706  -12.9655   20.8442 C   0  0  0  0  0  0  0  0  0  0  0  0
  -29.9405  -22.1381   22.8250 C   0  0  0  0  0  0  0  0  0  0  0  0
  -23.6972  -10.9647   22.3174 C   0  0  0  0  0  0  0  0  0  0  0  0
  -22.5766  -29.1225   21.7669 C   0  0  0  0  0  0  0  0  0  0  0  0
  -30.6388  -25.4716   20.3681 C   0  0  0  0  0  0  0  0  0  0  0  0
  -22.8089  -31.2859   19.3610 C   0  0  0  0  0  0  0  0  0  0  0  0
  -24.7047  -32.6737   16.8857 C   0  0  0  0  0  0  0  0  0  0  0  0
  -26.5423  -18.0042   18.9197 C   0  0  0  0  0  0  0  0  0  0  0  0
  -17.4945  -29.1540   22.2454 C   0  0  0  0  0  0  0  0  0  0  0  0
  -24.7199  -30.3090   22.3622 C   0  0  0  0  0  0  0  0  0  0  0  0
  -24.6398  -29.5558   19.5037 C   0  0  0  0  0  0  0  0  0  0  0  0
  -18.4812  -29.0954   21.0821 C   0  0  0  0  0  0  0  0  0  0  0  0
  -24.6964  -15.6730   16.9613 C   0  0  0  0  0  0  0  0  0  0  0  0
  -19.5430  -28.0300   21.3358 C   0  0  0  0  0  0  0  0  0  0  0  0
  -24.6446  -14.4215   17.8407 C   0  0  0  0  0  0  0  0  0  0  0  0
  -26.0328  -16.4018   17.0901 C   0  0  0  0  0  0  0  0  0  0  0  0
  -26.3825  -15.4725   19.3447 C   0  0  0  0  0  0  0  0  0  0  0  0
  -20.3593  -28.3531   22.5931 C   0  0  1  0  0  0  0  0  0  0  0  0
  -23.4240  -30.3456   21.5581 C   0  0  1  0  0  0  0  0  0  0  0  0
  -25.0313  -14.7405   19.2982 C   0  0  2  0  0  0  0  0  0  0  0  0
  -24.6092  -34.3940   15.0612 C   0  0  0  0  0  0  0  0  0  0  0  0
  -32.6593  -23.9784   20.2374 C   0  0  0  0  0  0  0  0  0  0  0  0
  -32.7396  -26.0177   21.6677 C   0  0  0  0  0  0  0  0  0  0  0  0
  -21.1435  -29.3812   17.6556 C   0  0  0  0  0  0  0  0  0  0  0  0
  -21.8766  -30.6621   15.6332 C   0  0  0  0  0  0  0  0  0  0  0  0
  -20.5434  -31.7966   17.4104 C   0  0  0  0  0  0  0  0  0  0  0  0
  -26.8987  -34.2482   18.0965 C   0  0  0  0  0  0  0  0  0  0  0  0
  -29.6574  -26.3711   21.1031 C   0  0  0  0  0  0  0  0  0  1  0  0
  -31.2964  -24.0822   22.3620 C   0  0  0  0  0  0  0  0  0  0  0  0
  -22.9597  -31.2047   17.8611 C   0  0  1  0  0  0  0  0  0  0  0  0
  -24.9715  -34.1208   16.5127 C   0  0  2  0  0  0  0  0  0  0  0  0
  -31.8289  -24.8882   21.1633 C   0  0  0  0  0  0  0  0  0  0  0  0
  -21.6500  -30.7496   17.1576 C   0  0  0  0  0  0  0  0  0  0  0  0
  -26.1709  -12.8041   20.3145 N   0  0  0  0  0  0  0  0  0  0  0  0
  -30.1151  -22.1965   24.1031 N   0  0  0  0  0  0  0  0  0  0  0  0
  -25.0283  -13.4959   20.1659 N   0  0  0  0  0  0  0  0  0  0  0  0
  -23.6561  -30.4634   20.1171 N   0  0  0  0  0  0  0  0  0  0  0  0
  -26.3311  -16.6745   18.4977 N   0  0  0  0  0  0  0  0  0  0  0  0
  -22.7477  -13.5357   20.8042 N   0  0  0  0  0  0  0  0  0  0  0  0
  -24.3501   -9.8658   22.8923 N   0  0  0  0  0  0  0  0  0  0  0  0
  -26.7854  -18.1439   20.2857 N   0  0  0  0  0  0  0  0  0  0  0  0
  -21.3341  -29.3852   22.3114 N   0  0  0  0  0  0  0  0  0  0  0  0
  -23.4479  -32.5097   17.4287 N   0  0  0  0  0  0  0  0  0  0  0  0
  -26.4122  -34.4487   16.7072 N   0  3  0  0  0  0  0  0  0  0  0  0
  -22.4736  -11.1347   22.5353 O   0  0  0  0  0  0  0  0  0  0  0  0
  -23.0169  -28.0221   21.4555 O   0  0  0  0  0  0  0  0  0  0  0  0
  -30.4619  -25.1948   19.1792 O   0  0  0  0  0  0  0  0  0  0  0  0
  -21.9753  -32.0561   19.8441 O   0  0  0  0  0  0  0  0  0  0  0  0
  -25.5273  -31.7778   16.7094 O   0  0  0  0  0  0  0  0  0  0  0  0
  -26.4828  -18.9521   18.1324 O   0  0  0  0  0  0  0  0  0  0  0  0
  -29.5878   -7.9797   22.6807 O   0  0  0  0  0  0  0  0  0  0  0  0
  -28.6499  -26.8432   20.2095 O   0  0  0  0  0  0  0  0  0  1  0  0
  -30.4738  -23.0079   21.9214 O   0  0  0  0  0  0  0  0  0  0  0  0
  -28.0958   -2.6747   22.4946 F   0  0  0  0  0  0  0  0  0  0  0  0
  -27.1121  -18.1994   23.0543 F   0  0  0  0  0  0  0  0  0  0  0  0
  -30.9555   -6.1765   21.0931 F   0  0  0  0  0  0  0  0  0  0  0  0
  1  2  1  0  0  0  0
  1  6  2  0  0  0  0
  2  7  2  0  0  0  0
  3 10  2  0  0  0  0
  3 18  1  0  0  0  0
  4 11  1  0  0  0  0
  4 18  2  0  0  0  0
  5  9  2  0  0  0  0
  5 19  1  0  0  0  0
  6 21  1  0  0  0  0
  7 23  1  0  0  0  0
  8 12  2  0  0  0  0
  8 22  1  0  0  0  0
  9 25  1  0  0  0  0
 10 26  1  0  0  0  0
 11 26  2  0  0  0  0
 12 27  1  0  0  0  0
 13 14  2  0  0  0  0
 13 28  1  0  0  0  0
 14 29  1  0  0  0  0
 15 19  2  0  0  0  0
 15 30  1  0  0  0  0
 16 24  1  0  0  0  0
 16 27  2  0  0  0  0
 17 29  2  0  0  0  0
 17 31  1  0  0  0  0
 18 32  1  0  0  0  0
 19 34  1  0  0  0  0
 20 32  1  0  0  0  0
 20 33  2  0  0  0  0
 20 35  1  0  0  0  0
 21 23  2  0  0  0  0
 21 41  1  0  0  0  0
 22 24  2  0  0  0  0
 22 42  1  0  0  0  0
 23 50  1  0  0  0  0
 24 43  1  0  0  0  0
 25 30  2  0  0  0  0
 25 73  1  0  0  0  0
 26 83  1  0  0  0  0
 27 84  1  0  0  0  0
 28 31  2  0  0  0  0
 28 83  1  0  0  0  0
 29 86  1  0  0  0  0
 30 87  1  0  0  0  0
 31 88  1  0  0  0  0
 32 66  2  0  0  0  0
 33 68  1  0  0  0  0
 33 71  1  0  0  0  0
 34 67  2  0  0  0  0
 34 85  1  0  0  0  0
 35 72  1  0  0  0  0
 35 77  2  0  0  0  0
 36 51  1  0  0  0  0
 36 74  1  0  0  0  0
 36 78  2  0  0  0  0
 37 60  1  0  0  0  0
 37 64  1  0  0  0  0
 37 79  2  0  0  0  0
 38 62  1  0  0  0  0
 38 69  1  0  0  0  0
 38 80  2  0  0  0  0
 39 63  1  0  0  0  0
 39 75  1  0  0  0  0
 39 81  2  0  0  0  0
 40 70  1  0  0  0  0
 40 73  1  0  0  0  0
 40 82  2  0  0  0  0
 41 44  1  0  0  0  0
 42 51  1  0  0  0  0
 43 69  1  0  0  0  0
 44 46  1  0  0  0  0
 45 47  1  0  0  0  0
 45 48  1  0  0  0  0
 46 50  1  0  0  0  0
 47 52  1  0  0  0  0
 48 70  1  0  0  0  0
 49 52  1  0  0  0  0
 49 70  1  0  0  0  0
 50 74  1  0  0  0  0
 51 69  1  0  0  0  0
 52 68  1  0  0  0  0
 53 63  1  0  0  0  0
 54 64  1  0  0  0  0
 55 64  1  0  0  0  0
 56 65  1  0  0  0  0
 57 65  1  0  0  0  0
 58 65  1  0  0  0  0
 59 76  1  0  0  0  0
 60 84  1  0  0  0  0
 61 64  1  0  0  0  0
 61 85  1  0  0  0  0
 62 65  1  0  0  0  0
 62 75  1  0  0  0  0
 63 76  1  0  0  0  0
 66 68  1  0  0  0  0
M  CHG  1  76   1
M  ISO  4  40 100  60 101  73 100  84 101
M  END
> <Batch ID>
0155

> <Smiles>
CNC(C)C(=O)NC(C(=O)N1Cc2cc([101O:1][101CH2:1]C(=O)C(C)(C)COC(=N)c3ccc([100NH:0][100C:0](=O)N4CCCC(n5nc(-c6ccc(Oc7ccc(F)cc7F)cc6)c(C(N)=O)c5N)C4)c(F)c3)ccc2CC1C(=O)NC1CCCc2ccccc21)C(C)(C)C

> <Shape>
0.203

> <Color>
0.112

> <Negative vol penalty>
0.000

$$$$

  -OEChem-04052303363D

 85 94  0     1  0  0  0  0  0999 V2000
  -28.5942  -38.3068   19.4774 C   0  0  0  0  0  0  0  0  0  0  0  0
  -29.0076  -36.9856   19.3396 C   0  0  0  0  0  0  0  0  0  0  0  0
  -24.4190   -8.8892   21.4268 C   0  0  0  0  0  0  0  0  0  0  0  0
  -24.6726  -10.1012   23.5014 C   0  0  0  0  0  0  0  0  0  0  0  0
  -29.1954  -20.6939   21.3633 C   0  0  0  0  0  0  0  0  0  0  0  0
  -26.7880  -20.6205   21.5541 C   0  0  0  0  0  0  0  0  0  0  0  0
  -27.6606  -38.6454   20.4560 C   0  0  0  0  0  0  0  0  0  0  0  0
  -28.4883  -36.0023   20.1810 C   0  0  0  0  0  0  0  0  0  0  0  0
  -27.3086  -30.1688   18.7373 C   0  0  0  0  0  0  0  0  0  0  0  0
  -29.2003  -19.3727   20.9163 C   0  0  0  0  0  0  0  0  0  0  0  0
  -26.7929  -19.2992   21.1070 C   0  0  0  0  0  0  0  0  0  0  0  0
  -24.1816   -7.7152   22.1416 C   0  0  0  0  0  0  0  0  0  0  0  0
  -24.4352   -8.9272   24.2162 C   0  0  0  0  0  0  0  0  0  0  0  0
  -28.0241  -28.9894   18.9392 C   0  0  0  0  0  0  0  0  0  0  0  0
  -21.6078   -6.2918   23.8096 C   0  0  0  0  0  0  0  0  0  0  0  0
  -20.5488   -5.4838   23.3958 C   0  0  0  0  0  0  0  0  0  0  0  0
  -26.7449  -28.5629   20.9394 C   0  0  0  0  0  0  0  0  0  0  0  0
  -22.0893   -3.6635   23.0077 C   0  0  0  0  0  0  0  0  0  0  0  0
  -24.6646  -10.0822   22.1067 C   0  0  0  0  0  0  0  0  0  0  0  0
  -27.9892  -21.3178   21.6823 C   0  0  0  0  0  0  0  0  0  0  0  0
  -23.9561  -12.2354   20.9364 C   0  0  0  0  0  0  0  0  0  0  0  0
  -27.1223  -37.6642   21.3034 C   0  0  0  0  0  0  0  0  0  0  0  0
  -26.3116  -30.5603   19.6424 C   0  0  0  0  0  0  0  0  0  0  0  0
  -27.5476  -36.3284   21.1727 C   0  0  0  0  0  0  0  0  0  0  0  0
  -26.0164  -29.7464   20.7453 C   0  0  0  0  0  0  0  0  0  0  0  0
  -27.9991  -18.6753   20.7881 C   0  0  0  0  0  0  0  0  0  0  0  0
  -24.1897   -7.7342   23.5364 C   0  0  0  0  0  0  0  0  0  0  0  0
  -27.7443  -28.1877   20.0420 C   0  0  0  0  0  0  0  0  0  0  0  0
  -22.9076   -5.7857   23.8224 C   0  0  0  0  0  0  0  0  0  0  0  0
  -20.7896   -4.1696   22.9949 C   0  0  0  0  0  0  0  0  0  0  0  0
  -23.1484   -4.4716   23.4215 C   0  0  0  0  0  0  0  0  0  0  0  0
  -24.9105  -11.2951   21.3688 C   0  0  0  0  0  0  0  0  0  0  0  0
  -24.6911  -13.1963   20.2861 C   0  0  0  0  0  0  0  0  0  0  0  0
  -27.8650  -25.1023   21.5772 C   0  0  0  0  0  0  0  0  0  0  0  0
  -27.9839  -22.7139   22.1548 C   0  0  0  0  0  0  0  0  0  0  0  0
  -22.5326  -12.2397   21.1073 C   0  0  0  0  0  0  0  0  0  0  0  0
  -25.8831  -33.0532   21.5673 C   0  0  0  0  0  0  0  0  0  0  0  0
  -22.9894  -31.6749   22.0669 C   0  0  0  0  0  0  0  0  0  0  0  0
  -21.0837  -28.8441   22.0307 C   0  0  0  0  0  0  0  0  0  0  0  0
  -29.1124  -16.5666   19.9755 C   0  0  0  0  0  0  0  0  0  0  0  0
  -26.1512  -38.0860   22.3775 C   0  0  0  0  0  0  0  0  0  0  0  0
  -25.5305  -31.8219   19.3958 C   0  0  0  0  0  0  0  0  0  0  0  0
  -24.9418  -30.1117   21.7354 C   0  0  0  0  0  0  0  0  0  0  0  0
  -25.3688  -36.9230   22.9822 C   0  0  0  0  0  0  0  0  0  0  0  0
  -29.5433  -13.2181   18.8448 C   0  0  0  0  0  0  0  0  0  0  0  0
  -26.3048  -35.7651   23.3137 C   0  0  0  0  0  0  0  0  0  0  0  0
  -28.2979  -12.4966   19.3651 C   0  0  0  0  0  0  0  0  0  0  0  0
  -28.2037  -24.8151   19.2555 C   0  0  0  0  0  0  0  0  0  0  0  0
  -30.0455  -14.2678   19.8344 C   0  0  0  0  0  0  0  0  0  0  0  0
  -27.7814  -23.4663   19.8260 C   0  0  0  0  0  0  0  0  0  0  0  0
  -27.7907  -14.5178   20.7949 C   0  0  0  0  0  0  0  0  0  0  0  0
  -26.9887  -35.2293   22.0501 C   0  0  1  0  0  0  0  0  0  0  0  0
  -27.7064  -25.8413   20.2728 C   0  0  2  0  0  0  0  0  0  1  0  0
  -24.8891  -32.3843   20.6606 C   0  0  1  0  0  0  0  0  0  0  0  0
  -27.2097  -13.4961   19.8039 C   0  0  2  0  0  0  0  0  0  0  0  0
  -18.7644  -28.0243   22.5265 C   0  0  0  0  0  0  0  0  0  0  0  0
  -23.5904  -31.7901   25.0562 C   0  0  0  0  0  0  0  0  0  0  0  0
  -21.7392  -30.1444   25.4209 C   0  0  0  0  0  0  0  0  0  0  0  0
  -21.2401  -32.3834   24.4410 C   0  0  0  0  0  0  0  0  0  0  0  0
  -20.6662  -27.9784   19.2316 C   0  0  0  0  0  0  0  0  0  0  0  0
  -22.4435  -30.6574   23.0393 C   0  0  1  0  0  0  0  0  0  0  0  0
  -19.7046  -28.5654   21.4608 C   0  0  2  0  0  0  0  0  0  0  0  0
  -22.2749  -31.2376   24.4719 C   0  0  0  0  0  0  0  0  0  0  0  0
  -26.1566  -11.6285   21.0223 N   0  0  0  0  0  0  0  0  0  0  0  0
  -25.9903  -12.7890   20.3652 N   0  0  0  0  0  0  0  0  0  0  0  0
  -27.8843  -23.6958   21.2768 N   0  0  0  0  0  0  0  0  0  0  0  0
  -24.2102  -31.3580   21.4544 N   0  0  0  0  0  0  0  0  0  0  0  0
  -28.9618  -15.1820   20.2015 N   0  0  0  0  0  0  0  0  0  0  0  0
  -24.3462  -14.3416   19.6600 N   0  0  0  0  0  0  0  0  0  0  0  0
  -21.9396  -11.1757   21.8005 N   0  0  0  0  0  0  0  0  0  0  0  0
  -28.0040  -17.3331   20.3339 N   0  0  0  0  0  0  0  0  0  0  0  0
  -26.0771  -34.3945   21.2974 N   0  0  0  0  0  0  0  0  0  0  0  0
  -21.2083  -30.1516   22.4503 N   0  0  0  0  0  0  0  0  0  0  0  0
  -28.0776  -22.9630   23.4577 N   0  3  0  0  0  0  0  0  0  0  0  0
  -19.7917  -27.5654   20.3592 N   0  3  0  0  0  0  0  0  0  0  0  0
  -27.9580  -25.5575   22.7025 O   0  0  0  0  0  0  0  0  0  0  0  0
  -21.8062  -13.1516   20.6443 O   0  0  0  0  0  0  0  0  0  0  0  0
  -26.4321  -32.4011   22.4477 O   0  0  0  0  0  0  0  0  0  0  0  0
  -22.3525  -32.7095   21.8531 O   0  0  0  0  0  0  0  0  0  0  0  0
  -21.9614  -27.9865   22.1004 O   0  0  0  0  0  0  0  0  0  0  0  0
  -30.1378  -17.0346   19.4740 O   0  0  0  0  0  0  0  0  0  0  0  0
  -23.9578   -6.5889   24.2342 O   0  0  0  0  0  0  0  0  0  0  0  0
  -28.4417  -27.0364   20.2418 O   0  0  0  0  0  0  0  0  0  1  0  0
  -19.7723   -3.3933   22.5990 F   0  0  0  0  0  0  0  0  0  0  0  0
  -24.3947   -3.9794   23.4328 F   0  0  0  0  0  0  0  0  0  0  0  0
  1  2  1  0  0  0  0
  1  7  2  0  0  0  0
  2  8  2  0  0  0  0
  3 12  2  0  0  0  0
  3 19  1  0  0  0  0
  4 13  1  0  0  0  0
  4 19  2  0  0  0  0
  5 10  2  0  0  0  0
  5 20  1  0  0  0  0
  6 11  1  0  0  0  0
  6 20  2  0  0  0  0
  7 22  1  0  0  0  0
  8 24  1  0  0  0  0
  9 14  2  0  0  0  0
  9 23  1  0  0  0  0
 10 26  1  0  0  0  0
 11 26  2  0  0  0  0
 12 27  1  0  0  0  0
 13 27  2  0  0  0  0
 14 28  1  0  0  0  0
 15 16  2  0  0  0  0
 15 29  1  0  0  0  0
 16 30  1  0  0  0  0
 17 25  1  0  0  0  0
 17 28  2  0  0  0  0
 18 30  2  0  0  0  0
 18 31  1  0  0  0  0
 19 32  1  0  0  0  0
 20 35  1  0  0  0  0
 21 32  1  0  0  0  0
 21 33  2  0  0  0  0
 21 36  1  0  0  0  0
 22 24  2  0  0  0  0
 22 41  1  0  0  0  0
 23 25  2  0  0  0  0
 23 42  1  0  0  0  0
 24 52  1  0  0  0  0
 25 43  1  0  0  0  0
 26 71  1  0  0  0  0
 27 82  1  0  0  0  0
 28 83  1  0  0  0  0
 29 31  2  0  0  0  0
 29 82  1  0  0  0  0
 30 84  1  0  0  0  0
 31 85  1  0  0  0  0
 32 64  2  0  0  0  0
 33 65  1  0  0  0  0
 33 69  1  0  0  0  0
 34 53  1  0  0  0  0
 34 66  1  0  0  0  0
 34 76  2  0  0  0  0
 35 66  1  0  0  0  0
 35 74  2  0  0  0  0
 36 70  1  0  0  0  0
 36 77  2  0  0  0  0
 37 54  1  0  0  0  0
 37 72  1  0  0  0  0
 37 78  2  0  0  0  0
 38 61  1  0  0  0  0
 38 67  1  0  0  0  0
 38 79  2  0  0  0  0
 39 62  1  0  0  0  0
 39 73  1  0  0  0  0
 39 80  2  0  0  0  0
 40 68  1  0  0  0  0
 40 71  1  0  0  0  0
 40 81  2  0  0  0  0
 41 44  1  0  0  0  0
 42 54  1  0  0  0  0
 43 67  1  0  0  0  0
 44 46  1  0  0  0  0
 45 47  1  0  0  0  0
 45 49  1  0  0  0  0
 46 52  1  0  0  0  0
 47 55  1  0  0  0  0
 48 50  1  0  0  0  0
 48 53  1  0  0  0  0
 49 68  1  0  0  0  0
 50 66  1  0  0  0  0
 51 55  1  0  0  0  0
 51 68  1  0  0  0  0
 52 72  1  0  0  0  0
 53 83  1  0  0  0  0
 54 67  1  0  0  0  0
 55 65  1  0  0  0  0
 56 62  1  0  0  0  0
 57 63  1  0  0  0  0
 58 63  1  0  0  0  0
 59 63  1  0  0  0  0
 60 75  1  0  0  0  0
 61 63  1  0  0  0  0
 61 73  1  0  0  0  0
 62 75  1  0  0  0  0
 64 65  1  0  0  0  0
M  CHG  2  74   1  75   1
M  ISO  4  40 100  53 101  71 100  83 101
M  END
> <Batch ID>
0155

> <Smiles>
CNC(C)C(=O)NC(C(=O)N1Cc2cc([101O:1][101CH:1]3CCN(C(=N)c4ccc([100NH:0][100C:0](=O)N5CCCC(n6nc(-c7ccc(Oc8ccc(F)cc8F)cc7)c(C(N)=O)c6N)C5)cc4)C3=O)ccc2CC1C(=O)NC1CCCc2ccccc21)C(C)(C)C

> <Shape>
0.297

> <Color>
0.103

> <Negative vol penalty>
0.000

$$$$

  -OEChem-04052303363D

 84 93  0     1  0  0  0  0  0999 V2000
  -23.9703  -29.1124   28.0317 C   0  0  0  0  0  0  0  0  0  0  0  0
  -24.2179  -28.1635   27.0449 C   0  0  0  0  0  0  0  0  0  0  0  0
  -22.9955   -9.9121   19.9994 C   0  0  0  0  0  0  0  0  0  0  0  0
  -23.6211  -10.0411   22.3295 C   0  0  0  0  0  0  0  0  0  0  0  0
  -23.1969  -30.2350   27.7394 C   0  0  0  0  0  0  0  0  0  0  0  0
  -23.6912  -28.3362   25.7654 C   0  0  0  0  0  0  0  0  0  0  0  0
  -27.0731  -27.3609   22.1245 C   0  0  0  0  0  0  0  0  0  0  0  0
  -22.1975   -8.8018   20.2751 C   0  0  0  0  0  0  0  0  0  0  0  0
  -22.8230   -8.9308   22.6052 C   0  0  0  0  0  0  0  0  0  0  0  0
  -27.3253  -26.0212   21.8320 C   0  0  0  0  0  0  0  0  0  0  0  0
  -23.0262   -5.5724   22.2730 C   0  0  0  0  0  0  0  0  0  0  0  0
  -23.5619   -4.5758   23.0887 C   0  0  0  0  0  0  0  0  0  0  0  0
  -25.8615  -26.1693   19.9203 C   0  0  0  0  0  0  0  0  0  0  0  0
  -28.8714  -18.9211   20.7572 C   0  0  0  0  0  0  0  0  0  0  0  0
  -21.7719   -4.9127   24.6759 C   0  0  0  0  0  0  0  0  0  0  0  0
  -23.7074  -10.5317   21.0266 C   0  0  0  0  0  0  0  0  0  0  0  0
  -24.1461  -13.0317   20.7713 C   0  0  0  0  0  0  0  0  0  0  0  0
  -22.6684  -30.4263   26.4530 C   0  0  0  0  0  0  0  0  0  0  0  0
  -26.2032  -28.1130   21.3220 C   0  0  0  0  0  0  0  0  0  0  0  0
  -22.9088  -29.4617   25.4560 C   0  0  0  0  0  0  0  0  0  0  0  0
  -25.6019  -27.5189   20.2032 C   0  0  0  0  0  0  0  0  0  0  0  0
  -29.5024  -17.7051   21.0906 C   0  0  0  0  0  0  0  0  0  0  0  0
  -22.1112   -8.3112   21.5780 C   0  0  0  0  0  0  0  0  0  0  0  0
  -26.7173  -25.4244   20.7315 C   0  0  0  0  0  0  0  0  0  0  0  0
  -21.8634   -6.2393   22.6588 C   0  0  0  0  0  0  0  0  0  0  0  0
  -22.9347   -4.2459   24.2901 C   0  0  0  0  0  0  0  0  0  0  0  0
  -21.2362   -5.9094   23.8602 C   0  0  0  0  0  0  0  0  0  0  0  0
  -24.5324  -11.6783   20.7423 C   0  0  0  0  0  0  0  0  0  0  0  0
  -30.2883  -17.8096   22.2022 C   0  0  0  0  0  0  0  0  0  0  0  0
  -25.2836  -13.7209   20.4286 C   0  0  0  0  0  0  0  0  0  0  0  0
  -29.2203  -19.9136   21.6578 C   0  0  0  0  0  0  0  0  0  0  0  0
  -22.8728  -13.6139   21.0804 C   0  0  0  0  0  0  0  0  0  0  0  0
  -23.4476  -29.6224   21.8040 C   0  0  0  0  0  0  0  0  0  0  0  0
  -23.9159  -30.6326   18.7573 C   0  0  0  0  0  0  0  0  0  0  0  0
  -27.9862  -21.9601   20.8687 C   0  0  0  0  0  0  0  0  0  0  0  0
  -25.3847  -30.1027   15.7227 C   0  0  0  0  0  0  0  0  0  0  0  0
  -30.8290  -14.2918   21.3608 C   0  0  0  0  0  0  0  0  0  0  0  0
  -21.7989  -31.6318   26.1974 C   0  0  0  0  0  0  0  0  0  0  0  0
  -25.9624  -29.5643   21.6354 C   0  0  0  0  0  0  0  0  0  0  0  0
  -24.6759  -28.2885   19.2984 C   0  0  0  0  0  0  0  0  0  0  0  0
  -29.5117  -16.3373   20.5443 C   0  0  0  0  0  0  0  0  0  0  0  0
  -21.5898  -31.9286   24.7147 C   0  0  0  0  0  0  0  0  0  0  0  0
  -29.7073  -12.0998   18.5897 C   0  0  0  0  0  0  0  0  0  0  0  0
  -21.2384  -30.6510   23.9589 C   0  0  0  0  0  0  0  0  0  0  0  0
  -28.2399  -11.8619   18.9516 C   0  0  0  0  0  0  0  0  0  0  0  0
  -30.5603  -12.3817   19.8236 C   0  0  0  0  0  0  0  0  0  0  0  0
  -28.5921  -13.2230   21.0447 C   0  0  0  0  0  0  0  0  0  0  0  0
  -22.3755  -29.6261   24.0493 C   0  0  1  0  0  0  0  0  0  0  0  0
  -24.6577  -30.0939   21.0483 C   0  0  1  0  0  0  0  0  0  0  0  0
  -27.6893  -13.0069   19.8229 C   0  0  2  0  0  0  0  0  0  0  0  0
  -30.9868  -16.5395   22.5736 C   0  0  0  0  0  0  0  0  0  0  0  0
  -32.5055  -16.7051   22.4277 C   0  0  0  0  0  0  0  0  0  0  0  0
  -30.5976  -16.0636   23.9746 C   0  0  0  0  0  0  0  0  0  0  0  0
  -25.5512  -31.0797   13.4173 C   0  0  0  0  0  0  0  0  0  0  0  0
  -21.1264  -29.5781   18.1117 C   0  0  0  0  0  0  0  0  0  0  0  0
  -21.7168  -29.7046   15.6819 C   0  0  0  0  0  0  0  0  0  0  0  0
  -21.6773  -31.7811   17.0638 C   0  0  0  0  0  0  0  0  0  0  0  0
  -28.3095  -30.4824   15.9689 C   0  0  0  0  0  0  0  0  0  0  0  0
  -27.8435  -23.4082   21.2991 C   0  0  0  0  0  0  0  0  0  1  0  0
  -23.5472  -30.1110   17.3894 C   0  0  1  0  0  0  0  0  0  0  0  0
  -26.1666  -31.0271   14.8070 C   0  0  2  0  0  0  0  0  0  0  0  0
  -22.0328  -30.2784   17.0797 C   0  0  0  0  0  0  0  0  0  0  0  0
  -25.8151  -11.5153   20.4075 N   0  0  0  0  0  0  0  0  0  0  0  0
  -26.2446  -12.7752   20.2228 N   0  0  0  0  0  0  0  0  0  0  0  0
  -24.4672  -29.7027   19.6502 N   0  0  0  0  0  0  0  0  0  0  0  0
  -30.4027  -15.6219   21.5152 N   0  0  0  0  0  0  0  0  0  0  0  0
  -29.9786  -13.4526   20.6286 N   0  0  0  0  0  0  0  0  0  0  0  0
  -25.5456  -15.0375   20.2861 N   0  0  0  0  0  0  0  0  0  0  0  0
  -21.8110  -12.7612   21.4119 N   0  0  0  0  0  0  0  0  0  0  0  0
  -28.8515  -21.2288   21.7250 N   0  0  0  0  0  0  0  0  0  0  0  0
  -23.4452  -29.9765   23.1397 N   0  0  0  0  0  0  0  0  0  0  0  0
  -24.4289  -30.7867   16.4436 N   0  0  0  0  0  0  0  0  0  0  0  0
  -27.5759  -30.5594   14.6794 N   0  3  0  0  0  0  0  0  0  0  0  0
  -22.6780  -14.8526   21.0472 O   0  0  0  0  0  0  0  0  0  0  0  0
  -22.5797  -28.9859   21.2183 O   0  0  0  0  0  0  0  0  0  0  0  0
  -23.7284  -31.8229   19.0213 O   0  0  0  0  0  0  0  0  0  0  0  0
  -27.3993  -21.5214   19.8850 O   0  0  0  0  0  0  0  0  0  0  0  0
  -25.5979  -28.8941   15.7890 O   0  0  0  0  0  0  0  0  0  0  0  0
  -31.9097  -13.8797   21.7952 O   0  0  0  0  0  0  0  0  0  0  0  0
  -21.3324   -7.2280   21.8475 O   0  0  0  0  0  0  0  0  0  0  0  0
  -26.9638  -24.1033   20.4412 O   0  0  0  0  0  0  0  0  0  1  0  0
  -23.4484   -3.2878   25.0726 F   0  0  0  0  0  0  0  0  0  0  0  0
  -20.1182   -6.5458   24.2356 F   0  0  0  0  0  0  0  0  0  0  0  0
  -30.2994  -19.3434   22.8816 S   0  0  0  0  0  0  0  0  0  0  0  0
  1  2  1  0  0  0  0
  1  5  2  0  0  0  0
  2  6  2  0  0  0  0
  3  8  2  0  0  0  0
  3 16  1  0  0  0  0
  4  9  1  0  0  0  0
  4 16  2  0  0  0  0
  5 18  1  0  0  0  0
  6 20  1  0  0  0  0
  7 10  2  0  0  0  0
  7 19  1  0  0  0  0
  8 23  1  0  0  0  0
  9 23  2  0  0  0  0
 10 24  1  0  0  0  0
 11 12  2  0  0  0  0
 11 25  1  0  0  0  0
 12 26  1  0  0  0  0
 13 21  1  0  0  0  0
 13 24  2  0  0  0  0
 14 22  1  0  0  0  0
 14 31  2  0  0  0  0
 15 26  2  0  0  0  0
 15 27  1  0  0  0  0
 16 28  1  0  0  0  0
 17 28  1  0  0  0  0
 17 30  2  0  0  0  0
 17 32  1  0  0  0  0
 18 20  2  0  0  0  0
 18 38  1  0  0  0  0
 19 21  2  0  0  0  0
 19 39  1  0  0  0  0
 20 48  1  0  0  0  0
 21 40  1  0  0  0  0
 22 29  2  0  0  0  0
 22 41  1  0  0  0  0
 23 80  1  0  0  0  0
 24 81  1  0  0  0  0
 25 27  2  0  0  0  0
 25 80  1  0  0  0  0
 26 82  1  0  0  0  0
 27 83  1  0  0  0  0
 28 63  2  0  0  0  0
 29 51  1  0  0  0  0
 29 84  1  0  0  0  0
 30 64  1  0  0  0  0
 30 68  1  0  0  0  0
 31 70  1  0  0  0  0
 31 84  1  0  0  0  0
 32 69  1  0  0  0  0
 32 74  2  0  0  0  0
 33 49  1  0  0  0  0
 33 71  1  0  0  0  0
 33 75  2  0  0  0  0
 34 60  1  0  0  0  0
 34 65  1  0  0  0  0
 34 76  2  0  0  0  0
 35 59  1  0  0  0  0
 35 70  1  0  0  0  0
 35 77  2  0  0  0  0
 36 61  1  0  0  0  0
 36 72  1  0  0  0  0
 36 78  2  0  0  0  0
 37 66  1  0  0  0  0
 37 67  1  0  0  0  0
 37 79  2  0  0  0  0
 38 42  1  0  0  0  0
 39 49  1  0  0  0  0
 40 65  1  0  0  0  0
 41 66  1  0  0  0  0
 42 44  1  0  0  0  0
 43 45  1  0  0  0  0
 43 46  1  0  0  0  0
 44 48  1  0  0  0  0
 45 50  1  0  0  0  0
 46 67  1  0  0  0  0
 47 50  1  0  0  0  0
 47 67  1  0  0  0  0
 48 71  1  0  0  0  0
 49 65  1  0  0  0  0
 50 64  1  0  0  0  0
 51 52  1  0  0  0  0
 51 53  1  0  0  0  0
 51 66  1  0  0  0  0
 54 61  1  0  0  0  0
 55 62  1  0  0  0  0
 56 62  1  0  0  0  0
 57 62  1  0  0  0  0
 58 73  1  0  0  0  0
 59 81  1  0  0  0  0
 60 62  1  0  0  0  0
 60 72  1  0  0  0  0
 61 73  1  0  0  0  0
 63 64  1  0  0  0  0
M  CHG  1  73   1
M  ISO  4  37 100  59 101  66 100  81 101
M  END
> <Batch ID>
0155

> <Smiles>
CNC(C)C(=O)NC(C(=O)N1Cc2cc([101O:1][101CH2:1]C(=O)Nc3cc4c(s3)C(C)(C)[100N:0]([100C:0](=O)N3CCCC(n5nc(-c6ccc(Oc7ccc(F)cc7F)cc6)c(C(N)=O)c5N)C3)C4)ccc2CC1C(=O)NC1CCCc2ccccc21)C(C)(C)C

> <Shape>
0.301

> <Color>
0.182

> <Negative vol penalty>
0.000

$$$$

  -OEChem-04052303363D

 83 92  0     1  0  0  0  0  0999 V2000
  -16.7163  -28.5847   23.6092 C   0  0  0  0  0  0  0  0  0  0  0  0
  -17.6098  -27.8876   22.8023 C   0  0  0  0  0  0  0  0  0  0  0  0
  -26.1103  -13.3264   21.2087 C   0  0  0  0  0  0  0  0  0  0  0  0
  -25.8910  -13.6127   18.8197 C   0  0  0  0  0  0  0  0  0  0  0  0
  -16.9510  -29.9256   23.9105 C   0  0  0  0  0  0  0  0  0  0  0  0
  -18.7381  -28.5313   22.2954 C   0  0  0  0  0  0  0  0  0  0  0  0
  -24.2659  -26.0714   21.3480 C   0  0  0  0  0  0  0  0  0  0  0  0
  -24.9781  -12.5118   21.2149 C   0  0  0  0  0  0  0  0  0  0  0  0
  -24.7588  -12.7981   18.8260 C   0  0  0  0  0  0  0  0  0  0  0  0
  -24.8864  -25.5711   20.2041 C   0  0  0  0  0  0  0  0  0  0  0  0
  -24.2090   -9.3095   20.4486 C   0  0  0  0  0  0  0  0  0  0  0  0
  -24.2667   -8.1251   21.1830 C   0  0  0  0  0  0  0  0  0  0  0  0
  -25.9766  -27.6974   19.8729 C   0  0  0  0  0  0  0  0  0  0  0  0
  -22.4144   -8.8764   22.5400 C   0  0  0  0  0  0  0  0  0  0  0  0
  -28.2745  -21.8703   13.9594 C   0  0  0  0  0  0  0  0  0  0  0  0
  -26.5667  -13.8769   20.0110 C   0  0  0  0  0  0  0  0  0  0  0  0
  -29.0735  -14.3149   19.8326 C   0  0  0  0  0  0  0  0  0  0  0  0
  -18.0878  -30.5835   23.4149 C   0  0  0  0  0  0  0  0  0  0  0  0
  -24.4879  -27.3940   21.7575 C   0  0  0  0  0  0  0  0  0  0  0  0
  -18.9875  -29.8827   22.5893 C   0  0  0  0  0  0  0  0  0  0  0  0
  -25.3597  -28.2112   21.0238 C   0  0  0  0  0  0  0  0  0  0  0  0
  -24.3023  -12.2476   20.0236 C   0  0  0  0  0  0  0  0  0  0  0  0
  -25.7396  -26.3850   19.4648 C   0  0  0  0  0  0  0  0  0  0  0  0
  -23.2541  -10.2775   20.7599 C   0  0  0  0  0  0  0  0  0  0  0  0
  -23.3694   -7.9085   22.2287 C   0  0  0  0  0  0  0  0  0  0  0  0
  -22.3567  -10.0609   21.8056 C   0  0  0  0  0  0  0  0  0  0  0  0
  -27.7359  -14.7190   20.0040 C   0  0  0  0  0  0  0  0  0  0  0  0
  -28.5576  -22.9383   14.7848 C   0  0  0  0  0  0  0  0  0  0  0  0
  -29.7963  -15.4806   19.9051 C   0  0  0  0  0  0  0  0  0  0  0  0
  -28.3209  -21.3893   16.3193 C   0  0  0  0  0  0  0  0  0  0  0  0
  -29.1483  -25.9267   16.3418 C   0  0  0  0  0  0  0  0  0  0  0  0
  -27.8190  -26.0802   16.4653 C   0  0  0  0  0  0  0  0  0  0  0  0
  -29.6143  -13.0032   19.6262 C   0  0  0  0  0  0  0  0  0  0  0  0
  -22.6540  -29.9622   22.1381 C   0  0  0  0  0  0  0  0  0  0  0  0
  -25.3744  -31.2441   23.3540 C   0  0  0  0  0  0  0  0  0  0  0  0
  -28.7836  -31.1996   23.5025 C   0  0  0  0  0  0  0  0  0  0  0  0
  -28.4388  -21.1992   18.8285 C   0  0  0  0  0  0  0  0  0  0  0  0
  -18.2744  -32.0467   23.7290 C   0  0  0  0  0  0  0  0  0  0  0  0
  -23.8319  -27.9102   23.0087 C   0  0  0  0  0  0  0  0  0  0  0  0
  -25.6472  -29.6320   21.4325 C   0  0  0  0  0  0  0  0  0  0  0  0
  -29.8048  -25.1855   15.2110 C   0  0  0  0  0  0  0  0  0  0  0  0
  -26.8566  -25.5466   15.4358 C   0  0  0  0  0  0  0  0  0  0  0  0
  -19.6893  -32.5520   23.4591 C   0  0  0  0  0  0  0  0  0  0  0  0
  -27.5307  -25.1522   14.1173 C   0  0  0  0  0  0  0  0  0  0  0  0
  -29.6793  -19.8428   21.8778 C   0  0  0  0  0  0  0  0  0  0  0  0
  -20.1772  -32.0707   22.0964 C   0  0  0  0  0  0  0  0  0  0  0  0
  -29.4490  -18.3375   21.7252 C   0  0  0  0  0  0  0  0  0  0  0  0
  -28.5482  -20.6560   21.2509 C   0  0  0  0  0  0  0  0  0  0  0  0
  -28.0142  -18.8172   19.7008 C   0  0  0  0  0  0  0  0  0  0  0  0
  -20.2357  -30.5394   22.0407 C   0  0  1  0  0  0  0  0  0  0  0  0
  -28.8368  -24.3662   14.3293 C   0  0  2  0  0  0  0  0  0  0  0  0
  -23.7283  -29.4319   23.0449 C   0  0  1  0  0  0  0  0  0  0  0  0
  -29.1596  -17.9574   20.2598 C   0  0  2  0  0  0  0  0  0  0  0  0
  -30.7254  -32.3937   24.5517 C   0  0  0  0  0  0  0  0  0  0  0  0
  -25.0273  -33.5414   21.3761 C   0  0  0  0  0  0  0  0  0  0  0  0
  -27.4147  -34.1692   21.7934 C   0  0  0  0  0  0  0  0  0  0  0  0
  -25.7644  -34.2359   23.6628 C   0  0  0  0  0  0  0  0  0  0  0  0
  -29.6721  -28.7558   24.9159 C   0  0  0  0  0  0  0  0  0  0  0  0
  -27.2079  -26.7883   17.6379 C   0  0  0  0  0  0  0  0  0  1  0  0
  -26.5490  -32.0000   22.7813 C   0  0  1  0  0  0  0  0  0  0  0  0
  -29.7412  -31.2414   24.6797 C   0  0  2  0  0  0  0  0  0  0  0  0
  -26.1821  -33.4605   22.3943 C   0  0  0  0  0  0  0  0  0  0  0  0
  -27.6134  -16.0382   20.1729 N   0  0  0  0  0  0  0  0  0  0  0  0
  -28.5843  -22.6644   16.1384 N   0  0  0  0  0  0  0  0  0  0  0  0
  -28.8833  -16.4733   20.1080 N   0  0  0  0  0  0  0  0  0  0  0  0
  -24.9769  -30.0927   22.6597 N   0  0  0  0  0  0  0  0  0  0  0  0
  -28.3337  -20.2443   19.8619 N   0  0  0  0  0  0  0  0  0  0  0  0
  -31.1174  -15.7430   19.8146 N   0  0  0  0  0  0  0  0  0  0  0  0
  -28.7308  -11.9162   19.5777 N   0  0  0  0  0  0  0  0  0  0  0  0
  -28.2468  -20.6850   17.5466 N   0  0  0  0  0  0  0  0  0  0  0  0
  -21.4100  -30.0530   22.7327 N   0  0  0  0  0  0  0  0  0  0  0  0
  -27.6214  -31.8938   23.7646 N   0  0  0  0  0  0  0  0  0  0  0  0
  -30.5143  -29.9701   24.7640 N   0  3  0  0  0  0  0  0  0  0  0  0
  -30.8460  -12.7989   19.5051 O   0  0  0  0  0  0  0  0  0  0  0  0
  -22.9334  -30.2679   20.9848 O   0  0  0  0  0  0  0  0  0  0  0  0
  -24.8342  -31.6560   24.3836 O   0  0  0  0  0  0  0  0  0  0  0  0
  -29.0424  -30.6131   22.4539 O   0  0  0  0  0  0  0  0  0  0  0  0
  -28.7081  -22.3804   19.0614 O   0  0  0  0  0  0  0  0  0  0  0  0
  -23.1976  -11.4525   20.0294 O   0  0  0  0  0  0  0  0  0  0  0  0
  -26.3461  -25.8994   18.3475 O   0  0  0  0  0  0  0  0  0  1  0  0
  -23.4239   -6.7704   22.9328 F   0  0  0  0  0  0  0  0  0  0  0  0
  -21.4363  -10.9865   22.1087 F   0  0  0  0  0  0  0  0  0  0  0  0
  -28.0318  -20.4606   14.9054 S   0  0  0  0  0  0  0  0  0  0  0  0
  1  2  1  0  0  0  0
  1  5  2  0  0  0  0
  2  6  2  0  0  0  0
  3  8  2  0  0  0  0
  3 16  1  0  0  0  0
  4  9  1  0  0  0  0
  4 16  2  0  0  0  0
  5 18  1  0  0  0  0
  6 20  1  0  0  0  0
  7 10  2  0  0  0  0
  7 19  1  0  0  0  0
  8 22  1  0  0  0  0
  9 22  2  0  0  0  0
 10 23  1  0  0  0  0
 11 12  2  0  0  0  0
 11 24  1  0  0  0  0
 12 25  1  0  0  0  0
 13 21  1  0  0  0  0
 13 23  2  0  0  0  0
 14 25  2  0  0  0  0
 14 26  1  0  0  0  0
 15 28  2  0  0  0  0
 15 83  1  0  0  0  0
 16 27  1  0  0  0  0
 17 27  1  0  0  0  0
 17 29  2  0  0  0  0
 17 33  1  0  0  0  0
 18 20  2  0  0  0  0
 18 38  1  0  0  0  0
 19 21  2  0  0  0  0
 19 39  1  0  0  0  0
 20 50  1  0  0  0  0
 21 40  1  0  0  0  0
 22 79  1  0  0  0  0
 23 80  1  0  0  0  0
 24 26  2  0  0  0  0
 24 79  1  0  0  0  0
 25 81  1  0  0  0  0
 26 82  1  0  0  0  0
 27 63  2  0  0  0  0
 28 51  1  0  0  0  0
 28 64  1  0  0  0  0
 29 65  1  0  0  0  0
 29 68  1  0  0  0  0
 30 64  2  0  0  0  0
 30 70  1  0  0  0  0
 30 83  1  0  0  0  0
 31 32  2  0  0  0  0
 31 41  1  0  0  0  0
 32 42  1  0  0  0  0
 32 59  1  0  0  0  0
 33 69  1  0  0  0  0
 33 74  2  0  0  0  0
 34 52  1  0  0  0  0
 34 71  1  0  0  0  0
 34 75  2  0  0  0  0
 35 60  1  0  0  0  0
 35 66  1  0  0  0  0
 35 76  2  0  0  0  0
 36 61  1  0  0  0  0
 36 72  1  0  0  0  0
 36 77  2  0  0  0  0
 37 67  1  0  0  0  0
 37 70  1  0  0  0  0
 37 78  2  0  0  0  0
 38 43  1  0  0  0  0
 39 52  1  0  0  0  0
 40 66  1  0  0  0  0
 41 51  1  0  0  0  0
 42 44  1  0  0  0  0
 43 46  1  0  0  0  0
 44 51  1  0  0  0  0
 45 47  1  0  0  0  0
 45 48  1  0  0  0  0
 46 50  1  0  0  0  0
 47 53  1  0  0  0  0
 48 67  1  0  0  0  0
 49 53  1  0  0  0  0
 49 67  1  0  0  0  0
 50 71  1  0  0  0  0
 52 66  1  0  0  0  0
 53 65  1  0  0  0  0
 54 61  1  0  0  0  0
 55 62  1  0  0  0  0
 56 62  1  0  0  0  0
 57 62  1  0  0  0  0
 58 73  1  0  0  0  0
 59 80  1  0  0  0  0
 60 62  1  0  0  0  0
 60 72  1  0  0  0  0
 61 73  1  0  0  0  0
 63 65  1  0  0  0  0
M  CHG  1  73   1
M  ISO  4  37 100  59 101  70 100  80 101
M  END
> <Batch ID>
0155

> <Smiles>
CNC(C)C(=O)NC(C(=O)N1Cc2cc([101O:1][101CH2:1]C3=CCC(c4csc([100NH:0][100C:0](=O)N5CCCC(n6nc(-c7ccc(Oc8ccc(F)cc8F)cc7)c(C(N)=O)c6N)C5)n4)CC3)ccc2CC1C(=O)NC1CCCc2ccccc21)C(C)(C)C

> <Shape>
0.294

> <Color>
0.074

> <Negative vol penalty>
0.000

$$$$

  -OEChem-04052303363D

 82 91  0     1  0  0  0  0  0999 V2000
  -29.3543  -34.1707   26.4339 C   0  0  0  0  0  0  0  0  0  0  0  0
  -29.0037  -32.8647   26.1070 C   0  0  0  0  0  0  0  0  0  0  0  0
  -23.9622   -9.6331   19.9873 C   0  0  0  0  0  0  0  0  0  0  0  0
  -24.4883   -9.9543   22.3234 C   0  0  0  0  0  0  0  0  0  0  0  0
  -28.4158  -35.1945   26.3120 C   0  0  0  0  0  0  0  0  0  0  0  0
  -27.7138  -32.5816   25.6591 C   0  0  0  0  0  0  0  0  0  0  0  0
  -27.6850  -29.4930   21.6461 C   0  0  0  0  0  0  0  0  0  0  0  0
  -23.5484   -8.3292   20.2598 C   0  0  0  0  0  0  0  0  0  0  0  0
  -24.0744   -8.6504   22.5959 C   0  0  0  0  0  0  0  0  0  0  0  0
  -27.8918  -28.1352   21.8861 C   0  0  0  0  0  0  0  0  0  0  0  0
  -21.1544   -7.0027   23.0191 C   0  0  0  0  0  0  0  0  0  0  0  0
  -20.3395   -6.8025   24.1333 C   0  0  0  0  0  0  0  0  0  0  0  0
  -29.7009  -20.7937   22.4368 C   0  0  0  0  0  0  0  0  0  0  0  0
  -30.0228  -19.5333   21.8554 C   0  0  0  0  0  0  0  0  0  0  0  0
  -25.5150  -27.7523   21.7330 C   0  0  0  0  0  0  0  0  0  0  0  0
  -22.0006   -5.3275   25.0831 C   0  0  0  0  0  0  0  0  0  0  0  0
  -24.4322  -10.4456   21.0191 C   0  0  0  0  0  0  0  0  0  0  0  0
  -24.0696  -12.9570   20.7563 C   0  0  0  0  0  0  0  0  0  0  0  0
  -27.1167  -34.9254   25.8532 C   0  0  0  0  0  0  0  0  0  0  0  0
  -26.3884  -29.9931   21.4582 C   0  0  0  0  0  0  0  0  0  0  0  0
  -26.7567  -33.6026   25.5323 C   0  0  0  0  0  0  0  0  0  0  0  0
  -25.2946  -29.1163   21.4882 C   0  0  0  0  0  0  0  0  0  0  0  0
  -23.6045   -7.8379   21.5640 C   0  0  0  0  0  0  0  0  0  0  0  0
  -26.8065  -27.2651   21.9325 C   0  0  0  0  0  0  0  0  0  0  0  0
  -22.3924   -6.3653   22.9368 C   0  0  0  0  0  0  0  0  0  0  0  0
  -20.7626   -5.9649   25.1653 C   0  0  0  0  0  0  0  0  0  0  0  0
  -22.8155   -5.5277   23.9688 C   0  0  0  0  0  0  0  0  0  0  0  0
  -24.8603  -11.7925   20.7382 C   0  0  0  0  0  0  0  0  0  0  0  0
  -28.4599  -20.7860   23.0345 C   0  0  0  0  0  0  0  0  0  0  0  0
  -24.9383  -13.9672   20.4226 C   0  0  0  0  0  0  0  0  0  0  0  0
  -29.0155  -18.6101   22.0312 C   0  0  0  0  0  0  0  0  0  0  0  0
  -22.6745  -13.1119   21.0487 C   0  0  0  0  0  0  0  0  0  0  0  0
  -24.5492  -32.0880   22.9855 C   0  0  0  0  0  0  0  0  0  0  0  0
  -22.5659  -31.5940   20.4666 C   0  0  0  0  0  0  0  0  0  0  0  0
  -21.5564  -29.5429   17.9327 C   0  0  0  0  0  0  0  0  0  0  0  0
  -29.8638  -16.5168   20.9156 C   0  0  0  0  0  0  0  0  0  0  0  0
  -26.1226  -36.0574   25.7829 C   0  0  0  0  0  0  0  0  0  0  0  0
  -26.1845  -31.4560   21.1738 C   0  0  0  0  0  0  0  0  0  0  0  0
  -23.8846  -29.5998   21.2727 C   0  0  0  0  0  0  0  0  0  0  0  0
  -24.8890  -35.7335   24.9442 C   0  0  0  0  0  0  0  0  0  0  0  0
  -29.6722  -13.7855   18.6394 C   0  0  0  0  0  0  0  0  0  0  0  0
  -24.3427  -34.3565   25.3079 C   0  0  0  0  0  0  0  0  0  0  0  0
  -28.5833  -22.3998   24.9472 C   0  0  0  0  0  0  0  0  0  0  0  0
  -28.9574  -23.8413   24.6171 C   0  0  0  0  0  0  0  0  0  0  0  0
  -28.3381  -13.1193   18.9840 C   0  0  0  0  0  0  0  0  0  0  0  0
  -27.5765  -23.1106   22.8208 C   0  0  0  0  0  0  0  0  0  0  0  0
  -30.3801  -14.3152   19.8852 C   0  0  0  0  0  0  0  0  0  0  0  0
  -28.2347  -14.5329   21.0764 C   0  0  0  0  0  0  0  0  0  0  0  0
  -25.3749  -33.2597   25.0193 C   0  0  1  0  0  0  0  0  0  0  0  0
  -27.7696  -21.8896   23.7394 C   0  0  1  0  0  0  0  0  0  0  0  0
  -24.7765  -31.9390   21.5077 C   0  0  1  0  0  0  0  0  0  0  0  0
  -27.8101  -24.3145   23.7313 C   0  0  2  0  0  0  0  0  0  0  0  0
  -27.4540  -14.0413   19.8465 C   0  0  2  0  0  0  0  0  0  0  0  0
  -19.8879  -29.3949   16.0641 C   0  0  0  0  0  0  0  0  0  0  0  0
  -20.3675  -30.9544   22.4835 C   0  0  0  0  0  0  0  0  0  0  0  0
  -19.0561  -29.9169   20.6201 C   0  0  0  0  0  0  0  0  0  0  0  0
  -19.6281  -32.3437   20.5399 C   0  0  0  0  0  0  0  0  0  0  0  0
  -23.6885  -29.3902   15.8858 C   0  0  0  0  0  0  0  0  0  0  0  0
  -28.1295  -25.5839   22.9713 C   0  0  0  0  0  0  0  0  0  1  0  0
  -21.4464  -30.6285   20.1606 C   0  0  1  0  0  0  0  0  0  0  0  0
  -21.2951  -29.8126   16.4618 C   0  0  2  0  0  0  0  0  0  0  0  0
  -20.1508  -30.9518   20.9571 C   0  0  0  0  0  0  0  0  0  0  0  0
  -26.1335  -12.0386   20.4181 N   0  0  0  0  0  0  0  0  0  0  0  0
  -26.1494  -13.3694   20.2320 N   0  0  0  0  0  0  0  0  0  0  0  0
  -23.7362  -31.0398   21.0043 N   0  0  0  0  0  0  0  0  0  0  0  0
  -29.4833  -15.1842   20.6504 N   0  0  0  0  0  0  0  0  0  0  0  0
  -24.7769  -15.2994   20.2765 N   0  0  0  0  0  0  0  0  0  0  0  0
  -21.9290  -11.9702   21.3728 N   0  0  0  0  0  0  0  0  0  0  0  0
  -28.9168  -17.2569   21.6228 N   0  0  0  0  0  0  0  0  0  0  0  0
  -25.4186  -32.9670   23.6026 N   0  0  0  0  0  0  0  0  0  0  0  0
  -21.2771  -30.6458   18.7117 N   0  0  0  0  0  0  0  0  0  0  0  0
  -22.2652  -29.0603   15.6169 N   0  3  0  0  0  0  0  0  0  0  0  0
  -22.1023  -14.2274   21.0073 O   0  0  0  0  0  0  0  0  0  0  0  0
  -23.6506  -31.4536   23.5256 O   0  0  0  0  0  0  0  0  0  0  0  0
  -22.4105  -32.7947   20.2304 O   0  0  0  0  0  0  0  0  0  0  0  0
  -21.9638  -28.4608   18.3493 O   0  0  0  0  0  0  0  0  0  0  0  0
  -30.9380  -16.9761   20.5192 O   0  0  0  0  0  0  0  0  0  0  0  0
  -23.2006   -6.5656   21.8303 O   0  0  0  0  0  0  0  0  0  0  0  0
  -27.0055  -25.9396   22.1672 O   0  0  0  0  0  0  0  0  0  1  0  0
  -19.9807   -5.7740   26.2360 F   0  0  0  0  0  0  0  0  0  0  0  0
  -24.0043   -4.9134   23.8960 F   0  0  0  0  0  0  0  0  0  0  0  0
  -27.6884  -19.2637   22.8937 S   0  0  0  0  0  0  0  0  0  0  0  0
  1  2  1  0  0  0  0
  1  5  2  0  0  0  0
  2  6  2  0  0  0  0
  3  8  2  0  0  0  0
  3 17  1  0  0  0  0
  4  9  1  0  0  0  0
  4 17  2  0  0  0  0
  5 19  1  0  0  0  0
  6 21  1  0  0  0  0
  7 10  2  0  0  0  0
  7 20  1  0  0  0  0
  8 23  1  0  0  0  0
  9 23  2  0  0  0  0
 10 24  1  0  0  0  0
 11 12  2  0  0  0  0
 11 25  1  0  0  0  0
 12 26  1  0  0  0  0
 13 14  1  0  0  0  0
 13 29  2  0  0  0  0
 14 31  2  0  0  0  0
 15 22  1  0  0  0  0
 15 24  2  0  0  0  0
 16 26  2  0  0  0  0
 16 27  1  0  0  0  0
 17 28  1  0  0  0  0
 18 28  1  0  0  0  0
 18 30  2  0  0  0  0
 18 32  1  0  0  0  0
 19 21  2  0  0  0  0
 19 37  1  0  0  0  0
 20 22  2  0  0  0  0
 20 38  1  0  0  0  0
 21 49  1  0  0  0  0
 22 39  1  0  0  0  0
 23 78  1  0  0  0  0
 24 79  1  0  0  0  0
 25 27  2  0  0  0  0
 25 78  1  0  0  0  0
 26 80  1  0  0  0  0
 27 81  1  0  0  0  0
 28 63  2  0  0  0  0
 29 50  1  0  0  0  0
 29 82  1  0  0  0  0
 30 64  1  0  0  0  0
 30 67  1  0  0  0  0
 31 69  1  0  0  0  0
 31 82  1  0  0  0  0
 32 68  1  0  0  0  0
 32 73  2  0  0  0  0
 33 51  1  0  0  0  0
 33 70  1  0  0  0  0
 33 74  2  0  0  0  0
 34 60  1  0  0  0  0
 34 65  1  0  0  0  0
 34 75  2  0  0  0  0
 35 61  1  0  0  0  0
 35 71  1  0  0  0  0
 35 76  2  0  0  0  0
 36 66  1  0  0  0  0
 36 69  1  0  0  0  0
 36 77  2  0  0  0  0
 37 40  1  0  0  0  0
 38 51  1  0  0  0  0
 39 65  1  0  0  0  0
 40 42  1  0  0  0  0
 41 45  1  0  0  0  0
 41 47  1  0  0  0  0
 42 49  1  0  0  0  0
 43 44  1  0  0  0  0
 43 50  1  0  0  0  0
 44 52  1  0  0  0  0
 45 53  1  0  0  0  0
 46 50  1  0  0  0  0
 46 52  1  0  0  0  0
 47 66  1  0  0  0  0
 48 53  1  0  0  0  0
 48 66  1  0  0  0  0
 49 70  1  0  0  0  0
 51 65  1  0  0  0  0
 52 59  1  0  0  0  0
 53 64  1  0  0  0  0
 54 61  1  0  0  0  0
 55 62  1  0  0  0  0
 56 62  1  0  0  0  0
 57 62  1  0  0  0  0
 58 72  1  0  0  0  0
 59 79  1  0  0  0  0
 60 62  1  0  0  0  0
 60 71  1  0  0  0  0
 61 72  1  0  0  0  0
 63 64  1  0  0  0  0
M  CHG  1  72   1
M  ISO  4  36 100  59 101  69 100  79 101
M  END
> <Batch ID>
0155

> <Smiles>
CNC(C)C(=O)NC(C(=O)N1Cc2cc([101O:1][101CH2:1]C3CCC(c4ccc([100NH:0][100C:0](=O)N5CCCC(n6nc(-c7ccc(Oc8ccc(F)cc8F)cc7)c(C(N)=O)c6N)C5)s4)C3)ccc2CC1C(=O)NC1CCCc2ccccc21)C(C)(C)C

> <Shape>
0.285

> <Color>
0.147

> <Negative vol penalty>
0.000

$$$$

  -OEChem-04052303363D

 83 92  0     1  0  0  0  0  0999 V2000
  -17.4387  -26.3333   19.6169 C   0  0  0  0  0  0  0  0  0  0  0  0
  -18.7527  -26.4525   19.1756 C   0  0  0  0  0  0  0  0  0  0  0  0
  -25.2771  -13.2949   18.9622 C   0  0  0  0  0  0  0  0  0  0  0  0
  -25.1319  -13.3091   21.3738 C   0  0  0  0  0  0  0  0  0  0  0  0
  -17.1076  -26.6939   20.9223 C   0  0  0  0  0  0  0  0  0  0  0  0
  -19.7361  -26.9334   20.0393 C   0  0  0  0  0  0  0  0  0  0  0  0
  -25.6098  -25.2130   20.2529 C   0  0  0  0  0  0  0  0  0  0  0  0
  -24.3561  -12.2486   18.9129 C   0  0  0  0  0  0  0  0  0  0  0  0
  -24.2108  -12.2628   21.3245 C   0  0  0  0  0  0  0  0  0  0  0  0
  -26.7717  -25.7753   19.7260 C   0  0  0  0  0  0  0  0  0  0  0  0
  -24.2705   -8.9091   20.8998 C   0  0  0  0  0  0  0  0  0  0  0  0
  -24.4448   -7.8498   21.7903 C   0  0  0  0  0  0  0  0  0  0  0  0
  -31.0408  -23.2409   17.1290 C   0  0  0  0  0  0  0  0  0  0  0  0
  -30.3971  -22.0051   17.3773 C   0  0  0  0  0  0  0  0  0  0  0  0
  -27.2001  -26.8557   21.8399 C   0  0  0  0  0  0  0  0  0  0  0  0
  -22.2697   -8.2935   22.7440 C   0  0  0  0  0  0  0  0  0  0  0  0
  -25.6651  -13.8252   20.1927 C   0  0  0  0  0  0  0  0  0  0  0  0
  -27.9397  -14.8970   19.7625 C   0  0  0  0  0  0  0  0  0  0  0  0
  -18.0892  -27.1703   21.8055 C   0  0  0  0  0  0  0  0  0  0  0  0
  -25.2280  -25.4769   21.5761 C   0  0  0  0  0  0  0  0  0  0  0  0
  -19.4175  -27.3019   21.3575 C   0  0  0  0  0  0  0  0  0  0  0  0
  -26.0343  -26.2934   22.3819 C   0  0  0  0  0  0  0  0  0  0  0  0
  -23.8229  -11.7325   20.0940 C   0  0  0  0  0  0  0  0  0  0  0  0
  -27.5655  -26.5991   20.5186 C   0  0  0  0  0  0  0  0  0  0  0  0
  -23.0958   -9.6608   20.9315 C   0  0  0  0  0  0  0  0  0  0  0  0
  -23.4444   -7.5419   22.7124 C   0  0  0  0  0  0  0  0  0  0  0  0
  -22.0954   -9.3529   21.8535 C   0  0  0  0  0  0  0  0  0  0  0  0
  -26.6169  -14.9056   20.2443 C   0  0  0  0  0  0  0  0  0  0  0  0
  -30.5311  -24.1285   18.0478 C   0  0  0  0  0  0  0  0  0  0  0  0
  -28.4178  -16.1523   20.0495 C   0  0  0  0  0  0  0  0  0  0  0  0
  -29.5400  -22.2257   18.4303 C   0  0  0  0  0  0  0  0  0  0  0  0
  -28.6708  -13.8482   19.1135 C   0  0  0  0  0  0  0  0  0  0  0  0
  -22.7213  -26.8639   22.9532 C   0  0  0  0  0  0  0  0  0  0  0  0
  -24.1527  -25.8514   25.6823 C   0  0  0  0  0  0  0  0  0  0  0  0
  -27.0225  -24.9106   27.2716 C   0  0  0  0  0  0  0  0  0  0  0  0
  -27.8074  -21.6853   20.1774 C   0  0  0  0  0  0  0  0  0  0  0  0
  -17.6745  -27.5921   23.1928 C   0  0  0  0  0  0  0  0  0  0  0  0
  -23.9859  -24.8411   22.1377 C   0  0  0  0  0  0  0  0  0  0  0  0
  -25.6793  -26.5916   23.8149 C   0  0  0  0  0  0  0  0  0  0  0  0
  -18.8460  -27.7392   24.1605 C   0  0  0  0  0  0  0  0  0  0  0  0
  -26.4715  -19.8427   22.9155 C   0  0  0  0  0  0  0  0  0  0  0  0
  -33.4106  -26.8040   20.3181 C   0  0  0  0  0  0  0  0  0  0  0  0
  -19.9802  -28.5248   23.5100 C   0  0  0  0  0  0  0  0  0  0  0  0
  -26.4991  -18.3933   22.4251 C   0  0  0  0  0  0  0  0  0  0  0  0
  -32.3045  -27.5299   21.0579 C   0  0  0  0  0  0  0  0  0  0  0  0
  -26.1278  -20.8161   21.7894 C   0  0  0  0  0  0  0  0  0  0  0  0
  -26.9921  -19.2471   20.0981 C   0  0  0  0  0  0  0  0  0  0  0  0
  -32.7618  -25.5010   19.8924 C   0  0  0  0  0  0  0  0  0  0  0  0
  -20.5171  -27.7960   22.2723 C   0  0  1  0  0  0  0  0  0  0  0  0
  -23.4215  -25.5919   23.3398 C   0  0  1  0  0  0  0  0  0  0  0  0
  -27.3976  -18.2358   21.1827 C   0  0  2  0  0  0  0  0  0  0  0  0
  -31.0883  -27.2703   20.1813 C   0  0  2  0  0  0  0  0  0  0  0  0
  -27.8839  -24.1752   29.5110 C   0  0  0  0  0  0  0  0  0  0  0  0
  -23.9889  -28.7278   26.6872 C   0  0  0  0  0  0  0  0  0  0  0  0
  -25.6679  -28.1350   28.4472 C   0  0  0  0  0  0  0  0  0  0  0  0
  -23.4517  -26.9907   28.4043 C   0  0  0  0  0  0  0  0  0  0  0  0
  -27.9306  -22.3068   26.1969 C   0  0  0  0  0  0  0  0  0  0  0  0
  -30.7858  -25.5814   18.3223 C   0  0  0  0  0  0  0  0  0  0  0  0
  -29.7682  -27.4017   20.9184 C   0  0  0  0  0  0  0  0  0  1  0  0
  -25.1694  -26.4322   26.6352 C   0  0  1  0  0  0  0  0  0  0  0  0
  -27.3364  -23.7245   28.1656 C   0  0  2  0  0  0  0  0  0  0  0  0
  -24.5754  -27.5676   27.5159 C   0  0  0  0  0  0  0  0  0  0  0  0
  -26.2766  -16.0736   20.7957 N   0  0  0  0  0  0  0  0  0  0  0  0
  -27.3924  -16.8106   20.6622 N   0  0  0  0  0  0  0  0  0  0  0  0
  -24.4518  -25.9515   24.3162 N   0  0  0  0  0  0  0  0  0  0  0  0
  -27.0225  -20.6115   20.6481 N   0  0  0  0  0  0  0  0  0  0  0  0
  -29.6110  -16.7460   19.8351 N   0  0  0  0  0  0  0  0  0  0  0  0
  -29.4078  -12.9580   19.9064 N   0  0  0  0  0  0  0  0  0  0  0  0
  -28.6435  -21.3633   19.1088 N   0  0  0  0  0  0  0  0  0  0  0  0
  -21.3797  -26.7021   22.6644 N   0  0  0  0  0  0  0  0  0  0  0  0
  -25.7077  -25.3077   27.3930 N   0  0  0  0  0  0  0  0  0  0  0  0
  -31.2912  -25.8369   19.7096 N   0  3  1  0  0  0  0  0  0  0  0  0
  -28.3477  -22.8415   27.5187 N   0  3  0  0  0  0  0  0  0  0  0  0
  -28.6837  -13.7147   17.8663 O   0  0  0  0  0  0  0  0  0  0  0  0
  -23.3511  -27.9145   22.9209 O   0  0  0  0  0  0  0  0  0  0  0  0
  -23.1342  -25.3219   26.1338 O   0  0  0  0  0  0  0  0  0  0  0  0
  -27.8609  -25.4348   26.5416 O   0  0  0  0  0  0  0  0  0  0  0  0
  -27.7627  -22.8008   20.7024 O   0  0  0  0  0  0  0  0  0  0  0  0
  -29.6158  -23.5175   18.8449 O   0  0  0  0  0  0  0  0  0  0  0  0
  -22.9239  -10.7117   20.0462 O   0  0  0  0  0  0  0  0  0  0  0  0
  -28.6997  -27.1499   20.0066 O   0  0  0  0  0  0  0  0  0  1  0  0
  -23.6113   -6.5236   23.5664 F   0  0  0  0  0  0  0  0  0  0  0  0
  -20.9643  -10.0706   21.8878 F   0  0  0  0  0  0  0  0  0  0  0  0
  1  2  1  0  0  0  0
  1  5  2  0  0  0  0
  2  6  2  0  0  0  0
  3  8  2  0  0  0  0
  3 17  1  0  0  0  0
  4  9  1  0  0  0  0
  4 17  2  0  0  0  0
  5 19  1  0  0  0  0
  6 21  1  0  0  0  0
  7 10  2  0  0  0  0
  7 20  1  0  0  0  0
  8 23  1  0  0  0  0
  9 23  2  0  0  0  0
 10 24  1  0  0  0  0
 11 12  2  0  0  0  0
 11 25  1  0  0  0  0
 12 26  1  0  0  0  0
 13 14  1  0  0  0  0
 13 29  2  0  0  0  0
 14 31  2  0  0  0  0
 15 22  1  0  0  0  0
 15 24  2  0  0  0  0
 16 26  2  0  0  0  0
 16 27  1  0  0  0  0
 17 28  1  0  0  0  0
 18 28  1  0  0  0  0
 18 30  2  0  0  0  0
 18 32  1  0  0  0  0
 19 21  2  0  0  0  0
 19 37  1  0  0  0  0
 20 22  2  0  0  0  0
 20 38  1  0  0  0  0
 21 49  1  0  0  0  0
 22 39  1  0  0  0  0
 23 80  1  0  0  0  0
 24 81  1  0  0  0  0
 25 27  2  0  0  0  0
 25 80  1  0  0  0  0
 26 82  1  0  0  0  0
 27 83  1  0  0  0  0
 28 63  2  0  0  0  0
 29 58  1  0  0  0  0
 29 79  1  0  0  0  0
 30 64  1  0  0  0  0
 30 67  1  0  0  0  0
 31 69  1  0  0  0  0
 31 79  1  0  0  0  0
 32 68  1  0  0  0  0
 32 74  2  0  0  0  0
 33 50  1  0  0  0  0
 33 70  1  0  0  0  0
 33 75  2  0  0  0  0
 34 60  1  0  0  0  0
 34 65  1  0  0  0  0
 34 76  2  0  0  0  0
 35 61  1  0  0  0  0
 35 71  1  0  0  0  0
 35 77  2  0  0  0  0
 36 66  1  0  0  0  0
 36 69  1  0  0  0  0
 36 78  2  0  0  0  0
 37 40  1  0  0  0  0
 38 50  1  0  0  0  0
 39 65  1  0  0  0  0
 40 43  1  0  0  0  0
 41 44  1  0  0  0  0
 41 46  1  0  0  0  0
 42 45  1  0  0  0  0
 42 48  1  0  0  0  0
 43 49  1  0  0  0  0
 44 51  1  0  0  0  0
 45 52  1  0  0  0  0
 46 66  1  0  0  0  0
 47 51  1  0  0  0  0
 47 66  1  0  0  0  0
 48 72  1  0  0  0  0
 49 70  1  0  0  0  0
 50 65  1  0  0  0  0
 51 64  1  0  0  0  0
 52 59  1  0  0  0  0
 52 72  1  0  0  0  0
 53 61  1  0  0  0  0
 54 62  1  0  0  0  0
 55 62  1  0  0  0  0
 56 62  1  0  0  0  0
 57 73  1  0  0  0  0
 58 72  1  0  0  0  0
 59 81  1  0  0  0  0
 60 62  1  0  0  0  0
 60 71  1  0  0  0  0
 61 73  1  0  0  0  0
 63 64  1  0  0  0  0
M  CHG  2  72   1  73   1
M  ISO  4  36 100  59 101  69 100  81 101
M  END
> <Batch ID>
0155

> <Smiles>
CNC(C)C(=O)NC(C(=O)N1Cc2cc([101O:1][101CH2:1]C3CCCN3Cc3ccc([100NH:0][100C:0](=O)N4CCCC(n5nc(-c6ccc(Oc7ccc(F)cc7F)cc6)c(C(N)=O)c5N)C4)o3)ccc2CC1C(=O)NC1CCCc2ccccc21)C(C)(C)C

> <Shape>
0.243

> <Color>
0.075

> <Negative vol penalty>
0.000

$$$$

  -OEChem-04052303363D

 86 95  0     1  0  0  0  0  0999 V2000
  -22.2896  -34.0419   28.0941 C   0  0  0  0  0  0  0  0  0  0  0  0
  -21.7614  -32.7797   27.8428 C   0  0  0  0  0  0  0  0  0  0  0  0
  -22.9721   -9.9401   19.9758 C   0  0  0  0  0  0  0  0  0  0  0  0
  -23.7845   -9.8785   22.2502 C   0  0  0  0  0  0  0  0  0  0  0  0
  -22.9683  -34.7257   27.0863 C   0  0  0  0  0  0  0  0  0  0  0  0
  -21.9106  -32.2009   26.5830 C   0  0  0  0  0  0  0  0  0  0  0  0
  -25.2324  -25.8589   25.7854 C   0  0  0  0  0  0  0  0  0  0  0  0
  -22.2040   -8.8016   20.2193 C   0  0  0  0  0  0  0  0  0  0  0  0
  -23.0164   -8.7400   22.4938 C   0  0  0  0  0  0  0  0  0  0  0  0
  -25.6683  -24.5506   25.5745 C   0  0  0  0  0  0  0  0  0  0  0  0
  -23.2067   -5.4242   21.8610 C   0  0  0  0  0  0  0  0  0  0  0  0
  -23.8113   -4.3682   22.5429 C   0  0  0  0  0  0  0  0  0  0  0  0
  -25.3608  -24.8209   23.1912 C   0  0  0  0  0  0  0  0  0  0  0  0
  -30.7792  -19.7081   21.5609 C   0  0  0  0  0  0  0  0  0  0  0  0
  -29.6791  -17.7352   22.4177 C   0  0  0  0  0  0  0  0  0  0  0  0
  -31.2643  -17.5431   20.6046 C   0  0  0  0  0  0  0  0  0  0  0  0
  -22.1549   -4.5494   24.2923 C   0  0  0  0  0  0  0  0  0  0  0  0
  -23.7624  -10.4786   20.9912 C   0  0  0  0  0  0  0  0  0  0  0  0
  -24.1679  -12.9960   20.9155 C   0  0  0  0  0  0  0  0  0  0  0  0
  -23.1342  -34.1509   25.8163 C   0  0  0  0  0  0  0  0  0  0  0  0
  -24.8732  -26.6593   24.6973 C   0  0  0  0  0  0  0  0  0  0  0  0
  -22.5909  -32.8782   25.5567 C   0  0  0  0  0  0  0  0  0  0  0  0
  -24.9353  -26.1363   23.3952 C   0  0  0  0  0  0  0  0  0  0  0  0
  -29.8841  -19.1145   22.4508 C   0  0  0  0  0  0  0  0  0  0  0  0
  -31.4692  -18.9224   20.6377 C   0  0  0  0  0  0  0  0  0  0  0  0
  -30.3692  -16.9494   21.4946 C   0  0  0  0  0  0  0  0  0  0  0  0
  -22.2261   -8.2015   21.4783 C   0  0  0  0  0  0  0  0  0  0  0  0
  -25.7320  -24.0329   24.2806 C   0  0  0  0  0  0  0  0  0  0  0  0
  -22.0762   -6.0429   22.3948 C   0  0  0  0  0  0  0  0  0  0  0  0
  -23.2854   -3.9308   23.7585 C   0  0  0  0  0  0  0  0  0  0  0  0
  -21.5503   -5.6054   23.6104 C   0  0  0  0  0  0  0  0  0  0  0  0
  -24.5565  -11.6544   20.7401 C   0  0  0  0  0  0  0  0  0  0  0  0
  -25.2707  -13.7246   20.5422 C   0  0  0  0  0  0  0  0  0  0  0  0
  -29.1947  -21.1740   23.6156 C   0  0  0  0  0  0  0  0  0  0  0  0
  -28.0221  -21.1666   24.2935 C   0  0  0  0  0  0  0  0  0  0  0  0
  -22.9214  -13.5355   21.3749 C   0  0  0  0  0  0  0  0  0  0  0  0
  -30.0436  -22.3220   23.3171 C   0  0  0  0  0  0  0  0  0  0  0  0
  -23.6591  -30.0009   23.4993 C   0  0  0  0  0  0  0  0  0  0  0  0
  -25.8132  -29.0741   21.5216 C   0  0  0  0  0  0  0  0  0  0  0  0
  -28.5221  -27.8885   19.8207 C   0  0  0  0  0  0  0  0  0  0  0  0
  -30.7652  -14.6243   20.6094 C   0  0  0  0  0  0  0  0  0  0  0  0
  -23.8343  -34.9483   24.7445 C   0  0  0  0  0  0  0  0  0  0  0  0
  -24.3395  -28.0538   24.8822 C   0  0  0  0  0  0  0  0  0  0  0  0
  -24.5061  -27.0223   22.2578 C   0  0  0  0  0  0  0  0  0  0  0  0
  -27.9542  -19.6807   24.0436 C   0  0  0  0  0  0  0  0  0  0  0  0
  -24.2743  -34.1071   23.5490 C   0  0  0  0  0  0  0  0  0  0  0  0
  -29.5332  -12.2912   18.2186 C   0  0  0  0  0  0  0  0  0  0  0  0
  -23.1437  -33.1877   23.0982 C   0  0  0  0  0  0  0  0  0  0  0  0
  -28.0966  -12.0279   18.6759 C   0  0  0  0  0  0  0  0  0  0  0  0
  -30.4815  -12.4706   19.4028 C   0  0  0  0  0  0  0  0  0  0  0  0
  -28.6266  -13.2146   20.8434 C   0  0  0  0  0  0  0  0  0  0  0  0
  -22.7536  -32.2066   24.2104 C   0  0  1  0  0  0  0  0  0  0  0  0
  -24.7609  -29.0155   23.7567 C   0  0  1  0  0  0  0  0  0  0  0  0
  -27.6227  -13.0917   19.6856 C   0  0  2  0  0  0  0  0  0  0  0  0
  -29.4598  -23.4503   22.4994 C   0  0  0  0  0  0  0  0  0  0  0  0
  -30.0236  -28.4297   17.8842 C   0  0  0  0  0  0  0  0  0  0  0  0
  -23.6266  -28.1948   19.5852 C   0  0  0  0  0  0  0  0  0  0  0  0
  -25.4004  -27.8404   17.8543 C   0  0  0  0  0  0  0  0  0  0  0  0
  -25.0118  -30.1195   18.7908 C   0  0  0  0  0  0  0  0  0  0  0  0
  -30.9115  -28.0250   21.5617 C   0  0  0  0  0  0  0  0  0  0  0  0
  -27.1071  -22.2372   25.0170 C   0  0  0  0  0  0  0  0  0  1  0  0
  -26.1213  -28.3611   20.2292 C   0  0  1  0  0  0  0  0  0  0  0  0
  -29.8112  -28.5610   19.3843 C   0  0  2  0  0  0  0  0  0  0  0  0
  -25.0414  -28.6156   19.1400 C   0  0  0  0  0  0  0  0  0  0  0  0
  -25.8084  -11.5348   20.2902 N   0  0  0  0  0  0  0  0  0  0  0  0
  -26.2160  -12.8106   20.1797 N   0  0  0  0  0  0  0  0  0  0  0  0
  -29.1994  -19.8938   23.3665 N   0  0  0  0  0  0  0  0  0  0  0  0
  -25.0313  -28.3824   22.4547 N   0  0  0  0  0  0  0  0  0  0  0  0
  -29.9703  -13.4966   20.3143 N   0  0  0  0  0  0  0  0  0  0  0  0
  -32.3741  -19.5227   19.7376 N   0  0  0  0  0  0  0  0  0  0  0  0
  -25.5144  -15.0514   20.4918 N   0  0  0  0  0  0  0  0  0  0  0  0
  -21.8939  -12.6459   21.7170 N   0  0  0  0  0  0  0  0  0  0  0  0
  -30.1615  -15.5482   21.4619 N   0  0  0  0  0  0  0  0  0  0  0  0
  -23.7164  -31.1294   24.2947 N   0  0  0  0  0  0  0  0  0  0  0  0
  -27.4665  -28.7752   19.8453 N   0  0  0  0  0  0  0  0  0  0  0  0
  -30.9773  -27.9463   20.0796 N   0  3  0  0  0  0  0  0  0  0  0  0
  -22.7191  -14.7703   21.4632 O   0  0  0  0  0  0  0  0  0  0  0  0
  -31.2127  -22.3675   23.7165 O   0  0  0  0  0  0  0  0  0  0  0  0
  -22.8188  -29.7572   22.6412 O   0  0  0  0  0  0  0  0  0  0  0  0
  -26.2478  -30.2155   21.6991 O   0  0  0  0  0  0  0  0  0  0  0  0
  -28.4573  -26.6951   20.1072 O   0  0  0  0  0  0  0  0  0  0  0  0
  -31.8872  -14.7737   20.1189 O   0  0  0  0  0  0  0  0  0  0  0  0
  -21.4766   -7.0906   21.7163 O   0  0  0  0  0  0  0  0  0  0  0  0
  -26.1628  -22.7563   24.0816 O   0  0  0  0  0  0  0  0  0  1  0  0
  -23.8652   -2.9157   24.4124 F   0  0  0  0  0  0  0  0  0  0  0  0
  -20.4637   -6.1951   24.1277 F   0  0  0  0  0  0  0  0  0  0  0  0
  1  2  1  0  0  0  0
  1  5  2  0  0  0  0
  2  6  2  0  0  0  0
  3  8  2  0  0  0  0
  3 18  1  0  0  0  0
  4  9  1  0  0  0  0
  4 18  2  0  0  0  0
  5 20  1  0  0  0  0
  6 22  1  0  0  0  0
  7 10  2  0  0  0  0
  7 21  1  0  0  0  0
  8 27  1  0  0  0  0
  9 27  2  0  0  0  0
 10 28  1  0  0  0  0
 11 12  2  0  0  0  0
 11 29  1  0  0  0  0
 12 30  1  0  0  0  0
 13 23  1  0  0  0  0
 13 28  2  0  0  0  0
 14 24  1  0  0  0  0
 14 25  2  0  0  0  0
 15 24  2  0  0  0  0
 15 26  1  0  0  0  0
 16 25  1  0  0  0  0
 16 26  2  0  0  0  0
 17 30  2  0  0  0  0
 17 31  1  0  0  0  0
 18 32  1  0  0  0  0
 19 32  1  0  0  0  0
 19 33  2  0  0  0  0
 19 36  1  0  0  0  0
 20 22  2  0  0  0  0
 20 42  1  0  0  0  0
 21 23  2  0  0  0  0
 21 43  1  0  0  0  0
 22 52  1  0  0  0  0
 23 44  1  0  0  0  0
 24 67  1  0  0  0  0
 25 70  1  0  0  0  0
 26 73  1  0  0  0  0
 27 83  1  0  0  0  0
 28 84  1  0  0  0  0
 29 31  2  0  0  0  0
 29 83  1  0  0  0  0
 30 85  1  0  0  0  0
 31 86  1  0  0  0  0
 32 65  2  0  0  0  0
 33 66  1  0  0  0  0
 33 71  1  0  0  0  0
 34 35  2  0  0  0  0
 34 37  1  0  0  0  0
 34 67  1  0  0  0  0
 35 45  1  0  0  0  0
 35 61  1  0  0  0  0
 36 72  1  0  0  0  0
 36 77  2  0  0  0  0
 37 55  1  0  0  0  0
 37 78  2  0  0  0  0
 38 53  1  0  0  0  0
 38 74  1  0  0  0  0
 38 79  2  0  0  0  0
 39 62  1  0  0  0  0
 39 68  1  0  0  0  0
 39 80  2  0  0  0  0
 40 63  1  0  0  0  0
 40 75  1  0  0  0  0
 40 81  2  0  0  0  0
 41 69  1  0  0  0  0
 41 73  1  0  0  0  0
 41 82  2  0  0  0  0
 42 46  1  0  0  0  0
 43 53  1  0  0  0  0
 44 68  1  0  0  0  0
 45 67  1  0  0  0  0
 46 48  1  0  0  0  0
 47 49  1  0  0  0  0
 47 50  1  0  0  0  0
 48 52  1  0  0  0  0
 49 54  1  0  0  0  0
 50 69  1  0  0  0  0
 51 54  1  0  0  0  0
 51 69  1  0  0  0  0
 52 74  1  0  0  0  0
 53 68  1  0  0  0  0
 54 66  1  0  0  0  0
 56 63  1  0  0  0  0
 57 64  1  0  0  0  0
 58 64  1  0  0  0  0
 59 64  1  0  0  0  0
 60 76  1  0  0  0  0
 61 84  1  0  0  0  0
 62 64  1  0  0  0  0
 62 75  1  0  0  0  0
 63 76  1  0  0  0  0
 65 66  1  0  0  0  0
M  CHG  1  76   1
M  ISO  4  41 100  61 101  73 100  84 101
M  END
> <Batch ID>
0155

> <Smiles>
CNC(C)C(=O)NC(C(=O)N1Cc2cc([101O:1][101CH2:1]C3=C(C(C)=O)N(c4cc(N)cc([100NH:0][100C:0](=O)N5CCCC(n6nc(-c7ccc(Oc8ccc(F)cc8F)cc7)c(C(N)=O)c6N)C5)c4)C3)ccc2CC1C(=O)NC1CCCc2ccccc21)C(C)(C)C

> <Shape>
0.285

> <Color>
0.216

> <Negative vol penalty>
0.000

$$$$

  -OEChem-04052303363D

 86 95  0     1  0  0  0  0  0999 V2000
  -22.9826  -33.2524   14.6890 C   0  0  0  0  0  0  0  0  0  0  0  0
  -23.9938  -32.4228   15.1631 C   0  0  0  0  0  0  0  0  0  0  0  0
  -28.0215  -19.6207   15.8437 C   0  0  0  0  0  0  0  0  0  0  0  0
  -21.4324  -13.2653   21.8436 C   0  0  0  0  0  0  0  0  0  0  0  0
  -21.7066  -15.0829   20.2757 C   0  0  0  0  0  0  0  0  0  0  0  0
  -28.7871  -20.7448   16.1531 C   0  0  0  0  0  0  0  0  0  0  0  0
  -22.4494  -34.2414   15.5146 C   0  0  0  0  0  0  0  0  0  0  0  0
  -24.4731  -32.5824   16.4628 C   0  0  0  0  0  0  0  0  0  0  0  0
  -25.0121  -28.1708   18.8902 C   0  0  0  0  0  0  0  0  0  0  0  0
  -27.8980  -18.5845   16.7693 C   0  0  0  0  0  0  0  0  0  0  0  0
  -20.0808  -13.5832   21.9758 C   0  0  0  0  0  0  0  0  0  0  0  0
  -20.3549  -15.4007   20.4078 C   0  0  0  0  0  0  0  0  0  0  0  0
  -26.1347  -27.4053   18.5779 C   0  0  0  0  0  0  0  0  0  0  0  0
  -17.2263  -13.1019   20.2284 C   0  0  0  0  0  0  0  0  0  0  0  0
  -16.3075  -12.0529   20.1952 C   0  0  0  0  0  0  0  0  0  0  0  0
  -29.3061  -19.7965   18.3138 C   0  0  0  0  0  0  0  0  0  0  0  0
  -27.2313  -28.2120   20.5693 C   0  0  0  0  0  0  0  0  0  0  0  0
  -15.5574  -12.6397   22.4156 C   0  0  0  0  0  0  0  0  0  0  0  0
  -22.2454  -14.0152   20.9936 C   0  0  0  0  0  0  0  0  0  0  0  0
  -29.4295  -20.8327   17.3882 C   0  0  0  0  0  0  0  0  0  0  0  0
  -24.1898  -12.4715   20.4073 C   0  0  0  0  0  0  0  0  0  0  0  0
  -22.9158  -34.4069   16.8283 C   0  0  0  0  0  0  0  0  0  0  0  0
  -24.9949  -28.9725   20.0405 C   0  0  0  0  0  0  0  0  0  0  0  0
  -23.9466  -33.5754   17.3063 C   0  0  0  0  0  0  0  0  0  0  0  0
  -26.1064  -28.9848   20.8952 C   0  0  0  0  0  0  0  0  0  0  0  0
  -28.5404  -18.6724   18.0043 C   0  0  0  0  0  0  0  0  0  0  0  0
  -19.5419  -14.6508   21.2579 C   0  0  0  0  0  0  0  0  0  0  0  0
  -27.2456  -27.4280   19.4159 C   0  0  0  0  0  0  0  0  0  0  0  0
  -17.3108  -13.9197   21.3553 C   0  0  0  0  0  0  0  0  0  0  0  0
  -15.4730  -11.8219   21.2887 C   0  0  0  0  0  0  0  0  0  0  0  0
  -16.4763  -13.6886   22.4488 C   0  0  0  0  0  0  0  0  0  0  0  0
  -23.6419  -13.6878   20.8571 C   0  0  0  0  0  0  0  0  0  0  0  0
  -25.5484  -12.6662   20.4613 C   0  0  0  0  0  0  0  0  0  0  0  0
  -30.2383  -22.0202   17.7163 C   0  0  0  0  0  0  0  0  0  0  0  0
  -23.5298  -11.2731   19.9788 C   0  0  0  0  0  0  0  0  0  0  0  0
  -24.7304  -32.0907   20.5978 C   0  0  0  0  0  0  0  0  0  0  0  0
  -24.6325  -31.1331   23.6955 C   0  0  0  0  0  0  0  0  0  0  0  0
  -26.3416  -28.7180   25.7604 C   0  0  0  0  0  0  0  0  0  0  0  0
  -28.9860  -17.5475   20.2139 C   0  0  0  0  0  0  0  0  0  0  0  0
  -22.3415  -35.5206   17.6676 C   0  0  0  0  0  0  0  0  0  0  0  0
  -23.7660  -29.7718   20.3774 C   0  0  0  0  0  0  0  0  0  0  0  0
  -26.1304  -29.8131   22.1530 C   0  0  0  0  0  0  0  0  0  0  0  0
  -22.6446  -35.3794   19.1570 C   0  0  0  0  0  0  0  0  0  0  0  0
  -28.8845  -15.1454   22.8401 C   0  0  0  0  0  0  0  0  0  0  0  0
  -24.1163  -35.0409   19.3725 C   0  0  0  0  0  0  0  0  0  0  0  0
  -27.5815  -14.3843   22.5851 C   0  0  0  0  0  0  0  0  0  0  0  0
  -29.8459  -24.9230   19.8749 C   0  0  0  0  0  0  0  0  0  0  0  0
  -27.6741  -24.4422   18.6138 C   0  0  0  0  0  0  0  0  0  0  0  0
  -28.7472  -16.6309   22.5113 C   0  0  0  0  0  0  0  0  0  0  0  0
  -30.4564  -24.2582   18.6482 C   0  0  0  0  0  0  0  0  0  0  0  0
  -28.2211  -23.0211   18.6401 C   0  0  0  0  0  0  0  0  0  0  0  0
  -26.9333  -16.1634   20.9113 C   0  0  0  0  0  0  0  0  0  0  0  0
  -24.4758  -33.7013   18.7184 C   0  0  1  0  0  0  0  0  0  0  0  0
  -24.0545  -30.9494   21.3035 C   0  0  1  0  0  0  0  0  0  0  0  0
  -27.0413  -14.6511   21.1664 C   0  0  2  0  0  0  0  0  0  0  0  0
  -28.3875  -25.3522   19.6303 C   0  0  0  0  0  0  0  0  0  1  0  0
  -25.5879  -27.5181   27.8315 C   0  0  0  0  0  0  0  0  0  0  0  0
  -26.0179  -33.4155   25.1723 C   0  0  0  0  0  0  0  0  0  0  0  0
  -26.8034  -31.7491   26.8676 C   0  0  0  0  0  0  0  0  0  0  0  0
  -24.3610  -32.1394   26.5436 C   0  0  0  0  0  0  0  0  0  0  0  0
  -26.9032  -26.0676   24.5693 C   0  0  0  0  0  0  0  0  0  0  0  0
  -25.6622  -30.8898   24.7723 C   0  0  1  0  0  0  0  0  0  0  0  0
  -25.7632  -27.4323   26.3233 C   0  0  2  0  0  0  0  0  0  0  0  0
  -25.7173  -32.0451   25.8114 C   0  0  0  0  0  0  0  0  0  0  0  0
  -24.5761  -14.5883   21.1738 N   0  0  0  0  0  0  0  0  0  0  0  0
  -25.7248  -13.9375   20.9227 N   0  0  0  0  0  0  0  0  0  0  0  0
  -29.6624  -23.0570   18.3105 N   0  0  0  0  0  0  0  0  0  0  0  0
  -24.9073  -30.5822   22.4358 N   0  0  0  0  0  0  0  0  0  0  0  0
  -28.2347  -16.8066   21.1507 N   0  0  0  0  0  0  0  0  0  0  0  0
  -26.5974  -11.8721   20.1589 N   0  0  0  0  0  0  0  0  0  0  0  0
  -22.1286  -11.2432   19.9851 N   0  0  0  0  0  0  0  0  0  0  0  0
  -28.4144  -17.6193   18.9440 N   0  0  0  0  0  0  0  0  0  0  0  0
  -24.0106  -32.5999   19.5338 N   0  0  0  0  0  0  0  0  0  0  0  0
  -25.3524  -29.5846   25.3459 N   0  0  0  0  0  0  0  0  0  0  0  0
  -31.5330  -22.0330   17.4132 N   0  3  0  0  0  0  0  0  0  0  0  0
  -26.6621  -26.2832   26.0192 N   0  3  0  0  0  0  0  0  0  0  0  0
  -24.1640  -10.2530   19.6169 O   0  0  0  0  0  0  0  0  0  0  0  0
  -25.8235  -32.4816   20.9905 O   0  0  0  0  0  0  0  0  0  0  0  0
  -23.6182  -31.7817   23.9641 O   0  0  0  0  0  0  0  0  0  0  0  0
  -27.5500  -28.9337   25.6984 O   0  0  0  0  0  0  0  0  0  0  0  0
  -30.0706  -18.0562   20.5086 O   0  0  0  0  0  0  0  0  0  0  0  0
  -27.7160  -25.3098   20.8894 O   0  0  0  0  0  0  0  0  0  0  0  0
  -18.2229  -14.9611   21.3864 O   0  0  0  0  0  0  0  0  0  0  0  0
  -28.3429  -26.6822   19.1131 O   0  0  0  0  0  0  0  0  0  1  0  0
  -14.5897  -10.8155   21.2561 F   0  0  0  0  0  0  0  0  0  0  0  0
  -16.5520  -14.4716   23.5337 F   0  0  0  0  0  0  0  0  0  0  0  0
  1  2  1  0  0  0  0
  1  7  2  0  0  0  0
  2  8  2  0  0  0  0
  3  6  2  0  0  0  0
  3 10  1  0  0  0  0
  4 11  2  0  0  0  0
  4 19  1  0  0  0  0
  5 12  1  0  0  0  0
  5 19  2  0  0  0  0
  6 20  1  0  0  0  0
  7 22  1  0  0  0  0
  8 24  1  0  0  0  0
  9 13  2  0  0  0  0
  9 23  1  0  0  0  0
 10 26  2  0  0  0  0
 11 27  1  0  0  0  0
 12 27  2  0  0  0  0
 13 28  1  0  0  0  0
 14 15  2  0  0  0  0
 14 29  1  0  0  0  0
 15 30  1  0  0  0  0
 16 20  2  0  0  0  0
 16 26  1  0  0  0  0
 17 25  1  0  0  0  0
 17 28  2  0  0  0  0
 18 30  2  0  0  0  0
 18 31  1  0  0  0  0
 19 32  1  0  0  0  0
 20 34  1  0  0  0  0
 21 32  1  0  0  0  0
 21 33  2  0  0  0  0
 21 35  1  0  0  0  0
 22 24  2  0  0  0  0
 22 40  1  0  0  0  0
 23 25  2  0  0  0  0
 23 41  1  0  0  0  0
 24 53  1  0  0  0  0
 25 42  1  0  0  0  0
 26 72  1  0  0  0  0
 27 83  1  0  0  0  0
 28 84  1  0  0  0  0
 29 31  2  0  0  0  0
 29 83  1  0  0  0  0
 30 85  1  0  0  0  0
 31 86  1  0  0  0  0
 32 65  2  0  0  0  0
 33 66  1  0  0  0  0
 33 70  1  0  0  0  0
 34 67  1  0  0  0  0
 34 75  2  0  0  0  0
 35 71  1  0  0  0  0
 35 77  2  0  0  0  0
 36 54  1  0  0  0  0
 36 73  1  0  0  0  0
 36 78  2  0  0  0  0
 37 62  1  0  0  0  0
 37 68  1  0  0  0  0
 37 79  2  0  0  0  0
 38 63  1  0  0  0  0
 38 74  1  0  0  0  0
 38 80  2  0  0  0  0
 39 69  1  0  0  0  0
 39 72  1  0  0  0  0
 39 81  2  0  0  0  0
 40 43  1  0  0  0  0
 41 54  1  0  0  0  0
 42 68  1  0  0  0  0
 43 45  1  0  0  0  0
 44 46  1  0  0  0  0
 44 49  1  0  0  0  0
 45 53  1  0  0  0  0
 46 55  1  0  0  0  0
 47 50  1  0  0  0  0
 47 56  1  0  0  0  0
 48 51  1  0  0  0  0
 48 56  1  0  0  0  0
 49 69  1  0  0  0  0
 50 67  1  0  0  0  0
 51 67  1  0  0  0  0
 52 55  1  0  0  0  0
 52 69  1  0  0  0  0
 53 73  1  0  0  0  0
 54 68  1  0  0  0  0
 55 66  1  0  0  0  0
 56 82  1  0  0  0  0
 56 84  1  0  0  0  0
 57 63  1  0  0  0  0
 58 64  1  0  0  0  0
 59 64  1  0  0  0  0
 60 64  1  0  0  0  0
 61 76  1  0  0  0  0
 62 64  1  0  0  0  0
 62 74  1  0  0  0  0
 63 76  1  0  0  0  0
 65 66  1  0  0  0  0
M  CHG  2  75   1  76   1
M  ISO  4  39 100  56 101  72 100  84 101
M  END
> <Batch ID>
0155

> <Smiles>
CNC(C)C(=O)NC(C(=O)N1Cc2cc([101O:1][101C:1]3(O)CCN(C(=N)c4cccc([100NH:0][100C:0](=O)N5CCCC(n6nc(-c7ccc(Oc8ccc(F)cc8F)cc7)c(C(N)=O)c6N)C5)c4)CC3)ccc2CC1C(=O)NC1CCCc2ccccc21)C(C)(C)C

> <Shape>
0.238

> <Color>
0.089

> <Negative vol penalty>
0.000

$$$$

  -OEChem-04052303363D

 82 90  0     1  0  0  0  0  0999 V2000
  -18.2561  -25.6723   19.7633 C   0  0  0  0  0  0  0  0  0  0  0  0
  -19.1889  -24.7881   20.2958 C   0  0  0  0  0  0  0  0  0  0  0  0
  -32.4581  -17.6522   23.5831 C   0  0  0  0  0  0  0  0  0  0  0  0
  -23.1383   -9.8016   19.8850 C   0  0  0  0  0  0  0  0  0  0  0  0
  -23.9653   -9.7111   22.1532 C   0  0  0  0  0  0  0  0  0  0  0  0
  -18.1679  -26.9725   20.2588 C   0  0  0  0  0  0  0  0  0  0  0  0
  -20.0347  -25.2040   21.3234 C   0  0  0  0  0  0  0  0  0  0  0  0
  -22.1151  -21.8124   25.9791 C   0  0  0  0  0  0  0  0  0  0  0  0
  -31.8843  -16.7953   22.6439 C   0  0  0  0  0  0  0  0  0  0  0  0
  -31.6443  -18.4353   24.4017 C   0  0  0  0  0  0  0  0  0  0  0  0
  -22.4553   -8.6021   20.0861 C   0  0  0  0  0  0  0  0  0  0  0  0
  -23.2823   -8.5116   22.3544 C   0  0  0  0  0  0  0  0  0  0  0  0
  -23.3216  -21.1457   26.1881 C   0  0  0  0  0  0  0  0  0  0  0  0
  -20.1131   -7.5292   22.9960 C   0  0  0  0  0  0  0  0  0  0  0  0
  -19.3941   -7.3858   24.1826 C   0  0  0  0  0  0  0  0  0  0  0  0
  -24.1441  -23.0382   27.4375 C   0  0  0  0  0  0  0  0  0  0  0  0
  -29.6828  -17.5048   23.3418 C   0  0  0  0  0  0  0  0  0  0  0  0
  -20.7436   -5.4694   24.7687 C   0  0  0  0  0  0  0  0  0  0  0  0
  -23.8933  -10.3560   20.9185 C   0  0  0  0  0  0  0  0  0  0  0  0
  -24.1165  -12.8972   20.9394 C   0  0  0  0  0  0  0  0  0  0  0  0
  -19.0065  -27.4016   21.2996 C   0  0  0  0  0  0  0  0  0  0  0  0
  -21.9178  -23.1036   26.4893 C   0  0  0  0  0  0  0  0  0  0  0  0
  -19.9585  -26.5116   21.8324 C   0  0  0  0  0  0  0  0  0  0  0  0
  -22.9333  -23.7182   27.2358 C   0  0  0  0  0  0  0  0  0  0  0  0
  -30.4966  -16.7217   22.5232 C   0  0  0  0  0  0  0  0  0  0  0  0
  -30.2567  -18.3617   24.2810 C   0  0  0  0  0  0  0  0  0  0  0  0
  -22.5273   -7.9572   21.3208 C   0  0  0  0  0  0  0  0  0  0  0  0
  -24.3374  -21.7597   26.9149 C   0  0  0  0  0  0  0  0  0  0  0  0
  -21.1473   -6.6427   22.6957 C   0  0  0  0  0  0  0  0  0  0  0  0
  -19.7093   -6.3559   25.0689 C   0  0  0  0  0  0  0  0  0  0  0  0
  -21.4626   -5.6128   23.5820 C   0  0  0  0  0  0  0  0  0  0  0  0
  -24.5995  -11.5947   20.7111 C   0  0  0  0  0  0  0  0  0  0  0  0
  -25.1622  -13.7170   20.5918 C   0  0  0  0  0  0  0  0  0  0  0  0
  -22.8370  -13.3274   21.4226 C   0  0  0  0  0  0  0  0  0  0  0  0
  -21.3475  -25.9576   25.2113 C   0  0  0  0  0  0  0  0  0  0  0  0
  -27.4463  -20.0936   26.0654 C   0  0  0  0  0  0  0  0  0  0  0  0
  -21.0170  -26.8481   28.3129 C   0  0  0  0  0  0  0  0  0  0  0  0
  -21.7506  -26.2522   31.5921 C   0  0  0  0  0  0  0  0  0  0  0  0
  -30.5781  -15.0067   20.6796 C   0  0  0  0  0  0  0  0  0  0  0  0
  -18.9063  -28.8310   21.7701 C   0  0  0  0  0  0  0  0  0  0  0  0
  -20.6008  -23.7987   26.2778 C   0  0  0  0  0  0  0  0  0  0  0  0
  -22.7639  -25.0952   27.8220 C   0  0  0  0  0  0  0  0  0  0  0  0
  -19.5840  -29.0784   23.1154 C   0  0  0  0  0  0  0  0  0  0  0  0
  -29.5040  -12.6848   18.2033 C   0  0  0  0  0  0  0  0  0  0  0  0
  -20.9684  -28.4383   23.1414 C   0  0  0  0  0  0  0  0  0  0  0  0
  -28.0926  -12.3013   18.6538 C   0  0  0  0  0  0  0  0  0  0  0  0
  -30.4433  -12.8862   19.3911 C   0  0  0  0  0  0  0  0  0  0  0  0
  -28.5476  -13.4387   20.8643 C   0  0  0  0  0  0  0  0  0  0  0  0
  -20.8766  -26.9178   22.9647 C   0  0  1  0  0  0  0  0  0  0  0  0
  -20.6986  -25.3158   26.4049 C   0  0  1  0  0  0  0  0  0  0  0  0
  -27.5489  -13.2886   19.7051 C   0  0  2  0  0  0  0  0  0  0  0  0
  -21.3698  -27.1739   33.8949 C   0  0  0  0  0  0  0  0  0  0  0  0
  -23.0674  -29.0418   27.7712 C   0  0  0  0  0  0  0  0  0  0  0  0
  -23.3493  -29.2929   30.2462 C   0  0  0  0  0  0  0  0  0  0  0  0
  -21.1346  -29.7482   29.1924 C   0  0  0  0  0  0  0  0  0  0  0  0
  -20.3668  -23.7895   32.4751 C   0  0  0  0  0  0  0  0  0  0  0  0
  -28.0080  -19.1308   25.0409 C   0  0  0  0  0  0  0  0  0  0  0  0
  -25.9337  -20.1893   26.1140 C   0  0  0  0  0  0  0  0  0  1  0  0
  -21.9497  -27.3625   29.3827 C   0  0  1  0  0  0  0  0  0  0  0  0
  -20.8719  -26.2099   32.8293 C   0  0  2  0  0  0  0  0  0  0  0  0
  -22.3795  -28.8362   29.1355 C   0  0  0  0  0  0  0  0  0  0  0  0
  -25.8544  -11.5830   20.2537 N   0  0  0  0  0  0  0  0  0  0  0  0
  -26.1687  -12.8881   20.1916 N   0  0  0  0  0  0  0  0  0  0  0  0
  -21.4605  -25.7364   27.5826 N   0  0  0  0  0  0  0  0  0  0  0  0
  -29.8646  -13.8369   20.3431 N   0  0  0  0  0  0  0  0  0  0  0  0
  -25.3097  -15.0589   20.5923 N   0  0  0  0  0  0  0  0  0  0  0  0
  -21.8779  -12.3536   21.7327 N   0  0  0  0  0  0  0  0  0  0  0  0
  -29.9142  -15.8512   21.5688 N   0  0  0  0  0  0  0  0  0  0  0  0
  -29.4475  -19.1412   25.0951 N   0  0  0  0  0  0  0  0  0  0  0  0
  -20.4645  -26.2893   24.2014 N   0  0  0  0  0  0  0  0  0  0  0  0
  -21.2713  -27.1434   30.6555 N   0  0  0  0  0  0  0  0  0  0  0  0
  -20.8576  -24.8365   33.4078 N   0  3  0  0  0  0  0  0  0  0  0  0
  -22.5470  -14.5402   21.5593 O   0  0  0  0  0  0  0  0  0  0  0  0
  -22.5593  -26.1398   25.2074 O   0  0  0  0  0  0  0  0  0  0  0  0
  -28.1602  -20.7597   26.8141 O   0  0  0  0  0  0  0  0  0  0  0  0
  -19.9318  -27.4074   28.1367 O   0  0  0  0  0  0  0  0  0  0  0  0
  -22.7631  -25.5661   31.4705 O   0  0  0  0  0  0  0  0  0  0  0  0
  -31.6839  -15.2553   20.1923 O   0  0  0  0  0  0  0  0  0  0  0  0
  -21.8607   -6.7869   21.5176 O   0  0  0  0  0  0  0  0  0  0  0  0
  -25.5162  -21.1114   27.1199 O   0  0  0  0  0  0  0  0  0  1  0  0
  -19.0198   -6.2192   26.2091 F   0  0  0  0  0  0  0  0  0  0  0  0
  -22.4559   -4.7588   23.2995 F   0  0  0  0  0  0  0  0  0  0  0  0
  1  2  1  0  0  0  0
  1  6  2  0  0  0  0
  2  7  2  0  0  0  0
  3  9  1  0  0  0  0
  3 10  2  0  0  0  0
  4 11  2  0  0  0  0
  4 19  1  0  0  0  0
  5 12  1  0  0  0  0
  5 19  2  0  0  0  0
  6 21  1  0  0  0  0
  7 23  1  0  0  0  0
  8 13  2  0  0  0  0
  8 22  1  0  0  0  0
  9 25  2  0  0  0  0
 10 26  1  0  0  0  0
 11 27  1  0  0  0  0
 12 27  2  0  0  0  0
 13 28  1  0  0  0  0
 14 15  2  0  0  0  0
 14 29  1  0  0  0  0
 15 30  1  0  0  0  0
 16 24  1  0  0  0  0
 16 28  2  0  0  0  0
 17 25  1  0  0  0  0
 17 26  2  0  0  0  0
 18 30  2  0  0  0  0
 18 31  1  0  0  0  0
 19 32  1  0  0  0  0
 20 32  1  0  0  0  0
 20 33  2  0  0  0  0
 20 34  1  0  0  0  0
 21 23  2  0  0  0  0
 21 40  1  0  0  0  0
 22 24  2  0  0  0  0
 22 41  1  0  0  0  0
 23 49  1  0  0  0  0
 24 42  1  0  0  0  0
 25 68  1  0  0  0  0
 26 69  1  0  0  0  0
 27 79  1  0  0  0  0
 28 80  1  0  0  0  0
 29 31  2  0  0  0  0
 29 79  1  0  0  0  0
 30 81  1  0  0  0  0
 31 82  1  0  0  0  0
 32 62  2  0  0  0  0
 33 63  1  0  0  0  0
 33 66  1  0  0  0  0
 34 67  1  0  0  0  0
 34 73  2  0  0  0  0
 35 50  1  0  0  0  0
 35 70  1  0  0  0  0
 35 74  2  0  0  0  0
 36 57  1  0  0  0  0
 36 58  1  0  0  0  0
 36 75  2  0  0  0  0
 37 59  1  0  0  0  0
 37 64  1  0  0  0  0
 37 76  2  0  0  0  0
 38 60  1  0  0  0  0
 38 71  1  0  0  0  0
 38 77  2  0  0  0  0
 39 65  1  0  0  0  0
 39 68  1  0  0  0  0
 39 78  2  0  0  0  0
 40 43  1  0  0  0  0
 41 50  1  0  0  0  0
 42 64  1  0  0  0  0
 43 45  1  0  0  0  0
 44 46  1  0  0  0  0
 44 47  1  0  0  0  0
 45 49  1  0  0  0  0
 46 51  1  0  0  0  0
 47 65  1  0  0  0  0
 48 51  1  0  0  0  0
 48 65  1  0  0  0  0
 49 70  1  0  0  0  0
 50 64  1  0  0  0  0
 51 63  1  0  0  0  0
 52 60  1  0  0  0  0
 53 61  1  0  0  0  0
 54 61  1  0  0  0  0
 55 61  1  0  0  0  0
 56 72  1  0  0  0  0
 57 69  1  0  0  0  0
 58 80  1  0  0  0  0
 59 61  1  0  0  0  0
 59 71  1  0  0  0  0
 60 72  1  0  0  0  0
 62 63  1  0  0  0  0
M  CHG  1  72   1
M  ISO  4  39 100  58 101  68 100  80 101
M  END
> <Batch ID>
0155

> <Smiles>
CNC(C)C(=O)NC(C(=O)N1Cc2cc([101O:1][101CH2:1]C(=O)CNc3cccc([100NH:0][100C:0](=O)N4CCCC(n5nc(-c6ccc(Oc7ccc(F)cc7F)cc6)c(C(N)=O)c5N)C4)c3)ccc2CC1C(=O)NC1CCCc2ccccc21)C(C)(C)C

> <Shape>
0.226

> <Color>
0.196

> <Negative vol penalty>
0.000

$$$$

  -OEChem-04052303363D

 84 93  0     1  0  0  0  0  0999 V2000
  -18.5965  -23.9684   22.1557 C   0  0  0  0  0  0  0  0  0  0  0  0
  -19.9270  -24.0320   21.7542 C   0  0  0  0  0  0  0  0  0  0  0  0
  -26.1492  -15.1695   20.3799 C   0  0  0  0  0  0  0  0  0  0  0  0
  -27.8083  -14.2040   18.9128 C   0  0  0  0  0  0  0  0  0  0  0  0
  -17.9700  -25.1024   22.6708 C   0  0  0  0  0  0  0  0  0  0  0  0
  -20.6314  -25.2301   21.8666 C   0  0  0  0  0  0  0  0  0  0  0  0
  -25.2694  -24.5833   23.7942 C   0  0  0  0  0  0  0  0  0  0  0  0
  -25.7060  -13.8915   20.7199 C   0  0  0  0  0  0  0  0  0  0  0  0
  -27.3650  -12.9259   19.2528 C   0  0  0  0  0  0  0  0  0  0  0  0
  -26.2531  -24.0938   22.9359 C   0  0  0  0  0  0  0  0  0  0  0  0
  -23.7559  -11.4884   19.3608 C   0  0  0  0  0  0  0  0  0  0  0  0
  -22.3791  -11.2665   19.3875 C   0  0  0  0  0  0  0  0  0  0  0  0
  -27.0942  -26.3342   22.6319 C   0  0  0  0  0  0  0  0  0  0  0  0
  -30.1762  -23.7237   16.5349 C   0  0  0  0  0  0  0  0  0  0  0  0
  -22.5206  -10.6696   21.7243 C   0  0  0  0  0  0  0  0  0  0  0  0
  -30.4574  -25.9866   16.0852 C   0  0  0  0  0  0  0  0  0  0  0  0
  -27.2004  -15.3258   19.4763 C   0  0  0  0  0  0  0  0  0  0  0  0
  -28.6621  -17.3964   19.7651 C   0  0  0  0  0  0  0  0  0  0  0  0
  -18.6700  -26.3125   22.7986 C   0  0  0  0  0  0  0  0  0  0  0  0
  -25.1838  -25.9556   24.0696 C   0  0  0  0  0  0  0  0  0  0  0  0
  -20.0133  -26.3818   22.3826 C   0  0  0  0  0  0  0  0  0  0  0  0
  -26.1101  -26.8383   23.4960 C   0  0  0  0  0  0  0  0  0  0  0  0
  -30.0307  -25.0591   17.0099 C   0  0  0  0  0  0  0  0  0  0  0  0
  -26.3139  -12.7696   20.1563 C   0  0  0  0  0  0  0  0  0  0  0  0
  -27.1638  -24.9697   22.3524 C   0  0  0  0  0  0  0  0  0  0  0  0
  -24.5151  -11.3008   20.5159 C   0  0  0  0  0  0  0  0  0  0  0  0
  -21.7614  -10.8571   20.5692 C   0  0  0  0  0  0  0  0  0  0  0  0
  -23.8974  -10.8914   21.6976 C   0  0  0  0  0  0  0  0  0  0  0  0
  -27.6583  -16.6459   19.1243 C   0  0  0  0  0  0  0  0  0  0  0  0
  -30.7085  -23.6815   15.2650 C   0  0  0  0  0  0  0  0  0  0  0  0
  -28.7189  -18.5708   19.0551 C   0  0  0  0  0  0  0  0  0  0  0  0
  -29.4711  -17.0620   20.9007 C   0  0  0  0  0  0  0  0  0  0  0  0
  -22.9877  -28.2051   23.5998 C   0  0  0  0  0  0  0  0  0  0  0  0
  -25.0468  -30.0264   25.3219 C   0  0  0  0  0  0  0  0  0  0  0  0
  -29.0557  -24.5619   19.2763 C   0  0  0  0  0  0  0  0  0  0  0  0
  -28.2442  -30.5651   26.3863 C   0  0  0  0  0  0  0  0  0  0  0  0
  -28.7821  -21.3576   14.2882 C   0  0  0  0  0  0  0  0  0  0  0  0
  -17.9366  -27.5242   23.3171 C   0  0  0  0  0  0  0  0  0  0  0  0
  -24.1336  -26.4644   25.0186 C   0  0  0  0  0  0  0  0  0  0  0  0
  -26.0736  -28.3179   23.7753 C   0  0  0  0  0  0  0  0  0  0  0  0
  -18.8629  -28.6569   23.7520 C   0  0  0  0  0  0  0  0  0  0  0  0
  -32.2884  -20.4373   14.3811 C   0  0  0  0  0  0  0  0  0  0  0  0
  -25.6395  -20.4644   15.5352 C   0  0  0  0  0  0  0  0  0  0  0  0
  -19.9399  -28.8997   22.6995 C   0  0  0  0  0  0  0  0  0  0  0  0
  -32.4321  -21.9288   14.6558 C   0  0  0  0  0  0  0  0  0  0  0  0
  -25.9506  -19.4377   16.6224 C   0  0  0  0  0  0  0  0  0  0  0  0
  -26.5575  -20.2775   14.3338 C   0  0  0  0  0  0  0  0  0  0  0  0
  -30.9106  -20.1220   14.9425 C   0  0  0  0  0  0  0  0  0  0  0  0
  -28.3469  -19.3418   15.7674 C   0  0  0  0  0  0  0  0  0  0  0  0
  -20.8182  -27.6568   22.5120 C   0  0  1  0  0  0  0  0  0  0  0  0
  -31.0172  -22.4707   14.4137 C   0  0  1  0  0  0  0  0  0  0  0  0
  -23.8190  -27.9445   24.8240 C   0  0  1  0  0  0  0  0  0  0  0  0
  -27.4389  -19.4829   17.0063 C   0  0  2  0  0  0  0  0  0  0  0  0
  -29.6243  -32.1553   27.7516 C   0  0  0  0  0  0  0  0  0  0  0  0
  -24.9726  -32.0480   23.0377 C   0  0  0  0  0  0  0  0  0  0  0  0
  -27.0329  -33.1003   23.9948 C   0  0  0  0  0  0  0  0  0  0  0  0
  -24.9234  -33.0567   25.3256 C   0  0  0  0  0  0  0  0  0  0  0  0
  -29.0133  -28.4398   28.2969 C   0  0  0  0  0  0  0  0  0  0  0  0
  -28.5801  -25.3530   20.4807 C   0  0  0  0  0  0  0  0  0  1  0  0
  -26.2226  -30.9137   24.9914 C   0  0  1  0  0  0  0  0  0  0  0  0
  -28.8100  -30.8710   27.7614 C   0  0  2  0  0  0  0  0  0  0  0  0
  -25.7876  -32.2521   24.3304 C   0  0  0  0  0  0  0  0  0  0  0  0
  -27.1162  -17.2894   18.0870 N   0  0  0  0  0  0  0  0  0  0  0  0
  -27.7819  -18.4568   18.0706 N   0  0  0  0  0  0  0  0  0  0  0  0
  -25.0243  -28.7676   24.7048 N   0  0  0  0  0  0  0  0  0  0  0  0
  -27.9668  -20.3067   14.7268 N   0  0  0  0  0  0  0  0  0  0  0  0
  -30.1267  -21.3281   14.6698 N   0  0  0  0  0  0  0  0  0  0  0  0
  -29.4784  -19.6795   19.1831 N   0  0  0  0  0  0  0  0  0  0  0  0
  -29.2831  -15.8142   21.5106 N   0  0  0  0  0  0  0  0  0  0  0  0
  -29.5240  -25.4065   18.2456 N   0  0  0  0  0  0  0  0  0  0  0  0
  -21.7737  -27.5452   23.5932 N   0  0  0  0  0  0  0  0  0  0  0  0
  -26.9728  -31.0761   26.2320 N   0  0  0  0  0  0  0  0  0  0  0  0
  -29.6913  -29.7593   28.2179 N   0  3  0  0  0  0  0  0  0  0  0  0
  -30.3235  -17.8530   21.3709 O   0  0  0  0  0  0  0  0  0  0  0  0
  -23.4154  -28.9509   22.7265 O   0  0  0  0  0  0  0  0  0  0  0  0
  -24.1839  -30.4323   26.1044 O   0  0  0  0  0  0  0  0  0  0  0  0
  -29.0146  -23.3362   19.2556 O   0  0  0  0  0  0  0  0  0  0  0  0
  -28.8691  -29.9391   25.5331 O   0  0  0  0  0  0  0  0  0  0  0  0
  -28.3381  -22.2655   13.5737 O   0  0  0  0  0  0  0  0  0  0  0  0
  -25.8818  -11.5223   20.4880 O   0  0  0  0  0  0  0  0  0  0  0  0
  -28.1345  -24.4897   21.5051 O   0  0  0  0  0  0  0  0  0  1  0  0
  -20.4390  -10.6456   20.5950 F   0  0  0  0  0  0  0  0  0  0  0  0
  -24.6213  -10.7107   22.8108 F   0  0  0  0  0  0  0  0  0  0  0  0
  -31.0305  -25.2472   14.6510 S   0  0  0  0  0  0  0  0  0  0  0  0
  1  2  1  0  0  0  0
  1  5  2  0  0  0  0
  2  6  2  0  0  0  0
  3  8  2  0  0  0  0
  3 17  1  0  0  0  0
  4  9  1  0  0  0  0
  4 17  2  0  0  0  0
  5 19  1  0  0  0  0
  6 21  1  0  0  0  0
  7 10  2  0  0  0  0
  7 20  1  0  0  0  0
  8 24  1  0  0  0  0
  9 24  2  0  0  0  0
 10 25  1  0  0  0  0
 11 12  2  0  0  0  0
 11 26  1  0  0  0  0
 12 27  1  0  0  0  0
 13 22  1  0  0  0  0
 13 25  2  0  0  0  0
 14 23  1  0  0  0  0
 14 30  2  0  0  0  0
 15 27  2  0  0  0  0
 15 28  1  0  0  0  0
 16 23  2  0  0  0  0
 16 84  1  0  0  0  0
 17 29  1  0  0  0  0
 18 29  1  0  0  0  0
 18 31  2  0  0  0  0
 18 32  1  0  0  0  0
 19 21  2  0  0  0  0
 19 38  1  0  0  0  0
 20 22  2  0  0  0  0
 20 39  1  0  0  0  0
 21 50  1  0  0  0  0
 22 40  1  0  0  0  0
 23 70  1  0  0  0  0
 24 80  1  0  0  0  0
 25 81  1  0  0  0  0
 26 28  2  0  0  0  0
 26 80  1  0  0  0  0
 27 82  1  0  0  0  0
 28 83  1  0  0  0  0
 29 63  2  0  0  0  0
 30 51  1  0  0  0  0
 30 84  1  0  0  0  0
 31 64  1  0  0  0  0
 31 68  1  0  0  0  0
 32 69  1  0  0  0  0
 32 74  2  0  0  0  0
 33 52  1  0  0  0  0
 33 71  1  0  0  0  0
 33 75  2  0  0  0  0
 34 60  1  0  0  0  0
 34 65  1  0  0  0  0
 34 76  2  0  0  0  0
 35 59  1  0  0  0  0
 35 70  1  0  0  0  0
 35 77  2  0  0  0  0
 36 61  1  0  0  0  0
 36 72  1  0  0  0  0
 36 78  2  0  0  0  0
 37 66  1  0  0  0  0
 37 67  1  0  0  0  0
 37 79  2  0  0  0  0
 38 41  1  0  0  0  0
 39 52  1  0  0  0  0
 40 65  1  0  0  0  0
 41 44  1  0  0  0  0
 42 45  1  0  0  0  0
 42 48  1  0  0  0  0
 43 46  1  0  0  0  0
 43 47  1  0  0  0  0
 44 50  1  0  0  0  0
 45 51  1  0  0  0  0
 46 53  1  0  0  0  0
 47 66  1  0  0  0  0
 48 67  1  0  0  0  0
 49 53  1  0  0  0  0
 49 66  1  0  0  0  0
 50 71  1  0  0  0  0
 51 67  1  0  0  0  0
 52 65  1  0  0  0  0
 53 64  1  0  0  0  0
 54 61  1  0  0  0  0
 55 62  1  0  0  0  0
 56 62  1  0  0  0  0
 57 62  1  0  0  0  0
 58 73  1  0  0  0  0
 59 81  1  0  0  0  0
 60 62  1  0  0  0  0
 60 72  1  0  0  0  0
 61 73  1  0  0  0  0
 63 64  1  0  0  0  0
M  CHG  1  73   1
M  ISO  4  37 100  59 101  67 100  81 101
M  END
> <Batch ID>
0155

> <Smiles>
CNC(C)C(=O)NC(C(=O)N1Cc2cc([101O:1][101CH2:1]C(=O)Nc3csc(C4CCC[100N:0]4[100C:0](=O)N4CCCC(n5nc(-c6ccc(Oc7ccc(F)cc7F)cc6)c(C(N)=O)c5N)C4)c3)ccc2CC1C(=O)NC1CCCc2ccccc21)C(C)(C)C

> <Shape>
0.247

> <Color>
0.074

> <Negative vol penalty>
0.000

$$$$

  -OEChem-04052303363D

 82 91  0     1  0  0  0  0  0999 V2000
  -26.7467  -33.0996   25.8844 C   0  0  0  0  0  0  0  0  0  0  0  0
  -27.5173  -31.9423   25.8371 C   0  0  0  0  0  0  0  0  0  0  0  0
  -22.6696  -10.1975   20.1668 C   0  0  0  0  0  0  0  0  0  0  0  0
  -24.3188   -9.4209   21.7524 C   0  0  0  0  0  0  0  0  0  0  0  0
  -25.5031  -33.1339   25.2548 C   0  0  0  0  0  0  0  0  0  0  0  0
  -27.0443  -30.8182   25.1611 C   0  0  0  0  0  0  0  0  0  0  0  0
  -30.3646  -26.7475   22.0129 C   0  0  0  0  0  0  0  0  0  0  0  0
  -21.9342   -9.0279   20.3589 C   0  0  0  0  0  0  0  0  0  0  0  0
  -23.5834   -8.2513   21.9445 C   0  0  0  0  0  0  0  0  0  0  0  0
  -30.8626  -25.4877   22.3424 C   0  0  0  0  0  0  0  0  0  0  0  0
  -20.8324   -7.2941   23.6580 C   0  0  0  0  0  0  0  0  0  0  0  0
  -20.6451   -6.8561   24.9690 C   0  0  0  0  0  0  0  0  0  0  0  0
  -28.9467  -24.4630   21.2943 C   0  0  0  0  0  0  0  0  0  0  0  0
  -31.8335  -17.4603   21.8729 C   0  0  0  0  0  0  0  0  0  0  0  0
  -21.7684   -4.7843   24.4374 C   0  0  0  0  0  0  0  0  0  0  0  0
  -23.8620  -10.3939   20.8635 C   0  0  0  0  0  0  0  0  0  0  0  0
  -24.1966  -12.9226   20.9004 C   0  0  0  0  0  0  0  0  0  0  0  0
  -25.0189  -32.0127   24.5626 C   0  0  0  0  0  0  0  0  0  0  0  0
  -29.1465  -26.8751   21.3300 C   0  0  0  0  0  0  0  0  0  0  0  0
  -25.7925  -30.8370   24.5228 C   0  0  0  0  0  0  0  0  0  0  0  0
  -28.4367  -25.7255   20.9551 C   0  0  0  0  0  0  0  0  0  0  0  0
  -31.9536  -18.6850   22.6095 C   0  0  0  0  0  0  0  0  0  0  0  0
  -22.3910   -8.0549   21.2478 C   0  0  0  0  0  0  0  0  0  0  0  0
  -30.1522  -24.3452   21.9857 C   0  0  0  0  0  0  0  0  0  0  0  0
  -21.4876   -6.4771   22.7367 C   0  0  0  0  0  0  0  0  0  0  0  0
  -21.1131   -5.6013   25.3587 C   0  0  0  0  0  0  0  0  0  0  0  0
  -21.9557   -5.2222   23.1264 C   0  0  0  0  0  0  0  0  0  0  0  0
  -24.6224  -11.6016   20.6650 C   0  0  0  0  0  0  0  0  0  0  0  0
  -30.8148  -18.9241   23.3659 C   0  0  0  0  0  0  0  0  0  0  0  0
  -25.2781  -13.6978   20.5597 C   0  0  0  0  0  0  0  0  0  0  0  0
  -30.6312  -16.8265   22.0835 C   0  0  0  0  0  0  0  0  0  0  0  0
  -32.2018  -21.6160   23.2536 C   0  0  0  0  0  0  0  0  0  0  0  0
  -22.9362  -13.4058   21.3838 C   0  0  0  0  0  0  0  0  0  0  0  0
  -26.3350  -28.2044   21.9875 C   0  0  0  0  0  0  0  0  0  0  0  0
  -25.6806  -27.4140   18.9102 C   0  0  0  0  0  0  0  0  0  0  0  0
  -26.3527  -25.4158   16.2266 C   0  0  0  0  0  0  0  0  0  0  0  0
  -30.7453  -14.7474   20.6656 C   0  0  0  0  0  0  0  0  0  0  0  0
  -23.6479  -32.0818   23.9377 C   0  0  0  0  0  0  0  0  0  0  0  0
  -28.6362  -28.2404   20.9584 C   0  0  0  0  0  0  0  0  0  0  0  0
  -33.1708  -19.5611   22.5721 C   0  0  0  0  0  0  0  0  0  0  0  0
  -27.1341  -25.8076   20.2034 C   0  0  0  0  0  0  0  0  0  0  0  0
  -30.4966  -20.0889   24.2638 C   0  0  0  0  0  0  0  0  0  0  0  0
  -31.6941  -20.9934   24.5407 C   0  0  0  0  0  0  0  0  0  0  0  0
  -23.3838  -30.9710   22.9245 C   0  0  0  0  0  0  0  0  0  0  0  0
  -29.5754  -12.4900   18.1731 C   0  0  0  0  0  0  0  0  0  0  0  0
  -23.8194  -29.6214   23.4862 C   0  0  0  0  0  0  0  0  0  0  0  0
  -28.1475  -12.1663   18.6185 C   0  0  0  0  0  0  0  0  0  0  0  0
  -30.5201  -12.6427   19.3638 C   0  0  0  0  0  0  0  0  0  0  0  0
  -28.6474  -13.2691   20.8369 C   0  0  0  0  0  0  0  0  0  0  0  0
  -25.3246  -29.6053   23.7784 C   0  0  1  0  0  0  0  0  0  0  0  0
  -27.1305  -28.2696   20.7145 C   0  0  1  0  0  0  0  0  0  0  0  0
  -27.6455  -13.1701   19.6749 C   0  0  2  0  0  0  0  0  0  0  0  0
  -25.6288  -24.9819   13.8633 C   0  0  0  0  0  0  0  0  0  0  0  0
  -23.1884  -25.9853   19.9385 C   0  0  0  0  0  0  0  0  0  0  0  0
  -23.0421  -24.8037   17.7361 C   0  0  0  0  0  0  0  0  0  0  0  0
  -22.8489  -27.2889   17.8314 C   0  0  0  0  0  0  0  0  0  0  0  0
  -29.0347  -26.0727   15.1616 C   0  0  0  0  0  0  0  0  0  0  0  0
  -31.8767  -23.0670   23.0094 C   0  0  0  0  0  0  0  0  0  1  0  0
  -25.1002  -26.2050   18.2172 C   0  0  1  0  0  0  0  0  0  0  0  0
  -26.5914  -25.7412   14.7631 C   0  0  2  0  0  0  0  0  0  0  0  0
  -23.5684  -26.0689   18.4467 C   0  0  0  0  0  0  0  0  0  0  0  0
  -25.8765  -11.5374   20.2099 N   0  0  0  0  0  0  0  0  0  0  0  0
  -32.8511  -20.9717   22.3435 N   0  0  0  0  0  0  0  0  0  0  0  0
  -26.2480  -12.8278   20.1564 N   0  0  0  0  0  0  0  0  0  0  0  0
  -26.6735  -27.1653   19.8684 N   0  0  0  0  0  0  0  0  0  0  0  0
  -29.9818  -13.6121   20.3205 N   0  0  0  0  0  0  0  0  0  0  0  0
  -25.4844  -15.0319   20.5687 N   0  0  0  0  0  0  0  0  0  0  0  0
  -22.7652  -13.5590   22.7664 N   0  0  0  0  0  0  0  0  0  0  0  0
  -30.1173  -15.6148   21.5588 N   0  0  0  0  0  0  0  0  0  0  0  0
  -26.0757  -29.4384   22.5527 N   0  0  0  0  0  0  0  0  0  0  0  0
  -25.4870  -26.3135   16.8147 N   0  0  0  0  0  0  0  0  0  0  0  0
  -27.9836  -25.3802   14.3726 N   0  3  0  0  0  0  0  0  0  0  0  0
  -21.9842  -13.6777   20.6136 O   0  0  0  0  0  0  0  0  0  0  0  0
  -25.9812  -27.1153   22.4238 O   0  0  0  0  0  0  0  0  0  0  0  0
  -25.2733  -28.5383   18.6073 O   0  0  0  0  0  0  0  0  0  0  0  0
  -26.8785  -24.4587   16.7905 O   0  0  0  0  0  0  0  0  0  0  0  0
  -31.8620  -14.9500   20.1819 O   0  0  0  0  0  0  0  0  0  0  0  0
  -21.6735   -6.9136   21.4357 O   0  0  0  0  0  0  0  0  0  0  0  0
  -30.6356  -23.1143   22.3066 O   0  0  0  0  0  0  0  0  0  1  0  0
  -20.9345   -5.1815   26.6181 F   0  0  0  0  0  0  0  0  0  0  0  0
  -22.5870   -4.4334   22.2460 F   0  0  0  0  0  0  0  0  0  0  0  0
  -29.6378  -17.6915   23.1664 S   0  0  0  0  0  0  0  0  0  0  0  0
  1  2  1  0  0  0  0
  1  5  2  0  0  0  0
  2  6  2  0  0  0  0
  3  8  2  0  0  0  0
  3 16  1  0  0  0  0
  4  9  1  0  0  0  0
  4 16  2  0  0  0  0
  5 18  1  0  0  0  0
  6 20  1  0  0  0  0
  7 10  2  0  0  0  0
  7 19  1  0  0  0  0
  8 23  1  0  0  0  0
  9 23  2  0  0  0  0
 10 24  1  0  0  0  0
 11 12  2  0  0  0  0
 11 25  1  0  0  0  0
 12 26  1  0  0  0  0
 13 21  1  0  0  0  0
 13 24  2  0  0  0  0
 14 22  1  0  0  0  0
 14 31  2  0  0  0  0
 15 26  2  0  0  0  0
 15 27  1  0  0  0  0
 16 28  1  0  0  0  0
 17 28  1  0  0  0  0
 17 30  2  0  0  0  0
 17 33  1  0  0  0  0
 18 20  2  0  0  0  0
 18 38  1  0  0  0  0
 19 21  2  0  0  0  0
 19 39  1  0  0  0  0
 20 50  1  0  0  0  0
 21 41  1  0  0  0  0
 22 29  2  0  0  0  0
 22 40  1  0  0  0  0
 23 78  1  0  0  0  0
 24 79  1  0  0  0  0
 25 27  2  0  0  0  0
 25 78  1  0  0  0  0
 26 80  1  0  0  0  0
 27 81  1  0  0  0  0
 28 62  2  0  0  0  0
 29 42  1  0  0  0  0
 29 82  1  0  0  0  0
 30 64  1  0  0  0  0
 30 67  1  0  0  0  0
 31 69  1  0  0  0  0
 31 82  1  0  0  0  0
 32 43  1  0  0  0  0
 32 58  1  0  0  0  0
 32 63  2  0  0  0  0
 33 68  1  0  0  0  0
 33 73  2  0  0  0  0
 34 51  1  0  0  0  0
 34 70  1  0  0  0  0
 34 74  2  0  0  0  0
 35 59  1  0  0  0  0
 35 65  1  0  0  0  0
 35 75  2  0  0  0  0
 36 60  1  0  0  0  0
 36 71  1  0  0  0  0
 36 76  2  0  0  0  0
 37 66  1  0  0  0  0
 37 69  1  0  0  0  0
 37 77  2  0  0  0  0
 38 44  1  0  0  0  0
 39 51  1  0  0  0  0
 40 63  1  0  0  0  0
 41 65  1  0  0  0  0
 42 43  1  0  0  0  0
 44 46  1  0  0  0  0
 45 47  1  0  0  0  0
 45 48  1  0  0  0  0
 46 50  1  0  0  0  0
 47 52  1  0  0  0  0
 48 66  1  0  0  0  0
 49 52  1  0  0  0  0
 49 66  1  0  0  0  0
 50 70  1  0  0  0  0
 51 65  1  0  0  0  0
 52 64  1  0  0  0  0
 53 60  1  0  0  0  0
 54 61  1  0  0  0  0
 55 61  1  0  0  0  0
 56 61  1  0  0  0  0
 57 72  1  0  0  0  0
 58 79  1  0  0  0  0
 59 61  1  0  0  0  0
 59 71  1  0  0  0  0
 60 72  1  0  0  0  0
 62 64  1  0  0  0  0
M  CHG  1  72   1
M  ISO  4  37 100  58 101  69 100  79 101
M  END
> <Batch ID>
0155

> <Smiles>
CNC(C)C(=O)NC(C(=O)N1Cc2cc([101O:1][101CH2:1]C3=NCc4cc([100NH:0][100C:0](=O)N5CCCC(n6nc(-c7ccc(Oc8ccc(F)cc8F)cc7)c(C(N)=O)c6N)C5)sc4CC3)ccc2CC1C(=O)NC1CCCc2ccccc21)C(C)(C)C

> <Shape>
0.327

> <Color>
0.179

> <Negative vol penalty>
0.000

$$$$

  -OEChem-04052303363D

 86 95  0     1  0  0  0  0  0999 V2000
  -27.9358  -33.4336   26.4912 C   0  0  0  0  0  0  0  0  0  0  0  0
  -28.1123  -32.2846   25.7270 C   0  0  0  0  0  0  0  0  0  0  0  0
  -26.8175  -12.3342   18.5671 C   0  0  0  0  0  0  0  0  0  0  0  0
  -26.2591  -12.7374   20.8828 C   0  0  0  0  0  0  0  0  0  0  0  0
  -26.6559  -33.8101   26.8963 C   0  0  0  0  0  0  0  0  0  0  0  0
  -27.0092  -31.5107   25.3684 C   0  0  0  0  0  0  0  0  0  0  0  0
  -27.1229  -30.1013   20.5057 C   0  0  0  0  0  0  0  0  0  0  0  0
  -25.6261  -11.6277   18.4027 C   0  0  0  0  0  0  0  0  0  0  0  0
  -25.0676  -12.0309   20.7185 C   0  0  0  0  0  0  0  0  0  0  0  0
  -27.9656  -29.0429   20.1691 C   0  0  0  0  0  0  0  0  0  0  0  0
  -24.0872   -8.7983   20.5783 C   0  0  0  0  0  0  0  0  0  0  0  0
  -23.7395   -7.8757   21.5650 C   0  0  0  0  0  0  0  0  0  0  0  0
  -29.9778  -22.0478   17.3969 C   0  0  0  0  0  0  0  0  0  0  0  0
  -26.0757  -27.5438   20.1757 C   0  0  0  0  0  0  0  0  0  0  0  0
  -21.7016   -9.1010   21.9925 C   0  0  0  0  0  0  0  0  0  0  0  0
  -27.1340  -12.8890   19.8071 C   0  0  0  0  0  0  0  0  0  0  0  0
  -30.0228  -22.5534   16.0655 C   0  0  0  0  0  0  0  0  0  0  0  0
  -29.6733  -13.1331   19.7930 C   0  0  0  0  0  0  0  0  0  0  0  0
  -25.5355  -33.0457   26.5343 C   0  0  0  0  0  0  0  0  0  0  0  0
  -25.7496  -29.8865   20.6908 C   0  0  0  0  0  0  0  0  0  0  0  0
  -25.7133  -31.8766   25.7702 C   0  0  0  0  0  0  0  0  0  0  0  0
  -25.2172  -28.6017   20.5121 C   0  0  0  0  0  0  0  0  0  0  0  0
  -24.7512  -11.4761   19.4784 C   0  0  0  0  0  0  0  0  0  0  0  0
  -27.4426  -27.7634   20.0069 C   0  0  0  0  0  0  0  0  0  0  0  0
  -23.2422   -9.8723   20.2988 C   0  0  0  0  0  0  0  0  0  0  0  0
  -22.5467   -8.0270   22.2721 C   0  0  0  0  0  0  0  0  0  0  0  0
  -22.0494  -10.0236   21.0058 C   0  0  0  0  0  0  0  0  0  0  0  0
  -28.3649  -13.6185   19.9777 C   0  0  0  0  0  0  0  0  0  0  0  0
  -29.7053  -21.5889   15.1347 C   0  0  0  0  0  0  0  0  0  0  0  0
  -30.4812  -14.2068   20.0774 C   0  0  0  0  0  0  0  0  0  0  0  0
  -29.6272  -20.7160   17.4329 C   0  0  0  0  0  0  0  0  0  0  0  0
  -30.3704  -23.9471   15.7354 C   0  0  0  0  0  0  0  0  0  0  0  0
  -30.1186  -11.8283   19.3994 C   0  0  0  0  0  0  0  0  0  0  0  0
  -23.7376  -30.2089   23.1304 C   0  0  0  0  0  0  0  0  0  0  0  0
  -21.5127  -29.4761   20.8865 C   0  0  0  0  0  0  0  0  0  0  0  0
  -21.2070  -27.1557   18.1406 C   0  0  0  0  0  0  0  0  0  0  0  0
  -29.6339  -20.1185   19.8802 C   0  0  0  0  0  0  0  0  0  0  0  0
  -24.1768  -33.4668   27.0357 C   0  0  0  0  0  0  0  0  0  0  0  0
  -24.8497  -31.0438   21.0275 C   0  0  0  0  0  0  0  0  0  0  0  0
  -23.7468  -28.3222   20.6796 C   0  0  0  0  0  0  0  0  0  0  0  0
  -23.0207  -32.7967   26.2976 C   0  0  0  0  0  0  0  0  0  0  0  0
  -30.6104  -18.2007   22.7167 C   0  0  0  0  0  0  0  0  0  0  0  0
  -23.2720  -31.2985   26.1600 C   0  0  0  0  0  0  0  0  0  0  0  0
  -30.2700  -16.7632   22.3170 C   0  0  0  0  0  0  0  0  0  0  0  0
  -29.9396  -26.6069   17.9581 C   0  0  0  0  0  0  0  0  0  0  0  0
  -27.9109  -25.0936   17.9357 C   0  0  0  0  0  0  0  0  0  0  0  0
  -29.5795  -19.1959   22.1869 C   0  0  0  0  0  0  0  0  0  0  0  0
  -30.2090  -26.2614   16.4996 C   0  0  0  0  0  0  0  0  0  0  0  0
  -28.1867  -24.7515   16.4776 C   0  0  0  0  0  0  0  0  0  0  0  0
  -28.9799  -17.6746   20.3442 C   0  0  0  0  0  0  0  0  0  0  0  0
  -24.5388  -31.0246   25.3403 C   0  0  1  0  0  0  0  0  0  0  0  0
  -23.5476  -30.6134   21.6959 C   0  0  1  0  0  0  0  0  0  0  0  0
  -30.0248  -16.6430   20.8001 C   0  0  2  0  0  0  0  0  0  0  0  0
  -28.4584  -26.4721   18.2976 C   0  0  0  0  0  0  0  0  0  1  0  0
  -29.6377  -21.7067   13.6608 C   0  0  0  0  0  0  0  0  0  0  0  0
  -19.8569  -27.2945   16.0299 C   0  0  0  0  0  0  0  0  0  0  0  0
  -19.4169  -27.9216   22.4680 C   0  0  0  0  0  0  0  0  0  0  0  0
  -18.8998  -26.6344   20.3838 C   0  0  0  0  0  0  0  0  0  0  0  0
  -18.5354  -29.1014   20.4468 C   0  0  0  0  0  0  0  0  0  0  0  0
  -23.5969  -26.7331   16.4468 C   0  0  0  0  0  0  0  0  0  0  0  0
  -20.8957  -28.1988   20.3699 C   0  0  1  0  0  0  0  0  0  0  0  0
  -21.2267  -27.4917   16.6604 C   0  0  2  0  0  0  0  0  0  0  0  0
  -19.4634  -27.9646   20.9276 C   0  0  0  0  0  0  0  0  0  0  0  0
  -28.3385  -14.9007   20.3508 N   0  0  0  0  0  0  0  0  0  0  0  0
  -29.6403  -15.2301   20.4029 N   0  0  0  0  0  0  0  0  0  0  0  0
  -29.6277  -24.9347   16.2155 N   0  0  0  0  0  0  0  0  0  0  0  0
  -22.9088  -29.4853   21.0151 N   0  0  0  0  0  0  0  0  0  0  0  0
  -29.4026  -19.0263   20.7430 N   0  0  0  0  0  0  0  0  0  0  0  0
  -31.8218  -14.3659   20.0785 N   0  0  0  0  0  0  0  0  0  0  0  0
  -30.3657  -10.8770   20.3986 N   0  0  0  0  0  0  0  0  0  0  0  0
  -29.4660  -19.8294   18.5264 N   0  0  0  0  0  0  0  0  0  0  0  0
  -24.2750  -31.2009   23.9283 N   0  0  0  0  0  0  0  0  0  0  0  0
  -20.9659  -28.2712   18.9144 N   0  0  0  0  0  0  0  0  0  0  0  0
  -31.4245  -24.1922   14.9628 N   0  3  0  0  0  0  0  0  0  0  0  0
  -22.2030  -26.6224   15.9448 N   0  3  0  0  0  0  0  0  0  0  0  0
  -30.3080  -11.5203   18.1982 O   0  0  0  0  0  0  0  0  0  0  0  0
  -23.4187  -29.0808   23.4874 O   0  0  0  0  0  0  0  0  0  0  0  0
  -20.7834  -30.4329   21.1589 O   0  0  0  0  0  0  0  0  0  0  0  0
  -21.3840  -26.0168   18.5676 O   0  0  0  0  0  0  0  0  0  0  0  0
  -29.9835  -21.2213   20.3087 O   0  0  0  0  0  0  0  0  0  0  0  0
  -23.5884  -10.7869   19.3184 O   0  0  0  0  0  0  0  0  0  0  0  0
  -28.2630  -26.7284   19.6790 O   0  0  0  0  0  0  0  0  0  1  0  0
  -22.2122   -7.1401   23.2185 F   0  0  0  0  0  0  0  0  0  0  0  0
  -21.2329  -11.0527   20.7409 F   0  0  0  0  0  0  0  0  0  0  0  0
  -27.7603  -27.4192   17.6157 F   0  0  0  0  0  0  0  0  0  0  0  0
  -29.3546  -20.0808   15.8662 S   0  0  0  0  0  0  0  0  0  0  0  0
  1  2  1  0  0  0  0
  1  5  2  0  0  0  0
  2  6  2  0  0  0  0
  3  8  2  0  0  0  0
  3 16  1  0  0  0  0
  4  9  1  0  0  0  0
  4 16  2  0  0  0  0
  5 19  1  0  0  0  0
  6 21  1  0  0  0  0
  7 10  2  0  0  0  0
  7 20  1  0  0  0  0
  8 23  1  0  0  0  0
  9 23  2  0  0  0  0
 10 24  1  0  0  0  0
 11 12  2  0  0  0  0
 11 25  1  0  0  0  0
 12 26  1  0  0  0  0
 13 17  1  0  0  0  0
 13 31  2  0  0  0  0
 14 22  1  0  0  0  0
 14 24  2  0  0  0  0
 15 26  2  0  0  0  0
 15 27  1  0  0  0  0
 16 28  1  0  0  0  0
 17 29  2  0  0  0  0
 17 32  1  0  0  0  0
 18 28  1  0  0  0  0
 18 30  2  0  0  0  0
 18 33  1  0  0  0  0
 19 21  2  0  0  0  0
 19 38  1  0  0  0  0
 20 22  2  0  0  0  0
 20 39  1  0  0  0  0
 21 51  1  0  0  0  0
 22 40  1  0  0  0  0
 23 81  1  0  0  0  0
 24 82  1  0  0  0  0
 25 27  2  0  0  0  0
 25 81  1  0  0  0  0
 26 83  1  0  0  0  0
 27 84  1  0  0  0  0
 28 64  2  0  0  0  0
 29 55  1  0  0  0  0
 29 86  1  0  0  0  0
 30 65  1  0  0  0  0
 30 69  1  0  0  0  0
 31 71  1  0  0  0  0
 31 86  1  0  0  0  0
 32 66  1  0  0  0  0
 32 74  2  0  0  0  0
 33 70  1  0  0  0  0
 33 76  2  0  0  0  0
 34 52  1  0  0  0  0
 34 72  1  0  0  0  0
 34 77  2  0  0  0  0
 35 61  1  0  0  0  0
 35 67  1  0  0  0  0
 35 78  2  0  0  0  0
 36 62  1  0  0  0  0
 36 73  1  0  0  0  0
 36 79  2  0  0  0  0
 37 68  1  0  0  0  0
 37 71  1  0  0  0  0
 37 80  2  0  0  0  0
 38 41  1  0  0  0  0
 39 52  1  0  0  0  0
 40 67  1  0  0  0  0
 41 43  1  0  0  0  0
 42 44  1  0  0  0  0
 42 47  1  0  0  0  0
 43 51  1  0  0  0  0
 44 53  1  0  0  0  0
 45 48  1  0  0  0  0
 45 54  1  0  0  0  0
 46 49  1  0  0  0  0
 46 54  1  0  0  0  0
 47 68  1  0  0  0  0
 48 66  1  0  0  0  0
 49 66  1  0  0  0  0
 50 53  1  0  0  0  0
 50 68  1  0  0  0  0
 51 72  1  0  0  0  0
 52 67  1  0  0  0  0
 53 65  1  0  0  0  0
 54 82  1  0  0  0  0
 54 85  1  0  0  0  0
 56 62  1  0  0  0  0
 57 63  1  0  0  0  0
 58 63  1  0  0  0  0
 59 63  1  0  0  0  0
 60 75  1  0  0  0  0
 61 63  1  0  0  0  0
 61 73  1  0  0  0  0
 62 75  1  0  0  0  0
 64 65  1  0  0  0  0
M  CHG  2  74   1  75   1
M  ISO  4  37 100  54 101  71 100  82 101
M  END
> <Batch ID>
0155

> <Smiles>
CNC(C)C(=O)NC(C(=O)N1Cc2cc([101O:1][101C:1]3(F)CCN(C(=N)c4cc([100NH:0][100C:0](=O)N5CCCC(n6nc(-c7ccc(Oc8ccc(F)cc8F)cc7)c(C(N)=O)c6N)C5)sc4C)CC3)ccc2CC1C(=O)NC1CCCc2ccccc21)C(C)(C)C

> <Shape>
0.331

> <Color>
0.103

> <Negative vol penalty>
0.000

$$$$
